TFI.pdb
     RDKit          3D

 27 27  0  0  1  0  0  0  0  0999 V2000
   10.8792  -19.5673   21.9674 C   0  0  0  0  0  0  0  0  0  0  0  0
   11.3922  -18.8155   20.7565 C   0  0  1  0  0  0  0  0  0  0  0  0
   11.6053  -19.6693   19.6765 O   0  0  0  0  0  0  0  0  0  0  0  0
   10.3881  -17.7383   20.4140 C   0  0  2  0  0  0  0  0  0  0  0  0
   10.8407  -17.1174   19.1864 N   0  0  0  0  0  0  0  0  0  0  0  0
   10.2381  -16.7356   21.4715 C   0  0  0  0  0  0  0  0  0  0  0  0
   11.1432  -15.8509   21.5900 O   0  0  0  0  0  0  0  0  0  0  0  0
    9.1758  -16.6662   22.3703 N   0  0  0  0  0  0  0  0  0  0  0  0
    9.0170  -15.6109   23.4019 C   0  0  1  0  0  0  0  0  0  0  0  0
    7.5859  -15.2429   23.3169 C   0  0  0  0  0  0  0  0  0  0  0  0
    7.0589  -14.2588   24.2438 C   0  0  0  0  0  0  0  0  0  0  0  0
    6.2873  -14.6774   25.3048 C   0  0  0  0  0  0  0  0  0  0  0  0
    5.7442  -13.8191   26.2375 C   0  0  0  0  0  0  0  0  0  0  0  0
    5.9841  -12.4620   26.1054 C   0  0  0  0  0  0  0  0  0  0  0  0
    6.7573  -12.0472   25.0414 C   0  0  0  0  0  0  0  0  0  0  0  0
    7.2942  -12.9026   24.1182 C   0  0  0  0  0  0  0  0  0  0  0  0
    9.5047  -16.2132   24.6432 C   0  0  0  0  0  0  0  0  0  0  0  0
    9.5118  -17.4902   24.7601 O   0  0  0  0  0  0  0  0  0  0  0  0
   10.1690  -13.7668   29.9515 C   0  0  0  0  0  0  0  0  0  0  0  0
    9.7458  -14.6419   28.8061 C   0  0  0  0  0  0  0  0  0  0  0  0
   10.8244  -15.3646   28.1054 C   0  0  2  0  0  0  0  0  0  0  0  0
   11.9257  -14.3713   27.7347 C   0  0  0  0  0  0  0  0  0  0  0  0
   10.4625  -16.2454   26.9703 C   0  0  2  0  0  0  0  0  0  0  0  0
   10.0041  -15.5379   25.7968 N   0  0  0  0  0  0  0  0  0  0  0  0
    9.5253  -17.2863   27.3654 C   0  0  0  0  0  0  0  0  0  0  0  0
    9.9346  -18.2725   28.2484 O   0  0  0  0  0  0  0  0  0  0  0  0
    8.3269  -17.3387   26.9364 O   0  0  0  0  0  0  0  0  0  0  0  0
  2  4  1  0
  2  1  1  1
  2  3  1  0
  4  5  1  6
  6  4  1  0
  6  7  2  0
  8  6  1  0
  9  8  1  0
 10 11  1  0
  9 10  1  1
 11 12  2  0
 11 16  1  0
 12 13  1  0
 13 14  2  0
 15 14  1  0
 16 15  2  0
 17 18  2  0
 17  9  1  0
 20 21  1  0
 20 19  1  0
 21 22  1  6
 23 24  1  6
 23 21  1  0
 24 17  1  0
 25 23  1  0
 26 25  1  0
 27 25  2  0
M  END
$$$$
