TFI.pdb
     RDKit          3D

 27 27  0  0  1  0  0  0  0  0999 V2000
   10.5668  -19.4042   21.8308 C   0  0  0  0  0  0  0  0  0  0  0  0
   11.3888  -18.6402   20.8133 C   0  0  1  0  0  0  0  0  0  0  0  0
   11.6667  -19.4184   19.6916 O   0  0  0  0  0  0  0  0  0  0  0  0
   10.6256  -17.3903   20.4379 C   0  0  2  0  0  0  0  0  0  0  0  0
   11.3724  -16.7445   19.3785 N   0  0  0  0  0  0  0  0  0  0  0  0
   10.4352  -16.4733   21.5644 C   0  0  0  0  0  0  0  0  0  0  0  0
   11.4266  -15.7712   21.9386 O   0  0  0  0  0  0  0  0  0  0  0  0
    9.2465  -16.3016   22.2706 N   0  0  0  0  0  0  0  0  0  0  0  0
    9.0556  -15.3177   23.3654 C   0  0  1  0  0  0  0  0  0  0  0  0
    7.6328  -14.9271   23.2485 C   0  0  0  0  0  0  0  0  0  0  0  0
    7.0797  -13.9964   24.2146 C   0  0  0  0  0  0  0  0  0  0  0  0
    7.3051  -12.6471   24.0561 C   0  0  0  0  0  0  0  0  0  0  0  0
    6.8207  -11.6871   24.9196 C   0  0  0  0  0  0  0  0  0  0  0  0
    6.0665  -12.0956   26.0062 C   0  0  0  0  0  0  0  0  0  0  0  0
    5.8433  -13.4478   26.1610 C   0  0  0  0  0  0  0  0  0  0  0  0
    6.3259  -14.3969   25.3017 C   0  0  0  0  0  0  0  0  0  0  0  0
    9.4862  -16.0098   24.5808 C   0  0  0  0  0  0  0  0  0  0  0  0
    9.5896  -17.2879   24.5714 O   0  0  0  0  0  0  0  0  0  0  0  0
   10.2948  -13.2844   29.5064 C   0  0  0  0  0  0  0  0  0  0  0  0
   10.2868  -13.9860   28.1781 C   0  0  0  0  0  0  0  0  0  0  0  0
   10.4386  -15.4531   28.2154 C   0  0  2  0  0  0  0  0  0  0  0  0
   11.7173  -15.7987   28.9787 C   0  0  0  0  0  0  0  0  0  0  0  0
   10.3262  -16.2071   26.9450 C   0  0  2  0  0  0  0  0  0  0  0  0
    9.8297  -15.4248   25.8363 N   0  0  0  0  0  0  0  0  0  0  0  0
    9.5710  -17.4402   27.1080 C   0  0  0  0  0  0  0  0  0  0  0  0
   10.2268  -18.5931   27.5087 O   0  0  0  0  0  0  0  0  0  0  0  0
    8.3165  -17.5171   26.9001 O   0  0  0  0  0  0  0  0  0  0  0  0
  2  4  1  0
  2  1  1  1
  2  3  1  0
  4  5  1  6
  6  4  1  0
  6  7  2  0
  8  6  1  0
  9  8  1  0
 10 11  1  0
  9 10  1  1
 11 12  2  0
 11 16  1  0
 12 13  1  0
 13 14  2  0
 15 14  1  0
 16 15  2  0
 17 18  2  0
 17  9  1  0
 20 21  1  0
 20 19  1  0
 21 22  1  6
 23 24  1  6
 23 21  1  0
 24 17  1  0
 25 23  1  0
 26 25  1  0
 27 25  2  0
M  END
$$$$
