TFI.pdb
     RDKit          3D

 27 27  0  0  1  0  0  0  0  0999 V2000
    7.6677  -18.3826   18.8373 C   0  0  0  0  0  0  0  0  0  0  0  0
    8.1584  -17.9071   20.1893 C   0  0  1  0  0  0  0  0  0  0  0  0
    9.2444  -18.6586   20.6329 O   0  0  0  0  0  0  0  0  0  0  0  0
    8.5171  -16.4434   20.0691 C   0  0  2  0  0  0  0  0  0  0  0  0
    9.6132  -16.3556   19.1266 N   0  0  0  0  0  0  0  0  0  0  0  0
    8.8909  -15.8365   21.3490 C   0  0  0  0  0  0  0  0  0  0  0  0
   10.1266  -15.7616   21.6376 O   0  0  0  0  0  0  0  0  0  0  0  0
    7.9981  -15.3275   22.2898 N   0  0  0  0  0  0  0  0  0  0  0  0
    8.3985  -14.7163   23.5818 C   0  0  1  0  0  0  0  0  0  0  0  0
    7.1983  -13.9605   24.0048 C   0  0  0  0  0  0  0  0  0  0  0  0
    7.2037  -13.3032   25.2984 C   0  0  0  0  0  0  0  0  0  0  0  0
    8.3510  -13.3232   26.0599 C   0  0  0  0  0  0  0  0  0  0  0  0
    8.4536  -12.7267   27.2990 C   0  0  0  0  0  0  0  0  0  0  0  0
    7.3469  -12.0709   27.8104 C   0  0  0  0  0  0  0  0  0  0  0  0
    6.2001  -12.0534   27.0445 C   0  0  0  0  0  0  0  0  0  0  0  0
    6.1028  -12.6467   25.8154 C   0  0  0  0  0  0  0  0  0  0  0  0
    8.8408  -15.8361   24.4137 C   0  0  0  0  0  0  0  0  0  0  0  0
    8.0855  -16.8656   24.5324 O   0  0  0  0  0  0  0  0  0  0  0  0
   13.3109  -18.4688   23.4814 C   0  0  0  0  0  0  0  0  0  0  0  0
   11.9610  -17.9549   23.8941 C   0  0  0  0  0  0  0  0  0  0  0  0
   11.7753  -17.6952   25.3345 C   0  0  2  0  0  0  0  0  0  0  0  0
   12.2055  -18.9342   26.1199 C   0  0  0  0  0  0  0  0  0  0  0  0
   10.4688  -17.1691   25.7944 C   0  0  2  0  0  0  0  0  0  0  0  0
   10.0628  -15.9452   25.1424 N   0  0  0  0  0  0  0  0  0  0  0  0
   10.4101  -17.0463   27.2432 C   0  0  0  0  0  0  0  0  0  0  0  0
   10.3451  -15.7874   27.8184 O   0  0  0  0  0  0  0  0  0  0  0  0
   10.4135  -18.0525   28.0245 O   0  0  0  0  0  0  0  0  0  0  0  0
  2  4  1  0
  2  1  1  6
  2  3  1  0
  4  5  1  6
  6  4  1  0
  6  7  2  0
  8  6  1  0
  9  8  1  0
 10 11  1  0
  9 10  1  1
 11 12  2  0
 11 16  1  0
 12 13  1  0
 13 14  2  0
 15 14  1  0
 16 15  2  0
 17 18  2  0
 17  9  1  0
 20 21  1  0
 20 19  1  0
 21 22  1  1
 23 24  1  6
 23 21  1  0
 24 17  1  0
 25 23  1  0
 26 25  1  0
 27 25  2  0
M  END
$$$$
