AWA.pdb
     RDKit          3D

 25 26  0  0  1  0  0  0  0  0999 V2000
    8.6064  -17.9150   18.4718 C   0  0  0  0  0  0  0  0  0  0  0  0
    9.2535  -18.1869   19.8260 C   0  0  2  0  0  0  0  0  0  0  0  0
    8.3566  -19.0370   20.6243 N   0  0  0  0  0  0  0  0  0  0  0  0
    9.4776  -16.9045   20.5135 C   0  0  0  0  0  0  0  0  0  0  0  0
   10.3078  -16.0884   20.0439 O   0  0  0  0  0  0  0  0  0  0  0  0
    8.7643  -16.5927   21.6905 N   0  0  0  0  0  0  0  0  0  0  0  0
    8.8759  -15.3093   22.3447 C   0  0  1  0  0  0  0  0  0  0  0  0
    7.4468  -14.8373   22.5607 C   0  0  0  0  0  0  0  0  0  0  0  0
    7.0509  -14.8241   23.9708 C   0  0  0  0  0  0  0  0  0  0  0  0
    6.6150  -15.8948   24.7180 C   0  0  0  0  0  0  0  0  0  0  0  0
    6.3452  -15.4749   25.9878 N   0  0  0  0  0  0  0  0  0  0  0  0
    6.5990  -14.1440   26.0807 C   0  0  0  0  0  0  0  0  0  0  0  0
    6.4921  -13.2489   27.1242 C   0  0  0  0  0  0  0  0  0  0  0  0
    6.8194  -11.9123   26.9576 C   0  0  0  0  0  0  0  0  0  0  0  0
    7.2557  -11.5098   25.7115 C   0  0  0  0  0  0  0  0  0  0  0  0
    7.3623  -12.4060   24.6683 C   0  0  0  0  0  0  0  0  0  0  0  0
    7.0396  -13.7394   24.8206 C   0  0  0  0  0  0  0  0  0  0  0  0
    9.6038  -15.4774   23.6038 C   0  0  0  0  0  0  0  0  0  0  0  0
   10.1441  -14.4712   24.1203 O   0  0  0  0  0  0  0  0  0  0  0  0
    9.7456  -17.4898   26.5158 C   0  0  0  0  0  0  0  0  0  0  0  0
   10.5802  -16.8361   25.4121 C   0  0  2  0  0  0  0  0  0  0  0  0
    9.7251  -16.7198   24.2647 N   0  0  0  0  0  0  0  0  0  0  0  0
   11.7473  -17.7105   25.0912 C   0  0  0  0  0  0  0  0  0  0  0  0
   12.7726  -17.9077   26.0040 O   0  0  0  0  0  0  0  0  0  0  0  0
   11.8602  -18.3093   23.9841 O   0  0  0  0  0  0  0  0  0  0  0  0
  2  1  1  6
  2  4  1  0
  3  2  1  0
  4  5  2  0
  6  4  1  0
  7  6  1  0
  7 18  1  0
  7  8  1  1
  9  8  1  0
  9 17  1  0
 10 11  1  0
 10  9  2  0
 11 12  1  0
 12 17  2  0
 12 13  1  0
 13 14  2  0
 14 15  1  0
 16 15  2  0
 17 16  1  0
 18 22  1  0
 19 18  2  0
 21 20  1  1
 21 23  1  0
 22 21  1  0
 23 25  2  0
 23 24  1  0
M  END
$$$$
