AWA.pdb
     RDKit          3D

 25 26  0  0  1  0  0  0  0  0999 V2000
   11.3055  -19.7340   20.7800 C   0  0  0  0  0  0  0  0  0  0  0  0
   10.4237  -18.5889   20.2921 C   0  0  2  0  0  0  0  0  0  0  0  0
   11.0436  -17.9777   19.1062 N   0  0  0  0  0  0  0  0  0  0  0  0
   10.2997  -17.5911   21.3675 C   0  0  0  0  0  0  0  0  0  0  0  0
   11.0977  -16.6230   21.4071 O   0  0  0  0  0  0  0  0  0  0  0  0
    9.2910  -17.7195   22.3459 N   0  0  0  0  0  0  0  0  0  0  0  0
    9.1139  -16.7526   23.4047 C   0  0  1  0  0  0  0  0  0  0  0  0
    7.6258  -16.4414   23.4266 C   0  0  0  0  0  0  0  0  0  0  0  0
    7.1469  -15.8273   22.1862 C   0  0  0  0  0  0  0  0  0  0  0  0
    6.3437  -16.4085   21.2313 C   0  0  0  0  0  0  0  0  0  0  0  0
    6.1199  -15.5118   20.2277 N   0  0  0  0  0  0  0  0  0  0  0  0
    6.7660  -14.3520   20.5138 C   0  0  0  0  0  0  0  0  0  0  0  0
    6.8628  -13.1526   19.8404 C   0  0  0  0  0  0  0  0  0  0  0  0
    7.6018  -12.0994   20.3562 C   0  0  0  0  0  0  0  0  0  0  0  0
    8.2364  -12.2938   21.5664 C   0  0  0  0  0  0  0  0  0  0  0  0
    8.1389  -13.4940   22.2391 C   0  0  0  0  0  0  0  0  0  0  0  0
    7.4065  -14.5507   21.7368 C   0  0  0  0  0  0  0  0  0  0  0  0
    9.5805  -17.3342   24.6647 C   0  0  0  0  0  0  0  0  0  0  0  0
    9.2353  -16.7877   25.7388 O   0  0  0  0  0  0  0  0  0  0  0  0
   10.8172  -20.4303   26.0288 C   0  0  0  0  0  0  0  0  0  0  0  0
   10.9395  -18.9053   25.9890 C   0  0  2  0  0  0  0  0  0  0  0  0
   10.4001  -18.4827   24.7274 N   0  0  0  0  0  0  0  0  0  0  0  0
   12.3797  -18.5222   26.0814 C   0  0  0  0  0  0  0  0  0  0  0  0
   13.1119  -18.7447   27.2380 O   0  0  0  0  0  0  0  0  0  0  0  0
   12.9992  -17.9816   25.1217 O   0  0  0  0  0  0  0  0  0  0  0  0
  2  1  1  1
  2  4  1  0
  3  2  1  0
  4  5  2  0
  6  4  1  0
  7  6  1  0
  7 18  1  0
  7  8  1  1
  9  8  1  0
  9 17  1  0
 10 11  1  0
 10  9  2  0
 11 12  1  0
 12 17  2  0
 12 13  1  0
 13 14  2  0
 14 15  1  0
 16 15  2  0
 17 16  1  0
 18 22  1  0
 19 18  2  0
 21 20  1  6
 21 23  1  0
 22 21  1  0
 23 25  2  0
 23 24  1  0
M  END
$$$$
