AWA.pdb
     RDKit          3D

 25 26  0  0  1  0  0  0  0  0999 V2000
    7.8007  -15.7713   19.3913 C   0  0  0  0  0  0  0  0  0  0  0  0
    7.3388  -14.7449   20.4208 C   0  0  2  0  0  0  0  0  0  0  0  0
    7.2840  -13.4192   19.7854 N   0  0  0  0  0  0  0  0  0  0  0  0
    8.2950  -14.7289   21.5401 C   0  0  0  0  0  0  0  0  0  0  0  0
    9.2574  -13.9233   21.5192 O   0  0  0  0  0  0  0  0  0  0  0  0
    8.1314  -15.6104   22.6299 N   0  0  0  0  0  0  0  0  0  0  0  0
    9.0852  -15.6863   23.7124 C   0  0  1  0  0  0  0  0  0  0  0  0
    8.2951  -16.1721   24.9173 C   0  0  0  0  0  0  0  0  0  0  0  0
    7.3283  -15.1873   25.4079 C   0  0  0  0  0  0  0  0  0  0  0  0
    5.9614  -15.3335   25.4782 C   0  0  0  0  0  0  0  0  0  0  0  0
    5.4148  -14.1942   25.9927 N   0  0  0  0  0  0  0  0  0  0  0  0
    6.4061  -13.3052   26.2597 C   0  0  0  0  0  0  0  0  0  0  0  0
    6.3928  -12.0277   26.7787 C   0  0  0  0  0  0  0  0  0  0  0  0
    7.5681  -11.3144   26.9560 C   0  0  0  0  0  0  0  0  0  0  0  0
    8.7506  -11.9278   26.5949 C   0  0  0  0  0  0  0  0  0  0  0  0
    8.7629  -13.2057   26.0758 C   0  0  0  0  0  0  0  0  0  0  0  0
    7.6001  -13.9269   25.8940 C   0  0  0  0  0  0  0  0  0  0  0  0
   10.1575  -16.6106   23.3394 C   0  0  0  0  0  0  0  0  0  0  0  0
    9.8457  -17.7143   22.8337 O   0  0  0  0  0  0  0  0  0  0  0  0
   13.7122  -16.5052   22.5988 C   0  0  0  0  0  0  0  0  0  0  0  0
   12.5190  -17.2873   23.1530 C   0  0  2  0  0  0  0  0  0  0  0  0
   11.5271  -16.3168   23.5212 N   0  0  0  0  0  0  0  0  0  0  0  0
   12.9494  -18.0582   24.3572 C   0  0  0  0  0  0  0  0  0  0  0  0
   12.3714  -17.8379   25.5985 O   0  0  0  0  0  0  0  0  0  0  0  0
   13.8522  -18.9412   24.3084 O   0  0  0  0  0  0  0  0  0  0  0  0
  2  1  1  6
  2  4  1  0
  3  2  1  0
  4  5  2  0
  6  4  1  0
  7  6  1  0
  7 18  1  0
  7  8  1  1
  9  8  1  0
  9 17  1  0
 10 11  1  0
 10  9  2  0
 11 12  1  0
 12 17  2  0
 12 13  1  0
 13 14  2  0
 14 15  1  0
 16 15  2  0
 17 16  1  0
 18 22  1  0
 19 18  2  0
 21 20  1  1
 21 23  1  0
 22 21  1  0
 23 25  2  0
 23 24  1  0
M  END
$$$$
