AWA.pdb
     RDKit          3D

 25 26  0  0  1  0  0  0  0  0999 V2000
    7.5826  -15.5619   19.4300 C   0  0  0  0  0  0  0  0  0  0  0  0
    7.3273  -14.5156   20.5101 C   0  0  2  0  0  0  0  0  0  0  0  0
    7.3982  -13.1758   19.9067 N   0  0  0  0  0  0  0  0  0  0  0  0
    8.3526  -14.6521   21.5579 C   0  0  0  0  0  0  0  0  0  0  0  0
    9.3961  -13.9572   21.4955 O   0  0  0  0  0  0  0  0  0  0  0  0
    8.1646  -15.5554   22.6256 N   0  0  0  0  0  0  0  0  0  0  0  0
    9.0992  -15.6607   23.7223 C   0  0  1  0  0  0  0  0  0  0  0  0
    8.2782  -16.1318   24.9124 C   0  0  0  0  0  0  0  0  0  0  0  0
    7.2941  -15.1442   25.3611 C   0  0  0  0  0  0  0  0  0  0  0  0
    5.9268  -15.2972   25.4003 C   0  0  0  0  0  0  0  0  0  0  0  0
    5.3613  -14.1522   25.8804 N   0  0  0  0  0  0  0  0  0  0  0  0
    6.3407  -13.2526   26.1556 C   0  0  0  0  0  0  0  0  0  0  0  0
    6.3075  -11.9661   26.6509 C   0  0  0  0  0  0  0  0  0  0  0  0
    7.4740  -11.2427   26.8441 C   0  0  0  0  0  0  0  0  0  0  0  0
    8.6686  -11.8553   26.5235 C   0  0  0  0  0  0  0  0  0  0  0  0
    8.7007  -13.1423   26.0281 C   0  0  0  0  0  0  0  0  0  0  0  0
    7.5468  -13.8736   25.8308 C   0  0  0  0  0  0  0  0  0  0  0  0
   10.1532  -16.6104   23.3613 C   0  0  0  0  0  0  0  0  0  0  0  0
    9.8221  -17.6975   22.8321 O   0  0  0  0  0  0  0  0  0  0  0  0
   13.7333  -16.6293   22.7340 C   0  0  0  0  0  0  0  0  0  0  0  0
   12.4956  -17.3658   23.2518 C   0  0  2  0  0  0  0  0  0  0  0  0
   11.5259  -16.3592   23.5798 N   0  0  0  0  0  0  0  0  0  0  0  0
   12.8578  -18.1421   24.4748 C   0  0  0  0  0  0  0  0  0  0  0  0
   12.2164  -17.9219   25.6845 O   0  0  0  0  0  0  0  0  0  0  0  0
   13.7572  -19.0299   24.4711 O   0  0  0  0  0  0  0  0  0  0  0  0
  2  1  1  6
  2  4  1  0
  3  2  1  0
  4  5  2  0
  6  4  1  0
  7  6  1  0
  7 18  1  0
  7  8  1  1
  9  8  1  0
  9 17  1  0
 10 11  1  0
 10  9  2  0
 11 12  1  0
 12 17  2  0
 12 13  1  0
 13 14  2  0
 14 15  1  0
 16 15  2  0
 17 16  1  0
 18 22  1  0
 19 18  2  0
 21 20  1  1
 21 23  1  0
 22 21  1  0
 23 25  2  0
 23 24  1  0
M  END
$$$$
