AWA.pdb
     RDKit          3D

 25 26  0  0  1  0  0  0  0  0999 V2000
   11.2169  -18.6486   20.2362 C   0  0  0  0  0  0  0  0  0  0  0  0
   10.1366  -17.6130   19.9412 C   0  0  2  0  0  0  0  0  0  0  0  0
   10.4955  -16.8806   18.7169 N   0  0  0  0  0  0  0  0  0  0  0  0
   10.0456  -16.6818   21.0779 C   0  0  0  0  0  0  0  0  0  0  0  0
   10.9193  -15.7916   21.2189 O   0  0  0  0  0  0  0  0  0  0  0  0
    8.9842  -16.7867   22.0019 N   0  0  0  0  0  0  0  0  0  0  0  0
    8.8484  -15.8914   23.1277 C   0  0  1  0  0  0  0  0  0  0  0  0
    7.3515  -15.7163   23.3298 C   0  0  0  0  0  0  0  0  0  0  0  0
    7.0103  -15.1201   24.6233 C   0  0  0  0  0  0  0  0  0  0  0  0
    6.5202  -15.7727   25.7318 C   0  0  0  0  0  0  0  0  0  0  0  0
    6.3310  -14.8692   26.7365 N   0  0  0  0  0  0  0  0  0  0  0  0
    6.6910  -13.6347   26.2996 C   0  0  0  0  0  0  0  0  0  0  0  0
    6.6929  -12.3979   26.9094 C   0  0  0  0  0  0  0  0  0  0  0  0
    7.1169  -11.2658   26.2313 C   0  0  0  0  0  0  0  0  0  0  0  0
    7.5368  -11.4204   24.9257 C   0  0  0  0  0  0  0  0  0  0  0  0
    7.5347  -12.6580   24.3166 C   0  0  0  0  0  0  0  0  0  0  0  0
    7.1149  -13.7933   24.9802 C   0  0  0  0  0  0  0  0  0  0  0  0
    9.5022  -16.4885   24.2936 C   0  0  0  0  0  0  0  0  0  0  0  0
    9.5830  -15.8111   25.3452 O   0  0  0  0  0  0  0  0  0  0  0  0
   10.5029  -19.8260   25.4369 C   0  0  0  0  0  0  0  0  0  0  0  0
   10.6745  -18.3056   25.4739 C   0  0  2  0  0  0  0  0  0  0  0  0
   10.0453  -17.7924   24.2899 N   0  0  0  0  0  0  0  0  0  0  0  0
   12.1298  -17.9719   25.4631 C   0  0  0  0  0  0  0  0  0  0  0  0
   12.8251  -17.8174   24.2731 O   0  0  0  0  0  0  0  0  0  0  0  0
   12.7960  -17.8146   26.5255 O   0  0  0  0  0  0  0  0  0  0  0  0
  2  1  1  1
  2  4  1  0
  3  2  1  0
  4  5  2  0
  6  4  1  0
  7  6  1  0
  7 18  1  0
  7  8  1  1
  9  8  1  0
  9 17  1  0
 10 11  1  0
 10  9  2  0
 11 12  1  0
 12 17  2  0
 12 13  1  0
 13 14  2  0
 14 15  1  0
 16 15  2  0
 17 16  1  0
 18 22  1  0
 19 18  2  0
 21 20  1  6
 21 23  1  0
 22 21  1  0
 23 25  2  0
 23 24  1  0
M  END
$$$$
