AWA.pdb
     RDKit          3D

 25 26  0  0  1  0  0  0  0  0999 V2000
    7.6548  -16.7274   19.7012 C   0  0  0  0  0  0  0  0  0  0  0  0
    7.1662  -15.7178   20.7350 C   0  0  2  0  0  0  0  0  0  0  0  0
    6.7524  -14.4863   20.0448 N   0  0  0  0  0  0  0  0  0  0  0  0
    8.2634  -15.4264   21.6725 C   0  0  0  0  0  0  0  0  0  0  0  0
    9.0640  -14.4943   21.4162 O   0  0  0  0  0  0  0  0  0  0  0  0
    8.4143  -16.1872   22.8515 N   0  0  0  0  0  0  0  0  0  0  0  0
    9.4047  -15.8699   23.8544 C   0  0  1  0  0  0  0  0  0  0  0  0
    8.7517  -16.1962   25.1882 C   0  0  0  0  0  0  0  0  0  0  0  0
    7.6434  -15.2988   25.5223 C   0  0  0  0  0  0  0  0  0  0  0  0
    6.3003  -15.5993   25.5017 C   0  0  0  0  0  0  0  0  0  0  0  0
    5.5888  -14.4978   25.8783 N   0  0  0  0  0  0  0  0  0  0  0  0
    6.4489  -13.4812   26.1450 C   0  0  0  0  0  0  0  0  0  0  0  0
    6.2498  -12.1797   26.5548 C   0  0  0  0  0  0  0  0  0  0  0  0
    7.3191  -11.3221   26.7606 C   0  0  0  0  0  0  0  0  0  0  0  0
    8.5888  -11.8167   26.5409 C   0  0  0  0  0  0  0  0  0  0  0  0
    8.7870  -13.1187   26.1309 C   0  0  0  0  0  0  0  0  0  0  0  0
    7.7312  -13.9831   25.9223 C   0  0  0  0  0  0  0  0  0  0  0  0
   10.6047  -16.6722   23.6101 C   0  0  0  0  0  0  0  0  0  0  0  0
   10.4647  -17.8844   23.3236 O   0  0  0  0  0  0  0  0  0  0  0  0
   14.1383  -16.2058   22.8412 C   0  0  0  0  0  0  0  0  0  0  0  0
   13.0427  -17.0183   23.5353 C   0  0  2  0  0  0  0  0  0  0  0  0
   11.9130  -16.1444   23.6809 N   0  0  0  0  0  0  0  0  0  0  0  0
   13.5265  -17.4540   24.8791 C   0  0  0  0  0  0  0  0  0  0  0  0
   14.5762  -18.3506   25.0114 O   0  0  0  0  0  0  0  0  0  0  0  0
   13.0105  -17.0332   25.9532 O   0  0  0  0  0  0  0  0  0  0  0  0
  2  1  1  6
  2  4  1  0
  3  2  1  0
  4  5  2  0
  6  4  1  0
  7  6  1  0
  7 18  1  0
  7  8  1  1
  9  8  1  0
  9 17  1  0
 10 11  1  0
 10  9  2  0
 11 12  1  0
 12 17  2  0
 12 13  1  0
 13 14  2  0
 14 15  1  0
 16 15  2  0
 17 16  1  0
 18 22  1  0
 19 18  2  0
 21 20  1  1
 21 23  1  0
 22 21  1  0
 23 25  2  0
 23 24  1  0
M  END
$$$$
