AWA.pdb
     RDKit          3D

 25 26  0  0  1  0  0  0  0  0999 V2000
    7.9814  -15.7746   19.3147 C   0  0  0  0  0  0  0  0  0  0  0  0
    7.3603  -14.8771   20.3803 C   0  0  2  0  0  0  0  0  0  0  0  0
    7.1581  -13.5331   19.8174 N   0  0  0  0  0  0  0  0  0  0  0  0
    8.2705  -14.8086   21.5355 C   0  0  0  0  0  0  0  0  0  0  0  0
    9.1816  -13.9454   21.5540 O   0  0  0  0  0  0  0  0  0  0  0  0
    8.1202  -15.7046   22.6153 N   0  0  0  0  0  0  0  0  0  0  0  0
    8.9960  -15.6840   23.7642 C   0  0  1  0  0  0  0  0  0  0  0  0
    8.1270  -16.0862   24.9453 C   0  0  0  0  0  0  0  0  0  0  0  0
    7.1153  -15.0830   25.2847 C   0  0  0  0  0  0  0  0  0  0  0  0
    5.7504  -15.2086   25.1584 C   0  0  0  0  0  0  0  0  0  0  0  0
    5.1534  -14.0568   25.5809 N   0  0  0  0  0  0  0  0  0  0  0  0
    6.1099  -13.1799   25.9816 C   0  0  0  0  0  0  0  0  0  0  0  0
    6.0421  -11.8976   26.4844 C   0  0  0  0  0  0  0  0  0  0  0  0
    7.1907  -11.2000   26.8241 C   0  0  0  0  0  0  0  0  0  0  0  0
    8.4031  -11.8338   26.6414 C   0  0  0  0  0  0  0  0  0  0  0  0
    8.4698  -13.1164   26.1384 C   0  0  0  0  0  0  0  0  0  0  0  0
    7.3341  -13.8222   25.7961 C   0  0  0  0  0  0  0  0  0  0  0  0
   10.0994  -16.6197   23.5397 C   0  0  0  0  0  0  0  0  0  0  0  0
    9.8259  -17.7965   23.2055 O   0  0  0  0  0  0  0  0  0  0  0  0
   13.7082  -16.4425   22.9310 C   0  0  0  0  0  0  0  0  0  0  0  0
   12.4837  -17.2258   23.4100 C   0  0  2  0  0  0  0  0  0  0  0  0
   11.4577  -16.2588   23.6807 N   0  0  0  0  0  0  0  0  0  0  0  0
   12.8285  -17.9665   24.6598 C   0  0  0  0  0  0  0  0  0  0  0  0
   12.1554  -17.7269   25.8485 O   0  0  0  0  0  0  0  0  0  0  0  0
   13.7409  -18.8400   24.6990 O   0  0  0  0  0  0  0  0  0  0  0  0
  2  1  1  6
  2  4  1  0
  3  2  1  0
  4  5  2  0
  6  4  1  0
  7  6  1  0
  7 18  1  0
  7  8  1  1
  9  8  1  0
  9 17  1  0
 10 11  1  0
 10  9  2  0
 11 12  1  0
 12 17  2  0
 12 13  1  0
 13 14  2  0
 14 15  1  0
 16 15  2  0
 17 16  1  0
 18 22  1  0
 19 18  2  0
 21 20  1  1
 21 23  1  0
 22 21  1  0
 23 25  2  0
 23 24  1  0
M  END
$$$$
