AWA.pdb
     RDKit          3D

 25 26  0  0  1  0  0  0  0  0999 V2000
   12.6710  -18.0483   21.4692 C   0  0  0  0  0  0  0  0  0  0  0  0
   11.6115  -17.0692   20.9735 C   0  0  2  0  0  0  0  0  0  0  0  0
   12.1844  -16.2469   19.8966 N   0  0  0  0  0  0  0  0  0  0  0  0
   11.1929  -16.2118   22.0948 C   0  0  0  0  0  0  0  0  0  0  0  0
   11.8380  -15.1649   22.3464 O   0  0  0  0  0  0  0  0  0  0  0  0
   10.0742  -16.5619   22.8806 N   0  0  0  0  0  0  0  0  0  0  0  0
    9.4950  -15.6572   23.8467 C   0  0  1  0  0  0  0  0  0  0  0  0
    7.9923  -15.8697   23.7528 C   0  0  0  0  0  0  0  0  0  0  0  0
    7.2444  -15.1677   24.7982 C   0  0  0  0  0  0  0  0  0  0  0  0
    6.5107  -15.7364   25.8146 C   0  0  0  0  0  0  0  0  0  0  0  0
    5.9660  -14.7480   26.5813 N   0  0  0  0  0  0  0  0  0  0  0  0
    6.3337  -13.5407   26.0796 C   0  0  0  0  0  0  0  0  0  0  0  0
    6.0575  -12.2484   26.4734 C   0  0  0  0  0  0  0  0  0  0  0  0
    6.5644  -11.1633   25.7756 C   0  0  0  0  0  0  0  0  0  0  0  0
    7.3545  -11.4222   24.6739 C   0  0  0  0  0  0  0  0  0  0  0  0
    7.6302  -12.7153   24.2808 C   0  0  0  0  0  0  0  0  0  0  0  0
    7.1318  -13.8046   24.9665 C   0  0  0  0  0  0  0  0  0  0  0  0
   10.0213  -15.9769   25.1749 C   0  0  0  0  0  0  0  0  0  0  0  0
   10.4733  -17.1285   25.3770 O   0  0  0  0  0  0  0  0  0  0  0  0
   10.7554  -14.1039   28.3040 C   0  0  0  0  0  0  0  0  0  0  0  0
   10.7287  -15.3788   27.4577 C   0  0  2  0  0  0  0  0  0  0  0  0
   10.0449  -15.0487   26.2392 N   0  0  0  0  0  0  0  0  0  0  0  0
    9.9798  -16.4429   28.1901 C   0  0  0  0  0  0  0  0  0  0  0  0
    8.7324  -16.8713   27.7615 O   0  0  0  0  0  0  0  0  0  0  0  0
   10.4384  -17.0019   29.2266 O   0  0  0  0  0  0  0  0  0  0  0  0
  2  1  1  1
  2  4  1  0
  3  2  1  0
  4  5  2  0
  6  4  1  0
  7  6  1  0
  7 18  1  0
  7  8  1  1
  9  8  1  0
  9 17  1  0
 10 11  1  0
 10  9  2  0
 11 12  1  0
 12 17  2  0
 12 13  1  0
 13 14  2  0
 14 15  1  0
 16 15  2  0
 17 16  1  0
 18 22  1  0
 19 18  2  0
 21 20  1  1
 21 23  1  0
 22 21  1  0
 23 25  2  0
 23 24  1  0
M  END
$$$$
