AWA.pdb
     RDKit          3D

 25 26  0  0  1  0  0  0  0  0999 V2000
    8.5921  -15.1938   17.6482 C   0  0  0  0  0  0  0  0  0  0  0  0
    7.8599  -14.0997   18.4187 C   0  0  2  0  0  0  0  0  0  0  0  0
    8.1593  -12.7973   17.8036 N   0  0  0  0  0  0  0  0  0  0  0  0
    8.3175  -14.1141   19.8179 C   0  0  0  0  0  0  0  0  0  0  0  0
    9.3560  -13.4843   20.1349 O   0  0  0  0  0  0  0  0  0  0  0  0
    7.5945  -14.8285   20.7969 N   0  0  0  0  0  0  0  0  0  0  0  0
    7.9388  -14.7816   22.1992 C   0  0  1  0  0  0  0  0  0  0  0  0
    6.6163  -14.8597   22.9455 C   0  0  0  0  0  0  0  0  0  0  0  0
    6.7714  -14.8040   24.4008 C   0  0  0  0  0  0  0  0  0  0  0  0
    6.7962  -15.8695   25.2718 C   0  0  0  0  0  0  0  0  0  0  0  0
    6.9585  -15.4046   26.5442 N   0  0  0  0  0  0  0  0  0  0  0  0
    7.0402  -14.0493   26.5166 C   0  0  0  0  0  0  0  0  0  0  0  0
    7.2022  -13.1083   27.5115 C   0  0  0  0  0  0  0  0  0  0  0  0
    7.2548  -11.7551   27.2158 C   0  0  0  0  0  0  0  0  0  0  0  0
    7.1393  -11.3836   25.8915 C   0  0  0  0  0  0  0  0  0  0  0  0
    6.9773  -12.3256   24.8970 C   0  0  0  0  0  0  0  0  0  0  0  0
    6.9232  -13.6760   25.1777 C   0  0  0  0  0  0  0  0  0  0  0  0
    8.8222  -15.9066   22.5114 C   0  0  0  0  0  0  0  0  0  0  0  0
    8.5106  -17.0454   22.0903 O   0  0  0  0  0  0  0  0  0  0  0  0
   12.2945  -16.3539   23.5784 C   0  0  0  0  0  0  0  0  0  0  0  0
   10.8717  -16.9025   23.4478 C   0  0  2  0  0  0  0  0  0  0  0  0
   10.0098  -15.7692   23.2635 N   0  0  0  0  0  0  0  0  0  0  0  0
   10.5031  -17.6244   24.7018 C   0  0  0  0  0  0  0  0  0  0  0  0
    9.9485  -16.9550   25.7824 O   0  0  0  0  0  0  0  0  0  0  0  0
   10.6753  -18.8685   24.8421 O   0  0  0  0  0  0  0  0  0  0  0  0
  2  1  1  6
  2  4  1  0
  3  2  1  0
  4  5  2  0
  6  4  1  0
  7  6  1  0
  7 18  1  0
  7  8  1  1
  9  8  1  0
  9 17  1  0
 10 11  1  0
 10  9  2  0
 11 12  1  0
 12 17  2  0
 12 13  1  0
 13 14  2  0
 14 15  1  0
 16 15  2  0
 17 16  1  0
 18 22  1  0
 19 18  2  0
 21 20  1  1
 21 23  1  0
 22 21  1  0
 23 25  2  0
 23 24  1  0
M  END
$$$$
