AWA.pdb
     RDKit          3D

 25 26  0  0  1  0  0  0  0  0999 V2000
    6.8764  -13.8221   20.7262 C   0  0  0  0  0  0  0  0  0  0  0  0
    7.5555  -15.1845   20.8238 C   0  0  2  0  0  0  0  0  0  0  0  0
    6.5544  -16.1936   21.2029 N   0  0  0  0  0  0  0  0  0  0  0  0
    8.6152  -15.1171   21.8436 C   0  0  0  0  0  0  0  0  0  0  0  0
    9.5433  -14.2817   21.7160 O   0  0  0  0  0  0  0  0  0  0  0  0
    8.5883  -15.9830   22.9576 N   0  0  0  0  0  0  0  0  0  0  0  0
    9.5378  -15.8775   24.0414 C   0  0  1  0  0  0  0  0  0  0  0  0
    8.7601  -16.2312   25.2992 C   0  0  0  0  0  0  0  0  0  0  0  0
    7.6274  -15.3364   25.5473 C   0  0  0  0  0  0  0  0  0  0  0  0
    6.2904  -15.6419   25.4301 C   0  0  0  0  0  0  0  0  0  0  0  0
    5.5497  -14.5413   25.7487 N   0  0  0  0  0  0  0  0  0  0  0  0
    6.3846  -13.5204   26.0726 C   0  0  0  0  0  0  0  0  0  0  0  0
    6.1517  -12.2179   26.4608 C   0  0  0  0  0  0  0  0  0  0  0  0
    7.2003  -11.3554   26.7399 C   0  0  0  0  0  0  0  0  0  0  0  0
    8.4843  -11.8463   26.6158 C   0  0  0  0  0  0  0  0  0  0  0  0
    8.7162  -13.1495   26.2275 C   0  0  0  0  0  0  0  0  0  0  0  0
    7.6814  -14.0186   25.9464 C   0  0  0  0  0  0  0  0  0  0  0  0
   10.6479  -16.7996   23.7945 C   0  0  0  0  0  0  0  0  0  0  0  0
   10.3833  -17.9976   23.5376 O   0  0  0  0  0  0  0  0  0  0  0  0
   14.0262  -16.6546   22.6046 C   0  0  0  0  0  0  0  0  0  0  0  0
   13.0332  -17.3574   23.5332 C   0  0  2  0  0  0  0  0  0  0  0  0
   12.0029  -16.4028   23.8309 N   0  0  0  0  0  0  0  0  0  0  0  0
   13.7319  -17.7614   24.7895 C   0  0  0  0  0  0  0  0  0  0  0  0
   13.5608  -19.0249   25.3350 O   0  0  0  0  0  0  0  0  0  0  0  0
   14.5066  -16.9820   25.4137 O   0  0  0  0  0  0  0  0  0  0  0  0
  2  1  1  1
  2  4  1  0
  3  2  1  0
  4  5  2  0
  6  4  1  0
  7  6  1  0
  7 18  1  0
  7  8  1  1
  9  8  1  0
  9 17  1  0
 10 11  1  0
 10  9  2  0
 11 12  1  0
 12 17  2  0
 12 13  1  0
 13 14  2  0
 14 15  1  0
 16 15  2  0
 17 16  1  0
 18 22  1  0
 19 18  2  0
 21 20  1  6
 21 23  1  0
 22 21  1  0
 23 25  2  0
 23 24  1  0
M  END
$$$$
