AWA.pdb
     RDKit          3D

 25 26  0  0  1  0  0  0  0  0999 V2000
    7.6632  -16.6582   19.7535 C   0  0  0  0  0  0  0  0  0  0  0  0
    7.1124  -15.6608   20.7676 C   0  0  2  0  0  0  0  0  0  0  0  0
    6.7369  -14.4226   20.0676 N   0  0  0  0  0  0  0  0  0  0  0  0
    8.1519  -15.3777   21.7710 C   0  0  0  0  0  0  0  0  0  0  0  0
    8.9229  -14.4014   21.6035 O   0  0  0  0  0  0  0  0  0  0  0  0
    8.2810  -16.1956   22.9137 N   0  0  0  0  0  0  0  0  0  0  0  0
    9.2459  -15.9233   23.9539 C   0  0  1  0  0  0  0  0  0  0  0  0
    8.5190  -16.1893   25.2627 C   0  0  0  0  0  0  0  0  0  0  0  0
    7.4743  -15.2046   25.5524 C   0  0  0  0  0  0  0  0  0  0  0  0
    6.1135  -15.4109   25.5305 C   0  0  0  0  0  0  0  0  0  0  0  0
    5.4787  -14.2487   25.8587 N   0  0  0  0  0  0  0  0  0  0  0  0
    6.4063  -13.2853   26.0948 C   0  0  0  0  0  0  0  0  0  0  0  0
    6.2963  -11.9584   26.4535 C   0  0  0  0  0  0  0  0  0  0  0  0
    7.4219  -11.1704   26.6367 C   0  0  0  0  0  0  0  0  0  0  0  0
    8.6551  -11.7607   26.4476 C   0  0  0  0  0  0  0  0  0  0  0  0
    8.7640  -13.0881   26.0889 C   0  0  0  0  0  0  0  0  0  0  0  0
    7.6516  -13.8838   25.9032 C   0  0  0  0  0  0  0  0  0  0  0  0
   10.4042  -16.8000   23.7714 C   0  0  0  0  0  0  0  0  0  0  0  0
   10.2040  -18.0233   23.5856 O   0  0  0  0  0  0  0  0  0  0  0  0
   14.0241  -16.4616   23.1519 C   0  0  0  0  0  0  0  0  0  0  0  0
   12.8211  -17.2628   23.6550 C   0  0  2  0  0  0  0  0  0  0  0  0
   11.7367  -16.3321   23.7936 N   0  0  0  0  0  0  0  0  0  0  0  0
   13.1482  -17.8653   24.9814 C   0  0  0  0  0  0  0  0  0  0  0  0
   14.1137  -18.8530   25.1061 O   0  0  0  0  0  0  0  0  0  0  0  0
   12.5688  -17.5107   26.0471 O   0  0  0  0  0  0  0  0  0  0  0  0
  2  1  1  6
  2  4  1  0
  3  2  1  0
  4  5  2  0
  6  4  1  0
  7  6  1  0
  7 18  1  0
  7  8  1  1
  9  8  1  0
  9 17  1  0
 10 11  1  0
 10  9  2  0
 11 12  1  0
 12 17  2  0
 12 13  1  0
 13 14  2  0
 14 15  1  0
 16 15  2  0
 17 16  1  0
 18 22  1  0
 19 18  2  0
 21 20  1  1
 21 23  1  0
 22 21  1  0
 23 25  2  0
 23 24  1  0
M  END
$$$$
