AWA.pdb
     RDKit          3D

 25 26  0  0  1  0  0  0  0  0999 V2000
    9.5859  -15.8677   18.8442 C   0  0  0  0  0  0  0  0  0  0  0  0
    8.6573  -16.2543   19.9909 C   0  0  2  0  0  0  0  0  0  0  0  0
    7.3792  -15.5429   19.8340 N   0  0  0  0  0  0  0  0  0  0  0  0
    9.2912  -15.8780   21.2653 C   0  0  0  0  0  0  0  0  0  0  0  0
   10.0712  -14.8952   21.3010 O   0  0  0  0  0  0  0  0  0  0  0  0
    9.0237  -16.6144   22.4390 N   0  0  0  0  0  0  0  0  0  0  0  0
    9.5415  -16.2250   23.7304 C   0  0  1  0  0  0  0  0  0  0  0  0
    8.3612  -16.3126   24.6850 C   0  0  0  0  0  0  0  0  0  0  0  0
    7.4725  -15.1507   24.6110 C   0  0  0  0  0  0  0  0  0  0  0  0
    6.3963  -14.9844   23.7691 C   0  0  0  0  0  0  0  0  0  0  0  0
    5.8248  -13.7686   24.0072 N   0  0  0  0  0  0  0  0  0  0  0  0
    6.5131  -13.1379   24.9935 C   0  0  0  0  0  0  0  0  0  0  0  0
    6.3526  -11.9091   25.5983 C   0  0  0  0  0  0  0  0  0  0  0  0
    7.2093  -11.4882   26.6035 C   0  0  0  0  0  0  0  0  0  0  0  0
    8.2274  -12.3420   26.9769 C   0  0  0  0  0  0  0  0  0  0  0  0
    8.3871  -13.5710   26.3713 C   0  0  0  0  0  0  0  0  0  0  0  0
    7.5414  -14.0022   25.3693 C   0  0  0  0  0  0  0  0  0  0  0  0
   10.6279  -17.1333   24.1023 C   0  0  0  0  0  0  0  0  0  0  0  0
   10.4260  -18.3681   24.0274 O   0  0  0  0  0  0  0  0  0  0  0  0
   14.2617  -16.8823   24.6478 C   0  0  0  0  0  0  0  0  0  0  0  0
   12.9375  -17.6349   24.7975 C   0  0  2  0  0  0  0  0  0  0  0  0
   11.8932  -16.6838   24.5404 N   0  0  0  0  0  0  0  0  0  0  0  0
   12.8199  -18.1563   26.1917 C   0  0  0  0  0  0  0  0  0  0  0  0
   13.6694  -19.1448   26.6656 O   0  0  0  0  0  0  0  0  0  0  0  0
   11.9503  -17.7289   27.0030 O   0  0  0  0  0  0  0  0  0  0  0  0
  2  1  1  6
  2  4  1  0
  3  2  1  0
  4  5  2  0
  6  4  1  0
  7  6  1  0
  7 18  1  0
  7  8  1  1
  9  8  1  0
  9 17  1  0
 10 11  1  0
 10  9  2  0
 11 12  1  0
 12 17  2  0
 12 13  1  0
 13 14  2  0
 14 15  1  0
 16 15  2  0
 17 16  1  0
 18 22  1  0
 19 18  2  0
 21 20  1  1
 21 23  1  0
 22 21  1  0
 23 25  2  0
 23 24  1  0
M  END
$$$$
