AWA.pdb
     RDKit          3D

 25 26  0  0  1  0  0  0  0  0999 V2000
    7.2183  -17.1101   19.8848 C   0  0  0  0  0  0  0  0  0  0  0  0
    6.8923  -15.9035   20.7591 C   0  0  2  0  0  0  0  0  0  0  0  0
    6.6091  -14.7472   19.8948 N   0  0  0  0  0  0  0  0  0  0  0  0
    8.0481  -15.6155   21.6245 C   0  0  0  0  0  0  0  0  0  0  0  0
    8.9111  -14.7859   21.2470 O   0  0  0  0  0  0  0  0  0  0  0  0
    8.1853  -16.2650   22.8697 N   0  0  0  0  0  0  0  0  0  0  0  0
    9.2057  -15.8979   23.8244 C   0  0  1  0  0  0  0  0  0  0  0  0
    8.5845  -16.1298   25.1928 C   0  0  0  0  0  0  0  0  0  0  0  0
    7.4896  -15.2045   25.4932 C   0  0  0  0  0  0  0  0  0  0  0  0
    6.1430  -15.4895   25.4974 C   0  0  0  0  0  0  0  0  0  0  0  0
    5.4477  -14.3630   25.8275 N   0  0  0  0  0  0  0  0  0  0  0  0
    6.3218  -13.3454   26.0392 C   0  0  0  0  0  0  0  0  0  0  0  0
    6.1413  -12.0238   26.3890 C   0  0  0  0  0  0  0  0  0  0  0  0
    7.2223  -11.1704   26.5456 C   0  0  0  0  0  0  0  0  0  0  0  0
    8.4842  -11.6900   26.3392 C   0  0  0  0  0  0  0  0  0  0  0  0
    8.6637  -13.0122   25.9894 C   0  0  0  0  0  0  0  0  0  0  0  0
    7.5961  -13.8726   25.8301 C   0  0  0  0  0  0  0  0  0  0  0  0
   10.3893  -16.7301   23.6013 C   0  0  0  0  0  0  0  0  0  0  0  0
   10.2383  -17.9712   23.5100 O   0  0  0  0  0  0  0  0  0  0  0  0
   13.8505  -16.2465   22.4800 C   0  0  0  0  0  0  0  0  0  0  0  0
   12.7975  -17.0785   23.2155 C   0  0  2  0  0  0  0  0  0  0  0  0
   11.6934  -16.2006   23.4827 N   0  0  0  0  0  0  0  0  0  0  0  0
   13.3719  -17.5801   24.4993 C   0  0  0  0  0  0  0  0  0  0  0  0
   12.8304  -17.2148   25.7226 O   0  0  0  0  0  0  0  0  0  0  0  0
   14.3697  -18.3547   24.5373 O   0  0  0  0  0  0  0  0  0  0  0  0
  2  1  1  6
  2  4  1  0
  3  2  1  0
  4  5  2  0
  6  4  1  0
  7  6  1  0
  7 18  1  0
  7  8  1  1
  9  8  1  0
  9 17  1  0
 10 11  1  0
 10  9  2  0
 11 12  1  0
 12 17  2  0
 12 13  1  0
 13 14  2  0
 14 15  1  0
 16 15  2  0
 17 16  1  0
 18 22  1  0
 19 18  2  0
 21 20  1  1
 21 23  1  0
 22 21  1  0
 23 25  2  0
 23 24  1  0
M  END
$$$$
