NLK.pdb
     RDKit          3D

 26 25  0  0  1  0  0  0  0  0999 V2000
   26.7872  -27.3835  -17.6792 N   0  0  0  0  0  0  0  0  0  0  0  0
   26.7952  -25.9966  -18.0059 C   0  0  0  0  0  0  0  0  0  0  0  0
   27.3097  -25.6680  -19.0784 O   0  0  0  0  0  0  0  0  0  0  0  0
   26.1876  -25.0839  -17.0310 C   0  0  0  0  0  0  0  0  0  0  0  0
   26.9777  -23.8630  -16.6961 C   0  0  2  0  0  0  0  0  0  0  0  0
   28.2167  -24.3322  -16.0779 N   0  0  0  0  0  0  0  0  0  0  0  0
   26.2794  -22.9304  -15.7823 C   0  0  0  0  0  0  0  0  0  0  0  0
   25.8877  -23.2172  -14.6253 O   0  0  0  0  0  0  0  0  0  0  0  0
   27.7495  -17.5912  -16.2283 C   0  0  0  0  0  0  0  0  0  0  0  0
   27.2914  -18.9174  -15.7064 C   0  0  1  0  0  0  0  0  0  0  0  0
   27.5986  -18.9032  -14.1996 C   0  0  0  0  0  0  0  0  0  0  0  0
   25.8399  -19.1998  -15.8249 C   0  0  0  0  0  0  0  0  0  0  0  0
   25.3936  -20.5798  -15.4275 C   0  0  2  0  0  0  0  0  0  0  0  0
   26.0232  -21.6076  -16.2276 N   0  0  0  0  0  0  0  0  0  0  0  0
   23.9435  -20.7505  -15.3096 C   0  0  0  0  0  0  0  0  0  0  0  0
   23.2662  -20.9601  -16.3478 O   0  0  0  0  0  0  0  0  0  0  0  0
   23.2147  -20.6960  -14.0815 N   0  0  0  0  0  0  0  0  0  0  0  0
   21.7563  -20.9339  -14.0325 C   0  0  1  0  0  0  0  0  0  0  0  0
   21.3333  -21.3318  -12.6653 C   0  0  0  0  0  0  0  0  0  0  0  0
   19.8569  -21.5299  -12.5414 C   0  0  0  0  0  0  0  0  0  0  0  0
   19.5557  -22.8421  -11.8052 C   0  0  0  0  0  0  0  0  0  0  0  0
   18.0436  -22.9365  -11.6698 C   0  0  0  0  0  0  0  0  0  0  0  0
   17.7033  -24.0990  -10.8922 N   0  0  0  0  0  0  0  0  0  0  0  0
   21.0840  -19.7720  -14.6151 C   0  0  0  0  0  0  0  0  0  0  0  0
   19.8897  -19.7957  -15.3189 O   0  0  0  0  0  0  0  0  0  0  0  0
   21.6007  -18.6139  -14.4944 O   0  0  0  0  0  0  0  0  0  0  0  0
  2  1  1  0
  2  3  2  0
  4  5  1  0
  4  2  1  0
  5  7  1  0
  5  6  1  1
  7  8  2  0
 10  9  1  1
 10 12  1  0
 10 11  1  0
 13 12  1  6
 13 15  1  0
 14  7  1  0
 14 13  1  0
 15 16  2  0
 17 18  1  0
 17 15  1  0
 18 24  1  0
 18 19  1  1
 20 19  1  0
 21 20  1  0
 22 21  1  0
 23 22  1  0
 24 25  1  0
 26 24  2  0
M  END
$$$$
