NLK.pdb
     RDKit          3D

 26 25  0  0  1  0  0  0  0  0999 V2000
   18.4273  -36.2013  -12.9564 N   0  0  0  0  0  0  0  0  0  0  0  0
   19.5573  -37.0658  -13.0358 C   0  0  0  0  0  0  0  0  0  0  0  0
   19.5011  -38.0029  -13.8368 O   0  0  0  0  0  0  0  0  0  0  0  0
   20.6880  -36.7590  -12.1527 C   0  0  0  0  0  0  0  0  0  0  0  0
   20.5407  -35.5446  -11.2980 C   0  0  2  0  0  0  0  0  0  0  0  0
   20.7832  -34.3966  -12.1701 N   0  0  0  0  0  0  0  0  0  0  0  0
   21.4694  -35.5080  -10.1454 C   0  0  0  0  0  0  0  0  0  0  0  0
   21.7550  -36.4923   -9.4216 O   0  0  0  0  0  0  0  0  0  0  0  0
   26.4341  -33.3618   -9.0619 C   0  0  0  0  0  0  0  0  0  0  0  0
   25.2463  -32.9939   -8.2282 C   0  0  1  0  0  0  0  0  0  0  0  0
   25.5166  -31.5675   -7.7209 C   0  0  0  0  0  0  0  0  0  0  0  0
   23.9441  -32.9358   -8.9364 C   0  0  0  0  0  0  0  0  0  0  0  0
   23.0092  -34.0917   -8.7103 C   0  0  2  0  0  0  0  0  0  0  0  0
   22.0950  -34.2775   -9.8161 N   0  0  0  0  0  0  0  0  0  0  0  0
   22.3431  -34.1020   -7.4056 C   0  0  0  0  0  0  0  0  0  0  0  0
   21.4081  -33.2896   -7.1901 O   0  0  0  0  0  0  0  0  0  0  0  0
   22.6765  -34.9799   -6.3284 N   0  0  0  0  0  0  0  0  0  0  0  0
   21.9300  -34.9623   -5.0525 C   0  0  1  0  0  0  0  0  0  0  0  0
   21.6019  -36.3435   -4.6150 C   0  0  0  0  0  0  0  0  0  0  0  0
   20.7411  -36.3842   -3.3937 C   0  0  0  0  0  0  0  0  0  0  0  0
   20.4471  -37.8372   -2.9978 C   0  0  0  0  0  0  0  0  0  0  0  0
   19.4583  -37.7897   -1.8430 C   0  0  0  0  0  0  0  0  0  0  0  0
   19.0086  -39.1234   -1.5414 N   0  0  0  0  0  0  0  0  0  0  0  0
   22.6697  -34.1314   -4.1018 C   0  0  0  0  0  0  0  0  0  0  0  0
   23.9015  -33.5382   -4.3317 O   0  0  0  0  0  0  0  0  0  0  0  0
   22.1835  -33.9035   -2.9466 O   0  0  0  0  0  0  0  0  0  0  0  0
  2  1  1  0
  2  3  2  0
  4  5  1  0
  4  2  1  0
  5  7  1  0
  5  6  1  6
  7  8  2  0
 10  9  1  6
 10 12  1  0
 10 11  1  0
 13 12  1  6
 13 15  1  0
 14  7  1  0
 14 13  1  0
 15 16  2  0
 17 18  1  0
 17 15  1  0
 18 24  1  0
 18 19  1  1
 20 19  1  0
 21 20  1  0
 22 21  1  0
 23 22  1  0
 24 25  1  0
 26 24  2  0
M  END
$$$$
