NLK.pdb
     RDKit          3D

 26 25  0  0  1  0  0  0  0  0999 V2000
   17.1619  -11.8602  -19.2855 N   0  0  0  0  0  0  0  0  0  0  0  0
   16.6970  -11.3120  -18.0551 C   0  0  0  0  0  0  0  0  0  0  0  0
   15.4943  -11.4227  -17.8018 O   0  0  0  0  0  0  0  0  0  0  0  0
   17.6974  -10.6635  -17.2001 C   0  0  0  0  0  0  0  0  0  0  0  0
   19.0142  -11.3570  -17.0911 C   0  0  2  0  0  0  0  0  0  0  0  0
   18.7367  -12.6809  -16.5364 N   0  0  0  0  0  0  0  0  0  0  0  0
   19.9951  -10.6480  -16.2382 C   0  0  0  0  0  0  0  0  0  0  0  0
   19.7332  -10.1161  -15.1324 O   0  0  0  0  0  0  0  0  0  0  0  0
   25.0158   -9.6534  -14.2698 C   0  0  0  0  0  0  0  0  0  0  0  0
   24.8909   -9.5632  -15.7588 C   0  0  1  0  0  0  0  0  0  0  0  0
   26.1634  -10.2146  -16.3259 C   0  0  0  0  0  0  0  0  0  0  0  0
   23.7521  -10.2962  -16.3642 C   0  0  0  0  0  0  0  0  0  0  0  0
   22.3764   -9.8039  -16.0083 C   0  0  2  0  0  0  0  0  0  0  0  0
   21.3384  -10.5504  -16.6852 N   0  0  0  0  0  0  0  0  0  0  0  0
   22.1956   -8.3532  -16.1018 C   0  0  0  0  0  0  0  0  0  0  0  0
   22.1899   -7.8098  -17.2355 O   0  0  0  0  0  0  0  0  0  0  0  0
   22.0221   -7.4807  -14.9834 N   0  0  0  0  0  0  0  0  0  0  0  0
   21.8877   -6.0182  -15.1526 C   0  0  1  0  0  0  0  0  0  0  0  0
   20.4608   -5.6348  -15.3065 C   0  0  0  0  0  0  0  0  0  0  0  0
   20.2586   -4.1585  -15.4250 C   0  0  0  0  0  0  0  0  0  0  0  0
   18.7775   -3.8421  -15.6713 C   0  0  0  0  0  0  0  0  0  0  0  0
   18.6873   -2.3540  -15.9731 C   0  0  0  0  0  0  0  0  0  0  0  0
   17.3632   -2.0391  -16.4417 N   0  0  0  0  0  0  0  0  0  0  0  0
   22.6303   -5.3634  -14.0752 C   0  0  0  0  0  0  0  0  0  0  0  0
   23.4310   -4.2395  -14.2098 O   0  0  0  0  0  0  0  0  0  0  0  0
   22.5709   -5.8281  -12.8906 O   0  0  0  0  0  0  0  0  0  0  0  0
  2  1  1  0
  2  3  2  0
  4  5  1  0
  4  2  1  0
  5  7  1  0
  5  6  1  1
  7  8  2  0
 10  9  1  1
 10 12  1  0
 10 11  1  0
 13 12  1  6
 13 15  1  0
 14  7  1  0
 14 13  1  0
 15 16  2  0
 17 18  1  0
 17 15  1  0
 18 24  1  0
 18 19  1  1
 20 19  1  0
 21 20  1  0
 22 21  1  0
 23 22  1  0
 24 25  1  0
 26 24  2  0
M  END
$$$$
