NLK.pdb
     RDKit          3D

 26 25  0  0  1  0  0  0  0  0999 V2000
   29.0593  -19.9119  -17.0487 N   0  0  0  0  0  0  0  0  0  0  0  0
   27.7804  -19.2838  -17.0279 C   0  0  0  0  0  0  0  0  0  0  0  0
   27.6157  -18.3049  -17.7611 O   0  0  0  0  0  0  0  0  0  0  0  0
   26.7737  -19.8630  -16.1315 C   0  0  0  0  0  0  0  0  0  0  0  0
   27.2067  -21.0534  -15.3426 C   0  0  2  0  0  0  0  0  0  0  0  0
   27.3321  -22.1547  -16.2959 N   0  0  0  0  0  0  0  0  0  0  0  0
   26.2683  -21.4274  -14.2600 C   0  0  0  0  0  0  0  0  0  0  0  0
   25.2465  -22.1400  -14.4097 O   0  0  0  0  0  0  0  0  0  0  0  0
   24.6410  -21.6345   -8.9056 C   0  0  0  0  0  0  0  0  0  0  0  0
   25.2139  -20.3544   -9.4292 C   0  0  1  0  0  0  0  0  0  0  0  0
   26.0367  -19.7603   -8.2737 C   0  0  0  0  0  0  0  0  0  0  0  0
   26.1480  -20.4774  -10.5750 C   0  0  0  0  0  0  0  0  0  0  0  0
   25.5529  -20.9456  -11.8742 C   0  0  2  0  0  0  0  0  0  0  0  0
   26.5242  -20.9557  -12.9463 N   0  0  0  0  0  0  0  0  0  0  0  0
   24.2927  -20.2977  -12.2460 C   0  0  0  0  0  0  0  0  0  0  0  0
   24.3250  -19.1637  -12.7879 O   0  0  0  0  0  0  0  0  0  0  0  0
   22.9957  -20.8605  -12.0378 N   0  0  0  0  0  0  0  0  0  0  0  0
   21.8138  -20.3870  -12.7892 C   0  0  1  0  0  0  0  0  0  0  0  0
   22.0350  -20.5131  -14.2528 C   0  0  0  0  0  0  0  0  0  0  0  0
   20.8605  -20.0709  -15.0647 C   0  0  0  0  0  0  0  0  0  0  0  0
   21.1293  -20.2991  -16.5581 C   0  0  0  0  0  0  0  0  0  0  0  0
   19.9141  -19.7794  -17.3109 C   0  0  0  0  0  0  0  0  0  0  0  0
   20.1498  -19.8767  -18.7276 N   0  0  0  0  0  0  0  0  0  0  0  0
   20.6297  -21.0525  -12.2451 C   0  0  0  0  0  0  0  0  0  0  0  0
   19.3619  -20.4996  -12.1490 O   0  0  0  0  0  0  0  0  0  0  0  0
   20.7180  -22.2452  -11.8063 O   0  0  0  0  0  0  0  0  0  0  0  0
  2  1  1  0
  2  3  2  0
  4  5  1  0
  4  2  1  0
  5  7  1  0
  5  6  1  6
  7  8  2  0
 10  9  1  1
 10 12  1  0
 10 11  1  0
 13 12  1  1
 13 15  1  0
 14  7  1  0
 14 13  1  0
 15 16  2  0
 17 18  1  0
 17 15  1  0
 18 24  1  0
 18 19  1  6
 20 19  1  0
 21 20  1  0
 22 21  1  0
 23 22  1  0
 24 25  1  0
 26 24  2  0
M  END
$$$$
