NLK.pdb
     RDKit          3D

 26 25  0  0  1  0  0  0  0  0999 V2000
   22.9724  -19.6179  -19.3503 N   0  0  0  0  0  0  0  0  0  0  0  0
   21.7801  -18.8764  -19.1075 C   0  0  0  0  0  0  0  0  0  0  0  0
   20.7066  -19.4200  -19.3816 O   0  0  0  0  0  0  0  0  0  0  0  0
   21.9413  -17.5283  -18.5515 C   0  0  0  0  0  0  0  0  0  0  0  0
   23.3452  -17.0450  -18.4023 C   0  0  2  0  0  0  0  0  0  0  0  0
   24.0081  -17.9817  -17.4965 N   0  0  0  0  0  0  0  0  0  0  0  0
   23.4505  -15.6675  -17.8695 C   0  0  0  0  0  0  0  0  0  0  0  0
   22.5528  -15.0779  -17.2208 O   0  0  0  0  0  0  0  0  0  0  0  0
   28.6525  -13.8592  -16.8604 C   0  0  0  0  0  0  0  0  0  0  0  0
   27.1753  -14.0841  -16.7681 C   0  0  1  0  0  0  0  0  0  0  0  0
   26.7897  -13.7429  -15.3190 C   0  0  0  0  0  0  0  0  0  0  0  0
   26.3285  -13.2234  -17.6298 C   0  0  0  0  0  0  0  0  0  0  0  0
   24.8665  -13.5703  -17.6889 C   0  0  2  0  0  0  0  0  0  0  0  0
   24.6477  -14.9406  -18.0979 N   0  0  0  0  0  0  0  0  0  0  0  0
   24.0328  -12.6122  -18.4190 C   0  0  0  0  0  0  0  0  0  0  0  0
   23.9328  -12.7163  -19.6680 O   0  0  0  0  0  0  0  0  0  0  0  0
   23.3057  -11.5403  -17.8154 N   0  0  0  0  0  0  0  0  0  0  0  0
   22.4408  -10.6433  -18.6110 C   0  0  1  0  0  0  0  0  0  0  0  0
   21.0757  -10.5755  -18.0292 C   0  0  0  0  0  0  0  0  0  0  0  0
   20.1538   -9.6831  -18.7961 C   0  0  0  0  0  0  0  0  0  0  0  0
   18.7639   -9.6686  -18.1461 C   0  0  0  0  0  0  0  0  0  0  0  0
   17.8650   -8.8306  -19.0424 C   0  0  0  0  0  0  0  0  0  0  0  0
   16.5293   -8.8189  -18.5060 N   0  0  0  0  0  0  0  0  0  0  0  0
   23.1421   -9.3713  -18.7885 C   0  0  0  0  0  0  0  0  0  0  0  0
   22.9554   -8.4826  -19.8361 O   0  0  0  0  0  0  0  0  0  0  0  0
   24.0116   -9.0021  -17.9339 O   0  0  0  0  0  0  0  0  0  0  0  0
  2  1  1  0
  2  3  2  0
  4  5  1  0
  4  2  1  0
  5  7  1  0
  5  6  1  1
  7  8  2  0
 10  9  1  1
 10 12  1  0
 10 11  1  0
 13 12  1  6
 13 15  1  0
 14  7  1  0
 14 13  1  0
 15 16  2  0
 17 18  1  0
 17 15  1  0
 18 24  1  0
 18 19  1  1
 20 19  1  0
 21 20  1  0
 22 21  1  0
 23 22  1  0
 24 25  1  0
 26 24  2  0
M  END
$$$$
