NLK.pdb
     RDKit          3D

 26 25  0  0  1  0  0  0  0  0999 V2000
   22.4666  -15.6057  -20.4327 N   0  0  0  0  0  0  0  0  0  0  0  0
   21.7783  -14.4849  -19.8846 C   0  0  0  0  0  0  0  0  0  0  0  0
   20.5684  -14.3946  -20.1104 O   0  0  0  0  0  0  0  0  0  0  0  0
   22.5771  -13.5377  -19.0989 C   0  0  0  0  0  0  0  0  0  0  0  0
   24.0440  -13.8064  -19.0436 C   0  0  2  0  0  0  0  0  0  0  0  0
   24.2082  -15.0312  -18.2625 N   0  0  0  0  0  0  0  0  0  0  0  0
   24.8306  -12.7098  -18.4343 C   0  0  0  0  0  0  0  0  0  0  0  0
   24.3530  -11.7919  -17.7247 O   0  0  0  0  0  0  0  0  0  0  0  0
   29.6910  -13.9938  -16.3408 C   0  0  0  0  0  0  0  0  0  0  0  0
   28.3830  -13.3602  -16.6994 C   0  0  1  0  0  0  0  0  0  0  0  0
   27.8500  -12.7355  -15.3991 C   0  0  0  0  0  0  0  0  0  0  0  0
   28.4415  -12.2566  -17.6889 C   0  0  0  0  0  0  0  0  0  0  0  0
   27.1233  -11.6718  -18.1154 C   0  0  2  0  0  0  0  0  0  0  0  0
   26.2317  -12.6745  -18.6563 N   0  0  0  0  0  0  0  0  0  0  0  0
   27.2205  -10.4756  -18.9554 C   0  0  0  0  0  0  0  0  0  0  0  0
   27.5257  -10.6035  -20.1683 O   0  0  0  0  0  0  0  0  0  0  0  0
   26.9931   -9.1403  -18.4999 N   0  0  0  0  0  0  0  0  0  0  0  0
   27.1212   -7.9783  -19.4049 C   0  0  1  0  0  0  0  0  0  0  0  0
   25.9347   -7.0914  -19.2945 C   0  0  0  0  0  0  0  0  0  0  0  0
   24.7193   -7.6500  -19.9617 C   0  0  0  0  0  0  0  0  0  0  0  0
   23.5220   -6.7121  -19.7587 C   0  0  0  0  0  0  0  0  0  0  0  0
   22.3588   -7.3041  -20.5398 C   0  0  0  0  0  0  0  0  0  0  0  0
   21.2029   -6.4590  -20.3930 N   0  0  0  0  0  0  0  0  0  0  0  0
   28.4266   -7.3596  -19.1721 C   0  0  0  0  0  0  0  0  0  0  0  0
   28.9860   -6.3399  -19.9268 O   0  0  0  0  0  0  0  0  0  0  0  0
   29.1533   -7.7573  -18.2044 O   0  0  0  0  0  0  0  0  0  0  0  0
  2  1  1  0
  2  3  2  0
  4  5  1  0
  4  2  1  0
  5  7  1  0
  5  6  1  1
  7  8  2  0
 10  9  1  1
 10 12  1  0
 10 11  1  0
 13 12  1  6
 13 15  1  0
 14  7  1  0
 14 13  1  0
 15 16  2  0
 17 18  1  0
 17 15  1  0
 18 24  1  0
 18 19  1  1
 20 19  1  0
 21 20  1  0
 22 21  1  0
 23 22  1  0
 24 25  1  0
 26 24  2  0
M  END
$$$$
