NLK.pdb
     RDKit          3D

 26 25  0  0  1  0  0  0  0  0999 V2000
   29.4304  -19.8278  -17.0678 N   0  0  0  0  0  0  0  0  0  0  0  0
   28.1233  -19.2626  -17.1173 C   0  0  0  0  0  0  0  0  0  0  0  0
   27.9509  -18.2931  -17.8612 O   0  0  0  0  0  0  0  0  0  0  0  0
   27.0993  -19.8896  -16.2743 C   0  0  0  0  0  0  0  0  0  0  0  0
   27.5410  -21.0706  -15.4764 C   0  0  2  0  0  0  0  0  0  0  0  0
   27.7688  -22.1516  -16.4339 N   0  0  0  0  0  0  0  0  0  0  0  0
   26.5618  -21.5013  -14.4526 C   0  0  0  0  0  0  0  0  0  0  0  0
   25.5741  -22.2435  -14.6710 O   0  0  0  0  0  0  0  0  0  0  0  0
   24.5773  -21.7774   -9.2454 C   0  0  0  0  0  0  0  0  0  0  0  0
   25.1937  -20.4870   -9.6880 C   0  0  1  0  0  0  0  0  0  0  0  0
   25.9455  -19.9402   -8.4629 C   0  0  0  0  0  0  0  0  0  0  0  0
   26.1986  -20.5823  -10.7751 C   0  0  0  0  0  0  0  0  0  0  0  0
   25.6941  -21.0531  -12.1112 C   0  0  2  0  0  0  0  0  0  0  0  0
   26.7337  -21.0528  -13.1173 N   0  0  0  0  0  0  0  0  0  0  0  0
   24.4555  -20.4152  -12.5641 C   0  0  0  0  0  0  0  0  0  0  0  0
   24.4624  -19.1862  -12.8291 O   0  0  0  0  0  0  0  0  0  0  0  0
   23.2071  -21.0897  -12.7330 N   0  0  0  0  0  0  0  0  0  0  0  0
   21.9944  -20.3770  -13.1882 C   0  0  1  0  0  0  0  0  0  0  0  0
   21.7725  -20.5902  -14.6414 C   0  0  0  0  0  0  0  0  0  0  0  0
   20.5122  -19.9614  -15.1418 C   0  0  0  0  0  0  0  0  0  0  0  0
   20.3262  -20.2576  -16.6359 C   0  0  0  0  0  0  0  0  0  0  0  0
   19.1026  -19.4780  -17.0925 C   0  0  0  0  0  0  0  0  0  0  0  0
   18.8903  -19.6991  -18.4990 N   0  0  0  0  0  0  0  0  0  0  0  0
   20.8913  -20.7367  -12.2965 C   0  0  0  0  0  0  0  0  0  0  0  0
   19.7795  -19.9536  -12.0266 O   0  0  0  0  0  0  0  0  0  0  0  0
   20.9061  -21.8563  -11.6892 O   0  0  0  0  0  0  0  0  0  0  0  0
  2  1  1  0
  2  3  2  0
  4  5  1  0
  4  2  1  0
  5  7  1  0
  5  6  1  6
  7  8  2  0
 10  9  1  1
 10 12  1  0
 10 11  1  0
 13 12  1  1
 13 15  1  0
 14  7  1  0
 14 13  1  0
 15 16  2  0
 17 18  1  0
 17 15  1  0
 18 24  1  0
 18 19  1  6
 20 19  1  0
 21 20  1  0
 22 21  1  0
 23 22  1  0
 24 25  1  0
 26 24  2  0
M  END
$$$$
