NLK.pdb
     RDKit          3D

 26 25  0  0  1  0  0  0  0  0999 V2000
   29.4501  -19.2767  -16.9575 N   0  0  0  0  0  0  0  0  0  0  0  0
   28.1507  -19.2274  -17.5401 C   0  0  0  0  0  0  0  0  0  0  0  0
   28.0325  -18.6368  -18.6172 O   0  0  0  0  0  0  0  0  0  0  0  0
   27.0688  -19.8870  -16.8005 C   0  0  0  0  0  0  0  0  0  0  0  0
   27.4489  -20.5046  -15.4963 C   0  0  2  0  0  0  0  0  0  0  0  0
   28.2935  -21.6541  -15.8166 N   0  0  0  0  0  0  0  0  0  0  0  0
   26.2923  -20.9397  -14.6806 C   0  0  0  0  0  0  0  0  0  0  0  0
   25.4952  -21.8558  -14.9961 O   0  0  0  0  0  0  0  0  0  0  0  0
   26.4189  -20.0720   -8.9861 C   0  0  0  0  0  0  0  0  0  0  0  0
   26.2228  -20.6473  -10.3542 C   0  0  1  0  0  0  0  0  0  0  0  0
   25.7876  -22.1062  -10.1365 C   0  0  0  0  0  0  0  0  0  0  0  0
   25.1598  -20.0225  -11.1791 C   0  0  0  0  0  0  0  0  0  0  0  0
   24.9542  -20.6003  -12.5522 C   0  0  2  0  0  0  0  0  0  0  0  0
   26.0479  -20.2854  -13.4453 N   0  0  0  0  0  0  0  0  0  0  0  0
   23.6381  -20.3413  -13.1411 C   0  0  0  0  0  0  0  0  0  0  0  0
   23.4275  -19.2379  -13.7058 O   0  0  0  0  0  0  0  0  0  0  0  0
   22.5443  -21.2608  -13.1261 N   0  0  0  0  0  0  0  0  0  0  0  0
   21.2639  -20.9559  -13.7992 C   0  0  1  0  0  0  0  0  0  0  0  0
   20.9793  -21.9506  -14.8652 C   0  0  0  0  0  0  0  0  0  0  0  0
   19.6843  -21.7028  -15.5695 C   0  0  0  0  0  0  0  0  0  0  0  0
   19.5146  -22.6875  -16.7339 C   0  0  0  0  0  0  0  0  0  0  0  0
   18.2065  -22.3344  -17.4249 C   0  0  0  0  0  0  0  0  0  0  0  0
   18.4192  -21.2244  -18.3164 N   0  0  0  0  0  0  0  0  0  0  0  0
   20.2368  -20.7844  -12.7711 C   0  0  0  0  0  0  0  0  0  0  0  0
   19.0896  -20.0153  -12.8924 O   0  0  0  0  0  0  0  0  0  0  0  0
   20.3606  -21.3707  -11.6470 O   0  0  0  0  0  0  0  0  0  0  0  0
  2  1  1  0
  2  3  2  0
  4  5  1  0
  4  2  1  0
  5  7  1  0
  5  6  1  6
  7  8  2  0
 10  9  1  1
 10 12  1  0
 10 11  1  0
 13 12  1  1
 13 15  1  0
 14  7  1  0
 14 13  1  0
 15 16  2  0
 17 18  1  0
 17 15  1  0
 18 24  1  0
 18 19  1  6
 20 19  1  0
 21 20  1  0
 22 21  1  0
 23 22  1  0
 24 25  1  0
 26 24  2  0
M  END
$$$$
