NLK.pdb
     RDKit          3D

 26 25  0  0  1  0  0  0  0  0999 V2000
   21.4303  -13.9706  -20.3113 N   0  0  0  0  0  0  0  0  0  0  0  0
   20.4481  -12.9771  -20.0308 C   0  0  0  0  0  0  0  0  0  0  0  0
   19.4688  -12.9184  -20.7794 O   0  0  0  0  0  0  0  0  0  0  0  0
   20.6947  -12.1121  -18.8717 C   0  0  0  0  0  0  0  0  0  0  0  0
   21.9543  -12.3738  -18.1154 C   0  0  2  0  0  0  0  0  0  0  0  0
   21.7610  -13.6470  -17.4234 N   0  0  0  0  0  0  0  0  0  0  0  0
   22.2966  -11.3151  -17.1385 C   0  0  0  0  0  0  0  0  0  0  0  0
   21.5783  -10.9742  -16.1679 O   0  0  0  0  0  0  0  0  0  0  0  0
   27.7148  -10.6886  -16.3301 C   0  0  0  0  0  0  0  0  0  0  0  0
   26.2345  -10.7338  -16.1117 C   0  0  1  0  0  0  0  0  0  0  0  0
   26.0408  -11.0138  -14.6120 C   0  0  0  0  0  0  0  0  0  0  0  0
   25.4944   -9.4791  -16.3921 C   0  0  0  0  0  0  0  0  0  0  0  0
   23.9939   -9.5779  -16.4059 C   0  0  2  0  0  0  0  0  0  0  0  0
   23.5246  -10.6207  -17.2919 N   0  0  0  0  0  0  0  0  0  0  0  0
   23.2924   -8.3055  -16.5928 C   0  0  0  0  0  0  0  0  0  0  0  0
   23.1552   -7.8483  -17.7559 O   0  0  0  0  0  0  0  0  0  0  0  0
   22.7375   -7.5191  -15.5365 N   0  0  0  0  0  0  0  0  0  0  0  0
   21.9900   -6.2725  -15.8064 C   0  0  1  0  0  0  0  0  0  0  0  0
   20.5644   -6.5668  -16.1026 C   0  0  0  0  0  0  0  0  0  0  0  0
   19.7381   -5.3363  -16.2959 C   0  0  0  0  0  0  0  0  0  0  0  0
   18.2784   -5.7142  -16.5798 C   0  0  0  0  0  0  0  0  0  0  0  0
   17.5044   -4.4128  -16.7244 C   0  0  0  0  0  0  0  0  0  0  0  0
   16.1218   -4.7049  -16.9985 N   0  0  0  0  0  0  0  0  0  0  0  0
   22.2530   -5.3361  -14.7131 C   0  0  0  0  0  0  0  0  0  0  0  0
   22.1501   -3.9555  -14.7865 O   0  0  0  0  0  0  0  0  0  0  0  0
   22.6123   -5.7770  -13.5733 O   0  0  0  0  0  0  0  0  0  0  0  0
  2  1  1  0
  2  3  2  0
  4  5  1  0
  4  2  1  0
  5  7  1  0
  5  6  1  1
  7  8  2  0
 10  9  1  1
 10 12  1  0
 10 11  1  0
 13 12  1  6
 13 15  1  0
 14  7  1  0
 14 13  1  0
 15 16  2  0
 17 18  1  0
 17 15  1  0
 18 24  1  0
 18 19  1  1
 20 19  1  0
 21 20  1  0
 22 21  1  0
 23 22  1  0
 24 25  1  0
 26 24  2  0
M  END
$$$$
