NLK.pdb
     RDKit          3D

 26 25  0  0  1  0  0  0  0  0999 V2000
   18.9947  -24.8456   -7.2277 N   0  0  0  0  0  0  0  0  0  0  0  0
   18.3719  -24.1711   -8.3175 C   0  0  0  0  0  0  0  0  0  0  0  0
   17.2696  -24.5850   -8.6872 O   0  0  0  0  0  0  0  0  0  0  0  0
   19.1036  -23.0414   -8.9013 C   0  0  0  0  0  0  0  0  0  0  0  0
   20.4397  -22.7482   -8.3049 C   0  0  2  0  0  0  0  0  0  0  0  0
   20.1923  -22.3398   -6.9231 N   0  0  0  0  0  0  0  0  0  0  0  0
   21.1936  -21.6909   -9.0163 C   0  0  0  0  0  0  0  0  0  0  0  0
   20.7445  -20.5532   -9.2960 O   0  0  0  0  0  0  0  0  0  0  0  0
   26.5036  -20.9369   -7.8722 C   0  0  0  0  0  0  0  0  0  0  0  0
   25.0932  -20.7345   -8.3316 C   0  0  1  0  0  0  0  0  0  0  0  0
   24.8375  -19.2206   -8.2438 C   0  0  0  0  0  0  0  0  0  0  0  0
   24.8022  -21.1175   -9.7349 C   0  0  0  0  0  0  0  0  0  0  0  0
   23.3623  -21.0432  -10.1623 C   0  0  2  0  0  0  0  0  0  0  0  0
   22.5260  -21.9627   -9.4219 N   0  0  0  0  0  0  0  0  0  0  0  0
   23.1431  -21.1043  -11.6094 C   0  0  0  0  0  0  0  0  0  0  0  0
   23.7699  -21.9577  -12.2872 O   0  0  0  0  0  0  0  0  0  0  0  0
   22.2543  -20.2521  -12.3347 N   0  0  0  0  0  0  0  0  0  0  0  0
   22.0372  -20.4130  -13.7882 C   0  0  1  0  0  0  0  0  0  0  0  0
   20.9525  -21.3926  -14.0534 C   0  0  0  0  0  0  0  0  0  0  0  0
   20.7353  -21.6488  -15.5100 C   0  0  0  0  0  0  0  0  0  0  0  0
   19.5853  -22.6448  -15.7097 C   0  0  0  0  0  0  0  0  0  0  0  0
   19.4741  -22.8981  -17.2054 C   0  0  0  0  0  0  0  0  0  0  0  0
   18.4018  -23.8250  -17.4565 N   0  0  0  0  0  0  0  0  0  0  0  0
   21.8778  -19.0826  -14.3764 C   0  0  0  0  0  0  0  0  0  0  0  0
   20.9396  -18.1356  -13.9956 O   0  0  0  0  0  0  0  0  0  0  0  0
   22.6423  -18.7134  -15.3261 O   0  0  0  0  0  0  0  0  0  0  0  0
  2  1  1  0
  2  3  2  0
  4  5  1  0
  4  2  1  0
  5  7  1  0
  5  6  1  1
  7  8  2  0
 10  9  1  6
 10 12  1  0
 10 11  1  0
 13 12  1  6
 13 15  1  0
 14  7  1  0
 14 13  1  0
 15 16  2  0
 17 18  1  0
 17 15  1  0
 18 24  1  0
 18 19  1  1
 20 19  1  0
 21 20  1  0
 22 21  1  0
 23 22  1  0
 24 25  1  0
 26 24  2  0
M  END
$$$$
