NLK.pdb
     RDKit          3D

 26 25  0  0  1  0  0  0  0  0999 V2000
   21.7018  -27.4658  -16.0554 N   0  0  0  0  0  0  0  0  0  0  0  0
   21.7720  -26.7994  -14.7979 C   0  0  0  0  0  0  0  0  0  0  0  0
   21.0141  -27.1884  -13.9051 O   0  0  0  0  0  0  0  0  0  0  0  0
   22.7443  -25.7068  -14.6819 C   0  0  0  0  0  0  0  0  0  0  0  0
   23.6400  -25.4997  -15.8574 C   0  0  2  0  0  0  0  0  0  0  0  0
   24.8059  -26.3548  -15.6413 N   0  0  0  0  0  0  0  0  0  0  0  0
   24.0713  -24.0952  -16.0410 C   0  0  0  0  0  0  0  0  0  0  0  0
   23.5984  -23.1119  -15.4214 O   0  0  0  0  0  0  0  0  0  0  0  0
   27.8253  -22.8249  -15.4327 C   0  0  0  0  0  0  0  0  0  0  0  0
   28.1646  -22.5467  -16.8640 C   0  0  1  0  0  0  0  0  0  0  0  0
   29.1133  -23.6771  -17.2967 C   0  0  0  0  0  0  0  0  0  0  0  0
   27.0316  -22.5752  -17.8211 C   0  0  0  0  0  0  0  0  0  0  0  0
   25.6526  -22.5039  -17.2256 C   0  0  2  0  0  0  0  0  0  0  0  0
   25.0951  -23.8167  -16.9834 N   0  0  0  0  0  0  0  0  0  0  0  0
   24.7261  -21.6045  -17.9175 C   0  0  0  0  0  0  0  0  0  0  0  0
   24.3060  -21.9202  -19.0596 O   0  0  0  0  0  0  0  0  0  0  0  0
   24.2484  -20.3651  -17.3902 N   0  0  0  0  0  0  0  0  0  0  0  0
   23.2924  -19.5202  -18.1371 C   0  0  1  0  0  0  0  0  0  0  0  0
   22.7017  -18.4842  -17.2514 C   0  0  0  0  0  0  0  0  0  0  0  0
   21.7283  -17.5948  -17.9555 C   0  0  0  0  0  0  0  0  0  0  0  0
   21.0298  -16.6690  -16.9508 C   0  0  0  0  0  0  0  0  0  0  0  0
   19.9466  -15.9233  -17.7152 C   0  0  0  0  0  0  0  0  0  0  0  0
   19.1833  -15.1157  -16.8002 N   0  0  0  0  0  0  0  0  0  0  0  0
   23.9553  -19.0443  -19.3517 C   0  0  0  0  0  0  0  0  0  0  0  0
   25.3253  -18.9805  -19.5550 O   0  0  0  0  0  0  0  0  0  0  0  0
   23.2578  -18.6406  -20.3382 O   0  0  0  0  0  0  0  0  0  0  0  0
  2  1  1  0
  2  3  2  0
  4  5  1  0
  4  2  1  0
  5  7  1  0
  5  6  1  1
  7  8  2  0
 10  9  1  1
 10 12  1  0
 10 11  1  0
 13 12  1  6
 13 15  1  0
 14  7  1  0
 14 13  1  0
 15 16  2  0
 17 18  1  0
 17 15  1  0
 18 24  1  0
 18 19  1  1
 20 19  1  0
 21 20  1  0
 22 21  1  0
 23 22  1  0
 24 25  1  0
 26 24  2  0
M  END
$$$$
