NLK.pdb
     RDKit          3D

 26 25  0  0  1  0  0  0  0  0999 V2000
   28.6517  -18.4518  -17.1283 N   0  0  0  0  0  0  0  0  0  0  0  0
   28.8972  -19.8362  -16.8967 C   0  0  0  0  0  0  0  0  0  0  0  0
   29.8804  -20.3392  -17.4473 O   0  0  0  0  0  0  0  0  0  0  0  0
   27.9524  -20.5378  -16.0205 C   0  0  0  0  0  0  0  0  0  0  0  0
   26.8200  -19.7223  -15.4919 C   0  0  2  0  0  0  0  0  0  0  0  0
   27.4141  -18.7113  -14.6190 N   0  0  0  0  0  0  0  0  0  0  0  0
   25.8149  -20.5093  -14.7417 C   0  0  0  0  0  0  0  0  0  0  0  0
   25.2486  -21.5442  -15.1688 O   0  0  0  0  0  0  0  0  0  0  0  0
   26.0271  -20.3985   -9.0908 C   0  0  0  0  0  0  0  0  0  0  0  0
   25.8620  -20.7708  -10.5314 C   0  0  1  0  0  0  0  0  0  0  0  0
   25.8890  -22.3079  -10.5722 C   0  0  0  0  0  0  0  0  0  0  0  0
   24.5841  -20.3675  -11.1678 C   0  0  0  0  0  0  0  0  0  0  0  0
   24.4292  -20.7030  -12.6255 C   0  0  2  0  0  0  0  0  0  0  0  0
   25.4495  -20.0792  -13.4397 N   0  0  0  0  0  0  0  0  0  0  0  0
   23.0774  -20.5241  -13.1608 C   0  0  0  0  0  0  0  0  0  0  0  0
   22.6357  -19.3590  -13.3288 O   0  0  0  0  0  0  0  0  0  0  0  0
   22.1948  -21.5904  -13.5160 N   0  0  0  0  0  0  0  0  0  0  0  0
   20.8194  -21.3339  -13.9935 C   0  0  1  0  0  0  0  0  0  0  0  0
   20.2612  -22.5370  -14.6626 C   0  0  0  0  0  0  0  0  0  0  0  0
   18.8509  -22.3526  -15.1223 C   0  0  0  0  0  0  0  0  0  0  0  0
   18.3389  -23.6325  -15.7962 C   0  0  0  0  0  0  0  0  0  0  0  0
   16.9126  -23.3555  -16.2462 C   0  0  0  0  0  0  0  0  0  0  0  0
   16.3296  -24.5652  -16.7645 N   0  0  0  0  0  0  0  0  0  0  0  0
   20.0446  -20.7834  -12.8810 C   0  0  0  0  0  0  0  0  0  0  0  0
   20.0994  -21.2139  -11.5642 O   0  0  0  0  0  0  0  0  0  0  0  0
   19.2327  -19.8237  -13.0872 O   0  0  0  0  0  0  0  0  0  0  0  0
  2  1  1  0
  2  3  2  0
  4  5  1  0
  4  2  1  0
  5  7  1  0
  5  6  1  1
  7  8  2  0
 10  9  1  1
 10 12  1  0
 10 11  1  0
 13 12  1  1
 13 15  1  0
 14  7  1  0
 14 13  1  0
 15 16  2  0
 17 18  1  0
 17 15  1  0
 18 24  1  0
 18 19  1  1
 20 19  1  0
 21 20  1  0
 22 21  1  0
 23 22  1  0
 24 25  1  0
 26 24  2  0
M  END
$$$$
