NLK.pdb
     RDKit          3D

 26 25  0  0  1  0  0  0  0  0999 V2000
   20.0127  -18.6386  -18.0158 N   0  0  0  0  0  0  0  0  0  0  0  0
   20.3843  -18.3883  -16.6632 C   0  0  0  0  0  0  0  0  0  0  0  0
   20.6165  -17.2189  -16.3444 O   0  0  0  0  0  0  0  0  0  0  0  0
   20.4564  -19.5508  -15.7711 C   0  0  0  0  0  0  0  0  0  0  0  0
   21.6557  -19.6238  -14.8862 C   0  0  2  0  0  0  0  0  0  0  0  0
   22.7981  -19.8774  -15.7625 N   0  0  0  0  0  0  0  0  0  0  0  0
   21.5712  -20.6776  -13.8494 C   0  0  0  0  0  0  0  0  0  0  0  0
   21.2893  -21.8803  -14.0693 O   0  0  0  0  0  0  0  0  0  0  0  0
   24.8851  -20.2781   -9.2443 C   0  0  0  0  0  0  0  0  0  0  0  0
   24.0662  -20.6574  -10.4388 C   0  0  1  0  0  0  0  0  0  0  0  0
   24.5386  -22.0648  -10.8403 C   0  0  0  0  0  0  0  0  0  0  0  0
   22.6029  -20.7644  -10.2201 C   0  0  0  0  0  0  0  0  0  0  0  0
   21.7871  -21.2483  -11.3870 C   0  0  2  0  0  0  0  0  0  0  0  0
   21.8242  -20.3234  -12.4988 N   0  0  0  0  0  0  0  0  0  0  0  0
   20.4314  -21.6910  -11.0523 C   0  0  0  0  0  0  0  0  0  0  0  0
   19.5050  -20.8423  -11.0067 O   0  0  0  0  0  0  0  0  0  0  0  0
   20.0640  -23.0417  -10.7643 N   0  0  0  0  0  0  0  0  0  0  0  0
   18.6659  -23.4200  -10.4678 C   0  0  1  0  0  0  0  0  0  0  0  0
   18.4142  -24.8369  -10.8364 C   0  0  0  0  0  0  0  0  0  0  0  0
   17.0051  -25.2679  -10.5854 C   0  0  0  0  0  0  0  0  0  0  0  0
   16.8040  -26.7202  -11.0380 C   0  0  0  0  0  0  0  0  0  0  0  0
   15.3339  -27.0494  -10.8284 C   0  0  0  0  0  0  0  0  0  0  0  0
   15.0990  -28.4297  -11.1627 N   0  0  0  0  0  0  0  0  0  0  0  0
   18.3730  -23.0399   -9.0854 C   0  0  0  0  0  0  0  0  0  0  0  0
   17.1218  -22.7206   -8.5808 O   0  0  0  0  0  0  0  0  0  0  0  0
   19.3157  -22.9806   -8.2307 O   0  0  0  0  0  0  0  0  0  0  0  0
  2  1  1  0
  2  3  2  0
  4  5  1  0
  4  2  1  0
  5  7  1  0
  5  6  1  6
  7  8  2  0
 10  9  1  1
 10 12  1  0
 10 11  1  0
 13 12  1  1
 13 15  1  0
 14  7  1  0
 14 13  1  0
 15 16  2  0
 17 18  1  0
 17 15  1  0
 18 24  1  0
 18 19  1  1
 20 19  1  0
 21 20  1  0
 22 21  1  0
 23 22  1  0
 24 25  1  0
 26 24  2  0
M  END
$$$$
