NLK.pdb
     RDKit          3D

 26 25  0  0  1  0  0  0  0  0999 V2000
   22.3253  -15.1422  -20.3053 N   0  0  0  0  0  0  0  0  0  0  0  0
   21.2220  -14.2463  -20.2038 C   0  0  0  0  0  0  0  0  0  0  0  0
   20.3011  -14.3844  -21.0136 O   0  0  0  0  0  0  0  0  0  0  0  0
   21.2846  -13.2378  -19.1401 C   0  0  0  0  0  0  0  0  0  0  0  0
   22.4727  -13.3084  -18.2399 C   0  0  2  0  0  0  0  0  0  0  0  0
   22.3546  -14.5646  -17.5015 N   0  0  0  0  0  0  0  0  0  0  0  0
   22.5747  -12.1743  -17.2935 C   0  0  0  0  0  0  0  0  0  0  0  0
   21.7931  -11.9672  -16.3340 O   0  0  0  0  0  0  0  0  0  0  0  0
   27.6896  -10.1426  -16.3731 C   0  0  0  0  0  0  0  0  0  0  0  0
   26.2619  -10.5745  -16.2464 C   0  0  1  0  0  0  0  0  0  0  0  0
   26.0303  -10.8201  -14.7460 C   0  0  0  0  0  0  0  0  0  0  0  0
   25.2402   -9.5818  -16.6605 C   0  0  0  0  0  0  0  0  0  0  0  0
   23.8120  -10.0529  -16.6576 C   0  0  2  0  0  0  0  0  0  0  0  0
   23.6277  -11.2387  -17.4655 N   0  0  0  0  0  0  0  0  0  0  0  0
   22.8173   -9.0122  -16.9285 C   0  0  0  0  0  0  0  0  0  0  0  0
   22.5258   -8.7408  -18.1210 O   0  0  0  0  0  0  0  0  0  0  0  0
   22.1335   -8.2587  -15.9251 N   0  0  0  0  0  0  0  0  0  0  0  0
   21.1262   -7.2345  -16.2743 C   0  0  1  0  0  0  0  0  0  0  0  0
   19.8104   -7.8640  -16.5551 C   0  0  0  0  0  0  0  0  0  0  0  0
   18.7607   -6.8780  -16.9556 C   0  0  0  0  0  0  0  0  0  0  0  0
   17.4530   -7.6029  -17.3000 C   0  0  0  0  0  0  0  0  0  0  0  0
   16.4524   -6.5361  -17.7174 C   0  0  0  0  0  0  0  0  0  0  0  0
   15.2439   -7.1666  -18.1801 N   0  0  0  0  0  0  0  0  0  0  0  0
   21.1506   -6.1987  -15.2410 C   0  0  0  0  0  0  0  0  0  0  0  0
   20.5916   -4.9344  -15.3478 O   0  0  0  0  0  0  0  0  0  0  0  0
   21.7246   -6.4276  -14.1270 O   0  0  0  0  0  0  0  0  0  0  0  0
  2  1  1  0
  2  3  2  0
  4  5  1  0
  4  2  1  0
  5  7  1  0
  5  6  1  1
  7  8  2  0
 10  9  1  1
 10 12  1  0
 10 11  1  0
 13 12  1  6
 13 15  1  0
 14  7  1  0
 14 13  1  0
 15 16  2  0
 17 18  1  0
 17 15  1  0
 18 24  1  0
 18 19  1  1
 20 19  1  0
 21 20  1  0
 22 21  1  0
 23 22  1  0
 24 25  1  0
 26 24  2  0
M  END
$$$$
