NLK.pdb
     RDKit          3D

 26 25  0  0  1  0  0  0  0  0999 V2000
   19.1572  -21.7710  -13.0920 N   0  0  0  0  0  0  0  0  0  0  0  0
   19.2886  -20.4440  -12.5898 C   0  0  0  0  0  0  0  0  0  0  0  0
   18.2705  -19.8960  -12.1583 O   0  0  0  0  0  0  0  0  0  0  0  0
   20.6294  -19.8502  -12.6331 C   0  0  0  0  0  0  0  0  0  0  0  0
   21.7073  -20.7079  -13.2070 C   0  0  2  0  0  0  0  0  0  0  0  0
   21.5507  -22.0275  -12.5974 N   0  0  0  0  0  0  0  0  0  0  0  0
   23.0746  -20.1966  -12.9592 C   0  0  0  0  0  0  0  0  0  0  0  0
   23.4492  -19.0175  -13.1684 O   0  0  0  0  0  0  0  0  0  0  0  0
   25.4555  -21.1145   -8.3282 C   0  0  0  0  0  0  0  0  0  0  0  0
   25.0507  -20.6511   -9.6929 C   0  0  1  0  0  0  0  0  0  0  0  0
   25.2100  -19.1215   -9.6800 C   0  0  0  0  0  0  0  0  0  0  0  0
   25.8811  -21.1389  -10.8213 C   0  0  0  0  0  0  0  0  0  0  0  0
   25.4334  -20.7408  -12.2006 C   0  0  2  0  0  0  0  0  0  0  0  0
   24.0512  -21.0896  -12.4468 N   0  0  0  0  0  0  0  0  0  0  0  0
   26.3312  -21.1491  -13.2837 C   0  0  0  0  0  0  0  0  0  0  0  0
   27.5437  -20.8212  -13.2291 O   0  0  0  0  0  0  0  0  0  0  0  0
   25.9340  -21.9074  -14.4281 N   0  0  0  0  0  0  0  0  0  0  0  0
   26.8911  -22.2552  -15.4998 C   0  0  1  0  0  0  0  0  0  0  0  0
   26.8825  -23.7179  -15.7592 C   0  0  0  0  0  0  0  0  0  0  0  0
   27.8507  -24.1322  -16.8200 C   0  0  0  0  0  0  0  0  0  0  0  0
   27.7786  -25.6484  -17.0439 C   0  0  0  0  0  0  0  0  0  0  0  0
   29.0090  -26.0357  -17.8499 C   0  0  0  0  0  0  0  0  0  0  0  0
   29.1035  -27.4703  -17.9216 N   0  0  0  0  0  0  0  0  0  0  0  0
   26.6296  -21.3843  -16.6462 C   0  0  0  0  0  0  0  0  0  0  0  0
   25.4294  -20.7477  -16.9230 O   0  0  0  0  0  0  0  0  0  0  0  0
   27.5522  -21.1596  -17.4954 O   0  0  0  0  0  0  0  0  0  0  0  0
  2  1  1  0
  2  3  2  0
  4  5  1  0
  4  2  1  0
  5  7  1  0
  5  6  1  1
  7  8  2  0
 10  9  1  1
 10 12  1  0
 10 11  1  0
 13 12  1  1
 13 15  1  0
 14  7  1  0
 14 13  1  0
 15 16  2  0
 17 18  1  0
 17 15  1  0
 18 24  1  0
 18 19  1  6
 20 19  1  0
 21 20  1  0
 22 21  1  0
 23 22  1  0
 24 25  1  0
 26 24  2  0
M  END
$$$$
