FLA.pdb
     RDKit          3D

 25 25  0  0  1  0  0  0  0  0999 V2000
   21.2665  -17.7614  -17.4929 N   0  0  0  0  0  0  0  0  0  0  0  0
   22.0315  -17.1233  -18.5384 C   0  0  1  0  0  0  0  0  0  0  0  0
   21.2620  -17.0607  -19.8380 C   0  0  0  0  0  0  0  0  0  0  0  0
   21.1143  -18.4322  -20.3675 C   0  0  0  0  0  0  0  0  0  0  0  0
   20.0746  -19.2313  -19.9697 C   0  0  0  0  0  0  0  0  0  0  0  0
   19.9257  -20.5268  -20.4626 C   0  0  0  0  0  0  0  0  0  0  0  0
   20.8691  -20.9850  -21.3743 C   0  0  0  0  0  0  0  0  0  0  0  0
   21.9133  -20.2080  -21.7858 C   0  0  0  0  0  0  0  0  0  0  0  0
   22.0238  -18.9223  -21.2691 C   0  0  0  0  0  0  0  0  0  0  0  0
   22.4398  -15.7792  -18.0702 C   0  0  0  0  0  0  0  0  0  0  0  0
   21.6531  -15.0867  -17.3691 O   0  0  0  0  0  0  0  0  0  0  0  0
   27.5634  -14.8956  -16.4051 C   0  0  0  0  0  0  0  0  0  0  0  0
   25.9928  -14.8417  -16.3703 C   0  0  1  0  0  0  0  0  0  0  0  0
   25.6686  -14.3767  -14.9677 C   0  0  0  0  0  0  0  0  0  0  0  0
   25.5388  -13.9454  -17.4641 C   0  0  0  0  0  0  0  0  0  0  0  0
   24.1205  -13.8851  -17.8099 C   0  0  2  0  0  0  0  0  0  0  0  0
   23.7004  -15.2097  -18.3735 N   0  0  0  0  0  0  0  0  0  0  0  0
   23.5556  -12.8961  -18.6861 C   0  0  0  0  0  0  0  0  0  0  0  0
   23.6737  -12.9773  -19.9342 O   0  0  0  0  0  0  0  0  0  0  0  0
   20.9107  -10.8523  -19.3565 C   0  0  0  0  0  0  0  0  0  0  0  0
   22.4196  -10.6984  -19.1537 C   0  0  2  0  0  0  0  0  0  0  0  0
   22.8186  -11.7451  -18.2393 N   0  0  0  0  0  0  0  0  0  0  0  0
   22.7560   -9.3495  -18.6235 C   0  0  0  0  0  0  0  0  0  0  0  0
   22.6572   -8.2315  -19.4395 O   0  0  0  0  0  0  0  0  0  0  0  0
   23.1371   -9.1590  -17.4397 O   0  0  0  0  0  0  0  0  0  0  0  0
  2 10  1  0
  2  1  1  1
  3  2  1  0
  4  3  1  0
  5  4  2  0
  6  5  1  0
  7  6  2  0
  7  8  1  0
  8  9  2  0
  9  4  1  0
 10 11  2  0
 13 12  1  1
 14 13  1  0
 15 13  1  0
 16 15  1  6
 17 16  1  0
 17 10  1  0
 18 22  1  0
 18 16  1  0
 19 18  2  0
 21 20  1  1
 21 22  1  0
 23 21  1  0
 23 24  1  0
 25 23  2  0
M  END
$$$$
