FLA.pdb
     RDKit          3D

 25 25  0  0  1  0  0  0  0  0999 V2000
   26.2519  -18.5092   -8.0146 N   0  0  0  0  0  0  0  0  0  0  0  0
   27.1858  -19.5873   -8.2400 C   0  0  1  0  0  0  0  0  0  0  0  0
   27.0707  -20.6598   -7.1810 C   0  0  0  0  0  0  0  0  0  0  0  0
   27.7046  -20.1695   -5.9396 C   0  0  0  0  0  0  0  0  0  0  0  0
   28.8428  -19.4078   -5.9846 C   0  0  0  0  0  0  0  0  0  0  0  0
   29.4493  -18.9402   -4.8197 C   0  0  0  0  0  0  0  0  0  0  0  0
   28.8609  -19.2722   -3.6053 C   0  0  0  0  0  0  0  0  0  0  0  0
   27.7273  -20.0295   -3.5347 C   0  0  0  0  0  0  0  0  0  0  0  0
   27.1554  -20.4750   -4.7208 C   0  0  0  0  0  0  0  0  0  0  0  0
   26.9643  -20.1260   -9.6013 C   0  0  0  0  0  0  0  0  0  0  0  0
   26.0417  -19.6606  -10.3241 O   0  0  0  0  0  0  0  0  0  0  0  0
   30.1962  -21.9945   -9.1653 C   0  0  0  0  0  0  0  0  0  0  0  0
   30.6649  -21.4540  -10.5649 C   0  0  1  0  0  0  0  0  0  0  0  0
   32.0037  -22.1212  -10.7909 C   0  0  0  0  0  0  0  0  0  0  0  0
   29.6108  -21.7779  -11.5598 C   0  0  0  0  0  0  0  0  0  0  0  0
   28.3402  -21.0571  -11.5300 C   0  0  2  0  0  0  0  0  0  0  0  0
   27.7520  -21.1644  -10.1548 N   0  0  0  0  0  0  0  0  0  0  0  0
   27.2551  -21.3178  -12.4354 C   0  0  0  0  0  0  0  0  0  0  0  0
   27.3884  -21.1886  -13.6779 O   0  0  0  0  0  0  0  0  0  0  0  0
   23.9538  -23.0208  -12.3252 C   0  0  0  0  0  0  0  0  0  0  0  0
   24.9014  -22.0196  -12.9893 C   0  0  2  0  0  0  0  0  0  0  0  0
   25.9432  -21.7411  -12.0260 N   0  0  0  0  0  0  0  0  0  0  0  0
   24.1804  -20.7815  -13.3906 C   0  0  0  0  0  0  0  0  0  0  0  0
   24.4251  -19.5841  -12.7333 O   0  0  0  0  0  0  0  0  0  0  0  0
   23.3345  -20.7578  -14.3216 O   0  0  0  0  0  0  0  0  0  0  0  0
  2 10  1  0
  2  1  1  1
  3  2  1  0
  4  3  1  0
  5  4  2  0
  6  5  1  0
  7  6  2  0
  7  8  1  0
  8  9  2  0
  9  4  1  0
 10 11  2  0
 13 12  1  1
 14 13  1  0
 15 13  1  0
 16 15  1  1
 17 16  1  0
 17 10  1  0
 18 22  1  0
 18 16  1  0
 19 18  2  0
 21 20  1  1
 21 22  1  0
 23 21  1  0
 23 24  1  0
 25 23  2  0
M  END
$$$$
