FLA.pdb
     RDKit          3D

 25 25  0  0  1  0  0  0  0  0999 V2000
   19.5223  -13.6095  -18.6526 N   0  0  0  0  0  0  0  0  0  0  0  0
   19.4442  -12.1886  -18.8981 C   0  0  1  0  0  0  0  0  0  0  0  0
   18.1534  -11.8085  -19.5868 C   0  0  0  0  0  0  0  0  0  0  0  0
   18.1997  -12.2944  -20.9814 C   0  0  0  0  0  0  0  0  0  0  0  0
   18.8371  -11.5729  -21.9566 C   0  0  0  0  0  0  0  0  0  0  0  0
   18.8867  -12.0217  -23.2756 C   0  0  0  0  0  0  0  0  0  0  0  0
   18.2667  -13.2295  -23.5722 C   0  0  0  0  0  0  0  0  0  0  0  0
   17.6256  -13.9662  -22.6183 C   0  0  0  0  0  0  0  0  0  0  0  0
   17.6002  -13.4815  -21.3156 C   0  0  0  0  0  0  0  0  0  0  0  0
   19.6162  -11.4777  -17.6107 C   0  0  0  0  0  0  0  0  0  0  0  0
   18.9724  -11.8483  -16.5917 O   0  0  0  0  0  0  0  0  0  0  0  0
   21.2661   -9.5809  -13.0853 C   0  0  0  0  0  0  0  0  0  0  0  0
   22.2918   -9.3748  -14.2585 C   0  0  1  0  0  0  0  0  0  0  0  0
   23.6074   -9.8597  -13.6904 C   0  0  0  0  0  0  0  0  0  0  0  0
   21.7917  -10.1183  -15.4429 C   0  0  0  0  0  0  0  0  0  0  0  0
   20.6036   -9.6430  -16.1482 C   0  0  2  0  0  0  0  0  0  0  0  0
   20.4878  -10.3730  -17.4530 N   0  0  0  0  0  0  0  0  0  0  0  0
   20.3599   -8.2607  -16.4561 C   0  0  0  0  0  0  0  0  0  0  0  0
   21.0639   -7.6374  -17.2893 O   0  0  0  0  0  0  0  0  0  0  0  0
   17.6711   -5.7448  -15.8466 C   0  0  0  0  0  0  0  0  0  0  0  0
   19.1153   -6.0847  -16.2213 C   0  0  2  0  0  0  0  0  0  0  0  0
   19.3163   -7.4706  -15.8609 N   0  0  0  0  0  0  0  0  0  0  0  0
   20.0770   -5.1911  -15.5212 C   0  0  0  0  0  0  0  0  0  0  0  0
   20.5219   -4.0264  -16.1304 O   0  0  0  0  0  0  0  0  0  0  0  0
   20.5239   -5.4393  -14.3716 O   0  0  0  0  0  0  0  0  0  0  0  0
  2 10  1  0
  2  1  1  1
  3  2  1  0
  4  3  1  0
  5  4  2  0
  6  5  1  0
  7  6  2  0
  7  8  1  0
  8  9  2  0
  9  4  1  0
 10 11  2  0
 13 12  1  1
 14 13  1  0
 15 13  1  0
 16 15  1  6
 17 16  1  0
 17 10  1  0
 18 22  1  0
 18 16  1  0
 19 18  2  0
 21 20  1  1
 21 22  1  0
 23 21  1  0
 23 24  1  0
 25 23  2  0
M  END
$$$$
