FLA.pdb
     RDKit          3D

 25 25  0  0  1  0  0  0  0  0999 V2000
   28.1492  -20.7746   -8.5319 N   0  0  0  0  0  0  0  0  0  0  0  0
   26.7212  -20.6149   -8.3886 C   0  0  1  0  0  0  0  0  0  0  0  0
   26.3742  -19.6049   -7.3188 C   0  0  0  0  0  0  0  0  0  0  0  0
   27.3165  -19.7658   -6.1921 C   0  0  0  0  0  0  0  0  0  0  0  0
   27.0946  -20.7041   -5.2184 C   0  0  0  0  0  0  0  0  0  0  0  0
   27.9768  -20.8643   -4.1509 C   0  0  0  0  0  0  0  0  0  0  0  0
   29.0938  -20.0388   -4.1046 C   0  0  0  0  0  0  0  0  0  0  0  0
   29.3364  -19.0969   -5.0625 C   0  0  0  0  0  0  0  0  0  0  0  0
   28.4308  -18.9709   -6.1095 C   0  0  0  0  0  0  0  0  0  0  0  0
   26.1537  -20.2453   -9.7054 C   0  0  0  0  0  0  0  0  0  0  0  0
   26.2475  -19.0600  -10.1251 O   0  0  0  0  0  0  0  0  0  0  0  0
   28.3794  -21.6692  -13.8680 C   0  0  0  0  0  0  0  0  0  0  0  0
   27.4905  -20.7868  -12.9182 C   0  0  1  0  0  0  0  0  0  0  0  0
   27.5560  -19.4038  -13.5279 C   0  0  0  0  0  0  0  0  0  0  0  0
   26.1378  -21.3968  -12.8560 C   0  0  0  0  0  0  0  0  0  0  0  0
   25.1297  -20.8342  -11.9603 C   0  0  2  0  0  0  0  0  0  0  0  0
   25.4922  -21.1738  -10.5453 N   0  0  0  0  0  0  0  0  0  0  0  0
   23.7231  -21.1049  -12.0740 C   0  0  0  0  0  0  0  0  0  0  0  0
   23.2036  -22.1224  -11.5512 O   0  0  0  0  0  0  0  0  0  0  0  0
   20.5524  -19.7641  -12.1276 C   0  0  0  0  0  0  0  0  0  0  0  0
   21.4219  -20.6724  -12.9997 C   0  0  2  0  0  0  0  0  0  0  0  0
   22.7913  -20.2650  -12.7769 N   0  0  0  0  0  0  0  0  0  0  0  0
   21.0437  -20.5628  -14.4345 C   0  0  0  0  0  0  0  0  0  0  0  0
   19.8817  -21.1615  -14.9003 O   0  0  0  0  0  0  0  0  0  0  0  0
   21.7397  -19.9382  -15.2761 O   0  0  0  0  0  0  0  0  0  0  0  0
  2 10  1  0
  2  1  1  6
  3  2  1  0
  4  3  1  0
  5  4  2  0
  6  5  1  0
  7  6  2  0
  7  8  1  0
  8  9  2  0
  9  4  1  0
 10 11  2  0
 13 12  1  6
 14 13  1  0
 15 13  1  0
 16 15  1  6
 17 16  1  0
 17 10  1  0
 18 22  1  0
 18 16  1  0
 19 18  2  0
 21 20  1  1
 21 22  1  0
 23 21  1  0
 23 24  1  0
 25 23  2  0
M  END
$$$$
