FLA.pdb
     RDKit          3D

 25 25  0  0  1  0  0  0  0  0999 V2000
   26.6098  -18.2889   -7.8621 N   0  0  0  0  0  0  0  0  0  0  0  0
   26.9453  -19.6418   -8.2396 C   0  0  1  0  0  0  0  0  0  0  0  0
   26.6949  -20.6172   -7.1123 C   0  0  0  0  0  0  0  0  0  0  0  0
   27.6175  -20.3042   -6.0014 C   0  0  0  0  0  0  0  0  0  0  0  0
   28.9740  -20.4122   -6.1623 C   0  0  0  0  0  0  0  0  0  0  0  0
   29.8536  -20.1197   -5.1210 C   0  0  0  0  0  0  0  0  0  0  0  0
   29.3093  -19.7132   -3.9087 C   0  0  0  0  0  0  0  0  0  0  0  0
   27.9616  -19.5981   -3.7240 C   0  0  0  0  0  0  0  0  0  0  0  0
   27.1207  -19.8997   -4.7890 C   0  0  0  0  0  0  0  0  0  0  0  0
   26.1814  -19.9943   -9.4580 C   0  0  0  0  0  0  0  0  0  0  0  0
   25.2237  -19.2672   -9.8375 O   0  0  0  0  0  0  0  0  0  0  0  0
   30.1757  -22.0479  -12.5152 C   0  0  0  0  0  0  0  0  0  0  0  0
   29.0548  -21.0516  -12.0443 C   0  0  1  0  0  0  0  0  0  0  0  0
   29.2675  -19.8225  -12.9002 C   0  0  0  0  0  0  0  0  0  0  0  0
   27.7417  -21.7265  -12.2062 C   0  0  0  0  0  0  0  0  0  0  0  0
   26.5246  -21.0645  -11.7421 C   0  0  2  0  0  0  0  0  0  0  0  0
   26.4731  -21.1348  -10.2451 N   0  0  0  0  0  0  0  0  0  0  0  0
   25.2057  -21.4168  -12.1908 C   0  0  0  0  0  0  0  0  0  0  0  0
   24.9822  -21.7514  -13.3809 O   0  0  0  0  0  0  0  0  0  0  0  0
   21.7985  -21.8957  -10.6861 C   0  0  0  0  0  0  0  0  0  0  0  0
   22.7187  -21.6649  -11.8868 C   0  0  2  0  0  0  0  0  0  0  0  0
   24.0393  -21.4229  -11.3498 N   0  0  0  0  0  0  0  0  0  0  0  0
   22.2458  -20.5229  -12.7149 C   0  0  0  0  0  0  0  0  0  0  0  0
   21.0925  -20.6410  -13.4776 O   0  0  0  0  0  0  0  0  0  0  0  0
   22.8513  -19.4212  -12.7645 O   0  0  0  0  0  0  0  0  0  0  0  0
  2 10  1  0
  2  1  1  1
  3  2  1  0
  4  3  1  0
  5  4  2  0
  6  5  1  0
  7  6  2  0
  7  8  1  0
  8  9  2  0
  9  4  1  0
 10 11  2  0
 13 12  1  6
 14 13  1  0
 15 13  1  0
 16 15  1  6
 17 16  1  0
 17 10  1  0
 18 22  1  0
 18 16  1  0
 19 18  2  0
 21 20  1  1
 21 22  1  0
 23 21  1  0
 23 24  1  0
 25 23  2  0
M  END
$$$$
