FLA.pdb
     RDKit          3D

 25 25  0  0  1  0  0  0  0  0999 V2000
   27.5604  -19.2079  -15.3612 N   0  0  0  0  0  0  0  0  0  0  0  0
   26.6503  -18.6027  -14.4173 C   0  0  1  0  0  0  0  0  0  0  0  0
   25.6538  -17.6952  -15.1018 C   0  0  0  0  0  0  0  0  0  0  0  0
   26.3819  -16.5547  -15.6956 C   0  0  0  0  0  0  0  0  0  0  0  0
   26.4124  -16.3700  -17.0530 C   0  0  0  0  0  0  0  0  0  0  0  0
   27.0964  -15.2978  -17.6240 C   0  0  0  0  0  0  0  0  0  0  0  0
   27.7495  -14.4177  -16.7696 C   0  0  0  0  0  0  0  0  0  0  0  0
   27.7335  -14.5805  -15.4143 C   0  0  0  0  0  0  0  0  0  0  0  0
   27.0393  -15.6634  -14.8871 C   0  0  0  0  0  0  0  0  0  0  0  0
   25.9839  -19.6787  -13.6488 C   0  0  0  0  0  0  0  0  0  0  0  0
   25.4526  -20.6510  -14.2508 O   0  0  0  0  0  0  0  0  0  0  0  0
   27.5492  -21.0143   -8.4906 C   0  0  0  0  0  0  0  0  0  0  0  0
   27.2116  -20.8886  -10.0206 C   0  0  1  0  0  0  0  0  0  0  0  0
   27.9462  -22.0469  -10.6589 C   0  0  0  0  0  0  0  0  0  0  0  0
   25.7340  -20.9064  -10.1688 C   0  0  0  0  0  0  0  0  0  0  0  0
   25.1360  -20.7277  -11.4900 C   0  0  2  0  0  0  0  0  0  0  0  0
   25.9066  -19.6788  -12.2349 N   0  0  0  0  0  0  0  0  0  0  0  0
   23.7502  -20.4113  -11.7008 C   0  0  0  0  0  0  0  0  0  0  0  0
   23.3980  -19.4098  -12.3726 O   0  0  0  0  0  0  0  0  0  0  0  0
   21.3848  -21.4512  -13.1809 C   0  0  0  0  0  0  0  0  0  0  0  0
   21.3147  -21.0496  -11.7060 C   0  0  2  0  0  0  0  0  0  0  0  0
   22.6552  -21.1847  -11.1807 N   0  0  0  0  0  0  0  0  0  0  0  0
   20.3463  -21.9001  -10.9626 C   0  0  0  0  0  0  0  0  0  0  0  0
   18.9830  -21.7675  -11.1849 O   0  0  0  0  0  0  0  0  0  0  0  0
   20.7047  -22.7600  -10.1171 O   0  0  0  0  0  0  0  0  0  0  0  0
  2 10  1  0
  2  1  1  6
  3  2  1  0
  4  3  1  0
  5  4  2  0
  6  5  1  0
  7  6  2  0
  7  8  1  0
  8  9  2  0
  9  4  1  0
 10 11  2  0
 13 12  1  1
 14 13  1  0
 15 13  1  0
 16 15  1  1
 17 16  1  0
 17 10  1  0
 18 22  1  0
 18 16  1  0
 19 18  2  0
 21 20  1  6
 21 22  1  0
 23 21  1  0
 23 24  1  0
 25 23  2  0
M  END
$$$$
