FLA.pdb
     RDKit          3D

 25 25  0  0  1  0  0  0  0  0999 V2000
   23.7111  -19.5416  -13.1438 N   0  0  0  0  0  0  0  0  0  0  0  0
   24.6692  -20.5296  -12.7065 C   0  0  1  0  0  0  0  0  0  0  0  0
   24.0052  -21.8462  -12.3740 C   0  0  0  0  0  0  0  0  0  0  0  0
   23.2410  -21.6877  -11.1194 C   0  0  0  0  0  0  0  0  0  0  0  0
   23.8812  -21.4495   -9.9314 C   0  0  0  0  0  0  0  0  0  0  0  0
   23.1703  -21.2987   -8.7418 C   0  0  0  0  0  0  0  0  0  0  0  0
   21.7853  -21.3978   -8.7982 C   0  0  0  0  0  0  0  0  0  0  0  0
   21.1249  -21.6346   -9.9692 C   0  0  0  0  0  0  0  0  0  0  0  0
   21.8729  -21.7786  -11.1321 C   0  0  0  0  0  0  0  0  0  0  0  0
   25.7037  -20.6794  -13.7552 C   0  0  0  0  0  0  0  0  0  0  0  0
   25.5795  -20.0797  -14.8575 O   0  0  0  0  0  0  0  0  0  0  0  0
   30.7815  -21.2230  -11.8500 C   0  0  0  0  0  0  0  0  0  0  0  0
   29.4040  -20.8079  -12.4833 C   0  0  1  0  0  0  0  0  0  0  0  0
   29.4755  -19.2993  -12.5708 C   0  0  0  0  0  0  0  0  0  0  0  0
   29.2603  -21.5194  -13.7790 C   0  0  0  0  0  0  0  0  0  0  0  0
   28.0164  -21.4011  -14.5365 C   0  0  2  0  0  0  0  0  0  0  0  0
   26.8588  -21.4810  -13.5867 N   0  0  0  0  0  0  0  0  0  0  0  0
   27.6709  -22.2557  -15.6390 C   0  0  0  0  0  0  0  0  0  0  0  0
   28.4355  -22.4002  -16.6253 O   0  0  0  0  0  0  0  0  0  0  0  0
   25.3571  -25.0339  -16.3581 C   0  0  0  0  0  0  0  0  0  0  0  0
   26.1465  -23.8305  -16.8780 C   0  0  2  0  0  0  0  0  0  0  0  0
   26.4508  -23.0117  -15.7257 N   0  0  0  0  0  0  0  0  0  0  0  0
   25.3674  -23.0758  -17.8964 C   0  0  0  0  0  0  0  0  0  0  0  0
   25.2509  -23.5620  -19.1909 O   0  0  0  0  0  0  0  0  0  0  0  0
   24.7899  -21.9873  -17.6425 O   0  0  0  0  0  0  0  0  0  0  0  0
  2 10  1  0
  2  1  1  6
  3  2  1  0
  4  3  1  0
  5  4  2  0
  6  5  1  0
  7  6  2  0
  7  8  1  0
  8  9  2  0
  9  4  1  0
 10 11  2  0
 13 12  1  6
 14 13  1  0
 15 13  1  0
 16 15  1  1
 17 16  1  0
 17 10  1  0
 18 22  1  0
 18 16  1  0
 19 18  2  0
 21 20  1  1
 21 22  1  0
 23 21  1  0
 23 24  1  0
 25 23  2  0
M  END
$$$$
