FLA.pdb
     RDKit          3D

 25 25  0  0  1  0  0  0  0  0999 V2000
   22.6729  -10.7409  -16.6735 N   0  0  0  0  0  0  0  0  0  0  0  0
   21.5545   -9.8793  -16.9771 C   0  0  1  0  0  0  0  0  0  0  0  0
   20.2342  -10.5357  -16.6445 C   0  0  0  0  0  0  0  0  0  0  0  0
   19.9937  -11.6304  -17.6074 C   0  0  0  0  0  0  0  0  0  0  0  0
   20.2507  -12.9333  -17.2693 C   0  0  0  0  0  0  0  0  0  0  0  0
   20.0278  -13.9738  -18.1699 C   0  0  0  0  0  0  0  0  0  0  0  0
   19.5344  -13.6473  -19.4273 C   0  0  0  0  0  0  0  0  0  0  0  0
   19.2706  -12.3572  -19.7874 C   0  0  0  0  0  0  0  0  0  0  0  0
   19.5074  -11.3505  -18.8585 C   0  0  0  0  0  0  0  0  0  0  0  0
   21.7355   -8.5998  -16.2542 C   0  0  0  0  0  0  0  0  0  0  0  0
   22.2974   -8.5841  -15.1255 O   0  0  0  0  0  0  0  0  0  0  0  0
   20.5285   -4.6226  -18.5833 C   0  0  0  0  0  0  0  0  0  0  0  0
   21.9956   -5.1245  -18.3256 C   0  0  1  0  0  0  0  0  0  0  0  0
   22.8594   -4.1683  -19.1181 C   0  0  0  0  0  0  0  0  0  0  0  0
   22.2280   -5.1334  -16.8588 C   0  0  0  0  0  0  0  0  0  0  0  0
   21.4976   -6.0767  -16.0151 C   0  0  2  0  0  0  0  0  0  0  0  0
   21.3011   -7.3558  -16.7728 N   0  0  0  0  0  0  0  0  0  0  0  0
   20.2262   -5.7862  -15.4116 C   0  0  0  0  0  0  0  0  0  0  0  0
   20.0901   -4.8571  -14.5770 O   0  0  0  0  0  0  0  0  0  0  0  0
   16.6783   -6.3056  -16.1275 C   0  0  0  0  0  0  0  0  0  0  0  0
   17.7618   -6.1598  -15.0568 C   0  0  2  0  0  0  0  0  0  0  0  0
   19.0138   -6.5069  -15.6914 N   0  0  0  0  0  0  0  0  0  0  0  0
   17.4806   -7.0325  -13.8850 C   0  0  0  0  0  0  0  0  0  0  0  0
   16.3324   -6.8421  -13.1294 O   0  0  0  0  0  0  0  0  0  0  0  0
   18.2491   -7.9628  -13.5291 O   0  0  0  0  0  0  0  0  0  0  0  0
  2 10  1  0
  2  1  1  1
  3  2  1  0
  4  3  1  0
  5  4  2  0
  6  5  1  0
  7  6  2  0
  7  8  1  0
  8  9  2  0
  9  4  1  0
 10 11  2  0
 13 12  1  1
 14 13  1  0
 15 13  1  0
 16 15  1  6
 17 16  1  0
 17 10  1  0
 18 22  1  0
 18 16  1  0
 19 18  2  0
 21 20  1  6
 21 22  1  0
 23 21  1  0
 23 24  1  0
 25 23  2  0
M  END
$$$$
