FLA.pdb
     RDKit          3D

 25 25  0  0  1  0  0  0  0  0999 V2000
   26.6587  -21.5419   -8.5168 N   0  0  0  0  0  0  0  0  0  0  0  0
   25.9884  -20.2687   -8.6397 C   0  0  1  0  0  0  0  0  0  0  0  0
   26.8126  -19.1425   -8.0589 C   0  0  0  0  0  0  0  0  0  0  0  0
   27.3169  -19.5590   -6.7340 C   0  0  0  0  0  0  0  0  0  0  0  0
   26.4552  -19.9721   -5.7518 C   0  0  0  0  0  0  0  0  0  0  0  0
   26.9200  -20.3670   -4.4982 C   0  0  0  0  0  0  0  0  0  0  0  0
   28.2909  -20.3285   -4.2743 C   0  0  0  0  0  0  0  0  0  0  0  0
   29.1691  -19.9208   -5.2367 C   0  0  0  0  0  0  0  0  0  0  0  0
   28.6628  -19.5356   -6.4727 C   0  0  0  0  0  0  0  0  0  0  0  0
   25.6663  -20.0415  -10.0669 C   0  0  0  0  0  0  0  0  0  0  0  0
   25.2365  -18.9190  -10.4482 O   0  0  0  0  0  0  0  0  0  0  0  0
   29.3905  -21.2002  -13.8754 C   0  0  0  0  0  0  0  0  0  0  0  0
   28.2709  -20.4093  -13.1061 C   0  0  1  0  0  0  0  0  0  0  0  0
   28.1934  -19.0812  -13.8265 C   0  0  0  0  0  0  0  0  0  0  0  0
   27.0306  -21.2259  -13.1315 C   0  0  0  0  0  0  0  0  0  0  0  0
   25.8091  -20.7076  -12.5196 C   0  0  2  0  0  0  0  0  0  0  0  0
   25.8175  -21.0417  -11.0578 N   0  0  0  0  0  0  0  0  0  0  0  0
   24.4875  -21.0309  -12.9820 C   0  0  0  0  0  0  0  0  0  0  0  0
   24.1210  -20.7800  -14.1572 O   0  0  0  0  0  0  0  0  0  0  0  0
   21.8325  -23.3820  -12.2282 C   0  0  0  0  0  0  0  0  0  0  0  0
   22.1666  -21.9650  -12.6996 C   0  0  2  0  0  0  0  0  0  0  0  0
   23.4772  -21.6566  -12.1724 N   0  0  0  0  0  0  0  0  0  0  0  0
   21.1447  -20.9887  -12.2345 C   0  0  0  0  0  0  0  0  0  0  0  0
   21.4992  -19.9610  -11.3721 O   0  0  0  0  0  0  0  0  0  0  0  0
   19.9391  -21.0438  -12.5900 O   0  0  0  0  0  0  0  0  0  0  0  0
  2 10  1  0
  2  1  1  6
  3  2  1  0
  4  3  1  0
  5  4  2  0
  6  5  1  0
  7  6  2  0
  7  8  1  0
  8  9  2  0
  9  4  1  0
 10 11  2  0
 13 12  1  6
 14 13  1  0
 15 13  1  0
 16 15  1  6
 17 16  1  0
 17 10  1  0
 18 22  1  0
 18 16  1  0
 19 18  2  0
 21 20  1  1
 21 22  1  0
 23 21  1  0
 23 24  1  0
 25 23  2  0
M  END
$$$$
