FLA.pdb
     RDKit          3D

 25 25  0  0  1  0  0  0  0  0999 V2000
   19.3337  -27.7120  -10.1753 N   0  0  0  0  0  0  0  0  0  0  0  0
   18.6156  -26.5904   -9.6170 C   0  0  1  0  0  0  0  0  0  0  0  0
   17.7849  -25.8803  -10.6613 C   0  0  0  0  0  0  0  0  0  0  0  0
   18.6937  -25.2429  -11.6365 C   0  0  0  0  0  0  0  0  0  0  0  0
   19.3021  -24.0480  -11.3539 C   0  0  0  0  0  0  0  0  0  0  0  0
   20.1611  -23.4376  -12.2665 C   0  0  0  0  0  0  0  0  0  0  0  0
   20.3825  -24.0817  -13.4779 C   0  0  0  0  0  0  0  0  0  0  0  0
   19.7882  -25.2723  -13.7824 C   0  0  0  0  0  0  0  0  0  0  0  0
   18.9387  -25.8460  -12.8434 C   0  0  0  0  0  0  0  0  0  0  0  0
   17.7904  -27.0744   -8.4869 C   0  0  0  0  0  0  0  0  0  0  0  0
   17.4667  -28.2909   -8.4145 O   0  0  0  0  0  0  0  0  0  0  0  0
   18.9861  -26.7639   -3.2953 C   0  0  0  0  0  0  0  0  0  0  0  0
   18.4487  -27.2860   -4.6772 C   0  0  1  0  0  0  0  0  0  0  0  0
   18.1678  -28.7527   -4.4357 C   0  0  0  0  0  0  0  0  0  0  0  0
   17.2726  -26.4614   -5.0548 C   0  0  0  0  0  0  0  0  0  0  0  0
   16.5472  -26.7559   -6.2885 C   0  0  2  0  0  0  0  0  0  0  0  0
   17.3301  -26.2246   -7.4519 N   0  0  0  0  0  0  0  0  0  0  0  0
   15.1863  -26.3603   -6.5261 C   0  0  0  0  0  0  0  0  0  0  0  0
   14.2529  -26.7225   -5.7672 O   0  0  0  0  0  0  0  0  0  0  0  0
   13.2861  -24.8016   -9.3464 C   0  0  0  0  0  0  0  0  0  0  0  0
   13.3640  -25.2985   -7.9012 C   0  0  2  0  0  0  0  0  0  0  0  0
   14.7636  -25.5335   -7.6240 N   0  0  0  0  0  0  0  0  0  0  0  0
   12.5530  -26.5314   -7.7120 C   0  0  0  0  0  0  0  0  0  0  0  0
   11.1707  -26.4848   -7.8248 O   0  0  0  0  0  0  0  0  0  0  0  0
   13.0657  -27.6495   -7.4473 O   0  0  0  0  0  0  0  0  0  0  0  0
  2 10  1  0
  2  1  1  6
  3  2  1  0
  4  3  1  0
  5  4  2  0
  6  5  1  0
  7  6  2  0
  7  8  1  0
  8  9  2  0
  9  4  1  0
 10 11  2  0
 13 12  1  1
 14 13  1  0
 15 13  1  0
 16 15  1  1
 17 16  1  0
 17 10  1  0
 18 22  1  0
 18 16  1  0
 19 18  2  0
 21 20  1  6
 21 22  1  0
 23 21  1  0
 23 24  1  0
 25 23  2  0
M  END
$$$$
