FLA.pdb
     RDKit          3D

 25 25  0  0  1  0  0  0  0  0999 V2000
   26.4089  -23.8845  -16.9485 N   0  0  0  0  0  0  0  0  0  0  0  0
   25.8162  -22.5842  -16.7404 C   0  0  1  0  0  0  0  0  0  0  0  0
   24.4946  -22.4483  -17.4613 C   0  0  0  0  0  0  0  0  0  0  0  0
   24.7564  -22.3162  -18.9095 C   0  0  0  0  0  0  0  0  0  0  0  0
   25.2003  -21.1328  -19.4387 C   0  0  0  0  0  0  0  0  0  0  0  0
   25.4502  -20.9970  -20.8035 C   0  0  0  0  0  0  0  0  0  0  0  0
   25.2341  -22.1044  -21.6146 C   0  0  0  0  0  0  0  0  0  0  0  0
   24.7923  -23.2939  -21.1110 C   0  0  0  0  0  0  0  0  0  0  0  0
   24.5557  -23.3855  -19.7442 C   0  0  0  0  0  0  0  0  0  0  0  0
   25.6795  -22.3562  -15.2837 C   0  0  0  0  0  0  0  0  0  0  0  0
   25.3456  -23.3047  -14.5229 O   0  0  0  0  0  0  0  0  0  0  0  0
   29.3604  -19.5607  -12.4067 C   0  0  0  0  0  0  0  0  0  0  0  0
   28.3448  -20.6795  -12.8400 C   0  0  1  0  0  0  0  0  0  0  0  0
   28.6388  -21.8304  -11.9032 C   0  0  0  0  0  0  0  0  0  0  0  0
   26.9737  -20.1153  -12.7522 C   0  0  0  0  0  0  0  0  0  0  0  0
   25.8319  -20.9143  -13.1914 C   0  0  2  0  0  0  0  0  0  0  0  0
   25.9090  -21.0971  -14.6779 N   0  0  0  0  0  0  0  0  0  0  0  0
   24.4647  -20.5689  -12.9153 C   0  0  0  0  0  0  0  0  0  0  0  0
   24.0594  -20.3700  -11.7429 O   0  0  0  0  0  0  0  0  0  0  0  0
   21.5930  -19.2483  -14.8550 C   0  0  0  0  0  0  0  0  0  0  0  0
   22.1245  -19.9373  -13.5963 C   0  0  2  0  0  0  0  0  0  0  0  0
   23.4484  -20.4192  -13.9216 N   0  0  0  0  0  0  0  0  0  0  0  0
   21.2272  -21.0449  -13.1701 C   0  0  0  0  0  0  0  0  0  0  0  0
   19.9612  -20.7690  -12.6732 O   0  0  0  0  0  0  0  0  0  0  0  0
   21.5617  -22.2559  -13.2367 O   0  0  0  0  0  0  0  0  0  0  0  0
  2 10  1  0
  2  1  1  1
  3  2  1  0
  4  3  1  0
  5  4  2  0
  6  5  1  0
  7  6  2  0
  7  8  1  0
  8  9  2  0
  9  4  1  0
 10 11  2  0
 13 12  1  1
 14 13  1  0
 15 13  1  0
 16 15  1  6
 17 16  1  0
 17 10  1  0
 18 22  1  0
 18 16  1  0
 19 18  2  0
 21 20  1  6
 21 22  1  0
 23 21  1  0
 23 24  1  0
 25 23  2  0
M  END
$$$$
