FLA.pdb
     RDKit          3D

 25 25  0  0  1  0  0  0  0  0999 V2000
   28.3335  -20.9237  -14.3576 N   0  0  0  0  0  0  0  0  0  0  0  0
   26.9824  -20.5535  -14.0070 C   0  0  1  0  0  0  0  0  0  0  0  0
   25.9975  -20.9366  -15.0877 C   0  0  0  0  0  0  0  0  0  0  0  0
   24.6870  -20.3325  -14.7699 C   0  0  0  0  0  0  0  0  0  0  0  0
   23.7320  -21.0421  -14.0901 C   0  0  0  0  0  0  0  0  0  0  0  0
   22.4922  -20.4823  -13.7852 C   0  0  0  0  0  0  0  0  0  0  0  0
   22.2536  -19.1758  -14.1942 C   0  0  0  0  0  0  0  0  0  0  0  0
   23.1889  -18.4487  -14.8726 C   0  0  0  0  0  0  0  0  0  0  0  0
   24.4119  -19.0458  -15.1558 C   0  0  0  0  0  0  0  0  0  0  0  0
   26.6465  -21.1738  -12.7052 C   0  0  0  0  0  0  0  0  0  0  0  0
   26.7067  -22.4256  -12.5659 O   0  0  0  0  0  0  0  0  0  0  0  0
   26.3481  -20.6064   -6.8469 C   0  0  0  0  0  0  0  0  0  0  0  0
   26.1598  -19.6619   -8.0892 C   0  0  1  0  0  0  0  0  0  0  0  0
   26.7108  -18.3301   -7.6295 C   0  0  0  0  0  0  0  0  0  0  0  0
   26.8565  -20.2793   -9.2464 C   0  0  0  0  0  0  0  0  0  0  0  0
   26.0933  -21.0525  -10.2234 C   0  0  2  0  0  0  0  0  0  0  0  0
   26.2498  -20.4199  -11.5740 N   0  0  0  0  0  0  0  0  0  0  0  0
   24.6915  -21.3400  -10.0919 C   0  0  0  0  0  0  0  0  0  0  0  0
   24.2701  -22.2126   -9.2923 O   0  0  0  0  0  0  0  0  0  0  0  0
   21.5615  -19.5396  -10.8185 C   0  0  0  0  0  0  0  0  0  0  0  0
   22.2567  -20.8720  -10.5301 C   0  0  2  0  0  0  0  0  0  0  0  0
   23.6560  -20.6789  -10.8392 N   0  0  0  0  0  0  0  0  0  0  0  0
   21.6639  -21.9732  -11.3360 C   0  0  0  0  0  0  0  0  0  0  0  0
   20.3247  -22.3059  -11.1896 O   0  0  0  0  0  0  0  0  0  0  0  0
   22.3291  -22.6412  -12.1692 O   0  0  0  0  0  0  0  0  0  0  0  0
  2 10  1  0
  2  1  1  6
  3  2  1  0
  4  3  1  0
  5  4  2  0
  6  5  1  0
  7  6  2  0
  7  8  1  0
  8  9  2  0
  9  4  1  0
 10 11  2  0
 13 12  1  1
 14 13  1  0
 15 13  1  0
 16 15  1  1
 17 16  1  0
 17 10  1  0
 18 22  1  0
 18 16  1  0
 19 18  2  0
 21 20  1  6
 21 22  1  0
 23 21  1  0
 23 24  1  0
 25 23  2  0
M  END
$$$$
