FLA.pdb
     RDKit          3D

 25 25  0  0  1  0  0  0  0  0999 V2000
   27.5456  -20.2947  -15.6413 N   0  0  0  0  0  0  0  0  0  0  0  0
   26.6083  -19.4549  -14.9330 C   0  0  1  0  0  0  0  0  0  0  0  0
   25.7337  -18.6668  -15.8811 C   0  0  0  0  0  0  0  0  0  0  0  0
   26.4973  -17.5008  -16.3714 C   0  0  0  0  0  0  0  0  0  0  0  0
   26.7547  -16.4335  -15.5514 C   0  0  0  0  0  0  0  0  0  0  0  0
   27.4739  -15.3282  -16.0035 C   0  0  0  0  0  0  0  0  0  0  0  0
   27.9239  -15.3422  -17.3182 C   0  0  0  0  0  0  0  0  0  0  0  0
   27.6802  -16.3935  -18.1543 C   0  0  0  0  0  0  0  0  0  0  0  0
   26.9591  -17.4754  -17.6623 C   0  0  0  0  0  0  0  0  0  0  0  0
   25.8109  -20.3049  -14.0196 C   0  0  0  0  0  0  0  0  0  0  0  0
   25.6626  -21.5328  -14.2651 O   0  0  0  0  0  0  0  0  0  0  0  0
   26.9370  -21.9039  -10.6980 C   0  0  0  0  0  0  0  0  0  0  0  0
   25.6081  -21.6356   -9.9023 C   0  0  1  0  0  0  0  0  0  0  0  0
   26.0716  -21.3578   -8.4892 C   0  0  0  0  0  0  0  0  0  0  0  0
   24.8879  -20.5224  -10.5715 C   0  0  0  0  0  0  0  0  0  0  0  0
   24.3987  -20.6935  -11.9377 C   0  0  2  0  0  0  0  0  0  0  0  0
   25.1868  -19.8033  -12.8517 N   0  0  0  0  0  0  0  0  0  0  0  0
   23.0244  -20.5189  -12.3193 C   0  0  0  0  0  0  0  0  0  0  0  0
   22.0869  -21.0308  -11.6579 O   0  0  0  0  0  0  0  0  0  0  0  0
   21.0066  -18.5095  -14.7291 C   0  0  0  0  0  0  0  0  0  0  0  0
   21.2172  -19.7860  -13.9118 C   0  0  2  0  0  0  0  0  0  0  0  0
   22.5917  -19.7628  -13.4634 N   0  0  0  0  0  0  0  0  0  0  0  0
   20.9255  -20.9983  -14.7234 C   0  0  0  0  0  0  0  0  0  0  0  0
   19.6184  -21.3140  -15.0662 O   0  0  0  0  0  0  0  0  0  0  0  0
   21.8253  -21.7783  -15.1295 O   0  0  0  0  0  0  0  0  0  0  0  0
  2 10  1  0
  2  1  1  6
  3  2  1  0
  4  3  1  0
  5  4  2  0
  6  5  1  0
  7  6  2  0
  7  8  1  0
  8  9  2  0
  9  4  1  0
 10 11  2  0
 13 12  1  6
 14 13  1  0
 15 13  1  0
 16 15  1  1
 17 16  1  0
 17 10  1  0
 18 22  1  0
 18 16  1  0
 19 18  2  0
 21 20  1  6
 21 22  1  0
 23 21  1  0
 23 24  1  0
 25 23  2  0
M  END
$$$$
