FLA.pdb
     RDKit          3D

 25 25  0  0  1  0  0  0  0  0999 V2000
   26.0705  -21.6622  -17.1865 N   0  0  0  0  0  0  0  0  0  0  0  0
   25.1657  -20.6187  -16.7648 C   0  0  1  0  0  0  0  0  0  0  0  0
   24.3155  -20.1171  -17.9096 C   0  0  0  0  0  0  0  0  0  0  0  0
   25.0697  -19.0770  -18.6394 C   0  0  0  0  0  0  0  0  0  0  0  0
   25.8116  -19.3935  -19.7472 C   0  0  0  0  0  0  0  0  0  0  0  0
   26.5272  -18.4203  -20.4432 C   0  0  0  0  0  0  0  0  0  0  0  0
   26.4645  -17.1129  -19.9765 C   0  0  0  0  0  0  0  0  0  0  0  0
   25.7326  -16.7730  -18.8754 C   0  0  0  0  0  0  0  0  0  0  0  0
   25.0342  -17.7748  -18.2113 C   0  0  0  0  0  0  0  0  0  0  0  0
   24.3427  -21.1321  -15.6461 C   0  0  0  0  0  0  0  0  0  0  0  0
   23.8383  -22.2861  -15.7086 O   0  0  0  0  0  0  0  0  0  0  0  0
   25.7986  -20.5904  -10.4613 C   0  0  0  0  0  0  0  0  0  0  0  0
   25.2837  -21.1933  -11.8186 C   0  0  1  0  0  0  0  0  0  0  0  0
   25.3466  -22.6900  -11.6072 C   0  0  0  0  0  0  0  0  0  0  0  0
   23.9316  -20.6394  -12.0846 C   0  0  0  0  0  0  0  0  0  0  0  0
   23.2628  -20.9366  -13.3493 C   0  0  2  0  0  0  0  0  0  0  0  0
   24.0817  -20.3796  -14.4753 N   0  0  0  0  0  0  0  0  0  0  0  0
   21.9051  -20.5651  -13.6388 C   0  0  0  0  0  0  0  0  0  0  0  0
   21.5495  -19.3616  -13.6968 O   0  0  0  0  0  0  0  0  0  0  0  0
   18.7386  -22.1622  -14.7898 C   0  0  0  0  0  0  0  0  0  0  0  0
   19.4655  -21.0798  -13.9889 C   0  0  2  0  0  0  0  0  0  0  0  0
   20.8440  -21.5038  -13.8849 N   0  0  0  0  0  0  0  0  0  0  0  0
   18.8460  -20.8951  -12.6489 C   0  0  0  0  0  0  0  0  0  0  0  0
   19.4129  -21.4846  -11.5278 O   0  0  0  0  0  0  0  0  0  0  0  0
   17.8043  -20.2130  -12.4687 O   0  0  0  0  0  0  0  0  0  0  0  0
  2 10  1  0
  2  1  1  6
  3  2  1  0
  4  3  1  0
  5  4  2  0
  6  5  1  0
  7  6  2  0
  7  8  1  0
  8  9  2  0
  9  4  1  0
 10 11  2  0
 13 12  1  1
 14 13  1  0
 15 13  1  0
 16 15  1  1
 17 16  1  0
 17 10  1  0
 18 22  1  0
 18 16  1  0
 19 18  2  0
 21 20  1  6
 21 22  1  0
 23 21  1  0
 23 24  1  0
 25 23  2  0
M  END
$$$$
