WLN.pdb
     RDKit          3D

 31 32  0  0  1  0  0  0  0  0999 V2000
    6.9187  -19.0179   26.5464 N   0  0  0  0  0  0  0  0  0  0  0  0
    7.6562  -17.7683   26.5443 C   0  0  1  0  0  0  0  0  0  0  0  0
    9.1224  -18.1420   26.4922 C   0  0  0  0  0  0  0  0  0  0  0  0
    9.7555  -17.6333   27.7466 C   0  0  0  0  0  0  0  0  0  0  0  0
   10.0593  -18.3491   28.9016 C   0  0  0  0  0  0  0  0  0  0  0  0
   10.6174  -17.5127   29.7848 N   0  0  0  0  0  0  0  0  0  0  0  0
   10.6991  -16.2749   29.2722 C   0  0  0  0  0  0  0  0  0  0  0  0
   11.1750  -15.0616   29.7374 C   0  0  0  0  0  0  0  0  0  0  0  0
   11.1442  -13.9011   28.9935 C   0  0  0  0  0  0  0  0  0  0  0  0
   10.6065  -13.9740   27.7204 C   0  0  0  0  0  0  0  0  0  0  0  0
   10.1238  -15.1857   27.2381 C   0  0  0  0  0  0  0  0  0  0  0  0
   10.1627  -16.3425   27.9995 C   0  0  0  0  0  0  0  0  0  0  0  0
    7.2615  -16.9605   25.3566 C   0  0  0  0  0  0  0  0  0  0  0  0
    6.6122  -17.5126   24.4185 O   0  0  0  0  0  0  0  0  0  0  0  0
    7.2308  -11.5208   25.7397 C   0  0  0  0  0  0  0  0  0  0  0  0
    6.8954  -13.0484   25.7643 C   0  0  1  0  0  0  0  0  0  0  0  0
    5.4609  -13.0419   26.3137 C   0  0  0  0  0  0  0  0  0  0  0  0
    6.9867  -13.4596   24.3539 C   0  0  0  0  0  0  0  0  0  0  0  0
    7.2723  -14.8441   23.9646 C   0  0  2  0  0  0  0  0  0  0  0  0
    7.5791  -15.5881   25.2209 N   0  0  0  0  0  0  0  0  0  0  0  0
    8.2574  -15.1373   22.9458 C   0  0  0  0  0  0  0  0  0  0  0  0
    8.1456  -14.6812   21.7922 O   0  0  0  0  0  0  0  0  0  0  0  0
   11.7353  -15.1225   19.3768 N   0  0  0  0  0  0  0  0  0  0  0  0
   12.0861  -15.0960   20.7435 C   0  0  0  0  0  0  0  0  0  0  0  0
   13.2803  -15.2579   21.0692 O   0  0  0  0  0  0  0  0  0  0  0  0
   11.0640  -14.8813   21.7641 C   0  0  0  0  0  0  0  0  0  0  0  0
   10.3730  -16.1574   22.1907 C   0  0  2  0  0  0  0  0  0  0  0  0
    9.3930  -15.9520   23.2036 N   0  0  0  0  0  0  0  0  0  0  0  0
   11.4247  -17.1175   22.6135 C   0  0  0  0  0  0  0  0  0  0  0  0
   11.4832  -17.6390   23.8969 O   0  0  0  0  0  0  0  0  0  0  0  0
   12.3091  -17.4911   21.8011 O   0  0  0  0  0  0  0  0  0  0  0  0
  2 13  1  0
  2  1  1  6
  2  3  1  0
  3  4  1  0
  4 12  1  0
  4  5  2  0
  5  6  1  0
  6  7  1  0
  7  8  2  0
  9  8  1  0
 10  9  2  0
 11 12  2  0
 11 10  1  0
 12  7  1  0
 13 20  1  0
 14 13  2  0
 16 15  1  6
 17 16  1  0
 18 16  1  0
 19 18  1  1
 20 19  1  0
 21 19  1  0
 22 21  2  0
 23 24  1  0
 24 25  2  0
 24 26  1  0
 27 26  1  1
 27 29  1  0
 27 28  1  0
 28 21  1  0
 29 30  1  0
 31 29  2  0
M  END
$$$$
