WLN.pdb
     RDKit          3D

 31 32  0  0  1  0  0  0  0  0999 V2000
    8.0110  -17.5133   22.1661 N   0  0  0  0  0  0  0  0  0  0  0  0
    9.3924  -17.0706   22.2020 C   0  0  1  0  0  0  0  0  0  0  0  0
    9.7256  -16.6084   20.7994 C   0  0  0  0  0  0  0  0  0  0  0  0
    8.5363  -15.8666   20.2815 C   0  0  0  0  0  0  0  0  0  0  0  0
    7.4076  -16.3908   19.6572 C   0  0  0  0  0  0  0  0  0  0  0  0
    6.5840  -15.3810   19.3518 N   0  0  0  0  0  0  0  0  0  0  0  0
    7.1114  -14.2104   19.7432 C   0  0  0  0  0  0  0  0  0  0  0  0
    6.6997  -12.8908   19.6784 C   0  0  0  0  0  0  0  0  0  0  0  0
    7.4466  -11.8401   20.1677 C   0  0  0  0  0  0  0  0  0  0  0  0
    8.6661  -12.1410   20.7488 C   0  0  0  0  0  0  0  0  0  0  0  0
    9.0943  -13.4620   20.8216 C   0  0  0  0  0  0  0  0  0  0  0  0
    8.3307  -14.5057   20.3247 C   0  0  0  0  0  0  0  0  0  0  0  0
    9.5329  -15.9604   23.1852 C   0  0  0  0  0  0  0  0  0  0  0  0
   10.6774  -15.4568   23.3931 O   0  0  0  0  0  0  0  0  0  0  0  0
    8.0524  -11.6927   26.1920 C   0  0  0  0  0  0  0  0  0  0  0  0
    7.2817  -13.0005   26.5691 C   0  0  1  0  0  0  0  0  0  0  0  0
    5.8510  -12.4737   26.7570 C   0  0  0  0  0  0  0  0  0  0  0  0
    7.4430  -13.8660   25.3896 C   0  0  0  0  0  0  0  0  0  0  0  0
    8.6421  -14.6846   25.1840 C   0  0  2  0  0  0  0  0  0  0  0  0
    8.4377  -15.4318   23.9090 N   0  0  0  0  0  0  0  0  0  0  0  0
    9.1184  -15.5720   26.2234 C   0  0  0  0  0  0  0  0  0  0  0  0
    9.4728  -15.1315   27.3332 O   0  0  0  0  0  0  0  0  0  0  0  0
    9.1221  -21.2691   28.1631 N   0  0  0  0  0  0  0  0  0  0  0  0
    9.1118  -19.8786   28.4037 C   0  0  0  0  0  0  0  0  0  0  0  0
    9.5068  -19.4482   29.5069 O   0  0  0  0  0  0  0  0  0  0  0  0
    8.6449  -18.9545   27.3738 C   0  0  0  0  0  0  0  0  0  0  0  0
    9.6109  -17.8206   27.1108 C   0  0  2  0  0  0  0  0  0  0  0  0
    9.2062  -16.9780   26.0362 N   0  0  0  0  0  0  0  0  0  0  0  0
   10.9518  -18.4174   26.8820 C   0  0  0  0  0  0  0  0  0  0  0  0
   11.6810  -19.0190   27.8962 O   0  0  0  0  0  0  0  0  0  0  0  0
   11.4726  -18.3924   25.7374 O   0  0  0  0  0  0  0  0  0  0  0  0
  2 13  1  0
  2  1  1  6
  2  3  1  0
  3  4  1  0
  4 12  1  0
  4  5  2  0
  5  6  1  0
  6  7  1  0
  7  8  2  0
  9  8  1  0
 10  9  2  0
 11 12  2  0
 11 10  1  0
 12  7  1  0
 13 20  1  0
 14 13  2  0
 16 15  1  6
 17 16  1  0
 18 16  1  0
 19 18  1  1
 20 19  1  0
 21 19  1  0
 22 21  2  0
 23 24  1  0
 24 25  2  0
 24 26  1  0
 27 26  1  6
 27 29  1  0
 27 28  1  0
 28 21  1  0
 29 30  1  0
 31 29  2  0
M  END
$$$$
