WLN.pdb
     RDKit          3D

 31 32  0  0  1  0  0  0  0  0999 V2000
   10.0585  -16.5856   22.0642 N   0  0  0  0  0  0  0  0  0  0  0  0
    9.2160  -15.5605   22.6513 C   0  0  1  0  0  0  0  0  0  0  0  0
    7.7886  -16.0332   22.4750 C   0  0  0  0  0  0  0  0  0  0  0  0
    7.3713  -15.6781   21.0848 C   0  0  0  0  0  0  0  0  0  0  0  0
    6.7909  -16.5074   20.1287 C   0  0  0  0  0  0  0  0  0  0  0  0
    6.5766  -15.7905   19.0190 N   0  0  0  0  0  0  0  0  0  0  0  0
    6.9870  -14.5242   19.1916 C   0  0  0  0  0  0  0  0  0  0  0  0
    7.0023  -13.3923   18.3957 C   0  0  0  0  0  0  0  0  0  0  0  0
    7.4920  -12.1753   18.8202 C   0  0  0  0  0  0  0  0  0  0  0  0
    7.9887  -12.1027   20.1099 C   0  0  0  0  0  0  0  0  0  0  0  0
    7.9806  -13.2312   20.9224 C   0  0  0  0  0  0  0  0  0  0  0  0
    7.4844  -14.4465   20.4794 C   0  0  0  0  0  0  0  0  0  0  0  0
    9.5588  -15.4007   24.0921 C   0  0  0  0  0  0  0  0  0  0  0  0
   10.5631  -16.0143   24.5628 O   0  0  0  0  0  0  0  0  0  0  0  0
    6.1317  -12.8633   27.5480 C   0  0  0  0  0  0  0  0  0  0  0  0
    7.1217  -12.9248   26.3386 C   0  0  1  0  0  0  0  0  0  0  0  0
    7.0983  -11.4703   25.8448 C   0  0  0  0  0  0  0  0  0  0  0  0
    8.4033  -13.3237   26.9425 C   0  0  0  0  0  0  0  0  0  0  0  0
    9.2077  -14.4247   26.4031 C   0  0  2  0  0  0  0  0  0  0  0  0
    8.8094  -14.5868   24.9745 N   0  0  0  0  0  0  0  0  0  0  0  0
    9.2451  -15.7086   27.0700 C   0  0  0  0  0  0  0  0  0  0  0  0
    9.6105  -15.8070   28.2566 O   0  0  0  0  0  0  0  0  0  0  0  0
    8.8978  -20.6332   28.3468 N   0  0  0  0  0  0  0  0  0  0  0  0
    8.5305  -20.5987   26.9846 C   0  0  0  0  0  0  0  0  0  0  0  0
    8.2198  -21.6626   26.4102 O   0  0  0  0  0  0  0  0  0  0  0  0
    8.5138  -19.3331   26.2562 C   0  0  0  0  0  0  0  0  0  0  0  0
    8.9845  -18.1618   27.0895 C   0  0  2  0  0  0  0  0  0  0  0  0
    8.8709  -16.9128   26.4145 N   0  0  0  0  0  0  0  0  0  0  0  0
   10.3792  -18.4453   27.5148 C   0  0  0  0  0  0  0  0  0  0  0  0
   11.4726  -18.1785   26.7049 O   0  0  0  0  0  0  0  0  0  0  0  0
   10.6106  -18.9454   28.6453 O   0  0  0  0  0  0  0  0  0  0  0  0
  2 13  1  0
  2  1  1  1
  2  3  1  0
  3  4  1  0
  4 12  1  0
  4  5  2  0
  5  6  1  0
  6  7  1  0
  7  8  2  0
  9  8  1  0
 10  9  2  0
 11 12  2  0
 11 10  1  0
 12  7  1  0
 13 20  1  0
 14 13  2  0
 16 15  1  1
 17 16  1  0
 18 16  1  0
 19 18  1  1
 20 19  1  0
 21 19  1  0
 22 21  2  0
 23 24  1  0
 24 25  2  0
 24 26  1  0
 27 26  1  6
 27 29  1  0
 27 28  1  0
 28 21  1  0
 29 30  1  0
 31 29  2  0
M  END
$$$$
