WLN.pdb
     RDKit          3D

 31 32  0  0  1  0  0  0  0  0999 V2000
    6.9312  -16.9332   24.8598 N   0  0  0  0  0  0  0  0  0  0  0  0
    7.6578  -15.8436   24.2350 C   0  0  1  0  0  0  0  0  0  0  0  0
    8.8918  -15.6167   25.0822 C   0  0  0  0  0  0  0  0  0  0  0  0
    8.4594  -14.8831   26.3100 C   0  0  0  0  0  0  0  0  0  0  0  0
    8.5854  -15.2878   27.6363 C   0  0  0  0  0  0  0  0  0  0  0  0
    8.0689  -14.3352   28.4217 N   0  0  0  0  0  0  0  0  0  0  0  0
    7.6053  -13.3164   27.6808 C   0  0  0  0  0  0  0  0  0  0  0  0
    6.9910  -12.1098   27.9668 C   0  0  0  0  0  0  0  0  0  0  0  0
    6.6001  -11.2110   26.9970 C   0  0  0  0  0  0  0  0  0  0  0  0
    6.8430  -11.5510   25.6776 C   0  0  0  0  0  0  0  0  0  0  0  0
    7.4594  -12.7598   25.3735 C   0  0  0  0  0  0  0  0  0  0  0  0
    7.8457  -13.6514   26.3611 C   0  0  0  0  0  0  0  0  0  0  0  0
    8.0209  -16.2233   22.8411 C   0  0  0  0  0  0  0  0  0  0  0  0
    7.8994  -17.4308   22.4752 O   0  0  0  0  0  0  0  0  0  0  0  0
    7.8959  -12.4288   18.9331 C   0  0  0  0  0  0  0  0  0  0  0  0
    7.6922  -13.5058   20.0491 C   0  0  1  0  0  0  0  0  0  0  0  0
    6.1817  -13.7684   19.9543 C   0  0  0  0  0  0  0  0  0  0  0  0
    8.5187  -14.6412   19.6084 C   0  0  0  0  0  0  0  0  0  0  0  0
    8.9058  -15.7215   20.5213 C   0  0  2  0  0  0  0  0  0  0  0  0
    8.5014  -15.2908   21.8912 N   0  0  0  0  0  0  0  0  0  0  0  0
   10.2591  -16.2345   20.5277 C   0  0  0  0  0  0  0  0  0  0  0  0
   10.6910  -16.9227   19.5837 O   0  0  0  0  0  0  0  0  0  0  0  0
   13.7352  -14.4693   19.1164 N   0  0  0  0  0  0  0  0  0  0  0  0
   13.7515  -15.7120   19.7849 C   0  0  0  0  0  0  0  0  0  0  0  0
   13.9203  -16.7574   19.1237 O   0  0  0  0  0  0  0  0  0  0  0  0
   13.5734  -15.7738   21.2330 C   0  0  0  0  0  0  0  0  0  0  0  0
   12.4150  -16.6514   21.6523 C   0  0  2  0  0  0  0  0  0  0  0  0
   11.1583  -15.9833   21.5992 N   0  0  0  0  0  0  0  0  0  0  0  0
   12.7162  -17.1739   23.0098 C   0  0  0  0  0  0  0  0  0  0  0  0
   13.8771  -17.8757   23.2960 O   0  0  0  0  0  0  0  0  0  0  0  0
   11.9087  -16.9893   23.9563 O   0  0  0  0  0  0  0  0  0  0  0  0
  2 13  1  0
  2  1  1  1
  2  3  1  0
  3  4  1  0
  4 12  1  0
  4  5  2  0
  5  6  1  0
  6  7  1  0
  7  8  2  0
  9  8  1  0
 10  9  2  0
 11 12  2  0
 11 10  1  0
 12  7  1  0
 13 20  1  0
 14 13  2  0
 16 15  1  6
 17 16  1  0
 18 16  1  0
 19 18  1  6
 20 19  1  0
 21 19  1  0
 22 21  2  0
 23 24  1  0
 24 25  2  0
 24 26  1  0
 27 26  1  1
 27 29  1  0
 27 28  1  0
 28 21  1  0
 29 30  1  0
 31 29  2  0
M  END
$$$$
