WLN.pdb
     RDKit          3D

 31 32  0  0  1  0  0  0  0  0999 V2000
    6.4746  -17.5507   23.8666 N   0  0  0  0  0  0  0  0  0  0  0  0
    7.2650  -16.3647   23.5945 C   0  0  1  0  0  0  0  0  0  0  0  0
    8.2246  -16.2195   24.7566 C   0  0  0  0  0  0  0  0  0  0  0  0
    7.5293  -15.4195   25.8099 C   0  0  0  0  0  0  0  0  0  0  0  0
    6.5695  -15.8552   26.7197 C   0  0  0  0  0  0  0  0  0  0  0  0
    6.2088  -14.8184   27.4853 N   0  0  0  0  0  0  0  0  0  0  0  0
    6.8828  -13.7141   27.1278 C   0  0  0  0  0  0  0  0  0  0  0  0
    6.9012  -12.4030   27.5701 C   0  0  0  0  0  0  0  0  0  0  0  0
    7.7081  -11.4298   27.0197 C   0  0  0  0  0  0  0  0  0  0  0  0
    8.5336  -11.8028   25.9734 C   0  0  0  0  0  0  0  0  0  0  0  0
    8.5269  -13.1164   25.5171 C   0  0  0  0  0  0  0  0  0  0  0  0
    7.7094  -14.0817   26.0821 C   0  0  0  0  0  0  0  0  0  0  0  0
    7.9957  -16.5388   22.3082 C   0  0  0  0  0  0  0  0  0  0  0  0
    8.2530  -17.7088   21.8940 O   0  0  0  0  0  0  0  0  0  0  0  0
    8.4687  -12.1766   18.9007 C   0  0  0  0  0  0  0  0  0  0  0  0
    8.0595  -13.2929   19.9170 C   0  0  1  0  0  0  0  0  0  0  0  0
    6.5263  -13.2115   19.8659 C   0  0  0  0  0  0  0  0  0  0  0  0
    8.6058  -14.5287   19.3334 C   0  0  0  0  0  0  0  0  0  0  0  0
    9.0219  -15.6631   20.1642 C   0  0  2  0  0  0  0  0  0  0  0  0
    8.4233  -15.4484   21.5138 N   0  0  0  0  0  0  0  0  0  0  0  0
   10.4192  -16.0225   20.2783 C   0  0  0  0  0  0  0  0  0  0  0  0
   11.0548  -16.4544   19.2981 O   0  0  0  0  0  0  0  0  0  0  0  0
   13.4534  -15.5823   19.1293 N   0  0  0  0  0  0  0  0  0  0  0  0
   13.9626  -14.9120   20.2620 C   0  0  0  0  0  0  0  0  0  0  0  0
   14.8131  -14.0117   20.1059 O   0  0  0  0  0  0  0  0  0  0  0  0
   13.4994  -15.2675   21.6005 C   0  0  0  0  0  0  0  0  0  0  0  0
   12.4728  -16.3783   21.5984 C   0  0  2  0  0  0  0  0  0  0  0  0
   11.1336  -15.9031   21.5010 N   0  0  0  0  0  0  0  0  0  0  0  0
   12.6915  -17.1939   22.8205 C   0  0  0  0  0  0  0  0  0  0  0  0
   13.0259  -18.5385   22.7674 O   0  0  0  0  0  0  0  0  0  0  0  0
   12.5769  -16.6754   23.9606 O   0  0  0  0  0  0  0  0  0  0  0  0
  2 13  1  0
  2  1  1  1
  2  3  1  0
  3  4  1  0
  4 12  1  0
  4  5  2  0
  5  6  1  0
  6  7  1  0
  7  8  2  0
  9  8  1  0
 10  9  2  0
 11 12  2  0
 11 10  1  0
 12  7  1  0
 13 20  1  0
 14 13  2  0
 16 15  1  6
 17 16  1  0
 18 16  1  0
 19 18  1  6
 20 19  1  0
 21 19  1  0
 22 21  2  0
 23 24  1  0
 24 25  2  0
 24 26  1  0
 27 26  1  1
 27 29  1  0
 27 28  1  0
 28 21  1  0
 29 30  1  0
 31 29  2  0
M  END
$$$$
