WLN.pdb
     RDKit          3D

 31 32  0  0  1  0  0  0  0  0999 V2000
    6.9389  -18.3620   24.6990 N   0  0  0  0  0  0  0  0  0  0  0  0
    7.2084  -17.0140   24.2345 C   0  0  1  0  0  0  0  0  0  0  0  0
    7.9570  -16.3220   25.3538 C   0  0  0  0  0  0  0  0  0  0  0  0
    7.0637  -15.2508   25.8901 C   0  0  0  0  0  0  0  0  0  0  0  0
    5.6952  -15.3231   26.1363 C   0  0  0  0  0  0  0  0  0  0  0  0
    5.2868  -14.1414   26.6136 N   0  0  0  0  0  0  0  0  0  0  0  0
    6.3185  -13.2867   26.6963 C   0  0  0  0  0  0  0  0  0  0  0  0
    6.4597  -11.9735   27.1091 C   0  0  0  0  0  0  0  0  0  0  0  0
    7.6636  -11.3015   27.0969 C   0  0  0  0  0  0  0  0  0  0  0  0
    8.7746  -11.9924   26.6456 C   0  0  0  0  0  0  0  0  0  0  0  0
    8.6496  -13.3126   26.2272 C   0  0  0  0  0  0  0  0  0  0  0  0
    7.4316  -13.9725   26.2462 C   0  0  0  0  0  0  0  0  0  0  0  0
    8.0267  -17.0713   22.9910 C   0  0  0  0  0  0  0  0  0  0  0  0
    8.4566  -18.1913   22.5821 O   0  0  0  0  0  0  0  0  0  0  0  0
    8.2866  -12.5907   19.5876 C   0  0  0  0  0  0  0  0  0  0  0  0
    8.0469  -13.6722   20.6918 C   0  0  1  0  0  0  0  0  0  0  0  0
    6.5182  -13.6321   20.8382 C   0  0  0  0  0  0  0  0  0  0  0  0
    8.5510  -14.9178   20.0910 C   0  0  0  0  0  0  0  0  0  0  0  0
    9.0309  -16.0366   20.9083 C   0  0  2  0  0  0  0  0  0  0  0  0
    8.3529  -15.9220   22.2323 N   0  0  0  0  0  0  0  0  0  0  0  0
   10.4485  -16.2713   21.0808 C   0  0  0  0  0  0  0  0  0  0  0  0
   11.1609  -16.6380   20.1273 O   0  0  0  0  0  0  0  0  0  0  0  0
   14.6450  -16.2634   20.4179 N   0  0  0  0  0  0  0  0  0  0  0  0
   13.9830  -15.1867   21.0455 C   0  0  0  0  0  0  0  0  0  0  0  0
   13.8765  -14.1004   20.4396 O   0  0  0  0  0  0  0  0  0  0  0  0
   13.4288  -15.3420   22.3877 C   0  0  0  0  0  0  0  0  0  0  0  0
   12.4551  -16.4941   22.4988 C   0  0  2  0  0  0  0  0  0  0  0  0
   11.0971  -16.0976   22.3334 N   0  0  0  0  0  0  0  0  0  0  0  0
   12.6911  -17.1567   23.8072 C   0  0  0  0  0  0  0  0  0  0  0  0
   11.6807  -17.3469   24.7374 O   0  0  0  0  0  0  0  0  0  0  0  0
   13.8383  -17.5718   24.1125 O   0  0  0  0  0  0  0  0  0  0  0  0
  2 13  1  0
  2  1  1  1
  2  3  1  0
  3  4  1  0
  4 12  1  0
  4  5  2  0
  5  6  1  0
  6  7  1  0
  7  8  2  0
  9  8  1  0
 10  9  2  0
 11 12  2  0
 11 10  1  0
 12  7  1  0
 13 20  1  0
 14 13  2  0
 16 15  1  6
 17 16  1  0
 18 16  1  0
 19 18  1  6
 20 19  1  0
 21 19  1  0
 22 21  2  0
 23 24  1  0
 24 25  2  0
 24 26  1  0
 27 26  1  1
 27 29  1  0
 27 28  1  0
 28 21  1  0
 29 30  1  0
 31 29  2  0
M  END
$$$$
