WLN.pdb
     RDKit          3D

 31 32  0  0  1  0  0  0  0  0999 V2000
    6.8592  -17.2382   25.3032 N   0  0  0  0  0  0  0  0  0  0  0  0
    7.4361  -16.0806   24.6455 C   0  0  1  0  0  0  0  0  0  0  0  0
    8.7033  -15.7497   25.4050 C   0  0  0  0  0  0  0  0  0  0  0  0
    8.3236  -14.8404   26.5283 C   0  0  0  0  0  0  0  0  0  0  0  0
    8.5254  -15.0364   27.8920 C   0  0  0  0  0  0  0  0  0  0  0  0
    8.0350  -13.9790   28.5499 N   0  0  0  0  0  0  0  0  0  0  0  0
    7.5166  -13.0895   27.6887 C   0  0  0  0  0  0  0  0  0  0  0  0
    6.8984  -11.8585   27.8203 C   0  0  0  0  0  0  0  0  0  0  0  0
    6.4426  -11.1219   26.7475 C   0  0  0  0  0  0  0  0  0  0  0  0
    6.6218  -11.6577   25.4842 C   0  0  0  0  0  0  0  0  0  0  0  0
    7.2412  -12.8938   25.3348 C   0  0  0  0  0  0  0  0  0  0  0  0
    7.6932  -13.6205   26.4243 C   0  0  0  0  0  0  0  0  0  0  0  0
    7.7290  -16.4120   23.2230 C   0  0  0  0  0  0  0  0  0  0  0  0
    7.4595  -17.5716   22.7878 O   0  0  0  0  0  0  0  0  0  0  0  0
    8.1546  -12.2201   19.7587 C   0  0  0  0  0  0  0  0  0  0  0  0
    7.7399  -13.3752   20.7285 C   0  0  1  0  0  0  0  0  0  0  0  0
    6.2076  -13.3251   20.6327 C   0  0  0  0  0  0  0  0  0  0  0  0
    8.3310  -14.5808   20.1256 C   0  0  0  0  0  0  0  0  0  0  0  0
    8.4969  -15.8265   20.8812 C   0  0  2  0  0  0  0  0  0  0  0  0
    8.3010  -15.4845   22.3201 N   0  0  0  0  0  0  0  0  0  0  0  0
    9.6787  -16.6439   20.7086 C   0  0  0  0  0  0  0  0  0  0  0  0
    9.9260  -17.1961   19.6199 O   0  0  0  0  0  0  0  0  0  0  0  0
   14.3152  -18.6269   20.8927 N   0  0  0  0  0  0  0  0  0  0  0  0
   14.1638  -17.2473   20.6375 C   0  0  0  0  0  0  0  0  0  0  0  0
   15.1194  -16.6094   20.1494 O   0  0  0  0  0  0  0  0  0  0  0  0
   12.9037  -16.5743   20.9406 C   0  0  0  0  0  0  0  0  0  0  0  0
   11.8511  -17.5068   21.4977 C   0  0  2  0  0  0  0  0  0  0  0  0
   10.6105  -16.8582   21.7601 N   0  0  0  0  0  0  0  0  0  0  0  0
   12.4171  -18.1482   22.7121 C   0  0  0  0  0  0  0  0  0  0  0  0
   13.5376  -18.9637   22.6689 O   0  0  0  0  0  0  0  0  0  0  0  0
   11.8837  -17.9645   23.8362 O   0  0  0  0  0  0  0  0  0  0  0  0
  2 13  1  0
  2  1  1  1
  2  3  1  0
  3  4  1  0
  4 12  1  0
  4  5  2  0
  5  6  1  0
  6  7  1  0
  7  8  2  0
  9  8  1  0
 10  9  2  0
 11 12  2  0
 11 10  1  0
 12  7  1  0
 13 20  1  0
 14 13  2  0
 16 15  1  6
 17 16  1  0
 18 16  1  0
 19 18  1  6
 20 19  1  0
 21 19  1  0
 22 21  2  0
 23 24  1  0
 24 25  2  0
 24 26  1  0
 27 26  1  1
 27 29  1  0
 27 28  1  0
 28 21  1  0
 29 30  1  0
 31 29  2  0
M  END
$$$$
