WLN.pdb
     RDKit          3D

 31 32  0  0  1  0  0  0  0  0999 V2000
    7.8464  -19.6969   26.7787 N   0  0  0  0  0  0  0  0  0  0  0  0
    8.2277  -18.3010   26.8852 C   0  0  1  0  0  0  0  0  0  0  0  0
    9.7243  -18.2870   27.1140 C   0  0  0  0  0  0  0  0  0  0  0  0
    9.9647  -17.6486   28.4435 C   0  0  0  0  0  0  0  0  0  0  0  0
   10.2680  -18.2744   29.6497 C   0  0  0  0  0  0  0  0  0  0  0  0
   10.4039  -17.3348   30.5930 N   0  0  0  0  0  0  0  0  0  0  0  0
   10.2053  -16.1140   30.0715 C   0  0  0  0  0  0  0  0  0  0  0  0
   10.2233  -14.8272   30.5800 C   0  0  0  0  0  0  0  0  0  0  0  0
    9.9796  -13.7071   29.8137 C   0  0  0  0  0  0  0  0  0  0  0  0
    9.7053  -13.9006   28.4711 C   0  0  0  0  0  0  0  0  0  0  0  0
    9.6833  -15.1875   27.9446 C   0  0  0  0  0  0  0  0  0  0  0  0
    9.9306  -16.3020   28.7295 C   0  0  0  0  0  0  0  0  0  0  0  0
    7.8662  -17.5898   25.6273 C   0  0  0  0  0  0  0  0  0  0  0  0
    7.7349  -18.2530   24.5552 O   0  0  0  0  0  0  0  0  0  0  0  0
    7.9959  -12.2677   24.5368 C   0  0  0  0  0  0  0  0  0  0  0  0
    7.3489  -13.2770   25.5414 C   0  0  1  0  0  0  0  0  0  0  0  0
    6.4113  -12.3600   26.3412 C   0  0  0  0  0  0  0  0  0  0  0  0
    6.6421  -14.2389   24.6800 C   0  0  0  0  0  0  0  0  0  0  0  0
    7.2351  -15.5255   24.3017 C   0  0  2  0  0  0  0  0  0  0  0  0
    7.6588  -16.1911   25.5679 N   0  0  0  0  0  0  0  0  0  0  0  0
    8.2910  -15.5910   23.3141 C   0  0  0  0  0  0  0  0  0  0  0  0
    8.0410  -15.4974   22.0975 O   0  0  0  0  0  0  0  0  0  0  0  0
    9.8175  -14.6004   19.7547 N   0  0  0  0  0  0  0  0  0  0  0  0
   10.7322  -15.4646   20.3935 C   0  0  0  0  0  0  0  0  0  0  0  0
   11.2057  -16.4286   19.7572 O   0  0  0  0  0  0  0  0  0  0  0  0
   11.1201  -15.2333   21.7822 C   0  0  0  0  0  0  0  0  0  0  0  0
   10.5860  -16.2832   22.7310 C   0  0  2  0  0  0  0  0  0  0  0  0
    9.6547  -15.7633   23.6749 N   0  0  0  0  0  0  0  0  0  0  0  0
   11.7513  -16.9281   23.3889 C   0  0  0  0  0  0  0  0  0  0  0  0
   12.7705  -17.5333   22.6696 O   0  0  0  0  0  0  0  0  0  0  0  0
   11.8467  -16.9423   24.6429 O   0  0  0  0  0  0  0  0  0  0  0  0
  2 13  1  0
  2  1  1  6
  2  3  1  0
  3  4  1  0
  4 12  1  0
  4  5  2  0
  5  6  1  0
  6  7  1  0
  7  8  2  0
  9  8  1  0
 10  9  2  0
 11 12  2  0
 11 10  1  0
 12  7  1  0
 13 20  1  0
 14 13  2  0
 16 15  1  6
 17 16  1  0
 18 16  1  0
 19 18  1  1
 20 19  1  0
 21 19  1  0
 22 21  2  0
 23 24  1  0
 24 25  2  0
 24 26  1  0
 27 26  1  6
 27 29  1  0
 27 28  1  0
 28 21  1  0
 29 30  1  0
 31 29  2  0
M  END
$$$$
