WLN.pdb
     RDKit          3D

 31 32  0  0  1  0  0  0  0  0999 V2000
    6.6896  -17.5610   25.6276 N   0  0  0  0  0  0  0  0  0  0  0  0
    7.2158  -16.3727   24.9823 C   0  0  1  0  0  0  0  0  0  0  0  0
    8.5015  -16.0321   25.7055 C   0  0  0  0  0  0  0  0  0  0  0  0
    8.1660  -15.0263   26.7586 C   0  0  0  0  0  0  0  0  0  0  0  0
    8.4370  -15.0944   28.1226 C   0  0  0  0  0  0  0  0  0  0  0  0
    7.9663  -13.9850   28.7047 N   0  0  0  0  0  0  0  0  0  0  0  0
    7.3952  -13.1826   27.7928 C   0  0  0  0  0  0  0  0  0  0  0  0
    6.7688  -11.9497   27.8420 C   0  0  0  0  0  0  0  0  0  0  0  0
    6.2517  -11.3185   26.7304 C   0  0  0  0  0  0  0  0  0  0  0  0
    6.3754  -11.9669   25.5140 C   0  0  0  0  0  0  0  0  0  0  0  0
    7.0021  -13.2064   25.4476 C   0  0  0  0  0  0  0  0  0  0  0  0
    7.5161  -13.8263   26.5750 C   0  0  0  0  0  0  0  0  0  0  0  0
    7.4651  -16.6587   23.5417 C   0  0  0  0  0  0  0  0  0  0  0  0
    7.5583  -17.8622   23.1551 O   0  0  0  0  0  0  0  0  0  0  0  0
    7.2889  -12.6907   19.3169 C   0  0  0  0  0  0  0  0  0  0  0  0
    8.1185  -13.5312   20.3426 C   0  0  1  0  0  0  0  0  0  0  0  0
    7.8963  -12.7418   21.6416 C   0  0  0  0  0  0  0  0  0  0  0  0
    7.4687  -14.8518   20.3347 C   0  0  0  0  0  0  0  0  0  0  0  0
    7.9576  -15.9638   21.1561 C   0  0  2  0  0  0  0  0  0  0  0  0
    7.6050  -15.6402   22.5692 N   0  0  0  0  0  0  0  0  0  0  0  0
    9.3334  -16.4029   21.0625 C   0  0  0  0  0  0  0  0  0  0  0  0
    9.7923  -16.8591   19.9983 O   0  0  0  0  0  0  0  0  0  0  0  0
   14.8552  -16.0788   23.1188 N   0  0  0  0  0  0  0  0  0  0  0  0
   13.9427  -15.8981   22.0575 C   0  0  0  0  0  0  0  0  0  0  0  0
   14.3428  -16.0243   20.8818 O   0  0  0  0  0  0  0  0  0  0  0  0
   12.5470  -15.5678   22.3320 C   0  0  0  0  0  0  0  0  0  0  0  0
   11.5941  -16.6963   22.0057 C   0  0  2  0  0  0  0  0  0  0  0  0
   10.2252  -16.3378   22.1671 N   0  0  0  0  0  0  0  0  0  0  0  0
   11.9724  -17.8607   22.8469 C   0  0  0  0  0  0  0  0  0  0  0  0
   11.2214  -18.2634   23.9406 O   0  0  0  0  0  0  0  0  0  0  0  0
   13.0063  -18.5267   22.5837 O   0  0  0  0  0  0  0  0  0  0  0  0
  2 13  1  0
  2  1  1  1
  2  3  1  0
  3  4  1  0
  4 12  1  0
  4  5  2  0
  5  6  1  0
  6  7  1  0
  7  8  2  0
  9  8  1  0
 10  9  2  0
 11 12  2  0
 11 10  1  0
 12  7  1  0
 13 20  1  0
 14 13  2  0
 16 15  1  6
 17 16  1  0
 18 16  1  0
 19 18  1  6
 20 19  1  0
 21 19  1  0
 22 21  2  0
 23 24  1  0
 24 25  2  0
 24 26  1  0
 27 26  1  1
 27 29  1  0
 27 28  1  0
 28 21  1  0
 29 30  1  0
 31 29  2  0
M  END
$$$$
