WLN.pdb
     RDKit          3D

 31 32  0  0  1  0  0  0  0  0999 V2000
    8.6280  -16.7385   22.2538 N   0  0  0  0  0  0  0  0  0  0  0  0
    8.3195  -15.3331   22.4411 C   0  0  1  0  0  0  0  0  0  0  0  0
    6.9358  -15.1227   21.8639 C   0  0  0  0  0  0  0  0  0  0  0  0
    7.0695  -15.1277   20.3756 C   0  0  0  0  0  0  0  0  0  0  0  0
    6.6540  -16.1127   19.4836 C   0  0  0  0  0  0  0  0  0  0  0  0
    6.9660  -15.7205   18.2426 N   0  0  0  0  0  0  0  0  0  0  0  0
    7.5693  -14.5217   18.2670 C   0  0  0  0  0  0  0  0  0  0  0  0
    8.0853  -13.6754   17.3014 C   0  0  0  0  0  0  0  0  0  0  0  0
    8.6712  -12.4619   17.5933 C   0  0  0  0  0  0  0  0  0  0  0  0
    8.7368  -12.0896   18.9246 C   0  0  0  0  0  0  0  0  0  0  0  0
    8.2229  -12.9288   19.9072 C   0  0  0  0  0  0  0  0  0  0  0  0
    7.6374  -14.1451   19.5957 C   0  0  0  0  0  0  0  0  0  0  0  0
    8.3550  -15.0060   23.8939 C   0  0  0  0  0  0  0  0  0  0  0  0
    8.0598  -13.8332   24.2733 O   0  0  0  0  0  0  0  0  0  0  0  0
    5.8975  -13.1326   26.6565 C   0  0  0  0  0  0  0  0  0  0  0  0
    7.2928  -13.5097   26.0584 C   0  0  1  0  0  0  0  0  0  0  0  0
    8.1760  -12.3711   26.5906 C   0  0  0  0  0  0  0  0  0  0  0  0
    7.5967  -14.8213   26.6533 C   0  0  0  0  0  0  0  0  0  0  0  0
    8.8185  -15.5611   26.3216 C   0  0  2  0  0  0  0  0  0  0  0  0
    8.7067  -15.9518   24.8861 N   0  0  0  0  0  0  0  0  0  0  0  0
    9.2409  -16.6885   27.1247 C   0  0  0  0  0  0  0  0  0  0  0  0
    9.4830  -16.5586   28.3396 O   0  0  0  0  0  0  0  0  0  0  0  0
    8.6137  -20.5029   26.4582 N   0  0  0  0  0  0  0  0  0  0  0  0
    9.7054  -20.6732   25.5802 C   0  0  0  0  0  0  0  0  0  0  0  0
    9.7050  -21.6376   24.7875 O   0  0  0  0  0  0  0  0  0  0  0  0
   10.8217  -19.7319   25.5989 C   0  0  0  0  0  0  0  0  0  0  0  0
   10.6642  -18.6439   26.6378 C   0  0  2  0  0  0  0  0  0  0  0  0
    9.4003  -17.9902   26.5769 N   0  0  0  0  0  0  0  0  0  0  0  0
   11.7953  -17.6958   26.4698 C   0  0  0  0  0  0  0  0  0  0  0  0
   12.0113  -16.9969   25.2920 O   0  0  0  0  0  0  0  0  0  0  0  0
   12.6047  -17.4974   27.4118 O   0  0  0  0  0  0  0  0  0  0  0  0
  2 13  1  0
  2  1  1  1
  2  3  1  0
  3  4  1  0
  4 12  1  0
  4  5  2  0
  5  6  1  0
  6  7  1  0
  7  8  2  0
  9  8  1  0
 10  9  2  0
 11 12  2  0
 11 10  1  0
 12  7  1  0
 13 20  1  0
 14 13  2  0
 16 15  1  1
 17 16  1  0
 18 16  1  0
 19 18  1  1
 20 19  1  0
 21 19  1  0
 22 21  2  0
 23 24  1  0
 24 25  2  0
 24 26  1  0
 27 26  1  6
 27 29  1  0
 27 28  1  0
 28 21  1  0
 29 30  1  0
 31 29  2  0
M  END
$$$$
