WLN.pdb
     RDKit          3D

 31 32  0  0  1  0  0  0  0  0999 V2000
    6.0889  -17.9817   24.4359 N   0  0  0  0  0  0  0  0  0  0  0  0
    6.7639  -16.7121   24.2413 C   0  0  1  0  0  0  0  0  0  0  0  0
    7.5147  -16.4304   25.5254 C   0  0  0  0  0  0  0  0  0  0  0  0
    6.9193  -15.1993   26.1276 C   0  0  0  0  0  0  0  0  0  0  0  0
    5.6018  -14.9958   26.5295 C   0  0  0  0  0  0  0  0  0  0  0  0
    5.4932  -13.7533   27.0148 N   0  0  0  0  0  0  0  0  0  0  0  0
    6.6756  -13.1208   26.9546 C   0  0  0  0  0  0  0  0  0  0  0  0
    7.1202  -11.8594   27.3096 C   0  0  0  0  0  0  0  0  0  0  0  0
    8.4232  -11.4410   27.1409 C   0  0  0  0  0  0  0  0  0  0  0  0
    9.3155  -12.3424   26.5872 C   0  0  0  0  0  0  0  0  0  0  0  0
    8.8845  -13.6139   26.2250 C   0  0  0  0  0  0  0  0  0  0  0  0
    7.5711  -14.0176   26.4017 C   0  0  0  0  0  0  0  0  0  0  0  0
    7.6941  -16.8164   23.0825 C   0  0  0  0  0  0  0  0  0  0  0  0
    8.0691  -17.9613   22.6888 O   0  0  0  0  0  0  0  0  0  0  0  0
    8.3234  -12.4452   19.6969 C   0  0  0  0  0  0  0  0  0  0  0  0
    7.8511  -13.7981   20.3241 C   0  0  1  0  0  0  0  0  0  0  0  0
    6.9397  -14.3509   19.2180 C   0  0  0  0  0  0  0  0  0  0  0  0
    9.0946  -14.5648   20.5039 C   0  0  0  0  0  0  0  0  0  0  0  0
    9.1266  -15.8330   21.2393 C   0  0  2  0  0  0  0  0  0  0  0  0
    8.1874  -15.6856   22.3891 N   0  0  0  0  0  0  0  0  0  0  0  0
   10.3832  -16.4015   21.6781 C   0  0  0  0  0  0  0  0  0  0  0  0
   10.8850  -16.0855   22.7734 O   0  0  0  0  0  0  0  0  0  0  0  0
   13.4730  -18.8039   18.3900 N   0  0  0  0  0  0  0  0  0  0  0  0
   12.4666  -19.2234   19.2860 C   0  0  0  0  0  0  0  0  0  0  0  0
   11.3737  -19.6208   18.8320 O   0  0  0  0  0  0  0  0  0  0  0  0
   12.7015  -19.1931   20.7270 C   0  0  0  0  0  0  0  0  0  0  0  0
   12.3419  -17.8672   21.3598 C   0  0  2  0  0  0  0  0  0  0  0  0
   11.1041  -17.3406   20.8919 N   0  0  0  0  0  0  0  0  0  0  0  0
   13.4740  -16.9351   21.1228 C   0  0  0  0  0  0  0  0  0  0  0  0
   14.7784  -17.2440   21.4770 O   0  0  0  0  0  0  0  0  0  0  0  0
   13.2752  -15.8168   20.5828 O   0  0  0  0  0  0  0  0  0  0  0  0
  2 13  1  0
  2  1  1  1
  2  3  1  0
  3  4  1  0
  4 12  1  0
  4  5  2  0
  5  6  1  0
  6  7  1  0
  7  8  2  0
  9  8  1  0
 10  9  2  0
 11 12  2  0
 11 10  1  0
 12  7  1  0
 13 20  1  0
 14 13  2  0
 16 15  1  6
 17 16  1  0
 18 16  1  0
 19 18  1  1
 20 19  1  0
 21 19  1  0
 22 21  2  0
 23 24  1  0
 24 25  2  0
 24 26  1  0
 27 26  1  6
 27 29  1  0
 27 28  1  0
 28 21  1  0
 29 30  1  0
 31 29  2  0
M  END
$$$$
