WLN.pdb
     RDKit          3D

 31 32  0  0  1  0  0  0  0  0999 V2000
    6.4276  -18.3541   24.2726 N   0  0  0  0  0  0  0  0  0  0  0  0
    6.8642  -16.9781   24.1262 C   0  0  1  0  0  0  0  0  0  0  0  0
    7.5706  -16.6185   25.4161 C   0  0  0  0  0  0  0  0  0  0  0  0
    6.8671  -15.4328   25.9924 C   0  0  0  0  0  0  0  0  0  0  0  0
    5.5554  -15.3582   26.4533 C   0  0  0  0  0  0  0  0  0  0  0  0
    5.3281  -14.1126   26.8870 N   0  0  0  0  0  0  0  0  0  0  0  0
    6.4262  -13.3554   26.7363 C   0  0  0  0  0  0  0  0  0  0  0  0
    6.7397  -12.0357   27.0101 C   0  0  0  0  0  0  0  0  0  0  0  0
    7.9767  -11.4830   26.7544 C   0  0  0  0  0  0  0  0  0  0  0  0
    8.9394  -12.3056   26.1959 C   0  0  0  0  0  0  0  0  0  0  0  0
    8.6403  -13.6341   25.9147 C   0  0  0  0  0  0  0  0  0  0  0  0
    7.3915  -14.1731   26.1782 C   0  0  0  0  0  0  0  0  0  0  0  0
    7.7824  -16.8698   22.9582 C   0  0  0  0  0  0  0  0  0  0  0  0
    8.2948  -17.9222   22.4719 O   0  0  0  0  0  0  0  0  0  0  0  0
    8.0129  -12.0077   20.1687 C   0  0  0  0  0  0  0  0  0  0  0  0
    7.6094  -13.4304   20.6784 C   0  0  1  0  0  0  0  0  0  0  0  0
    6.5679  -13.8511   19.6306 C   0  0  0  0  0  0  0  0  0  0  0  0
    8.8599  -14.2040   20.6130 C   0  0  0  0  0  0  0  0  0  0  0  0
    8.9527  -15.5763   21.1214 C   0  0  2  0  0  0  0  0  0  0  0  0
    8.1164  -15.6336   22.3556 N   0  0  0  0  0  0  0  0  0  0  0  0
   10.2412  -16.1942   21.3504 C   0  0  0  0  0  0  0  0  0  0  0  0
   10.8692  -16.7362   20.4214 O   0  0  0  0  0  0  0  0  0  0  0  0
   13.7446  -17.6826   20.7142 N   0  0  0  0  0  0  0  0  0  0  0  0
   13.9910  -16.3520   21.1147 C   0  0  0  0  0  0  0  0  0  0  0  0
   14.8738  -15.6927   20.5279 O   0  0  0  0  0  0  0  0  0  0  0  0
   13.2218  -15.7539   22.2024 C   0  0  0  0  0  0  0  0  0  0  0  0
   12.1867  -16.6913   22.7836 C   0  0  2  0  0  0  0  0  0  0  0  0
   10.8528  -16.2154   22.6330 N   0  0  0  0  0  0  0  0  0  0  0  0
   12.5420  -16.9254   24.2068 C   0  0  0  0  0  0  0  0  0  0  0  0
   11.6620  -16.6637   25.2458 O   0  0  0  0  0  0  0  0  0  0  0  0
   13.6749  -17.3771   24.5140 O   0  0  0  0  0  0  0  0  0  0  0  0
  2 13  1  0
  2  1  1  1
  2  3  1  0
  3  4  1  0
  4 12  1  0
  4  5  2  0
  5  6  1  0
  6  7  1  0
  7  8  2  0
  9  8  1  0
 10  9  2  0
 11 12  2  0
 11 10  1  0
 12  7  1  0
 13 20  1  0
 14 13  2  0
 16 15  1  6
 17 16  1  0
 18 16  1  0
 19 18  1  1
 20 19  1  0
 21 19  1  0
 22 21  2  0
 23 24  1  0
 24 25  2  0
 24 26  1  0
 27 26  1  1
 27 29  1  0
 27 28  1  0
 28 21  1  0
 29 30  1  0
 31 29  2  0
M  END
$$$$
