WLN.pdb
     RDKit          3D

 31 32  0  0  1  0  0  0  0  0999 V2000
    7.0464  -17.4964   25.1500 N   0  0  0  0  0  0  0  0  0  0  0  0
    7.7467  -16.3488   24.6041 C   0  0  1  0  0  0  0  0  0  0  0  0
    9.0784  -16.2847   25.3216 C   0  0  0  0  0  0  0  0  0  0  0  0
    8.8856  -15.4445   26.5421 C   0  0  0  0  0  0  0  0  0  0  0  0
    9.3027  -15.7175   27.8422 C   0  0  0  0  0  0  0  0  0  0  0  0
    8.9266  -14.7034   28.6304 N   0  0  0  0  0  0  0  0  0  0  0  0
    8.2791  -13.7691   27.9165 C   0  0  0  0  0  0  0  0  0  0  0  0
    7.6929  -12.5522   28.2167 C   0  0  0  0  0  0  0  0  0  0  0  0
    7.0729  -11.7580   27.2753 C   0  0  0  0  0  0  0  0  0  0  0  0
    7.0463  -12.2187   25.9706 C   0  0  0  0  0  0  0  0  0  0  0  0
    7.6308  -13.4397   25.6524 C   0  0  0  0  0  0  0  0  0  0  0  0
    8.2497  -14.2250   26.6114 C   0  0  0  0  0  0  0  0  0  0  0  0
    7.9309  -16.5307   23.1372 C   0  0  0  0  0  0  0  0  0  0  0  0
    7.8468  -17.6939   22.6407 O   0  0  0  0  0  0  0  0  0  0  0  0
    7.8888  -12.1202   19.5726 C   0  0  0  0  0  0  0  0  0  0  0  0
    8.0687  -13.1286   20.7548 C   0  0  1  0  0  0  0  0  0  0  0  0
    6.8844  -12.7587   21.6605 C   0  0  0  0  0  0  0  0  0  0  0  0
    7.9389  -14.4513   20.1223 C   0  0  0  0  0  0  0  0  0  0  0  0
    8.3756  -15.6800   20.7930 C   0  0  2  0  0  0  0  0  0  0  0  0
    8.1987  -15.4552   22.2573 N   0  0  0  0  0  0  0  0  0  0  0  0
    9.6778  -16.2490   20.5190 C   0  0  0  0  0  0  0  0  0  0  0  0
    9.9406  -16.7501   19.4094 O   0  0  0  0  0  0  0  0  0  0  0  0
   12.6183  -15.6103   18.8124 N   0  0  0  0  0  0  0  0  0  0  0  0
   13.3667  -15.2502   19.9533 C   0  0  0  0  0  0  0  0  0  0  0  0
   14.2349  -14.3585   19.8560 O   0  0  0  0  0  0  0  0  0  0  0  0
   13.1278  -15.9130   21.2325 C   0  0  0  0  0  0  0  0  0  0  0  0
   11.9656  -16.8803   21.1925 C   0  0  2  0  0  0  0  0  0  0  0  0
   10.7154  -16.2662   21.4899 N   0  0  0  0  0  0  0  0  0  0  0  0
   12.2782  -17.9961   22.1220 C   0  0  0  0  0  0  0  0  0  0  0  0
   13.4194  -18.7731   21.9941 O   0  0  0  0  0  0  0  0  0  0  0  0
   11.4994  -18.2715   23.0703 O   0  0  0  0  0  0  0  0  0  0  0  0
  2 13  1  0
  2  1  1  1
  2  3  1  0
  3  4  1  0
  4 12  1  0
  4  5  2  0
  5  6  1  0
  6  7  1  0
  7  8  2  0
  9  8  1  0
 10  9  2  0
 11 12  2  0
 11 10  1  0
 12  7  1  0
 13 20  1  0
 14 13  2  0
 16 15  1  6
 17 16  1  0
 18 16  1  0
 19 18  1  6
 20 19  1  0
 21 19  1  0
 22 21  2  0
 23 24  1  0
 24 25  2  0
 24 26  1  0
 27 26  1  1
 27 29  1  0
 27 28  1  0
 28 21  1  0
 29 30  1  0
 31 29  2  0
M  END
$$$$
