WLN.pdb
     RDKit          3D

 31 32  0  0  1  0  0  0  0  0999 V2000
    6.3345  -18.2650   24.4648 N   0  0  0  0  0  0  0  0  0  0  0  0
    6.9515  -16.9587   24.3298 C   0  0  1  0  0  0  0  0  0  0  0  0
    7.8588  -16.7927   25.5304 C   0  0  0  0  0  0  0  0  0  0  0  0
    7.4565  -15.5297   26.2202 C   0  0  0  0  0  0  0  0  0  0  0  0
    6.1990  -14.9325   26.2446 C   0  0  0  0  0  0  0  0  0  0  0  0
    6.2742  -13.8146   26.9767 N   0  0  0  0  0  0  0  0  0  0  0  0
    7.5217  -13.6401   27.4402 C   0  0  0  0  0  0  0  0  0  0  0  0
    8.1402  -12.6822   28.2243 C   0  0  0  0  0  0  0  0  0  0  0  0
    9.4742  -12.7327   28.5694 C   0  0  0  0  0  0  0  0  0  0  0  0
   10.2145  -13.8029   28.0983 C   0  0  0  0  0  0  0  0  0  0  0  0
    9.6079  -14.7739   27.3091 C   0  0  0  0  0  0  0  0  0  0  0  0
    8.2658  -14.7073   26.9719 C   0  0  0  0  0  0  0  0  0  0  0  0
    7.7232  -16.9029   23.0569 C   0  0  0  0  0  0  0  0  0  0  0  0
    8.0647  -17.9841   22.4903 O   0  0  0  0  0  0  0  0  0  0  0  0
    7.5381  -12.2696   20.1064 C   0  0  0  0  0  0  0  0  0  0  0  0
    7.3220  -13.6473   20.8148 C   0  0  1  0  0  0  0  0  0  0  0  0
    6.0524  -14.1586   20.1174 C   0  0  0  0  0  0  0  0  0  0  0  0
    8.5311  -14.4172   20.4807 C   0  0  0  0  0  0  0  0  0  0  0  0
    8.8645  -15.6741   21.1584 C   0  0  2  0  0  0  0  0  0  0  0  0
    8.0996  -15.6865   22.4393 N   0  0  0  0  0  0  0  0  0  0  0  0
   10.2440  -16.0481   21.3855 C   0  0  0  0  0  0  0  0  0  0  0  0
   11.0196  -16.2559   20.4334 O   0  0  0  0  0  0  0  0  0  0  0  0
   15.1570  -15.4135   22.7542 N   0  0  0  0  0  0  0  0  0  0  0  0
   14.2745  -15.4920   23.8526 C   0  0  0  0  0  0  0  0  0  0  0  0
   14.7338  -15.7386   24.9868 O   0  0  0  0  0  0  0  0  0  0  0  0
   12.8410  -15.2866   23.6641 C   0  0  0  0  0  0  0  0  0  0  0  0
   12.1810  -16.3945   22.8737 C   0  0  2  0  0  0  0  0  0  0  0  0
   10.7822  -16.1965   22.6925 N   0  0  0  0  0  0  0  0  0  0  0  0
   12.4821  -17.6767   23.5606 C   0  0  0  0  0  0  0  0  0  0  0  0
   13.7220  -18.2916   23.4777 O   0  0  0  0  0  0  0  0  0  0  0  0
   11.6014  -18.2510   24.2508 O   0  0  0  0  0  0  0  0  0  0  0  0
  2 13  1  0
  2  1  1  1
  2  3  1  0
  3  4  1  0
  4 12  1  0
  4  5  2  0
  5  6  1  0
  6  7  1  0
  7  8  2  0
  9  8  1  0
 10  9  2  0
 11 12  2  0
 11 10  1  0
 12  7  1  0
 13 20  1  0
 14 13  2  0
 16 15  1  6
 17 16  1  0
 18 16  1  0
 19 18  1  1
 20 19  1  0
 21 19  1  0
 22 21  2  0
 23 24  1  0
 24 25  2  0
 24 26  1  0
 27 26  1  1
 27 29  1  0
 27 28  1  0
 28 21  1  0
 29 30  1  0
 31 29  2  0
M  END
$$$$
