QPH.pdb
     RDKit          3D

 27 28  0  0  1  0  0  0  0  0999 V2000
    6.0045  -18.8866   18.2239 N   0  0  0  0  0  0  0  0  0  0  0  0
    7.3672  -19.2464   18.1671 C   0  0  0  0  0  0  0  0  0  0  0  0
    7.7281  -20.3292   18.6707 O   0  0  0  0  0  0  0  0  0  0  0  0
    8.3099  -18.3329   17.5157 C   0  0  0  0  0  0  0  0  0  0  0  0
    7.6920  -17.0841   16.9424 C   0  0  0  0  0  0  0  0  0  0  0  0
    8.6709  -15.9638   16.8514 C   0  0  2  0  0  0  0  0  0  0  0  0
    9.7479  -16.4250   15.9845 N   0  0  0  0  0  0  0  0  0  0  0  0
    9.1989  -15.4903   18.1492 C   0  0  0  0  0  0  0  0  0  0  0  0
   10.3376  -15.9299   18.5381 O   0  0  0  0  0  0  0  0  0  0  0  0
    8.5496  -14.5765   19.0180 N   0  0  0  0  0  0  0  0  0  0  0  0
    7.3113  -13.9162   18.6661 C   0  0  0  0  0  0  0  0  0  0  0  0
    7.3088  -12.6547   19.5299 C   0  0  0  0  0  0  0  0  0  0  0  0
    7.9097  -13.2080   20.8054 C   0  0  0  0  0  0  0  0  0  0  0  0
    8.9531  -14.1462   20.2978 C   0  0  1  0  0  0  0  0  0  0  0  0
    9.2275  -15.2539   21.2550 C   0  0  0  0  0  0  0  0  0  0  0  0
    8.4797  -16.2528   21.2270 O   0  0  0  0  0  0  0  0  0  0  0  0
   10.3013  -15.1909   22.1761 N   0  0  0  0  0  0  0  0  0  0  0  0
   10.5282  -16.1991   23.2040 C   0  0  1  0  0  0  0  0  0  0  0  0
   11.9385  -16.6711   23.2274 C   0  0  0  0  0  0  0  0  0  0  0  0
   12.2219  -17.4859   22.0333 C   0  0  0  0  0  0  0  0  0  0  0  0
   11.3118  -18.2900   21.3566 C   0  0  0  0  0  0  0  0  0  0  0  0
   11.9532  -18.8744   20.3144 N   0  0  0  0  0  0  0  0  0  0  0  0
   13.2185  -18.4620   20.3241 C   0  0  0  0  0  0  0  0  0  0  0  0
   13.3783  -17.6210   21.3664 N   0  0  0  0  0  0  0  0  0  0  0  0
   10.0745  -15.7546   24.5227 C   0  0  0  0  0  0  0  0  0  0  0  0
    9.7307  -14.5218   24.6293 O   0  0  0  0  0  0  0  0  0  0  0  0
    9.9684  -16.4937   25.6650 O   0  0  0  0  0  0  0  0  0  0  0  0
  2  3  2  0
  2  1  1  0
  4  2  1  0
  5  4  1  0
  6  5  1  0
  6  8  1  0
  6  7  1  6
  8  9  2  0
  8 10  1  0
 10 14  1  0
 10 11  1  0
 11 12  1  0
 13 12  1  0
 14 13  1  0
 15 16  2  0
 14 15  1  1
 17 15  1  0
 18 17  1  0
 18 25  1  0
 18 19  1  1
 20 24  1  0
 20 19  1  0
 21 20  2  0
 22 21  1  0
 22 23  1  0
 23 24  2  0
 25 27  1  0
 26 25  2  0
M  END
$$$$
