QPH.pdb
     RDKit          3D

 27 28  0  0  1  0  0  0  0  0999 V2000
    6.7958  -20.3702   18.7746 N   0  0  0  0  0  0  0  0  0  0  0  0
    6.4731  -19.2157   18.0313 C   0  0  0  0  0  0  0  0  0  0  0  0
    5.2879  -19.0282   17.6898 O   0  0  0  0  0  0  0  0  0  0  0  0
    7.5448  -18.2768   17.6885 C   0  0  0  0  0  0  0  0  0  0  0  0
    7.0836  -16.9872   17.0606 C   0  0  0  0  0  0  0  0  0  0  0  0
    8.2097  -16.0366   16.8377 C   0  0  2  0  0  0  0  0  0  0  0  0
    9.1330  -16.6963   15.9231 N   0  0  0  0  0  0  0  0  0  0  0  0
    8.9040  -15.5937   18.0662 C   0  0  0  0  0  0  0  0  0  0  0  0
    9.9910  -16.1858   18.3962 O   0  0  0  0  0  0  0  0  0  0  0  0
    8.4701  -14.5538   18.9274 N   0  0  0  0  0  0  0  0  0  0  0  0
    7.3165  -13.7318   18.6328 C   0  0  0  0  0  0  0  0  0  0  0  0
    7.5705  -12.4458   19.4199 C   0  0  0  0  0  0  0  0  0  0  0  0
    8.1887  -13.0240   20.6760 C   0  0  0  0  0  0  0  0  0  0  0  0
    9.0377  -14.1306   20.1459 C   0  0  1  0  0  0  0  0  0  0  0  0
    9.2265  -15.2218   21.1420 C   0  0  0  0  0  0  0  0  0  0  0  0
    8.3243  -16.0771   21.2539 O   0  0  0  0  0  0  0  0  0  0  0  0
   10.3895  -15.3007   21.9460 N   0  0  0  0  0  0  0  0  0  0  0  0
   10.6129  -16.3616   22.9203 C   0  0  1  0  0  0  0  0  0  0  0  0
   11.5797  -17.3803   22.4310 C   0  0  0  0  0  0  0  0  0  0  0  0
   11.7784  -18.4242   23.4513 C   0  0  0  0  0  0  0  0  0  0  0  0
   10.8076  -18.9206   24.3139 C   0  0  0  0  0  0  0  0  0  0  0  0
   11.3797  -19.8667   25.0990 N   0  0  0  0  0  0  0  0  0  0  0  0
   12.6608  -19.9710   24.7536 C   0  0  0  0  0  0  0  0  0  0  0  0
   12.8994  -19.0961   23.7553 N   0  0  0  0  0  0  0  0  0  0  0  0
   10.9860  -15.8348   24.2339 C   0  0  0  0  0  0  0  0  0  0  0  0
   11.5462  -14.6793   24.2543 O   0  0  0  0  0  0  0  0  0  0  0  0
   10.8103  -16.4227   25.4529 O   0  0  0  0  0  0  0  0  0  0  0  0
  2  3  2  0
  2  1  1  0
  4  2  1  0
  5  4  1  0
  6  5  1  0
  6  8  1  0
  6  7  1  6
  8  9  2  0
  8 10  1  0
 10 14  1  0
 10 11  1  0
 11 12  1  0
 13 12  1  0
 14 13  1  0
 15 16  2  0
 14 15  1  1
 17 15  1  0
 18 17  1  0
 18 25  1  0
 18 19  1  6
 20 24  1  0
 20 19  1  0
 21 20  2  0
 22 21  1  0
 22 23  1  0
 23 24  2  0
 25 27  1  0
 26 25  2  0
M  END
$$$$
