QPH.pdb
     RDKit          3D

 27 28  0  0  1  0  0  0  0  0999 V2000
    7.5172  -19.3231   15.3155 N   0  0  0  0  0  0  0  0  0  0  0  0
    7.3948  -18.3783   14.2753 C   0  0  0  0  0  0  0  0  0  0  0  0
    6.9176  -18.7418   13.1814 O   0  0  0  0  0  0  0  0  0  0  0  0
    7.8325  -17.0014   14.5200 C   0  0  0  0  0  0  0  0  0  0  0  0
    8.3841  -16.7449   15.8984 C   0  0  0  0  0  0  0  0  0  0  0  0
    8.8013  -15.3258   16.0815 C   0  0  2  0  0  0  0  0  0  0  0  0
    9.7767  -15.0432   15.0362 N   0  0  0  0  0  0  0  0  0  0  0  0
    9.3463  -15.0038   17.4182 C   0  0  0  0  0  0  0  0  0  0  0  0
   10.5017  -15.4614   17.7291 O   0  0  0  0  0  0  0  0  0  0  0  0
    8.6963  -14.2195   18.4050 N   0  0  0  0  0  0  0  0  0  0  0  0
    7.5258  -13.4202   18.1151 C   0  0  0  0  0  0  0  0  0  0  0  0
    7.5411  -12.3397   19.1968 C   0  0  0  0  0  0  0  0  0  0  0  0
    8.0218  -13.1568   20.3780 C   0  0  0  0  0  0  0  0  0  0  0  0
    9.0388  -14.0588   19.7625 C   0  0  1  0  0  0  0  0  0  0  0  0
    9.1824  -15.3386   20.5108 C   0  0  0  0  0  0  0  0  0  0  0  0
    8.7431  -16.3803   19.9818 O   0  0  0  0  0  0  0  0  0  0  0  0
    9.7966  -15.3889   21.7857 N   0  0  0  0  0  0  0  0  0  0  0  0
   10.5187  -16.5565   22.2756 C   0  0  1  0  0  0  0  0  0  0  0  0
   11.5700  -17.0075   21.3250 C   0  0  0  0  0  0  0  0  0  0  0  0
   12.2255  -18.2253   21.8323 C   0  0  0  0  0  0  0  0  0  0  0  0
   11.7688  -19.0281   22.8714 C   0  0  0  0  0  0  0  0  0  0  0  0
   12.6454  -20.0495   23.0369 N   0  0  0  0  0  0  0  0  0  0  0  0
   13.6205  -19.9061   22.1424 C   0  0  0  0  0  0  0  0  0  0  0  0
   13.3634  -18.8004   21.4142 N   0  0  0  0  0  0  0  0  0  0  0  0
   11.0476  -16.3521   23.6249 C   0  0  0  0  0  0  0  0  0  0  0  0
   11.6768  -15.2529   23.8376 O   0  0  0  0  0  0  0  0  0  0  0  0
   10.9540  -17.1909   24.6973 O   0  0  0  0  0  0  0  0  0  0  0  0
  2  3  2  0
  2  1  1  0
  4  2  1  0
  5  4  1  0
  6  5  1  0
  6  8  1  0
  6  7  1  6
  8  9  2  0
  8 10  1  0
 10 14  1  0
 10 11  1  0
 11 12  1  0
 13 12  1  0
 14 13  1  0
 15 16  2  0
 14 15  1  1
 17 15  1  0
 18 17  1  0
 18 25  1  0
 18 19  1  6
 20 24  1  0
 20 19  1  0
 21 20  2  0
 22 21  1  0
 22 23  1  0
 23 24  2  0
 25 27  1  0
 26 25  2  0
M  END
$$$$
