QPH.pdb
     RDKit          3D

 27 28  0  0  1  0  0  0  0  0999 V2000
    6.2254  -17.7442   24.7879 N   0  0  0  0  0  0  0  0  0  0  0  0
    7.2978  -18.2096   23.9988 C   0  0  0  0  0  0  0  0  0  0  0  0
    7.9414  -19.2076   24.3813 O   0  0  0  0  0  0  0  0  0  0  0  0
    7.6156  -17.5024   22.7553 C   0  0  0  0  0  0  0  0  0  0  0  0
    6.7665  -16.2888   22.4792 C   0  0  0  0  0  0  0  0  0  0  0  0
    7.5813  -15.0453   22.3730 C   0  0  2  0  0  0  0  0  0  0  0  0
    8.6144  -15.3113   21.3801 N   0  0  0  0  0  0  0  0  0  0  0  0
    8.1741  -14.5779   23.6449 C   0  0  0  0  0  0  0  0  0  0  0  0
    9.4069  -14.8413   23.8730 O   0  0  0  0  0  0  0  0  0  0  0  0
    7.4914  -13.8504   24.6528 N   0  0  0  0  0  0  0  0  0  0  0  0
    6.1995  -13.2387   24.4293 C   0  0  0  0  0  0  0  0  0  0  0  0
    6.1374  -12.1198   25.4695 C   0  0  0  0  0  0  0  0  0  0  0  0
    6.8164  -12.8070   26.6360 C   0  0  0  0  0  0  0  0  0  0  0  0
    7.9054  -13.5823   25.9729 C   0  0  1  0  0  0  0  0  0  0  0  0
    8.2871  -14.7942   26.7502 C   0  0  0  0  0  0  0  0  0  0  0  0
    7.6555  -15.8499   26.5392 O   0  0  0  0  0  0  0  0  0  0  0  0
    9.3332  -14.7660   27.7041 N   0  0  0  0  0  0  0  0  0  0  0  0
    9.7622  -15.9426   28.4498 C   0  0  1  0  0  0  0  0  0  0  0  0
   10.2866  -17.0125   27.5596 C   0  0  0  0  0  0  0  0  0  0  0  0
   11.4498  -16.5190   26.8022 C   0  0  0  0  0  0  0  0  0  0  0  0
   12.0598  -15.2792   26.9555 C   0  0  0  0  0  0  0  0  0  0  0  0
   13.0931  -15.2022   26.0806 N   0  0  0  0  0  0  0  0  0  0  0  0
   13.1419  -16.3434   25.3975 C   0  0  0  0  0  0  0  0  0  0  0  0
   12.1454  -17.1390   25.8367 N   0  0  0  0  0  0  0  0  0  0  0  0
   10.7034  -15.6056   29.5189 C   0  0  0  0  0  0  0  0  0  0  0  0
   11.1644  -16.5840   30.2114 O   0  0  0  0  0  0  0  0  0  0  0  0
   11.1587  -14.3694   29.8751 O   0  0  0  0  0  0  0  0  0  0  0  0
  2  3  2  0
  2  1  1  0
  4  2  1  0
  5  4  1  0
  6  5  1  0
  6  8  1  0
  6  7  1  6
  8  9  2  0
  8 10  1  0
 10 14  1  0
 10 11  1  0
 11 12  1  0
 13 12  1  0
 14 13  1  0
 15 16  2  0
 14 15  1  1
 17 15  1  0
 18 17  1  0
 18 25  1  0
 18 19  1  6
 20 24  1  0
 20 19  1  0
 21 20  2  0
 22 21  1  0
 22 23  1  0
 23 24  2  0
 25 27  1  0
 26 25  2  0
M  END
$$$$
