QPH.pdb
     RDKit          3D

 27 28  0  0  1  0  0  0  0  0999 V2000
    7.1959  -19.6951   17.1623 N   0  0  0  0  0  0  0  0  0  0  0  0
    7.1384  -19.1701   15.8544 C   0  0  0  0  0  0  0  0  0  0  0  0
    6.8630  -19.9345   14.9077 O   0  0  0  0  0  0  0  0  0  0  0  0
    7.4035  -17.7425   15.6567 C   0  0  0  0  0  0  0  0  0  0  0  0
    7.6672  -16.9639   16.9193 C   0  0  0  0  0  0  0  0  0  0  0  0
    8.5058  -15.7571   16.6704 C   0  0  2  0  0  0  0  0  0  0  0  0
    9.4492  -16.1184   15.6199 N   0  0  0  0  0  0  0  0  0  0  0  0
    9.2103  -15.2314   17.8599 C   0  0  0  0  0  0  0  0  0  0  0  0
   10.3735  -15.6950   18.1306 O   0  0  0  0  0  0  0  0  0  0  0  0
    8.7083  -14.2422   18.7435 N   0  0  0  0  0  0  0  0  0  0  0  0
    7.6003  -13.3797   18.3951 C   0  0  0  0  0  0  0  0  0  0  0  0
    7.7933  -12.1539   19.2884 C   0  0  0  0  0  0  0  0  0  0  0  0
    8.2779  -12.8260   20.5563 C   0  0  0  0  0  0  0  0  0  0  0  0
    9.1597  -13.9120   20.0370 C   0  0  1  0  0  0  0  0  0  0  0  0
    9.2354  -15.0701   20.9705 C   0  0  0  0  0  0  0  0  0  0  0  0
    8.2532  -15.8376   21.0347 O   0  0  0  0  0  0  0  0  0  0  0  0
   10.3809  -15.3075   21.7685 N   0  0  0  0  0  0  0  0  0  0  0  0
   10.4668  -16.3966   22.7334 C   0  0  1  0  0  0  0  0  0  0  0  0
   10.1716  -17.7181   22.1179 C   0  0  0  0  0  0  0  0  0  0  0  0
   11.1451  -18.0113   21.0519 C   0  0  0  0  0  0  0  0  0  0  0  0
   12.1474  -17.1594   20.6021 C   0  0  0  0  0  0  0  0  0  0  0  0
   12.8312  -17.7903   19.6155 N   0  0  0  0  0  0  0  0  0  0  0  0
   12.2898  -18.9937   19.4419 C   0  0  0  0  0  0  0  0  0  0  0  0
   11.2687  -19.1247   20.3133 N   0  0  0  0  0  0  0  0  0  0  0  0
   11.7413  -16.3970   23.4530 C   0  0  0  0  0  0  0  0  0  0  0  0
   12.5881  -15.4880   23.1274 O   0  0  0  0  0  0  0  0  0  0  0  0
   12.1468  -17.2501   24.4381 O   0  0  0  0  0  0  0  0  0  0  0  0
  2  3  2  0
  2  1  1  0
  4  2  1  0
  5  4  1  0
  6  5  1  0
  6  8  1  0
  6  7  1  6
  8  9  2  0
  8 10  1  0
 10 14  1  0
 10 11  1  0
 11 12  1  0
 13 12  1  0
 14 13  1  0
 15 16  2  0
 14 15  1  1
 17 15  1  0
 18 17  1  0
 18 25  1  0
 18 19  1  6
 20 24  1  0
 20 19  1  0
 21 20  2  0
 22 21  1  0
 22 23  1  0
 23 24  2  0
 25 27  1  0
 26 25  2  0
M  END
$$$$
