QPH.pdb
     RDKit          3D

 27 28  0  0  1  0  0  0  0  0999 V2000
   12.9817  -19.1128   18.7959 N   0  0  0  0  0  0  0  0  0  0  0  0
   13.0964  -18.3923   17.5888 C   0  0  0  0  0  0  0  0  0  0  0  0
   13.6650  -18.9284   16.6163 O   0  0  0  0  0  0  0  0  0  0  0  0
   12.5405  -17.0380   17.5218 C   0  0  0  0  0  0  0  0  0  0  0  0
   11.8483  -16.5721   18.7764 C   0  0  0  0  0  0  0  0  0  0  0  0
   11.7667  -15.0859   18.8541 C   0  0  2  0  0  0  0  0  0  0  0  0
   13.1387  -14.5946   18.8321 N   0  0  0  0  0  0  0  0  0  0  0  0
   11.0334  -14.5624   20.0270 C   0  0  0  0  0  0  0  0  0  0  0  0
   11.6608  -14.4604   21.1393 O   0  0  0  0  0  0  0  0  0  0  0  0
    9.6753  -14.1539   20.0334 N   0  0  0  0  0  0  0  0  0  0  0  0
    8.8893  -14.0510   18.8231 C   0  0  0  0  0  0  0  0  0  0  0  0
    7.7887  -13.0526   19.1830 C   0  0  0  0  0  0  0  0  0  0  0  0
    7.5142  -13.4679   20.6135 C   0  0  0  0  0  0  0  0  0  0  0  0
    8.8778  -13.7795   21.1333 C   0  0  1  0  0  0  0  0  0  0  0  0
    8.8451  -14.7840   22.2326 C   0  0  0  0  0  0  0  0  0  0  0  0
    8.9869  -15.9873   21.9327 O   0  0  0  0  0  0  0  0  0  0  0  0
    8.6594  -14.4014   23.5833 N   0  0  0  0  0  0  0  0  0  0  0  0
    8.7349  -15.3418   24.6944 C   0  0  1  0  0  0  0  0  0  0  0  0
    8.8525  -14.6531   26.0074 C   0  0  0  0  0  0  0  0  0  0  0  0
    7.6881  -13.7783   26.2288 C   0  0  0  0  0  0  0  0  0  0  0  0
    7.6836  -12.3896   26.1630 C   0  0  0  0  0  0  0  0  0  0  0  0
    6.4262  -11.9552   26.4261 N   0  0  0  0  0  0  0  0  0  0  0  0
    5.6597  -13.0199   26.6504 C   0  0  0  0  0  0  0  0  0  0  0  0
    6.4267  -14.1227   26.5302 N   0  0  0  0  0  0  0  0  0  0  0  0
    7.6349  -16.3073   24.6759 C   0  0  0  0  0  0  0  0  0  0  0  0
    6.6347  -16.0280   23.9204 O   0  0  0  0  0  0  0  0  0  0  0  0
    7.5383  -17.4802   25.3667 O   0  0  0  0  0  0  0  0  0  0  0  0
  2  3  2  0
  2  1  1  0
  4  2  1  0
  5  4  1  0
  6  5  1  0
  6  8  1  0
  6  7  1  1
  8  9  2  0
  8 10  1  0
 10 14  1  0
 10 11  1  0
 11 12  1  0
 13 12  1  0
 14 13  1  0
 15 16  2  0
 14 15  1  1
 17 15  1  0
 18 17  1  0
 18 25  1  0
 18 19  1  1
 20 24  1  0
 20 19  1  0
 21 20  2  0
 22 21  1  0
 22 23  1  0
 23 24  2  0
 25 27  1  0
 26 25  2  0
M  END
$$$$
