QPH.pdb
     RDKit          3D

 27 28  0  0  1  0  0  0  0  0999 V2000
    7.3882  -18.5393   17.9997 N   0  0  0  0  0  0  0  0  0  0  0  0
    8.7464  -18.6243   17.6285 C   0  0  0  0  0  0  0  0  0  0  0  0
    9.4302  -19.5781   18.0516 O   0  0  0  0  0  0  0  0  0  0  0  0
    9.3039  -17.5871   16.7562 C   0  0  0  0  0  0  0  0  0  0  0  0
    8.3372  -16.5011   16.3614 C   0  0  0  0  0  0  0  0  0  0  0  0
    8.9058  -15.1394   16.5707 C   0  0  2  0  0  0  0  0  0  0  0  0
    9.9907  -14.9918   15.6088 N   0  0  0  0  0  0  0  0  0  0  0  0
    9.3740  -14.8640   17.9464 C   0  0  0  0  0  0  0  0  0  0  0  0
   10.6093  -15.0660   18.2191 O   0  0  0  0  0  0  0  0  0  0  0  0
    8.5669  -14.3867   19.0104 N   0  0  0  0  0  0  0  0  0  0  0  0
    7.1622  -14.0832   18.8441 C   0  0  0  0  0  0  0  0  0  0  0  0
    6.8672  -13.0824   19.9618 C   0  0  0  0  0  0  0  0  0  0  0  0
    7.7192  -13.6665   21.0695 C   0  0  0  0  0  0  0  0  0  0  0  0
    8.9416  -14.1173   20.3420 C   0  0  1  0  0  0  0  0  0  0  0  0
    9.6172  -15.2542   21.0272 C   0  0  0  0  0  0  0  0  0  0  0  0
    9.2248  -16.4110   20.7708 O   0  0  0  0  0  0  0  0  0  0  0  0
   10.6750  -15.0456   21.9452 N   0  0  0  0  0  0  0  0  0  0  0  0
   11.4009  -16.1362   22.5840 C   0  0  1  0  0  0  0  0  0  0  0  0
   12.8366  -15.8093   22.7942 C   0  0  0  0  0  0  0  0  0  0  0  0
   13.5325  -16.9505   23.4136 C   0  0  0  0  0  0  0  0  0  0  0  0
   12.9359  -17.9814   24.1306 C   0  0  0  0  0  0  0  0  0  0  0  0
   13.9078  -18.8358   24.5360 N   0  0  0  0  0  0  0  0  0  0  0  0
   15.0754  -18.3715   24.0973 C   0  0  0  0  0  0  0  0  0  0  0  0
   14.8450  -17.2294   23.4178 N   0  0  0  0  0  0  0  0  0  0  0  0
   10.7519  -16.5832   23.8174 C   0  0  0  0  0  0  0  0  0  0  0  0
   11.3061  -17.5605   24.4396 O   0  0  0  0  0  0  0  0  0  0  0  0
    9.6207  -16.0857   24.3965 O   0  0  0  0  0  0  0  0  0  0  0  0
  2  3  2  0
  2  1  1  0
  4  2  1  0
  5  4  1  0
  6  5  1  0
  6  8  1  0
  6  7  1  6
  8  9  2  0
  8 10  1  0
 10 14  1  0
 10 11  1  0
 11 12  1  0
 13 12  1  0
 14 13  1  0
 15 16  2  0
 14 15  1  1
 17 15  1  0
 18 17  1  0
 18 25  1  0
 18 19  1  1
 20 24  1  0
 20 19  1  0
 21 20  2  0
 22 21  1  0
 22 23  1  0
 23 24  2  0
 25 27  1  0
 26 25  2  0
M  END
$$$$
