QPH.pdb
     RDKit          3D

 27 28  0  0  1  0  0  0  0  0999 V2000
    6.0070  -20.1743   18.1823 N   0  0  0  0  0  0  0  0  0  0  0  0
    6.0001  -19.7207   16.8467 C   0  0  0  0  0  0  0  0  0  0  0  0
    5.3996  -20.3917   15.9833 O   0  0  0  0  0  0  0  0  0  0  0  0
    6.6993  -18.4741   16.5232 C   0  0  0  0  0  0  0  0  0  0  0  0
    7.3465  -17.7851   17.6964 C   0  0  0  0  0  0  0  0  0  0  0  0
    8.0765  -16.5507   17.2903 C   0  0  2  0  0  0  0  0  0  0  0  0
    8.9483  -16.9303   16.1858 N   0  0  0  0  0  0  0  0  0  0  0  0
    8.8435  -15.8958   18.3721 C   0  0  0  0  0  0  0  0  0  0  0  0
    9.9753  -16.3967   18.7029 O   0  0  0  0  0  0  0  0  0  0  0  0
    8.4348  -14.7423   19.0889 N   0  0  0  0  0  0  0  0  0  0  0  0
    7.4080  -13.8477   18.6006 C   0  0  0  0  0  0  0  0  0  0  0  0
    7.7128  -12.5219   19.2986 C   0  0  0  0  0  0  0  0  0  0  0  0
    8.1381  -13.0330   20.6596 C   0  0  0  0  0  0  0  0  0  0  0  0
    8.9172  -14.2599   20.3219 C   0  0  1  0  0  0  0  0  0  0  0  0
    8.8907  -15.2639   21.4219 C   0  0  0  0  0  0  0  0  0  0  0  0
    7.8599  -15.9534   21.5626 O   0  0  0  0  0  0  0  0  0  0  0  0
    9.9942  -15.4430   22.2910 N   0  0  0  0  0  0  0  0  0  0  0  0
    9.9616  -16.3316   23.4459 C   0  0  1  0  0  0  0  0  0  0  0  0
    9.7042  -17.7451   23.0612 C   0  0  0  0  0  0  0  0  0  0  0  0
   10.8208  -18.2631   22.2519 C   0  0  0  0  0  0  0  0  0  0  0  0
   11.7535  -17.4988   21.5601 C   0  0  0  0  0  0  0  0  0  0  0  0
   12.6176  -18.3403   20.9402 N   0  0  0  0  0  0  0  0  0  0  0  0
   12.2533  -19.5887   21.2233 C   0  0  0  0  0  0  0  0  0  0  0  0
   11.1647  -19.5388   22.0179 N   0  0  0  0  0  0  0  0  0  0  0  0
   11.1570  -16.1970   24.2797 C   0  0  0  0  0  0  0  0  0  0  0  0
   11.1687  -16.8558   25.3821 O   0  0  0  0  0  0  0  0  0  0  0  0
   12.2731  -15.4527   24.0297 O   0  0  0  0  0  0  0  0  0  0  0  0
  2  3  2  0
  2  1  1  0
  4  2  1  0
  5  4  1  0
  6  5  1  0
  6  8  1  0
  6  7  1  6
  8  9  2  0
  8 10  1  0
 10 14  1  0
 10 11  1  0
 11 12  1  0
 13 12  1  0
 14 13  1  0
 15 16  2  0
 14 15  1  1
 17 15  1  0
 18 17  1  0
 18 25  1  0
 18 19  1  6
 20 24  1  0
 20 19  1  0
 21 20  2  0
 22 21  1  0
 22 23  1  0
 23 24  2  0
 25 27  1  0
 26 25  2  0
M  END
$$$$
