QPH.pdb
     RDKit          3D

 27 28  0  0  1  0  0  0  0  0999 V2000
    6.9133  -19.2184   15.8648 N   0  0  0  0  0  0  0  0  0  0  0  0
    7.7259  -19.3093   17.0141 C   0  0  0  0  0  0  0  0  0  0  0  0
    7.9840  -20.4356   17.4846 O   0  0  0  0  0  0  0  0  0  0  0  0
    8.2390  -18.0742   17.6130 C   0  0  0  0  0  0  0  0  0  0  0  0
    7.8663  -16.8106   16.8820 C   0  0  0  0  0  0  0  0  0  0  0  0
    8.9744  -15.8139   16.8817 C   0  0  2  0  0  0  0  0  0  0  0  0
   10.0820  -16.4270   16.1595 N   0  0  0  0  0  0  0  0  0  0  0  0
    9.4019  -15.3565   18.2217 C   0  0  0  0  0  0  0  0  0  0  0  0
   10.4422  -15.8925   18.7429 O   0  0  0  0  0  0  0  0  0  0  0  0
    8.7552  -14.3600   18.9963 N   0  0  0  0  0  0  0  0  0  0  0  0
    7.7266  -13.4998   18.4531 C   0  0  0  0  0  0  0  0  0  0  0  0
    7.7631  -12.2668   19.3565 C   0  0  0  0  0  0  0  0  0  0  0  0
    8.0177  -12.9288   20.6948 C   0  0  0  0  0  0  0  0  0  0  0  0
    8.9746  -14.0194   20.3460 C   0  0  1  0  0  0  0  0  0  0  0  0
    8.8841  -15.1699   21.2876 C   0  0  0  0  0  0  0  0  0  0  0  0
    8.1126  -16.1071   20.9970 O   0  0  0  0  0  0  0  0  0  0  0  0
    9.6442  -15.2144   22.4815 N   0  0  0  0  0  0  0  0  0  0  0  0
    9.5414  -16.2983   23.4505 C   0  0  1  0  0  0  0  0  0  0  0  0
    9.7887  -17.6292   22.8342 C   0  0  0  0  0  0  0  0  0  0  0  0
   11.1814  -17.7203   22.3629 C   0  0  0  0  0  0  0  0  0  0  0  0
   12.0039  -16.6504   22.0290 C   0  0  0  0  0  0  0  0  0  0  0  0
   13.2071  -17.1429   21.6429 N   0  0  0  0  0  0  0  0  0  0  0  0
   13.1562  -18.4702   21.7262 C   0  0  0  0  0  0  0  0  0  0  0  0
   11.9281  -18.8171   22.1626 N   0  0  0  0  0  0  0  0  0  0  0  0
   10.3844  -16.0704   24.6251 C   0  0  0  0  0  0  0  0  0  0  0  0
   11.1167  -15.0155   24.6138 O   0  0  0  0  0  0  0  0  0  0  0  0
   10.4902  -16.8455   25.7433 O   0  0  0  0  0  0  0  0  0  0  0  0
  2  3  2  0
  2  1  1  0
  4  2  1  0
  5  4  1  0
  6  5  1  0
  6  8  1  0
  6  7  1  1
  8  9  2  0
  8 10  1  0
 10 14  1  0
 10 11  1  0
 11 12  1  0
 13 12  1  0
 14 13  1  0
 15 16  2  0
 14 15  1  1
 17 15  1  0
 18 17  1  0
 18 25  1  0
 18 19  1  6
 20 24  1  0
 20 19  1  0
 21 20  2  0
 22 21  1  0
 22 23  1  0
 23 24  2  0
 25 27  1  0
 26 25  2  0
M  END
$$$$
