GYA.pdb
     RDKit          3D

 22 22  0  0  1  0  0  0  0  0999 V2000
   25.3780  -20.6728  -17.4287 N   0  0  0  0  0  0  0  0  0  0  0  0
   25.1202  -21.8948  -16.7340 C   0  0  0  0  0  0  0  0  0  0  0  0
   25.9222  -23.0349  -17.2957 C   0  0  0  0  0  0  0  0  0  0  0  0
   26.5856  -22.8543  -18.3375 O   0  0  0  0  0  0  0  0  0  0  0  0
   30.5640  -30.3877  -18.2682 O   0  0  0  0  0  0  0  0  0  0  0  0
   29.8054  -29.3370  -17.7521 C   0  0  0  0  0  0  0  0  0  0  0  0
   28.7377  -29.5959  -16.9021 C   0  0  0  0  0  0  0  0  0  0  0  0
   28.0287  -28.5130  -16.4269 C   0  0  0  0  0  0  0  0  0  0  0  0
   28.3326  -27.2086  -16.7563 C   0  0  0  0  0  0  0  0  0  0  0  0
   27.5041  -26.1291  -16.1878 C   0  0  0  0  0  0  0  0  0  0  0  0
   26.6395  -25.4558  -17.2408 C   0  0  2  0  0  0  0  0  0  0  0  0
   25.9536  -24.3058  -16.6877 N   0  0  0  0  0  0  0  0  0  0  0  0
   25.6012  -26.4907  -17.6055 C   0  0  0  0  0  0  0  0  0  0  0  0
   24.7161  -26.7632  -16.7561 O   0  0  0  0  0  0  0  0  0  0  0  0
   29.4014  -26.9622  -17.6064 C   0  0  0  0  0  0  0  0  0  0  0  0
   30.1081  -28.0401  -18.0801 C   0  0  0  0  0  0  0  0  0  0  0  0
   24.4822  -28.0776  -20.8167 C   0  0  0  0  0  0  0  0  0  0  0  0
   24.6508  -28.0273  -19.3202 C   0  0  2  0  0  0  0  0  0  0  0  0
   25.6450  -27.1138  -18.8593 N   0  0  0  0  0  0  0  0  0  0  0  0
   24.7943  -29.3709  -18.7057 C   0  0  0  0  0  0  0  0  0  0  0  0
   23.9209  -30.0846  -18.2265 O   0  0  0  0  0  0  0  0  0  0  0  0
   26.1068  -29.8845  -18.6732 O   0  0  0  0  0  0  0  0  0  0  0  0
  1  2  1  0
  2  3  1  0
  3 12  1  0
  3  4  2  0
  6  5  1  0
  7  6  2  0
  8  7  1  0
  9  8  2  0
  9 15  1  0
 10  9  1  0
 11 10  1  1
 11 13  1  0
 12 11  1  0
 13 19  1  0
 14 13  2  0
 15 16  2  0
 16  6  1  0
 18 20  1  0
 18 17  1  6
 19 18  1  0
 20 22  1  0
 21 20  2  0
M  END
$$$$
