GYA.pdb
     RDKit          3D

 22 22  0  0  1  0  0  0  0  0999 V2000
   24.5168  -25.6212  -14.9347 N   0  0  0  0  0  0  0  0  0  0  0  0
   25.0922  -24.3140  -14.9849 C   0  0  0  0  0  0  0  0  0  0  0  0
   24.0528  -23.2411  -14.8208 C   0  0  0  0  0  0  0  0  0  0  0  0
   22.8469  -23.5630  -14.8002 O   0  0  0  0  0  0  0  0  0  0  0  0
   24.2616  -21.3258   -8.0861 O   0  0  0  0  0  0  0  0  0  0  0  0
   24.2152  -20.9410   -9.4261 C   0  0  0  0  0  0  0  0  0  0  0  0
   25.3445  -21.0549  -10.2268 C   0  0  0  0  0  0  0  0  0  0  0  0
   25.2316  -20.6572  -11.5422 C   0  0  0  0  0  0  0  0  0  0  0  0
   24.0641  -20.1605  -12.0830 C   0  0  0  0  0  0  0  0  0  0  0  0
   24.0601  -19.7660  -13.5040 C   0  0  0  0  0  0  0  0  0  0  0  0
   23.4361  -20.8299  -14.3920 C   0  0  2  0  0  0  0  0  0  0  0  0
   24.3898  -21.8792  -14.6889 N   0  0  0  0  0  0  0  0  0  0  0  0
   23.1109  -20.1129  -15.6812 C   0  0  0  0  0  0  0  0  0  0  0  0
   23.9801  -20.1074  -16.5887 O   0  0  0  0  0  0  0  0  0  0  0  0
   22.9423  -20.0513  -11.2734 C   0  0  0  0  0  0  0  0  0  0  0  0
   23.0538  -20.4472   -9.9632 C   0  0  0  0  0  0  0  0  0  0  0  0
   21.3835  -20.1338  -18.1706 C   0  0  0  0  0  0  0  0  0  0  0  0
   21.3457  -19.0748  -17.0993 C   0  0  2  0  0  0  0  0  0  0  0  0
   21.8705  -19.4808  -15.8363 N   0  0  0  0  0  0  0  0  0  0  0  0
   20.0182  -18.4227  -16.9728 C   0  0  0  0  0  0  0  0  0  0  0  0
   19.4924  -17.6161  -17.7310 O   0  0  0  0  0  0  0  0  0  0  0  0
   19.2733  -18.7829  -15.8313 O   0  0  0  0  0  0  0  0  0  0  0  0
  1  2  1  0
  2  3  1  0
  3 12  1  0
  3  4  2  0
  6  5  1  0
  7  6  2  0
  8  7  1  0
  9  8  2  0
  9 15  1  0
 10  9  1  0
 11 10  1  1
 11 13  1  0
 12 11  1  0
 13 19  1  0
 14 13  2  0
 15 16  2  0
 16  6  1  0
 18 20  1  0
 18 17  1  6
 19 18  1  0
 20 22  1  0
 21 20  2  0
M  END
$$$$
