GYA.pdb
     RDKit          3D

 22 22  0  0  1  0  0  0  0  0999 V2000
   18.9903  -10.5113  -15.2864 N   0  0  0  0  0  0  0  0  0  0  0  0
   19.7781   -9.6653  -16.1266 C   0  0  0  0  0  0  0  0  0  0  0  0
   19.6062   -8.2145  -15.7745 C   0  0  0  0  0  0  0  0  0  0  0  0
   18.4552   -7.7665  -15.5936 O   0  0  0  0  0  0  0  0  0  0  0  0
   18.3787   -6.7980   -9.3833 O   0  0  0  0  0  0  0  0  0  0  0  0
   19.1127   -6.5062  -10.5329 C   0  0  0  0  0  0  0  0  0  0  0  0
   20.1594   -7.3317  -10.9237 C   0  0  0  0  0  0  0  0  0  0  0  0
   20.8446   -6.9872  -12.0695 C   0  0  0  0  0  0  0  0  0  0  0  0
   20.5373   -5.8767  -12.8277 C   0  0  0  0  0  0  0  0  0  0  0  0
   21.3395   -5.6065  -14.0353 C   0  0  0  0  0  0  0  0  0  0  0  0
   20.5805   -5.9309  -15.3114 C   0  0  2  0  0  0  0  0  0  0  0  0
   20.7004   -7.3367  -15.6403 N   0  0  0  0  0  0  0  0  0  0  0  0
   21.2805   -5.1357  -16.3883 C   0  0  0  0  0  0  0  0  0  0  0  0
   22.3831   -5.5624  -16.8142 O   0  0  0  0  0  0  0  0  0  0  0  0
   19.4896   -5.0594  -12.4275 C   0  0  0  0  0  0  0  0  0  0  0  0
   18.8066   -5.4018  -11.2864 C   0  0  0  0  0  0  0  0  0  0  0  0
   20.3307   -2.1771  -18.5528 C   0  0  0  0  0  0  0  0  0  0  0  0
   21.2682   -3.1776  -17.9278 C   0  0  2  0  0  0  0  0  0  0  0  0
   20.6975   -3.9612  -16.8810 N   0  0  0  0  0  0  0  0  0  0  0  0
   22.5739   -2.5876  -17.5400 C   0  0  0  0  0  0  0  0  0  0  0  0
   22.9719   -2.2932  -16.4189 O   0  0  0  0  0  0  0  0  0  0  0  0
   23.4645   -2.3368  -18.6037 O   0  0  0  0  0  0  0  0  0  0  0  0
  1  2  1  0
  2  3  1  0
  3 12  1  0
  3  4  2  0
  6  5  1  0
  7  6  2  0
  8  7  1  0
  9  8  2  0
  9 15  1  0
 10  9  1  0
 11 10  1  1
 11 13  1  0
 12 11  1  0
 13 19  1  0
 14 13  2  0
 15 16  2  0
 16  6  1  0
 18 20  1  0
 18 17  1  1
 19 18  1  0
 20 22  1  0
 21 20  2  0
M  END
$$$$
