GYA.pdb
     RDKit          3D

 22 22  0  0  1  0  0  0  0  0999 V2000
   21.7867  -22.4546   -6.4452 N   0  0  0  0  0  0  0  0  0  0  0  0
   23.1196  -22.6246   -6.9320 C   0  0  0  0  0  0  0  0  0  0  0  0
   23.5027  -21.5390   -7.8980 C   0  0  0  0  0  0  0  0  0  0  0  0
   22.6710  -20.6492   -8.1713 O   0  0  0  0  0  0  0  0  0  0  0  0
   28.8207  -18.9861   -4.4404 O   0  0  0  0  0  0  0  0  0  0  0  0
   28.2949  -19.3201   -5.6885 C   0  0  0  0  0  0  0  0  0  0  0  0
   27.4305  -18.4494   -6.3398 C   0  0  0  0  0  0  0  0  0  0  0  0
   26.9462  -18.8394   -7.5705 C   0  0  0  0  0  0  0  0  0  0  0  0
   27.2803  -20.0368   -8.1680 C   0  0  0  0  0  0  0  0  0  0  0  0
   26.7011  -20.3490   -9.4879 C   0  0  0  0  0  0  0  0  0  0  0  0
   25.1859  -20.4553   -9.4376 C   0  0  2  0  0  0  0  0  0  0  0  0
   24.7711  -21.4876   -8.5097 N   0  0  0  0  0  0  0  0  0  0  0  0
   24.7839  -20.8858  -10.8288 C   0  0  0  0  0  0  0  0  0  0  0  0
   25.2989  -21.9335  -11.2939 O   0  0  0  0  0  0  0  0  0  0  0  0
   28.1448  -20.8985   -7.5079 C   0  0  0  0  0  0  0  0  0  0  0  0
   28.6275  -20.5109   -6.2822 C   0  0  0  0  0  0  0  0  0  0  0  0
   22.8254  -21.9002  -12.9286 C   0  0  0  0  0  0  0  0  0  0  0  0
   23.3723  -20.4987  -12.8441 C   0  0  2  0  0  0  0  0  0  0  0  0
   23.8628  -20.1232  -11.5581 N   0  0  0  0  0  0  0  0  0  0  0  0
   22.4545  -19.4810  -13.4145 C   0  0  0  0  0  0  0  0  0  0  0  0
   22.0263  -18.4620  -12.8852 O   0  0  0  0  0  0  0  0  0  0  0  0
   22.0251  -19.7256  -14.7349 O   0  0  0  0  0  0  0  0  0  0  0  0
  1  2  1  0
  2  3  1  0
  3 12  1  0
  3  4  2  0
  6  5  1  0
  7  6  2  0
  8  7  1  0
  9  8  2  0
  9 15  1  0
 10  9  1  0
 11 10  1  6
 11 13  1  0
 12 11  1  0
 13 19  1  0
 14 13  2  0
 15 16  2  0
 16  6  1  0
 18 20  1  0
 18 17  1  1
 19 18  1  0
 20 22  1  0
 21 20  2  0
M  END
$$$$
