GYA.pdb
     RDKit          3D

 22 22  0  0  1  0  0  0  0  0999 V2000
   24.9404  -25.7351  -15.4385 N   0  0  0  0  0  0  0  0  0  0  0  0
   25.6130  -24.4772  -15.5259 C   0  0  0  0  0  0  0  0  0  0  0  0
   24.6708  -23.3257  -15.3143 C   0  0  0  0  0  0  0  0  0  0  0  0
   23.4406  -23.5353  -15.3443 O   0  0  0  0  0  0  0  0  0  0  0  0
   24.1363  -21.1546   -8.4604 O   0  0  0  0  0  0  0  0  0  0  0  0
   24.3317  -20.8408   -9.8053 C   0  0  0  0  0  0  0  0  0  0  0  0
   25.5899  -20.9718  -10.3793 C   0  0  0  0  0  0  0  0  0  0  0  0
   25.7154  -20.6452  -11.7130 C   0  0  0  0  0  0  0  0  0  0  0  0
   24.6610  -20.2023  -12.4840 C   0  0  0  0  0  0  0  0  0  0  0  0
   24.9129  -19.8820  -13.9013 C   0  0  0  0  0  0  0  0  0  0  0  0
   24.2550  -20.8803  -14.8397 C   0  0  2  0  0  0  0  0  0  0  0  0
   25.1259  -22.0124  -15.0823 N   0  0  0  0  0  0  0  0  0  0  0  0
   24.0854  -20.1315  -16.1407 C   0  0  0  0  0  0  0  0  0  0  0  0
   25.1203  -19.8255  -16.7845 O   0  0  0  0  0  0  0  0  0  0  0  0
   23.4087  -20.0754  -11.8998 C   0  0  0  0  0  0  0  0  0  0  0  0
   23.2828  -20.4004  -10.5715 C   0  0  0  0  0  0  0  0  0  0  0  0
   22.4566  -19.8785  -19.0413 C   0  0  0  0  0  0  0  0  0  0  0  0
   22.5566  -19.0527  -17.7849 C   0  0  2  0  0  0  0  0  0  0  0  0
   22.8024  -19.7998  -16.5946 N   0  0  0  0  0  0  0  0  0  0  0  0
   21.4321  -18.0969  -17.6262 C   0  0  0  0  0  0  0  0  0  0  0  0
   20.6205  -18.0235  -16.7108 O   0  0  0  0  0  0  0  0  0  0  0  0
   21.2860  -17.1562  -18.6661 O   0  0  0  0  0  0  0  0  0  0  0  0
  1  2  1  0
  2  3  1  0
  3 12  1  0
  3  4  2  0
  6  5  1  0
  7  6  2  0
  8  7  1  0
  9  8  2  0
  9 15  1  0
 10  9  1  0
 11 10  1  1
 11 13  1  0
 12 11  1  0
 13 19  1  0
 14 13  2  0
 15 16  2  0
 16  6  1  0
 18 20  1  0
 18 17  1  6
 19 18  1  0
 20 22  1  0
 21 20  2  0
M  END
$$$$
