GYA.pdb
     RDKit          3D

 22 22  0  0  1  0  0  0  0  0999 V2000
   22.7885  -11.6843  -19.1077 N   0  0  0  0  0  0  0  0  0  0  0  0
   21.6428  -11.2589  -19.8486 C   0  0  0  0  0  0  0  0  0  0  0  0
   20.7368  -10.3895  -19.0230 C   0  0  0  0  0  0  0  0  0  0  0  0
   19.6064  -10.0988  -19.4657 O   0  0  0  0  0  0  0  0  0  0  0  0
   16.3144  -14.1082  -16.0290 O   0  0  0  0  0  0  0  0  0  0  0  0
   17.2359  -13.0675  -15.9130 C   0  0  0  0  0  0  0  0  0  0  0  0
   16.7979  -11.7586  -15.7567 C   0  0  0  0  0  0  0  0  0  0  0  0
   17.7600  -10.7769  -15.6480 C   0  0  0  0  0  0  0  0  0  0  0  0
   19.1135  -11.0389  -15.6876 C   0  0  0  0  0  0  0  0  0  0  0  0
   20.0520   -9.9084  -15.5612 C   0  0  0  0  0  0  0  0  0  0  0  0
   20.2310   -9.1634  -16.8737 C   0  0  2  0  0  0  0  0  0  0  0  0
   21.1169   -9.8879  -17.7621 N   0  0  0  0  0  0  0  0  0  0  0  0
   20.9068   -7.8675  -16.4916 C   0  0  0  0  0  0  0  0  0  0  0  0
   22.1297   -7.9022  -16.2043 O   0  0  0  0  0  0  0  0  0  0  0  0
   19.5393  -12.3504  -15.8441 C   0  0  0  0  0  0  0  0  0  0  0  0
   18.5818  -13.3288  -15.9525 C   0  0  0  0  0  0  0  0  0  0  0  0
   19.8462   -4.2251  -16.4811 C   0  0  0  0  0  0  0  0  0  0  0  0
   20.7486   -5.3988  -16.2005 C   0  0  2  0  0  0  0  0  0  0  0  0
   20.1708   -6.6759  -16.4659 N   0  0  0  0  0  0  0  0  0  0  0  0
   21.3833   -5.3369  -14.8601 C   0  0  0  0  0  0  0  0  0  0  0  0
   21.2092   -6.0806  -13.9017 O   0  0  0  0  0  0  0  0  0  0  0  0
   22.3029   -4.2846  -14.6739 O   0  0  0  0  0  0  0  0  0  0  0  0
  1  2  1  0
  2  3  1  0
  3 12  1  0
  3  4  2  0
  6  5  1  0
  7  6  2  0
  8  7  1  0
  9  8  2  0
  9 15  1  0
 10  9  1  0
 11 10  1  1
 11 13  1  0
 12 11  1  0
 13 19  1  0
 14 13  2  0
 15 16  2  0
 16  6  1  0
 18 20  1  0
 18 17  1  1
 19 18  1  0
 20 22  1  0
 21 20  2  0
M  END
$$$$
