GYA.pdb
     RDKit          3D

 22 22  0  0  1  0  0  0  0  0999 V2000
   27.0346    5.2938  -11.0637 N   0  0  0  0  0  0  0  0  0  0  0  0
   27.7797    4.7679   -9.9634 C   0  0  0  0  0  0  0  0  0  0  0  0
   26.8895    4.4178   -8.8043 C   0  0  0  0  0  0  0  0  0  0  0  0
   25.9999    5.2222   -8.4583 O   0  0  0  0  0  0  0  0  0  0  0  0
   21.6864    1.2636  -11.3506 O   0  0  0  0  0  0  0  0  0  0  0  0
   22.6592    1.2912  -10.3514 C   0  0  0  0  0  0  0  0  0  0  0  0
   24.0048    1.1906  -10.6812 C   0  0  0  0  0  0  0  0  0  0  0  0
   24.9154    1.2245   -9.6464 C   0  0  0  0  0  0  0  0  0  0  0  0
   24.5492    1.3520   -8.3227 C   0  0  0  0  0  0  0  0  0  0  0  0
   25.6108    1.3767   -7.2993 C   0  0  0  0  0  0  0  0  0  0  0  0
   26.1217    2.7840   -7.0381 C   0  0  2  0  0  0  0  0  0  0  0  0
   27.0219    3.2102   -8.0903 N   0  0  0  0  0  0  0  0  0  0  0  0
   26.9155    2.6738   -5.7575 C   0  0  0  0  0  0  0  0  0  0  0  0
   28.0655    2.1709   -5.8178 O   0  0  0  0  0  0  0  0  0  0  0  0
   23.2020    1.4517   -8.0053 C   0  0  0  0  0  0  0  0  0  0  0  0
   22.2944    1.4180   -9.0353 C   0  0  0  0  0  0  0  0  0  0  0  0
   26.5195    4.0995   -2.2846 C   0  0  0  0  0  0  0  0  0  0  0  0
   27.0849    3.1634   -3.3212 C   0  0  2  0  0  0  0  0  0  0  0  0
   26.3642    3.1259   -4.5518 N   0  0  0  0  0  0  0  0  0  0  0  0
   27.3601    1.8050   -2.7896 C   0  0  0  0  0  0  0  0  0  0  0  0
   26.7646    0.7606   -3.0280 O   0  0  0  0  0  0  0  0  0  0  0  0
   28.4473    1.7131   -1.8969 O   0  0  0  0  0  0  0  0  0  0  0  0
  1  2  1  0
  2  3  1  0
  3 12  1  0
  3  4  2  0
  6  5  1  0
  7  6  2  0
  8  7  1  0
  9  8  2  0
  9 15  1  0
 10  9  1  0
 11 10  1  6
 11 13  1  0
 12 11  1  0
 13 19  1  0
 14 13  2  0
 15 16  2  0
 16  6  1  0
 18 20  1  0
 18 17  1  1
 19 18  1  0
 20 22  1  0
 21 20  2  0
M  END
$$$$
