GYA.pdb
     RDKit          3D

 22 22  0  0  1  0  0  0  0  0999 V2000
   20.7632   -9.3704  -19.1032 N   0  0  0  0  0  0  0  0  0  0  0  0
   20.4737   -7.9713  -19.0714 C   0  0  0  0  0  0  0  0  0  0  0  0
   20.4283   -7.4435  -17.6651 C   0  0  0  0  0  0  0  0  0  0  0  0
   19.7383   -8.0424  -16.8145 O   0  0  0  0  0  0  0  0  0  0  0  0
   25.2453  -10.4474  -14.9535 O   0  0  0  0  0  0  0  0  0  0  0  0
   24.5603   -9.2366  -15.0548 C   0  0  0  0  0  0  0  0  0  0  0  0
   24.9584   -8.2823  -15.9823 C   0  0  0  0  0  0  0  0  0  0  0  0
   24.2390   -7.1070  -16.0313 C   0  0  0  0  0  0  0  0  0  0  0  0
   23.1608   -6.8474  -15.2113 C   0  0  0  0  0  0  0  0  0  0  0  0
   22.4660   -5.5542  -15.3526 C   0  0  0  0  0  0  0  0  0  0  0  0
   21.0743   -5.7134  -15.9423 C   0  0  2  0  0  0  0  0  0  0  0  0
   21.1386   -6.2928  -17.2686 N   0  0  0  0  0  0  0  0  0  0  0  0
   20.5474   -4.3035  -16.0712 C   0  0  0  0  0  0  0  0  0  0  0  0
   20.9990   -3.5876  -17.0000 O   0  0  0  0  0  0  0  0  0  0  0  0
   22.7722   -7.8082  -14.2885 C   0  0  0  0  0  0  0  0  0  0  0  0
   23.4881   -8.9790  -14.2390 C   0  0  0  0  0  0  0  0  0  0  0  0
   17.5980   -2.4754  -14.5981 C   0  0  0  0  0  0  0  0  0  0  0  0
   18.9213   -2.5764  -15.3116 C   0  0  2  0  0  0  0  0  0  0  0  0
   19.5843   -3.8317  -15.1702 N   0  0  0  0  0  0  0  0  0  0  0  0
   19.8222   -1.4305  -15.0309 C   0  0  0  0  0  0  0  0  0  0  0  0
   20.9561   -1.4513  -14.5665 O   0  0  0  0  0  0  0  0  0  0  0  0
   19.2986   -0.1589  -15.3414 O   0  0  0  0  0  0  0  0  0  0  0  0
  1  2  1  0
  2  3  1  0
  3 12  1  0
  3  4  2  0
  6  5  1  0
  7  6  2  0
  8  7  1  0
  9  8  2  0
  9 15  1  0
 10  9  1  0
 11 10  1  6
 11 13  1  0
 12 11  1  0
 13 19  1  0
 14 13  2  0
 15 16  2  0
 16  6  1  0
 18 20  1  0
 18 17  1  1
 19 18  1  0
 20 22  1  0
 21 20  2  0
M  END
$$$$
