GYA.pdb
     RDKit          3D

 22 22  0  0  1  0  0  0  0  0999 V2000
   20.5421  -11.1584  -16.6890 N   0  0  0  0  0  0  0  0  0  0  0  0
   19.2174  -11.6849  -16.5877 C   0  0  0  0  0  0  0  0  0  0  0  0
   18.1907  -10.5929  -16.4786 C   0  0  0  0  0  0  0  0  0  0  0  0
   17.2915  -10.5175  -17.3411 O   0  0  0  0  0  0  0  0  0  0  0  0
   12.5514  -12.6451  -13.4854 O   0  0  0  0  0  0  0  0  0  0  0  0
   13.5522  -11.6774  -13.5737 C   0  0  0  0  0  0  0  0  0  0  0  0
   14.8328  -11.9502  -13.1100 C   0  0  0  0  0  0  0  0  0  0  0  0
   15.7755  -10.9509  -13.2266 C   0  0  0  0  0  0  0  0  0  0  0  0
   15.5017   -9.7153  -13.7750 C   0  0  0  0  0  0  0  0  0  0  0  0
   16.5898   -8.7225  -13.8483 C   0  0  0  0  0  0  0  0  0  0  0  0
   17.1892   -8.6318  -15.2420 C   0  0  2  0  0  0  0  0  0  0  0  0
   18.2049   -9.6467  -15.4344 N   0  0  0  0  0  0  0  0  0  0  0  0
   17.8626   -7.2801  -15.2841 C   0  0  0  0  0  0  0  0  0  0  0  0
   18.9976   -7.1699  -14.7563 O   0  0  0  0  0  0  0  0  0  0  0  0
   14.2188   -9.4542  -14.2349 C   0  0  0  0  0  0  0  0  0  0  0  0
   13.2792  -10.4489  -14.1191 C   0  0  0  0  0  0  0  0  0  0  0  0
   17.0757   -3.9311  -16.8757 C   0  0  0  0  0  0  0  0  0  0  0  0
   17.7463   -4.8715  -15.9080 C   0  0  2  0  0  0  0  0  0  0  0  0
   17.2205   -6.1977  -15.8990 N   0  0  0  0  0  0  0  0  0  0  0  0
   17.8709   -4.3073  -14.5406 C   0  0  0  0  0  0  0  0  0  0  0  0
   17.3540   -4.7068  -13.5037 O   0  0  0  0  0  0  0  0  0  0  0  0
   18.6907   -3.1658  -14.4293 O   0  0  0  0  0  0  0  0  0  0  0  0
  1  2  1  0
  2  3  1  0
  3 12  1  0
  3  4  2  0
  6  5  1  0
  7  6  2  0
  8  7  1  0
  9  8  2  0
  9 15  1  0
 10  9  1  0
 11 10  1  1
 11 13  1  0
 12 11  1  0
 13 19  1  0
 14 13  2  0
 15 16  2  0
 16  6  1  0
 18 20  1  0
 18 17  1  6
 19 18  1  0
 20 22  1  0
 21 20  2  0
M  END
$$$$
