GYA.pdb
     RDKit          3D

 22 22  0  0  1  0  0  0  0  0999 V2000
   41.5030   -4.1252    3.0431 N   0  0  0  0  0  0  0  0  0  0  0  0
   40.5278   -3.0846    3.1360 C   0  0  0  0  0  0  0  0  0  0  0  0
   39.3425   -3.3513    2.2515 C   0  0  0  0  0  0  0  0  0  0  0  0
   39.4448   -4.1968    1.3389 O   0  0  0  0  0  0  0  0  0  0  0  0
   36.2803   -8.0153    5.4922 O   0  0  0  0  0  0  0  0  0  0  0  0
   36.1450   -6.8277    4.7733 C   0  0  0  0  0  0  0  0  0  0  0  0
   36.0514   -6.8548    3.3876 C   0  0  0  0  0  0  0  0  0  0  0  0
   35.9193   -5.6461    2.7374 C   0  0  0  0  0  0  0  0  0  0  0  0
   35.8773   -4.4352    3.3964 C   0  0  0  0  0  0  0  0  0  0  0  0
   35.7333   -3.2046    2.5966 C   0  0  0  0  0  0  0  0  0  0  0  0
   36.9135   -2.9863    1.6642 C   0  0  2  0  0  0  0  0  0  0  0  0
   38.1144   -2.6797    2.4143 N   0  0  0  0  0  0  0  0  0  0  0  0
   36.5428   -1.7669    0.8532 C   0  0  0  0  0  0  0  0  0  0  0  0
   36.6462   -0.6405    1.4006 O   0  0  0  0  0  0  0  0  0  0  0  0
   35.9718   -4.4205    4.7808 C   0  0  0  0  0  0  0  0  0  0  0  0
   36.1034   -5.6239    5.4292 C   0  0  0  0  0  0  0  0  0  0  0  0
   35.6558   -1.1633   -2.7810 C   0  0  0  0  0  0  0  0  0  0  0  0
   35.7912   -0.8133   -1.3217 C   0  0  2  0  0  0  0  0  0  0  0  0
   36.0999   -1.9136   -0.4676 N   0  0  0  0  0  0  0  0  0  0  0  0
   34.6558   -0.0058   -0.8096 C   0  0  0  0  0  0  0  0  0  0  0  0
   33.8118   -0.3222    0.0207 O   0  0  0  0  0  0  0  0  0  0  0  0
   34.5410    1.2899   -1.3531 O   0  0  0  0  0  0  0  0  0  0  0  0
  1  2  1  0
  2  3  1  0
  3 12  1  0
  3  4  2  0
  6  5  1  0
  7  6  2  0
  8  7  1  0
  9  8  2  0
  9 15  1  0
 10  9  1  0
 11 10  1  1
 11 13  1  0
 12 11  1  0
 13 19  1  0
 14 13  2  0
 15 16  2  0
 16  6  1  0
 18 20  1  0
 18 17  1  6
 19 18  1  0
 20 22  1  0
 21 20  2  0
M  END
$$$$
