GYA.pdb
     RDKit          3D

 22 22  0  0  1  0  0  0  0  0999 V2000
   20.2001   -9.0091  -21.0147 N   0  0  0  0  0  0  0  0  0  0  0  0
   20.2524   -7.7033  -20.4362 C   0  0  0  0  0  0  0  0  0  0  0  0
   20.0435   -7.7441  -18.9486 C   0  0  0  0  0  0  0  0  0  0  0  0
   18.9158   -8.0400  -18.5025 O   0  0  0  0  0  0  0  0  0  0  0  0
   21.0099  -13.8962  -17.3588 O   0  0  0  0  0  0  0  0  0  0  0  0
   21.2529  -12.5636  -17.0264 C   0  0  0  0  0  0  0  0  0  0  0  0
   20.6993  -12.0168  -15.8757 C   0  0  0  0  0  0  0  0  0  0  0  0
   20.9785  -10.6940  -15.6047 C   0  0  0  0  0  0  0  0  0  0  0  0
   21.7704   -9.9082  -16.4157 C   0  0  0  0  0  0  0  0  0  0  0  0
   22.0007   -8.5047  -16.0259 C   0  0  0  0  0  0  0  0  0  0  0  0
   20.9453   -7.5715  -16.5959 C   0  0  2  0  0  0  0  0  0  0  0  0
   21.0773   -7.4597  -18.0343 N   0  0  0  0  0  0  0  0  0  0  0  0
   21.2561   -6.2231  -15.9899 C   0  0  0  0  0  0  0  0  0  0  0  0
   22.1815   -5.5451  -16.5027 O   0  0  0  0  0  0  0  0  0  0  0  0
   22.3180  -10.4654  -17.5626 C   0  0  0  0  0  0  0  0  0  0  0  0
   22.0405  -11.7827  -17.8334 C   0  0  0  0  0  0  0  0  0  0  0  0
   19.5334   -3.9846  -13.4859 C   0  0  0  0  0  0  0  0  0  0  0  0
   20.6994   -4.4758  -14.3043 C   0  0  2  0  0  0  0  0  0  0  0  0
   20.5203   -5.7644  -14.8897 N   0  0  0  0  0  0  0  0  0  0  0  0
   21.9985   -4.3560  -13.5960 C   0  0  0  0  0  0  0  0  0  0  0  0
   22.6238   -5.2273  -13.0029 O   0  0  0  0  0  0  0  0  0  0  0  0
   22.5807   -3.0722  -13.6125 O   0  0  0  0  0  0  0  0  0  0  0  0
  1  2  1  0
  2  3  1  0
  3 12  1  0
  3  4  2  0
  6  5  1  0
  7  6  2  0
  8  7  1  0
  9  8  2  0
  9 15  1  0
 10  9  1  0
 11 10  1  1
 11 13  1  0
 12 11  1  0
 13 19  1  0
 14 13  2  0
 15 16  2  0
 16  6  1  0
 18 20  1  0
 18 17  1  1
 19 18  1  0
 20 22  1  0
 21 20  2  0
M  END
$$$$
