GYA.pdb
     RDKit          3D

 22 22  0  0  1  0  0  0  0  0999 V2000
   31.5682  -22.2438  -10.0589 N   0  0  0  0  0  0  0  0  0  0  0  0
   30.7340  -21.0993  -10.2509 C   0  0  0  0  0  0  0  0  0  0  0  0
   29.2878  -21.4140   -9.9905 C   0  0  0  0  0  0  0  0  0  0  0  0
   28.9353  -22.6073   -9.8902 O   0  0  0  0  0  0  0  0  0  0  0  0
   28.5679  -20.2164   -3.3551 O   0  0  0  0  0  0  0  0  0  0  0  0
   28.0352  -20.0637   -4.6352 C   0  0  0  0  0  0  0  0  0  0  0  0
   27.0091  -20.8929   -5.0700 C   0  0  0  0  0  0  0  0  0  0  0  0
   26.5273  -20.6896   -6.3458 C   0  0  0  0  0  0  0  0  0  0  0  0
   27.0150  -19.7142   -7.1903 C   0  0  0  0  0  0  0  0  0  0  0  0
   26.4224  -19.5884   -8.5348 C   0  0  0  0  0  0  0  0  0  0  0  0
   26.9313  -20.6578   -9.4873 C   0  0  2  0  0  0  0  0  0  0  0  0
   28.3103  -20.4082   -9.8548 N   0  0  0  0  0  0  0  0  0  0  0  0
   26.0806  -20.5059  -10.7264 C   0  0  0  0  0  0  0  0  0  0  0  0
   26.2675  -19.4958  -11.4501 O   0  0  0  0  0  0  0  0  0  0  0  0
   28.0402  -18.8918   -6.7449 C   0  0  0  0  0  0  0  0  0  0  0  0
   28.5207  -19.0936   -5.4744 C   0  0  0  0  0  0  0  0  0  0  0  0
   24.1618  -22.5891  -13.0269 C   0  0  0  0  0  0  0  0  0  0  0  0
   24.2231  -21.3703  -12.1430 C   0  0  2  0  0  0  0  0  0  0  0  0
   25.1191  -21.4758  -11.0378 N   0  0  0  0  0  0  0  0  0  0  0  0
   22.8828  -20.8800  -11.7348 C   0  0  0  0  0  0  0  0  0  0  0  0
   22.4562  -20.6887  -10.6019 O   0  0  0  0  0  0  0  0  0  0  0  0
   21.9927  -20.6009  -12.7918 O   0  0  0  0  0  0  0  0  0  0  0  0
  1  2  1  0
  2  3  1  0
  3 12  1  0
  3  4  2  0
  6  5  1  0
  7  6  2  0
  8  7  1  0
  9  8  2  0
  9 15  1  0
 10  9  1  0
 11 10  1  1
 11 13  1  0
 12 11  1  0
 13 19  1  0
 14 13  2  0
 15 16  2  0
 16  6  1  0
 18 20  1  0
 18 17  1  1
 19 18  1  0
 20 22  1  0
 21 20  2  0
M  END
$$$$
