GYA.pdb
     RDKit          3D

 22 22  0  0  1  0  0  0  0  0999 V2000
   27.5570  -11.8121  -16.7448 N   0  0  0  0  0  0  0  0  0  0  0  0
   26.8189  -10.8239  -16.0231 C   0  0  0  0  0  0  0  0  0  0  0  0
   25.8228  -10.1206  -16.9015 C   0  0  0  0  0  0  0  0  0  0  0  0
   26.1125   -9.9073  -18.0968 O   0  0  0  0  0  0  0  0  0  0  0  0
   22.4815  -14.5653  -20.2477 O   0  0  0  0  0  0  0  0  0  0  0  0
   22.4265  -13.3911  -19.4969 C   0  0  0  0  0  0  0  0  0  0  0  0
   22.3048  -13.4490  -18.1144 C   0  0  0  0  0  0  0  0  0  0  0  0
   22.2560  -12.2521  -17.4316 C   0  0  0  0  0  0  0  0  0  0  0  0
   22.3221  -11.0239  -18.0557 C   0  0  0  0  0  0  0  0  0  0  0  0
   22.2604   -9.8084  -17.2229 C   0  0  0  0  0  0  0  0  0  0  0  0
   23.5682   -9.0345  -17.2415 C   0  0  2  0  0  0  0  0  0  0  0  0
   24.5684   -9.6909  -16.4244 N   0  0  0  0  0  0  0  0  0  0  0  0
   23.2384   -7.7060  -16.6025 C   0  0  0  0  0  0  0  0  0  0  0  0
   23.2466   -7.6367  -15.3478 O   0  0  0  0  0  0  0  0  0  0  0  0
   22.4437  -10.9785  -19.4373 C   0  0  0  0  0  0  0  0  0  0  0  0
   22.4923  -12.1701  -20.1182 C   0  0  0  0  0  0  0  0  0  0  0  0
   22.7283   -4.1797  -17.8697 C   0  0  0  0  0  0  0  0  0  0  0  0
   22.6076   -5.3129  -16.8838 C   0  0  2  0  0  0  0  0  0  0  0  0
   22.9361   -6.5992  -17.4061 N   0  0  0  0  0  0  0  0  0  0  0  0
   21.3136   -5.3155  -16.1565 C   0  0  0  0  0  0  0  0  0  0  0  0
   20.3919   -6.1180  -16.2482 O   0  0  0  0  0  0  0  0  0  0  0  0
   21.1294   -4.2556  -15.2453 O   0  0  0  0  0  0  0  0  0  0  0  0
  1  2  1  0
  2  3  1  0
  3 12  1  0
  3  4  2  0
  6  5  1  0
  7  6  2  0
  8  7  1  0
  9  8  2  0
  9 15  1  0
 10  9  1  0
 11 10  1  1
 11 13  1  0
 12 11  1  0
 13 19  1  0
 14 13  2  0
 15 16  2  0
 16  6  1  0
 18 20  1  0
 18 17  1  6
 19 18  1  0
 20 22  1  0
 21 20  2  0
M  END
$$$$
