GYA.pdb
     RDKit          3D

 22 22  0  0  1  0  0  0  0  0999 V2000
   24.1995  -38.5538   -7.9141 N   0  0  0  0  0  0  0  0  0  0  0  0
   24.1315  -37.5043   -6.9465 C   0  0  0  0  0  0  0  0  0  0  0  0
   25.4984  -37.0163   -6.5568 C   0  0  0  0  0  0  0  0  0  0  0  0
   26.4645  -37.2526   -7.3111 O   0  0  0  0  0  0  0  0  0  0  0  0
   25.4971  -31.6182   -9.6442 O   0  0  0  0  0  0  0  0  0  0  0  0
   25.8371  -32.2575   -8.4520 C   0  0  0  0  0  0  0  0  0  0  0  0
   27.0809  -32.8596   -8.3103 C   0  0  0  0  0  0  0  0  0  0  0  0
   27.3542  -33.4743   -7.1068 C   0  0  0  0  0  0  0  0  0  0  0  0
   26.4583  -33.5139   -6.0589 C   0  0  0  0  0  0  0  0  0  0  0  0
   26.8597  -34.2004   -4.8169 C   0  0  0  0  0  0  0  0  0  0  0  0
   27.0027  -35.7008   -5.0126 C   0  0  2  0  0  0  0  0  0  0  0  0
   25.7315  -36.2989   -5.3666 N   0  0  0  0  0  0  0  0  0  0  0  0
   27.4083  -36.2288   -3.6566 C   0  0  0  0  0  0  0  0  0  0  0  0
   26.5062  -36.4132   -2.8014 O   0  0  0  0  0  0  0  0  0  0  0  0
   25.2188  -32.9090   -6.2120 C   0  0  0  0  0  0  0  0  0  0  0  0
   24.9457  -32.2965   -7.4103 C   0  0  0  0  0  0  0  0  0  0  0  0
   30.6486  -37.5510   -2.1935 C   0  0  0  0  0  0  0  0  0  0  0  0
   29.2106  -37.1012   -2.1751 C   0  0  2  0  0  0  0  0  0  0  0  0
   28.7560  -36.4972   -3.3850 N   0  0  0  0  0  0  0  0  0  0  0  0
   28.8705  -36.2896   -0.9797 C   0  0  0  0  0  0  0  0  0  0  0  0
   28.6588  -36.6740    0.1646 O   0  0  0  0  0  0  0  0  0  0  0  0
   28.7814  -34.8996   -1.1972 O   0  0  0  0  0  0  0  0  0  0  0  0
  1  2  1  0
  2  3  1  0
  3 12  1  0
  3  4  2  0
  6  5  1  0
  7  6  2  0
  8  7  1  0
  9  8  2  0
  9 15  1  0
 10  9  1  0
 11 10  1  1
 11 13  1  0
 12 11  1  0
 13 19  1  0
 14 13  2  0
 15 16  2  0
 16  6  1  0
 18 20  1  0
 18 17  1  6
 19 18  1  0
 20 22  1  0
 21 20  2  0
M  END
$$$$
