DPQ.pdb
     RDKit          3D

 25 25  0  0  1  0  0  0  0  0999 V2000
    8.4892  -14.2796   21.2883 N   0  0  0  0  0  0  0  0  0  0  0  0
    7.5523  -14.1908   22.3819 C   0  0  1  0  0  0  0  0  0  0  0  0
    6.5681  -15.3647   22.3081 C   0  0  0  0  0  0  0  0  0  0  0  0
    7.3144  -16.6329   22.1385 C   0  0  0  0  0  0  0  0  0  0  0  0
    6.6605  -17.7032   22.0985 O   0  0  0  0  0  0  0  0  0  0  0  0
    8.1335  -14.0710   23.7106 C   0  0  0  0  0  0  0  0  0  0  0  0
    9.2645  -14.5583   23.9195 O   0  0  0  0  0  0  0  0  0  0  0  0
    8.6950  -16.6772   22.0238 O   0  0  0  0  0  0  0  0  0  0  0  0
    7.4522  -13.4102   24.7990 N   0  0  0  0  0  0  0  0  0  0  0  0
    6.2546  -12.6635   24.5996 C   0  0  0  0  0  0  0  0  0  0  0  0
    5.9512  -12.0157   25.9307 C   0  0  0  0  0  0  0  0  0  0  0  0
    6.6746  -12.8722   26.9413 C   0  0  0  0  0  0  0  0  0  0  0  0
    7.8443  -13.4001   26.1631 C   0  0  1  0  0  0  0  0  0  0  0  0
    8.2744  -14.7281   26.6879 C   0  0  0  0  0  0  0  0  0  0  0  0
    7.7903  -15.8241   26.4034 O   0  0  0  0  0  0  0  0  0  0  0  0
   12.4645  -17.8176   25.3439 N   0  0  0  0  0  0  0  0  0  0  0  0
   12.7756  -16.4818   25.7218 C   0  0  0  0  0  0  0  0  0  0  0  0
   13.7659  -15.8991   25.2302 O   0  0  0  0  0  0  0  0  0  0  0  0
   11.9327  -15.7259   26.7183 C   0  0  0  0  0  0  0  0  0  0  0  0
   10.8116  -16.5901   27.1658 C   0  0  0  0  0  0  0  0  0  0  0  0
    9.9077  -15.9518   28.1802 C   0  0  2  0  0  0  0  0  0  0  0  0
    9.3543  -14.7074   27.6090 N   0  0  0  0  0  0  0  0  0  0  0  0
   10.6820  -15.5652   29.3736 C   0  0  0  0  0  0  0  0  0  0  0  0
   10.8233  -14.3288   29.6249 O   0  0  0  0  0  0  0  0  0  0  0  0
   11.2638  -16.4802   30.2396 O   0  0  0  0  0  0  0  0  0  0  0  0
  2  1  1  6
  2  3  1  0
  3  4  1  0
  4  8  1  0
  5  4  2  0
  6  2  1  0
  6  7  2  0
  9  6  1  0
 10  9  1  0
 11 10  1  0
 12 11  1  0
 12 13  1  0
 13  9  1  0
 14 22  1  0
 13 14  1  1
 15 14  2  0
 16 17  1  0
 17 19  1  0
 18 17  2  0
 20 19  1  0
 21 20  1  6
 21 22  1  0
 21 23  1  0
 23 25  1  0
 24 23  2  0
M  END
$$$$
