DPQ.pdb
     RDKit          3D

 25 25  0  0  1  0  0  0  0  0999 V2000
    9.9328  -15.3763   14.8864 N   0  0  0  0  0  0  0  0  0  0  0  0
    9.0401  -15.5919   15.9991 C   0  0  1  0  0  0  0  0  0  0  0  0
    8.5860  -17.0568   16.0134 C   0  0  0  0  0  0  0  0  0  0  0  0
    7.9948  -17.4097   14.7020 C   0  0  0  0  0  0  0  0  0  0  0  0
    6.7453  -17.3796   14.5891 O   0  0  0  0  0  0  0  0  0  0  0  0
    9.5367  -15.1796   17.3033 C   0  0  0  0  0  0  0  0  0  0  0  0
   10.6657  -15.5696   17.6688 O   0  0  0  0  0  0  0  0  0  0  0  0
    8.7660  -17.7681   13.6074 O   0  0  0  0  0  0  0  0  0  0  0  0
    8.7736  -14.3363   18.1932 N   0  0  0  0  0  0  0  0  0  0  0  0
    7.6037  -13.6452   17.7625 C   0  0  0  0  0  0  0  0  0  0  0  0
    7.1969  -12.7684   18.9240 C   0  0  0  0  0  0  0  0  0  0  0  0
    7.8257  -13.4230   20.1300 C   0  0  0  0  0  0  0  0  0  0  0  0
    9.0510  -14.0765   19.5607 C   0  0  1  0  0  0  0  0  0  0  0  0
    9.4236  -15.2846   20.3517 C   0  0  0  0  0  0  0  0  0  0  0  0
    8.9358  -16.4108   20.2494 O   0  0  0  0  0  0  0  0  0  0  0  0
   15.2233  -16.2920   21.9339 N   0  0  0  0  0  0  0  0  0  0  0  0
   14.6281  -15.7356   23.1002 C   0  0  0  0  0  0  0  0  0  0  0  0
   15.3419  -15.2866   24.0226 O   0  0  0  0  0  0  0  0  0  0  0  0
   13.1306  -15.6668   23.2669 C   0  0  0  0  0  0  0  0  0  0  0  0
   12.4774  -16.2004   22.0453 C   0  0  0  0  0  0  0  0  0  0  0  0
   10.9779  -16.2267   22.1090 C   0  0  2  0  0  0  0  0  0  0  0  0
   10.4475  -15.0988   21.3170 N   0  0  0  0  0  0  0  0  0  0  0  0
   10.5282  -16.0208   23.4978 C   0  0  0  0  0  0  0  0  0  0  0  0
   10.0720  -14.8807   23.8199 O   0  0  0  0  0  0  0  0  0  0  0  0
   10.5745  -17.0071   24.4728 O   0  0  0  0  0  0  0  0  0  0  0  0
  2  1  1  6
  2  3  1  0
  3  4  1  0
  4  8  1  0
  5  4  2  0
  6  2  1  0
  6  7  2  0
  9  6  1  0
 10  9  1  0
 11 10  1  0
 12 11  1  0
 12 13  1  0
 13  9  1  0
 14 22  1  0
 13 14  1  1
 15 14  2  0
 16 17  1  0
 17 19  1  0
 18 17  2  0
 20 19  1  0
 21 20  1  1
 21 22  1  0
 21 23  1  0
 23 25  1  0
 24 23  2  0
M  END
$$$$
