DPQ.pdb
     RDKit          3D

 25 25  0  0  1  0  0  0  0  0999 V2000
    9.5557  -17.2186   16.6616 N   0  0  0  0  0  0  0  0  0  0  0  0
    8.6002  -16.6868   17.6028 C   0  0  1  0  0  0  0  0  0  0  0  0
    7.6334  -17.7974   18.0319 C   0  0  0  0  0  0  0  0  0  0  0  0
    7.0974  -18.4840   16.8339 C   0  0  0  0  0  0  0  0  0  0  0  0
    6.2666  -17.8693   16.1221 O   0  0  0  0  0  0  0  0  0  0  0  0
    9.1583  -15.9970   18.7562 C   0  0  0  0  0  0  0  0  0  0  0  0
   10.1608  -16.4827   19.3216 O   0  0  0  0  0  0  0  0  0  0  0  0
    7.4779  -19.7679   16.4763 O   0  0  0  0  0  0  0  0  0  0  0  0
    8.5972  -14.7712   19.2738 N   0  0  0  0  0  0  0  0  0  0  0  0
    7.7313  -13.9483   18.4962 C   0  0  0  0  0  0  0  0  0  0  0  0
    7.4926  -12.7084   19.3263 C   0  0  0  0  0  0  0  0  0  0  0  0
    7.7806  -13.1412   20.7434 C   0  0  0  0  0  0  0  0  0  0  0  0
    8.8064  -14.2222   20.5658 C   0  0  1  0  0  0  0  0  0  0  0  0
    8.7271  -15.2158   21.6751 C   0  0  0  0  0  0  0  0  0  0  0  0
    7.7945  -15.9854   21.9087 O   0  0  0  0  0  0  0  0  0  0  0  0
   10.5961  -20.3072   22.9493 N   0  0  0  0  0  0  0  0  0  0  0  0
   11.4764  -19.4062   22.2881 C   0  0  0  0  0  0  0  0  0  0  0  0
   12.4564  -19.8372   21.6434 O   0  0  0  0  0  0  0  0  0  0  0  0
   11.2638  -17.9138   22.3387 C   0  0  0  0  0  0  0  0  0  0  0  0
   10.0051  -17.6236   23.0705 C   0  0  0  0  0  0  0  0  0  0  0  0
    9.9322  -16.2398   23.6476 C   0  0  2  0  0  0  0  0  0  0  0  0
    9.8510  -15.2656   22.5406 N   0  0  0  0  0  0  0  0  0  0  0  0
   11.1687  -15.9374   24.3913 C   0  0  0  0  0  0  0  0  0  0  0  0
   11.3500  -16.5035   25.5131 O   0  0  0  0  0  0  0  0  0  0  0  0
   12.1473  -15.0682   23.9305 O   0  0  0  0  0  0  0  0  0  0  0  0
  2  1  1  1
  2  3  1  0
  3  4  1  0
  4  8  1  0
  5  4  2  0
  6  2  1  0
  6  7  2  0
  9  6  1  0
 10  9  1  0
 11 10  1  0
 12 11  1  0
 12 13  1  0
 13  9  1  0
 14 22  1  0
 13 14  1  1
 15 14  2  0
 16 17  1  0
 17 19  1  0
 18 17  2  0
 20 19  1  0
 21 20  1  6
 21 22  1  0
 21 23  1  0
 23 25  1  0
 24 23  2  0
M  END
$$$$
