DPQ.pdb
     RDKit          3D

 25 25  0  0  1  0  0  0  0  0999 V2000
   13.1804  -14.0081   18.9696 N   0  0  0  0  0  0  0  0  0  0  0  0
   11.8452  -14.5546   18.9849 C   0  0  1  0  0  0  0  0  0  0  0  0
   11.8943  -16.0344   18.5848 C   0  0  0  0  0  0  0  0  0  0  0  0
   12.4509  -16.1645   17.2183 C   0  0  0  0  0  0  0  0  0  0  0  0
   13.6312  -16.5733   17.0970 O   0  0  0  0  0  0  0  0  0  0  0  0
   11.0932  -14.3646   20.2160 C   0  0  0  0  0  0  0  0  0  0  0  0
   11.6681  -14.5546   21.3086 O   0  0  0  0  0  0  0  0  0  0  0  0
   11.7209  -15.8538   16.0818 O   0  0  0  0  0  0  0  0  0  0  0  0
    9.7056  -13.9646   20.2240 N   0  0  0  0  0  0  0  0  0  0  0  0
    9.0415  -13.5141   19.0460 C   0  0  0  0  0  0  0  0  0  0  0  0
    7.6753  -13.0535   19.4986 C   0  0  0  0  0  0  0  0  0  0  0  0
    7.4433  -13.7812   20.8005 C   0  0  0  0  0  0  0  0  0  0  0  0
    8.8317  -13.9574   21.3424 C   0  0  1  0  0  0  0  0  0  0  0  0
    8.9169  -15.1774   22.1958 C   0  0  0  0  0  0  0  0  0  0  0  0
    9.0468  -16.3392   21.8084 O   0  0  0  0  0  0  0  0  0  0  0  0
    9.9212  -14.6471   28.5036 N   0  0  0  0  0  0  0  0  0  0  0  0
    8.8026  -14.0882   27.8253 C   0  0  0  0  0  0  0  0  0  0  0  0
    8.1699  -13.1342   28.3267 O   0  0  0  0  0  0  0  0  0  0  0  0
    8.3421  -14.6187   26.4905 C   0  0  0  0  0  0  0  0  0  0  0  0
    9.4203  -15.4475   25.8952 C   0  0  0  0  0  0  0  0  0  0  0  0
    9.0729  -16.0482   24.5642 C   0  0  2  0  0  0  0  0  0  0  0  0
    8.8385  -14.9580   23.5960 N   0  0  0  0  0  0  0  0  0  0  0  0
    7.8123  -16.8059   24.6661 C   0  0  0  0  0  0  0  0  0  0  0  0
    7.8166  -17.8968   25.3152 O   0  0  0  0  0  0  0  0  0  0  0  0
    6.6194  -16.3899   24.0920 O   0  0  0  0  0  0  0  0  0  0  0  0
  2  1  1  1
  2  3  1  0
  3  4  1  0
  4  8  1  0
  5  4  2  0
  6  2  1  0
  6  7  2  0
  9  6  1  0
 10  9  1  0
 11 10  1  0
 12 11  1  0
 12 13  1  0
 13  9  1  0
 14 22  1  0
 13 14  1  6
 15 14  2  0
 16 17  1  0
 17 19  1  0
 18 17  2  0
 20 19  1  0
 21 20  1  1
 21 22  1  0
 21 23  1  0
 23 25  1  0
 24 23  2  0
M  END
$$$$
