DPQ.pdb
     RDKit          3D

 25 25  0  0  1  0  0  0  0  0999 V2000
    6.7584  -18.6807   19.1516 N   0  0  0  0  0  0  0  0  0  0  0  0
    6.3251  -17.4614   19.7897 C   0  0  1  0  0  0  0  0  0  0  0  0
    5.0870  -17.7464   20.6488 C   0  0  0  0  0  0  0  0  0  0  0  0
    4.0574  -18.4284   19.8311 C   0  0  0  0  0  0  0  0  0  0  0  0
    4.3388  -18.7111   18.6412 O   0  0  0  0  0  0  0  0  0  0  0  0
    7.3396  -16.7431   20.5464 C   0  0  0  0  0  0  0  0  0  0  0  0
    8.1090  -17.3903   21.2877 O   0  0  0  0  0  0  0  0  0  0  0  0
    2.8077  -18.7613   20.3296 O   0  0  0  0  0  0  0  0  0  0  0  0
    7.4914  -15.3089   20.4740 N   0  0  0  0  0  0  0  0  0  0  0  0
    6.9148  -14.5394   19.4218 C   0  0  0  0  0  0  0  0  0  0  0  0
    7.4243  -13.1307   19.6200 C   0  0  0  0  0  0  0  0  0  0  0  0
    7.8056  -13.0686   21.0791 C   0  0  0  0  0  0  0  0  0  0  0  0
    8.1983  -14.4840   21.3874 C   0  0  1  0  0  0  0  0  0  0  0  0
    7.9484  -14.8029   22.8226 C   0  0  0  0  0  0  0  0  0  0  0  0
    6.8528  -14.8781   23.3801 O   0  0  0  0  0  0  0  0  0  0  0  0
    7.2733  -19.3769   25.0077 N   0  0  0  0  0  0  0  0  0  0  0  0
    7.6446  -18.8314   26.2680 C   0  0  0  0  0  0  0  0  0  0  0  0
    7.4461  -19.4760   27.3202 O   0  0  0  0  0  0  0  0  0  0  0  0
    8.2845  -17.4704   26.3823 C   0  0  0  0  0  0  0  0  0  0  0  0
    8.3258  -16.8352   25.0411 C   0  0  0  0  0  0  0  0  0  0  0  0
    9.0024  -15.4955   25.0137 C   0  0  2  0  0  0  0  0  0  0  0  0
    9.1036  -15.0414   23.6121 N   0  0  0  0  0  0  0  0  0  0  0  0
   10.3806  -15.6157   25.5231 C   0  0  0  0  0  0  0  0  0  0  0  0
   10.5536  -15.6951   26.7783 O   0  0  0  0  0  0  0  0  0  0  0  0
   11.5004  -15.6489   24.7043 O   0  0  0  0  0  0  0  0  0  0  0  0
  2  1  1  1
  2  3  1  0
  3  4  1  0
  4  8  1  0
  5  4  2  0
  6  2  1  0
  6  7  2  0
  9  6  1  0
 10  9  1  0
 11 10  1  0
 12 11  1  0
 12 13  1  0
 13  9  1  0
 14 22  1  0
 13 14  1  1
 15 14  2  0
 16 17  1  0
 17 19  1  0
 18 17  2  0
 20 19  1  0
 21 20  1  6
 21 22  1  0
 21 23  1  0
 23 25  1  0
 24 23  2  0
M  END
$$$$
