DPQ.pdb
     RDKit          3D

 25 25  0  0  1  0  0  0  0  0999 V2000
   10.1829  -15.0416   15.0980 N   0  0  0  0  0  0  0  0  0  0  0  0
    9.2740  -15.0677   16.2182 C   0  0  1  0  0  0  0  0  0  0  0  0
    8.7094  -16.4839   16.3852 C   0  0  0  0  0  0  0  0  0  0  0  0
    8.0803  -16.9238   15.1183 C   0  0  0  0  0  0  0  0  0  0  0  0
    7.6451  -16.0433   14.3372 O   0  0  0  0  0  0  0  0  0  0  0  0
    9.7978  -14.5558   17.4756 C   0  0  0  0  0  0  0  0  0  0  0  0
   11.0107  -14.7112   17.7307 O   0  0  0  0  0  0  0  0  0  0  0  0
    7.9574  -18.2598   14.7702 O   0  0  0  0  0  0  0  0  0  0  0  0
    8.9685  -13.8746   18.4419 N   0  0  0  0  0  0  0  0  0  0  0  0
    7.7066  -13.3115   18.0923 C   0  0  0  0  0  0  0  0  0  0  0  0
    7.2364  -12.5692   19.3217 C   0  0  0  0  0  0  0  0  0  0  0  0
    7.9856  -13.2144   20.4622 C   0  0  0  0  0  0  0  0  0  0  0  0
    9.2612  -13.6694   19.8155 C   0  0  1  0  0  0  0  0  0  0  0  0
    9.8103  -14.8685   20.5118 C   0  0  0  0  0  0  0  0  0  0  0  0
    9.5400  -16.0462   20.2737 O   0  0  0  0  0  0  0  0  0  0  0  0
   15.4661  -14.6151   22.7356 N   0  0  0  0  0  0  0  0  0  0  0  0
   14.9834  -14.8236   21.4137 C   0  0  0  0  0  0  0  0  0  0  0  0
   15.7367  -14.6555   20.4308 O   0  0  0  0  0  0  0  0  0  0  0  0
   13.5609  -15.2503   21.1502 C   0  0  0  0  0  0  0  0  0  0  0  0
   12.8469  -15.3978   22.4434 C   0  0  0  0  0  0  0  0  0  0  0  0
   11.3827  -15.6998   22.3085 C   0  0  2  0  0  0  0  0  0  0  0  0
   10.7383  -14.6064   21.5533 N   0  0  0  0  0  0  0  0  0  0  0  0
   10.7489  -15.7295   23.6392 C   0  0  0  0  0  0  0  0  0  0  0  0
   11.0916  -16.6454   24.4487 O   0  0  0  0  0  0  0  0  0  0  0  0
    9.7984  -14.8086   24.0564 O   0  0  0  0  0  0  0  0  0  0  0  0
  2  1  1  6
  2  3  1  0
  3  4  1  0
  4  8  1  0
  5  4  2  0
  6  2  1  0
  6  7  2  0
  9  6  1  0
 10  9  1  0
 11 10  1  0
 12 11  1  0
 12 13  1  0
 13  9  1  0
 14 22  1  0
 13 14  1  1
 15 14  2  0
 16 17  1  0
 17 19  1  0
 18 17  2  0
 20 19  1  0
 21 20  1  1
 21 22  1  0
 21 23  1  0
 23 25  1  0
 24 23  2  0
M  END
$$$$
