DPQ.pdb
     RDKit          3D

 25 25  0  0  1  0  0  0  0  0999 V2000
   10.7382  -16.8739   18.2122 N   0  0  0  0  0  0  0  0  0  0  0  0
    9.6330  -17.0056   19.1302 C   0  0  1  0  0  0  0  0  0  0  0  0
    9.3219  -18.4919   19.3453 C   0  0  0  0  0  0  0  0  0  0  0  0
    8.7712  -19.0729   18.0990 C   0  0  0  0  0  0  0  0  0  0  0  0
    9.5190  -19.1312   17.0929 O   0  0  0  0  0  0  0  0  0  0  0  0
    9.7714  -16.3056   20.3984 C   0  0  0  0  0  0  0  0  0  0  0  0
   10.9006  -16.2359   20.9279 O   0  0  0  0  0  0  0  0  0  0  0  0
    7.4727  -19.5489   18.0072 O   0  0  0  0  0  0  0  0  0  0  0  0
    8.6522  -15.6878   21.0701 N   0  0  0  0  0  0  0  0  0  0  0  0
    7.4054  -15.4671   20.4156 C   0  0  0  0  0  0  0  0  0  0  0  0
    6.5668  -14.6748   21.3916 C   0  0  0  0  0  0  0  0  0  0  0  0
    7.1756  -14.9716   22.7405 C   0  0  0  0  0  0  0  0  0  0  0  0
    8.6175  -15.2286   22.4126 C   0  0  1  0  0  0  0  0  0  0  0  0
    9.2262  -16.1675   23.3984 C   0  0  0  0  0  0  0  0  0  0  0  0
    9.4321  -17.3711   23.2385 O   0  0  0  0  0  0  0  0  0  0  0  0
   11.6978  -13.9093   28.8287 N   0  0  0  0  0  0  0  0  0  0  0  0
   10.2905  -13.9671   28.6285 C   0  0  0  0  0  0  0  0  0  0  0  0
    9.5215  -13.2820   29.3365 O   0  0  0  0  0  0  0  0  0  0  0  0
    9.6789  -14.8469   27.5669 C   0  0  0  0  0  0  0  0  0  0  0  0
   10.7616  -15.4702   26.7649 C   0  0  0  0  0  0  0  0  0  0  0  0
   10.2762  -16.3952   25.6870 C   0  0  2  0  0  0  0  0  0  0  0  0
    9.6007  -15.5979   24.6434 N   0  0  0  0  0  0  0  0  0  0  0  0
    9.2689  -17.3225   26.2335 C   0  0  0  0  0  0  0  0  0  0  0  0
    8.0427  -17.0746   26.0175 O   0  0  0  0  0  0  0  0  0  0  0  0
    9.5884  -18.4540   26.9705 O   0  0  0  0  0  0  0  0  0  0  0  0
  2  1  1  1
  2  3  1  0
  3  4  1  0
  4  8  1  0
  5  4  2  0
  6  2  1  0
  6  7  2  0
  9  6  1  0
 10  9  1  0
 11 10  1  0
 12 11  1  0
 12 13  1  0
 13  9  1  0
 14 22  1  0
 13 14  1  1
 15 14  2  0
 16 17  1  0
 17 19  1  0
 18 17  2  0
 20 19  1  0
 21 20  1  1
 21 22  1  0
 21 23  1  0
 23 25  1  0
 24 23  2  0
M  END
$$$$
