DPQ.pdb
     RDKit          3D

 25 25  0  0  1  0  0  0  0  0999 V2000
    9.8356  -17.0569   16.9649 N   0  0  0  0  0  0  0  0  0  0  0  0
    8.7878  -16.6018   17.8462 C   0  0  1  0  0  0  0  0  0  0  0  0
    7.8141  -17.7546   18.1202 C   0  0  0  0  0  0  0  0  0  0  0  0
    7.3393  -18.3235   16.8377 C   0  0  0  0  0  0  0  0  0  0  0  0
    7.0970  -17.5329   15.8937 O   0  0  0  0  0  0  0  0  0  0  0  0
    9.2246  -15.9733   19.0838 C   0  0  0  0  0  0  0  0  0  0  0  0
   10.1903  -16.4681   19.7026 O   0  0  0  0  0  0  0  0  0  0  0  0
    7.1555  -19.6840   16.6467 O   0  0  0  0  0  0  0  0  0  0  0  0
    8.5837  -14.7981   19.6257 N   0  0  0  0  0  0  0  0  0  0  0  0
    7.7594  -13.9509   18.8292 C   0  0  0  0  0  0  0  0  0  0  0  0
    7.4133  -12.7729   19.7101 C   0  0  0  0  0  0  0  0  0  0  0  0
    7.5965  -13.2868   21.1174 C   0  0  0  0  0  0  0  0  0  0  0  0
    8.6675  -14.3267   20.9618 C   0  0  1  0  0  0  0  0  0  0  0  0
    8.5282  -15.3904   21.9978 C   0  0  0  0  0  0  0  0  0  0  0  0
    7.6968  -16.2988   22.0130 O   0  0  0  0  0  0  0  0  0  0  0  0
   12.0074  -19.5803   23.1120 N   0  0  0  0  0  0  0  0  0  0  0  0
   12.6041  -18.2948   23.2366 C   0  0  0  0  0  0  0  0  0  0  0  0
   13.8285  -18.1432   23.0375 O   0  0  0  0  0  0  0  0  0  0  0  0
   11.7921  -17.0796   23.6092 C   0  0  0  0  0  0  0  0  0  0  0  0
   10.3676  -17.4701   23.7582 C   0  0  0  0  0  0  0  0  0  0  0  0
    9.4565  -16.3426   24.1480 C   0  0  2  0  0  0  0  0  0  0  0  0
    9.4578  -15.3342   23.0690 N   0  0  0  0  0  0  0  0  0  0  0  0
    9.9704  -15.6735   25.3570 C   0  0  0  0  0  0  0  0  0  0  0  0
   10.4691  -14.5123   25.2362 O   0  0  0  0  0  0  0  0  0  0  0  0
    9.9368  -16.2436   26.6216 O   0  0  0  0  0  0  0  0  0  0  0  0
  2  1  1  1
  2  3  1  0
  3  4  1  0
  4  8  1  0
  5  4  2  0
  6  2  1  0
  6  7  2  0
  9  6  1  0
 10  9  1  0
 11 10  1  0
 12 11  1  0
 12 13  1  0
 13  9  1  0
 14 22  1  0
 13 14  1  1
 15 14  2  0
 16 17  1  0
 17 19  1  0
 18 17  2  0
 20 19  1  0
 21 20  1  6
 21 22  1  0
 21 23  1  0
 23 25  1  0
 24 23  2  0
M  END
$$$$
