DPQ.pdb
     RDKit          3D

 25 25  0  0  1  0  0  0  0  0999 V2000
   10.3866  -17.0878   18.4674 N   0  0  0  0  0  0  0  0  0  0  0  0
    9.5371  -17.3167   19.6109 C   0  0  1  0  0  0  0  0  0  0  0  0
    9.5188  -18.8140   19.9422 C   0  0  0  0  0  0  0  0  0  0  0  0
    8.8352  -19.5574   18.8586 C   0  0  0  0  0  0  0  0  0  0  0  0
    7.7821  -19.0704   18.3804 O   0  0  0  0  0  0  0  0  0  0  0  0
    9.8290  -16.5176   20.7915 C   0  0  0  0  0  0  0  0  0  0  0  0
   10.9950  -16.5084   21.2395 O   0  0  0  0  0  0  0  0  0  0  0  0
    9.3136  -20.7591   18.3604 O   0  0  0  0  0  0  0  0  0  0  0  0
    8.8214  -15.7340   21.4668 N   0  0  0  0  0  0  0  0  0  0  0  0
    7.5704  -15.4241   20.8580 C   0  0  0  0  0  0  0  0  0  0  0  0
    6.8770  -14.4769   21.8096 C   0  0  0  0  0  0  0  0  0  0  0  0
    7.5255  -14.7425   23.1465 C   0  0  0  0  0  0  0  0  0  0  0  0
    8.9111  -15.1795   22.7703 C   0  0  1  0  0  0  0  0  0  0  0  0
    9.4708  -16.1075   23.7948 C   0  0  0  0  0  0  0  0  0  0  0  0
    9.5001  -17.3373   23.7365 O   0  0  0  0  0  0  0  0  0  0  0  0
   11.3377  -15.5622   29.7142 N   0  0  0  0  0  0  0  0  0  0  0  0
   10.4611  -14.6054   29.1311 C   0  0  0  0  0  0  0  0  0  0  0  0
    9.7494  -13.8755   29.8539 O   0  0  0  0  0  0  0  0  0  0  0  0
   10.3577  -14.4367   27.6358 C   0  0  0  0  0  0  0  0  0  0  0  0
   11.3412  -15.3301   26.9736 C   0  0  0  0  0  0  0  0  0  0  0  0
   10.7405  -16.2758   25.9746 C   0  0  2  0  0  0  0  0  0  0  0  0
   10.0224  -15.4925   24.9490 N   0  0  0  0  0  0  0  0  0  0  0  0
    9.7397  -17.1357   26.6321 C   0  0  0  0  0  0  0  0  0  0  0  0
    8.5113  -16.8522   26.4827 O   0  0  0  0  0  0  0  0  0  0  0  0
   10.0676  -18.2408   27.4047 O   0  0  0  0  0  0  0  0  0  0  0  0
  2  1  1  6
  2  3  1  0
  3  4  1  0
  4  8  1  0
  5  4  2  0
  6  2  1  0
  6  7  2  0
  9  6  1  0
 10  9  1  0
 11 10  1  0
 12 11  1  0
 12 13  1  0
 13  9  1  0
 14 22  1  0
 13 14  1  1
 15 14  2  0
 16 17  1  0
 17 19  1  0
 18 17  2  0
 20 19  1  0
 21 20  1  1
 21 22  1  0
 21 23  1  0
 23 25  1  0
 24 23  2  0
M  END
$$$$
