DPQ.pdb
     RDKit          3D

 25 25  0  0  1  0  0  0  0  0999 V2000
   10.4421  -16.5794   16.2345 N   0  0  0  0  0  0  0  0  0  0  0  0
    9.3034  -16.1708   17.0206 C   0  0  1  0  0  0  0  0  0  0  0  0
    8.3119  -17.3359   17.1277 C   0  0  0  0  0  0  0  0  0  0  0  0
    7.9786  -17.8348   15.7734 C   0  0  0  0  0  0  0  0  0  0  0  0
    7.1572  -17.1795   15.0873 O   0  0  0  0  0  0  0  0  0  0  0  0
    9.6014  -15.6083   18.3292 C   0  0  0  0  0  0  0  0  0  0  0  0
   10.5220  -16.1128   19.0062 O   0  0  0  0  0  0  0  0  0  0  0  0
    8.5369  -18.9877   15.2440 O   0  0  0  0  0  0  0  0  0  0  0  0
    8.8727  -14.4882   18.8768 N   0  0  0  0  0  0  0  0  0  0  0  0
    8.0747  -13.6337   18.0615 C   0  0  0  0  0  0  0  0  0  0  0  0
    7.6145  -12.5168   18.9693 C   0  0  0  0  0  0  0  0  0  0  0  0
    7.7143  -13.0949   20.3601 C   0  0  0  0  0  0  0  0  0  0  0  0
    8.8369  -14.0832   20.2366 C   0  0  1  0  0  0  0  0  0  0  0  0
    8.6662  -15.2033   21.2063 C   0  0  0  0  0  0  0  0  0  0  0  0
    7.7480  -16.0236   21.2293 O   0  0  0  0  0  0  0  0  0  0  0  0
   12.6972  -19.1875   21.9021 N   0  0  0  0  0  0  0  0  0  0  0  0
   12.0438  -19.4544   23.1373 C   0  0  0  0  0  0  0  0  0  0  0  0
   12.3728  -20.4435   23.8268 O   0  0  0  0  0  0  0  0  0  0  0  0
   10.9420  -18.5649   23.6567 C   0  0  0  0  0  0  0  0  0  0  0  0
   10.7617  -17.4184   22.7311 C   0  0  0  0  0  0  0  0  0  0  0  0
    9.6957  -16.4484   23.1509 C   0  0  2  0  0  0  0  0  0  0  0  0
    9.6754  -15.3208   22.1975 N   0  0  0  0  0  0  0  0  0  0  0  0
   10.0205  -15.8828   24.4730 C   0  0  0  0  0  0  0  0  0  0  0  0
    9.9426  -16.6414   25.4879 O   0  0  0  0  0  0  0  0  0  0  0  0
   10.4092  -14.5651   24.6685 O   0  0  0  0  0  0  0  0  0  0  0  0
  2  1  1  1
  2  3  1  0
  3  4  1  0
  4  8  1  0
  5  4  2  0
  6  2  1  0
  6  7  2  0
  9  6  1  0
 10  9  1  0
 11 10  1  0
 12 11  1  0
 12 13  1  0
 13  9  1  0
 14 22  1  0
 13 14  1  1
 15 14  2  0
 16 17  1  0
 17 19  1  0
 18 17  2  0
 20 19  1  0
 21 20  1  6
 21 22  1  0
 21 23  1  0
 23 25  1  0
 24 23  2  0
M  END
$$$$
