DPQ.pdb
     RDKit          3D

 25 25  0  0  1  0  0  0  0  0999 V2000
    8.6437  -13.0837   18.1156 N   0  0  0  0  0  0  0  0  0  0  0  0
    8.9377  -14.3725   18.6937 C   0  0  1  0  0  0  0  0  0  0  0  0
   10.3052  -14.8560   18.1952 C   0  0  0  0  0  0  0  0  0  0  0  0
   10.2863  -14.9727   16.7187 C   0  0  0  0  0  0  0  0  0  0  0  0
   10.9158  -14.1177   16.0497 O   0  0  0  0  0  0  0  0  0  0  0  0
    8.8435  -14.4569   20.1433 C   0  0  0  0  0  0  0  0  0  0  0  0
    9.7304  -13.9163   20.8372 O   0  0  0  0  0  0  0  0  0  0  0  0
    9.6046  -15.9827   16.0581 O   0  0  0  0  0  0  0  0  0  0  0  0
    7.7631  -15.1430   20.8122 N   0  0  0  0  0  0  0  0  0  0  0  0
    6.7039  -15.7688   20.0923 C   0  0  0  0  0  0  0  0  0  0  0  0
    5.7159  -16.2296   21.1387 C   0  0  0  0  0  0  0  0  0  0  0  0
    6.5292  -16.3354   22.4058 C   0  0  0  0  0  0  0  0  0  0  0  0
    7.5937  -15.2951   22.2131 C   0  0  1  0  0  0  0  0  0  0  0  0
    8.8384  -15.6684   22.9449 C   0  0  0  0  0  0  0  0  0  0  0  0
    9.8197  -16.2491   22.4797 O   0  0  0  0  0  0  0  0  0  0  0  0
    9.9988  -12.9887   28.4955 N   0  0  0  0  0  0  0  0  0  0  0  0
   10.5405  -14.2878   28.7023 C   0  0  0  0  0  0  0  0  0  0  0  0
   10.9982  -14.6125   29.8190 O   0  0  0  0  0  0  0  0  0  0  0  0
   10.5831  -15.3115   27.5954 C   0  0  0  0  0  0  0  0  0  0  0  0
   10.0514  -14.7061   26.3486 C   0  0  0  0  0  0  0  0  0  0  0  0
   10.0416  -15.6333   25.1681 C   0  0  2  0  0  0  0  0  0  0  0  0
    8.8785  -15.3095   24.3176 N   0  0  0  0  0  0  0  0  0  0  0  0
    9.8640  -17.0249   25.6210 C   0  0  0  0  0  0  0  0  0  0  0  0
   10.8994  -17.7021   25.9057 O   0  0  0  0  0  0  0  0  0  0  0  0
    8.6249  -17.6352   25.7551 O   0  0  0  0  0  0  0  0  0  0  0  0
  2  1  1  1
  2  3  1  0
  3  4  1  0
  4  8  1  0
  5  4  2  0
  6  2  1  0
  6  7  2  0
  9  6  1  0
 10  9  1  0
 11 10  1  0
 12 11  1  0
 12 13  1  0
 13  9  1  0
 14 22  1  0
 13 14  1  1
 15 14  2  0
 16 17  1  0
 17 19  1  0
 18 17  2  0
 20 19  1  0
 21 20  1  1
 21 22  1  0
 21 23  1  0
 23 25  1  0
 24 23  2  0
M  END
$$$$
