CRG.pdb
     RDKit          3D

 22 21  0  0  1  0  0  0  0  0999 V2000
   26.2674  -24.8393  -15.1936 N   0  0  0  0  0  0  0  0  0  0  0  0
   26.0393  -23.5586  -15.8040 C   0  0  1  0  0  0  0  0  0  0  0  0
   25.7260  -23.7801  -17.2719 C   0  0  0  0  0  0  0  0  0  0  0  0
   27.1295  -24.5446  -18.1034 S   0  0  0  0  0  0  0  0  0  0  0  0
   24.8397  -22.8847  -15.2059 C   0  0  0  0  0  0  0  0  0  0  0  0
   23.6766  -23.1362  -15.6503 O   0  0  0  0  0  0  0  0  0  0  0  0
   21.6493  -20.1134   -9.3464 N   0  0  0  0  0  0  0  0  0  0  0  0
   22.3126  -20.9560   -8.4120 C   0  0  0  0  0  0  0  0  0  0  0  0
   21.7175  -21.5228   -7.4291 N   0  0  0  0  0  0  0  0  0  0  0  0
   23.7200  -21.1563   -8.6153 N   0  0  0  0  0  0  0  0  0  0  0  0
   24.3529  -20.6370   -9.7836 C   0  0  0  0  0  0  0  0  0  0  0  0
   23.6699  -21.2598  -11.0009 C   0  0  0  0  0  0  0  0  0  0  0  0
   24.4292  -20.7816  -12.2008 C   0  0  0  0  0  0  0  0  0  0  0  0
   23.9259  -21.2982  -13.5103 C   0  0  2  0  0  0  0  0  0  0  0  0
   25.0612  -21.9759  -14.1471 N   0  0  0  0  0  0  0  0  0  0  0  0
   23.4894  -20.2127  -14.3833 C   0  0  0  0  0  0  0  0  0  0  0  0
   24.3381  -19.4769  -14.9399 O   0  0  0  0  0  0  0  0  0  0  0  0
   22.2784  -22.1431   -6.7913 N   0  0  0  0  0  0  0  0  0  0  0  0
   22.0923  -19.9678  -14.6197 C   0  0  0  0  0  0  0  0  0  0  0  0
   21.7693  -18.9074  -15.5385 C   0  0  0  0  0  0  0  0  0  0  0  0
   20.3236  -18.6862  -15.6857 O   0  0  0  0  0  0  0  0  0  0  0  0
   19.7316  -17.4893  -16.0534 O   0  0  0  0  0  0  0  0  0  0  0  0
  2  1  1  1
  2  5  1  0
  2  3  1  0
  3  4  1  0
  5  6  2  0
  7  8  1  0
  8  9  2  0
  8 10  1  0
 10 11  1  0
 11 12  1  0
 12 13  1  0
 14 13  1  1
 14 16  1  0
 15  5  1  0
 15 14  1  0
 16 18  1  0
 16 17  2  0
 18 19  1  0
 20 19  1  0
 20 21  1  0
 22 20  2  0
M  END
$$$$
