CRG.pdb
     RDKit          3D

 22 21  0  0  1  0  0  0  0  0999 V2000
   20.6093  -14.9901  -17.1431 N   0  0  0  0  0  0  0  0  0  0  0  0
   20.0693  -15.6712  -15.9989 C   0  0  1  0  0  0  0  0  0  0  0  0
   18.5561  -15.5807  -16.0616 C   0  0  0  0  0  0  0  0  0  0  0  0
   17.9806  -14.1069  -15.2000 S   0  0  0  0  0  0  0  0  0  0  0  0
   20.4138  -17.1310  -16.0309 C   0  0  0  0  0  0  0  0  0  0  0  0
   20.5172  -17.7398  -17.1409 O   0  0  0  0  0  0  0  0  0  0  0  0
   24.7912  -24.5184  -14.7157 N   0  0  0  0  0  0  0  0  0  0  0  0
   24.0252  -23.4786  -14.1196 C   0  0  0  0  0  0  0  0  0  0  0  0
   23.7206  -23.4533  -12.8753 N   0  0  0  0  0  0  0  0  0  0  0  0
   23.5903  -22.4225  -14.9899 N   0  0  0  0  0  0  0  0  0  0  0  0
   23.7017  -21.0628  -14.5725 C   0  0  0  0  0  0  0  0  0  0  0  0
   22.5480  -20.7727  -13.6129 C   0  0  0  0  0  0  0  0  0  0  0  0
   22.1257  -19.3595  -13.8767 C   0  0  0  0  0  0  0  0  0  0  0  0
   20.9273  -19.2156  -14.7589 C   0  0  2  0  0  0  0  0  0  0  0  0
   20.6135  -17.7824  -14.7932 N   0  0  0  0  0  0  0  0  0  0  0  0
   19.7734  -19.9265  -14.2166 C   0  0  0  0  0  0  0  0  0  0  0  0
   19.1315  -19.4383  -13.2569 O   0  0  0  0  0  0  0  0  0  0  0  0
   23.2451  -22.5976  -12.4910 N   0  0  0  0  0  0  0  0  0  0  0  0
   19.3543  -21.1874  -14.7663 C   0  0  0  0  0  0  0  0  0  0  0  0
   18.0047  -21.5996  -14.4803 C   0  0  0  0  0  0  0  0  0  0  0  0
   17.9013  -22.4753  -13.3043 O   0  0  0  0  0  0  0  0  0  0  0  0
   16.7320  -23.0531  -12.8385 O   0  0  0  0  0  0  0  0  0  0  0  0
  2  1  1  6
  2  5  1  0
  2  3  1  0
  3  4  1  0
  5  6  2  0
  7  8  1  0
  8  9  2  0
  8 10  1  0
 10 11  1  0
 11 12  1  0
 12 13  1  0
 14 13  1  1
 14 16  1  0
 15  5  1  0
 15 14  1  0
 16 18  1  0
 16 17  2  0
 18 19  1  0
 20 19  1  0
 20 21  1  0
 22 20  2  0
M  END
$$$$
