CRG.pdb
     RDKit          3D

 22 21  0  0  1  0  0  0  0  0999 V2000
   30.2325  -22.2294  -11.1303 N   0  0  0  0  0  0  0  0  0  0  0  0
   29.4435  -21.0552  -11.3820 C   0  0  1  0  0  0  0  0  0  0  0  0
   30.1049  -20.2676  -12.4975 C   0  0  0  0  0  0  0  0  0  0  0  0
   31.1756  -18.9907  -11.8128 S   0  0  0  0  0  0  0  0  0  0  0  0
   28.0736  -21.4234  -11.8704 C   0  0  0  0  0  0  0  0  0  0  0  0
   27.9065  -22.4589  -12.5869 O   0  0  0  0  0  0  0  0  0  0  0  0
   21.8628  -20.7772   -8.2794 N   0  0  0  0  0  0  0  0  0  0  0  0
   20.8842  -20.4134   -9.2454 C   0  0  0  0  0  0  0  0  0  0  0  0
   19.7392  -19.9269   -8.9390 N   0  0  0  0  0  0  0  0  0  0  0  0
   21.2359  -20.6170  -10.6227 N   0  0  0  0  0  0  0  0  0  0  0  0
   22.5243  -21.1269  -10.9620 C   0  0  0  0  0  0  0  0  0  0  0  0
   23.3023  -20.0080  -11.6539 C   0  0  0  0  0  0  0  0  0  0  0  0
   24.7090  -20.0961  -11.1458 C   0  0  0  0  0  0  0  0  0  0  0  0
   25.6583  -20.8207  -12.0453 C   0  0  2  0  0  0  0  0  0  0  0  0
   27.0007  -20.5808  -11.5028 N   0  0  0  0  0  0  0  0  0  0  0  0
   25.6121  -20.2975  -13.4073 C   0  0  0  0  0  0  0  0  0  0  0  0
   25.9570  -19.1142  -13.6356 O   0  0  0  0  0  0  0  0  0  0  0  0
   19.0674  -19.6947   -9.7141 N   0  0  0  0  0  0  0  0  0  0  0  0
   25.1746  -21.1200  -14.5027 C   0  0  0  0  0  0  0  0  0  0  0  0
   25.1793  -20.5124  -15.8080 C   0  0  0  0  0  0  0  0  0  0  0  0
   23.8347  -20.1762  -16.2975 O   0  0  0  0  0  0  0  0  0  0  0  0
   23.5396  -19.7135  -17.5690 O   0  0  0  0  0  0  0  0  0  0  0  0
  2  1  1  6
  2  5  1  0
  2  3  1  0
  3  4  1  0
  5  6  2  0
  7  8  1  0
  8  9  2  0
  8 10  1  0
 10 11  1  0
 11 12  1  0
 12 13  1  0
 14 13  1  1
 14 16  1  0
 15  5  1  0
 15 14  1  0
 16 18  1  0
 16 17  2  0
 18 19  1  0
 20 19  1  0
 20 21  1  0
 22 20  2  0
M  END
$$$$
