CRG.pdb
     RDKit          3D

 22 21  0  0  1  0  0  0  0  0999 V2000
   25.4035  -10.2814  -21.3841 N   0  0  0  0  0  0  0  0  0  0  0  0
   25.9231  -10.0518  -20.0644 C   0  0  1  0  0  0  0  0  0  0  0  0
   26.2635   -8.5788  -19.9366 C   0  0  0  0  0  0  0  0  0  0  0  0
   27.6412   -8.1583  -21.0187 S   0  0  0  0  0  0  0  0  0  0  0  0
   24.8862  -10.3448  -19.0205 C   0  0  0  0  0  0  0  0  0  0  0  0
   23.6556  -10.1509  -19.2688 O   0  0  0  0  0  0  0  0  0  0  0  0
   22.2537  -16.6171  -15.9193 N   0  0  0  0  0  0  0  0  0  0  0  0
   21.7572  -15.7523  -14.9050 C   0  0  0  0  0  0  0  0  0  0  0  0
   20.6302  -15.9264  -14.3210 N   0  0  0  0  0  0  0  0  0  0  0  0
   22.5910  -14.6396  -14.5460 N   0  0  0  0  0  0  0  0  0  0  0  0
   23.4947  -14.0879  -15.5022 C   0  0  0  0  0  0  0  0  0  0  0  0
   24.1923  -12.8940  -14.8510 C   0  0  0  0  0  0  0  0  0  0  0  0
   25.0486  -12.2753  -15.9135 C   0  0  0  0  0  0  0  0  0  0  0  0
   24.3635  -11.2448  -16.7524 C   0  0  2  0  0  0  0  0  0  0  0  0
   25.3346  -10.8365  -17.7742 N   0  0  0  0  0  0  0  0  0  0  0  0
   23.9998  -10.0691  -15.9673 C   0  0  0  0  0  0  0  0  0  0  0  0
   24.8813   -9.2441  -15.6301 O   0  0  0  0  0  0  0  0  0  0  0  0
   20.2977  -15.1961  -13.6411 N   0  0  0  0  0  0  0  0  0  0  0  0
   22.6379   -9.8363  -15.5689 C   0  0  0  0  0  0  0  0  0  0  0  0
   22.3970   -8.6885  -14.7336 C   0  0  0  0  0  0  0  0  0  0  0  0
   20.9769   -8.4954  -14.4067 O   0  0  0  0  0  0  0  0  0  0  0  0
   19.9330   -9.2641  -14.8941 O   0  0  0  0  0  0  0  0  0  0  0  0
  2  1  1  6
  2  5  1  0
  2  3  1  0
  3  4  1  0
  5  6  2  0
  7  8  1  0
  8  9  2  0
  8 10  1  0
 10 11  1  0
 11 12  1  0
 12 13  1  0
 14 13  1  1
 14 16  1  0
 15  5  1  0
 15 14  1  0
 16 18  1  0
 16 17  2  0
 18 19  1  0
 20 19  1  0
 20 21  1  0
 22 20  2  0
M  END
$$$$
