CRG.pdb
     RDKit          3D

 22 21  0  0  1  0  0  0  0  0999 V2000
   27.1133  -18.1569  -20.9823 N   0  0  0  0  0  0  0  0  0  0  0  0
   27.1079  -17.2541  -19.8645 C   0  0  1  0  0  0  0  0  0  0  0  0
   26.5970  -15.9079  -20.3426 C   0  0  0  0  0  0  0  0  0  0  0  0
   27.8253  -15.1079  -21.3900 S   0  0  0  0  0  0  0  0  0  0  0  0
   26.1575  -17.7211  -18.8017 C   0  0  0  0  0  0  0  0  0  0  0  0
   25.1789  -18.4725  -19.1037 O   0  0  0  0  0  0  0  0  0  0  0  0
   26.9942  -21.2139  -11.9281 N   0  0  0  0  0  0  0  0  0  0  0  0
   25.6260  -20.8861  -11.7192 C   0  0  0  0  0  0  0  0  0  0  0  0
   25.0254  -21.0518  -10.5996 N   0  0  0  0  0  0  0  0  0  0  0  0
   24.9171  -20.3447  -12.8445 N   0  0  0  0  0  0  0  0  0  0  0  0
   25.6357  -19.9060  -13.9962 C   0  0  0  0  0  0  0  0  0  0  0  0
   25.7034  -18.3798  -13.9514 C   0  0  0  0  0  0  0  0  0  0  0  0
   26.4117  -17.9524  -15.2006 C   0  0  0  0  0  0  0  0  0  0  0  0
   25.5259  -17.7491  -16.3876 C   0  0  2  0  0  0  0  0  0  0  0  0
   26.3981  -17.2940  -17.4767 N   0  0  0  0  0  0  0  0  0  0  0  0
   24.5238  -16.7172  -16.1388 C   0  0  0  0  0  0  0  0  0  0  0  0
   24.8629  -15.5110  -16.1016 O   0  0  0  0  0  0  0  0  0  0  0  0
   24.0223  -20.7467  -10.5168 N   0  0  0  0  0  0  0  0  0  0  0  0
   23.1425  -17.0598  -15.9334 C   0  0  0  0  0  0  0  0  0  0  0  0
   22.2436  -15.9723  -15.6463 C   0  0  0  0  0  0  0  0  0  0  0  0
   20.8478  -16.4012  -15.4771 O   0  0  0  0  0  0  0  0  0  0  0  0
   19.7974  -15.5767  -15.1101 O   0  0  0  0  0  0  0  0  0  0  0  0
  2  1  1  6
  2  5  1  0
  2  3  1  0
  3  4  1  0
  5  6  2  0
  7  8  1  0
  8  9  2  0
  8 10  1  0
 10 11  1  0
 11 12  1  0
 12 13  1  0
 14 13  1  1
 14 16  1  0
 15  5  1  0
 15 14  1  0
 16 18  1  0
 16 17  2  0
 18 19  1  0
 20 19  1  0
 20 21  1  0
 22 20  2  0
M  END
$$$$
