CRG.pdb
     RDKit          3D

 22 21  0  0  1  0  0  0  0  0999 V2000
   19.1152  -22.2132   -9.8687 N   0  0  0  0  0  0  0  0  0  0  0  0
   18.8066  -22.4388  -11.2538 C   0  0  1  0  0  0  0  0  0  0  0  0
   17.3035  -22.3309  -11.4300 C   0  0  0  0  0  0  0  0  0  0  0  0
   16.4738  -23.6795  -10.5707 S   0  0  0  0  0  0  0  0  0  0  0  0
   19.4177  -21.3771  -12.1199 C   0  0  0  0  0  0  0  0  0  0  0  0
   19.3969  -20.1613  -11.7527 O   0  0  0  0  0  0  0  0  0  0  0  0
   24.6289  -23.5360  -14.1914 N   0  0  0  0  0  0  0  0  0  0  0  0
   25.4993  -22.4767  -14.5705 C   0  0  0  0  0  0  0  0  0  0  0  0
   26.5729  -22.6556  -15.2464 N   0  0  0  0  0  0  0  0  0  0  0  0
   25.1202  -21.1553  -14.1554 N   0  0  0  0  0  0  0  0  0  0  0  0
   23.7629  -20.8762  -13.8163 C   0  0  0  0  0  0  0  0  0  0  0  0
   22.9794  -20.7157  -15.1188 C   0  0  0  0  0  0  0  0  0  0  0  0
   21.7175  -21.5059  -14.9516 C   0  0  0  0  0  0  0  0  0  0  0  0
   20.6208  -20.7936  -14.2269 C   0  0  2  0  0  0  0  0  0  0  0  0
   20.0050  -21.7859  -13.3381 N   0  0  0  0  0  0  0  0  0  0  0  0
   19.5994  -20.3036  -15.1475 C   0  0  0  0  0  0  0  0  0  0  0  0
   18.7862  -21.1051  -15.6649 O   0  0  0  0  0  0  0  0  0  0  0  0
   27.2033  -21.8312  -15.4169 N   0  0  0  0  0  0  0  0  0  0  0  0
   19.5065  -18.9068  -15.4760 C   0  0  0  0  0  0  0  0  0  0  0  0
   18.5702  -18.5476  -16.5093 C   0  0  0  0  0  0  0  0  0  0  0  0
   17.2008  -18.3547  -16.0112 O   0  0  0  0  0  0  0  0  0  0  0  0
   16.1146  -17.9797  -16.7843 O   0  0  0  0  0  0  0  0  0  0  0  0
  2  1  1  1
  2  5  1  0
  2  3  1  0
  3  4  1  0
  5  6  2  0
  7  8  1  0
  8  9  2  0
  8 10  1  0
 10 11  1  0
 11 12  1  0
 12 13  1  0
 14 13  1  6
 14 16  1  0
 15  5  1  0
 15 14  1  0
 16 18  1  0
 16 17  2  0
 18 19  1  0
 20 19  1  0
 20 21  1  0
 22 20  2  0
M  END
$$$$
