CRG.pdb
     RDKit          3D

 22 21  0  0  1  0  0  0  0  0999 V2000
   24.7496  -22.4719  -10.8677 N   0  0  0  0  0  0  0  0  0  0  0  0
   24.9597  -21.1849  -11.4711 C   0  0  1  0  0  0  0  0  0  0  0  0
   25.4949  -20.2431  -10.4088 C   0  0  0  0  0  0  0  0  0  0  0  0
   24.1641  -19.7075   -9.3188 S   0  0  0  0  0  0  0  0  0  0  0  0
   26.0050  -21.2594  -12.5447 C   0  0  0  0  0  0  0  0  0  0  0  0
   27.1477  -21.7533  -12.2921 O   0  0  0  0  0  0  0  0  0  0  0  0
   28.9265  -25.9732  -15.9311 N   0  0  0  0  0  0  0  0  0  0  0  0
   28.0929  -25.7712  -17.0658 C   0  0  0  0  0  0  0  0  0  0  0  0
   27.6915  -26.7236  -17.8230 N   0  0  0  0  0  0  0  0  0  0  0  0
   27.7036  -24.4170  -17.3428 N   0  0  0  0  0  0  0  0  0  0  0  0
   27.7861  -23.4275  -16.3185 C   0  0  0  0  0  0  0  0  0  0  0  0
   26.3926  -23.2659  -15.7118 C   0  0  0  0  0  0  0  0  0  0  0  0
   26.0101  -21.8310  -15.9106 C   0  0  0  0  0  0  0  0  0  0  0  0
   26.6180  -20.8768  -14.9333 C   0  0  2  0  0  0  0  0  0  0  0  0
   25.6645  -20.7642  -13.8234 N   0  0  0  0  0  0  0  0  0  0  0  0
   26.8007  -19.5524  -15.5192 C   0  0  0  0  0  0  0  0  0  0  0  0
   25.8140  -18.7952  -15.6755 O   0  0  0  0  0  0  0  0  0  0  0  0
   27.1255  -26.4836  -18.6762 N   0  0  0  0  0  0  0  0  0  0  0  0
   28.1021  -19.0945  -15.9248 C   0  0  0  0  0  0  0  0  0  0  0  0
   28.1779  -17.7625  -16.4661 C   0  0  0  0  0  0  0  0  0  0  0  0
   27.8894  -17.7031  -17.9062 O   0  0  0  0  0  0  0  0  0  0  0  0
   26.8415  -17.0051  -18.4832 O   0  0  0  0  0  0  0  0  0  0  0  0
  2  1  1  1
  2  5  1  0
  2  3  1  0
  3  4  1  0
  5  6  2  0
  7  8  1  0
  8  9  2  0
  8 10  1  0
 10 11  1  0
 11 12  1  0
 12 13  1  0
 14 13  1  6
 14 16  1  0
 15  5  1  0
 15 14  1  0
 16 18  1  0
 16 17  2  0
 18 19  1  0
 20 19  1  0
 20 21  1  0
 22 20  2  0
M  END
$$$$
