CRG.pdb
     RDKit          3D

 22 21  0  0  1  0  0  0  0  0999 V2000
   29.0611  -32.1637  -15.8753 N   0  0  0  0  0  0  0  0  0  0  0  0
   28.2836  -33.2536  -15.3537 C   0  0  1  0  0  0  0  0  0  0  0  0
   29.2315  -34.2519  -14.7159 C   0  0  0  0  0  0  0  0  0  0  0  0
   29.9184  -35.3510  -15.9673 S   0  0  0  0  0  0  0  0  0  0  0  0
   27.3608  -32.7838  -14.2681 C   0  0  0  0  0  0  0  0  0  0  0  0
   27.6225  -31.7227  -13.6207 O   0  0  0  0  0  0  0  0  0  0  0  0
   19.2676  -31.6966  -12.3198 N   0  0  0  0  0  0  0  0  0  0  0  0
   20.3540  -30.7917  -12.1638 C   0  0  0  0  0  0  0  0  0  0  0  0
   20.2287  -29.6225  -11.6552 N   0  0  0  0  0  0  0  0  0  0  0  0
   21.6394  -31.2495  -12.6112 N   0  0  0  0  0  0  0  0  0  0  0  0
   21.7586  -32.5105  -13.2676 C   0  0  0  0  0  0  0  0  0  0  0  0
   22.7820  -33.3437  -12.4966 C   0  0  0  0  0  0  0  0  0  0  0  0
   23.9091  -33.6117  -13.4468 C   0  0  0  0  0  0  0  0  0  0  0  0
   25.2474  -33.1293  -12.9870 C   0  0  2  0  0  0  0  0  0  0  0  0
   26.2111  -33.5618  -14.0059 N   0  0  0  0  0  0  0  0  0  0  0  0
   25.6252  -33.7306  -11.7116 C   0  0  0  0  0  0  0  0  0  0  0  0
   26.1487  -34.8693  -11.6868 O   0  0  0  0  0  0  0  0  0  0  0  0
   21.0941  -29.0445  -11.5033 N   0  0  0  0  0  0  0  0  0  0  0  0
   25.4068  -33.0364  -10.4714 C   0  0  0  0  0  0  0  0  0  0  0  0
   25.9271  -33.6599   -9.2824 C   0  0  0  0  0  0  0  0  0  0  0  0
   25.7832  -32.8278   -8.0793 O   0  0  0  0  0  0  0  0  0  0  0  0
   26.2091  -33.1789   -6.8091 O   0  0  0  0  0  0  0  0  0  0  0  0
  2  1  1  1
  2  5  1  0
  2  3  1  0
  3  4  1  0
  5  6  2  0
  7  8  1  0
  8  9  2  0
  8 10  1  0
 10 11  1  0
 11 12  1  0
 12 13  1  0
 14 13  1  6
 14 16  1  0
 15  5  1  0
 15 14  1  0
 16 18  1  0
 16 17  2  0
 18 19  1  0
 20 19  1  0
 20 21  1  0
 22 20  2  0
M  END
$$$$
