CRG.pdb
     RDKit          3D

 22 21  0  0  1  0  0  0  0  0999 V2000
   27.2919  -15.7214  -17.8468 N   0  0  0  0  0  0  0  0  0  0  0  0
   27.2006  -15.9017  -16.4242 C   0  0  1  0  0  0  0  0  0  0  0  0
   26.3212  -14.8013  -15.8606 C   0  0  0  0  0  0  0  0  0  0  0  0
   24.7875  -14.6832  -16.7985 S   0  0  0  0  0  0  0  0  0  0  0  0
   26.5297  -17.2012  -16.0896 C   0  0  0  0  0  0  0  0  0  0  0  0
   25.9557  -17.8777  -16.9987 O   0  0  0  0  0  0  0  0  0  0  0  0
   26.0017  -20.0623   -8.1846 N   0  0  0  0  0  0  0  0  0  0  0  0
   25.3201  -20.9835   -9.0273 C   0  0  0  0  0  0  0  0  0  0  0  0
   24.1246  -21.3879   -8.8065 N   0  0  0  0  0  0  0  0  0  0  0  0
   26.0427  -21.4606  -10.1728 N   0  0  0  0  0  0  0  0  0  0  0  0
   26.7472  -20.5411  -11.0055 C   0  0  0  0  0  0  0  0  0  0  0  0
   25.8723  -20.2498  -12.2245 C   0  0  0  0  0  0  0  0  0  0  0  0
   26.6692  -19.3382  -13.1071 C   0  0  0  0  0  0  0  0  0  0  0  0
   25.9779  -18.9176  -14.3642 C   0  0  2  0  0  0  0  0  0  0  0  0
   26.5661  -17.6274  -14.7431 N   0  0  0  0  0  0  0  0  0  0  0  0
   24.5466  -18.7260  -14.1511 C   0  0  0  0  0  0  0  0  0  0  0  0
   24.1369  -17.7312  -13.5076 O   0  0  0  0  0  0  0  0  0  0  0  0
   23.6825  -22.0501   -9.4936 N   0  0  0  0  0  0  0  0  0  0  0  0
   23.5880  -19.6643  -14.6691 C   0  0  0  0  0  0  0  0  0  0  0  0
   22.2090  -19.4351  -14.3242 C   0  0  0  0  0  0  0  0  0  0  0  0
   21.4282  -18.8377  -15.4170 O   0  0  0  0  0  0  0  0  0  0  0  0
   20.1746  -18.2646  -15.2829 O   0  0  0  0  0  0  0  0  0  0  0  0
  2  1  1  6
  2  5  1  0
  2  3  1  0
  3  4  1  0
  5  6  2  0
  7  8  1  0
  8  9  2  0
  8 10  1  0
 10 11  1  0
 11 12  1  0
 12 13  1  0
 14 13  1  1
 14 16  1  0
 15  5  1  0
 15 14  1  0
 16 18  1  0
 16 17  2  0
 18 19  1  0
 20 19  1  0
 20 21  1  0
 22 20  2  0
M  END
$$$$
