CRG.pdb
     RDKit          3D

 22 21  0  0  1  0  0  0  0  0999 V2000
   29.9507  -23.4453  -16.7241 N   0  0  0  0  0  0  0  0  0  0  0  0
   28.7738  -22.6711  -17.0072 C   0  0  1  0  0  0  0  0  0  0  0  0
   27.6395  -23.6278  -17.3230 C   0  0  0  0  0  0  0  0  0  0  0  0
   27.7896  -24.2419  -19.0101 S   0  0  0  0  0  0  0  0  0  0  0  0
   28.3478  -21.8824  -15.8041 C   0  0  0  0  0  0  0  0  0  0  0  0
   28.6223  -22.2988  -14.6359 O   0  0  0  0  0  0  0  0  0  0  0  0
   25.4082  -14.1593  -16.9650 N   0  0  0  0  0  0  0  0  0  0  0  0
   24.4535  -15.1610  -16.6359 C   0  0  0  0  0  0  0  0  0  0  0  0
   23.2340  -15.1269  -17.0274 N   0  0  0  0  0  0  0  0  0  0  0  0
   24.9194  -16.2485  -15.8222 N   0  0  0  0  0  0  0  0  0  0  0  0
   26.2147  -16.1900  -15.2271 C   0  0  0  0  0  0  0  0  0  0  0  0
   26.4343  -17.4919  -14.4570 C   0  0  0  0  0  0  0  0  0  0  0  0
   26.9360  -18.4917  -15.4538 C   0  0  0  0  0  0  0  0  0  0  0  0
   27.2301  -19.8459  -14.8926 C   0  0  2  0  0  0  0  0  0  0  0  0
   27.6413  -20.6795  -16.0283 N   0  0  0  0  0  0  0  0  0  0  0  0
   26.0444  -20.4449  -14.2876 C   0  0  0  0  0  0  0  0  0  0  0  0
   25.1782  -20.9886  -15.0125 O   0  0  0  0  0  0  0  0  0  0  0  0
   22.5941  -15.9138  -16.7492 N   0  0  0  0  0  0  0  0  0  0  0  0
   25.8479  -20.4236  -12.8633 C   0  0  0  0  0  0  0  0  0  0  0  0
   24.6759  -21.0939  -12.3632 C   0  0  0  0  0  0  0  0  0  0  0  0
   23.4524  -20.2870  -12.4757 O   0  0  0  0  0  0  0  0  0  0  0  0
   22.2105  -20.6449  -11.9781 O   0  0  0  0  0  0  0  0  0  0  0  0
  2  1  1  1
  2  5  1  0
  2  3  1  0
  3  4  1  0
  5  6  2  0
  7  8  1  0
  8  9  2  0
  8 10  1  0
 10 11  1  0
 11 12  1  0
 12 13  1  0
 14 13  1  6
 14 16  1  0
 15  5  1  0
 15 14  1  0
 16 18  1  0
 16 17  2  0
 18 19  1  0
 20 19  1  0
 20 21  1  0
 22 20  2  0
M  END
$$$$
