CRG.pdb
     RDKit          3D

 22 21  0  0  1  0  0  0  0  0999 V2000
   25.6539  -14.0977  -17.8868 N   0  0  0  0  0  0  0  0  0  0  0  0
   25.1164  -13.4689  -16.7119 C   0  0  1  0  0  0  0  0  0  0  0  0
   26.2659  -12.8649  -15.9273 C   0  0  0  0  0  0  0  0  0  0  0  0
   27.3609  -14.1615  -15.3225 S   0  0  0  0  0  0  0  0  0  0  0  0
   24.2047  -12.3353  -17.0790 C   0  0  0  0  0  0  0  0  0  0  0  0
   24.3712  -11.7081  -18.1709 O   0  0  0  0  0  0  0  0  0  0  0  0
   16.6839  -14.5980  -16.3833 N   0  0  0  0  0  0  0  0  0  0  0  0
   17.3781  -14.8690  -17.5948 C   0  0  0  0  0  0  0  0  0  0  0  0
   16.9691  -15.7141  -18.4666 N   0  0  0  0  0  0  0  0  0  0  0  0
   18.5943  -14.1378  -17.8145 N   0  0  0  0  0  0  0  0  0  0  0  0
   19.0461  -13.1965  -16.8423 C   0  0  0  0  0  0  0  0  0  0  0  0
   20.3753  -12.6217  -17.3310 C   0  0  0  0  0  0  0  0  0  0  0  0
   20.8321  -11.6605  -16.2763 C   0  0  0  0  0  0  0  0  0  0  0  0
   22.1550  -11.0170  -16.5423 C   0  0  2  0  0  0  0  0  0  0  0  0
   23.1738  -12.0059  -16.1708 N   0  0  0  0  0  0  0  0  0  0  0  0
   22.3477   -9.8265  -15.7198 C   0  0  0  0  0  0  0  0  0  0  0  0
   22.6066   -9.9441  -14.4989 O   0  0  0  0  0  0  0  0  0  0  0  0
   17.5012  -15.8030  -19.3695 N   0  0  0  0  0  0  0  0  0  0  0  0
   22.2451   -8.5092  -16.2871 C   0  0  0  0  0  0  0  0  0  0  0  0
   22.3272   -7.4029  -15.3691 C   0  0  0  0  0  0  0  0  0  0  0  0
   21.0192   -6.9842  -14.8452 O   0  0  0  0  0  0  0  0  0  0  0  0
   20.8098   -5.9381  -13.9621 O   0  0  0  0  0  0  0  0  0  0  0  0
  2  1  1  6
  2  5  1  0
  2  3  1  0
  3  4  1  0
  5  6  2  0
  7  8  1  0
  8  9  2  0
  8 10  1  0
 10 11  1  0
 11 12  1  0
 12 13  1  0
 14 13  1  1
 14 16  1  0
 15  5  1  0
 15 14  1  0
 16 18  1  0
 16 17  2  0
 18 19  1  0
 20 19  1  0
 20 21  1  0
 22 20  2  0
M  END
$$$$
