CRG.pdb
     RDKit          3D

 22 21  0  0  1  0  0  0  0  0999 V2000
   20.0163  -21.3397  -11.6071 N   0  0  0  0  0  0  0  0  0  0  0  0
   19.9780  -21.5318  -13.0305 C   0  0  1  0  0  0  0  0  0  0  0  0
   18.5311  -21.7202  -13.4465 C   0  0  0  0  0  0  0  0  0  0  0  0
   17.6048  -22.5407  -12.1371 S   0  0  0  0  0  0  0  0  0  0  0  0
   20.4765  -20.3136  -13.7504 C   0  0  0  0  0  0  0  0  0  0  0  0
   20.4383  -19.1763  -13.1859 O   0  0  0  0  0  0  0  0  0  0  0  0
   24.7874  -22.4119  -13.2780 N   0  0  0  0  0  0  0  0  0  0  0  0
   25.1837  -22.4875  -14.6420 C   0  0  0  0  0  0  0  0  0  0  0  0
   24.9391  -23.4976  -15.3913 N   0  0  0  0  0  0  0  0  0  0  0  0
   25.8914  -21.3541  -15.1680 N   0  0  0  0  0  0  0  0  0  0  0  0
   25.2262  -20.4381  -16.0362 C   0  0  0  0  0  0  0  0  0  0  0  0
   24.0012  -19.8999  -15.2975 C   0  0  0  0  0  0  0  0  0  0  0  0
   22.8918  -19.8478  -16.3032 C   0  0  0  0  0  0  0  0  0  0  0  0
   21.5837  -19.3563  -15.7716 C   0  0  2  0  0  0  0  0  0  0  0  0
   20.9798  -20.4883  -15.0589 N   0  0  0  0  0  0  0  0  0  0  0  0
   20.6829  -18.9571  -16.8485 C   0  0  0  0  0  0  0  0  0  0  0  0
   19.8723  -19.7853  -17.3263 O   0  0  0  0  0  0  0  0  0  0  0  0
   25.2758  -23.4784  -16.3874 N   0  0  0  0  0  0  0  0  0  0  0  0
   20.7070  -17.6202  -17.3776 C   0  0  0  0  0  0  0  0  0  0  0  0
   19.5198  -16.8284  -17.1852 C   0  0  0  0  0  0  0  0  0  0  0  0
   19.6051  -15.4949  -17.7976 O   0  0  0  0  0  0  0  0  0  0  0  0
   19.1688  -15.1712  -19.0716 O   0  0  0  0  0  0  0  0  0  0  0  0
  2  1  1  1
  2  5  1  0
  2  3  1  0
  3  4  1  0
  5  6  2  0
  7  8  1  0
  8  9  2  0
  8 10  1  0
 10 11  1  0
 11 12  1  0
 12 13  1  0
 14 13  1  6
 14 16  1  0
 15  5  1  0
 15 14  1  0
 16 18  1  0
 16 17  2  0
 18 19  1  0
 20 19  1  0
 20 21  1  0
 22 20  2  0
M  END
$$$$
