CSN.pdb
     RDKit          3D

 21 20  0  0  1  0  0  0  0  0999 V2000
   13.9854  -12.2879  -10.6165 N   0  0  0  0  0  0  0  0  0  0  0  0
   14.2218  -11.1009  -11.4072 C   0  0  1  0  0  0  0  0  0  0  0  0
   12.8663  -10.4443  -11.6851 C   0  0  0  0  0  0  0  0  0  0  0  0
   11.8944  -11.5474  -12.7550 S   0  0  0  0  0  0  0  0  0  0  0  0
   14.9959  -10.1423  -10.6063 C   0  0  0  0  0  0  0  0  0  0  0  0
   14.7941  -10.0772   -9.3589 O   0  0  0  0  0  0  0  0  0  0  0  0
   18.9493   -8.6856  -11.0803 O   0  0  0  0  0  0  0  0  0  0  0  0
   17.8605   -7.8486  -11.1716 C   0  0  0  0  0  0  0  0  0  0  0  0
   16.6875   -8.3769  -10.3705 C   0  0  2  0  0  0  0  0  0  0  0  0
   15.9542   -9.3046  -11.2266 N   0  0  0  0  0  0  0  0  0  0  0  0
   15.8069   -7.2004  -10.0787 C   0  0  0  0  0  0  0  0  0  0  0  0
   14.9837   -6.7822  -10.9326 O   0  0  0  0  0  0  0  0  0  0  0  0
   13.2642   -4.2682   -5.3484 N   0  0  0  0  0  0  0  0  0  0  0  0
   13.9457   -4.1874   -6.5811 C   0  0  0  0  0  0  0  0  0  0  0  0
   13.7693   -3.1863   -7.3074 O   0  0  0  0  0  0  0  0  0  0  0  0
   14.8417   -5.2576   -6.9981 C   0  0  0  0  0  0  0  0  0  0  0  0
   14.9337   -5.4565   -8.4895 C   0  0  2  0  0  0  0  0  0  0  0  0
   15.8616   -6.5127   -8.8395 N   0  0  0  0  0  0  0  0  0  0  0  0
   15.3552   -4.2372   -9.2024 C   0  0  0  0  0  0  0  0  0  0  0  0
   14.4530   -3.3675   -9.7974 O   0  0  0  0  0  0  0  0  0  0  0  0
   16.5738   -3.9411   -9.2953 O   0  0  0  0  0  0  0  0  0  0  0  0
  2  5  1  0
  2  1  1  1
  3  2  1  0
  4  3  1  0
  5  6  2  0
  8  7  1  0
  9  8  1  6
 10  9  1  0
 10  5  1  0
 11  9  1  0
 11 12  2  0
 13 14  1  0
 14 16  1  0
 14 15  2  0
 17 16  1  1
 17 18  1  0
 17 19  1  0
 18 11  1  0
 19 21  2  0
 19 20  1  0
M  END
$$$$
