CSN.pdb
     RDKit          3D

 21 20  0  0  1  0  0  0  0  0999 V2000
   23.0433  -13.7890  -19.0911 N   0  0  0  0  0  0  0  0  0  0  0  0
   21.8861  -13.0264  -18.6794 C   0  0  1  0  0  0  0  0  0  0  0  0
   20.8732  -14.0014  -18.0719 C   0  0  0  0  0  0  0  0  0  0  0  0
   20.2603  -15.0973  -19.3870 S   0  0  0  0  0  0  0  0  0  0  0  0
   22.2808  -12.1068  -17.6032 C   0  0  0  0  0  0  0  0  0  0  0  0
   23.4494  -12.1845  -17.1244 O   0  0  0  0  0  0  0  0  0  0  0  0
   23.4002   -8.1865  -16.6109 O   0  0  0  0  0  0  0  0  0  0  0  0
   22.9013   -9.3111  -17.2278 C   0  0  0  0  0  0  0  0  0  0  0  0
   21.9053  -10.0326  -16.3423 C   0  0  2  0  0  0  0  0  0  0  0  0
   21.3621  -11.1481  -17.1117 N   0  0  0  0  0  0  0  0  0  0  0  0
   20.7989   -9.0607  -16.0664 C   0  0  0  0  0  0  0  0  0  0  0  0
   19.9821   -8.7392  -16.9670 O   0  0  0  0  0  0  0  0  0  0  0  0
   17.6666   -9.5197  -14.0236 N   0  0  0  0  0  0  0  0  0  0  0  0
   18.0560   -8.7206  -12.9279 C   0  0  0  0  0  0  0  0  0  0  0  0
   17.5445   -8.9352  -11.8084 O   0  0  0  0  0  0  0  0  0  0  0  0
   19.0407   -7.6615  -13.1027 C   0  0  0  0  0  0  0  0  0  0  0  0
   19.5674   -7.5170  -14.5077 C   0  0  2  0  0  0  0  0  0  0  0  0
   20.6250   -8.4659  -14.7906 N   0  0  0  0  0  0  0  0  0  0  0  0
   20.0923   -6.1675  -14.7839 C   0  0  0  0  0  0  0  0  0  0  0  0
   19.2688   -5.0833  -15.0495 O   0  0  0  0  0  0  0  0  0  0  0  0
   21.3313   -5.9530  -14.7873 O   0  0  0  0  0  0  0  0  0  0  0  0
  2  5  1  0
  2  1  1  1
  3  2  1  0
  4  3  1  0
  5  6  2  0
  8  7  1  0
  9  8  1  6
 10  9  1  0
 10  5  1  0
 11  9  1  0
 11 12  2  0
 13 14  1  0
 14 16  1  0
 14 15  2  0
 17 16  1  1
 17 18  1  0
 17 19  1  0
 18 11  1  0
 19 21  2  0
 19 20  1  0
M  END
$$$$
