CSN.pdb
     RDKit          3D

 21 20  0  0  1  0  0  0  0  0999 V2000
   19.9219  -12.3297  -19.4736 N   0  0  0  0  0  0  0  0  0  0  0  0
   21.1623  -11.6043  -19.3136 C   0  0  1  0  0  0  0  0  0  0  0  0
   21.2101  -10.5134  -20.3875 C   0  0  0  0  0  0  0  0  0  0  0  0
   21.9076  -11.2251  -21.9084 S   0  0  0  0  0  0  0  0  0  0  0  0
   21.1460  -10.9150  -18.0157 C   0  0  0  0  0  0  0  0  0  0  0  0
   20.0581  -10.4293  -17.5899 O   0  0  0  0  0  0  0  0  0  0  0  0
   23.4381   -9.9557  -13.9007 O   0  0  0  0  0  0  0  0  0  0  0  0
   23.4211  -10.5799  -15.1272 C   0  0  0  0  0  0  0  0  0  0  0  0
   22.2396  -10.1280  -15.9619 C   0  0  2  0  0  0  0  0  0  0  0  0
   22.3347  -10.7984  -17.2553 N   0  0  0  0  0  0  0  0  0  0  0  0
   22.4078   -8.6547  -16.1753 C   0  0  0  0  0  0  0  0  0  0  0  0
   22.7886   -8.2022  -17.2852 O   0  0  0  0  0  0  0  0  0  0  0  0
   22.1839   -3.5328  -15.8938 N   0  0  0  0  0  0  0  0  0  0  0  0
   21.3416   -4.3641  -16.6621 C   0  0  0  0  0  0  0  0  0  0  0  0
   20.5870   -3.8442  -17.5114 O   0  0  0  0  0  0  0  0  0  0  0  0
   21.3540   -5.8073  -16.4656 C   0  0  0  0  0  0  0  0  0  0  0  0
   22.2495   -6.2833  -15.3503 C   0  0  2  0  0  0  0  0  0  0  0  0
   22.1478   -7.7141  -15.1462 N   0  0  0  0  0  0  0  0  0  0  0  0
   21.9560   -5.6266  -14.0637 C   0  0  0  0  0  0  0  0  0  0  0  0
   22.4231   -4.3598  -13.7454 O   0  0  0  0  0  0  0  0  0  0  0  0
   21.2571   -6.2081  -13.1950 O   0  0  0  0  0  0  0  0  0  0  0  0
  2  5  1  0
  2  1  1  6
  3  2  1  0
  4  3  1  0
  5  6  2  0
  8  7  1  0
  9  8  1  1
 10  9  1  0
 10  5  1  0
 11  9  1  0
 11 12  2  0
 13 14  1  0
 14 16  1  0
 14 15  2  0
 17 16  1  6
 17 18  1  0
 17 19  1  0
 18 11  1  0
 19 21  2  0
 19 20  1  0
M  END
$$$$
