CSN.pdb
     RDKit          3D

 21 20  0  0  1  0  0  0  0  0999 V2000
   21.3709   -7.5945  -15.1405 N   0  0  0  0  0  0  0  0  0  0  0  0
   20.5344   -8.0247  -14.0426 C   0  0  1  0  0  0  0  0  0  0  0  0
   21.3969   -8.0505  -12.7774 C   0  0  0  0  0  0  0  0  0  0  0  0
   22.5702   -9.4340  -12.9016 S   0  0  0  0  0  0  0  0  0  0  0  0
   19.4893   -7.0163  -13.8176 C   0  0  0  0  0  0  0  0  0  0  0  0
   19.7643   -5.7941  -13.9950 O   0  0  0  0  0  0  0  0  0  0  0  0
   15.7005   -8.0656  -12.4861 O   0  0  0  0  0  0  0  0  0  0  0  0
   15.8242   -7.0317  -13.3862 C   0  0  0  0  0  0  0  0  0  0  0  0
   17.1819   -6.3665  -13.2820 C   0  0  2  0  0  0  0  0  0  0  0  0
   18.1931   -7.4119  -13.4076 N   0  0  0  0  0  0  0  0  0  0  0  0
   17.2664   -5.7851  -11.9038 C   0  0  0  0  0  0  0  0  0  0  0  0
   18.2304   -6.0607  -11.1445 O   0  0  0  0  0  0  0  0  0  0  0  0
   16.8232   -2.5168   -7.9349 N   0  0  0  0  0  0  0  0  0  0  0  0
   17.7992   -2.4917   -8.9535 C   0  0  0  0  0  0  0  0  0  0  0  0
   18.7607   -1.7003   -8.8531 O   0  0  0  0  0  0  0  0  0  0  0  0
   17.6846   -3.3772  -10.1045 C   0  0  0  0  0  0  0  0  0  0  0  0
   16.4212   -4.1986  -10.1437 C   0  0  2  0  0  0  0  0  0  0  0  0
   16.2737   -4.9070  -11.3988 N   0  0  0  0  0  0  0  0  0  0  0  0
   15.2070   -3.3871   -9.9433 C   0  0  0  0  0  0  0  0  0  0  0  0
   14.4166   -2.9489  -10.9956 O   0  0  0  0  0  0  0  0  0  0  0  0
   14.8421   -3.0598   -8.7853 O   0  0  0  0  0  0  0  0  0  0  0  0
  2  5  1  0
  2  1  1  6
  3  2  1  0
  4  3  1  0
  5  6  2  0
  8  7  1  0
  9  8  1  1
 10  9  1  0
 10  5  1  0
 11  9  1  0
 11 12  2  0
 13 14  1  0
 14 16  1  0
 14 15  2  0
 17 16  1  6
 17 18  1  0
 17 19  1  0
 18 11  1  0
 19 21  2  0
 19 20  1  0
M  END
$$$$
