CSN.pdb
     RDKit          3D

 21 20  0  0  1  0  0  0  0  0999 V2000
   28.2795  -22.4972  -17.1262 N   0  0  0  0  0  0  0  0  0  0  0  0
   26.9833  -23.1373  -17.1115 C   0  0  1  0  0  0  0  0  0  0  0  0
   26.9600  -24.1237  -15.9401 C   0  0  0  0  0  0  0  0  0  0  0  0
   27.9021  -25.6063  -16.4099 S   0  0  0  0  0  0  0  0  0  0  0  0
   25.9563  -22.1251  -16.8280 C   0  0  0  0  0  0  0  0  0  0  0  0
   26.2338  -21.1674  -16.0491 O   0  0  0  0  0  0  0  0  0  0  0  0
   22.1944  -19.7142  -18.2729 O   0  0  0  0  0  0  0  0  0  0  0  0
   23.0585  -20.7724  -18.4396 C   0  0  0  0  0  0  0  0  0  0  0  0
   23.7179  -21.1601  -17.1313 C   0  0  2  0  0  0  0  0  0  0  0  0
   24.6744  -22.2244  -17.4209 N   0  0  0  0  0  0  0  0  0  0  0  0
   22.6356  -21.7169  -16.2578 C   0  0  0  0  0  0  0  0  0  0  0  0
   22.4330  -22.9564  -16.1911 O   0  0  0  0  0  0  0  0  0  0  0  0
   20.1238  -21.7862  -10.9205 N   0  0  0  0  0  0  0  0  0  0  0  0
   20.0171  -21.9042  -12.3224 C   0  0  0  0  0  0  0  0  0  0  0  0
   19.0543  -22.5363  -12.8065 O   0  0  0  0  0  0  0  0  0  0  0  0
   21.0169  -21.2966  -13.1902 C   0  0  0  0  0  0  0  0  0  0  0  0
   20.7158  -21.3960  -14.6639 C   0  0  2  0  0  0  0  0  0  0  0  0
   21.7998  -20.8802  -15.4749 N   0  0  0  0  0  0  0  0  0  0  0  0
   19.4892  -20.6730  -15.0453 C   0  0  0  0  0  0  0  0  0  0  0  0
   19.4953  -19.3428  -15.4389 O   0  0  0  0  0  0  0  0  0  0  0  0
   18.3738  -21.2532  -15.0250 O   0  0  0  0  0  0  0  0  0  0  0  0
  2  5  1  0
  2  1  1  1
  3  2  1  0
  4  3  1  0
  5  6  2  0
  8  7  1  0
  9  8  1  6
 10  9  1  0
 10  5  1  0
 11  9  1  0
 11 12  2  0
 13 14  1  0
 14 16  1  0
 14 15  2  0
 17 16  1  1
 17 18  1  0
 17 19  1  0
 18 11  1  0
 19 21  2  0
 19 20  1  0
M  END
$$$$
