CSN.pdb
     RDKit          3D

 21 20  0  0  1  0  0  0  0  0999 V2000
   22.9980  -12.5091  -19.7983 N   0  0  0  0  0  0  0  0  0  0  0  0
   22.5643  -11.1388  -19.9552 C   0  0  1  0  0  0  0  0  0  0  0  0
   21.0367  -11.1394  -20.0642 C   0  0  0  0  0  0  0  0  0  0  0  0
   20.5670  -11.9060  -21.6447 S   0  0  0  0  0  0  0  0  0  0  0  0
   22.8975  -10.3919  -18.7341 C   0  0  0  0  0  0  0  0  0  0  0  0
   22.8093  -10.9727  -17.6135 O   0  0  0  0  0  0  0  0  0  0  0  0
   25.2168   -7.0070  -18.8507 O   0  0  0  0  0  0  0  0  0  0  0  0
   25.1572   -7.8928  -17.7991 C   0  0  0  0  0  0  0  0  0  0  0  0
   23.7448   -8.3966  -17.5790 C   0  0  2  0  0  0  0  0  0  0  0  0
   23.3114   -9.0403  -18.8156 N   0  0  0  0  0  0  0  0  0  0  0  0
   22.8924   -7.1865  -17.3477 C   0  0  0  0  0  0  0  0  0  0  0  0
   22.1335   -6.7490  -18.2501 O   0  0  0  0  0  0  0  0  0  0  0  0
   20.3772   -3.1560  -15.3726 N   0  0  0  0  0  0  0  0  0  0  0  0
   19.8108   -4.3553  -15.8536 C   0  0  0  0  0  0  0  0  0  0  0  0
   18.5770   -4.4106  -16.0423 O   0  0  0  0  0  0  0  0  0  0  0  0
   20.6552   -5.5108  -16.1254 C   0  0  0  0  0  0  0  0  0  0  0  0
   22.1268   -5.2848  -15.8895 C   0  0  2  0  0  0  0  0  0  0  0  0
   22.9029   -6.4873  -16.1138 N   0  0  0  0  0  0  0  0  0  0  0  0
   22.4194   -4.8123  -14.5242 C   0  0  0  0  0  0  0  0  0  0  0  0
   22.5115   -3.4665  -14.2008 O   0  0  0  0  0  0  0  0  0  0  0  0
   22.5986   -5.6338  -13.5892 O   0  0  0  0  0  0  0  0  0  0  0  0
  2  5  1  0
  2  1  1  1
  3  2  1  0
  4  3  1  0
  5  6  2  0
  8  7  1  0
  9  8  1  6
 10  9  1  0
 10  5  1  0
 11  9  1  0
 11 12  2  0
 13 14  1  0
 14 16  1  0
 14 15  2  0
 17 16  1  1
 17 18  1  0
 17 19  1  0
 18 11  1  0
 19 21  2  0
 19 20  1  0
M  END
$$$$
