CSN.pdb
     RDKit          3D

 21 20  0  0  1  0  0  0  0  0999 V2000
   12.6085   -9.1198   -8.9114 N   0  0  0  0  0  0  0  0  0  0  0  0
   13.9978   -9.3750   -9.2195 C   0  0  1  0  0  0  0  0  0  0  0  0
   14.0455  -10.3666  -10.3857 C   0  0  0  0  0  0  0  0  0  0  0  0
   13.5904  -12.0145   -9.7665 S   0  0  0  0  0  0  0  0  0  0  0  0
   14.6143   -8.1309   -9.7011 C   0  0  0  0  0  0  0  0  0  0  0  0
   13.9816   -7.4088  -10.5251 O   0  0  0  0  0  0  0  0  0  0  0  0
   17.1708   -4.3611   -8.9607 O   0  0  0  0  0  0  0  0  0  0  0  0
   16.5893   -5.5495   -8.5815 C   0  0  0  0  0  0  0  0  0  0  0  0
   16.4464   -6.4958   -9.7566 C   0  0  2  0  0  0  0  0  0  0  0  0
   15.8997   -7.7495   -9.2460 N   0  0  0  0  0  0  0  0  0  0  0  0
   17.8314   -6.7528  -10.2670 C   0  0  0  0  0  0  0  0  0  0  0  0
   18.5126   -7.7153   -9.8296 O   0  0  0  0  0  0  0  0  0  0  0  0
   22.0839   -6.9858  -13.1459 N   0  0  0  0  0  0  0  0  0  0  0  0
   21.0216   -7.9141  -13.1312 C   0  0  0  0  0  0  0  0  0  0  0  0
   21.1608   -9.0048  -13.7243 O   0  0  0  0  0  0  0  0  0  0  0  0
   19.7814   -7.6023  -12.4335 C   0  0  0  0  0  0  0  0  0  0  0  0
   19.7268   -6.2206  -11.8333 C   0  0  2  0  0  0  0  0  0  0  0  0
   18.4300   -5.9310  -11.2558 N   0  0  0  0  0  0  0  0  0  0  0  0
   20.0262   -5.1610  -12.8133 C   0  0  0  0  0  0  0  0  0  0  0  0
   21.2822   -4.5846  -12.9333 O   0  0  0  0  0  0  0  0  0  0  0  0
   19.1314   -4.7372  -13.5884 O   0  0  0  0  0  0  0  0  0  0  0  0
  2  5  1  0
  2  1  1  6
  3  2  1  0
  4  3  1  0
  5  6  2  0
  8  7  1  0
  9  8  1  1
 10  9  1  0
 10  5  1  0
 11  9  1  0
 11 12  2  0
 13 14  1  0
 14 16  1  0
 14 15  2  0
 17 16  1  6
 17 18  1  0
 17 19  1  0
 18 11  1  0
 19 21  2  0
 19 20  1  0
M  END
$$$$
