CSN.pdb
     RDKit          3D

 21 20  0  0  1  0  0  0  0  0999 V2000
   17.9601  -12.6502  -15.9166 N   0  0  0  0  0  0  0  0  0  0  0  0
   18.5371  -11.5456  -16.6496 C   0  0  1  0  0  0  0  0  0  0  0  0
   17.3945  -10.6242  -17.0865 C   0  0  0  0  0  0  0  0  0  0  0  0
   16.4770  -11.4334  -18.4318 S   0  0  0  0  0  0  0  0  0  0  0  0
   19.3838  -10.7616  -15.7396 C   0  0  0  0  0  0  0  0  0  0  0  0
   18.9294  -10.4327  -14.6055 O   0  0  0  0  0  0  0  0  0  0  0  0
   23.2431   -9.5170  -16.7855 O   0  0  0  0  0  0  0  0  0  0  0  0
   22.9379   -9.8459  -15.4843 C   0  0  0  0  0  0  0  0  0  0  0  0
   21.4739   -9.5991  -15.1797 C   0  0  2  0  0  0  0  0  0  0  0  0
   20.6903  -10.3816  -16.1311 N   0  0  0  0  0  0  0  0  0  0  0  0
   21.2244   -8.1448  -15.4391 C   0  0  0  0  0  0  0  0  0  0  0  0
   20.5956   -7.7697  -16.4617 O   0  0  0  0  0  0  0  0  0  0  0  0
   20.7397   -3.0264  -15.0394 N   0  0  0  0  0  0  0  0  0  0  0  0
   19.6957   -3.9753  -15.0210 C   0  0  0  0  0  0  0  0  0  0  0  0
   18.5130   -3.5774  -15.0825 O   0  0  0  0  0  0  0  0  0  0  0  0
   19.9959   -5.3979  -14.9315 C   0  0  0  0  0  0  0  0  0  0  0  0
   21.4609   -5.7249  -14.7931 C   0  0  2  0  0  0  0  0  0  0  0  0
   21.6812   -7.1365  -14.5525 N   0  0  0  0  0  0  0  0  0  0  0  0
   22.1110   -4.9787  -13.7007 C   0  0  0  0  0  0  0  0  0  0  0  0
   22.5910   -3.6868  -13.8580 O   0  0  0  0  0  0  0  0  0  0  0  0
   22.2536   -5.5026  -12.5666 O   0  0  0  0  0  0  0  0  0  0  0  0
  2  5  1  0
  2  1  1  1
  3  2  1  0
  4  3  1  0
  5  6  2  0
  8  7  1  0
  9  8  1  6
 10  9  1  0
 10  5  1  0
 11  9  1  0
 11 12  2  0
 13 14  1  0
 14 16  1  0
 14 15  2  0
 17 16  1  1
 17 18  1  0
 17 19  1  0
 18 11  1  0
 19 21  2  0
 19 20  1  0
M  END
$$$$
