CSN.pdb
     RDKit          3D

 21 20  0  0  1  0  0  0  0  0999 V2000
   40.1627  -13.8396  -17.4604 N   0  0  0  0  0  0  0  0  0  0  0  0
   39.0425  -13.2894  -16.7307 C   0  0  1  0  0  0  0  0  0  0  0  0
   39.5999  -12.4638  -15.5674 C   0  0  0  0  0  0  0  0  0  0  0  0
   40.2996  -13.5993  -14.3315 S   0  0  0  0  0  0  0  0  0  0  0  0
   38.3212  -12.3518  -17.6027 C   0  0  0  0  0  0  0  0  0  0  0  0
   38.7162  -12.1904  -18.7938 O   0  0  0  0  0  0  0  0  0  0  0  0
   34.9086  -11.4460  -19.9204 O   0  0  0  0  0  0  0  0  0  0  0  0
   35.7950  -11.9987  -19.0242 C   0  0  0  0  0  0  0  0  0  0  0  0
   36.3640  -10.9499  -18.0899 C   0  0  2  0  0  0  0  0  0  0  0  0
   37.1995  -11.6407  -17.1121 N   0  0  0  0  0  0  0  0  0  0  0  0
   35.1978  -10.3399  -17.3739 C   0  0  0  0  0  0  0  0  0  0  0  0
   34.5159  -11.0133  -16.5594 O   0  0  0  0  0  0  0  0  0  0  0  0
   33.1990   -5.2835  -14.9091 N   0  0  0  0  0  0  0  0  0  0  0  0
   33.0724   -6.6601  -15.1915 C   0  0  0  0  0  0  0  0  0  0  0  0
   32.0238   -7.2533  -14.8607 O   0  0  0  0  0  0  0  0  0  0  0  0
   34.1507   -7.3765  -15.8592 C   0  0  0  0  0  0  0  0  0  0  0  0
   33.6973   -8.3798  -16.8888 C   0  0  2  0  0  0  0  0  0  0  0  0
   34.8146   -8.9901  -17.5802 N   0  0  0  0  0  0  0  0  0  0  0  0
   32.8097   -7.7901  -17.9074 C   0  0  0  0  0  0  0  0  0  0  0  0
   31.4379   -7.6811  -17.7332 O   0  0  0  0  0  0  0  0  0  0  0  0
   33.2800   -7.3577  -18.9904 O   0  0  0  0  0  0  0  0  0  0  0  0
  2  5  1  0
  2  1  1  6
  3  2  1  0
  4  3  1  0
  5  6  2  0
  8  7  1  0
  9  8  1  6
 10  9  1  0
 10  5  1  0
 11  9  1  0
 11 12  2  0
 13 14  1  0
 14 16  1  0
 14 15  2  0
 17 16  1  1
 17 18  1  0
 17 19  1  0
 18 11  1  0
 19 21  2  0
 19 20  1  0
M  END
$$$$
