CSN.pdb
     RDKit          3D

 21 20  0  0  1  0  0  0  0  0999 V2000
   13.4362  -10.2481   -9.8401 N   0  0  0  0  0  0  0  0  0  0  0  0
   14.8359   -9.9258   -9.6755 C   0  0  1  0  0  0  0  0  0  0  0  0
   15.6385  -10.8204  -10.6248 C   0  0  0  0  0  0  0  0  0  0  0  0
   15.6392  -12.5149   -9.9652 S   0  0  0  0  0  0  0  0  0  0  0  0
   15.0598   -8.5412  -10.1143 C   0  0  0  0  0  0  0  0  0  0  0  0
   14.3949   -8.0895  -11.0914 O   0  0  0  0  0  0  0  0  0  0  0  0
   16.5235   -5.9098   -7.5833 O   0  0  0  0  0  0  0  0  0  0  0  0
   15.8804   -5.4481   -8.7091 C   0  0  0  0  0  0  0  0  0  0  0  0
   16.1404   -6.3455   -9.9024 C   0  0  2  0  0  0  0  0  0  0  0  0
   16.0082   -7.7269   -9.4491 N   0  0  0  0  0  0  0  0  0  0  0  0
   17.5632   -6.1116  -10.3090 C   0  0  0  0  0  0  0  0  0  0  0  0
   18.5145   -6.5051   -9.5864 O   0  0  0  0  0  0  0  0  0  0  0  0
   22.1801   -5.6646  -12.4598 N   0  0  0  0  0  0  0  0  0  0  0  0
   21.2259   -6.6554  -12.7734 C   0  0  0  0  0  0  0  0  0  0  0  0
   21.5047   -7.5146  -13.6365 O   0  0  0  0  0  0  0  0  0  0  0  0
   19.9351   -6.6737  -12.0987 C   0  0  0  0  0  0  0  0  0  0  0  0
   19.2603   -5.3298  -11.9936 C   0  0  2  0  0  0  0  0  0  0  0  0
   17.8979   -5.4430  -11.5142 N   0  0  0  0  0  0  0  0  0  0  0  0
   19.2234   -4.6083  -13.2785 C   0  0  0  0  0  0  0  0  0  0  0  0
   18.0394   -4.3144  -13.9389 O   0  0  0  0  0  0  0  0  0  0  0  0
   20.2887   -4.2284  -13.8280 O   0  0  0  0  0  0  0  0  0  0  0  0
  2  5  1  0
  2  1  1  6
  3  2  1  0
  4  3  1  0
  5  6  2  0
  8  7  1  0
  9  8  1  1
 10  9  1  0
 10  5  1  0
 11  9  1  0
 11 12  2  0
 13 14  1  0
 14 16  1  0
 14 15  2  0
 17 16  1  6
 17 18  1  0
 17 19  1  0
 18 11  1  0
 19 21  2  0
 19 20  1  0
M  END
$$$$
