CSN.pdb
     RDKit          3D

 21 20  0  0  1  0  0  0  0  0999 V2000
   17.9881  -12.3206  -17.6611 N   0  0  0  0  0  0  0  0  0  0  0  0
   17.9441  -10.9220  -18.0247 C   0  0  1  0  0  0  0  0  0  0  0  0
   16.5456  -10.6231  -18.5729 C   0  0  0  0  0  0  0  0  0  0  0  0
   16.4228  -11.3036  -20.2546 S   0  0  0  0  0  0  0  0  0  0  0  0
   18.1010  -10.1097  -16.8101 C   0  0  0  0  0  0  0  0  0  0  0  0
   17.4274  -10.4048  -15.7806 O   0  0  0  0  0  0  0  0  0  0  0  0
   21.0420   -9.5015  -14.8897 O   0  0  0  0  0  0  0  0  0  0  0  0
   19.7572   -9.1669  -14.5268 C   0  0  0  0  0  0  0  0  0  0  0  0
   19.1114   -8.2573  -15.5526 C   0  0  2  0  0  0  0  0  0  0  0  0
   18.9955   -9.0122  -16.7968 N   0  0  0  0  0  0  0  0  0  0  0  0
   20.0621   -7.1204  -15.7720 C   0  0  0  0  0  0  0  0  0  0  0  0
   20.8580   -7.1226  -16.7458 O   0  0  0  0  0  0  0  0  0  0  0  0
   22.6387   -2.6163  -15.3071 N   0  0  0  0  0  0  0  0  0  0  0  0
   21.2971   -2.4303  -14.9123 C   0  0  0  0  0  0  0  0  0  0  0  0
   20.8934   -1.2752  -14.6601 O   0  0  0  0  0  0  0  0  0  0  0  0
   20.3978   -3.5709  -14.8012 C   0  0  0  0  0  0  0  0  0  0  0  0
   21.0377   -4.9069  -15.0807 C   0  0  2  0  0  0  0  0  0  0  0  0
   20.1069   -6.0023  -14.9005 N   0  0  0  0  0  0  0  0  0  0  0  0
   22.2078   -5.1692  -14.2235 C   0  0  0  0  0  0  0  0  0  0  0  0
   23.5072   -5.1699  -14.7092 O   0  0  0  0  0  0  0  0  0  0  0  0
   22.0606   -5.4058  -12.9974 O   0  0  0  0  0  0  0  0  0  0  0  0
  2  5  1  0
  2  1  1  1
  3  2  1  0
  4  3  1  0
  5  6  2  0
  8  7  1  0
  9  8  1  1
 10  9  1  0
 10  5  1  0
 11  9  1  0
 11 12  2  0
 13 14  1  0
 14 16  1  0
 14 15  2  0
 17 16  1  1
 17 18  1  0
 17 19  1  0
 18 11  1  0
 19 21  2  0
 19 20  1  0
M  END
$$$$
