CSN.pdb
     RDKit          3D

 21 20  0  0  1  0  0  0  0  0999 V2000
   23.8068   -9.5880  -16.9985 N   0  0  0  0  0  0  0  0  0  0  0  0
   22.9094   -9.7748  -15.8805 C   0  0  1  0  0  0  0  0  0  0  0  0
   23.7438  -10.2297  -14.6796 C   0  0  0  0  0  0  0  0  0  0  0  0
   24.0971  -12.0047  -14.8560 S   0  0  0  0  0  0  0  0  0  0  0  0
   22.3251   -8.4761  -15.5176 C   0  0  0  0  0  0  0  0  0  0  0  0
   23.0749   -7.4589  -15.4565 O   0  0  0  0  0  0  0  0  0  0  0  0
   18.8813   -7.5157  -16.7057 O   0  0  0  0  0  0  0  0  0  0  0  0
   19.6958   -6.5423  -16.1731 C   0  0  0  0  0  0  0  0  0  0  0  0
   20.4184   -7.0403  -14.9375 C   0  0  2  0  0  0  0  0  0  0  0  0
   20.9406   -8.3694  -15.2409 N   0  0  0  0  0  0  0  0  0  0  0  0
   19.3835   -7.1690  -13.8620 C   0  0  0  0  0  0  0  0  0  0  0  0
   18.8136   -8.2684  -13.6423 O   0  0  0  0  0  0  0  0  0  0  0  0
   16.0320   -6.0530  -10.0222 N   0  0  0  0  0  0  0  0  0  0  0  0
   17.3905   -6.1498   -9.6539 C   0  0  0  0  0  0  0  0  0  0  0  0
   17.6905   -6.1684   -8.4412 O   0  0  0  0  0  0  0  0  0  0  0  0
   18.4262   -6.2267  -10.6754 C   0  0  0  0  0  0  0  0  0  0  0  0
   17.9204   -6.1402  -12.0928 C   0  0  2  0  0  0  0  0  0  0  0  0
   19.0039   -6.0685  -13.0518 N   0  0  0  0  0  0  0  0  0  0  0  0
   17.0477   -4.9735  -12.3166 C   0  0  0  0  0  0  0  0  0  0  0  0
   17.3414   -3.9853  -13.2447 O   0  0  0  0  0  0  0  0  0  0  0  0
   15.9857   -4.8351  -11.6576 O   0  0  0  0  0  0  0  0  0  0  0  0
  2  5  1  0
  2  1  1  6
  3  2  1  0
  4  3  1  0
  5  6  2  0
  8  7  1  0
  9  8  1  6
 10  9  1  0
 10  5  1  0
 11  9  1  0
 11 12  2  0
 13 14  1  0
 14 16  1  0
 14 15  2  0
 17 16  1  1
 17 18  1  0
 17 19  1  0
 18 11  1  0
 19 21  2  0
 19 20  1  0
M  END
$$$$
