RNG.pdb
     RDKit          3D

 24 23  0  0  1  0  0  0  0  0999 V2000
    6.5854  -13.7954   19.6371 N   0  0  0  0  0  0  0  0  0  0  0  0
    7.4417  -13.3843   18.5559 C   0  0  0  0  0  0  0  0  0  0  0  0
    6.9671  -13.4207   17.3626 N   0  0  0  0  0  0  0  0  0  0  0  0
    8.7600  -12.9505   18.7577 N   0  0  0  0  0  0  0  0  0  0  0  0
    9.9188  -13.7196   18.3369 C   0  0  0  0  0  0  0  0  0  0  0  0
    9.5775  -15.1809   18.1637 C   0  0  0  0  0  0  0  0  0  0  0  0
   10.8181  -16.0480   18.1868 C   0  0  0  0  0  0  0  0  0  0  0  0
   11.4214  -16.1482   19.5496 C   0  0  2  0  0  0  0  0  0  0  0  0
   11.4074  -14.9160   20.2874 N   0  0  0  0  0  0  0  0  0  0  0  0
   12.7820  -16.7573   19.5046 C   0  0  0  0  0  0  0  0  0  0  0  0
   12.9278  -17.8363   18.9149 O   0  0  0  0  0  0  0  0  0  0  0  0
    7.5423  -13.2535   16.5230 N   0  0  0  0  0  0  0  0  0  0  0  0
   15.8529  -13.6730   18.0300 C   0  0  0  0  0  0  0  0  0  0  0  0
   16.0018  -15.0503   18.3115 O   0  0  0  0  0  0  0  0  0  0  0  0
   15.9290  -15.8185   17.2877 C   0  0  0  0  0  0  0  0  0  0  0  0
   16.2244  -15.6114   19.6560 C   0  0  2  0  0  0  0  0  0  0  0  0
   15.2242  -16.6502   20.0664 N   0  0  0  0  0  0  0  0  0  0  0  0
   13.9032  -16.1212   20.1242 C   0  0  0  0  0  0  0  0  0  0  0  0
   15.6418  -17.4188   21.2640 O   0  0  0  0  0  0  0  0  0  0  0  0
   16.7798  -17.9532   21.2766 N   0  0  0  0  0  0  0  0  0  0  0  0
   14.8073  -17.5771   22.3981 C   0  0  0  0  0  0  0  0  0  0  0  0
   15.1885  -18.3125   23.5830 C   0  0  0  0  0  0  0  0  0  0  0  0
   14.2245  -18.2275   24.6848 O   0  0  0  0  0  0  0  0  0  0  0  0
   13.1253  -17.6581   24.5608 O   0  0  0  0  0  0  0  0  0  0  0  0
  1  2  1  0
  2  3  2  0
  4  2  1  0
  5  4  1  0
  6  5  1  0
  7  6  1  0
  7  8  1  0
  8  9  1  6
  8 10  1  0
 10 11  2  0
 13 12  1  0
 13 15  1  0
 14 13  2  0
 16 15  1  6
 17 10  1  0
 17 16  1  0
 18 16  1  0
 18 20  1  0
 19 18  2  0
 21 20  1  0
 22 21  1  0
 22 24  1  0
 23 22  2  0
M  END
$$$$
