RNG.pdb
     RDKit          3D

 24 23  0  0  1  0  0  0  0  0999 V2000
    8.5468  -13.5784   18.5345 N   0  0  0  0  0  0  0  0  0  0  0  0
    8.1191  -12.7731   19.6479 C   0  0  0  0  0  0  0  0  0  0  0  0
    8.4257  -11.5255   19.6437 N   0  0  0  0  0  0  0  0  0  0  0  0
    7.3880  -13.2969   20.7241 N   0  0  0  0  0  0  0  0  0  0  0  0
    6.9667  -14.6858   20.7924 C   0  0  0  0  0  0  0  0  0  0  0  0
    8.1104  -15.5903   21.1869 C   0  0  0  0  0  0  0  0  0  0  0  0
    8.5606  -15.3293   22.6084 C   0  0  0  0  0  0  0  0  0  0  0  0
    9.5924  -16.3053   23.0708 C   0  0  2  0  0  0  0  0  0  0  0  0
    9.1516  -17.6723   23.0581 N   0  0  0  0  0  0  0  0  0  0  0  0
   10.1653  -15.9150   24.3913 C   0  0  0  0  0  0  0  0  0  0  0  0
   10.7253  -14.8152   24.4912 O   0  0  0  0  0  0  0  0  0  0  0  0
    8.1021  -10.8642   20.3659 N   0  0  0  0  0  0  0  0  0  0  0  0
   10.4137  -13.2088   28.8078 C   0  0  0  0  0  0  0  0  0  0  0  0
    9.9815  -14.5231   28.5174 O   0  0  0  0  0  0  0  0  0  0  0  0
    9.8357  -15.2792   29.5424 C   0  0  0  0  0  0  0  0  0  0  0  0
    9.7066  -15.0347   27.1628 C   0  0  1  0  0  0  0  0  0  0  0  0
   10.3574  -16.3496   26.8541 N   0  0  0  0  0  0  0  0  0  0  0  0
   10.0778  -16.7812   25.5261 C   0  0  0  0  0  0  0  0  0  0  0  0
   10.1293  -17.3722   27.9038 O   0  0  0  0  0  0  0  0  0  0  0  0
    8.9517  -17.7363   28.1515 N   0  0  0  0  0  0  0  0  0  0  0  0
   11.1879  -17.9566   28.6424 C   0  0  0  0  0  0  0  0  0  0  0  0
   11.3130  -19.3762   28.8859 C   0  0  0  0  0  0  0  0  0  0  0  0
   12.5411  -19.7643   29.5872 O   0  0  0  0  0  0  0  0  0  0  0  0
   13.4293  -18.9412   29.8726 O   0  0  0  0  0  0  0  0  0  0  0  0
  1  2  1  0
  2  3  2  0
  4  2  1  0
  5  4  1  0
  6  5  1  0
  7  6  1  0
  7  8  1  0
  8  9  1  1
  8 10  1  0
 10 11  2  0
 13 12  1  0
 13 15  1  0
 14 13  2  0
 16 15  1  6
 17 10  1  0
 17 16  1  0
 18 16  1  0
 18 20  1  0
 19 18  2  0
 21 20  1  0
 22 21  1  0
 22 24  1  0
 23 22  2  0
M  END
$$$$
