RNG.pdb
     RDKit          3D

 24 23  0  0  1  0  0  0  0  0999 V2000
    7.0287  -13.4929   14.6155 N   0  0  0  0  0  0  0  0  0  0  0  0
    7.2809  -13.8647   15.9827 C   0  0  0  0  0  0  0  0  0  0  0  0
    7.8070  -15.0147   16.2085 N   0  0  0  0  0  0  0  0  0  0  0  0
    6.9758  -13.0249   17.0638 N   0  0  0  0  0  0  0  0  0  0  0  0
    7.1600  -13.4211   18.4495 C   0  0  0  0  0  0  0  0  0  0  0  0
    8.5800  -13.8643   18.7123 C   0  0  0  0  0  0  0  0  0  0  0  0
    8.7504  -14.3737   20.1275 C   0  0  0  0  0  0  0  0  0  0  0  0
   10.1087  -14.9454   20.3709 C   0  0  2  0  0  0  0  0  0  0  0  0
   10.4612  -16.0153   19.4797 N   0  0  0  0  0  0  0  0  0  0  0  0
   10.2973  -15.3241   21.8010 C   0  0  0  0  0  0  0  0  0  0  0  0
   10.0446  -14.4831   22.6739 O   0  0  0  0  0  0  0  0  0  0  0  0
    8.0112  -15.3636   17.1573 N   0  0  0  0  0  0  0  0  0  0  0  0
   11.0054  -17.9943   26.2813 C   0  0  0  0  0  0  0  0  0  0  0  0
   10.9235  -18.8672   25.1724 O   0  0  0  0  0  0  0  0  0  0  0  0
   11.0591  -20.1101   25.4562 C   0  0  0  0  0  0  0  0  0  0  0  0
   10.7016  -18.4355   23.7808 C   0  0  1  0  0  0  0  0  0  0  0  0
   11.0333  -16.9969   23.5189 N   0  0  0  0  0  0  0  0  0  0  0  0
   10.7593  -16.6261   22.1716 C   0  0  0  0  0  0  0  0  0  0  0  0
   12.3779  -16.6110   24.0115 O   0  0  0  0  0  0  0  0  0  0  0  0
   12.6215  -16.6959   25.2420 N   0  0  0  0  0  0  0  0  0  0  0  0
   13.4022  -16.1477   23.1492 C   0  0  0  0  0  0  0  0  0  0  0  0
   14.7317  -15.7943   23.5940 C   0  0  0  0  0  0  0  0  0  0  0  0
   15.6376  -15.3735   22.5203 O   0  0  0  0  0  0  0  0  0  0  0  0
   15.2903  -15.3655   21.3257 O   0  0  0  0  0  0  0  0  0  0  0  0
  1  2  1  0
  2  3  2  0
  4  2  1  0
  5  4  1  0
  6  5  1  0
  7  6  1  0
  7  8  1  0
  8  9  1  6
  8 10  1  0
 10 11  2  0
 13 12  1  0
 13 15  1  0
 14 13  2  0
 16 15  1  1
 17 10  1  0
 17 16  1  0
 18 16  1  0
 18 20  1  0
 19 18  2  0
 21 20  1  0
 22 21  1  0
 22 24  1  0
 23 22  2  0
M  END
$$$$
