RNG.pdb
     RDKit          3D

 24 23  0  0  1  0  0  0  0  0999 V2000
    7.4862  -12.0610   18.0779 N   0  0  0  0  0  0  0  0  0  0  0  0
    8.3602  -12.5832   19.0951 C   0  0  0  0  0  0  0  0  0  0  0  0
    9.5725  -12.1590   19.1255 N   0  0  0  0  0  0  0  0  0  0  0  0
    7.9391  -13.5276   20.0426 N   0  0  0  0  0  0  0  0  0  0  0  0
    7.3340  -14.7974   19.6787 C   0  0  0  0  0  0  0  0  0  0  0  0
    6.0351  -15.0210   20.4168 C   0  0  0  0  0  0  0  0  0  0  0  0
    6.2629  -15.1912   21.9036 C   0  0  0  0  0  0  0  0  0  0  0  0
    7.1909  -16.3194   22.2154 C   0  0  2  0  0  0  0  0  0  0  0  0
    6.7738  -17.5850   21.6794 N   0  0  0  0  0  0  0  0  0  0  0  0
    7.4862  -16.4005   23.6751 C   0  0  0  0  0  0  0  0  0  0  0  0
    7.6087  -15.3466   24.3132 O   0  0  0  0  0  0  0  0  0  0  0  0
   10.2837  -12.5339   19.7714 N   0  0  0  0  0  0  0  0  0  0  0  0
    8.3437  -18.2657   28.5553 C   0  0  0  0  0  0  0  0  0  0  0  0
    7.6056  -19.1769   27.7658 O   0  0  0  0  0  0  0  0  0  0  0  0
    7.1690  -20.2035   28.3974 C   0  0  0  0  0  0  0  0  0  0  0  0
    7.3311  -19.0083   26.3276 C   0  0  1  0  0  0  0  0  0  0  0  0
    7.9375  -17.7781   25.7220 N   0  0  0  0  0  0  0  0  0  0  0  0
    7.6276  -17.6605   24.3370 C   0  0  0  0  0  0  0  0  0  0  0  0
    9.3727  -17.6118   26.0568 O   0  0  0  0  0  0  0  0  0  0  0  0
    9.7354  -17.7350   27.2543 N   0  0  0  0  0  0  0  0  0  0  0  0
   10.3550  -17.3175   25.0790 C   0  0  0  0  0  0  0  0  0  0  0  0
   11.7429  -17.0525   25.3852 C   0  0  0  0  0  0  0  0  0  0  0  0
   12.5729  -16.7451   24.2159 O   0  0  0  0  0  0  0  0  0  0  0  0
   12.0985  -16.6692   23.0683 O   0  0  0  0  0  0  0  0  0  0  0  0
  1  2  1  0
  2  3  2  0
  4  2  1  0
  5  4  1  0
  6  5  1  0
  7  6  1  0
  7  8  1  0
  8  9  1  1
  8 10  1  0
 10 11  2  0
 13 12  1  0
 13 15  1  0
 14 13  2  0
 16 15  1  1
 17 10  1  0
 17 16  1  0
 18 16  1  0
 18 20  1  0
 19 18  2  0
 21 20  1  0
 22 21  1  0
 22 24  1  0
 23 22  2  0
M  END
$$$$
