RNG.pdb
     RDKit          3D

 24 23  0  0  1  0  0  0  0  0999 V2000
    8.4907  -11.6761   21.2193 N   0  0  0  0  0  0  0  0  0  0  0  0
    8.1967  -12.5061   20.0809 C   0  0  0  0  0  0  0  0  0  0  0  0
    8.4656  -12.0453   18.9122 N   0  0  0  0  0  0  0  0  0  0  0  0
    7.6338  -13.7850   20.2020 N   0  0  0  0  0  0  0  0  0  0  0  0
    7.1969  -14.5682   19.0589 C   0  0  0  0  0  0  0  0  0  0  0  0
    8.3722  -15.0943   18.2691 C   0  0  0  0  0  0  0  0  0  0  0  0
    9.4248  -15.6977   19.1744 C   0  0  0  0  0  0  0  0  0  0  0  0
   10.6280  -16.1642   18.4222 C   0  0  2  0  0  0  0  0  0  0  0  0
   10.3570  -17.2106   17.4763 N   0  0  0  0  0  0  0  0  0  0  0  0
   11.7476  -16.5181   19.3417 C   0  0  0  0  0  0  0  0  0  0  0  0
   12.0052  -17.7150   19.5268 O   0  0  0  0  0  0  0  0  0  0  0  0
    8.2496  -12.5560   18.0426 N   0  0  0  0  0  0  0  0  0  0  0  0
   15.0806  -13.6069   18.5479 C   0  0  0  0  0  0  0  0  0  0  0  0
   15.2273  -14.7546   19.3600 O   0  0  0  0  0  0  0  0  0  0  0  0
   15.8417  -15.7320   18.8025 C   0  0  0  0  0  0  0  0  0  0  0  0
   14.7320  -14.8711   20.7433 C   0  0  2  0  0  0  0  0  0  0  0  0
   13.5728  -15.8075   20.9086 N   0  0  0  0  0  0  0  0  0  0  0  0
   12.5157  -15.5085   20.0024 C   0  0  0  0  0  0  0  0  0  0  0  0
   13.1552  -15.9724   22.3221 O   0  0  0  0  0  0  0  0  0  0  0  0
   12.4621  -15.0717   22.8598 N   0  0  0  0  0  0  0  0  0  0  0  0
   13.5078  -17.1067   23.0944 C   0  0  0  0  0  0  0  0  0  0  0  0
   13.0004  -17.3666   24.4230 C   0  0  0  0  0  0  0  0  0  0  0  0
   13.5892  -18.5397   25.0773 O   0  0  0  0  0  0  0  0  0  0  0  0
   14.4127  -19.2746   24.5034 O   0  0  0  0  0  0  0  0  0  0  0  0
  1  2  1  0
  2  3  2  0
  4  2  1  0
  5  4  1  0
  6  5  1  0
  7  6  1  0
  7  8  1  0
  8  9  1  1
  8 10  1  0
 10 11  2  0
 13 12  1  0
 13 15  1  0
 14 13  2  0
 16 15  1  6
 17 10  1  0
 17 16  1  0
 18 16  1  0
 18 20  1  0
 19 18  2  0
 21 20  1  0
 22 21  1  0
 22 24  1  0
 23 22  2  0
M  END
$$$$
