RNG.pdb
     RDKit          3D

 24 23  0  0  1  0  0  0  0  0999 V2000
    7.4813  -15.0793   12.5340 N   0  0  0  0  0  0  0  0  0  0  0  0
    7.2936  -13.7431   13.0345 C   0  0  0  0  0  0  0  0  0  0  0  0
    7.2543  -12.7801   12.1850 N   0  0  0  0  0  0  0  0  0  0  0  0
    7.1538  -13.4595   14.4009 N   0  0  0  0  0  0  0  0  0  0  0  0
    8.1645  -13.8018   15.3870 C   0  0  0  0  0  0  0  0  0  0  0  0
    8.5386  -15.2632   15.3088 C   0  0  0  0  0  0  0  0  0  0  0  0
    9.6475  -15.6059   16.2807 C   0  0  0  0  0  0  0  0  0  0  0  0
    9.4176  -15.0282   17.6388 C   0  0  2  0  0  0  0  0  0  0  0  0
    9.3354  -13.5944   17.6583 N   0  0  0  0  0  0  0  0  0  0  0  0
   10.4050  -15.5450   18.6300 C   0  0  0  0  0  0  0  0  0  0  0  0
   10.5976  -16.7666   18.6912 O   0  0  0  0  0  0  0  0  0  0  0  0
    7.1433  -11.7921   12.4592 N   0  0  0  0  0  0  0  0  0  0  0  0
   14.1021  -15.5683   18.4034 C   0  0  0  0  0  0  0  0  0  0  0  0
   14.0743  -14.4335   19.2461 O   0  0  0  0  0  0  0  0  0  0  0  0
   14.7888  -13.4482   18.8435 C   0  0  0  0  0  0  0  0  0  0  0  0
   13.3029  -14.3385   20.4983 C   0  0  2  0  0  0  0  0  0  0  0  0
   12.0240  -15.1209   20.4982 N   0  0  0  0  0  0  0  0  0  0  0  0
   11.1210  -14.6614   19.4974 C   0  0  0  0  0  0  0  0  0  0  0  0
   11.4335  -15.2706   21.8504 O   0  0  0  0  0  0  0  0  0  0  0  0
   10.6351  -14.3924   22.2653 N   0  0  0  0  0  0  0  0  0  0  0  0
   11.7345  -16.3660   22.6972 C   0  0  0  0  0  0  0  0  0  0  0  0
   11.1921  -16.5292   24.0274 C   0  0  0  0  0  0  0  0  0  0  0  0
   11.7353  -17.6733   24.7667 O   0  0  0  0  0  0  0  0  0  0  0  0
   12.4539  -18.5318   24.2241 O   0  0  0  0  0  0  0  0  0  0  0  0
  1  2  1  0
  2  3  2  0
  4  2  1  0
  5  4  1  0
  6  5  1  0
  7  6  1  0
  7  8  1  0
  8  9  1  6
  8 10  1  0
 10 11  2  0
 13 12  1  0
 13 15  1  0
 14 13  2  0
 16 15  1  6
 17 10  1  0
 17 16  1  0
 18 16  1  0
 18 20  1  0
 19 18  2  0
 21 20  1  0
 22 21  1  0
 22 24  1  0
 23 22  2  0
M  END
$$$$
