RNG.pdb
     RDKit          3D

 24 23  0  0  1  0  0  0  0  0999 V2000
    7.7762  -13.4425   16.0749 N   0  0  0  0  0  0  0  0  0  0  0  0
    7.4937  -13.5545   17.4816 C   0  0  0  0  0  0  0  0  0  0  0  0
    7.5837  -12.4943   18.2017 N   0  0  0  0  0  0  0  0  0  0  0  0
    7.1280  -14.7661   18.0859 N   0  0  0  0  0  0  0  0  0  0  0  0
    7.0521  -14.9402   19.5264 C   0  0  0  0  0  0  0  0  0  0  0  0
    8.0101  -14.0189   20.2444 C   0  0  0  0  0  0  0  0  0  0  0  0
    7.9583  -14.2219   21.7435 C   0  0  0  0  0  0  0  0  0  0  0  0
    8.9910  -15.1867   22.2269 C   0  0  2  0  0  0  0  0  0  0  0  0
    8.9890  -16.4431   21.5309 N   0  0  0  0  0  0  0  0  0  0  0  0
    8.9250  -15.3669   23.7059 C   0  0  0  0  0  0  0  0  0  0  0  0
    8.7692  -14.3656   24.4174 O   0  0  0  0  0  0  0  0  0  0  0  0
    7.3246  -12.4684   19.1996 N   0  0  0  0  0  0  0  0  0  0  0  0
    6.6723  -16.9032   24.5819 C   0  0  0  0  0  0  0  0  0  0  0  0
    6.9830  -17.6194   25.7605 O   0  0  0  0  0  0  0  0  0  0  0  0
    5.9982  -18.2577   26.2764 C   0  0  0  0  0  0  0  0  0  0  0  0
    8.3158  -17.6621   26.3882 C   0  0  2  0  0  0  0  0  0  0  0  0
    9.3607  -16.8553   25.6773 N   0  0  0  0  0  0  0  0  0  0  0  0
    9.0378  -16.6613   24.3039 C   0  0  0  0  0  0  0  0  0  0  0  0
   10.7402  -17.3363   25.9322 O   0  0  0  0  0  0  0  0  0  0  0  0
   10.9345  -18.5683   26.0909 N   0  0  0  0  0  0  0  0  0  0  0  0
   11.8519  -16.4609   26.0059 C   0  0  0  0  0  0  0  0  0  0  0  0
   12.4280  -15.7917   24.8612 C   0  0  0  0  0  0  0  0  0  0  0  0
   13.3804  -16.6063   24.0995 O   0  0  0  0  0  0  0  0  0  0  0  0
   13.0527  -17.6792   23.5618 O   0  0  0  0  0  0  0  0  0  0  0  0
  1  2  1  0
  2  3  2  0
  4  2  1  0
  5  4  1  0
  6  5  1  0
  7  6  1  0
  7  8  1  0
  8  9  1  6
  8 10  1  0
 10 11  2  0
 13 12  1  0
 13 15  1  0
 14 13  2  0
 16 15  1  1
 17 10  1  0
 17 16  1  0
 18 16  1  0
 18 20  1  0
 19 18  2  0
 21 20  1  0
 22 21  1  0
 22 24  1  0
 23 22  2  0
M  END
$$$$
