RNG.pdb
     RDKit          3D

 24 23  0  0  1  0  0  0  0  0999 V2000
    8.8412  -13.6526   17.1171 N   0  0  0  0  0  0  0  0  0  0  0  0
    8.0442  -13.1762   18.2166 C   0  0  0  0  0  0  0  0  0  0  0  0
    7.2099  -12.2258   17.9903 N   0  0  0  0  0  0  0  0  0  0  0  0
    8.1457  -13.7073   19.5107 N   0  0  0  0  0  0  0  0  0  0  0  0
    6.9962  -14.1768   20.2652 C   0  0  0  0  0  0  0  0  0  0  0  0
    7.2029  -15.5876   20.7642 C   0  0  0  0  0  0  0  0  0  0  0  0
    8.6607  -15.9908   20.7028 C   0  0  0  0  0  0  0  0  0  0  0  0
    8.9095  -17.3335   21.3080 C   0  0  2  0  0  0  0  0  0  0  0  0
    8.2250  -18.4091   20.6466 N   0  0  0  0  0  0  0  0  0  0  0  0
    8.6557  -17.3294   22.7777 C   0  0  0  0  0  0  0  0  0  0  0  0
    8.3033  -16.2705   23.3140 O   0  0  0  0  0  0  0  0  0  0  0  0
    6.5154  -11.9097   18.6841 N   0  0  0  0  0  0  0  0  0  0  0  0
    6.6602  -18.1164   27.6990 C   0  0  0  0  0  0  0  0  0  0  0  0
    7.0158  -19.1396   26.7906 O   0  0  0  0  0  0  0  0  0  0  0  0
    7.1499  -20.3013   27.3160 C   0  0  0  0  0  0  0  0  0  0  0  0
    7.2279  -18.9408   25.3458 C   0  0  1  0  0  0  0  0  0  0  0  0
    8.6239  -18.5388   24.9748 N   0  0  0  0  0  0  0  0  0  0  0  0
    8.8117  -18.5143   23.5634 C   0  0  0  0  0  0  0  0  0  0  0  0
    9.6628  -19.2803   25.7300 O   0  0  0  0  0  0  0  0  0  0  0  0
   10.4256  -20.0615   25.1065 N   0  0  0  0  0  0  0  0  0  0  0  0
    9.8306  -19.1450   27.1304 C   0  0  0  0  0  0  0  0  0  0  0  0
   10.9901  -19.6183   27.8527 C   0  0  0  0  0  0  0  0  0  0  0  0
   10.8205  -19.6611   29.3088 O   0  0  0  0  0  0  0  0  0  0  0  0
    9.7888  -19.2481   29.8680 O   0  0  0  0  0  0  0  0  0  0  0  0
  1  2  1  0
  2  3  2  0
  4  2  1  0
  5  4  1  0
  6  5  1  0
  7  6  1  0
  7  8  1  0
  8  9  1  6
  8 10  1  0
 10 11  2  0
 13 12  1  0
 13 15  1  0
 14 13  2  0
 16 15  1  6
 17 10  1  0
 17 16  1  0
 18 16  1  0
 18 20  1  0
 19 18  2  0
 21 20  1  0
 22 21  1  0
 22 24  1  0
 23 22  2  0
M  END
$$$$
