RNG.pdb
     RDKit          3D

 24 23  0  0  1  0  0  0  0  0999 V2000
    7.9172  -11.4330   20.0247 N   0  0  0  0  0  0  0  0  0  0  0  0
    7.4896  -12.5205   19.1847 C   0  0  0  0  0  0  0  0  0  0  0  0
    7.7321  -12.4422   17.9255 N   0  0  0  0  0  0  0  0  0  0  0  0
    6.8256  -13.6490   19.6873 N   0  0  0  0  0  0  0  0  0  0  0  0
    7.4767  -14.6421   20.5245 C   0  0  0  0  0  0  0  0  0  0  0  0
    8.5260  -15.4096   19.7551 C   0  0  0  0  0  0  0  0  0  0  0  0
    9.2238  -16.4279   20.6312 C   0  0  0  0  0  0  0  0  0  0  0  0
   10.3104  -17.1556   19.9096 C   0  0  2  0  0  0  0  0  0  0  0  0
    9.8503  -18.2727   19.1327 N   0  0  0  0  0  0  0  0  0  0  0  0
   11.4225  -17.5340   20.8284 C   0  0  0  0  0  0  0  0  0  0  0  0
   11.4866  -18.7037   21.2293 O   0  0  0  0  0  0  0  0  0  0  0  0
    7.4916  -13.1912   17.2586 N   0  0  0  0  0  0  0  0  0  0  0  0
   15.8575  -15.8290   19.9723 C   0  0  0  0  0  0  0  0  0  0  0  0
   14.8469  -15.3160   20.8174 O   0  0  0  0  0  0  0  0  0  0  0  0
   14.1986  -14.3204   20.3360 C   0  0  0  0  0  0  0  0  0  0  0  0
   14.5238  -15.8459   22.1542 C   0  0  2  0  0  0  0  0  0  0  0  0
   13.4458  -16.8880   22.1627 N   0  0  0  0  0  0  0  0  0  0  0  0
   12.4009  -16.5779   21.2463 C   0  0  0  0  0  0  0  0  0  0  0  0
   12.9923  -17.2446   23.5290 O   0  0  0  0  0  0  0  0  0  0  0  0
   12.3498  -16.3950   24.1969 N   0  0  0  0  0  0  0  0  0  0  0  0
   13.2558  -18.5075   24.1149 C   0  0  0  0  0  0  0  0  0  0  0  0
   12.7132  -18.9359   25.3846 C   0  0  0  0  0  0  0  0  0  0  0  0
   13.5634  -18.6314   26.5401 O   0  0  0  0  0  0  0  0  0  0  0  0
   13.2405  -18.9428   27.7005 O   0  0  0  0  0  0  0  0  0  0  0  0
  1  2  1  0
  2  3  2  0
  4  2  1  0
  5  4  1  0
  6  5  1  0
  7  6  1  0
  7  8  1  0
  8  9  1  1
  8 10  1  0
 10 11  2  0
 13 12  1  0
 13 15  1  0
 14 13  2  0
 16 15  1  6
 17 10  1  0
 17 16  1  0
 18 16  1  0
 18 20  1  0
 19 18  2  0
 21 20  1  0
 22 21  1  0
 22 24  1  0
 23 22  2  0
M  END
$$$$
