RNG.pdb
     RDKit          3D

 24 23  0  0  1  0  0  0  0  0999 V2000
    7.3104  -15.5952   16.0120 N   0  0  0  0  0  0  0  0  0  0  0  0
    7.1945  -14.2160   15.6177 C   0  0  0  0  0  0  0  0  0  0  0  0
    7.3172  -13.9322   14.3707 N   0  0  0  0  0  0  0  0  0  0  0  0
    6.9551  -13.1838   16.5365 N   0  0  0  0  0  0  0  0  0  0  0  0
    7.6054  -13.1134   17.8340 C   0  0  0  0  0  0  0  0  0  0  0  0
    7.3359  -14.3532   18.6539 C   0  0  0  0  0  0  0  0  0  0  0  0
    8.0678  -14.3137   19.9783 C   0  0  0  0  0  0  0  0  0  0  0  0
    9.5371  -14.1007   19.8146 C   0  0  2  0  0  0  0  0  0  0  0  0
   10.1154  -14.8294   18.7203 N   0  0  0  0  0  0  0  0  0  0  0  0
   10.2717  -14.3336   21.0915 C   0  0  0  0  0  0  0  0  0  0  0  0
    9.6163  -14.5260   22.1242 O   0  0  0  0  0  0  0  0  0  0  0  0
    7.3356  -12.9651   14.0129 N   0  0  0  0  0  0  0  0  0  0  0  0
   10.5915  -16.6551   23.7322 C   0  0  0  0  0  0  0  0  0  0  0  0
   10.9823  -17.1964   22.4860 O   0  0  0  0  0  0  0  0  0  0  0  0
   10.2995  -18.2119   22.1039 C   0  0  0  0  0  0  0  0  0  0  0  0
   12.0798  -16.6738   21.6527 C   0  0  2  0  0  0  0  0  0  0  0  0
   12.4484  -15.2487   21.9375 N   0  0  0  0  0  0  0  0  0  0  0  0
   11.7013  -14.3375   21.1378 C   0  0  0  0  0  0  0  0  0  0  0  0
   13.9132  -15.0170   21.9445 O   0  0  0  0  0  0  0  0  0  0  0  0
   14.6424  -15.7593   22.6502 N   0  0  0  0  0  0  0  0  0  0  0  0
   14.5266  -13.9888   21.1867 C   0  0  0  0  0  0  0  0  0  0  0  0
   14.9473  -14.1422   19.8121 C   0  0  0  0  0  0  0  0  0  0  0  0
   16.2984  -14.6891   19.6498 O   0  0  0  0  0  0  0  0  0  0  0  0
   16.8664  -15.3298   20.5523 O   0  0  0  0  0  0  0  0  0  0  0  0
  1  2  1  0
  2  3  2  0
  4  2  1  0
  5  4  1  0
  6  5  1  0
  7  6  1  0
  7  8  1  0
  8  9  1  6
  8 10  1  0
 10 11  2  0
 13 12  1  0
 13 15  1  0
 14 13  2  0
 16 15  1  1
 17 10  1  0
 17 16  1  0
 18 16  1  0
 18 20  1  0
 19 18  2  0
 21 20  1  0
 22 21  1  0
 22 24  1  0
 23 22  2  0
M  END
$$$$
