RNG.pdb
     RDKit          3D

 24 23  0  0  1  0  0  0  0  0999 V2000
    8.0699  -13.8376   13.9138 N   0  0  0  0  0  0  0  0  0  0  0  0
    8.0657  -14.1298   15.3229 C   0  0  0  0  0  0  0  0  0  0  0  0
    7.4767  -15.2020   15.7154 N   0  0  0  0  0  0  0  0  0  0  0  0
    8.6750  -13.2948   16.2708 N   0  0  0  0  0  0  0  0  0  0  0  0
    8.3213  -13.3079   17.6800 C   0  0  0  0  0  0  0  0  0  0  0  0
    8.1296  -14.7178   18.1873 C   0  0  0  0  0  0  0  0  0  0  0  0
    7.7332  -14.7337   19.6481 C   0  0  0  0  0  0  0  0  0  0  0  0
    8.5433  -15.6982   20.4510 C   0  0  2  0  0  0  0  0  0  0  0  0
    7.9107  -16.9728   20.6463 N   0  0  0  0  0  0  0  0  0  0  0  0
    8.9973  -15.0965   21.7379 C   0  0  0  0  0  0  0  0  0  0  0  0
    9.6128  -14.0227   21.7042 O   0  0  0  0  0  0  0  0  0  0  0  0
    7.4293  -15.4878   16.7052 N   0  0  0  0  0  0  0  0  0  0  0  0
    6.8805  -14.1004   23.4276 C   0  0  0  0  0  0  0  0  0  0  0  0
    7.1548  -14.3817   24.7856 O   0  0  0  0  0  0  0  0  0  0  0  0
    6.2255  -14.0447   25.6020 C   0  0  0  0  0  0  0  0  0  0  0  0
    8.3938  -15.0103   25.2774 C   0  0  2  0  0  0  0  0  0  0  0  0
    9.3806  -15.3564   24.2030 N   0  0  0  0  0  0  0  0  0  0  0  0
    8.7350  -15.7340   22.9912 C   0  0  0  0  0  0  0  0  0  0  0  0
   10.4385  -16.2883   24.6632 O   0  0  0  0  0  0  0  0  0  0  0  0
   10.3396  -16.8031   25.8061 N   0  0  0  0  0  0  0  0  0  0  0  0
   11.5608  -16.6223   23.8654 C   0  0  0  0  0  0  0  0  0  0  0  0
   12.8880  -16.8443   24.3940 C   0  0  0  0  0  0  0  0  0  0  0  0
   13.9540  -16.1481   23.6660 O   0  0  0  0  0  0  0  0  0  0  0  0
   13.7210  -15.4297   22.6774 O   0  0  0  0  0  0  0  0  0  0  0  0
  1  2  1  0
  2  3  2  0
  4  2  1  0
  5  4  1  0
  6  5  1  0
  7  6  1  0
  7  8  1  0
  8  9  1  1
  8 10  1  0
 10 11  2  0
 13 12  1  0
 13 15  1  0
 14 13  2  0
 16 15  1  6
 17 10  1  0
 17 16  1  0
 18 16  1  0
 18 20  1  0
 19 18  2  0
 21 20  1  0
 22 21  1  0
 22 24  1  0
 23 22  2  0
M  END
$$$$
