RNG.pdb
     RDKit          3D

 24 23  0  0  1  0  0  0  0  0999 V2000
    9.2290  -14.3234   16.8719 N   0  0  0  0  0  0  0  0  0  0  0  0
    7.8842  -13.8109   16.8831 C   0  0  0  0  0  0  0  0  0  0  0  0
    7.1447  -14.0336   15.8564 N   0  0  0  0  0  0  0  0  0  0  0  0
    7.3596  -13.0858   17.9629 N   0  0  0  0  0  0  0  0  0  0  0  0
    7.9342  -13.1271   19.2968 C   0  0  0  0  0  0  0  0  0  0  0  0
    7.6738  -14.4548   19.9686 C   0  0  0  0  0  0  0  0  0  0  0  0
    8.2494  -14.4919   21.3682 C   0  0  0  0  0  0  0  0  0  0  0  0
    9.2642  -15.5741   21.5416 C   0  0  2  0  0  0  0  0  0  0  0  0
    8.7788  -16.8877   21.2224 N   0  0  0  0  0  0  0  0  0  0  0  0
    9.8952  -15.5242   22.8920 C   0  0  0  0  0  0  0  0  0  0  0  0
   10.3122  -14.4359   23.3102 O   0  0  0  0  0  0  0  0  0  0  0  0
    6.1793  -13.6810   15.7712 N   0  0  0  0  0  0  0  0  0  0  0  0
   11.5207  -16.5154   27.7113 C   0  0  0  0  0  0  0  0  0  0  0  0
   10.6705  -17.5559   27.2720 O   0  0  0  0  0  0  0  0  0  0  0  0
   10.3185  -18.3835   28.1856 C   0  0  0  0  0  0  0  0  0  0  0  0
   10.1971  -17.7224   25.8862 C   0  0  2  0  0  0  0  0  0  0  0  0
   10.7594  -16.7268   24.9164 N   0  0  0  0  0  0  0  0  0  0  0  0
   10.0231  -16.6990   23.6978 C   0  0  0  0  0  0  0  0  0  0  0  0
   12.2295  -16.8383   24.7551 O   0  0  0  0  0  0  0  0  0  0  0  0
   12.9609  -16.7492   25.7739 N   0  0  0  0  0  0  0  0  0  0  0  0
   12.8455  -17.0404   23.4953 C   0  0  0  0  0  0  0  0  0  0  0  0
   14.2717  -17.1886   23.3100 C   0  0  0  0  0  0  0  0  0  0  0  0
   15.0176  -15.9260   23.3164 O   0  0  0  0  0  0  0  0  0  0  0  0
   14.4608  -14.8286   23.4993 O   0  0  0  0  0  0  0  0  0  0  0  0
  1  2  1  0
  2  3  2  0
  4  2  1  0
  5  4  1  0
  6  5  1  0
  7  6  1  0
  7  8  1  0
  8  9  1  1
  8 10  1  0
 10 11  2  0
 13 12  1  0
 13 15  1  0
 14 13  2  0
 16 15  1  1
 17 10  1  0
 17 16  1  0
 18 16  1  0
 18 20  1  0
 19 18  2  0
 21 20  1  0
 22 21  1  0
 22 24  1  0
 23 22  2  0
M  END
$$$$
