RNG.pdb
     RDKit          3D

 24 23  0  0  1  0  0  0  0  0999 V2000
    8.1921  -13.3647   18.2628 N   0  0  0  0  0  0  0  0  0  0  0  0
    8.0151  -12.5702   19.4497 C   0  0  0  0  0  0  0  0  0  0  0  0
    8.5335  -11.3949   19.4724 N   0  0  0  0  0  0  0  0  0  0  0  0
    7.3049  -13.0293   20.5686 N   0  0  0  0  0  0  0  0  0  0  0  0
    6.6453  -14.3232   20.6104 C   0  0  0  0  0  0  0  0  0  0  0  0
    7.6481  -15.4523   20.6491 C   0  0  0  0  0  0  0  0  0  0  0  0
    8.0878  -15.7570   22.0651 C   0  0  0  0  0  0  0  0  0  0  0  0
    9.0697  -16.8806   22.1308 C   0  0  2  0  0  0  0  0  0  0  0  0
    8.4777  -18.1829   22.0016 N   0  0  0  0  0  0  0  0  0  0  0  0
    9.9403  -16.7797   23.3375 C   0  0  0  0  0  0  0  0  0  0  0  0
   10.5127  -15.7057   23.5657 O   0  0  0  0  0  0  0  0  0  0  0  0
    8.4586  -10.7626   20.2837 N   0  0  0  0  0  0  0  0  0  0  0  0
   12.1727  -19.8976   28.0478 C   0  0  0  0  0  0  0  0  0  0  0  0
   11.3150  -18.8495   27.6425 O   0  0  0  0  0  0  0  0  0  0  0  0
   11.2736  -17.8494   28.4436 C   0  0  0  0  0  0  0  0  0  0  0  0
   10.5101  -18.8554   26.4079 C   0  0  2  0  0  0  0  0  0  0  0  0
   10.9153  -17.8218   25.4002 N   0  0  0  0  0  0  0  0  0  0  0  0
   10.1199  -17.8902   24.2209 C   0  0  0  0  0  0  0  0  0  0  0  0
   12.3790  -17.7818   25.1644 O   0  0  0  0  0  0  0  0  0  0  0  0
   13.1462  -17.5795   26.1398 N   0  0  0  0  0  0  0  0  0  0  0  0
   12.9500  -17.9615   23.8802 C   0  0  0  0  0  0  0  0  0  0  0  0
   14.3637  -17.8407   23.6027 C   0  0  0  0  0  0  0  0  0  0  0  0
   14.7544  -16.5656   22.9927 O   0  0  0  0  0  0  0  0  0  0  0  0
   13.9189  -15.7017   22.6709 O   0  0  0  0  0  0  0  0  0  0  0  0
  1  2  1  0
  2  3  2  0
  4  2  1  0
  5  4  1  0
  6  5  1  0
  7  6  1  0
  7  8  1  0
  8  9  1  1
  8 10  1  0
 10 11  2  0
 13 12  1  0
 13 15  1  0
 14 13  2  0
 16 15  1  1
 17 10  1  0
 17 16  1  0
 18 16  1  0
 18 20  1  0
 19 18  2  0
 21 20  1  0
 22 21  1  0
 22 24  1  0
 23 22  2  0
M  END
$$$$
