RNG.pdb
     RDKit          3D

 24 23  0  0  1  0  0  0  0  0999 V2000
    7.3856  -15.3231   17.0263 N   0  0  0  0  0  0  0  0  0  0  0  0
    7.5129  -13.9182   16.7410 C   0  0  0  0  0  0  0  0  0  0  0  0
    7.8139  -13.5706   15.5414 N   0  0  0  0  0  0  0  0  0  0  0  0
    7.3221  -12.9278   17.7156 N   0  0  0  0  0  0  0  0  0  0  0  0
    6.9764  -13.2309   19.0939 C   0  0  0  0  0  0  0  0  0  0  0  0
    8.0526  -14.0516   19.7648 C   0  0  0  0  0  0  0  0  0  0  0  0
    7.7430  -14.2846   21.2281 C   0  0  0  0  0  0  0  0  0  0  0  0
    8.7818  -15.1150   21.9081 C   0  0  2  0  0  0  0  0  0  0  0  0
    8.9877  -16.4026   21.3060 N   0  0  0  0  0  0  0  0  0  0  0  0
    8.5298  -15.2175   23.3745 C   0  0  0  0  0  0  0  0  0  0  0  0
    7.5676  -14.6030   23.8537 O   0  0  0  0  0  0  0  0  0  0  0  0
    7.9265  -12.5871   15.2521 N   0  0  0  0  0  0  0  0  0  0  0  0
    6.8084  -19.4106   26.4213 C   0  0  0  0  0  0  0  0  0  0  0  0
    6.9974  -18.0137   26.3133 O   0  0  0  0  0  0  0  0  0  0  0  0
    6.6306  -17.3412   27.3413 C   0  0  0  0  0  0  0  0  0  0  0  0
    7.5659  -17.3337   25.1358 C   0  0  2  0  0  0  0  0  0  0  0  0
    8.8930  -16.6800   25.3796 N   0  0  0  0  0  0  0  0  0  0  0  0
    9.3723  -16.0042   24.2214 C   0  0  0  0  0  0  0  0  0  0  0  0
    9.8757  -17.5824   26.0272 O   0  0  0  0  0  0  0  0  0  0  0  0
   10.0023  -17.5457   27.2776 N   0  0  0  0  0  0  0  0  0  0  0  0
   10.6815  -18.4865   25.2917 C   0  0  0  0  0  0  0  0  0  0  0  0
   11.8063  -18.0844   24.4772 C   0  0  0  0  0  0  0  0  0  0  0  0
   13.0941  -18.0881   25.1789 O   0  0  0  0  0  0  0  0  0  0  0  0
   13.1922  -18.3906   26.3817 O   0  0  0  0  0  0  0  0  0  0  0  0
  1  2  1  0
  2  3  2  0
  4  2  1  0
  5  4  1  0
  6  5  1  0
  7  6  1  0
  7  8  1  0
  8  9  1  6
  8 10  1  0
 10 11  2  0
 13 12  1  0
 13 15  1  0
 14 13  2  0
 16 15  1  1
 17 10  1  0
 17 16  1  0
 18 16  1  0
 18 20  1  0
 19 18  2  0
 21 20  1  0
 22 21  1  0
 22 24  1  0
 23 22  2  0
M  END
$$$$
