RNG.pdb
     RDKit          3D

 24 23  0  0  1  0  0  0  0  0999 V2000
    6.4466  -12.1889   18.9293 N   0  0  0  0  0  0  0  0  0  0  0  0
    7.7505  -12.7214   18.6336 C   0  0  0  0  0  0  0  0  0  0  0  0
    8.7702  -12.1555   19.1726 N   0  0  0  0  0  0  0  0  0  0  0  0
    7.9439  -13.8233   17.7877 N   0  0  0  0  0  0  0  0  0  0  0  0
    8.8189  -14.9337   18.1231 C   0  0  0  0  0  0  0  0  0  0  0  0
    8.1892  -15.8399   19.1547 C   0  0  0  0  0  0  0  0  0  0  0  0
    9.1243  -16.9612   19.5544 C   0  0  0  0  0  0  0  0  0  0  0  0
    9.7765  -16.7193   20.8762 C   0  0  2  0  0  0  0  0  0  0  0  0
    9.7981  -15.3393   21.2739 N   0  0  0  0  0  0  0  0  0  0  0  0
   11.1303  -17.3414   20.9429 C   0  0  0  0  0  0  0  0  0  0  0  0
   11.3541  -18.3461   20.2548 O   0  0  0  0  0  0  0  0  0  0  0  0
    9.7411  -12.4474   18.9834 N   0  0  0  0  0  0  0  0  0  0  0  0
   15.5389  -14.9795   19.8080 C   0  0  0  0  0  0  0  0  0  0  0  0
   14.2006  -14.6504   19.4930 O   0  0  0  0  0  0  0  0  0  0  0  0
   14.0650  -13.8255   18.5211 C   0  0  0  0  0  0  0  0  0  0  0  0
   13.0192  -15.1841   20.1942 C   0  0  2  0  0  0  0  0  0  0  0  0
   13.3347  -16.1881   21.2621 N   0  0  0  0  0  0  0  0  0  0  0  0
   12.1576  -16.8009   21.7786 C   0  0  0  0  0  0  0  0  0  0  0  0
   14.2710  -15.6702   22.2891 O   0  0  0  0  0  0  0  0  0  0  0  0
   14.4912  -14.4335   22.3419 N   0  0  0  0  0  0  0  0  0  0  0  0
   14.9307  -16.5153   23.2155 C   0  0  0  0  0  0  0  0  0  0  0  0
   16.1792  -17.1912   22.9425 C   0  0  0  0  0  0  0  0  0  0  0  0
   16.7139  -17.9557   24.0741 O   0  0  0  0  0  0  0  0  0  0  0  0
   16.2844  -19.0843   24.3730 O   0  0  0  0  0  0  0  0  0  0  0  0
  1  2  1  0
  2  3  2  0
  4  2  1  0
  5  4  1  0
  6  5  1  0
  7  6  1  0
  7  8  1  0
  8  9  1  6
  8 10  1  0
 10 11  2  0
 13 12  1  0
 13 15  1  0
 14 13  2  0
 16 15  1  6
 17 10  1  0
 17 16  1  0
 18 16  1  0
 18 20  1  0
 19 18  2  0
 21 20  1  0
 22 21  1  0
 22 24  1  0
 23 22  2  0
M  END
$$$$
