WQS.pdb
     RDKit          3D

 30 31  0  0  1  0  0  0  0  0999 V2000
   27.2065  -28.5752  -19.4942 N   0  0  0  0  0  0  0  0  0  0  0  0
   26.5716  -28.0622  -18.2945 C   0  0  1  0  0  0  0  0  0  0  0  0
   27.4487  -28.1404  -17.0993 C   0  0  0  0  0  0  0  0  0  0  0  0
   27.8364  -29.4721  -16.6506 C   0  0  0  0  0  0  0  0  0  0  0  0
   29.1398  -29.9749  -16.7403 C   0  0  0  0  0  0  0  0  0  0  0  0
   29.1779  -31.2149  -16.2268 N   0  0  0  0  0  0  0  0  0  0  0  0
   27.9363  -31.5550  -15.7969 C   0  0  0  0  0  0  0  0  0  0  0  0
   27.5091  -32.7242  -15.2113 C   0  0  0  0  0  0  0  0  0  0  0  0
   26.1878  -32.8441  -14.8623 C   0  0  0  0  0  0  0  0  0  0  0  0
   25.3392  -31.7871  -15.1127 C   0  0  0  0  0  0  0  0  0  0  0  0
   25.7918  -30.6208  -15.7027 C   0  0  0  0  0  0  0  0  0  0  0  0
   27.1161  -30.4751  -16.0624 C   0  0  0  0  0  0  0  0  0  0  0  0
   25.8642  -26.7887  -18.4911 C   0  0  0  0  0  0  0  0  0  0  0  0
   26.5218  -25.7644  -18.7947 O   0  0  0  0  0  0  0  0  0  0  0  0
   22.7223  -25.2189  -22.5610 N   0  0  0  0  0  0  0  0  0  0  0  0
   22.2765  -24.1529  -21.7702 C   0  0  0  0  0  0  0  0  0  0  0  0
   21.6378  -23.2061  -22.2879 O   0  0  0  0  0  0  0  0  0  0  0  0
   22.5601  -24.1420  -20.3137 C   0  0  0  0  0  0  0  0  0  0  0  0
   23.3987  -25.3517  -19.9673 C   0  0  0  0  0  0  0  0  0  0  0  0
   23.7144  -25.4668  -18.5007 C   0  0  2  0  0  0  0  0  0  0  0  0
   24.4785  -26.6928  -18.3479 N   0  0  0  0  0  0  0  0  0  0  0  0
   22.5461  -25.4253  -17.6170 C   0  0  0  0  0  0  0  0  0  0  0  0
   21.6914  -24.5053  -17.6322 O   0  0  0  0  0  0  0  0  0  0  0  0
   20.8153  -28.8213  -16.1380 O   0  0  0  0  0  0  0  0  0  0  0  0
   20.9952  -27.8429  -15.1785 C   0  0  0  0  0  0  0  0  0  0  0  0
   21.1090  -26.4519  -15.8107 C   0  0  2  0  0  0  0  0  0  0  0  0
   22.2789  -26.4562  -16.6407 N   0  0  0  0  0  0  0  0  0  0  0  0
   21.2166  -25.4842  -14.6884 C   0  0  0  0  0  0  0  0  0  0  0  0
   22.2799  -24.8174  -14.6152 O   0  0  0  0  0  0  0  0  0  0  0  0
   20.2438  -25.2769  -13.7429 O   0  0  0  0  0  0  0  0  0  0  0  0
  2  1  1  6
  2  3  1  0
  3  4  1  0
  4  5  2  0
  5  6  1  0
  7  6  1  0
  8  7  2  0
  9  8  1  0
 10 11  1  0
 10  9  2  0
 11 12  2  0
 12  4  1  0
 12  7  1  0
 13  2  1  0
 13 21  1  0
 14 13  2  0
 16 15  1  0
 17 16  2  0
 18 16  1  0
 20 19  1  6
 19 18  1  0
 20 21  1  0
 22 20  1  0
 23 22  2  0
 25 24  1  0
 26 25  1  1
 26 28  1  0
 26 27  1  0
 27 22  1  0
 28 30  1  0
 29 28  2  0
M  END
$$$$
