WQS.pdb
     RDKit          3D

 30 31  0  0  1  0  0  0  0  0999 V2000
   24.7422  -11.5155  -18.5049 N   0  0  0  0  0  0  0  0  0  0  0  0
   23.3473  -11.1339  -18.6237 C   0  0  1  0  0  0  0  0  0  0  0  0
   22.4164  -12.2534  -18.3339 C   0  0  0  0  0  0  0  0  0  0  0  0
   22.6022  -13.4813  -19.0972 C   0  0  0  0  0  0  0  0  0  0  0  0
   23.1664  -14.6485  -18.5687 C   0  0  0  0  0  0  0  0  0  0  0  0
   23.1806  -15.6053  -19.5106 N   0  0  0  0  0  0  0  0  0  0  0  0
   22.6420  -15.1101  -20.6537 C   0  0  0  0  0  0  0  0  0  0  0  0
   22.4596  -15.7297  -21.8683 C   0  0  0  0  0  0  0  0  0  0  0  0
   21.8929  -15.0178  -22.8949 C   0  0  0  0  0  0  0  0  0  0  0  0
   21.5283  -13.7078  -22.6687 C   0  0  0  0  0  0  0  0  0  0  0  0
   21.7215  -13.1058  -21.4385 C   0  0  0  0  0  0  0  0  0  0  0  0
   22.2888  -13.8006  -20.3897 C   0  0  0  0  0  0  0  0  0  0  0  0
   23.0239   -9.8477  -17.9895 C   0  0  0  0  0  0  0  0  0  0  0  0
   23.4910   -9.5913  -16.8538 O   0  0  0  0  0  0  0  0  0  0  0  0
   20.5115   -5.2802  -21.2679 N   0  0  0  0  0  0  0  0  0  0  0  0
   20.5735   -4.6242  -20.0326 C   0  0  0  0  0  0  0  0  0  0  0  0
   20.2978   -3.4036  -19.9508 O   0  0  0  0  0  0  0  0  0  0  0  0
   20.9666   -5.3748  -18.8143 C   0  0  0  0  0  0  0  0  0  0  0  0
   21.3443   -6.7854  -19.2067 C   0  0  0  0  0  0  0  0  0  0  0  0
   21.8439   -7.6179  -18.0574 C   0  0  2  0  0  0  0  0  0  0  0  0
   22.2097   -8.9057  -18.6215 N   0  0  0  0  0  0  0  0  0  0  0  0
   20.9048   -7.7464  -16.9397 C   0  0  0  0  0  0  0  0  0  0  0  0
   20.1393   -8.7291  -16.7802 O   0  0  0  0  0  0  0  0  0  0  0  0
   19.9242   -8.3030  -12.7645 O   0  0  0  0  0  0  0  0  0  0  0  0
   20.6794   -7.9779  -13.8755 C   0  0  0  0  0  0  0  0  0  0  0  0
   19.9819   -6.9207  -14.7377 C   0  0  2  0  0  0  0  0  0  0  0  0
   20.7816   -6.7361  -15.9142 N   0  0  0  0  0  0  0  0  0  0  0  0
   19.8994   -5.6882  -13.9121 C   0  0  0  0  0  0  0  0  0  0  0  0
   20.7309   -4.7798  -14.1655 O   0  0  0  0  0  0  0  0  0  0  0  0
   18.9874   -5.4835  -12.9074 O   0  0  0  0  0  0  0  0  0  0  0  0
  2  1  1  1
  2  3  1  0
  3  4  1  0
  4  5  2  0
  5  6  1  0
  7  6  1  0
  8  7  2  0
  9  8  1  0
 10 11  1  0
 10  9  2  0
 11 12  2  0
 12  4  1  0
 12  7  1  0
 13  2  1  0
 13 21  1  0
 14 13  2  0
 16 15  1  0
 17 16  2  0
 18 16  1  0
 20 19  1  6
 19 18  1  0
 20 21  1  0
 22 20  1  0
 23 22  2  0
 25 24  1  0
 26 25  1  1
 26 28  1  0
 26 27  1  0
 27 22  1  0
 28 30  1  0
 29 28  2  0
M  END
$$$$
