WQS.pdb
     RDKit          3D

 30 31  0  0  1  0  0  0  0  0999 V2000
   27.0416  -21.7426  -13.0461 N   0  0  0  0  0  0  0  0  0  0  0  0
   26.0450  -21.1337  -12.1850 C   0  0  1  0  0  0  0  0  0  0  0  0
   26.6118  -20.0884  -11.2962 C   0  0  0  0  0  0  0  0  0  0  0  0
   27.7440  -20.4733  -10.4624 C   0  0  0  0  0  0  0  0  0  0  0  0
   28.9402  -20.9967  -10.9675 C   0  0  0  0  0  0  0  0  0  0  0  0
   29.7900  -21.2301   -9.9545 N   0  0  0  0  0  0  0  0  0  0  0  0
   29.1950  -20.8777   -8.7867 C   0  0  0  0  0  0  0  0  0  0  0  0
   29.6877  -20.9482   -7.5042 C   0  0  0  0  0  0  0  0  0  0  0  0
   28.8908  -20.5357   -6.4665 C   0  0  0  0  0  0  0  0  0  0  0  0
   27.6261  -20.0663   -6.7503 C   0  0  0  0  0  0  0  0  0  0  0  0
   27.1524  -20.0045   -8.0482 C   0  0  0  0  0  0  0  0  0  0  0  0
   27.9345  -20.4127   -9.1094 C   0  0  0  0  0  0  0  0  0  0  0  0
   24.7943  -20.7836  -12.8736 C   0  0  0  0  0  0  0  0  0  0  0  0
   24.7460  -19.7326  -13.5568 O   0  0  0  0  0  0  0  0  0  0  0  0
   21.5645  -21.1077  -17.1117 N   0  0  0  0  0  0  0  0  0  0  0  0
   22.9511  -21.0568  -16.9243 C   0  0  0  0  0  0  0  0  0  0  0  0
   23.6907  -20.5663  -17.8102 O   0  0  0  0  0  0  0  0  0  0  0  0
   23.5492  -21.5848  -15.6732 C   0  0  0  0  0  0  0  0  0  0  0  0
   22.4404  -22.0512  -14.7570 C   0  0  0  0  0  0  0  0  0  0  0  0
   22.3948  -21.3185  -13.4437 C   0  0  2  0  0  0  0  0  0  0  0  0
   23.6600  -21.5930  -12.7848 N   0  0  0  0  0  0  0  0  0  0  0  0
   21.2439  -21.6471  -12.5981 C   0  0  0  0  0  0  0  0  0  0  0  0
   21.1457  -22.7086  -11.9340 O   0  0  0  0  0  0  0  0  0  0  0  0
   18.2083  -18.9194  -12.3789 O   0  0  0  0  0  0  0  0  0  0  0  0
   18.2839  -19.7624  -11.2861 C   0  0  0  0  0  0  0  0  0  0  0  0
   18.9741  -21.0829  -11.6434 C   0  0  2  0  0  0  0  0  0  0  0  0
   20.1106  -20.7621  -12.4577 N   0  0  0  0  0  0  0  0  0  0  0  0
   17.9707  -21.9015  -12.3719 C   0  0  0  0  0  0  0  0  0  0  0  0
   18.1097  -21.9911  -13.6183 O   0  0  0  0  0  0  0  0  0  0  0  0
   16.9198  -22.5547  -11.7786 O   0  0  0  0  0  0  0  0  0  0  0  0
  2  1  1  6
  2  3  1  0
  3  4  1  0
  4  5  2  0
  5  6  1  0
  7  6  1  0
  8  7  2  0
  9  8  1  0
 10 11  1  0
 10  9  2  0
 11 12  2  0
 12  4  1  0
 12  7  1  0
 13  2  1  0
 13 21  1  0
 14 13  2  0
 16 15  1  0
 17 16  2  0
 18 16  1  0
 20 19  1  6
 19 18  1  0
 20 21  1  0
 22 20  1  0
 23 22  2  0
 25 24  1  0
 26 25  1  6
 26 28  1  0
 26 27  1  0
 27 22  1  0
 28 30  1  0
 29 28  2  0
M  END
$$$$
