WQS.pdb
     RDKit          3D

 30 31  0  0  1  0  0  0  0  0999 V2000
   25.8437  -19.6380  -11.5098 N   0  0  0  0  0  0  0  0  0  0  0  0
   25.7103  -21.0797  -11.6064 C   0  0  1  0  0  0  0  0  0  0  0  0
   25.8183  -21.7584  -10.2904 C   0  0  0  0  0  0  0  0  0  0  0  0
   26.5068  -21.0347   -9.2287 C   0  0  0  0  0  0  0  0  0  0  0  0
   25.8567  -20.2223   -8.2921 C   0  0  0  0  0  0  0  0  0  0  0  0
   26.7587  -19.7144   -7.4369 N   0  0  0  0  0  0  0  0  0  0  0  0
   27.9934  -20.1645   -7.7761 C   0  0  0  0  0  0  0  0  0  0  0  0
   29.2075  -19.9001   -7.1856 C   0  0  0  0  0  0  0  0  0  0  0  0
   30.3376  -20.4702   -7.7145 C   0  0  0  0  0  0  0  0  0  0  0  0
   30.2119  -21.2864   -8.8183 C   0  0  0  0  0  0  0  0  0  0  0  0
   28.9802  -21.5379   -9.3948 C   0  0  0  0  0  0  0  0  0  0  0  0
   27.8285  -20.9771   -8.8814 C   0  0  0  0  0  0  0  0  0  0  0  0
   24.6046  -21.5207  -12.4688 C   0  0  0  0  0  0  0  0  0  0  0  0
   24.4412  -22.7475  -12.6744 O   0  0  0  0  0  0  0  0  0  0  0  0
   19.5866  -21.7564  -10.9584 N   0  0  0  0  0  0  0  0  0  0  0  0
   19.1700  -21.8581  -12.2912 C   0  0  0  0  0  0  0  0  0  0  0  0
   17.9870  -22.1748  -12.5610 O   0  0  0  0  0  0  0  0  0  0  0  0
   20.1308  -21.5905  -13.3900 C   0  0  0  0  0  0  0  0  0  0  0  0
   21.4467  -21.1436  -12.7941 C   0  0  0  0  0  0  0  0  0  0  0  0
   22.5408  -20.9675  -13.8118 C   0  0  2  0  0  0  0  0  0  0  0  0
   23.7327  -20.6067  -13.0639 N   0  0  0  0  0  0  0  0  0  0  0  0
   22.2392  -20.0062  -14.8760 C   0  0  0  0  0  0  0  0  0  0  0  0
   21.7797  -18.8560  -14.6685 O   0  0  0  0  0  0  0  0  0  0  0  0
   22.7451  -21.1972  -18.7817 O   0  0  0  0  0  0  0  0  0  0  0  0
   22.9122  -19.8416  -18.5700 C   0  0  0  0  0  0  0  0  0  0  0  0
   22.1600  -19.3726  -17.3203 C   0  0  2  0  0  0  0  0  0  0  0  0
   22.4494  -20.3091  -16.2730 N   0  0  0  0  0  0  0  0  0  0  0  0
   20.7178  -19.3523  -17.6768 C   0  0  0  0  0  0  0  0  0  0  0  0
   20.3741  -18.5756  -18.6039 O   0  0  0  0  0  0  0  0  0  0  0  0
   19.7541  -20.1158  -17.0672 O   0  0  0  0  0  0  0  0  0  0  0  0
  2  1  1  1
  2  3  1  0
  3  4  1  0
  4  5  2  0
  5  6  1  0
  7  6  1  0
  8  7  2  0
  9  8  1  0
 10 11  1  0
 10  9  2  0
 11 12  2  0
 12  4  1  0
 12  7  1  0
 13  2  1  0
 13 21  1  0
 14 13  2  0
 16 15  1  0
 17 16  2  0
 18 16  1  0
 20 19  1  1
 19 18  1  0
 20 21  1  0
 22 20  1  0
 23 22  2  0
 25 24  1  0
 26 25  1  6
 26 28  1  0
 26 27  1  0
 27 22  1  0
 28 30  1  0
 29 28  2  0
M  END
$$$$
