WQS.pdb
     RDKit          3D

 30 31  0  0  1  0  0  0  0  0999 V2000
   28.3468  -21.5584  -10.5880 N   0  0  0  0  0  0  0  0  0  0  0  0
   27.0651  -20.9908  -10.2128 C   0  0  1  0  0  0  0  0  0  0  0  0
   27.1787  -19.9653   -9.1454 C   0  0  0  0  0  0  0  0  0  0  0  0
   28.1673  -20.2055   -8.1013 C   0  0  0  0  0  0  0  0  0  0  0  0
   29.4949  -20.5700   -8.3554 C   0  0  0  0  0  0  0  0  0  0  0  0
   30.1549  -20.6967   -7.1930 N   0  0  0  0  0  0  0  0  0  0  0  0
   29.3054  -20.4275   -6.1693 C   0  0  0  0  0  0  0  0  0  0  0  0
   29.5452  -20.4393   -4.8147 C   0  0  0  0  0  0  0  0  0  0  0  0
   28.5168  -20.1358   -3.9589 C   0  0  0  0  0  0  0  0  0  0  0  0
   27.2822  -19.8307   -4.4908 C   0  0  0  0  0  0  0  0  0  0  0  0
   27.0649  -19.8251   -5.8567 C   0  0  0  0  0  0  0  0  0  0  0  0
   28.0829  -20.1261   -6.7385 C   0  0  0  0  0  0  0  0  0  0  0  0
   26.2107  -20.6377  -11.3557 C   0  0  0  0  0  0  0  0  0  0  0  0
   26.7361  -20.1445  -12.3826 O   0  0  0  0  0  0  0  0  0  0  0  0
   25.4558  -20.4531  -15.7756 N   0  0  0  0  0  0  0  0  0  0  0  0
   24.4208  -21.3874  -15.9028 C   0  0  0  0  0  0  0  0  0  0  0  0
   24.2318  -21.9763  -16.9936 O   0  0  0  0  0  0  0  0  0  0  0  0
   23.5433  -21.6830  -14.7432 C   0  0  0  0  0  0  0  0  0  0  0  0
   24.3795  -21.6902  -13.4834 C   0  0  0  0  0  0  0  0  0  0  0  0
   23.9440  -20.6724  -12.4646 C   0  0  2  0  0  0  0  0  0  0  0  0
   24.8292  -20.8385  -11.3249 N   0  0  0  0  0  0  0  0  0  0  0  0
   22.5301  -20.7491  -12.0870 C   0  0  0  0  0  0  0  0  0  0  0  0
   22.0419  -21.6749  -11.3928 O   0  0  0  0  0  0  0  0  0  0  0  0
   19.8973  -17.4091  -12.0946 O   0  0  0  0  0  0  0  0  0  0  0  0
   19.4963  -18.5792  -12.7114 C   0  0  0  0  0  0  0  0  0  0  0  0
   20.1883  -19.8014  -12.0989 C   0  0  2  0  0  0  0  0  0  0  0  0
   21.5676  -19.7496  -12.4895 N   0  0  0  0  0  0  0  0  0  0  0  0
   19.4928  -20.9974  -12.6406 C   0  0  0  0  0  0  0  0  0  0  0  0
   20.0093  -21.5458  -13.6472 O   0  0  0  0  0  0  0  0  0  0  0  0
   18.3413  -21.5314  -12.1190 O   0  0  0  0  0  0  0  0  0  0  0  0
  2  1  1  6
  2  3  1  0
  3  4  1  0
  4  5  2  0
  5  6  1  0
  7  6  1  0
  8  7  2  0
  9  8  1  0
 10 11  1  0
 10  9  2  0
 11 12  2  0
 12  4  1  0
 12  7  1  0
 13  2  1  0
 13 21  1  0
 14 13  2  0
 16 15  1  0
 17 16  2  0
 18 16  1  0
 20 19  1  6
 19 18  1  0
 20 21  1  0
 22 20  1  0
 23 22  2  0
 25 24  1  0
 26 25  1  6
 26 28  1  0
 26 27  1  0
 27 22  1  0
 28 30  1  0
 29 28  2  0
M  END
$$$$
