WQS.pdb
     RDKit          3D

 30 31  0  0  1  0  0  0  0  0999 V2000
   26.2780  -19.4772  -11.7243 N   0  0  0  0  0  0  0  0  0  0  0  0
   25.9822  -20.8961  -11.6545 C   0  0  1  0  0  0  0  0  0  0  0  0
   25.6917  -21.3576  -10.2737 C   0  0  0  0  0  0  0  0  0  0  0  0
   26.5915  -20.9005   -9.2217 C   0  0  0  0  0  0  0  0  0  0  0  0
   26.1662  -20.2166   -8.0765 C   0  0  0  0  0  0  0  0  0  0  0  0
   27.2246  -19.9524   -7.2937 N   0  0  0  0  0  0  0  0  0  0  0  0
   28.3452  -20.4401   -7.8839 C   0  0  0  0  0  0  0  0  0  0  0  0
   29.6486  -20.3939   -7.4463 C   0  0  0  0  0  0  0  0  0  0  0  0
   30.6277  -20.9558   -8.2257 C   0  0  0  0  0  0  0  0  0  0  0  0
   30.2664  -21.5453   -9.4183 C   0  0  0  0  0  0  0  0  0  0  0  0
   28.9489  -21.5798   -9.8376 C   0  0  0  0  0  0  0  0  0  0  0  0
   27.9454  -21.0223   -9.0716 C   0  0  0  0  0  0  0  0  0  0  0  0
   25.0584  -21.3655  -12.6973 C   0  0  0  0  0  0  0  0  0  0  0  0
   24.1546  -20.5967  -13.1048 O   0  0  0  0  0  0  0  0  0  0  0  0
   26.7850  -25.9484  -16.3252 N   0  0  0  0  0  0  0  0  0  0  0  0
   25.5477  -25.6941  -16.9289 C   0  0  0  0  0  0  0  0  0  0  0  0
   25.2103  -26.3155  -17.9645 O   0  0  0  0  0  0  0  0  0  0  0  0
   24.6308  -24.6855  -16.3423 C   0  0  0  0  0  0  0  0  0  0  0  0
   25.2473  -24.1395  -15.0742 C   0  0  0  0  0  0  0  0  0  0  0  0
   24.3817  -23.1318  -14.3679 C   0  0  2  0  0  0  0  0  0  0  0  0
   25.1635  -22.6460  -13.2441 N   0  0  0  0  0  0  0  0  0  0  0  0
   23.0677  -23.6336  -13.9565 C   0  0  0  0  0  0  0  0  0  0  0  0
   22.8913  -24.4239  -12.9966 O   0  0  0  0  0  0  0  0  0  0  0  0
   19.7836  -21.6072  -15.0820 O   0  0  0  0  0  0  0  0  0  0  0  0
   19.6694  -22.4882  -14.0232 C   0  0  0  0  0  0  0  0  0  0  0  0
   20.5569  -23.7213  -14.2217 C   0  0  2  0  0  0  0  0  0  0  0  0
   21.8491  -23.2536  -14.6332 N   0  0  0  0  0  0  0  0  0  0  0  0
   19.8997  -24.5528  -15.2629 C   0  0  0  0  0  0  0  0  0  0  0  0
   18.7896  -25.0620  -14.9641 O   0  0  0  0  0  0  0  0  0  0  0  0
   20.4204  -24.7952  -16.5092 O   0  0  0  0  0  0  0  0  0  0  0  0
  2  1  1  1
  2  3  1  0
  3  4  1  0
  4  5  2  0
  5  6  1  0
  7  6  1  0
  8  7  2  0
  9  8  1  0
 10 11  1  0
 10  9  2  0
 11 12  2  0
 12  4  1  0
 12  7  1  0
 13  2  1  0
 13 21  1  0
 14 13  2  0
 16 15  1  0
 17 16  2  0
 18 16  1  0
 20 19  1  1
 19 18  1  0
 20 21  1  0
 22 20  1  0
 23 22  2  0
 25 24  1  0
 26 25  1  6
 26 28  1  0
 26 27  1  0
 27 22  1  0
 28 30  1  0
 29 28  2  0
M  END
$$$$
