WQS.pdb
     RDKit          3D

 30 31  0  0  1  0  0  0  0  0999 V2000
   26.6917  -18.5136  -18.3185 N   0  0  0  0  0  0  0  0  0  0  0  0
   25.8603  -18.1272  -17.1937 C   0  0  1  0  0  0  0  0  0  0  0  0
   25.0675  -16.9000  -17.4572 C   0  0  0  0  0  0  0  0  0  0  0  0
   25.8104  -15.6567  -17.6228 C   0  0  0  0  0  0  0  0  0  0  0  0
   25.9184  -14.9705  -18.8383 C   0  0  0  0  0  0  0  0  0  0  0  0
   26.6462  -13.8562  -18.6605 N   0  0  0  0  0  0  0  0  0  0  0  0
   27.0279  -13.7789  -17.3604 C   0  0  0  0  0  0  0  0  0  0  0  0
   27.7843  -12.8167  -16.7322 C   0  0  0  0  0  0  0  0  0  0  0  0
   28.0509  -12.9552  -15.3937 C   0  0  0  0  0  0  0  0  0  0  0  0
   27.5498  -14.0547  -14.7301 C   0  0  0  0  0  0  0  0  0  0  0  0
   26.7914  -15.0094  -15.3830 C   0  0  0  0  0  0  0  0  0  0  0  0
   26.5086  -14.8927  -16.7287 C   0  0  0  0  0  0  0  0  0  0  0  0
   25.1300  -19.2451  -16.5789 C   0  0  0  0  0  0  0  0  0  0  0  0
   24.4834  -20.0305  -17.3130 O   0  0  0  0  0  0  0  0  0  0  0  0
   24.7351  -23.5582  -14.8180 N   0  0  0  0  0  0  0  0  0  0  0  0
   26.0369  -23.1783  -15.1663 C   0  0  0  0  0  0  0  0  0  0  0  0
   26.7090  -23.8799  -15.9591 O   0  0  0  0  0  0  0  0  0  0  0  0
   26.6249  -21.9410  -14.5960 C   0  0  0  0  0  0  0  0  0  0  0  0
   25.5875  -21.2550  -13.7360 C   0  0  0  0  0  0  0  0  0  0  0  0
   24.5040  -20.5731  -14.5263 C   0  0  2  0  0  0  0  0  0  0  0  0
   25.1394  -19.4528  -15.1982 N   0  0  0  0  0  0  0  0  0  0  0  0
   23.3380  -20.1618  -13.7397 C   0  0  0  0  0  0  0  0  0  0  0  0
   22.7957  -20.8823  -12.8656 O   0  0  0  0  0  0  0  0  0  0  0  0
   19.9025  -18.3667  -16.1451 O   0  0  0  0  0  0  0  0  0  0  0  0
   21.2165  -18.5072  -15.7400 C   0  0  0  0  0  0  0  0  0  0  0  0
   21.3162  -18.7274  -14.2270 C   0  0  2  0  0  0  0  0  0  0  0  0
   22.7074  -18.8729  -13.9091 N   0  0  0  0  0  0  0  0  0  0  0  0
   20.5368  -19.9560  -13.9258 C   0  0  0  0  0  0  0  0  0  0  0  0
   20.8686  -21.0021  -14.5392 O   0  0  0  0  0  0  0  0  0  0  0  0
   19.4952  -20.0184  -13.0346 O   0  0  0  0  0  0  0  0  0  0  0  0
  2  1  1  6
  2  3  1  0
  3  4  1  0
  4  5  2  0
  5  6  1  0
  7  6  1  0
  8  7  2  0
  9  8  1  0
 10 11  1  0
 10  9  2  0
 11 12  2  0
 12  4  1  0
 12  7  1  0
 13  2  1  0
 13 21  1  0
 14 13  2  0
 16 15  1  0
 17 16  2  0
 18 16  1  0
 20 19  1  1
 19 18  1  0
 20 21  1  0
 22 20  1  0
 23 22  2  0
 25 24  1  0
 26 25  1  6
 26 28  1  0
 26 27  1  0
 27 22  1  0
 28 30  1  0
 29 28  2  0
M  END
$$$$
