WQS.pdb
     RDKit          3D

 30 31  0  0  1  0  0  0  0  0999 V2000
   27.7319  -21.0992  -13.5312 N   0  0  0  0  0  0  0  0  0  0  0  0
   26.6182  -21.5163  -12.6997 C   0  0  1  0  0  0  0  0  0  0  0  0
   26.4969  -20.7170  -11.4546 C   0  0  0  0  0  0  0  0  0  0  0  0
   27.6392  -20.7279  -10.5489 C   0  0  0  0  0  0  0  0  0  0  0  0
   28.9571  -20.9584  -10.9611 C   0  0  0  0  0  0  0  0  0  0  0  0
   29.7776  -20.8834   -9.9009 N   0  0  0  0  0  0  0  0  0  0  0  0
   29.0448  -20.6095   -8.7918 C   0  0  0  0  0  0  0  0  0  0  0  0
   29.4631  -20.4502   -7.4909 C   0  0  0  0  0  0  0  0  0  0  0  0
   28.5276  -20.1812   -6.5242 C   0  0  0  0  0  0  0  0  0  0  0  0
   27.2037  -20.0812   -6.8949 C   0  0  0  0  0  0  0  0  0  0  0  0
   26.8067  -20.2452   -8.2096 C   0  0  0  0  0  0  0  0  0  0  0  0
   27.7282  -20.5158   -9.2007 C   0  0  0  0  0  0  0  0  0  0  0  0
   25.3702  -21.7430  -13.4428 C   0  0  0  0  0  0  0  0  0  0  0  0
   25.0021  -20.8966  -14.2924 O   0  0  0  0  0  0  0  0  0  0  0  0
   23.7729  -25.8818  -16.8876 N   0  0  0  0  0  0  0  0  0  0  0  0
   22.6562  -25.2029  -16.3851 C   0  0  0  0  0  0  0  0  0  0  0  0
   21.9458  -24.5046  -17.1468 O   0  0  0  0  0  0  0  0  0  0  0  0
   22.3107  -25.3093  -14.9459 C   0  0  0  0  0  0  0  0  0  0  0  0
   23.4469  -24.7431  -14.1246 C   0  0  0  0  0  0  0  0  0  0  0  0
   23.4229  -23.2427  -14.0150 C   0  0  2  0  0  0  0  0  0  0  0  0
   24.5859  -22.8775  -13.2249 N   0  0  0  0  0  0  0  0  0  0  0  0
   22.1817  -22.6878  -13.4680 C   0  0  0  0  0  0  0  0  0  0  0  0
   21.8110  -22.8453  -12.2785 O   0  0  0  0  0  0  0  0  0  0  0  0
   20.2796  -19.1220  -14.1344 O   0  0  0  0  0  0  0  0  0  0  0  0
   19.5863  -20.2339  -14.5742 C   0  0  0  0  0  0  0  0  0  0  0  0
   19.9816  -21.4882  -13.7879 C   0  0  2  0  0  0  0  0  0  0  0  0
   21.2691  -21.9019  -14.2661 N   0  0  0  0  0  0  0  0  0  0  0  0
   18.9286  -22.5027  -14.0520 C   0  0  0  0  0  0  0  0  0  0  0  0
   19.1353  -23.2997  -15.0021 O   0  0  0  0  0  0  0  0  0  0  0  0
   17.7645  -22.6215  -13.3351 O   0  0  0  0  0  0  0  0  0  0  0  0
  2  1  1  6
  2  3  1  0
  3  4  1  0
  4  5  2  0
  5  6  1  0
  7  6  1  0
  8  7  2  0
  9  8  1  0
 10 11  1  0
 10  9  2  0
 11 12  2  0
 12  4  1  0
 12  7  1  0
 13  2  1  0
 13 21  1  0
 14 13  2  0
 16 15  1  0
 17 16  2  0
 18 16  1  0
 20 19  1  1
 19 18  1  0
 20 21  1  0
 22 20  1  0
 23 22  2  0
 25 24  1  0
 26 25  1  6
 26 28  1  0
 26 27  1  0
 27 22  1  0
 28 30  1  0
 29 28  2  0
M  END
$$$$
