WQS.pdb
     RDKit          3D

 30 31  0  0  1  0  0  0  0  0999 V2000
   27.2861  -21.2534  -11.5647 N   0  0  0  0  0  0  0  0  0  0  0  0
   26.1230  -21.0394  -10.7238 C   0  0  1  0  0  0  0  0  0  0  0  0
   26.4380  -20.2848   -9.4847 C   0  0  0  0  0  0  0  0  0  0  0  0
   27.6947  -20.6042   -8.8184 C   0  0  0  0  0  0  0  0  0  0  0  0
   28.7196  -21.3539   -9.4079 C   0  0  0  0  0  0  0  0  0  0  0  0
   29.7489  -21.4563   -8.5517 N   0  0  0  0  0  0  0  0  0  0  0  0
   29.4402  -20.7964   -7.4066 C   0  0  0  0  0  0  0  0  0  0  0  0
   30.1892  -20.6429   -6.2629 C   0  0  0  0  0  0  0  0  0  0  0  0
   29.6599  -19.9303   -5.2170 C   0  0  0  0  0  0  0  0  0  0  0  0
   28.3966  -19.3955   -5.3535 C   0  0  0  0  0  0  0  0  0  0  0  0
   27.6623  -19.5629   -6.5135 C   0  0  0  0  0  0  0  0  0  0  0  0
   28.1725  -20.2748   -7.5799 C   0  0  0  0  0  0  0  0  0  0  0  0
   24.9278  -20.6000  -11.4583 C   0  0  0  0  0  0  0  0  0  0  0  0
   24.8475  -19.4069  -11.8377 O   0  0  0  0  0  0  0  0  0  0  0  0
   25.3414  -21.0302  -15.7268 N   0  0  0  0  0  0  0  0  0  0  0  0
   25.0994  -19.7806  -15.1437 C   0  0  0  0  0  0  0  0  0  0  0  0
   25.8010  -18.7900  -15.4583 O   0  0  0  0  0  0  0  0  0  0  0  0
   24.0088  -19.6260  -14.1493 C   0  0  0  0  0  0  0  0  0  0  0  0
   23.3096  -20.9555  -13.9761 C   0  0  0  0  0  0  0  0  0  0  0  0
   22.7477  -21.1663  -12.5964 C   0  0  2  0  0  0  0  0  0  0  0  0
   23.8810  -21.4791  -11.7431 N   0  0  0  0  0  0  0  0  0  0  0  0
   21.6917  -22.1789  -12.5127 C   0  0  0  0  0  0  0  0  0  0  0  0
   21.9047  -23.4157  -12.5605 O   0  0  0  0  0  0  0  0  0  0  0  0
   18.5123  -21.1935  -10.6819 O   0  0  0  0  0  0  0  0  0  0  0  0
   18.0834  -22.1875  -11.5412 C   0  0  0  0  0  0  0  0  0  0  0  0
   19.2559  -22.8151  -12.3021 C   0  0  2  0  0  0  0  0  0  0  0  0
   20.2972  -21.8306  -12.3662 N   0  0  0  0  0  0  0  0  0  0  0  0
   18.7408  -23.1804  -13.6470 C   0  0  0  0  0  0  0  0  0  0  0  0
   19.1507  -22.4929  -14.6167 O   0  0  0  0  0  0  0  0  0  0  0  0
   17.8606  -24.2042  -13.8921 O   0  0  0  0  0  0  0  0  0  0  0  0
  2  1  1  6
  2  3  1  0
  3  4  1  0
  4  5  2  0
  5  6  1  0
  7  6  1  0
  8  7  2  0
  9  8  1  0
 10 11  1  0
 10  9  2  0
 11 12  2  0
 12  4  1  0
 12  7  1  0
 13  2  1  0
 13 21  1  0
 14 13  2  0
 16 15  1  0
 17 16  2  0
 18 16  1  0
 20 19  1  6
 19 18  1  0
 20 21  1  0
 22 20  1  0
 23 22  2  0
 25 24  1  0
 26 25  1  1
 26 28  1  0
 26 27  1  0
 27 22  1  0
 28 30  1  0
 29 28  2  0
M  END
$$$$
