WQS.pdb
     RDKit          3D

 30 31  0  0  1  0  0  0  0  0999 V2000
   25.0585  -19.4384   -8.9977 N   0  0  0  0  0  0  0  0  0  0  0  0
   25.9033  -20.2669   -9.8375 C   0  0  1  0  0  0  0  0  0  0  0  0
   27.0294  -20.8840   -9.0925 C   0  0  0  0  0  0  0  0  0  0  0  0
   27.3928  -20.2730   -7.8198 C   0  0  0  0  0  0  0  0  0  0  0  0
   26.8488  -19.0719   -7.3495 C   0  0  0  0  0  0  0  0  0  0  0  0
   27.3677  -18.7866   -6.1445 N   0  0  0  0  0  0  0  0  0  0  0  0
   28.2436  -19.7632   -5.7965 C   0  0  0  0  0  0  0  0  0  0  0  0
   29.0064  -19.8815   -4.6578 C   0  0  0  0  0  0  0  0  0  0  0  0
   29.8356  -20.9666   -4.5276 C   0  0  0  0  0  0  0  0  0  0  0  0
   29.8719  -21.8968   -5.5444 C   0  0  0  0  0  0  0  0  0  0  0  0
   29.0954  -21.7567   -6.6803 C   0  0  0  0  0  0  0  0  0  0  0  0
   28.2528  -20.6747   -6.8350 C   0  0  0  0  0  0  0  0  0  0  0  0
   25.1590  -21.1618  -10.7354 C   0  0  0  0  0  0  0  0  0  0  0  0
   24.7707  -22.2746  -10.3056 O   0  0  0  0  0  0  0  0  0  0  0  0
   20.2588  -21.6693  -10.9356 N   0  0  0  0  0  0  0  0  0  0  0  0
   20.8143  -20.3907  -11.0662 C   0  0  0  0  0  0  0  0  0  0  0  0
   20.2379  -19.3970  -10.5633 O   0  0  0  0  0  0  0  0  0  0  0  0
   22.0899  -20.2092  -11.8022 C   0  0  0  0  0  0  0  0  0  0  0  0
   22.6412  -21.5676  -12.1726 C   0  0  0  0  0  0  0  0  0  0  0  0
   23.9450  -21.5059  -12.9210 C   0  0  2  0  0  0  0  0  0  0  0  0
   24.8744  -20.8021  -12.0542 N   0  0  0  0  0  0  0  0  0  0  0  0
   23.8592  -20.9011  -14.2530 C   0  0  0  0  0  0  0  0  0  0  0  0
   23.8347  -19.6622  -14.4572 O   0  0  0  0  0  0  0  0  0  0  0  0
   23.0191  -23.3595  -17.3351 O   0  0  0  0  0  0  0  0  0  0  0  0
   23.7226  -22.2561  -17.7801 C   0  0  0  0  0  0  0  0  0  0  0  0
   23.6709  -21.1109  -16.7635 C   0  0  2  0  0  0  0  0  0  0  0  0
   23.7947  -21.6942  -15.4589 N   0  0  0  0  0  0  0  0  0  0  0  0
   22.3635  -20.4320  -16.9566 C   0  0  0  0  0  0  0  0  0  0  0  0
   21.5256  -20.5408  -16.0256 O   0  0  0  0  0  0  0  0  0  0  0  0
   22.0198  -19.7061  -18.0693 O   0  0  0  0  0  0  0  0  0  0  0  0
  2  1  1  1
  2  3  1  0
  3  4  1  0
  4  5  2  0
  5  6  1  0
  7  6  1  0
  8  7  2  0
  9  8  1  0
 10 11  1  0
 10  9  2  0
 11 12  2  0
 12  4  1  0
 12  7  1  0
 13  2  1  0
 13 21  1  0
 14 13  2  0
 16 15  1  0
 17 16  2  0
 18 16  1  0
 20 19  1  1
 19 18  1  0
 20 21  1  0
 22 20  1  0
 23 22  2  0
 25 24  1  0
 26 25  1  6
 26 28  1  0
 26 27  1  0
 27 22  1  0
 28 30  1  0
 29 28  2  0
M  END
$$$$
