WQS.pdb
     RDKit          3D

 30 31  0  0  1  0  0  0  0  0999 V2000
   19.1513  -16.9065  -17.1545 N   0  0  0  0  0  0  0  0  0  0  0  0
   20.2745  -17.8118  -17.3111 C   0  0  1  0  0  0  0  0  0  0  0  0
   21.1038  -17.5011  -18.5026 C   0  0  0  0  0  0  0  0  0  0  0  0
   20.5182  -17.7849  -19.8071 C   0  0  0  0  0  0  0  0  0  0  0  0
   21.0362  -17.3017  -21.0146 C   0  0  0  0  0  0  0  0  0  0  0  0
   20.2891  -17.7530  -22.0350 N   0  0  0  0  0  0  0  0  0  0  0  0
   19.2862  -18.5238  -21.5430 C   0  0  0  0  0  0  0  0  0  0  0  0
   18.2855  -19.1835  -22.2184 C   0  0  0  0  0  0  0  0  0  0  0  0
   17.3674  -19.9055  -21.4989 C   0  0  0  0  0  0  0  0  0  0  0  0
   17.4838  -19.9415  -20.1258 C   0  0  0  0  0  0  0  0  0  0  0  0
   18.4988  -19.2701  -19.4685 C   0  0  0  0  0  0  0  0  0  0  0  0
   19.4351  -18.5375  -20.1693 C   0  0  0  0  0  0  0  0  0  0  0  0
   21.0103  -18.0717  -16.0653 C   0  0  0  0  0  0  0  0  0  0  0  0
   21.4525  -17.1025  -15.4027 O   0  0  0  0  0  0  0  0  0  0  0  0
   19.1241  -21.6807  -11.9949 N   0  0  0  0  0  0  0  0  0  0  0  0
   19.1288  -20.2847  -11.8878 C   0  0  0  0  0  0  0  0  0  0  0  0
   18.2867  -19.7038  -11.1627 O   0  0  0  0  0  0  0  0  0  0  0  0
   20.1337  -19.4880  -12.6346 C   0  0  0  0  0  0  0  0  0  0  0  0
   20.9523  -20.4178  -13.5016 C   0  0  0  0  0  0  0  0  0  0  0  0
   21.9422  -19.7056  -14.3828 C   0  0  2  0  0  0  0  0  0  0  0  0
   21.2281  -19.3711  -15.6028 N   0  0  0  0  0  0  0  0  0  0  0  0
   23.1758  -20.4514  -14.6465 C   0  0  0  0  0  0  0  0  0  0  0  0
   23.2003  -21.6426  -15.0436 O   0  0  0  0  0  0  0  0  0  0  0  0
   28.0218  -20.3637  -13.8632 O   0  0  0  0  0  0  0  0  0  0  0  0
   26.8374  -19.6882  -14.0893 C   0  0  0  0  0  0  0  0  0  0  0  0
   25.6675  -20.6582  -14.2852 C   0  0  2  0  0  0  0  0  0  0  0  0
   24.4850  -19.8671  -14.4680 N   0  0  0  0  0  0  0  0  0  0  0  0
   25.6024  -21.4960  -13.0599 C   0  0  0  0  0  0  0  0  0  0  0  0
   24.7369  -21.1815  -12.2039 O   0  0  0  0  0  0  0  0  0  0  0  0
   26.4146  -22.5733  -12.8091 O   0  0  0  0  0  0  0  0  0  0  0  0
  2  1  1  1
  2  3  1  0
  3  4  1  0
  4  5  2  0
  5  6  1  0
  7  6  1  0
  8  7  2  0
  9  8  1  0
 10 11  1  0
 10  9  2  0
 11 12  2  0
 12  4  1  0
 12  7  1  0
 13  2  1  0
 13 21  1  0
 14 13  2  0
 16 15  1  0
 17 16  2  0
 18 16  1  0
 20 19  1  1
 19 18  1  0
 20 21  1  0
 22 20  1  0
 23 22  2  0
 25 24  1  0
 26 25  1  1
 26 28  1  0
 26 27  1  0
 27 22  1  0
 28 30  1  0
 29 28  2  0
M  END
$$$$
