WQS.pdb
     RDKit          3D

 30 31  0  0  1  0  0  0  0  0999 V2000
   28.2771  -21.4983  -10.5484 N   0  0  0  0  0  0  0  0  0  0  0  0
   26.9716  -21.0249  -10.1274 C   0  0  1  0  0  0  0  0  0  0  0  0
   27.0291  -20.1864   -8.9036 C   0  0  0  0  0  0  0  0  0  0  0  0
   28.1292  -20.4391   -7.9811 C   0  0  0  0  0  0  0  0  0  0  0  0
   29.2753  -21.1692   -8.3178 C   0  0  0  0  0  0  0  0  0  0  0  0
   30.1075  -21.2073   -7.2648 N   0  0  0  0  0  0  0  0  0  0  0  0
   29.5494  -20.5236   -6.2337 C   0  0  0  0  0  0  0  0  0  0  0  0
   30.0404  -20.3074   -4.9670 C   0  0  0  0  0  0  0  0  0  0  0  0
   29.2855  -19.5821   -4.0804 C   0  0  0  0  0  0  0  0  0  0  0  0
   28.0630  -19.0980   -4.4944 C   0  0  0  0  0  0  0  0  0  0  0  0
   27.5899  -19.3281   -5.7736 C   0  0  0  0  0  0  0  0  0  0  0  0
   28.3304  -20.0540   -6.6842 C   0  0  0  0  0  0  0  0  0  0  0  0
   26.1423  -20.5057  -11.2245 C   0  0  0  0  0  0  0  0  0  0  0  0
   26.6809  -19.8204  -12.1267 O   0  0  0  0  0  0  0  0  0  0  0  0
   25.3879  -21.8290  -15.9546 N   0  0  0  0  0  0  0  0  0  0  0  0
   25.2674  -22.7591  -14.9151 C   0  0  0  0  0  0  0  0  0  0  0  0
   25.6220  -23.9494  -15.0880 O   0  0  0  0  0  0  0  0  0  0  0  0
   24.7181  -22.3363  -13.6030 C   0  0  0  0  0  0  0  0  0  0  0  0
   24.4764  -20.8439  -13.6292 C   0  0  0  0  0  0  0  0  0  0  0  0
   23.8932  -20.3048  -12.3514 C   0  0  2  0  0  0  0  0  0  0  0  0
   24.7702  -20.7574  -11.2855 N   0  0  0  0  0  0  0  0  0  0  0  0
   22.4940  -20.6703  -12.1140 C   0  0  0  0  0  0  0  0  0  0  0  0
   22.1322  -21.7717  -11.6311 O   0  0  0  0  0  0  0  0  0  0  0  0
   19.6854  -17.9907  -13.2418 O   0  0  0  0  0  0  0  0  0  0  0  0
   19.2272  -18.8039  -12.2224 C   0  0  0  0  0  0  0  0  0  0  0  0
   20.0319  -20.1051  -12.1387 C   0  0  2  0  0  0  0  0  0  0  0  0
   21.3997  -19.7785  -12.4215 N   0  0  0  0  0  0  0  0  0  0  0  0
   19.4514  -21.0275  -13.1485 C   0  0  0  0  0  0  0  0  0  0  0  0
   20.1332  -21.2354  -14.1842 O   0  0  0  0  0  0  0  0  0  0  0  0
   18.2379  -21.6559  -13.0228 O   0  0  0  0  0  0  0  0  0  0  0  0
  2  1  1  6
  2  3  1  0
  3  4  1  0
  4  5  2  0
  5  6  1  0
  7  6  1  0
  8  7  2  0
  9  8  1  0
 10 11  1  0
 10  9  2  0
 11 12  2  0
 12  4  1  0
 12  7  1  0
 13  2  1  0
 13 21  1  0
 14 13  2  0
 16 15  1  0
 17 16  2  0
 18 16  1  0
 20 19  1  6
 19 18  1  0
 20 21  1  0
 22 20  1  0
 23 22  2  0
 25 24  1  0
 26 25  1  6
 26 28  1  0
 26 27  1  0
 27 22  1  0
 28 30  1  0
 29 28  2  0
M  END
$$$$
