WQH.pdb
     RDKit          3D

 34 36  0  0  1  0  0  0  0  0999 V2000
    8.7728  -16.9340   22.6547 N   0  0  0  0  0  0  0  0  0  0  0  0
    8.4081  -16.1489   23.8380 C   0  0  1  0  0  0  0  0  0  0  0  0
    7.1088  -15.4511   23.5016 C   0  0  0  0  0  0  0  0  0  0  0  0
    7.2347  -13.9954   23.7459 C   0  0  0  0  0  0  0  0  0  0  0  0
    7.7834  -13.0578   22.8912 C   0  0  0  0  0  0  0  0  0  0  0  0
    7.7039  -11.8390   23.4968 N   0  0  0  0  0  0  0  0  0  0  0  0
    7.1337  -11.9501   24.6918 C   0  0  0  0  0  0  0  0  0  0  0  0
    6.8200  -11.0594   25.6893 C   0  0  0  0  0  0  0  0  0  0  0  0
    6.2157  -11.5290   26.8320 C   0  0  0  0  0  0  0  0  0  0  0  0
    5.9110  -12.8707   27.0147 C   0  0  0  0  0  0  0  0  0  0  0  0
    6.2294  -13.7608   26.0074 C   0  0  0  0  0  0  0  0  0  0  0  0
    6.8347  -13.3016   24.8586 C   0  0  0  0  0  0  0  0  0  0  0  0
    8.2685  -17.0303   25.0213 C   0  0  0  0  0  0  0  0  0  0  0  0
    8.0222  -16.5429   26.1748 O   0  0  0  0  0  0  0  0  0  0  0  0
    6.0472  -22.7671   24.9534 N   0  0  0  0  0  0  0  0  0  0  0  0
    5.8834  -21.5404   24.2765 C   0  0  0  0  0  0  0  0  0  0  0  0
    5.1263  -21.5308   23.2820 O   0  0  0  0  0  0  0  0  0  0  0  0
    6.5762  -20.3322   24.7255 C   0  0  0  0  0  0  0  0  0  0  0  0
    7.5196  -20.5245   25.8752 C   0  0  0  0  0  0  0  0  0  0  0  0
    8.3382  -19.3011   26.1512 C   0  0  2  0  0  0  0  0  0  0  0  0
    8.3951  -18.4406   24.9588 N   0  0  0  0  0  0  0  0  0  0  0  0
    9.7059  -19.5622   26.6562 C   0  0  0  0  0  0  0  0  0  0  0  0
   10.0658  -20.6046   27.2561 O   0  0  0  0  0  0  0  0  0  0  0  0
   10.7677  -18.6058   26.4922 N   0  0  0  0  0  0  0  0  0  0  0  0
   12.0906  -18.7706   27.0279 C   0  0  1  0  0  0  0  0  0  0  0  0
   12.9950  -17.7749   26.3319 C   0  0  0  0  0  0  0  0  0  0  0  0
   12.9817  -17.9824   24.8678 C   0  0  0  0  0  0  0  0  0  0  0  0
   12.5056  -19.1206   24.2323 C   0  0  0  0  0  0  0  0  0  0  0  0
   12.6591  -18.9431   22.9018 N   0  0  0  0  0  0  0  0  0  0  0  0
   13.2163  -17.7278   22.6971 C   0  0  0  0  0  0  0  0  0  0  0  0
   13.4025  -17.1655   23.8958 N   0  0  0  0  0  0  0  0  0  0  0  0
   12.1829  -18.7896   28.4700 C   0  0  0  0  0  0  0  0  0  0  0  0
   11.1661  -18.6729   29.1849 O   0  0  0  0  0  0  0  0  0  0  0  0
   13.3940  -18.9375   29.1039 O   0  0  0  0  0  0  0  0  0  0  0  0
  2  3  1  0
  2  1  1  6
  3  4  1  0
  4  5  2  0
  5  6  1  0
  7  8  2  0
  7  6  1  0
  9  8  1  0
 10  9  2  0
 11 10  1  0
 11 12  2  0
 12  4  1  0
 12  7  1  0
 13 21  1  0
 13  2  1  0
 14 13  2  0
 16 15  1  0
 17 16  2  0
 18 16  1  0
 19 18  1  0
 20 19  1  6
 20 21  1  0
 22 20  1  0
 22 23  2  0
 24 22  1  0
 25 24  1  0
 25 32  1  0
 25 26  1  1
 27 26  1  0
 28 27  2  0
 29 30  1  0
 29 28  1  0
 30 31  2  0
 31 27  1  0
 32 34  1  0
 33 32  2  0
M  END
$$$$
