WQH.pdb
     RDKit          3D

 34 36  0  0  1  0  0  0  0  0999 V2000
    6.5394  -17.6375   24.0362 N   0  0  0  0  0  0  0  0  0  0  0  0
    7.4685  -16.5260   23.8104 C   0  0  1  0  0  0  0  0  0  0  0  0
    8.0334  -16.1618   25.1656 C   0  0  0  0  0  0  0  0  0  0  0  0
    7.0823  -15.2926   25.8966 C   0  0  0  0  0  0  0  0  0  0  0  0
    5.9637  -15.6985   26.5998 C   0  0  0  0  0  0  0  0  0  0  0  0
    5.3676  -14.5880   27.1195 N   0  0  0  0  0  0  0  0  0  0  0  0
    6.0469  -13.4962   26.7848 C   0  0  0  0  0  0  0  0  0  0  0  0
    5.8881  -12.1553   27.0367 C   0  0  0  0  0  0  0  0  0  0  0  0
    6.8051  -11.2701   26.5200 C   0  0  0  0  0  0  0  0  0  0  0  0
    7.8859  -11.6820   25.7526 C   0  0  0  0  0  0  0  0  0  0  0  0
    8.0392  -13.0320   25.5033 C   0  0  0  0  0  0  0  0  0  0  0  0
    7.1269  -13.9276   26.0159 C   0  0  0  0  0  0  0  0  0  0  0  0
    8.5334  -16.9263   22.8604 C   0  0  0  0  0  0  0  0  0  0  0  0
    9.0331  -18.1002   22.8944 O   0  0  0  0  0  0  0  0  0  0  0  0
   11.3800  -13.4752   18.0367 N   0  0  0  0  0  0  0  0  0  0  0  0
   11.9792  -14.7498   18.1141 C   0  0  0  0  0  0  0  0  0  0  0  0
   12.6849  -15.1114   17.1480 O   0  0  0  0  0  0  0  0  0  0  0  0
   11.7771  -15.6092   19.2812 C   0  0  0  0  0  0  0  0  0  0  0  0
   10.5491  -15.3135   20.0896 C   0  0  0  0  0  0  0  0  0  0  0  0
   10.3443  -16.3010   21.1967 C   0  0  2  0  0  0  0  0  0  0  0  0
    9.0596  -16.0574   21.8720 N   0  0  0  0  0  0  0  0  0  0  0  0
   11.4389  -16.3631   22.1924 C   0  0  0  0  0  0  0  0  0  0  0  0
   11.9453  -15.3699   22.7696 O   0  0  0  0  0  0  0  0  0  0  0  0
   12.0289  -17.6132   22.5903 N   0  0  0  0  0  0  0  0  0  0  0  0
   13.2339  -17.7253   23.3645 C   0  0  1  0  0  0  0  0  0  0  0  0
   13.2293  -19.0876   24.0263 C   0  0  0  0  0  0  0  0  0  0  0  0
   12.2835  -19.1198   25.1626 C   0  0  0  0  0  0  0  0  0  0  0  0
   11.7156  -18.0001   25.7540 C   0  0  0  0  0  0  0  0  0  0  0  0
   10.9119  -18.4258   26.7531 N   0  0  0  0  0  0  0  0  0  0  0  0
   10.9670  -19.7765   26.7959 C   0  0  0  0  0  0  0  0  0  0  0  0
   11.7998  -20.1743   25.8284 N   0  0  0  0  0  0  0  0  0  0  0  0
   14.4547  -17.3753   22.6747 C   0  0  0  0  0  0  0  0  0  0  0  0
   14.4508  -17.0825   21.4610 O   0  0  0  0  0  0  0  0  0  0  0  0
   15.6622  -17.3523   23.3318 O   0  0  0  0  0  0  0  0  0  0  0  0
  2  3  1  0
  2  1  1  1
  3  4  1  0
  4  5  2  0
  5  6  1  0
  7  8  2  0
  7  6  1  0
  9  8  1  0
 10  9  2  0
 11 10  1  0
 11 12  2  0
 12  4  1  0
 12  7  1  0
 13 21  1  0
 13  2  1  0
 14 13  2  0
 16 15  1  0
 17 16  2  0
 18 16  1  0
 19 18  1  0
 20 19  1  6
 20 21  1  0
 22 20  1  0
 22 23  2  0
 24 22  1  0
 25 24  1  0
 25 32  1  0
 25 26  1  6
 27 26  1  0
 28 27  2  0
 29 30  1  0
 29 28  1  0
 30 31  2  0
 31 27  1  0
 32 34  1  0
 33 32  2  0
M  END
$$$$
