WQH.pdb
     RDKit          3D

 34 36  0  0  1  0  0  0  0  0999 V2000
    9.7653  -15.2009   22.5990 N   0  0  0  0  0  0  0  0  0  0  0  0
    9.4339  -15.4970   23.9963 C   0  0  1  0  0  0  0  0  0  0  0  0
    7.9397  -15.7283   24.0392 C   0  0  0  0  0  0  0  0  0  0  0  0
    7.2206  -14.4660   23.7497 C   0  0  0  0  0  0  0  0  0  0  0  0
    6.5954  -14.1231   22.5656 C   0  0  0  0  0  0  0  0  0  0  0  0
    6.0578  -12.8796   22.7184 N   0  0  0  0  0  0  0  0  0  0  0  0
    6.3071  -12.4120   23.9369 C   0  0  0  0  0  0  0  0  0  0  0  0
    6.0035  -11.2452   24.5950 C   0  0  0  0  0  0  0  0  0  0  0  0
    6.4315  -11.0847   25.8921 C   0  0  0  0  0  0  0  0  0  0  0  0
    7.1594  -12.0588   26.5612 C   0  0  0  0  0  0  0  0  0  0  0  0
    7.4611  -13.2296   25.8931 C   0  0  0  0  0  0  0  0  0  0  0  0
    7.0376  -13.4013   24.5938 C   0  0  0  0  0  0  0  0  0  0  0  0
   10.1877  -16.6831   24.4669 C   0  0  0  0  0  0  0  0  0  0  0  0
    9.8783  -17.2631   25.5608 O   0  0  0  0  0  0  0  0  0  0  0  0
   14.8859  -18.2294   21.0704 N   0  0  0  0  0  0  0  0  0  0  0  0
   13.5839  -18.7354   20.8740 C   0  0  0  0  0  0  0  0  0  0  0  0
   13.1662  -18.8029   19.6979 O   0  0  0  0  0  0  0  0  0  0  0  0
   12.7608  -19.1610   22.0066 C   0  0  0  0  0  0  0  0  0  0  0  0
   13.2144  -18.6694   23.3488 C   0  0  0  0  0  0  0  0  0  0  0  0
   12.0672  -18.3758   24.2656 C   0  0  2  0  0  0  0  0  0  0  0  0
   11.2775  -17.2438   23.7550 N   0  0  0  0  0  0  0  0  0  0  0  0
   12.4386  -18.1405   25.6798 C   0  0  0  0  0  0  0  0  0  0  0  0
   12.7439  -17.0252   26.1687 O   0  0  0  0  0  0  0  0  0  0  0  0
   12.4799  -19.2116   26.6390 N   0  0  0  0  0  0  0  0  0  0  0  0
   12.1322  -19.0659   28.0253 C   0  0  1  0  0  0  0  0  0  0  0  0
   10.7992  -18.3500   28.0915 C   0  0  0  0  0  0  0  0  0  0  0  0
   10.9667  -16.9655   28.5834 C   0  0  0  0  0  0  0  0  0  0  0  0
   12.1829  -16.3806   28.9073 C   0  0  0  0  0  0  0  0  0  0  0  0
   11.9352  -15.1172   29.3169 N   0  0  0  0  0  0  0  0  0  0  0  0
   10.6009  -14.9048   29.2553 C   0  0  0  0  0  0  0  0  0  0  0  0
   10.0360  -16.0321   28.8106 N   0  0  0  0  0  0  0  0  0  0  0  0
   12.2316  -20.2662   28.8240 C   0  0  0  0  0  0  0  0  0  0  0  0
   12.3004  -20.2108   30.0694 O   0  0  0  0  0  0  0  0  0  0  0  0
   12.2532  -21.5105   28.2394 O   0  0  0  0  0  0  0  0  0  0  0  0
  2  3  1  0
  2  1  1  6
  3  4  1  0
  4  5  2  0
  5  6  1  0
  7  8  2  0
  7  6  1  0
  9  8  1  0
 10  9  2  0
 11 10  1  0
 11 12  2  0
 12  4  1  0
 12  7  1  0
 13 21  1  0
 13  2  1  0
 14 13  2  0
 16 15  1  0
 17 16  2  0
 18 16  1  0
 19 18  1  0
 20 19  1  6
 20 21  1  0
 22 20  1  0
 22 23  2  0
 24 22  1  0
 25 24  1  0
 25 32  1  0
 25 26  1  6
 27 26  1  0
 28 27  2  0
 29 30  1  0
 29 28  1  0
 30 31  2  0
 31 27  1  0
 32 34  1  0
 33 32  2  0
M  END
$$$$
