WQH.pdb
     RDKit          3D

 34 36  0  0  1  0  0  0  0  0999 V2000
    9.4554  -15.0420   24.1977 N   0  0  0  0  0  0  0  0  0  0  0  0
    8.6184  -16.0661   23.5648 C   0  0  1  0  0  0  0  0  0  0  0  0
    7.1930  -15.5687   23.6598 C   0  0  0  0  0  0  0  0  0  0  0  0
    6.9025  -15.1169   25.0404 C   0  0  0  0  0  0  0  0  0  0  0  0
    6.5045  -15.9069   26.1026 C   0  0  0  0  0  0  0  0  0  0  0  0
    6.3445  -15.1003   27.1900 N   0  0  0  0  0  0  0  0  0  0  0  0
    6.6194  -13.8385   26.8771 C   0  0  0  0  0  0  0  0  0  0  0  0
    6.6173  -12.6566   27.5770 C   0  0  0  0  0  0  0  0  0  0  0  0
    6.9649  -11.4978   26.9229 C   0  0  0  0  0  0  0  0  0  0  0  0
    7.3179  -11.4785   25.5807 C   0  0  0  0  0  0  0  0  0  0  0  0
    7.3177  -12.6708   24.8832 C   0  0  0  0  0  0  0  0  0  0  0  0
    6.9714  -13.8375   25.5281 C   0  0  0  0  0  0  0  0  0  0  0  0
    9.0343  -16.2776   22.1581 C   0  0  0  0  0  0  0  0  0  0  0  0
    8.5047  -17.1985   21.4507 O   0  0  0  0  0  0  0  0  0  0  0  0
    9.1588  -12.6044   17.5406 N   0  0  0  0  0  0  0  0  0  0  0  0
    8.2411  -13.5592   18.0266 C   0  0  0  0  0  0  0  0  0  0  0  0
    7.0456  -13.4309   17.6856 O   0  0  0  0  0  0  0  0  0  0  0  0
    8.6785  -14.6523   18.8956 C   0  0  0  0  0  0  0  0  0  0  0  0
   10.1418  -14.6638   19.2235 C   0  0  0  0  0  0  0  0  0  0  0  0
   10.5084  -15.7785   20.1541 C   0  0  2  0  0  0  0  0  0  0  0  0
   10.0238  -15.4934   21.5141 N   0  0  0  0  0  0  0  0  0  0  0  0
   11.9494  -16.1189   20.1883 C   0  0  0  0  0  0  0  0  0  0  0  0
   12.5902  -16.6369   19.2411 O   0  0  0  0  0  0  0  0  0  0  0  0
   12.7569  -15.8732   21.3530 N   0  0  0  0  0  0  0  0  0  0  0  0
   14.0872  -16.3848   21.5340 C   0  0  1  0  0  0  0  0  0  0  0  0
   15.0555  -15.2527   21.2612 C   0  0  0  0  0  0  0  0  0  0  0  0
   15.2467  -15.0596   19.8076 C   0  0  0  0  0  0  0  0  0  0  0  0
   14.6114  -15.7979   18.8190 C   0  0  0  0  0  0  0  0  0  0  0  0
   15.0373  -15.3358   17.6230 N   0  0  0  0  0  0  0  0  0  0  0  0
   15.9175  -14.3330   17.8444 C   0  0  0  0  0  0  0  0  0  0  0  0
   16.0291  -14.1831   19.1684 N   0  0  0  0  0  0  0  0  0  0  0  0
   14.3149  -17.1133   22.7611 C   0  0  0  0  0  0  0  0  0  0  0  0
   15.4502  -17.5381   23.0602 O   0  0  0  0  0  0  0  0  0  0  0  0
   13.2889  -17.3630   23.6417 O   0  0  0  0  0  0  0  0  0  0  0  0
  2  3  1  0
  2  1  1  6
  3  4  1  0
  4  5  2  0
  5  6  1  0
  7  8  2  0
  7  6  1  0
  9  8  1  0
 10  9  2  0
 11 10  1  0
 11 12  2  0
 12  4  1  0
 12  7  1  0
 13 21  1  0
 13  2  1  0
 14 13  2  0
 16 15  1  0
 17 16  2  0
 18 16  1  0
 19 18  1  0
 20 19  1  6
 20 21  1  0
 22 20  1  0
 22 23  2  0
 24 22  1  0
 25 24  1  0
 25 32  1  0
 25 26  1  1
 27 26  1  0
 28 27  2  0
 29 30  1  0
 29 28  1  0
 30 31  2  0
 31 27  1  0
 32 34  1  0
 33 32  2  0
M  END
$$$$
