WQH.pdb
     RDKit          3D

 34 36  0  0  1  0  0  0  0  0999 V2000
    6.4502  -17.0364   24.4816 N   0  0  0  0  0  0  0  0  0  0  0  0
    7.3163  -15.9151   24.1043 C   0  0  1  0  0  0  0  0  0  0  0  0
    7.8388  -15.3278   25.3967 C   0  0  0  0  0  0  0  0  0  0  0  0
    6.8235  -14.4303   25.9950 C   0  0  0  0  0  0  0  0  0  0  0  0
    5.6872  -14.8102   26.6843 C   0  0  0  0  0  0  0  0  0  0  0  0
    5.0279  -13.6791   27.0646 N   0  0  0  0  0  0  0  0  0  0  0  0
    5.6838  -12.5988   26.6545 C   0  0  0  0  0  0  0  0  0  0  0  0
    5.4659  -11.2472   26.7654 C   0  0  0  0  0  0  0  0  0  0  0  0
    6.3751  -10.3805   26.2052 C   0  0  0  0  0  0  0  0  0  0  0  0
    7.5055  -10.8216   25.5314 C   0  0  0  0  0  0  0  0  0  0  0  0
    7.7182  -12.1822   25.4237 C   0  0  0  0  0  0  0  0  0  0  0  0
    6.8142  -13.0594   25.9809 C   0  0  0  0  0  0  0  0  0  0  0  0
    8.4167  -16.3830   23.2285 C   0  0  0  0  0  0  0  0  0  0  0  0
    8.5792  -17.6261   22.9897 O   0  0  0  0  0  0  0  0  0  0  0  0
    7.9024  -13.1940   18.2815 N   0  0  0  0  0  0  0  0  0  0  0  0
    8.8061  -14.1986   17.8765 C   0  0  0  0  0  0  0  0  0  0  0  0
    8.9904  -14.3432   16.6488 O   0  0  0  0  0  0  0  0  0  0  0  0
    9.4953  -15.0349   18.8599 C   0  0  0  0  0  0  0  0  0  0  0  0
    9.1078  -14.7950   20.2887 C   0  0  0  0  0  0  0  0  0  0  0  0
    9.8315  -15.7023   21.2352 C   0  0  2  0  0  0  0  0  0  0  0  0
    9.3431  -15.5069   22.6097 N   0  0  0  0  0  0  0  0  0  0  0  0
   11.3083  -15.5966   21.2001 C   0  0  0  0  0  0  0  0  0  0  0  0
   11.9532  -14.7161   20.5798 O   0  0  0  0  0  0  0  0  0  0  0  0
   12.1499  -16.5296   21.9003 N   0  0  0  0  0  0  0  0  0  0  0  0
   12.4144  -16.4745   23.3114 C   0  0  1  0  0  0  0  0  0  0  0  0
   11.0871  -16.3068   24.0211 C   0  0  0  0  0  0  0  0  0  0  0  0
   11.2793  -16.2015   25.4836 C   0  0  0  0  0  0  0  0  0  0  0  0
   12.4909  -16.3720   26.1386 C   0  0  0  0  0  0  0  0  0  0  0  0
   12.2709  -16.2019   27.4607 N   0  0  0  0  0  0  0  0  0  0  0  0
   10.9581  -15.9312   27.6413 C   0  0  0  0  0  0  0  0  0  0  0  0
   10.3788  -15.9358   26.4362 N   0  0  0  0  0  0  0  0  0  0  0  0
   13.2662  -17.5210   23.8288 C   0  0  0  0  0  0  0  0  0  0  0  0
   14.2837  -17.2539   24.5012 O   0  0  0  0  0  0  0  0  0  0  0  0
   12.9847  -18.8470   23.5987 O   0  0  0  0  0  0  0  0  0  0  0  0
  2  3  1  0
  2  1  1  1
  3  4  1  0
  4  5  2  0
  5  6  1  0
  7  8  2  0
  7  6  1  0
  9  8  1  0
 10  9  2  0
 11 10  1  0
 11 12  2  0
 12  4  1  0
 12  7  1  0
 13 21  1  0
 13  2  1  0
 14 13  2  0
 16 15  1  0
 17 16  2  0
 18 16  1  0
 19 18  1  0
 20 19  1  6
 20 21  1  0
 22 20  1  0
 22 23  2  0
 24 22  1  0
 25 24  1  0
 25 32  1  0
 25 26  1  1
 27 26  1  0
 28 27  2  0
 29 30  1  0
 29 28  1  0
 30 31  2  0
 31 27  1  0
 32 34  1  0
 33 32  2  0
M  END
$$$$
