WQH.pdb
     RDKit          3D

 34 36  0  0  1  0  0  0  0  0999 V2000
    6.6916  -17.7081   25.4121 N   0  0  0  0  0  0  0  0  0  0  0  0
    7.5405  -17.1800   24.3396 C   0  0  1  0  0  0  0  0  0  0  0  0
    8.2845  -16.0013   24.9274 C   0  0  0  0  0  0  0  0  0  0  0  0
    7.3281  -15.0484   25.5372 C   0  0  0  0  0  0  0  0  0  0  0  0
    6.1147  -15.3558   26.1235 C   0  0  0  0  0  0  0  0  0  0  0  0
    5.5504  -14.1929   26.5570 N   0  0  0  0  0  0  0  0  0  0  0  0
    6.3397  -13.1611   26.2782 C   0  0  0  0  0  0  0  0  0  0  0  0
    6.2543  -11.8064   26.4883 C   0  0  0  0  0  0  0  0  0  0  0  0
    7.2833  -11.0021   26.0575 C   0  0  0  0  0  0  0  0  0  0  0  0
    8.4058  -11.5091   25.4176 C   0  0  0  0  0  0  0  0  0  0  0  0
    8.4849  -12.8725   25.2096 C   0  0  0  0  0  0  0  0  0  0  0  0
    7.4602  -13.6875   25.6370 C   0  0  0  0  0  0  0  0  0  0  0  0
    8.4682  -18.2272   23.8505 C   0  0  0  0  0  0  0  0  0  0  0  0
    8.8987  -19.1378   24.6343 O   0  0  0  0  0  0  0  0  0  0  0  0
    7.7866  -20.5176   18.4962 N   0  0  0  0  0  0  0  0  0  0  0  0
    8.5859  -19.3557   18.4678 C   0  0  0  0  0  0  0  0  0  0  0  0
    8.5750  -18.6777   17.4179 O   0  0  0  0  0  0  0  0  0  0  0  0
    9.3938  -18.9669   19.6244 C   0  0  0  0  0  0  0  0  0  0  0  0
    9.3821  -19.9360   20.7689 C   0  0  0  0  0  0  0  0  0  0  0  0
    9.8736  -19.3197   22.0422 C   0  0  2  0  0  0  0  0  0  0  0  0
    8.9319  -18.2912   22.5127 N   0  0  0  0  0  0  0  0  0  0  0  0
   11.2452  -18.7643   21.9819 C   0  0  0  0  0  0  0  0  0  0  0  0
   12.2826  -19.4304   21.7448 O   0  0  0  0  0  0  0  0  0  0  0  0
   11.5051  -17.3663   22.1985 N   0  0  0  0  0  0  0  0  0  0  0  0
   12.8142  -16.8129   22.4082 C   0  0  1  0  0  0  0  0  0  0  0  0
   13.2697  -16.2026   21.0990 C   0  0  0  0  0  0  0  0  0  0  0  0
   12.2317  -15.3077   20.5437 C   0  0  0  0  0  0  0  0  0  0  0  0
   10.8646  -15.4798   20.7096 C   0  0  0  0  0  0  0  0  0  0  0  0
   10.2416  -14.4712   20.0616 N   0  0  0  0  0  0  0  0  0  0  0  0
   11.1847  -13.6809   19.5000 C   0  0  0  0  0  0  0  0  0  0  0  0
   12.3775  -14.2035   19.8031 N   0  0  0  0  0  0  0  0  0  0  0  0
   12.9555  -15.9649   23.5699 C   0  0  0  0  0  0  0  0  0  0  0  0
   11.9761  -15.6917   24.2943 O   0  0  0  0  0  0  0  0  0  0  0  0
   14.1738  -15.4305   23.9173 O   0  0  0  0  0  0  0  0  0  0  0  0
  2  3  1  0
  2  1  1  1
  3  4  1  0
  4  5  2  0
  5  6  1  0
  7  8  2  0
  7  6  1  0
  9  8  1  0
 10  9  2  0
 11 10  1  0
 11 12  2  0
 12  4  1  0
 12  7  1  0
 13 21  1  0
 13  2  1  0
 14 13  2  0
 16 15  1  0
 17 16  2  0
 18 16  1  0
 19 18  1  0
 20 19  1  6
 20 21  1  0
 22 20  1  0
 22 23  2  0
 24 22  1  0
 25 24  1  0
 25 32  1  0
 25 26  1  6
 27 26  1  0
 28 27  2  0
 29 30  1  0
 29 28  1  0
 30 31  2  0
 31 27  1  0
 32 34  1  0
 33 32  2  0
M  END
$$$$
