WQH.pdb
     RDKit          3D

 34 36  0  0  1  0  0  0  0  0999 V2000
    8.2595  -17.3022   25.6214 N   0  0  0  0  0  0  0  0  0  0  0  0
    8.9979  -16.2846   24.8671 C   0  0  1  0  0  0  0  0  0  0  0  0
    9.0867  -15.0706   25.7652 C   0  0  0  0  0  0  0  0  0  0  0  0
    7.7317  -14.5345   26.0319 C   0  0  0  0  0  0  0  0  0  0  0  0
    6.5967  -15.2656   26.3285 C   0  0  0  0  0  0  0  0  0  0  0  0
    5.5660  -14.3903   26.5020 N   0  0  0  0  0  0  0  0  0  0  0  0
    5.9839  -13.1405   26.3319 C   0  0  0  0  0  0  0  0  0  0  0  0
    5.3741  -11.9111   26.3896 C   0  0  0  0  0  0  0  0  0  0  0  0
    6.1274  -10.7852   26.1524 C   0  0  0  0  0  0  0  0  0  0  0  0
    7.4821  -10.8454   25.8564 C   0  0  0  0  0  0  0  0  0  0  0  0
    8.0887  -12.0852   25.8000 C   0  0  0  0  0  0  0  0  0  0  0  0
    7.3440  -13.2196   26.0359 C   0  0  0  0  0  0  0  0  0  0  0  0
   10.3396  -16.7904   24.4921 C   0  0  0  0  0  0  0  0  0  0  0  0
   11.2226  -17.0256   25.3830 O   0  0  0  0  0  0  0  0  0  0  0  0
   13.4973  -21.2485   23.9226 N   0  0  0  0  0  0  0  0  0  0  0  0
   12.1053  -21.0411   23.8273 C   0  0  0  0  0  0  0  0  0  0  0  0
   11.3672  -22.0437   23.9376 O   0  0  0  0  0  0  0  0  0  0  0  0
   11.5549  -19.7033   23.6066 C   0  0  0  0  0  0  0  0  0  0  0  0
   12.5614  -18.5917   23.5873 C   0  0  0  0  0  0  0  0  0  0  0  0
   12.1003  -17.4197   22.7769 C   0  0  2  0  0  0  0  0  0  0  0  0
   10.7284  -17.0425   23.1526 N   0  0  0  0  0  0  0  0  0  0  0  0
   12.1960  -17.5951   21.3094 C   0  0  0  0  0  0  0  0  0  0  0  0
   12.9602  -16.9456   20.5543 O   0  0  0  0  0  0  0  0  0  0  0  0
   11.3907  -18.5595   20.6091 N   0  0  0  0  0  0  0  0  0  0  0  0
   11.5506  -18.8858   19.2191 C   0  0  1  0  0  0  0  0  0  0  0  0
   13.0116  -19.2113   18.9891 C   0  0  0  0  0  0  0  0  0  0  0  0
   13.7361  -18.0393   18.4521 C   0  0  0  0  0  0  0  0  0  0  0  0
   13.2628  -16.7348   18.4766 C   0  0  0  0  0  0  0  0  0  0  0  0
   14.1961  -15.9480   17.8976 N   0  0  0  0  0  0  0  0  0  0  0  0
   15.2324  -16.7290   17.5161 C   0  0  0  0  0  0  0  0  0  0  0  0
   14.9343  -17.9863   17.8600 N   0  0  0  0  0  0  0  0  0  0  0  0
   10.6104  -19.8478   18.6909 C   0  0  0  0  0  0  0  0  0  0  0  0
   10.6652  -20.2197   17.5003 O   0  0  0  0  0  0  0  0  0  0  0  0
    9.6235  -20.3871   19.4820 O   0  0  0  0  0  0  0  0  0  0  0  0
  2  3  1  0
  2  1  1  1
  3  4  1  0
  4  5  2  0
  5  6  1  0
  7  8  2  0
  7  6  1  0
  9  8  1  0
 10  9  2  0
 11 10  1  0
 11 12  2  0
 12  4  1  0
 12  7  1  0
 13 21  1  0
 13  2  1  0
 14 13  2  0
 16 15  1  0
 17 16  2  0
 18 16  1  0
 19 18  1  0
 20 19  1  1
 20 21  1  0
 22 20  1  0
 22 23  2  0
 24 22  1  0
 25 24  1  0
 25 32  1  0
 25 26  1  1
 27 26  1  0
 28 27  2  0
 29 30  1  0
 29 28  1  0
 30 31  2  0
 31 27  1  0
 32 34  1  0
 33 32  2  0
M  END
$$$$
