WQH.pdb
     RDKit          3D

 34 36  0  0  1  0  0  0  0  0999 V2000
    8.4743  -17.2110   26.3101 N   0  0  0  0  0  0  0  0  0  0  0  0
    8.0540  -16.5158   25.0894 C   0  0  1  0  0  0  0  0  0  0  0  0
    8.8636  -15.2396   25.0266 C   0  0  0  0  0  0  0  0  0  0  0  0
    8.5300  -14.3680   26.1770 C   0  0  0  0  0  0  0  0  0  0  0  0
    8.9921  -14.4965   27.4734 C   0  0  0  0  0  0  0  0  0  0  0  0
    8.4442  -13.4935   28.2167 N   0  0  0  0  0  0  0  0  0  0  0  0
    7.6577  -12.7328   27.4629 C   0  0  0  0  0  0  0  0  0  0  0  0
    6.8858  -11.6221   27.7020 C   0  0  0  0  0  0  0  0  0  0  0  0
    6.1760  -11.0710   26.6610 C   0  0  0  0  0  0  0  0  0  0  0  0
    6.2107  -11.5961   25.3766 C   0  0  0  0  0  0  0  0  0  0  0  0
    6.9891  -12.7133   25.1435 C   0  0  0  0  0  0  0  0  0  0  0  0
    7.7043  -13.2735   26.1787 C   0  0  0  0  0  0  0  0  0  0  0  0
    8.2834  -17.3716   23.9013 C   0  0  0  0  0  0  0  0  0  0  0  0
    9.2994  -18.1412   23.8358 O   0  0  0  0  0  0  0  0  0  0  0  0
    6.0701  -17.2096   18.1580 N   0  0  0  0  0  0  0  0  0  0  0  0
    6.6435  -18.4980   18.1927 C   0  0  0  0  0  0  0  0  0  0  0  0
    6.8541  -19.0616   17.0972 O   0  0  0  0  0  0  0  0  0  0  0  0
    6.9744  -19.1428   19.4639 C   0  0  0  0  0  0  0  0  0  0  0  0
    6.6105  -18.3626   20.6919 C   0  0  0  0  0  0  0  0  0  0  0  0
    7.8148  -17.9332   21.4717 C   0  0  2  0  0  0  0  0  0  0  0  0
    7.4144  -17.3961   22.7820 N   0  0  0  0  0  0  0  0  0  0  0  0
    8.7019  -16.9718   20.7772 C   0  0  0  0  0  0  0  0  0  0  0  0
    8.3204  -16.1044   19.9537 O   0  0  0  0  0  0  0  0  0  0  0  0
   10.1228  -16.9567   21.0007 N   0  0  0  0  0  0  0  0  0  0  0  0
   11.0257  -16.0247   20.3841 C   0  0  1  0  0  0  0  0  0  0  0  0
   10.4842  -14.6314   20.6273 C   0  0  0  0  0  0  0  0  0  0  0  0
    9.4650  -14.2766   19.6162 C   0  0  0  0  0  0  0  0  0  0  0  0
    8.7471  -13.0891   19.5965 C   0  0  0  0  0  0  0  0  0  0  0  0
    7.9164  -13.1285   18.5318 N   0  0  0  0  0  0  0  0  0  0  0  0
    8.1005  -14.3064   17.8931 C   0  0  0  0  0  0  0  0  0  0  0  0
    9.0385  -14.9833   18.5637 N   0  0  0  0  0  0  0  0  0  0  0  0
   12.4245  -16.2095   20.6970 C   0  0  0  0  0  0  0  0  0  0  0  0
   13.2947  -15.4308   20.2554 O   0  0  0  0  0  0  0  0  0  0  0  0
   12.8446  -17.2493   21.4926 O   0  0  0  0  0  0  0  0  0  0  0  0
  2  3  1  0
  2  1  1  1
  3  4  1  0
  4  5  2  0
  5  6  1  0
  7  8  2  0
  7  6  1  0
  9  8  1  0
 10  9  2  0
 11 10  1  0
 11 12  2  0
 12  4  1  0
 12  7  1  0
 13 21  1  0
 13  2  1  0
 14 13  2  0
 16 15  1  0
 17 16  2  0
 18 16  1  0
 19 18  1  0
 20 19  1  6
 20 21  1  0
 22 20  1  0
 22 23  2  0
 24 22  1  0
 25 24  1  0
 25 32  1  0
 25 26  1  1
 27 26  1  0
 28 27  2  0
 29 30  1  0
 29 28  1  0
 30 31  2  0
 31 27  1  0
 32 34  1  0
 33 32  2  0
M  END
$$$$
