WQH.pdb
     RDKit          3D

 34 36  0  0  1  0  0  0  0  0999 V2000
    6.7704  -18.0678   24.2098 N   0  0  0  0  0  0  0  0  0  0  0  0
    7.0566  -16.6925   23.7897 C   0  0  1  0  0  0  0  0  0  0  0  0
    7.8335  -16.0554   24.9205 C   0  0  0  0  0  0  0  0  0  0  0  0
    6.9464  -15.1733   25.7138 C   0  0  0  0  0  0  0  0  0  0  0  0
    5.9053  -15.5680   26.5329 C   0  0  0  0  0  0  0  0  0  0  0  0
    5.3483  -14.4479   27.0748 N   0  0  0  0  0  0  0  0  0  0  0  0
    5.9792  -13.3605   26.6447 C   0  0  0  0  0  0  0  0  0  0  0  0
    5.8291  -12.0141   26.8714 C   0  0  0  0  0  0  0  0  0  0  0  0
    6.6816  -11.1365   26.2433 C   0  0  0  0  0  0  0  0  0  0  0  0
    7.6887  -11.5614   25.3880 C   0  0  0  0  0  0  0  0  0  0  0  0
    7.8338  -12.9169   25.1646 C   0  0  0  0  0  0  0  0  0  0  0  0
    6.9857  -13.8049   25.7884 C   0  0  0  0  0  0  0  0  0  0  0  0
    7.8259  -16.6877   22.5229 C   0  0  0  0  0  0  0  0  0  0  0  0
    8.6955  -17.5904   22.2822 O   0  0  0  0  0  0  0  0  0  0  0  0
    7.1774  -12.8542   17.2702 N   0  0  0  0  0  0  0  0  0  0  0  0
    8.2430  -13.7442   17.0209 C   0  0  0  0  0  0  0  0  0  0  0  0
    8.6885  -13.7930   15.8542 O   0  0  0  0  0  0  0  0  0  0  0  0
    8.7985  -14.5748   18.0901 C   0  0  0  0  0  0  0  0  0  0  0  0
    7.9694  -14.6525   19.3373 C   0  0  0  0  0  0  0  0  0  0  0  0
    8.5408  -15.6039   20.3429 C   0  0  2  0  0  0  0  0  0  0  0  0
    7.6560  -15.7065   21.5144 N   0  0  0  0  0  0  0  0  0  0  0  0
    9.9250  -15.3030   20.7753 C   0  0  0  0  0  0  0  0  0  0  0  0
   10.2917  -14.2373   21.3283 O   0  0  0  0  0  0  0  0  0  0  0  0
   10.9968  -16.2439   20.5883 N   0  0  0  0  0  0  0  0  0  0  0  0
   11.8441  -16.7210   21.6459 C   0  0  1  0  0  0  0  0  0  0  0  0
   10.9530  -17.1176   22.8045 C   0  0  0  0  0  0  0  0  0  0  0  0
   11.7583  -17.5590   23.9636 C   0  0  0  0  0  0  0  0  0  0  0  0
   13.1454  -17.5683   24.0083 C   0  0  0  0  0  0  0  0  0  0  0  0
   13.5146  -18.0343   25.2215 N   0  0  0  0  0  0  0  0  0  0  0  0
   12.3952  -18.3132   25.9277 C   0  0  0  0  0  0  0  0  0  0  0  0
   11.3477  -18.0193   25.1505 N   0  0  0  0  0  0  0  0  0  0  0  0
   12.8328  -17.7020   21.2602 C   0  0  0  0  0  0  0  0  0  0  0  0
   14.0481  -17.5155   21.4770 O   0  0  0  0  0  0  0  0  0  0  0  0
   12.4686  -18.8747   20.6416 O   0  0  0  0  0  0  0  0  0  0  0  0
  2  3  1  0
  2  1  1  1
  3  4  1  0
  4  5  2  0
  5  6  1  0
  7  8  2  0
  7  6  1  0
  9  8  1  0
 10  9  2  0
 11 10  1  0
 11 12  2  0
 12  4  1  0
 12  7  1  0
 13 21  1  0
 13  2  1  0
 14 13  2  0
 16 15  1  0
 17 16  2  0
 18 16  1  0
 19 18  1  0
 20 19  1  6
 20 21  1  0
 22 20  1  0
 22 23  2  0
 24 22  1  0
 25 24  1  0
 25 32  1  0
 25 26  1  1
 27 26  1  0
 28 27  2  0
 29 30  1  0
 29 28  1  0
 30 31  2  0
 31 27  1  0
 32 34  1  0
 33 32  2  0
M  END
$$$$
