WQH.pdb
     RDKit          3D

 34 36  0  0  1  0  0  0  0  0999 V2000
    6.3837  -18.1186   24.2598 N   0  0  0  0  0  0  0  0  0  0  0  0
    6.7397  -16.7607   23.8363 C   0  0  1  0  0  0  0  0  0  0  0  0
    7.6468  -16.2040   24.9112 C   0  0  0  0  0  0  0  0  0  0  0  0
    6.8872  -15.2894   25.7949 C   0  0  0  0  0  0  0  0  0  0  0  0
    5.9506  -15.6472   26.7465 C   0  0  0  0  0  0  0  0  0  0  0  0
    5.4915  -14.5062   27.3347 N   0  0  0  0  0  0  0  0  0  0  0  0
    6.0857  -13.4405   26.8085 C   0  0  0  0  0  0  0  0  0  0  0  0
    5.9947  -12.0878   27.0284 C   0  0  0  0  0  0  0  0  0  0  0  0
    6.7789  -11.2401   26.2815 C   0  0  0  0  0  0  0  0  0  0  0  0
    7.6596  -11.7014   25.3129 C   0  0  0  0  0  0  0  0  0  0  0  0
    7.7458  -13.0631   25.0972 C   0  0  0  0  0  0  0  0  0  0  0  0
    6.9651  -13.9214   25.8395 C   0  0  0  0  0  0  0  0  0  0  0  0
    7.4078  -16.7895   22.5136 C   0  0  0  0  0  0  0  0  0  0  0  0
    7.9338  -17.8642   22.0696 O   0  0  0  0  0  0  0  0  0  0  0  0
    8.4621  -12.4689   16.7632 N   0  0  0  0  0  0  0  0  0  0  0  0
    7.7950  -13.6426   17.1722 C   0  0  0  0  0  0  0  0  0  0  0  0
    6.6810  -13.8783   16.6569 O   0  0  0  0  0  0  0  0  0  0  0  0
    8.3890  -14.5425   18.1616 C   0  0  0  0  0  0  0  0  0  0  0  0
    7.7125  -14.5594   19.4999 C   0  0  0  0  0  0  0  0  0  0  0  0
    8.1816  -15.6913   20.3611 C   0  0  2  0  0  0  0  0  0  0  0  0
    7.5081  -15.6557   21.6691 N   0  0  0  0  0  0  0  0  0  0  0  0
    9.6488  -15.7726   20.5462 C   0  0  0  0  0  0  0  0  0  0  0  0
   10.4937  -15.7673   19.6177 O   0  0  0  0  0  0  0  0  0  0  0  0
   10.2418  -15.8674   21.8532 N   0  0  0  0  0  0  0  0  0  0  0  0
   11.6540  -15.9826   22.0911 C   0  0  1  0  0  0  0  0  0  0  0  0
   11.8433  -16.4202   23.5286 C   0  0  0  0  0  0  0  0  0  0  0  0
   13.2796  -16.5378   23.8604 C   0  0  0  0  0  0  0  0  0  0  0  0
   14.3198  -16.1322   23.0362 C   0  0  0  0  0  0  0  0  0  0  0  0
   15.4794  -16.3998   23.6758 N   0  0  0  0  0  0  0  0  0  0  0  0
   15.1853  -16.9593   24.8716 C   0  0  0  0  0  0  0  0  0  0  0  0
   13.8533  -17.0332   24.9625 N   0  0  0  0  0  0  0  0  0  0  0  0
   12.3931  -16.7428   21.1091 C   0  0  0  0  0  0  0  0  0  0  0  0
   13.3933  -16.2617   20.5374 O   0  0  0  0  0  0  0  0  0  0  0  0
   12.0203  -18.0224   20.7714 O   0  0  0  0  0  0  0  0  0  0  0  0
  2  3  1  0
  2  1  1  1
  3  4  1  0
  4  5  2  0
  5  6  1  0
  7  8  2  0
  7  6  1  0
  9  8  1  0
 10  9  2  0
 11 10  1  0
 11 12  2  0
 12  4  1  0
 12  7  1  0
 13 21  1  0
 13  2  1  0
 14 13  2  0
 16 15  1  0
 17 16  2  0
 18 16  1  0
 19 18  1  0
 20 19  1  1
 20 21  1  0
 22 20  1  0
 22 23  2  0
 24 22  1  0
 25 24  1  0
 25 32  1  0
 25 26  1  1
 27 26  1  0
 28 27  2  0
 29 30  1  0
 29 28  1  0
 30 31  2  0
 31 27  1  0
 32 34  1  0
 33 32  2  0
M  END
$$$$
