WQH.pdb
     RDKit          3D

 34 36  0  0  1  0  0  0  0  0999 V2000
    6.7740  -16.9810   25.7437 N   0  0  0  0  0  0  0  0  0  0  0  0
    7.1775  -15.9373   24.7961 C   0  0  1  0  0  0  0  0  0  0  0  0
    8.4016  -15.2750   25.3887 C   0  0  0  0  0  0  0  0  0  0  0  0
    8.0166  -14.4401   26.5502 C   0  0  0  0  0  0  0  0  0  0  0  0
    8.4189  -14.6113   27.8614 C   0  0  0  0  0  0  0  0  0  0  0  0
    7.8386  -13.6314   28.6109 N   0  0  0  0  0  0  0  0  0  0  0  0
    7.0880  -12.8450   27.8470 C   0  0  0  0  0  0  0  0  0  0  0  0
    6.3069  -11.7408   28.0863 C   0  0  0  0  0  0  0  0  0  0  0  0
    5.6458  -11.1548   27.0323 C   0  0  0  0  0  0  0  0  0  0  0  0
    5.7387  -11.6385   25.7346 C   0  0  0  0  0  0  0  0  0  0  0  0
    6.5259  -12.7494   25.5014 C   0  0  0  0  0  0  0  0  0  0  0  0
    7.1927  -13.3443   26.5495 C   0  0  0  0  0  0  0  0  0  0  0  0
    7.4609  -16.5271   23.4663 C   0  0  0  0  0  0  0  0  0  0  0  0
    7.4749  -17.7926   23.3014 O   0  0  0  0  0  0  0  0  0  0  0  0
    6.9271  -13.6887   17.7332 N   0  0  0  0  0  0  0  0  0  0  0  0
    8.0834  -13.4431   18.5031 C   0  0  0  0  0  0  0  0  0  0  0  0
    8.7659  -12.4385   18.2082 O   0  0  0  0  0  0  0  0  0  0  0  0
    8.4628  -14.3339   19.6002 C   0  0  0  0  0  0  0  0  0  0  0  0
    7.4815  -15.4254   19.9079 C   0  0  0  0  0  0  0  0  0  0  0  0
    7.9688  -16.3422   20.9872 C   0  0  2  0  0  0  0  0  0  0  0  0
    7.7297  -15.7490   22.3126 N   0  0  0  0  0  0  0  0  0  0  0  0
    9.3846  -16.7592   20.8642 C   0  0  0  0  0  0  0  0  0  0  0  0
    9.8819  -17.3360   19.8662 O   0  0  0  0  0  0  0  0  0  0  0  0
   10.3355  -16.5269   21.9182 N   0  0  0  0  0  0  0  0  0  0  0  0
   11.6971  -16.9844   21.8905 C   0  0  1  0  0  0  0  0  0  0  0  0
   12.5918  -15.7727   22.0483 C   0  0  0  0  0  0  0  0  0  0  0  0
   14.0172  -16.1500   21.9355 C   0  0  0  0  0  0  0  0  0  0  0  0
   14.5183  -17.1041   21.0611 C   0  0  0  0  0  0  0  0  0  0  0  0
   15.8546  -17.1716   21.2479 N   0  0  0  0  0  0  0  0  0  0  0  0
   16.1936  -16.2863   22.2127 C   0  0  0  0  0  0  0  0  0  0  0  0
   15.0706  -15.6812   22.6134 N   0  0  0  0  0  0  0  0  0  0  0  0
   12.0004  -18.0967   22.7619 C   0  0  0  0  0  0  0  0  0  0  0  0
   12.6514  -19.0803   22.3527 O   0  0  0  0  0  0  0  0  0  0  0  0
   11.5827  -18.1095   24.0718 O   0  0  0  0  0  0  0  0  0  0  0  0
  2  3  1  0
  2  1  1  1
  3  4  1  0
  4  5  2  0
  5  6  1  0
  7  8  2  0
  7  6  1  0
  9  8  1  0
 10  9  2  0
 11 10  1  0
 11 12  2  0
 12  4  1  0
 12  7  1  0
 13 21  1  0
 13  2  1  0
 14 13  2  0
 16 15  1  0
 17 16  2  0
 18 16  1  0
 19 18  1  0
 20 19  1  6
 20 21  1  0
 22 20  1  0
 22 23  2  0
 24 22  1  0
 25 24  1  0
 25 32  1  0
 25 26  1  1
 27 26  1  0
 28 27  2  0
 29 30  1  0
 29 28  1  0
 30 31  2  0
 31 27  1  0
 32 34  1  0
 33 32  2  0
M  END
$$$$
