WQH.pdb
     RDKit          3D

 34 36  0  0  1  0  0  0  0  0999 V2000
    7.3055  -17.1614   24.7214 N   0  0  0  0  0  0  0  0  0  0  0  0
    7.6636  -15.9354   24.0015 C   0  0  1  0  0  0  0  0  0  0  0  0
    8.7401  -15.2596   24.8216 C   0  0  0  0  0  0  0  0  0  0  0  0
    8.1461  -14.6380   26.0279 C   0  0  0  0  0  0  0  0  0  0  0  0
    7.9944  -15.2237   27.2707 C   0  0  0  0  0  0  0  0  0  0  0  0
    7.4051  -14.3126   28.0961 N   0  0  0  0  0  0  0  0  0  0  0  0
    7.1734  -13.1775   27.4454 C   0  0  0  0  0  0  0  0  0  0  0  0
    6.6155  -11.9715   27.7932 C   0  0  0  0  0  0  0  0  0  0  0  0
    6.5278  -10.9822   26.8419 C   0  0  0  0  0  0  0  0  0  0  0  0
    6.9825  -11.1576   25.5423 C   0  0  0  0  0  0  0  0  0  0  0  0
    7.5423  -12.3731   25.1996 C   0  0  0  0  0  0  0  0  0  0  0  0
    7.6353  -13.3710   26.1443 C   0  0  0  0  0  0  0  0  0  0  0  0
    8.1352  -16.2573   22.6338 C   0  0  0  0  0  0  0  0  0  0  0  0
    8.4594  -17.4505   22.3174 O   0  0  0  0  0  0  0  0  0  0  0  0
    7.7507  -12.5807   17.2959 N   0  0  0  0  0  0  0  0  0  0  0  0
    8.4355  -13.7528   16.9124 C   0  0  0  0  0  0  0  0  0  0  0  0
    8.7115  -13.8852   15.7006 O   0  0  0  0  0  0  0  0  0  0  0  0
    8.8034  -14.7690   17.8990 C   0  0  0  0  0  0  0  0  0  0  0  0
    8.3317  -14.5042   19.2978 C   0  0  0  0  0  0  0  0  0  0  0  0
    8.6558  -15.6298   20.2310 C   0  0  2  0  0  0  0  0  0  0  0  0
    8.2568  -15.2890   21.6059 N   0  0  0  0  0  0  0  0  0  0  0  0
   10.0672  -16.0780   20.2070 C   0  0  0  0  0  0  0  0  0  0  0  0
   10.6059  -16.7128   19.2673 O   0  0  0  0  0  0  0  0  0  0  0  0
   10.9640  -15.8109   21.2994 N   0  0  0  0  0  0  0  0  0  0  0  0
   12.3545  -16.1724   21.3076 C   0  0  1  0  0  0  0  0  0  0  0  0
   13.1537  -14.9306   20.9717 C   0  0  0  0  0  0  0  0  0  0  0  0
   13.5196  -14.9091   19.5390 C   0  0  0  0  0  0  0  0  0  0  0  0
   13.2276  -15.9169   18.6306 C   0  0  0  0  0  0  0  0  0  0  0  0
   13.7187  -15.5423   17.4291 N   0  0  0  0  0  0  0  0  0  0  0  0
   14.3059  -14.3319   17.5691 C   0  0  0  0  0  0  0  0  0  0  0  0
   14.1744  -13.9687   18.8492 N   0  0  0  0  0  0  0  0  0  0  0  0
   12.8034  -16.9028   22.4710 C   0  0  0  0  0  0  0  0  0  0  0  0
   14.0006  -17.2294   22.6077 O   0  0  0  0  0  0  0  0  0  0  0  0
   11.9271  -17.2624   23.4677 O   0  0  0  0  0  0  0  0  0  0  0  0
  2  3  1  0
  2  1  1  1
  3  4  1  0
  4  5  2  0
  5  6  1  0
  7  8  2  0
  7  6  1  0
  9  8  1  0
 10  9  2  0
 11 10  1  0
 11 12  2  0
 12  4  1  0
 12  7  1  0
 13 21  1  0
 13  2  1  0
 14 13  2  0
 16 15  1  0
 17 16  2  0
 18 16  1  0
 19 18  1  0
 20 19  1  6
 20 21  1  0
 22 20  1  0
 22 23  2  0
 24 22  1  0
 25 24  1  0
 25 32  1  0
 25 26  1  1
 27 26  1  0
 28 27  2  0
 29 30  1  0
 29 28  1  0
 30 31  2  0
 31 27  1  0
 32 34  1  0
 33 32  2  0
M  END
$$$$
