WQH.pdb
     RDKit          3D

 34 36  0  0  1  0  0  0  0  0999 V2000
    6.4873  -17.2506   23.5737 N   0  0  0  0  0  0  0  0  0  0  0  0
    7.5254  -16.3288   23.1022 C   0  0  1  0  0  0  0  0  0  0  0  0
    8.2863  -15.8810   24.3305 C   0  0  0  0  0  0  0  0  0  0  0  0
    7.4130  -15.0568   25.1979 C   0  0  0  0  0  0  0  0  0  0  0  0
    6.2232  -15.4471   25.7834 C   0  0  0  0  0  0  0  0  0  0  0  0
    5.7403  -14.3918   26.4987 N   0  0  0  0  0  0  0  0  0  0  0  0
    6.5590  -13.3500   26.4003 C   0  0  0  0  0  0  0  0  0  0  0  0
    6.5493  -12.0737   26.9079 C   0  0  0  0  0  0  0  0  0  0  0  0
    7.5875  -11.2276   26.5954 C   0  0  0  0  0  0  0  0  0  0  0  0
    8.6455  -11.6160   25.7852 C   0  0  0  0  0  0  0  0  0  0  0  0
    8.6486  -12.9010   25.2782 C   0  0  0  0  0  0  0  0  0  0  0  0
    7.6140  -13.7569   25.5847 C   0  0  0  0  0  0  0  0  0  0  0  0
    8.4102  -17.0028   22.1227 C   0  0  0  0  0  0  0  0  0  0  0  0
    8.6364  -18.2566   22.1999 O   0  0  0  0  0  0  0  0  0  0  0  0
    8.7924  -16.1978   16.0902 N   0  0  0  0  0  0  0  0  0  0  0  0
    7.9797  -15.7216   17.1403 C   0  0  0  0  0  0  0  0  0  0  0  0
    6.8385  -15.3092   16.8405 O   0  0  0  0  0  0  0  0  0  0  0  0
    8.4607  -15.7124   18.5223 C   0  0  0  0  0  0  0  0  0  0  0  0
    9.8028  -16.3461   18.7377 C   0  0  0  0  0  0  0  0  0  0  0  0
    9.9140  -17.0030   20.0790 C   0  0  2  0  0  0  0  0  0  0  0  0
    9.0520  -16.3219   21.0582 N   0  0  0  0  0  0  0  0  0  0  0  0
   11.2923  -17.1191   20.6083 C   0  0  0  0  0  0  0  0  0  0  0  0
   12.1899  -17.8528   20.1266 O   0  0  0  0  0  0  0  0  0  0  0  0
   11.7259  -16.3721   21.7586 N   0  0  0  0  0  0  0  0  0  0  0  0
   13.0631  -16.4039   22.2831 C   0  0  1  0  0  0  0  0  0  0  0  0
   13.6155  -14.9953   22.2175 C   0  0  0  0  0  0  0  0  0  0  0  0
   13.9792  -14.6343   20.8303 C   0  0  0  0  0  0  0  0  0  0  0  0
   14.0120  -15.5205   19.7628 C   0  0  0  0  0  0  0  0  0  0  0  0
   14.3874  -14.8281   18.6651 N   0  0  0  0  0  0  0  0  0  0  0  0
   14.5874  -13.5394   19.0239 C   0  0  0  0  0  0  0  0  0  0  0  0
   14.3357  -13.4447   20.3337 N   0  0  0  0  0  0  0  0  0  0  0  0
   13.2198  -17.0728   23.5545 C   0  0  0  0  0  0  0  0  0  0  0  0
   14.3403  -17.1823   24.0941 O   0  0  0  0  0  0  0  0  0  0  0  0
   12.1399  -17.6111   24.2137 O   0  0  0  0  0  0  0  0  0  0  0  0
  2  3  1  0
  2  1  1  1
  3  4  1  0
  4  5  2  0
  5  6  1  0
  7  8  2  0
  7  6  1  0
  9  8  1  0
 10  9  2  0
 11 10  1  0
 11 12  2  0
 12  4  1  0
 12  7  1  0
 13 21  1  0
 13  2  1  0
 14 13  2  0
 16 15  1  0
 17 16  2  0
 18 16  1  0
 19 18  1  0
 20 19  1  6
 20 21  1  0
 22 20  1  0
 22 23  2  0
 24 22  1  0
 25 24  1  0
 25 32  1  0
 25 26  1  1
 27 26  1  0
 28 27  2  0
 29 30  1  0
 29 28  1  0
 30 31  2  0
 31 27  1  0
 32 34  1  0
 33 32  2  0
M  END
$$$$
