WQH.pdb
     RDKit          3D

 34 36  0  0  1  0  0  0  0  0999 V2000
    7.4989  -16.6124   21.4069 N   0  0  0  0  0  0  0  0  0  0  0  0
    8.2131  -16.2473   22.6344 C   0  0  1  0  0  0  0  0  0  0  0  0
    7.1687  -15.7197   23.5931 C   0  0  0  0  0  0  0  0  0  0  0  0
    6.9515  -14.2725   23.3633 C   0  0  0  0  0  0  0  0  0  0  0  0
    6.9044  -13.6270   22.1419 C   0  0  0  0  0  0  0  0  0  0  0  0
    6.6861  -12.3016   22.3747 N   0  0  0  0  0  0  0  0  0  0  0  0
    6.5917  -12.0683   23.6793 C   0  0  0  0  0  0  0  0  0  0  0  0
    6.3820  -10.9423   24.4376 C   0  0  0  0  0  0  0  0  0  0  0  0
    6.3407  -11.0630   25.8070 C   0  0  0  0  0  0  0  0  0  0  0  0
    6.5034  -12.2814   26.4515 C   0  0  0  0  0  0  0  0  0  0  0  0
    6.7139  -13.4095   25.6826 C   0  0  0  0  0  0  0  0  0  0  0  0
    6.7570  -13.3005   24.3103 C   0  0  0  0  0  0  0  0  0  0  0  0
    8.9242  -17.4236   23.1887 C   0  0  0  0  0  0  0  0  0  0  0  0
    8.5553  -18.6095   22.8946 O   0  0  0  0  0  0  0  0  0  0  0  0
   12.1767  -14.6045   20.2944 N   0  0  0  0  0  0  0  0  0  0  0  0
   13.2528  -15.2627   20.9258 C   0  0  0  0  0  0  0  0  0  0  0  0
   14.3968  -15.0655   20.4628 O   0  0  0  0  0  0  0  0  0  0  0  0
   13.0306  -16.1407   22.0753 C   0  0  0  0  0  0  0  0  0  0  0  0
   11.6040  -16.2645   22.5206 C   0  0  0  0  0  0  0  0  0  0  0  0
   11.4275  -17.3031   23.5850 C   0  0  2  0  0  0  0  0  0  0  0  0
   10.0354  -17.3191   24.0622 N   0  0  0  0  0  0  0  0  0  0  0  0
   12.3574  -17.1901   24.7322 C   0  0  0  0  0  0  0  0  0  0  0  0
   13.1594  -16.2425   24.9191 O   0  0  0  0  0  0  0  0  0  0  0  0
   12.4161  -18.1950   25.7597 N   0  0  0  0  0  0  0  0  0  0  0  0
   11.8079  -18.0603   27.0544 C   0  0  1  0  0  0  0  0  0  0  0  0
   10.3992  -17.5437   26.8483 C   0  0  0  0  0  0  0  0  0  0  0  0
   10.2611  -16.1650   27.3649 C   0  0  0  0  0  0  0  0  0  0  0  0
   11.2927  -15.4167   27.9143 C   0  0  0  0  0  0  0  0  0  0  0  0
   10.7853  -14.2165   28.2711 N   0  0  0  0  0  0  0  0  0  0  0  0
    9.4696  -14.2018   27.9578 C   0  0  0  0  0  0  0  0  0  0  0  0
    9.1744  -15.3865   27.4126 N   0  0  0  0  0  0  0  0  0  0  0  0
   11.9261  -19.2093   27.9229 C   0  0  0  0  0  0  0  0  0  0  0  0
   12.4393  -19.1130   29.0569 O   0  0  0  0  0  0  0  0  0  0  0  0
   11.4767  -20.4479   27.5300 O   0  0  0  0  0  0  0  0  0  0  0  0
  2  3  1  0
  2  1  1  6
  3  4  1  0
  4  5  2  0
  5  6  1  0
  7  8  2  0
  7  6  1  0
  9  8  1  0
 10  9  2  0
 11 10  1  0
 11 12  2  0
 12  4  1  0
 12  7  1  0
 13 21  1  0
 13  2  1  0
 14 13  2  0
 16 15  1  0
 17 16  2  0
 18 16  1  0
 19 18  1  0
 20 19  1  6
 20 21  1  0
 22 20  1  0
 22 23  2  0
 24 22  1  0
 25 24  1  0
 25 32  1  0
 25 26  1  6
 27 26  1  0
 28 27  2  0
 29 30  1  0
 29 28  1  0
 30 31  2  0
 31 27  1  0
 32 34  1  0
 33 32  2  0
M  END
$$$$
