LCK.pdb
     RDKit          3D

 24 23  0  0  1  0  0  0  0  0999 V2000
   22.3188  -11.5354  -19.0613 C   0  0  0  0  0  0  0  0  0  0  0  0
   23.4288  -12.4675  -18.6237 C   0  0  2  0  0  0  0  0  0  0  0  0
   24.6931  -12.0094  -19.3626 C   0  0  0  0  0  0  0  0  0  0  0  0
   23.1077  -13.8438  -19.1636 C   0  0  0  0  0  0  0  0  0  0  0  0
   24.1225  -14.8724  -18.7209 C   0  0  2  0  0  0  0  0  0  0  0  0
   25.1005  -15.0538  -19.7456 N   0  0  0  0  0  0  0  0  0  0  0  0
   23.3440  -16.1385  -18.4685 C   0  0  0  0  0  0  0  0  0  0  0  0
   22.6636  -16.6442  -19.4021 O   0  0  0  0  0  0  0  0  0  0  0  0
   23.3734  -16.7562  -17.1992 N   0  0  0  0  0  0  0  0  0  0  0  0
   22.6654  -18.0223  -17.0284 C   0  0  1  0  0  0  0  0  0  0  0  0
   23.5777  -18.9119  -16.2116 C   0  0  0  0  0  0  0  0  0  0  0  0
   24.8398  -19.7368  -17.1867 S   0  0  0  0  0  0  0  0  0  0  0  0
   21.3957  -17.8137  -16.3122 C   0  0  0  0  0  0  0  0  0  0  0  0
   21.4455  -17.1390  -15.2276 O   0  0  0  0  0  0  0  0  0  0  0  0
   20.1250  -18.2743  -16.6919 N   0  0  0  0  0  0  0  0  0  0  0  0
   18.8953  -17.9290  -15.8762 C   0  0  1  0  0  0  0  0  0  0  0  0
   17.9549  -17.2984  -16.8353 C   0  0  0  0  0  0  0  0  0  0  0  0
   16.6113  -16.8786  -16.4937 C   0  0  0  0  0  0  0  0  0  0  0  0
   15.6712  -16.2948  -17.4603 C   0  0  0  0  0  0  0  0  0  0  0  0
   14.3341  -15.9618  -16.7312 C   0  0  0  0  0  0  0  0  0  0  0  0
   13.4367  -15.2720  -17.6068 N   0  0  0  0  0  0  0  0  0  0  0  0
   18.4080  -19.2601  -15.4554 C   0  0  0  0  0  0  0  0  0  0  0  0
   17.4573  -19.3522  -14.4150 O   0  0  0  0  0  0  0  0  0  0  0  0
   18.7571  -20.3374  -15.9332 O   0  0  0  0  0  0  0  0  0  0  0  0
  2  1  1  6
  3  2  1  0
  4  2  1  0
  4  5  1  0
  5  6  1  6
  7  5  1  0
  7  8  2  0
  9  7  1  0
 10  9  1  0
 10 11  1  1
 11 12  1  0
 13 10  1  0
 14 13  2  0
 15 13  1  0
 16 17  1  6
 16 15  1  0
 17 18  1  0
 19 18  1  0
 20 21  1  0
 20 19  1  0
 22 16  1  0
 23 22  1  0
 24 22  2  0
M  END
$$$$
