LCK.pdb
     RDKit          3D

 24 23  0  0  1  0  0  0  0  0999 V2000
   17.7298  -16.3219  -17.4063 C   0  0  0  0  0  0  0  0  0  0  0  0
   17.5376  -16.0706  -15.9256 C   0  0  2  0  0  0  0  0  0  0  0  0
   16.3623  -16.9542  -15.4871 C   0  0  0  0  0  0  0  0  0  0  0  0
   17.0667  -14.6421  -15.7631 C   0  0  0  0  0  0  0  0  0  0  0  0
   18.0879  -13.6519  -16.2733 C   0  0  2  0  0  0  0  0  0  0  0  0
   19.2643  -13.7167  -15.4663 N   0  0  0  0  0  0  0  0  0  0  0  0
   17.4303  -12.2981  -16.1852 C   0  0  0  0  0  0  0  0  0  0  0  0
   16.3495  -12.0929  -16.8017 O   0  0  0  0  0  0  0  0  0  0  0  0
   18.0159  -11.2660  -15.4201 N   0  0  0  0  0  0  0  0  0  0  0  0
   17.3763   -9.9528  -15.4239 C   0  0  1  0  0  0  0  0  0  0  0  0
   17.2206   -9.5525  -13.9725 C   0  0  0  0  0  0  0  0  0  0  0  0
   16.7580   -7.8323  -13.7464 S   0  0  0  0  0  0  0  0  0  0  0  0
   18.2162   -8.9692  -16.1279 C   0  0  0  0  0  0  0  0  0  0  0  0
   19.4605   -8.9541  -15.8359 O   0  0  0  0  0  0  0  0  0  0  0  0
   17.8002   -8.0400  -17.0947 N   0  0  0  0  0  0  0  0  0  0  0  0
   18.7894   -7.0881  -17.7368 C   0  0  1  0  0  0  0  0  0  0  0  0
   18.2861   -6.8737  -19.1161 C   0  0  0  0  0  0  0  0  0  0  0  0
   18.9369   -6.0237  -20.0919 C   0  0  0  0  0  0  0  0  0  0  0  0
   18.4152   -5.7929  -21.4459 C   0  0  0  0  0  0  0  0  0  0  0  0
   19.3296   -4.7612  -22.1738 C   0  0  0  0  0  0  0  0  0  0  0  0
   18.7663   -4.3840  -23.4340 N   0  0  0  0  0  0  0  0  0  0  0  0
   18.6312   -5.8657  -16.9201 C   0  0  0  0  0  0  0  0  0  0  0  0
   19.7351   -5.0021  -16.7456 O   0  0  0  0  0  0  0  0  0  0  0  0
   17.6006   -5.5078  -16.3540 O   0  0  0  0  0  0  0  0  0  0  0  0
  2  1  1  6
  3  2  1  0
  4  2  1  0
  4  5  1  0
  5  6  1  1
  7  5  1  0
  7  8  2  0
  9  7  1  0
 10  9  1  0
 10 11  1  1
 11 12  1  0
 13 10  1  0
 14 13  2  0
 15 13  1  0
 16 17  1  6
 16 15  1  0
 17 18  1  0
 19 18  1  0
 20 21  1  0
 20 19  1  0
 22 16  1  0
 23 22  1  0
 24 22  2  0
M  END
$$$$
