LCK.pdb
     RDKit          3D

 24 23  0  0  1  0  0  0  0  0999 V2000
   20.7627  -14.7650  -16.7725 C   0  0  0  0  0  0  0  0  0  0  0  0
   22.0803  -14.0987  -17.1077 C   0  0  2  0  0  0  0  0  0  0  0  0
   23.0762  -15.2309  -17.3917 C   0  0  0  0  0  0  0  0  0  0  0  0
   22.5767  -13.4136  -15.8534 C   0  0  0  0  0  0  0  0  0  0  0  0
   23.7042  -12.4512  -16.1471 C   0  0  2  0  0  0  0  0  0  0  0  0
   24.9159  -12.9414  -15.5720 N   0  0  0  0  0  0  0  0  0  0  0  0
   23.2939  -11.1356  -15.5355 C   0  0  0  0  0  0  0  0  0  0  0  0
   23.2724  -11.0158  -14.2803 O   0  0  0  0  0  0  0  0  0  0  0  0
   22.9362  -10.0446  -16.3571 N   0  0  0  0  0  0  0  0  0  0  0  0
   22.6137   -8.7720  -15.7169 C   0  0  1  0  0  0  0  0  0  0  0  0
   23.7865   -7.8533  -15.9841 C   0  0  0  0  0  0  0  0  0  0  0  0
   24.1188   -7.6001  -17.7304 S   0  0  0  0  0  0  0  0  0  0  0  0
   21.3859   -8.1982  -16.2931 C   0  0  0  0  0  0  0  0  0  0  0  0
   21.0854   -8.5493  -17.4849 O   0  0  0  0  0  0  0  0  0  0  0  0
   20.4991   -7.3033  -15.6736 N   0  0  0  0  0  0  0  0  0  0  0  0
   19.2887   -6.7690  -16.4127 C   0  0  1  0  0  0  0  0  0  0  0  0
   18.1618   -7.6410  -15.9986 C   0  0  0  0  0  0  0  0  0  0  0  0
   16.7690   -7.3434  -16.2627 C   0  0  0  0  0  0  0  0  0  0  0  0
   15.6598   -8.2180  -15.8584 C   0  0  0  0  0  0  0  0  0  0  0  0
   14.3217   -7.6206  -16.3905 C   0  0  0  0  0  0  0  0  0  0  0  0
   13.2325   -8.5151  -16.1428 N   0  0  0  0  0  0  0  0  0  0  0  0
   19.1429   -5.4112  -15.8455 C   0  0  0  0  0  0  0  0  0  0  0  0
   19.7653   -5.1044  -14.6153 O   0  0  0  0  0  0  0  0  0  0  0  0
   18.5119   -4.4852  -16.3505 O   0  0  0  0  0  0  0  0  0  0  0  0
  2  1  1  1
  3  2  1  0
  4  2  1  0
  4  5  1  0
  5  6  1  1
  7  5  1  0
  7  8  2  0
  9  7  1  0
 10  9  1  0
 10 11  1  6
 11 12  1  0
 13 10  1  0
 14 13  2  0
 15 13  1  0
 16 17  1  1
 16 15  1  0
 17 18  1  0
 19 18  1  0
 20 21  1  0
 20 19  1  0
 22 16  1  0
 23 22  1  0
 24 22  2  0
M  END
$$$$
