LCK.pdb
     RDKit          3D

 24 23  0  0  1  0  0  0  0  0999 V2000
   17.8961   -8.4554  -17.3320 C   0  0  0  0  0  0  0  0  0  0  0  0
   17.7901   -9.8168  -16.6779 C   0  0  2  0  0  0  0  0  0  0  0  0
   16.3208  -10.2415  -16.8016 C   0  0  0  0  0  0  0  0  0  0  0  0
   18.0462   -9.6326  -15.1982 C   0  0  0  0  0  0  0  0  0  0  0  0
   19.3930   -8.9998  -14.9351 C   0  0  2  0  0  0  0  0  0  0  0  0
   20.4241   -9.9700  -15.1224 N   0  0  0  0  0  0  0  0  0  0  0  0
   19.3473   -8.5088  -13.5104 C   0  0  0  0  0  0  0  0  0  0  0  0
   18.9721   -9.2926  -12.5966 O   0  0  0  0  0  0  0  0  0  0  0  0
   19.7205   -7.1835  -13.1975 N   0  0  0  0  0  0  0  0  0  0  0  0
   19.6798   -6.7645  -11.7989 C   0  0  1  0  0  0  0  0  0  0  0  0
   20.6127   -5.5781  -11.6840 C   0  0  0  0  0  0  0  0  0  0  0  0
   22.3393   -5.9921  -11.9514 S   0  0  0  0  0  0  0  0  0  0  0  0
   18.3144   -6.3675  -11.4161 C   0  0  0  0  0  0  0  0  0  0  0  0
   17.5996   -5.8069  -12.3154 O   0  0  0  0  0  0  0  0  0  0  0  0
   17.7032   -6.5399  -10.1640 N   0  0  0  0  0  0  0  0  0  0  0  0
   16.2511   -6.1641   -9.9474 C   0  0  1  0  0  0  0  0  0  0  0  0
   15.6910   -7.2432   -9.0968 C   0  0  0  0  0  0  0  0  0  0  0  0
   14.2793   -7.5565   -9.0123 C   0  0  0  0  0  0  0  0  0  0  0  0
   13.7388   -8.6657   -8.2146 C   0  0  0  0  0  0  0  0  0  0  0  0
   12.1815   -8.6016   -8.2448 C   0  0  0  0  0  0  0  0  0  0  0  0
   11.6144   -9.6882   -7.5061 N   0  0  0  0  0  0  0  0  0  0  0  0
   16.3591   -4.8975   -9.1921 C   0  0  0  0  0  0  0  0  0  0  0  0
   17.6198   -4.4869   -8.7055 O   0  0  0  0  0  0  0  0  0  0  0  0
   15.4312   -4.1345   -8.9319 O   0  0  0  0  0  0  0  0  0  0  0  0
  2  1  1  6
  3  2  1  0
  4  2  1  0
  4  5  1  0
  5  6  1  1
  7  5  1  0
  7  8  2  0
  9  7  1  0
 10  9  1  0
 10 11  1  6
 11 12  1  0
 13 10  1  0
 14 13  2  0
 15 13  1  0
 16 17  1  1
 16 15  1  0
 17 18  1  0
 19 18  1  0
 20 21  1  0
 20 19  1  0
 22 16  1  0
 23 22  1  0
 24 22  2  0
M  END
$$$$
