LCK.pdb
     RDKit          3D

 24 23  0  0  1  0  0  0  0  0999 V2000
   25.0551  -11.8894  -16.1320 C   0  0  0  0  0  0  0  0  0  0  0  0
   25.6273  -10.4900  -16.0500 C   0  0  2  0  0  0  0  0  0  0  0  0
   26.9845  -10.6195  -15.3461 C   0  0  0  0  0  0  0  0  0  0  0  0
   24.7477   -9.6920  -15.1129 C   0  0  0  0  0  0  0  0  0  0  0  0
   23.3849   -9.4271  -15.7098 C   0  0  2  0  0  0  0  0  0  0  0  0
   23.5180   -9.1432  -17.1030 N   0  0  0  0  0  0  0  0  0  0  0  0
   22.8259   -8.2475  -14.9556 C   0  0  0  0  0  0  0  0  0  0  0  0
   22.6549   -8.3335  -13.7092 O   0  0  0  0  0  0  0  0  0  0  0  0
   22.4952   -7.0547  -15.6349 N   0  0  0  0  0  0  0  0  0  0  0  0
   21.8360   -5.9897  -14.8835 C   0  0  1  0  0  0  0  0  0  0  0  0
   22.7667   -4.7970  -14.9326 C   0  0  0  0  0  0  0  0  0  0  0  0
   22.0953   -3.3279  -14.1485 S   0  0  0  0  0  0  0  0  0  0  0  0
   20.5443   -5.6433  -15.5000 C   0  0  0  0  0  0  0  0  0  0  0  0
   20.5215   -5.5269  -16.7727 O   0  0  0  0  0  0  0  0  0  0  0  0
   19.3235   -5.4277  -14.8409 N   0  0  0  0  0  0  0  0  0  0  0  0
   18.1215   -4.8830  -15.5860 C   0  0  1  0  0  0  0  0  0  0  0  0
   17.0023   -5.7941  -15.2412 C   0  0  0  0  0  0  0  0  0  0  0  0
   16.8468   -7.1271  -15.7864 C   0  0  0  0  0  0  0  0  0  0  0  0
   15.7798   -8.0522  -15.3808 C   0  0  0  0  0  0  0  0  0  0  0  0
   15.8971   -9.3618  -16.2184 C   0  0  0  0  0  0  0  0  0  0  0  0
   14.9412  -10.3322  -15.7798 N   0  0  0  0  0  0  0  0  0  0  0  0
   17.9345   -3.5556  -14.9617 C   0  0  0  0  0  0  0  0  0  0  0  0
   16.8798   -2.7259  -15.4021 O   0  0  0  0  0  0  0  0  0  0  0  0
   18.6274   -3.0788  -14.0655 O   0  0  0  0  0  0  0  0  0  0  0  0
  2  1  1  1
  3  2  1  0
  4  2  1  0
  4  5  1  0
  5  6  1  6
  7  5  1  0
  7  8  2  0
  9  7  1  0
 10  9  1  0
 10 11  1  6
 11 12  1  0
 13 10  1  0
 14 13  2  0
 15 13  1  0
 16 17  1  1
 16 15  1  0
 17 18  1  0
 19 18  1  0
 20 21  1  0
 20 19  1  0
 22 16  1  0
 23 22  1  0
 24 22  2  0
M  END
$$$$
