LCK.pdb
     RDKit          3D

 24 23  0  0  1  0  0  0  0  0999 V2000
   27.9332  -20.6848  -15.0027 C   0  0  0  0  0  0  0  0  0  0  0  0
   26.9280  -19.8024  -15.7122 C   0  0  2  0  0  0  0  0  0  0  0  0
   27.6328  -18.4633  -15.9658 C   0  0  0  0  0  0  0  0  0  0  0  0
   25.8119  -19.5059  -14.7348 C   0  0  0  0  0  0  0  0  0  0  0  0
   25.0600  -20.7570  -14.3435 C   0  0  2  0  0  0  0  0  0  0  0  0
   24.7675  -21.5261  -15.5106 N   0  0  0  0  0  0  0  0  0  0  0  0
   23.8008  -20.2857  -13.6613 C   0  0  0  0  0  0  0  0  0  0  0  0
   23.8873  -19.5674  -12.6284 O   0  0  0  0  0  0  0  0  0  0  0  0
   22.5336  -20.6429  -14.1712 N   0  0  0  0  0  0  0  0  0  0  0  0
   21.3461  -20.2256  -13.4301 C   0  0  1  0  0  0  0  0  0  0  0  0
   20.4396  -19.5420  -14.4311 C   0  0  0  0  0  0  0  0  0  0  0  0
   19.9660  -20.5931  -15.8076 S   0  0  0  0  0  0  0  0  0  0  0  0
   20.6613  -21.3924  -12.8485 C   0  0  0  0  0  0  0  0  0  0  0  0
   20.9090  -22.5314  -13.3731 O   0  0  0  0  0  0  0  0  0  0  0  0
   19.7612  -21.3944  -11.7710 N   0  0  0  0  0  0  0  0  0  0  0  0
   19.1029  -22.6785  -11.3082 C   0  0  1  0  0  0  0  0  0  0  0  0
   18.6717  -22.4156   -9.9130 C   0  0  0  0  0  0  0  0  0  0  0  0
   17.9425  -23.3660   -9.0987 C   0  0  0  0  0  0  0  0  0  0  0  0
   18.5904  -24.3564   -8.2279 C   0  0  0  0  0  0  0  0  0  0  0  0
   17.4918  -25.1757   -7.4849 C   0  0  0  0  0  0  0  0  0  0  0  0
   18.0771  -26.2394   -6.7274 N   0  0  0  0  0  0  0  0  0  0  0  0
   17.9368  -22.7823  -12.2116 C   0  0  0  0  0  0  0  0  0  0  0  0
   17.3808  -24.0523  -12.4812 O   0  0  0  0  0  0  0  0  0  0  0  0
   17.3788  -21.8435  -12.7755 O   0  0  0  0  0  0  0  0  0  0  0  0
  2  1  1  1
  3  2  1  0
  4  2  1  0
  4  5  1  0
  5  6  1  6
  7  5  1  0
  7  8  2  0
  9  7  1  0
 10  9  1  0
 10 11  1  6
 11 12  1  0
 13 10  1  0
 14 13  2  0
 15 13  1  0
 16 17  1  1
 16 15  1  0
 17 18  1  0
 19 18  1  0
 20 21  1  0
 20 19  1  0
 22 16  1  0
 23 22  1  0
 24 22  2  0
M  END
$$$$
