LCK.pdb
     RDKit          3D

 24 23  0  0  1  0  0  0  0  0999 V2000
   17.1359  -14.3613  -19.4325 C   0  0  0  0  0  0  0  0  0  0  0  0
   17.7999  -15.1722  -18.3398 C   0  0  2  0  0  0  0  0  0  0  0  0
   16.6825  -15.9705  -17.6555 C   0  0  0  0  0  0  0  0  0  0  0  0
   18.3135  -14.2010  -17.2996 C   0  0  0  0  0  0  0  0  0  0  0  0
   19.3632  -13.2732  -17.8664 C   0  0  2  0  0  0  0  0  0  0  0  0
   20.4920  -14.0331  -18.2997 N   0  0  0  0  0  0  0  0  0  0  0  0
   19.7275  -12.3298  -16.7483 C   0  0  0  0  0  0  0  0  0  0  0  0
   18.8430  -11.9788  -15.9207 O   0  0  0  0  0  0  0  0  0  0  0  0
   21.0462  -11.8409  -16.6249 N   0  0  0  0  0  0  0  0  0  0  0  0
   21.3213  -10.8426  -15.5948 C   0  0  1  0  0  0  0  0  0  0  0  0
   22.7995  -10.9470  -15.2866 C   0  0  0  0  0  0  0  0  0  0  0  0
   23.4002   -9.6530  -14.1963 S   0  0  0  0  0  0  0  0  0  0  0  0
   21.0058   -9.4906  -16.0857 C   0  0  0  0  0  0  0  0  0  0  0  0
   21.3587   -9.2107  -17.2820 O   0  0  0  0  0  0  0  0  0  0  0  0
   20.3524   -8.4664  -15.3820 N   0  0  0  0  0  0  0  0  0  0  0  0
   20.1152   -7.1120  -16.0190 C   0  0  1  0  0  0  0  0  0  0  0  0
   18.6402   -6.9668  -16.0902 C   0  0  0  0  0  0  0  0  0  0  0  0
   17.9642   -5.7315  -16.4299 C   0  0  0  0  0  0  0  0  0  0  0  0
   16.5027   -5.5805  -16.4402 C   0  0  0  0  0  0  0  0  0  0  0  0
   16.1454   -4.1239  -16.8655 C   0  0  0  0  0  0  0  0  0  0  0  0
   14.7279   -3.9599  -16.9732 N   0  0  0  0  0  0  0  0  0  0  0  0
   20.6903   -6.1852  -15.0206 C   0  0  0  0  0  0  0  0  0  0  0  0
   20.8931   -4.8315  -15.3687 O   0  0  0  0  0  0  0  0  0  0  0  0
   21.0245   -6.4799  -13.8751 O   0  0  0  0  0  0  0  0  0  0  0  0
  2  1  1  6
  3  2  1  0
  4  2  1  0
  4  5  1  0
  5  6  1  1
  7  5  1  0
  7  8  2  0
  9  7  1  0
 10  9  1  0
 10 11  1  6
 11 12  1  0
 13 10  1  0
 14 13  2  0
 15 13  1  0
 16 17  1  1
 16 15  1  0
 17 18  1  0
 19 18  1  0
 20 21  1  0
 20 19  1  0
 22 16  1  0
 23 22  1  0
 24 22  2  0
M  END
$$$$
