LCK.pdb
     RDKit          3D

 24 23  0  0  1  0  0  0  0  0999 V2000
   19.0138   -9.9824  -12.9505 C   0  0  0  0  0  0  0  0  0  0  0  0
   17.6284  -10.1210  -13.5455 C   0  0  2  0  0  0  0  0  0  0  0  0
   17.6794   -9.4415  -14.9203 C   0  0  0  0  0  0  0  0  0  0  0  0
   16.6859   -9.2877  -12.7050 C   0  0  0  0  0  0  0  0  0  0  0  0
   16.5121   -9.8623  -11.3182 C   0  0  2  0  0  0  0  0  0  0  0  0
   15.9646  -11.1781  -11.4088 N   0  0  0  0  0  0  0  0  0  0  0  0
   15.5794   -8.9233  -10.5961 C   0  0  0  0  0  0  0  0  0  0  0  0
   14.3332   -9.0847  -10.7022 O   0  0  0  0  0  0  0  0  0  0  0  0
   16.0924   -7.8711   -9.8067 N   0  0  0  0  0  0  0  0  0  0  0  0
   15.1531   -6.8992   -9.2531 C   0  0  1  0  0  0  0  0  0  0  0  0
   15.6023   -6.6371   -7.8316 C   0  0  0  0  0  0  0  0  0  0  0  0
   14.6884   -5.3221   -7.0193 S   0  0  0  0  0  0  0  0  0  0  0  0
   15.1856   -5.6473  -10.0280 C   0  0  0  0  0  0  0  0  0  0  0  0
   16.3353   -5.1414  -10.2650 O   0  0  0  0  0  0  0  0  0  0  0  0
   14.0858   -4.9428  -10.5429 N   0  0  0  0  0  0  0  0  0  0  0  0
   14.2821   -3.6872  -11.3687 C   0  0  1  0  0  0  0  0  0  0  0  0
   12.9706   -3.4360  -12.0154 C   0  0  0  0  0  0  0  0  0  0  0  0
   12.3245   -4.3631  -12.9217 C   0  0  0  0  0  0  0  0  0  0  0  0
   10.9885   -4.1444  -13.4927 C   0  0  0  0  0  0  0  0  0  0  0  0
   10.6245   -5.3507  -14.4106 C   0  0  0  0  0  0  0  0  0  0  0  0
    9.3032   -5.2049  -14.9405 N   0  0  0  0  0  0  0  0  0  0  0  0
   14.5665   -2.6679  -10.3359 C   0  0  0  0  0  0  0  0  0  0  0  0
   15.2330   -1.4779  -10.7027 O   0  0  0  0  0  0  0  0  0  0  0  0
   14.2736   -2.7502   -9.1450 O   0  0  0  0  0  0  0  0  0  0  0  0
  2  1  1  1
  3  2  1  0
  4  2  1  0
  4  5  1  0
  5  6  1  6
  7  5  1  0
  7  8  2  0
  9  7  1  0
 10  9  1  0
 10 11  1  1
 11 12  1  0
 13 10  1  0
 14 13  2  0
 15 13  1  0
 16 17  1  1
 16 15  1  0
 17 18  1  0
 19 18  1  0
 20 21  1  0
 20 19  1  0
 22 16  1  0
 23 22  1  0
 24 22  2  0
M  END
$$$$
