LCK.pdb
     RDKit          3D

 24 23  0  0  1  0  0  0  0  0999 V2000
   21.3345  -14.0361  -20.6548 C   0  0  0  0  0  0  0  0  0  0  0  0
   21.0464  -14.4997  -19.2425 C   0  0  2  0  0  0  0  0  0  0  0  0
   19.8836  -15.4956  -19.3442 C   0  0  0  0  0  0  0  0  0  0  0  0
   20.5104  -13.3122  -18.4734 C   0  0  0  0  0  0  0  0  0  0  0  0
   21.5308  -12.2025  -18.3695 C   0  0  2  0  0  0  0  0  0  0  0  0
   22.6757  -12.6685  -17.6543 N   0  0  0  0  0  0  0  0  0  0  0  0
   20.8434  -11.0763  -17.6401 C   0  0  0  0  0  0  0  0  0  0  0  0
   19.6899  -10.7169  -18.0013 O   0  0  0  0  0  0  0  0  0  0  0  0
   21.4818  -10.4268  -16.5612 N   0  0  0  0  0  0  0  0  0  0  0  0
   20.8159   -9.2782  -15.9523 C   0  0  1  0  0  0  0  0  0  0  0  0
   21.4018   -9.1349  -14.5640 C   0  0  0  0  0  0  0  0  0  0  0  0
   20.8108   -7.6883  -13.6796 S   0  0  0  0  0  0  0  0  0  0  0  0
   21.0722   -8.0563  -16.7332 C   0  0  0  0  0  0  0  0  0  0  0  0
   22.2732   -7.8586  -17.1235 O   0  0  0  0  0  0  0  0  0  0  0  0
   20.1365   -7.0771  -17.1029 N   0  0  0  0  0  0  0  0  0  0  0  0
   20.5667   -5.8314  -17.8511 C   0  0  1  0  0  0  0  0  0  0  0  0
   19.5748   -5.6693  -18.9427 C   0  0  0  0  0  0  0  0  0  0  0  0
   19.5378   -4.5329  -19.8401 C   0  0  0  0  0  0  0  0  0  0  0  0
   18.5644   -4.3899  -20.9314 C   0  0  0  0  0  0  0  0  0  0  0  0
   18.8010   -3.0257  -21.6479 C   0  0  0  0  0  0  0  0  0  0  0  0
   17.9821   -2.9173  -22.8164 N   0  0  0  0  0  0  0  0  0  0  0  0
   20.4062   -4.7747  -16.8293 C   0  0  0  0  0  0  0  0  0  0  0  0
   21.2178   -3.6206  -16.8935 O   0  0  0  0  0  0  0  0  0  0  0  0
   19.6106   -4.7956  -15.8926 O   0  0  0  0  0  0  0  0  0  0  0  0
  2  1  1  6
  3  2  1  0
  4  2  1  0
  4  5  1  0
  5  6  1  1
  7  5  1  0
  7  8  2  0
  9  7  1  0
 10  9  1  0
 10 11  1  1
 11 12  1  0
 13 10  1  0
 14 13  2  0
 15 13  1  0
 16 17  1  6
 16 15  1  0
 17 18  1  0
 19 18  1  0
 20 21  1  0
 20 19  1  0
 22 16  1  0
 23 22  1  0
 24 22  2  0
M  END
$$$$
