LCK.pdb
     RDKit          3D

 24 23  0  0  1  0  0  0  0  0999 V2000
   23.0613  -15.2090  -20.0931 C   0  0  0  0  0  0  0  0  0  0  0  0
   22.2875  -13.9769  -20.5122 C   0  0  2  0  0  0  0  0  0  0  0  0
   23.3018  -13.0353  -21.1748 C   0  0  0  0  0  0  0  0  0  0  0  0
   21.8305  -13.2751  -19.2523 C   0  0  0  0  0  0  0  0  0  0  0  0
   22.8779  -12.3193  -18.7296 C   0  0  2  0  0  0  0  0  0  0  0  0
   24.0124  -13.0549  -18.2700 N   0  0  0  0  0  0  0  0  0  0  0  0
   22.2194  -11.5590  -17.6065 C   0  0  0  0  0  0  0  0  0  0  0  0
   20.9939  -11.7402  -17.3706 O   0  0  0  0  0  0  0  0  0  0  0  0
   22.9645  -10.6510  -16.8232 N   0  0  0  0  0  0  0  0  0  0  0  0
   22.2785   -9.9381  -15.7486 C   0  0  1  0  0  0  0  0  0  0  0  0
   23.0136  -10.2854  -14.4719 C   0  0  0  0  0  0  0  0  0  0  0  0
   22.4644   -9.3422  -13.0462 S   0  0  0  0  0  0  0  0  0  0  0  0
   22.3288   -8.4841  -15.9764 C   0  0  0  0  0  0  0  0  0  0  0  0
   23.4463   -7.9951  -16.3586 O   0  0  0  0  0  0  0  0  0  0  0  0
   21.2769   -7.5671  -15.8225 N   0  0  0  0  0  0  0  0  0  0  0  0
   21.4746   -6.0960  -16.1286 C   0  0  1  0  0  0  0  0  0  0  0  0
   20.2368   -5.6729  -16.8288 C   0  0  0  0  0  0  0  0  0  0  0  0
   19.9331   -4.3000  -17.1771 C   0  0  0  0  0  0  0  0  0  0  0  0
   18.7046   -3.8897  -17.8706 C   0  0  0  0  0  0  0  0  0  0  0  0
   18.6949   -2.3372  -18.0115 C   0  0  0  0  0  0  0  0  0  0  0  0
   17.5293   -1.8987  -18.7164 N   0  0  0  0  0  0  0  0  0  0  0  0
   21.5497   -5.4971  -14.7787 C   0  0  0  0  0  0  0  0  0  0  0  0
   22.2230   -4.2681  -14.6031 O   0  0  0  0  0  0  0  0  0  0  0  0
   21.0702   -5.9749  -13.7527 O   0  0  0  0  0  0  0  0  0  0  0  0
  2  1  1  1
  3  2  1  0
  4  2  1  0
  4  5  1  0
  5  6  1  1
  7  5  1  0
  7  8  2  0
  9  7  1  0
 10  9  1  0
 10 11  1  1
 11 12  1  0
 13 10  1  0
 14 13  2  0
 15 13  1  0
 16 17  1  6
 16 15  1  0
 17 18  1  0
 19 18  1  0
 20 21  1  0
 20 19  1  0
 22 16  1  0
 23 22  1  0
 24 22  2  0
M  END
$$$$
