LCK.pdb
     RDKit          3D

 24 23  0  0  1  0  0  0  0  0999 V2000
   21.7941  -28.8500  -10.1847 C   0  0  0  0  0  0  0  0  0  0  0  0
   20.8525  -29.9459  -10.6373 C   0  0  2  0  0  0  0  0  0  0  0  0
   19.5776  -29.7933   -9.7974 C   0  0  0  0  0  0  0  0  0  0  0  0
   21.4630  -31.2687  -10.2294 C   0  0  0  0  0  0  0  0  0  0  0  0
   22.8014  -31.4986  -10.8923 C   0  0  2  0  0  0  0  0  0  0  0  0
   22.6103  -31.7519  -12.2846 N   0  0  0  0  0  0  0  0  0  0  0  0
   23.4104  -32.6868  -10.1921 C   0  0  0  0  0  0  0  0  0  0  0  0
   22.9950  -33.8460  -10.4639 O   0  0  0  0  0  0  0  0  0  0  0  0
   24.4371  -32.5078   -9.2396 N   0  0  0  0  0  0  0  0  0  0  0  0
   25.0875  -33.6950   -8.6911 C   0  0  1  0  0  0  0  0  0  0  0  0
   26.5742  -33.4970   -8.8954 C   0  0  0  0  0  0  0  0  0  0  0  0
   27.0764  -31.7731   -8.8997 S   0  0  0  0  0  0  0  0  0  0  0  0
   24.7926  -33.8308   -7.2547 C   0  0  0  0  0  0  0  0  0  0  0  0
   24.6546  -32.7501   -6.5861 O   0  0  0  0  0  0  0  0  0  0  0  0
   24.6417  -35.0247   -6.5315 N   0  0  0  0  0  0  0  0  0  0  0  0
   24.4280  -35.0051   -5.0313 C   0  0  1  0  0  0  0  0  0  0  0  0
   24.1074  -36.4066   -4.6641 C   0  0  0  0  0  0  0  0  0  0  0  0
   23.9298  -36.8657   -3.3018 C   0  0  0  0  0  0  0  0  0  0  0  0
   23.5966  -38.2523   -2.9479 C   0  0  0  0  0  0  0  0  0  0  0  0
   23.4151  -38.3528   -1.4029 C   0  0  0  0  0  0  0  0  0  0  0  0
   22.9159  -39.6420   -1.0332 N   0  0  0  0  0  0  0  0  0  0  0  0
   25.7619  -34.6175   -4.5245 C   0  0  0  0  0  0  0  0  0  0  0  0
   25.8570  -33.8450   -3.3459 O   0  0  0  0  0  0  0  0  0  0  0  0
   26.8390  -34.9069   -5.0410 O   0  0  0  0  0  0  0  0  0  0  0  0
  2  1  1  1
  3  2  1  0
  4  2  1  0
  4  5  1  0
  5  6  1  6
  7  5  1  0
  7  8  2  0
  9  7  1  0
 10  9  1  0
 10 11  1  1
 11 12  1  0
 13 10  1  0
 14 13  2  0
 15 13  1  0
 16 17  1  1
 16 15  1  0
 17 18  1  0
 19 18  1  0
 20 21  1  0
 20 19  1  0
 22 16  1  0
 23 22  1  0
 24 22  2  0
M  END
$$$$
