LCK.pdb
     RDKit          3D

 24 23  0  0  1  0  0  0  0  0999 V2000
   23.6117  -12.6719  -20.6763 C   0  0  0  0  0  0  0  0  0  0  0  0
   23.5278  -13.5729  -19.4624 C   0  0  2  0  0  0  0  0  0  0  0  0
   22.6572  -14.7682  -19.8719 C   0  0  0  0  0  0  0  0  0  0  0  0
   22.7452  -12.8338  -18.3993 C   0  0  0  0  0  0  0  0  0  0  0  0
   23.4345  -11.5559  -17.9802 C   0  0  2  0  0  0  0  0  0  0  0  0
   24.6378  -11.8679  -17.2772 N   0  0  0  0  0  0  0  0  0  0  0  0
   22.4521  -10.8266  -17.0993 C   0  0  0  0  0  0  0  0  0  0  0  0
   21.2614  -10.6802  -17.4879 O   0  0  0  0  0  0  0  0  0  0  0  0
   22.8575  -10.3103  -15.8493 N   0  0  0  0  0  0  0  0  0  0  0  0
   21.8864   -9.5508  -15.0658 C   0  0  1  0  0  0  0  0  0  0  0  0
   22.3663   -9.6009  -13.6312 C   0  0  0  0  0  0  0  0  0  0  0  0
   21.1918   -8.9210  -12.4555 S   0  0  0  0  0  0  0  0  0  0  0  0
   21.8280   -8.1533  -15.5264 C   0  0  0  0  0  0  0  0  0  0  0  0
   22.8614   -7.6957  -16.1237 O   0  0  0  0  0  0  0  0  0  0  0  0
   20.7539   -7.2604  -15.3847 N   0  0  0  0  0  0  0  0  0  0  0  0
   20.6301   -6.0425  -16.2781 C   0  0  1  0  0  0  0  0  0  0  0  0
   20.4590   -6.5805  -17.6503 C   0  0  0  0  0  0  0  0  0  0  0  0
   19.9905   -5.7961  -18.7743 C   0  0  0  0  0  0  0  0  0  0  0  0
   19.8970   -6.3153  -20.1456 C   0  0  0  0  0  0  0  0  0  0  0  0
   19.3168   -5.2034  -21.0716 C   0  0  0  0  0  0  0  0  0  0  0  0
   20.2405   -4.1182  -21.2017 N   0  0  0  0  0  0  0  0  0  0  0  0
   19.3796   -5.4187  -15.7948 C   0  0  0  0  0  0  0  0  0  0  0  0
   18.4310   -6.2098  -15.1099 O   0  0  0  0  0  0  0  0  0  0  0  0
   19.0654   -4.2383  -15.9321 O   0  0  0  0  0  0  0  0  0  0  0  0
  2  1  1  6
  3  2  1  0
  4  2  1  0
  4  5  1  0
  5  6  1  1
  7  5  1  0
  7  8  2  0
  9  7  1  0
 10  9  1  0
 10 11  1  1
 11 12  1  0
 13 10  1  0
 14 13  2  0
 15 13  1  0
 16 17  1  6
 16 15  1  0
 17 18  1  0
 19 18  1  0
 20 21  1  0
 20 19  1  0
 22 16  1  0
 23 22  1  0
 24 22  2  0
M  END
$$$$
