LCK.pdb
     RDKit          3D

 24 23  0  0  1  0  0  0  0  0999 V2000
   27.4295  -19.0393   -4.7682 C   0  0  0  0  0  0  0  0  0  0  0  0
   28.0565  -20.0934   -5.6560 C   0  0  2  0  0  0  0  0  0  0  0  0
   29.5746  -19.8952   -5.5550 C   0  0  0  0  0  0  0  0  0  0  0  0
   27.6886  -19.7628   -7.0858 C   0  0  0  0  0  0  0  0  0  0  0  0
   26.2109  -19.9471   -7.3432 C   0  0  2  0  0  0  0  0  0  0  0  0
   25.8025  -21.2390   -6.8918 N   0  0  0  0  0  0  0  0  0  0  0  0
   26.0295  -19.7984   -8.8324 C   0  0  0  0  0  0  0  0  0  0  0  0
   26.3788  -18.7252   -9.3951 O   0  0  0  0  0  0  0  0  0  0  0  0
   25.4736  -20.8490   -9.5945 N   0  0  0  0  0  0  0  0  0  0  0  0
   25.2998  -20.6461  -11.0305 C   0  0  1  0  0  0  0  0  0  0  0  0
   25.9642  -21.8247  -11.7091 C   0  0  0  0  0  0  0  0  0  0  0  0
   27.7560  -21.7160  -11.7481 S   0  0  0  0  0  0  0  0  0  0  0  0
   23.8696  -20.6077  -11.3792 C   0  0  0  0  0  0  0  0  0  0  0  0
   23.0630  -21.2038  -10.5867 O   0  0  0  0  0  0  0  0  0  0  0  0
   23.2871  -19.9817  -12.4928 N   0  0  0  0  0  0  0  0  0  0  0  0
   21.7812  -19.8869  -12.6341 C   0  0  1  0  0  0  0  0  0  0  0  0
   21.5536  -19.0062  -13.8063 C   0  0  0  0  0  0  0  0  0  0  0  0
   22.2422  -19.1503  -15.0726 C   0  0  0  0  0  0  0  0  0  0  0  0
   21.7590  -20.0011  -16.1687 C   0  0  0  0  0  0  0  0  0  0  0  0
   22.7680  -19.9238  -17.3546 C   0  0  0  0  0  0  0  0  0  0  0  0
   22.4284  -20.8706  -18.3725 N   0  0  0  0  0  0  0  0  0  0  0  0
   21.4015  -21.2830  -12.9398 C   0  0  0  0  0  0  0  0  0  0  0  0
   20.0483  -21.6723  -12.8293 O   0  0  0  0  0  0  0  0  0  0  0  0
   22.1690  -22.1757  -13.2929 O   0  0  0  0  0  0  0  0  0  0  0  0
  2  1  1  1
  3  2  1  0
  4  2  1  0
  4  5  1  0
  5  6  1  6
  7  5  1  0
  7  8  2  0
  9  7  1  0
 10  9  1  0
 10 11  1  6
 11 12  1  0
 13 10  1  0
 14 13  2  0
 15 13  1  0
 16 17  1  6
 16 15  1  0
 17 18  1  0
 19 18  1  0
 20 21  1  0
 20 19  1  0
 22 16  1  0
 23 22  1  0
 24 22  2  0
M  END
$$$$
