LCK.pdb
     RDKit          3D

 24 23  0  0  1  0  0  0  0  0999 V2000
   17.2290  -17.0768  -17.7259 C   0  0  0  0  0  0  0  0  0  0  0  0
   16.2519  -16.3010  -16.8681 C   0  0  2  0  0  0  0  0  0  0  0  0
   14.8619  -16.5430  -17.4711 C   0  0  0  0  0  0  0  0  0  0  0  0
   16.5403  -14.8291  -17.0661 C   0  0  0  0  0  0  0  0  0  0  0  0
   17.2619  -14.2329  -15.8798 C   0  0  2  0  0  0  0  0  0  0  0  0
   16.4850  -14.4281  -14.6976 N   0  0  0  0  0  0  0  0  0  0  0  0
   17.4330  -12.7683  -16.1940 C   0  0  0  0  0  0  0  0  0  0  0  0
   18.0565  -12.4267  -17.2355 O   0  0  0  0  0  0  0  0  0  0  0  0
   16.9013  -11.7843  -15.3323 N   0  0  0  0  0  0  0  0  0  0  0  0
   17.1668  -10.3806  -15.6366 C   0  0  1  0  0  0  0  0  0  0  0  0
   15.9605   -9.6057  -15.1516 C   0  0  0  0  0  0  0  0  0  0  0  0
   16.3225   -7.8967  -14.7365 S   0  0  0  0  0  0  0  0  0  0  0  0
   18.3756   -9.9175  -14.9345 C   0  0  0  0  0  0  0  0  0  0  0  0
   18.5089  -10.2718  -13.7136 O   0  0  0  0  0  0  0  0  0  0  0  0
   19.4087   -9.1262  -15.4613 N   0  0  0  0  0  0  0  0  0  0  0  0
   20.6201   -8.7681  -14.6241 C   0  0  1  0  0  0  0  0  0  0  0  0
   21.7922   -9.1562  -15.4471 C   0  0  0  0  0  0  0  0  0  0  0  0
   22.2677   -8.3982  -16.5862 C   0  0  0  0  0  0  0  0  0  0  0  0
   23.3299   -8.8651  -17.4876 C   0  0  0  0  0  0  0  0  0  0  0  0
   23.3866   -7.9299  -18.7336 C   0  0  0  0  0  0  0  0  0  0  0  0
   24.3021   -8.4385  -19.7088 N   0  0  0  0  0  0  0  0  0  0  0  0
   20.5113   -7.2971  -14.5191 C   0  0  0  0  0  0  0  0  0  0  0  0
   21.3748   -6.5996  -13.6458 O   0  0  0  0  0  0  0  0  0  0  0  0
   19.7172   -6.5894  -15.1350 O   0  0  0  0  0  0  0  0  0  0  0  0
  2  1  1  6
  3  2  1  0
  4  2  1  0
  4  5  1  0
  5  6  1  1
  7  5  1  0
  7  8  2  0
  9  7  1  0
 10  9  1  0
 10 11  1  1
 11 12  1  0
 13 10  1  0
 14 13  2  0
 15 13  1  0
 16 17  1  6
 16 15  1  0
 17 18  1  0
 19 18  1  0
 20 21  1  0
 20 19  1  0
 22 16  1  0
 23 22  1  0
 24 22  2  0
M  END
$$$$
