LCK.pdb
     RDKit          3D

 24 23  0  0  1  0  0  0  0  0999 V2000
   26.5922  -10.1650  -14.6510 C   0  0  0  0  0  0  0  0  0  0  0  0
   26.5438  -10.9223  -15.9612 C   0  0  2  0  0  0  0  0  0  0  0  0
   27.5728  -10.2551  -16.8833 C   0  0  0  0  0  0  0  0  0  0  0  0
   25.1923  -10.6610  -16.5891 C   0  0  0  0  0  0  0  0  0  0  0  0
   24.0622  -11.1626  -15.7202 C   0  0  2  0  0  0  0  0  0  0  0  0
   23.9285  -12.5759  -15.8751 N   0  0  0  0  0  0  0  0  0  0  0  0
   22.8273  -10.4353  -16.1883 C   0  0  0  0  0  0  0  0  0  0  0  0
   22.2869  -10.7696  -17.2776 O   0  0  0  0  0  0  0  0  0  0  0  0
   22.2773   -9.3884  -15.4170 N   0  0  0  0  0  0  0  0  0  0  0  0
   21.0516   -8.7500  -15.8898 C   0  0  1  0  0  0  0  0  0  0  0  0
   19.9665   -9.1346  -14.9071 C   0  0  0  0  0  0  0  0  0  0  0  0
   20.5405   -9.2473  -13.2095 S   0  0  0  0  0  0  0  0  0  0  0  0
   21.2071   -7.2859  -15.9174 C   0  0  0  0  0  0  0  0  0  0  0  0
   21.9310   -6.7621  -15.0034 O   0  0  0  0  0  0  0  0  0  0  0  0
   20.6468   -6.3933  -16.8451 N   0  0  0  0  0  0  0  0  0  0  0  0
   20.9798   -4.9154  -16.8033 C   0  0  1  0  0  0  0  0  0  0  0  0
   20.6022   -4.3921  -18.1394 C   0  0  0  0  0  0  0  0  0  0  0  0
   21.2396   -3.2561  -18.7731 C   0  0  0  0  0  0  0  0  0  0  0  0
   20.8292   -2.7160  -20.0764 C   0  0  0  0  0  0  0  0  0  0  0  0
   21.7290   -1.4916  -20.4251 C   0  0  0  0  0  0  0  0  0  0  0  0
   21.4969   -1.0575  -21.7689 N   0  0  0  0  0  0  0  0  0  0  0  0
   20.0619   -4.4116  -15.7591 C   0  0  0  0  0  0  0  0  0  0  0  0
   20.3985   -3.2379  -15.0492 O   0  0  0  0  0  0  0  0  0  0  0  0
   18.9955   -4.9267  -15.4301 O   0  0  0  0  0  0  0  0  0  0  0  0
  2  1  1  1
  3  2  1  0
  4  2  1  0
  4  5  1  0
  5  6  1  6
  7  5  1  0
  7  8  2  0
  9  7  1  0
 10  9  1  0
 10 11  1  1
 11 12  1  0
 13 10  1  0
 14 13  2  0
 15 13  1  0
 16 17  1  6
 16 15  1  0
 17 18  1  0
 19 18  1  0
 20 21  1  0
 20 19  1  0
 22 16  1  0
 23 22  1  0
 24 22  2  0
M  END
$$$$
