LCK.pdb
     RDKit          3D

 24 23  0  0  1  0  0  0  0  0999 V2000
   23.6675  -17.8841  -18.5834 C   0  0  0  0  0  0  0  0  0  0  0  0
   23.8971  -16.6041  -19.3589 C   0  0  2  0  0  0  0  0  0  0  0  0
   25.1317  -16.8472  -20.2369 C   0  0  0  0  0  0  0  0  0  0  0  0
   24.2973  -15.5351  -18.3660 C   0  0  0  0  0  0  0  0  0  0  0  0
   24.0397  -14.1456  -18.9014 C   0  0  2  0  0  0  0  0  0  0  0  0
   25.0620  -13.7934  -19.8342 N   0  0  0  0  0  0  0  0  0  0  0  0
   24.0472  -13.2328  -17.7015 C   0  0  0  0  0  0  0  0  0  0  0  0
   23.2355  -13.4414  -16.7592 O   0  0  0  0  0  0  0  0  0  0  0  0
   24.9533  -12.1524  -17.6293 N   0  0  0  0  0  0  0  0  0  0  0  0
   24.8030  -11.1943  -16.5371 C   0  0  1  0  0  0  0  0  0  0  0  0
   26.1965  -10.7028  -16.2090 C   0  0  0  0  0  0  0  0  0  0  0  0
   26.2182   -9.2782  -15.1162 S   0  0  0  0  0  0  0  0  0  0  0  0
   23.9573  -10.0627  -16.9529 C   0  0  0  0  0  0  0  0  0  0  0  0
   24.1934   -9.5533  -18.1012 O   0  0  0  0  0  0  0  0  0  0  0  0
   22.9096   -9.4775  -16.2243 N   0  0  0  0  0  0  0  0  0  0  0  0
   22.1622   -8.2746  -16.7639 C   0  0  1  0  0  0  0  0  0  0  0  0
   20.7303   -8.6629  -16.7434 C   0  0  0  0  0  0  0  0  0  0  0  0
   19.6408   -7.7524  -17.0301 C   0  0  0  0  0  0  0  0  0  0  0  0
   18.2292   -8.1586  -17.0645 C   0  0  0  0  0  0  0  0  0  0  0  0
   17.3639   -6.9499  -17.5343 C   0  0  0  0  0  0  0  0  0  0  0  0
   15.9798   -7.3086  -17.5924 N   0  0  0  0  0  0  0  0  0  0  0  0
   22.4446   -7.2408  -15.7451 C   0  0  0  0  0  0  0  0  0  0  0  0
   22.9365   -7.6316  -14.4801 O   0  0  0  0  0  0  0  0  0  0  0  0
   22.2896   -6.0298  -15.8877 O   0  0  0  0  0  0  0  0  0  0  0  0
  2  1  1  1
  3  2  1  0
  4  2  1  0
  4  5  1  0
  5  6  1  6
  7  5  1  0
  7  8  2  0
  9  7  1  0
 10  9  1  0
 10 11  1  6
 11 12  1  0
 13 10  1  0
 14 13  2  0
 15 13  1  0
 16 17  1  1
 16 15  1  0
 17 18  1  0
 19 18  1  0
 20 21  1  0
 20 19  1  0
 22 16  1  0
 23 22  1  0
 24 22  2  0
M  END
$$$$
