LCK.pdb
     RDKit          3D

 24 23  0  0  1  0  0  0  0  0999 V2000
   18.7965  -24.5145  -14.8115 C   0  0  0  0  0  0  0  0  0  0  0  0
   19.8587  -23.8097  -13.9944 C   0  0  2  0  0  0  0  0  0  0  0  0
   21.1945  -24.0785  -14.6998 C   0  0  0  0  0  0  0  0  0  0  0  0
   19.9461  -24.5123  -12.6574 C   0  0  0  0  0  0  0  0  0  0  0  0
   18.6607  -24.3892  -11.8723 C   0  0  2  0  0  0  0  0  0  0  0  0
   18.3742  -23.0107  -11.6336 N   0  0  0  0  0  0  0  0  0  0  0  0
   18.8904  -25.1379  -10.5840 C   0  0  0  0  0  0  0  0  0  0  0  0
   19.4080  -26.2872  -10.6191 O   0  0  0  0  0  0  0  0  0  0  0  0
   18.5305  -24.5609   -9.3466 N   0  0  0  0  0  0  0  0  0  0  0  0
   18.7286  -25.3475   -8.1320 C   0  0  1  0  0  0  0  0  0  0  0  0
   18.8945  -24.3520   -7.0040 C   0  0  0  0  0  0  0  0  0  0  0  0
   18.9541  -25.1108   -5.3777 S   0  0  0  0  0  0  0  0  0  0  0  0
   17.5607  -26.2068   -7.8746 C   0  0  0  0  0  0  0  0  0  0  0  0
   16.4098  -25.7141   -8.1329 O   0  0  0  0  0  0  0  0  0  0  0  0
   17.5698  -27.5191   -7.3758 N   0  0  0  0  0  0  0  0  0  0  0  0
   16.2758  -28.2395   -7.0544 C   0  0  1  0  0  0  0  0  0  0  0  0
   16.6632  -29.6523   -6.8192 C   0  0  0  0  0  0  0  0  0  0  0  0
   15.7248  -30.7037   -6.4844 C   0  0  0  0  0  0  0  0  0  0  0  0
   16.1226  -32.0904   -6.2056 C   0  0  0  0  0  0  0  0  0  0  0  0
   14.8548  -32.9178   -5.8338 C   0  0  0  0  0  0  0  0  0  0  0  0
   15.2004  -34.2779   -5.5536 N   0  0  0  0  0  0  0  0  0  0  0  0
   15.8541  -27.5899   -5.7947 C   0  0  0  0  0  0  0  0  0  0  0  0
   16.8217  -27.3002   -4.8075 O   0  0  0  0  0  0  0  0  0  0  0  0
   14.7053  -27.2635   -5.5039 O   0  0  0  0  0  0  0  0  0  0  0  0
  2  1  1  6
  3  2  1  0
  4  2  1  0
  4  5  1  0
  5  6  1  1
  7  5  1  0
  7  8  2  0
  9  7  1  0
 10  9  1  0
 10 11  1  1
 11 12  1  0
 13 10  1  0
 14 13  2  0
 15 13  1  0
 16 17  1  1
 16 15  1  0
 17 18  1  0
 19 18  1  0
 20 21  1  0
 20 19  1  0
 22 16  1  0
 23 22  1  0
 24 22  2  0
M  END
$$$$
