AQK.pdb
     RDKit          3D

 24 23  0  0  1  0  0  0  0  0999 V2000
   27.4887  -18.9295  -15.6823 C   0  0  0  0  0  0  0  0  0  0  0  0
   27.8433  -20.2025  -14.9395 C   0  0  2  0  0  0  0  0  0  0  0  0
   28.4165  -21.1954  -15.8059 N   0  0  0  0  0  0  0  0  0  0  0  0
   26.6225  -20.6796  -14.2536 C   0  0  0  0  0  0  0  0  0  0  0  0
   25.7904  -21.3323  -14.9344 O   0  0  0  0  0  0  0  0  0  0  0  0
   25.4078  -20.4740   -8.0621 N   0  0  0  0  0  0  0  0  0  0  0  0
   26.6382  -20.6937   -8.7481 C   0  0  0  0  0  0  0  0  0  0  0  0
   27.6824  -20.7043   -8.0499 O   0  0  0  0  0  0  0  0  0  0  0  0
   26.6694  -20.8989  -10.2186 C   0  0  0  0  0  0  0  0  0  0  0  0
   25.2444  -20.8242  -10.7219 C   0  0  0  0  0  0  0  0  0  0  0  0
   25.1705  -21.0065  -12.2236 C   0  0  2  0  0  0  0  0  0  0  0  0
   26.3292  -20.4521  -12.8898 N   0  0  0  0  0  0  0  0  0  0  0  0
   23.9112  -20.3861  -12.6942 C   0  0  0  0  0  0  0  0  0  0  0  0
   23.9727  -19.1966  -13.0990 O   0  0  0  0  0  0  0  0  0  0  0  0
   22.6623  -21.0288  -12.7197 N   0  0  0  0  0  0  0  0  0  0  0  0
   21.4671  -20.4037  -13.2493 C   0  0  1  0  0  0  0  0  0  0  0  0
   21.1576  -20.8618  -14.6498 C   0  0  0  0  0  0  0  0  0  0  0  0
   19.9512  -20.1863  -15.2406 C   0  0  0  0  0  0  0  0  0  0  0  0
   19.7444  -20.8014  -16.6270 C   0  0  0  0  0  0  0  0  0  0  0  0
   18.5881  -20.1498  -17.3411 C   0  0  0  0  0  0  0  0  0  0  0  0
   18.4763  -20.6674  -18.6704 N   0  0  0  0  0  0  0  0  0  0  0  0
   20.3295  -20.8182  -12.3880 C   0  0  0  0  0  0  0  0  0  0  0  0
   19.2680  -19.9590  -12.1059 O   0  0  0  0  0  0  0  0  0  0  0  0
   20.2794  -21.9659  -11.8771 O   0  0  0  0  0  0  0  0  0  0  0  0
  2  3  1  0
  2  1  1  6
  4  2  1  0
  5  4  2  0
  7  6  1  0
  7  9  1  0
  8  7  2  0
 10  9  1  0
 11 10  1  1
 11 12  1  0
 12  4  1  0
 13 11  1  0
 13 15  1  0
 14 13  2  0
 16 17  1  6
 16 15  1  0
 16 22  1  0
 18 17  1  0
 19 18  1  0
 20 19  1  0
 20 21  1  0
 22 23  1  0
 24 22  2  0
M  END
$$$$
