AQK.pdb
     RDKit          3D

 24 23  0  0  1  0  0  0  0  0999 V2000
   27.4911  -19.6112  -16.4524 C   0  0  0  0  0  0  0  0  0  0  0  0
   27.9447  -20.7525  -15.5638 C   0  0  2  0  0  0  0  0  0  0  0  0
   28.3652  -21.8980  -16.3227 N   0  0  0  0  0  0  0  0  0  0  0  0
   26.8415  -21.0613  -14.6279 C   0  0  0  0  0  0  0  0  0  0  0  0
   25.8749  -21.7338  -15.0700 O   0  0  0  0  0  0  0  0  0  0  0  0
   26.5583  -19.9318   -8.3867 N   0  0  0  0  0  0  0  0  0  0  0  0
   25.4462  -20.7971   -8.6038 C   0  0  0  0  0  0  0  0  0  0  0  0
   24.8692  -21.2458   -7.5822 O   0  0  0  0  0  0  0  0  0  0  0  0
   25.0015  -21.1432   -9.9779 C   0  0  0  0  0  0  0  0  0  0  0  0
   26.0465  -20.6249  -10.9417 C   0  0  0  0  0  0  0  0  0  0  0  0
   25.7249  -21.0024  -12.3727 C   0  0  2  0  0  0  0  0  0  0  0  0
   26.8006  -20.6532  -13.2753 N   0  0  0  0  0  0  0  0  0  0  0  0
   24.4541  -20.3385  -12.7421 C   0  0  0  0  0  0  0  0  0  0  0  0
   24.5271  -19.1633  -13.1850 O   0  0  0  0  0  0  0  0  0  0  0  0
   23.1825  -20.9255  -12.6331 N   0  0  0  0  0  0  0  0  0  0  0  0
   22.0461  -20.4916  -13.4207 C   0  0  1  0  0  0  0  0  0  0  0  0
   22.1468  -20.9328  -14.8567 C   0  0  0  0  0  0  0  0  0  0  0  0
   20.9804  -20.4890  -15.6954 C   0  0  0  0  0  0  0  0  0  0  0  0
   21.2452  -21.0015  -17.1134 C   0  0  0  0  0  0  0  0  0  0  0  0
   22.0786  -20.0200  -17.8967 C   0  0  0  0  0  0  0  0  0  0  0  0
   22.3425  -20.5337  -19.2058 N   0  0  0  0  0  0  0  0  0  0  0  0
   20.8355  -21.1332  -12.8457 C   0  0  0  0  0  0  0  0  0  0  0  0
   20.9034  -22.3327  -12.1379 O   0  0  0  0  0  0  0  0  0  0  0  0
   19.6966  -20.6168  -12.9758 O   0  0  0  0  0  0  0  0  0  0  0  0
  2  3  1  0
  2  1  1  6
  4  2  1  0
  5  4  2  0
  7  6  1  0
  7  9  1  0
  8  7  2  0
 10  9  1  0
 11 10  1  1
 11 12  1  0
 12  4  1  0
 13 11  1  0
 13 15  1  0
 14 13  2  0
 16 17  1  6
 16 15  1  0
 16 22  1  0
 18 17  1  0
 19 18  1  0
 20 19  1  0
 20 21  1  0
 22 23  1  0
 24 22  2  0
M  END
$$$$
