AQK.pdb
     RDKit          3D

 24 23  0  0  1  0  0  0  0  0999 V2000
   21.6268  -14.2344  -19.2221 C   0  0  0  0  0  0  0  0  0  0  0  0
   22.3171  -13.4344  -18.1351 C   0  0  2  0  0  0  0  0  0  0  0  0
   22.4228  -14.1685  -16.9042 N   0  0  0  0  0  0  0  0  0  0  0  0
   21.5832  -12.1596  -17.9782 C   0  0  0  0  0  0  0  0  0  0  0  0
   21.4382  -11.4423  -19.0012 O   0  0  0  0  0  0  0  0  0  0  0  0
   16.7358  -11.1881  -14.4328 N   0  0  0  0  0  0  0  0  0  0  0  0
   16.7168  -11.6006  -15.7974 C   0  0  0  0  0  0  0  0  0  0  0  0
   15.6490  -12.1090  -16.2210 O   0  0  0  0  0  0  0  0  0  0  0  0
   17.9097  -11.4315  -16.6656 C   0  0  0  0  0  0  0  0  0  0  0  0
   18.9735  -10.7291  -15.8505 C   0  0  0  0  0  0  0  0  0  0  0  0
   20.2338  -10.4951  -16.6574 C   0  0  2  0  0  0  0  0  0  0  0  0
   21.0361  -11.6948  -16.7607 N   0  0  0  0  0  0  0  0  0  0  0  0
   20.9783   -9.3835  -16.0231 C   0  0  0  0  0  0  0  0  0  0  0  0
   21.7167   -9.6701  -15.0457 O   0  0  0  0  0  0  0  0  0  0  0  0
   20.9176   -8.0416  -16.4340 N   0  0  0  0  0  0  0  0  0  0  0  0
   21.6986   -6.9923  -15.8104 C   0  0  1  0  0  0  0  0  0  0  0  0
   21.4882   -5.6561  -16.4717 C   0  0  0  0  0  0  0  0  0  0  0  0
   22.1784   -4.5271  -15.7577 C   0  0  0  0  0  0  0  0  0  0  0  0
   21.8477   -3.2527  -16.5387 C   0  0  0  0  0  0  0  0  0  0  0  0
   22.5063   -2.0493  -15.9146 C   0  0  0  0  0  0  0  0  0  0  0  0
   22.2437   -0.8823  -16.6998 N   0  0  0  0  0  0  0  0  0  0  0  0
   21.2333   -6.8672  -14.4048 C   0  0  0  0  0  0  0  0  0  0  0  0
   19.8815   -6.9287  -14.0682 O   0  0  0  0  0  0  0  0  0  0  0  0
   22.0448   -6.7000  -13.4591 O   0  0  0  0  0  0  0  0  0  0  0  0
  2  3  1  0
  2  1  1  6
  4  2  1  0
  5  4  2  0
  7  6  1  0
  7  9  1  0
  8  7  2  0
 10  9  1  0
 11 10  1  1
 11 12  1  0
 12  4  1  0
 13 11  1  0
 13 15  1  0
 14 13  2  0
 16 17  1  6
 16 15  1  0
 16 22  1  0
 18 17  1  0
 19 18  1  0
 20 19  1  0
 20 21  1  0
 22 23  1  0
 24 22  2  0
M  END
$$$$
