AQK.pdb
     RDKit          3D

 24 23  0  0  1  0  0  0  0  0999 V2000
   16.7478  -14.1358  -18.8414 C   0  0  0  0  0  0  0  0  0  0  0  0
   17.5476  -13.7443  -17.6145 C   0  0  2  0  0  0  0  0  0  0  0  0
   17.0179  -14.3264  -16.4121 N   0  0  0  0  0  0  0  0  0  0  0  0
   17.5961  -12.2668  -17.5602 C   0  0  0  0  0  0  0  0  0  0  0  0
   18.1308  -11.6666  -18.5276 O   0  0  0  0  0  0  0  0  0  0  0  0
   13.9409   -8.3782  -14.3069 N   0  0  0  0  0  0  0  0  0  0  0  0
   14.7955   -7.4620  -14.9873 C   0  0  0  0  0  0  0  0  0  0  0  0
   14.5098   -6.2425  -14.8915 O   0  0  0  0  0  0  0  0  0  0  0  0
   15.9644   -7.9402  -15.7685 C   0  0  0  0  0  0  0  0  0  0  0  0
   15.9803   -9.4513  -15.6904 C   0  0  0  0  0  0  0  0  0  0  0  0
   17.1294  -10.0409  -16.4816 C   0  0  2  0  0  0  0  0  0  0  0  0
   17.0839  -11.4871  -16.4984 N   0  0  0  0  0  0  0  0  0  0  0  0
   18.3909   -9.5330  -15.8959 C   0  0  0  0  0  0  0  0  0  0  0  0
   18.7650  -10.0414  -14.8077 O   0  0  0  0  0  0  0  0  0  0  0  0
   19.1924   -8.5304  -16.4667 N   0  0  0  0  0  0  0  0  0  0  0  0
   20.4958   -8.1732  -15.9439 C   0  0  1  0  0  0  0  0  0  0  0  0
   21.5334   -8.0605  -17.0292 C   0  0  0  0  0  0  0  0  0  0  0  0
   22.8756   -7.6125  -16.5207 C   0  0  0  0  0  0  0  0  0  0  0  0
   23.7848   -7.4885  -17.7459 C   0  0  0  0  0  0  0  0  0  0  0  0
   25.1682   -7.0402  -17.3499 C   0  0  0  0  0  0  0  0  0  0  0  0
   26.0368   -7.0628  -18.4868 N   0  0  0  0  0  0  0  0  0  0  0  0
   20.3701   -6.8339  -15.3129 C   0  0  0  0  0  0  0  0  0  0  0  0
   21.1971   -6.4332  -14.2641 O   0  0  0  0  0  0  0  0  0  0  0  0
   19.5084   -6.0052  -15.7021 O   0  0  0  0  0  0  0  0  0  0  0  0
  2  3  1  0
  2  1  1  6
  4  2  1  0
  5  4  2  0
  7  6  1  0
  7  9  1  0
  8  7  2  0
 10  9  1  0
 11 10  1  1
 11 12  1  0
 12  4  1  0
 13 11  1  0
 13 15  1  0
 14 13  2  0
 16 17  1  6
 16 15  1  0
 16 22  1  0
 18 17  1  0
 19 18  1  0
 20 19  1  0
 20 21  1  0
 22 23  1  0
 24 22  2  0
M  END
$$$$
