AQK.pdb
     RDKit          3D

 24 23  0  0  1  0  0  0  0  0999 V2000
   25.6997  -21.3462  -10.8921 C   0  0  0  0  0  0  0  0  0  0  0  0
   24.9699  -21.8697  -12.1133 C   0  0  2  0  0  0  0  0  0  0  0  0
   25.5893  -23.0491  -12.6523 N   0  0  0  0  0  0  0  0  0  0  0  0
   24.8881  -20.7677  -13.0967 C   0  0  0  0  0  0  0  0  0  0  0  0
   25.9688  -20.2620  -13.4948 O   0  0  0  0  0  0  0  0  0  0  0  0
   25.6605  -17.9361  -17.7421 N   0  0  0  0  0  0  0  0  0  0  0  0
   25.3416  -19.3230  -17.6559 C   0  0  0  0  0  0  0  0  0  0  0  0
   26.2847  -20.1336  -17.8337 O   0  0  0  0  0  0  0  0  0  0  0  0
   23.9561  -19.7742  -17.3689 C   0  0  0  0  0  0  0  0  0  0  0  0
   23.9757  -20.4964  -16.0394 C   0  0  0  0  0  0  0  0  0  0  0  0
   23.5927  -19.5781  -14.8975 C   0  0  2  0  0  0  0  0  0  0  0  0
   23.6818  -20.2466  -13.6173 N   0  0  0  0  0  0  0  0  0  0  0  0
   22.2278  -19.0694  -15.1632 C   0  0  0  0  0  0  0  0  0  0  0  0
   21.2988  -19.9161  -15.2152 O   0  0  0  0  0  0  0  0  0  0  0  0
   21.9011  -17.7174  -15.3597 N   0  0  0  0  0  0  0  0  0  0  0  0
   20.5349  -17.2461  -15.4656 C   0  0  1  0  0  0  0  0  0  0  0  0
   20.4620  -15.7962  -15.8652 C   0  0  0  0  0  0  0  0  0  0  0  0
   19.0547  -15.2712  -15.9337 C   0  0  0  0  0  0  0  0  0  0  0  0
   19.1618  -13.7875  -16.2949 C   0  0  0  0  0  0  0  0  0  0  0  0
   17.8133  -13.1172  -16.2348 C   0  0  0  0  0  0  0  0  0  0  0  0
   17.9554  -11.7075  -16.4349 N   0  0  0  0  0  0  0  0  0  0  0  0
   19.8748  -18.0334  -16.5391 C   0  0  0  0  0  0  0  0  0  0  0  0
   20.5901  -18.5526  -17.6176 O   0  0  0  0  0  0  0  0  0  0  0  0
   18.6389  -18.2631  -16.5168 O   0  0  0  0  0  0  0  0  0  0  0  0
  2  3  1  0
  2  1  1  1
  4  2  1  0
  5  4  2  0
  7  6  1  0
  7  9  1  0
  8  7  2  0
 10  9  1  0
 11 10  1  6
 11 12  1  0
 12  4  1  0
 13 11  1  0
 13 15  1  0
 14 13  2  0
 16 17  1  6
 16 15  1  0
 16 22  1  0
 18 17  1  0
 19 18  1  0
 20 19  1  0
 20 21  1  0
 22 23  1  0
 24 22  2  0
M  END
$$$$
