AQK.pdb
     RDKit          3D

 24 23  0  0  1  0  0  0  0  0999 V2000
   23.3612  -18.1684  -19.0110 C   0  0  0  0  0  0  0  0  0  0  0  0
   23.3720  -17.8401  -17.5311 C   0  0  2  0  0  0  0  0  0  0  0  0
   23.2694  -16.4276  -17.2872 N   0  0  0  0  0  0  0  0  0  0  0  0
   24.5946  -18.4331  -16.9464 C   0  0  0  0  0  0  0  0  0  0  0  0
   25.6723  -17.7998  -17.0862 O   0  0  0  0  0  0  0  0  0  0  0  0
   24.9191  -22.5296  -12.3147 N   0  0  0  0  0  0  0  0  0  0  0  0
   24.6873  -21.1265  -12.2133 C   0  0  0  0  0  0  0  0  0  0  0  0
   24.2135  -20.7072  -11.1281 O   0  0  0  0  0  0  0  0  0  0  0  0
   24.9959  -20.2152  -13.3447 C   0  0  0  0  0  0  0  0  0  0  0  0
   25.5794  -21.0530  -14.4615 C   0  0  0  0  0  0  0  0  0  0  0  0
   25.8491  -20.2248  -15.7006 C   0  0  2  0  0  0  0  0  0  0  0  0
   24.6332  -19.6589  -16.2438 N   0  0  0  0  0  0  0  0  0  0  0  0
   26.5442  -21.0893  -16.6812 C   0  0  0  0  0  0  0  0  0  0  0  0
   25.8265  -21.7959  -17.4350 O   0  0  0  0  0  0  0  0  0  0  0  0
   27.9388  -21.1744  -16.8270 N   0  0  0  0  0  0  0  0  0  0  0  0
   28.5748  -21.9870  -17.8444 C   0  0  1  0  0  0  0  0  0  0  0  0
   29.9999  -21.5713  -18.0967 C   0  0  0  0  0  0  0  0  0  0  0  0
   30.6638  -22.3654  -19.1873 C   0  0  0  0  0  0  0  0  0  0  0  0
   32.0950  -21.8343  -19.3013 C   0  0  0  0  0  0  0  0  0  0  0  0
   32.8418  -22.5259  -20.4128 C   0  0  0  0  0  0  0  0  0  0  0  0
   34.1944  -22.0613  -20.4600 N   0  0  0  0  0  0  0  0  0  0  0  0
   28.6052  -23.3851  -17.3423 C   0  0  0  0  0  0  0  0  0  0  0  0
   28.5546  -24.4790  -18.2056 O   0  0  0  0  0  0  0  0  0  0  0  0
   28.6782  -23.6376  -16.1129 O   0  0  0  0  0  0  0  0  0  0  0  0
  2  3  1  0
  2  1  1  6
  4  2  1  0
  5  4  2  0
  7  6  1  0
  7  9  1  0
  8  7  2  0
 10  9  1  0
 11 10  1  1
 11 12  1  0
 12  4  1  0
 13 11  1  0
 13 15  1  0
 14 13  2  0
 16 17  1  1
 16 15  1  0
 16 22  1  0
 18 17  1  0
 19 18  1  0
 20 19  1  0
 20 21  1  0
 22 23  1  0
 24 22  2  0
M  END
$$$$
