AQK.pdb
     RDKit          3D

 24 23  0  0  1  0  0  0  0  0999 V2000
   19.0136   -9.0699  -12.4574 C   0  0  0  0  0  0  0  0  0  0  0  0
   17.9277   -9.8978  -11.7990 C   0  0  2  0  0  0  0  0  0  0  0  0
   17.3971  -10.8993  -12.6825 N   0  0  0  0  0  0  0  0  0  0  0  0
   16.8904   -8.9677  -11.3017 C   0  0  0  0  0  0  0  0  0  0  0  0
   16.0667   -8.5146  -12.1373 O   0  0  0  0  0  0  0  0  0  0  0  0
   12.8785   -8.8197   -8.5188 N   0  0  0  0  0  0  0  0  0  0  0  0
   12.9658   -7.5415   -7.8932 C   0  0  0  0  0  0  0  0  0  0  0  0
   11.8815   -6.9753   -7.6072 O   0  0  0  0  0  0  0  0  0  0  0  0
   14.2825   -6.9206   -7.5995 C   0  0  0  0  0  0  0  0  0  0  0  0
   15.3556   -7.8810   -8.0638 C   0  0  0  0  0  0  0  0  0  0  0  0
   15.7524   -7.6243   -9.5028 C   0  0  2  0  0  0  0  0  0  0  0  0
   16.7631   -8.5555   -9.9557 N   0  0  0  0  0  0  0  0  0  0  0  0
   16.2084   -6.2192   -9.6035 C   0  0  0  0  0  0  0  0  0  0  0  0
   17.2578   -5.9097   -8.9826 O   0  0  0  0  0  0  0  0  0  0  0  0
   15.5555   -5.2159  -10.3386 N   0  0  0  0  0  0  0  0  0  0  0  0
   16.0381   -3.8513  -10.4071 C   0  0  1  0  0  0  0  0  0  0  0  0
   15.6097   -3.1587  -11.6736 C   0  0  0  0  0  0  0  0  0  0  0  0
   16.0322   -1.7168  -11.7316 C   0  0  0  0  0  0  0  0  0  0  0  0
   15.6280   -1.2012  -13.1151 C   0  0  0  0  0  0  0  0  0  0  0  0
   16.0796    0.2226  -13.3152 C   0  0  0  0  0  0  0  0  0  0  0  0
   15.6732    0.6910  -14.6047 N   0  0  0  0  0  0  0  0  0  0  0  0
   15.4334   -3.1081   -9.2714 C   0  0  0  0  0  0  0  0  0  0  0  0
   16.0840   -2.0348   -8.6638 O   0  0  0  0  0  0  0  0  0  0  0  0
   14.3055   -3.4197   -8.8116 O   0  0  0  0  0  0  0  0  0  0  0  0
  2  3  1  0
  2  1  1  6
  4  2  1  0
  5  4  2  0
  7  6  1  0
  7  9  1  0
  8  7  2  0
 10  9  1  0
 11 10  1  1
 11 12  1  0
 12  4  1  0
 13 11  1  0
 13 15  1  0
 14 13  2  0
 16 17  1  6
 16 15  1  0
 16 22  1  0
 18 17  1  0
 19 18  1  0
 20 19  1  0
 20 21  1  0
 22 23  1  0
 24 22  2  0
M  END
$$$$
