AQK.pdb
     RDKit          3D

 24 23  0  0  1  0  0  0  0  0999 V2000
   21.7414  -12.6566  -19.6363 C   0  0  0  0  0  0  0  0  0  0  0  0
   22.5367  -11.9707  -18.5432 C   0  0  2  0  0  0  0  0  0  0  0  0
   22.7316  -12.8186  -17.3994 N   0  0  0  0  0  0  0  0  0  0  0  0
   21.8439  -10.7078  -18.2061 C   0  0  0  0  0  0  0  0  0  0  0  0
   21.7512   -9.8365  -19.1085 O   0  0  0  0  0  0  0  0  0  0  0  0
   17.3822   -9.7609  -13.9644 N   0  0  0  0  0  0  0  0  0  0  0  0
   17.4160   -8.5200  -14.6657 C   0  0  0  0  0  0  0  0  0  0  0  0
   16.4555   -7.7337  -14.4730 O   0  0  0  0  0  0  0  0  0  0  0  0
   18.5394   -8.1857  -15.5777 C   0  0  0  0  0  0  0  0  0  0  0  0
   19.3808   -9.4323  -15.7441 C   0  0  0  0  0  0  0  0  0  0  0  0
   20.5650   -9.1910  -16.6570 C   0  0  2  0  0  0  0  0  0  0  0  0
   21.2812  -10.4154  -16.9429 N   0  0  0  0  0  0  0  0  0  0  0  0
   21.4333   -8.1781  -16.0149 C   0  0  0  0  0  0  0  0  0  0  0  0
   22.1971   -8.5744  -15.0972 O   0  0  0  0  0  0  0  0  0  0  0  0
   21.4631   -6.8160  -16.3570 N   0  0  0  0  0  0  0  0  0  0  0  0
   22.4443   -5.8926  -15.8236 C   0  0  1  0  0  0  0  0  0  0  0  0
   22.4867   -4.5993  -16.5934 C   0  0  0  0  0  0  0  0  0  0  0  0
   23.5306   -3.6430  -16.0868 C   0  0  0  0  0  0  0  0  0  0  0  0
   23.4772   -2.4171  -17.0020 C   0  0  0  0  0  0  0  0  0  0  0  0
   24.5897   -1.4526  -16.6801 C   0  0  0  0  0  0  0  0  0  0  0  0
   24.6130   -0.3909  -17.6391 N   0  0  0  0  0  0  0  0  0  0  0  0
   22.0369   -5.5652  -14.4327 C   0  0  0  0  0  0  0  0  0  0  0  0
   22.9721   -5.3880  -13.4136 O   0  0  0  0  0  0  0  0  0  0  0  0
   20.8265   -5.4343  -14.1187 O   0  0  0  0  0  0  0  0  0  0  0  0
  2  3  1  0
  2  1  1  6
  4  2  1  0
  5  4  2  0
  7  6  1  0
  7  9  1  0
  8  7  2  0
 10  9  1  0
 11 10  1  1
 11 12  1  0
 12  4  1  0
 13 11  1  0
 13 15  1  0
 14 13  2  0
 16 17  1  6
 16 15  1  0
 16 22  1  0
 18 17  1  0
 19 18  1  0
 20 19  1  0
 20 21  1  0
 22 23  1  0
 24 22  2  0
M  END
$$$$
