AQK.pdb
     RDKit          3D

 24 23  0  0  1  0  0  0  0  0999 V2000
   18.0599  -11.0450  -17.3677 C   0  0  0  0  0  0  0  0  0  0  0  0
   19.1392  -11.9069  -16.7429 C   0  0  2  0  0  0  0  0  0  0  0  0
   18.5988  -12.8824  -15.8365 N   0  0  0  0  0  0  0  0  0  0  0  0
   20.1173  -11.0058  -16.0951 C   0  0  0  0  0  0  0  0  0  0  0  0
   19.7601  -10.4222  -15.0397 O   0  0  0  0  0  0  0  0  0  0  0  0
   26.3158  -11.3273  -16.7219 N   0  0  0  0  0  0  0  0  0  0  0  0
   26.1659  -10.4968  -15.5728 C   0  0  0  0  0  0  0  0  0  0  0  0
   27.2000  -10.2750  -14.8950 O   0  0  0  0  0  0  0  0  0  0  0  0
   24.8442   -9.9275  -15.2060 C   0  0  0  0  0  0  0  0  0  0  0  0
   23.8246  -10.4701  -16.1836 C   0  0  0  0  0  0  0  0  0  0  0  0
   22.4202  -10.0239  -15.8333 C   0  0  2  0  0  0  0  0  0  0  0  0
   21.4214  -10.7575  -16.5803 N   0  0  0  0  0  0  0  0  0  0  0  0
   22.3340   -8.5660  -16.0764 C   0  0  0  0  0  0  0  0  0  0  0  0
   22.4263   -8.1755  -17.2687 O   0  0  0  0  0  0  0  0  0  0  0  0
   22.1575   -7.5962  -15.0755 N   0  0  0  0  0  0  0  0  0  0  0  0
   21.9974   -6.1857  -15.3670 C   0  0  1  0  0  0  0  0  0  0  0  0
   20.5555   -5.7545  -15.3194 C   0  0  0  0  0  0  0  0  0  0  0  0
   19.8112   -6.0355  -16.5952 C   0  0  0  0  0  0  0  0  0  0  0  0
   18.3635   -5.5979  -16.3588 C   0  0  0  0  0  0  0  0  0  0  0  0
   17.5023   -5.9070  -17.5564 C   0  0  0  0  0  0  0  0  0  0  0  0
   16.1444   -5.5407  -17.2935 N   0  0  0  0  0  0  0  0  0  0  0  0
   22.7194   -5.4288  -14.3117 C   0  0  0  0  0  0  0  0  0  0  0  0
   22.8859   -4.0461  -14.3804 O   0  0  0  0  0  0  0  0  0  0  0  0
   23.2110   -6.0087  -13.3104 O   0  0  0  0  0  0  0  0  0  0  0  0
  2  3  1  0
  2  1  1  1
  4  2  1  0
  5  4  2  0
  7  6  1  0
  7  9  1  0
  8  7  2  0
 10  9  1  0
 11 10  1  6
 11 12  1  0
 12  4  1  0
 13 11  1  0
 13 15  1  0
 14 13  2  0
 16 17  1  1
 16 15  1  0
 16 22  1  0
 18 17  1  0
 19 18  1  0
 20 19  1  0
 20 21  1  0
 22 23  1  0
 24 22  2  0
M  END
$$$$
