AQK.pdb
     RDKit          3D

 24 23  0  0  1  0  0  0  0  0999 V2000
   22.5267  -38.3877   -9.7838 C   0  0  0  0  0  0  0  0  0  0  0  0
   23.4463  -37.3534  -10.4022 C   0  0  2  0  0  0  0  0  0  0  0  0
   23.9334  -37.7609  -11.6913 N   0  0  0  0  0  0  0  0  0  0  0  0
   24.5364  -37.0854   -9.4387 C   0  0  0  0  0  0  0  0  0  0  0  0
   25.4938  -37.9003   -9.4023 O   0  0  0  0  0  0  0  0  0  0  0  0
   25.5241  -31.2954   -8.7437 N   0  0  0  0  0  0  0  0  0  0  0  0
   25.2784  -31.9306   -7.4911 C   0  0  0  0  0  0  0  0  0  0  0  0
   25.4483  -31.2342   -6.4595 O   0  0  0  0  0  0  0  0  0  0  0  0
   24.8428  -33.3488   -7.4237 C   0  0  0  0  0  0  0  0  0  0  0  0
   26.0506  -34.2131   -7.7131 C   0  0  0  0  0  0  0  0  0  0  0  0
   25.7008  -35.6867   -7.6998 C   0  0  2  0  0  0  0  0  0  0  0  0
   24.5743  -35.9793   -8.5596 N   0  0  0  0  0  0  0  0  0  0  0  0
   25.4427  -36.0787   -6.2955 C   0  0  0  0  0  0  0  0  0  0  0  0
   24.2907  -36.5021   -6.0195 O   0  0  0  0  0  0  0  0  0  0  0  0
   26.3877  -36.0111   -5.2584 N   0  0  0  0  0  0  0  0  0  0  0  0
   26.1136  -36.4757   -3.9134 C   0  0  1  0  0  0  0  0  0  0  0  0
   25.8321  -37.9541   -3.8679 C   0  0  0  0  0  0  0  0  0  0  0  0
   25.7224  -38.4929   -2.4685 C   0  0  0  0  0  0  0  0  0  0  0  0
   25.4140  -39.9864   -2.6011 C   0  0  0  0  0  0  0  0  0  0  0  0
   25.1710  -40.6108   -1.2511 C   0  0  0  0  0  0  0  0  0  0  0  0
   24.8309  -41.9924   -1.4021 N   0  0  0  0  0  0  0  0  0  0  0  0
   27.3345  -36.2337   -3.1018 C   0  0  0  0  0  0  0  0  0  0  0  0
   27.2707  -35.6877   -1.8203 O   0  0  0  0  0  0  0  0  0  0  0  0
   28.4787  -36.5134   -3.5413 O   0  0  0  0  0  0  0  0  0  0  0  0
  2  3  1  0
  2  1  1  1
  4  2  1  0
  5  4  2  0
  7  6  1  0
  7  9  1  0
  8  7  2  0
 10  9  1  0
 11 10  1  1
 11 12  1  0
 12  4  1  0
 13 11  1  0
 13 15  1  0
 14 13  2  0
 16 17  1  6
 16 15  1  0
 16 22  1  0
 18 17  1  0
 19 18  1  0
 20 19  1  0
 20 21  1  0
 22 23  1  0
 24 22  2  0
M  END
$$$$
