AQK.pdb
     RDKit          3D

 24 23  0  0  1  0  0  0  0  0999 V2000
   25.4565  -18.3307  -18.6844 C   0  0  0  0  0  0  0  0  0  0  0  0
   24.8013  -18.5081  -17.3290 C   0  0  2  0  0  0  0  0  0  0  0  0
   24.5473  -19.8894  -17.0248 N   0  0  0  0  0  0  0  0  0  0  0  0
   23.5727  -17.6843  -17.3106 C   0  0  0  0  0  0  0  0  0  0  0  0
   23.0499  -17.3948  -18.4174 O   0  0  0  0  0  0  0  0  0  0  0  0
   19.3513  -17.2907  -12.7694 N   0  0  0  0  0  0  0  0  0  0  0  0
   18.8336  -16.3299  -13.6868 C   0  0  0  0  0  0  0  0  0  0  0  0
   17.7405  -15.7895  -13.3848 O   0  0  0  0  0  0  0  0  0  0  0  0
   19.5623  -15.9934  -14.9363 C   0  0  0  0  0  0  0  0  0  0  0  0
   20.8288  -16.8209  -14.9649 C   0  0  0  0  0  0  0  0  0  0  0  0
   21.7061  -16.4613  -16.1460 C   0  0  2  0  0  0  0  0  0  0  0  0
   22.9489  -17.2023  -16.1374 N   0  0  0  0  0  0  0  0  0  0  0  0
   21.9329  -14.9985  -16.1135 C   0  0  0  0  0  0  0  0  0  0  0  0
   22.7298  -14.5596  -15.2446 O   0  0  0  0  0  0  0  0  0  0  0  0
   21.3246  -14.0743  -16.9789 N   0  0  0  0  0  0  0  0  0  0  0  0
   21.5542  -12.6461  -16.8912 C   0  0  1  0  0  0  0  0  0  0  0  0
   21.1099  -11.9205  -18.1335 C   0  0  0  0  0  0  0  0  0  0  0  0
   21.4170  -10.4490  -18.1012 C   0  0  0  0  0  0  0  0  0  0  0  0
   20.9179   -9.8720  -19.4283 C   0  0  0  0  0  0  0  0  0  0  0  0
   21.2806   -8.4147  -19.5553 C   0  0  0  0  0  0  0  0  0  0  0  0
   20.6283   -7.8428  -20.6932 N   0  0  0  0  0  0  0  0  0  0  0  0
   20.7348  -12.1324  -15.7632 C   0  0  0  0  0  0  0  0  0  0  0  0
   21.1741  -11.0891  -14.9490 O   0  0  0  0  0  0  0  0  0  0  0  0
   19.6072  -12.6211  -15.4975 O   0  0  0  0  0  0  0  0  0  0  0  0
  2  3  1  0
  2  1  1  6
  4  2  1  0
  5  4  2  0
  7  6  1  0
  7  9  1  0
  8  7  2  0
 10  9  1  0
 11 10  1  1
 11 12  1  0
 12  4  1  0
 13 11  1  0
 13 15  1  0
 14 13  2  0
 16 17  1  6
 16 15  1  0
 16 22  1  0
 18 17  1  0
 19 18  1  0
 20 19  1  0
 20 21  1  0
 22 23  1  0
 24 22  2  0
M  END
$$$$
