AQK.pdb
     RDKit          3D

 24 23  0  0  1  0  0  0  0  0999 V2000
   21.3534   -9.8049  -21.3956 C   0  0  0  0  0  0  0  0  0  0  0  0
   21.3129  -10.4061  -20.0046 C   0  0  2  0  0  0  0  0  0  0  0  0
   20.5874  -11.6461  -19.9695 N   0  0  0  0  0  0  0  0  0  0  0  0
   20.7497   -9.3891  -19.0898 C   0  0  0  0  0  0  0  0  0  0  0  0
   19.6740   -8.8330  -19.4298 O   0  0  0  0  0  0  0  0  0  0  0  0
   19.9987   -9.7857  -13.1766 N   0  0  0  0  0  0  0  0  0  0  0  0
   19.6179   -8.4218  -13.3430 C   0  0  0  0  0  0  0  0  0  0  0  0
   19.0295   -7.8758  -12.3767 O   0  0  0  0  0  0  0  0  0  0  0  0
   19.9091   -7.6934  -14.6039 C   0  0  0  0  0  0  0  0  0  0  0  0
   20.5160   -8.6827  -15.5747 C   0  0  0  0  0  0  0  0  0  0  0  0
   20.7167   -8.0709  -16.9457 C   0  0  2  0  0  0  0  0  0  0  0  0
   21.3368   -9.0016  -17.8638 N   0  0  0  0  0  0  0  0  0  0  0  0
   21.5203   -6.8385  -16.7789 C   0  0  0  0  0  0  0  0  0  0  0  0
   22.7631   -6.9770  -16.6413 O   0  0  0  0  0  0  0  0  0  0  0  0
   20.9951   -5.5358  -16.7638 N   0  0  0  0  0  0  0  0  0  0  0  0
   21.8260   -4.3545  -16.6451 C   0  0  1  0  0  0  0  0  0  0  0  0
   21.1802   -3.1401  -17.2580 C   0  0  0  0  0  0  0  0  0  0  0  0
   22.0375   -1.9077  -17.1734 C   0  0  0  0  0  0  0  0  0  0  0  0
   21.2910   -0.8067  -17.9309 C   0  0  0  0  0  0  0  0  0  0  0  0
   22.1096    0.4571  -17.9942 C   0  0  0  0  0  0  0  0  0  0  0  0
   21.4468    1.4325  -18.8046 N   0  0  0  0  0  0  0  0  0  0  0  0
   22.0005   -4.0773  -15.1958 C   0  0  0  0  0  0  0  0  0  0  0  0
   23.2391   -3.7328  -14.6557 O   0  0  0  0  0  0  0  0  0  0  0  0
   21.0330   -4.1430  -14.3956 O   0  0  0  0  0  0  0  0  0  0  0  0
  2  3  1  0
  2  1  1  6
  4  2  1  0
  5  4  2  0
  7  6  1  0
  7  9  1  0
  8  7  2  0
 10  9  1  0
 11 10  1  1
 11 12  1  0
 12  4  1  0
 13 11  1  0
 13 15  1  0
 14 13  2  0
 16 17  1  6
 16 15  1  0
 16 22  1  0
 18 17  1  0
 19 18  1  0
 20 19  1  0
 20 21  1  0
 22 23  1  0
 24 22  2  0
M  END
$$$$
