AQK.pdb
     RDKit          3D

 24 23  0  0  1  0  0  0  0  0999 V2000
   18.1829  -12.6966  -16.6138 C   0  0  0  0  0  0  0  0  0  0  0  0
   18.2507  -11.1915  -16.7816 C   0  0  2  0  0  0  0  0  0  0  0  0
   17.9531  -10.7807  -18.1262 N   0  0  0  0  0  0  0  0  0  0  0  0
   19.5881  -10.7472  -16.3318 C   0  0  0  0  0  0  0  0  0  0  0  0
   19.9087  -10.9840  -15.1388 O   0  0  0  0  0  0  0  0  0  0  0  0
   24.9079  -10.3044  -19.3817 N   0  0  0  0  0  0  0  0  0  0  0  0
   24.1195  -11.4286  -18.9977 C   0  0  0  0  0  0  0  0  0  0  0  0
   24.4413  -12.5401  -19.4865 O   0  0  0  0  0  0  0  0  0  0  0  0
   22.9748  -11.2784  -18.0635 C   0  0  0  0  0  0  0  0  0  0  0  0
   22.9163   -9.8268  -17.6405 C   0  0  0  0  0  0  0  0  0  0  0  0
   21.7914   -9.5747  -16.6581 C   0  0  2  0  0  0  0  0  0  0  0  0
   20.5265  -10.0771  -17.1492 N   0  0  0  0  0  0  0  0  0  0  0  0
   21.7426   -8.1196  -16.3884 C   0  0  0  0  0  0  0  0  0  0  0  0
   21.5079   -7.3617  -17.3647 O   0  0  0  0  0  0  0  0  0  0  0  0
   21.9388   -7.5316  -15.1278 N   0  0  0  0  0  0  0  0  0  0  0  0
   21.8250   -6.1052  -14.8994 C   0  0  1  0  0  0  0  0  0  0  0  0
   20.4503   -5.5842  -15.2251 C   0  0  0  0  0  0  0  0  0  0  0  0
   20.3250   -4.0959  -15.0516 C   0  0  0  0  0  0  0  0  0  0  0  0
   18.8889   -3.7331  -15.4379 C   0  0  0  0  0  0  0  0  0  0  0  0
   18.6748   -2.2421  -15.3861 C   0  0  0  0  0  0  0  0  0  0  0  0
   17.3579   -1.9181  -15.8424 N   0  0  0  0  0  0  0  0  0  0  0  0
   22.0554   -5.8670  -13.4509 C   0  0  0  0  0  0  0  0  0  0  0  0
   22.4851   -4.6319  -12.9669 O   0  0  0  0  0  0  0  0  0  0  0  0
   21.8709   -6.7747  -12.6008 O   0  0  0  0  0  0  0  0  0  0  0  0
  2  3  1  0
  2  1  1  6
  4  2  1  0
  5  4  2  0
  7  6  1  0
  7  9  1  0
  8  7  2  0
 10  9  1  0
 11 10  1  6
 11 12  1  0
 12  4  1  0
 13 11  1  0
 13 15  1  0
 14 13  2  0
 16 17  1  1
 16 15  1  0
 16 22  1  0
 18 17  1  0
 19 18  1  0
 20 19  1  0
 20 21  1  0
 22 23  1  0
 24 22  2  0
M  END
$$$$
