YLD.pdb
     RDKit          3D

 29 29  0  0  1  0  0  0  0  0999 V2000
    9.8723  -13.2317   30.1195 O   0  0  0  0  0  0  0  0  0  0  0  0
    9.8308  -14.0107   28.9836 C   0  0  0  0  0  0  0  0  0  0  0  0
    8.9502  -13.7407   27.9584 C   0  0  0  0  0  0  0  0  0  0  0  0
    8.8983  -14.5088   26.8210 C   0  0  0  0  0  0  0  0  0  0  0  0
    9.7631  -15.5956   26.6992 C   0  0  0  0  0  0  0  0  0  0  0  0
    9.7172  -16.4347   25.4740 C   0  0  0  0  0  0  0  0  0  0  0  0
    8.2977  -16.5172   24.9871 C   0  0  2  0  0  0  0  0  0  0  0  0
    7.6096  -17.5321   25.7432 N   0  0  0  0  0  0  0  0  0  0  0  0
    8.2024  -16.7436   23.5260 C   0  0  0  0  0  0  0  0  0  0  0  0
    8.1163  -17.9342   23.1326 O   0  0  0  0  0  0  0  0  0  0  0  0
   10.6624  -15.8955   27.7131 C   0  0  0  0  0  0  0  0  0  0  0  0
   10.6787  -15.0951   28.8383 C   0  0  0  0  0  0  0  0  0  0  0  0
    7.8356  -12.1301   20.2612 C   0  0  0  0  0  0  0  0  0  0  0  0
    7.9959  -13.3632   21.1276 C   0  0  1  0  0  0  0  0  0  0  0  0
    7.0693  -13.3027   22.2883 C   0  0  0  0  0  0  0  0  0  0  0  0
    8.0323  -14.6243   20.3481 C   0  0  0  0  0  0  0  0  0  0  0  0
    8.3305  -15.8737   21.1511 C   0  0  2  0  0  0  0  0  0  0  0  0
    8.2027  -15.7143   22.5653 N   0  0  0  0  0  0  0  0  0  0  0  0
    9.6593  -16.3688   20.7297 C   0  0  0  0  0  0  0  0  0  0  0  0
    9.8744  -16.7660   19.5326 O   0  0  0  0  0  0  0  0  0  0  0  0
   10.7837  -16.4443   21.5956 N   0  0  0  0  0  0  0  0  0  0  0  0
   12.0429  -17.0325   21.2326 C   0  0  1  0  0  0  0  0  0  0  0  0
   13.1754  -16.0332   21.1858 C   0  0  0  0  0  0  0  0  0  0  0  0
   13.7105  -15.8392   19.8310 C   0  0  0  0  0  0  0  0  0  0  0  0
   14.4421  -14.8869   19.4854 O   0  0  0  0  0  0  0  0  0  0  0  0
   12.3277  -18.1574   22.1471 C   0  0  0  0  0  0  0  0  0  0  0  0
   13.3818  -19.0375   21.9900 O   0  0  0  0  0  0  0  0  0  0  0  0
   13.3884  -16.7723   18.8562 O   0  0  0  0  0  0  0  0  0  0  0  0
   11.5716  -18.3331   23.1303 O   0  0  0  0  0  0  0  0  0  0  0  0
  2  3  2  0
  2  1  1  0
  4  3  1  0
  5  4  2  0
  6  5  1  0
  7  6  1  0
  7  8  1  1
  9  7  1  0
  9 10  2  0
 11  5  1  0
 11 12  2  0
 12  2  1  0
 14 13  1  6
 14 15  1  0
 16 14  1  0
 17 18  1  0
 17 16  1  6
 18  9  1  0
 19 17  1  0
 20 19  2  0
 21 19  1  0
 22 23  1  1
 22 21  1  0
 23 24  1  0
 24 25  2  0
 24 28  1  0
 26 27  1  0
 26 22  1  0
 29 26  2  0
M  END
$$$$
