YLD.pdb
     RDKit          3D

 29 29  0  0  1  0  0  0  0  0999 V2000
    7.4518  -22.8387   29.4394 O   0  0  0  0  0  0  0  0  0  0  0  0
    7.5937  -21.7503   28.6064 C   0  0  0  0  0  0  0  0  0  0  0  0
    6.9422  -20.5623   28.8583 C   0  0  0  0  0  0  0  0  0  0  0  0
    7.0748  -19.4699   28.0364 C   0  0  0  0  0  0  0  0  0  0  0  0
    7.8940  -19.5652   26.9122 C   0  0  0  0  0  0  0  0  0  0  0  0
    8.0461  -18.3910   26.0149 C   0  0  0  0  0  0  0  0  0  0  0  0
    6.7185  -18.0792   25.3831 C   0  0  2  0  0  0  0  0  0  0  0  0
    6.2815  -19.2315   24.6371 N   0  0  0  0  0  0  0  0  0  0  0  0
    6.7494  -16.8517   24.5541 C   0  0  0  0  0  0  0  0  0  0  0  0
    6.4999  -16.9784   23.3289 O   0  0  0  0  0  0  0  0  0  0  0  0
    8.5646  -20.7471   26.6293 C   0  0  0  0  0  0  0  0  0  0  0  0
    8.4010  -21.8192   27.4841 C   0  0  0  0  0  0  0  0  0  0  0  0
    7.5328  -12.1154   27.3614 C   0  0  0  0  0  0  0  0  0  0  0  0
    6.9845  -13.0567   26.3077 C   0  0  1  0  0  0  0  0  0  0  0  0
    5.5697  -12.7198   26.0004 C   0  0  0  0  0  0  0  0  0  0  0  0
    7.9048  -13.2501   25.1611 C   0  0  0  0  0  0  0  0  0  0  0  0
    7.6621  -14.4992   24.3392 C   0  0  2  0  0  0  0  0  0  0  0  0
    7.0384  -15.5676   25.0542 N   0  0  0  0  0  0  0  0  0  0  0  0
    8.9474  -14.8783   23.7126 C   0  0  0  0  0  0  0  0  0  0  0  0
    9.5795  -14.0719   22.9462 O   0  0  0  0  0  0  0  0  0  0  0  0
    9.5760  -16.1386   23.9027 N   0  0  0  0  0  0  0  0  0  0  0  0
   10.8295  -16.5123   23.3089 C   0  0  1  0  0  0  0  0  0  0  0  0
   11.2771  -15.5669   22.2183 C   0  0  0  0  0  0  0  0  0  0  0  0
   12.6337  -15.8558   21.7330 C   0  0  0  0  0  0  0  0  0  0  0  0
   13.3661  -16.7684   22.1715 O   0  0  0  0  0  0  0  0  0  0  0  0
   11.8417  -16.6541   24.3757 C   0  0  0  0  0  0  0  0  0  0  0  0
   11.5702  -16.5269   25.7250 O   0  0  0  0  0  0  0  0  0  0  0  0
   13.1508  -15.0668   20.7158 O   0  0  0  0  0  0  0  0  0  0  0  0
   13.0239  -16.9057   24.0468 O   0  0  0  0  0  0  0  0  0  0  0  0
  2  3  2  0
  2  1  1  0
  4  3  1  0
  5  4  2  0
  6  5  1  0
  7  6  1  0
  7  8  1  6
  9  7  1  0
  9 10  2  0
 11  5  1  0
 11 12  2  0
 12  2  1  0
 14 13  1  1
 14 15  1  0
 16 14  1  0
 17 18  1  0
 17 16  1  1
 18  9  1  0
 19 17  1  0
 20 19  2  0
 21 19  1  0
 22 23  1  6
 22 21  1  0
 23 24  1  0
 24 25  2  0
 24 28  1  0
 26 27  1  0
 26 22  1  0
 29 26  2  0
M  END
$$$$
