YLD.pdb
     RDKit          3D

 29 29  0  0  1  0  0  0  0  0999 V2000
    7.3285  -12.9842   15.5287 O   0  0  0  0  0  0  0  0  0  0  0  0
    7.3910  -13.4431   16.8265 C   0  0  0  0  0  0  0  0  0  0  0  0
    6.9880  -14.7185   17.1583 C   0  0  0  0  0  0  0  0  0  0  0  0
    7.0450  -15.1885   18.4476 C   0  0  0  0  0  0  0  0  0  0  0  0
    7.5254  -14.3496   19.4523 C   0  0  0  0  0  0  0  0  0  0  0  0
    7.5922  -14.8456   20.8512 C   0  0  0  0  0  0  0  0  0  0  0  0
    9.0160  -14.7823   21.3283 C   0  0  2  0  0  0  0  0  0  0  0  0
    9.8176  -15.6486   20.5024 N   0  0  0  0  0  0  0  0  0  0  0  0
    9.1545  -15.0941   22.7701 C   0  0  0  0  0  0  0  0  0  0  0  0
   10.1563  -15.7680   23.1193 O   0  0  0  0  0  0  0  0  0  0  0  0
    7.9394  -13.0592   19.1525 C   0  0  0  0  0  0  0  0  0  0  0  0
    7.8639  -12.6301   17.8420 C   0  0  0  0  0  0  0  0  0  0  0  0
    5.6904  -12.4099   26.5546 C   0  0  0  0  0  0  0  0  0  0  0  0
    6.9903  -12.8348   25.9012 C   0  0  1  0  0  0  0  0  0  0  0  0
    8.0939  -11.9260   26.3083 C   0  0  0  0  0  0  0  0  0  0  0  0
    7.2393  -14.2940   25.9903 C   0  0  0  0  0  0  0  0  0  0  0  0
    8.4087  -14.8025   25.1725 C   0  0  2  0  0  0  0  0  0  0  0  0
    8.2398  -14.6838   23.7587 N   0  0  0  0  0  0  0  0  0  0  0  0
    8.6995  -16.1825   25.6193 C   0  0  0  0  0  0  0  0  0  0  0  0
    7.7608  -17.0206   25.8508 O   0  0  0  0  0  0  0  0  0  0  0  0
   10.0131  -16.6845   25.8249 N   0  0  0  0  0  0  0  0  0  0  0  0
   10.3048  -17.9731   26.3888 C   0  0  1  0  0  0  0  0  0  0  0  0
   11.6490  -18.5180   25.9652 C   0  0  0  0  0  0  0  0  0  0  0  0
   11.6627  -18.9856   24.5721 C   0  0  0  0  0  0  0  0  0  0  0  0
   10.6600  -19.0314   23.8279 O   0  0  0  0  0  0  0  0  0  0  0  0
   10.1715  -17.8944   27.8581 C   0  0  0  0  0  0  0  0  0  0  0  0
   10.2052  -16.7152   28.5783 O   0  0  0  0  0  0  0  0  0  0  0  0
   12.8683  -19.4094   24.0319 O   0  0  0  0  0  0  0  0  0  0  0  0
   10.0177  -18.9583   28.5011 O   0  0  0  0  0  0  0  0  0  0  0  0
  2  3  2  0
  2  1  1  0
  4  3  1  0
  5  4  2  0
  6  5  1  0
  7  6  1  0
  7  8  1  6
  9  7  1  0
  9 10  2  0
 11  5  1  0
 11 12  2  0
 12  2  1  0
 14 13  1  1
 14 15  1  0
 16 14  1  0
 17 18  1  0
 17 16  1  1
 18  9  1  0
 19 17  1  0
 20 19  2  0
 21 19  1  0
 22 23  1  1
 22 21  1  0
 23 24  1  0
 24 25  2  0
 24 28  1  0
 26 27  1  0
 26 22  1  0
 29 26  2  0
M  END
$$$$
