YLD.pdb
     RDKit          3D

 29 29  0  0  1  0  0  0  0  0999 V2000
   11.9822  -17.0393   32.2096 O   0  0  0  0  0  0  0  0  0  0  0  0
   11.4749  -16.9017   30.9359 C   0  0  0  0  0  0  0  0  0  0  0  0
   10.8904  -15.7257   30.5180 C   0  0  0  0  0  0  0  0  0  0  0  0
   10.3808  -15.5750   29.2514 C   0  0  0  0  0  0  0  0  0  0  0  0
   10.4569  -16.6447   28.3605 C   0  0  0  0  0  0  0  0  0  0  0  0
    9.9094  -16.4950   26.9875 C   0  0  0  0  0  0  0  0  0  0  0  0
    8.4723  -16.9352   26.9801 C   0  0  2  0  0  0  0  0  0  0  0  0
    8.4303  -18.3724   27.0686 N   0  0  0  0  0  0  0  0  0  0  0  0
    7.7189  -16.4218   25.8123 C   0  0  0  0  0  0  0  0  0  0  0  0
    7.2924  -17.2672   24.9858 O   0  0  0  0  0  0  0  0  0  0  0  0
   11.0392  -17.8433   28.7491 C   0  0  0  0  0  0  0  0  0  0  0  0
   11.5381  -17.9486   30.0325 C   0  0  0  0  0  0  0  0  0  0  0  0
    7.0515  -10.8967   25.7870 C   0  0  0  0  0  0  0  0  0  0  0  0
    6.7228  -12.3736   25.7008 C   0  0  1  0  0  0  0  0  0  0  0  0
    5.3966  -12.6441   26.3153 C   0  0  0  0  0  0  0  0  0  0  0  0
    6.9857  -12.9535   24.3615 C   0  0  0  0  0  0  0  0  0  0  0  0
    7.1216  -14.4618   24.3240 C   0  0  2  0  0  0  0  0  0  0  0  0
    7.4566  -15.0583   25.5784 N   0  0  0  0  0  0  0  0  0  0  0  0
    8.0681  -14.7980   23.2380 C   0  0  0  0  0  0  0  0  0  0  0  0
    7.8416  -14.4563   22.0260 O   0  0  0  0  0  0  0  0  0  0  0  0
    9.2804  -15.5114   23.4412 N   0  0  0  0  0  0  0  0  0  0  0  0
   10.1738  -15.9003   22.3857 C   0  0  1  0  0  0  0  0  0  0  0  0
   11.5877  -15.4082   22.5909 C   0  0  0  0  0  0  0  0  0  0  0  0
   12.4936  -15.8030   21.5032 C   0  0  0  0  0  0  0  0  0  0  0  0
   12.1246  -16.2826   20.4098 O   0  0  0  0  0  0  0  0  0  0  0  0
   10.1110  -17.3671   22.2209 C   0  0  0  0  0  0  0  0  0  0  0  0
   10.2416  -18.0181   21.0086 O   0  0  0  0  0  0  0  0  0  0  0  0
   13.8582  -15.6369   21.6900 O   0  0  0  0  0  0  0  0  0  0  0  0
    9.9280  -18.0746   23.2383 O   0  0  0  0  0  0  0  0  0  0  0  0
  2  3  2  0
  2  1  1  0
  4  3  1  0
  5  4  2  0
  6  5  1  0
  7  6  1  0
  7  8  1  6
  9  7  1  0
  9 10  2  0
 11  5  1  0
 11 12  2  0
 12  2  1  0
 14 13  1  6
 14 15  1  0
 16 14  1  0
 17 18  1  0
 17 16  1  1
 18  9  1  0
 19 17  1  0
 20 19  2  0
 21 19  1  0
 22 23  1  1
 22 21  1  0
 23 24  1  0
 24 25  2  0
 24 28  1  0
 26 27  1  0
 26 22  1  0
 29 26  2  0
M  END
$$$$
