YLD.pdb
     RDKit          3D

 29 29  0  0  1  0  0  0  0  0999 V2000
    5.6211  -18.7028   16.3865 O   0  0  0  0  0  0  0  0  0  0  0  0
    6.3072  -18.3320   17.5225 C   0  0  0  0  0  0  0  0  0  0  0  0
    7.6465  -18.0098   17.4805 C   0  0  0  0  0  0  0  0  0  0  0  0
    8.3424  -17.6387   18.6050 C   0  0  0  0  0  0  0  0  0  0  0  0
    7.6735  -17.5860   19.8272 C   0  0  0  0  0  0  0  0  0  0  0  0
    8.4145  -17.1861   21.0512 C   0  0  0  0  0  0  0  0  0  0  0  0
    8.2580  -15.7059   21.2597 C   0  0  2  0  0  0  0  0  0  0  0  0
    8.8907  -15.0170   20.1641 N   0  0  0  0  0  0  0  0  0  0  0  0
    8.7649  -15.2531   22.5761 C   0  0  0  0  0  0  0  0  0  0  0  0
   10.0093  -15.1298   22.7021 O   0  0  0  0  0  0  0  0  0  0  0  0
    6.3247  -17.9041   19.9047 C   0  0  0  0  0  0  0  0  0  0  0  0
    5.6662  -18.2718   18.7478 C   0  0  0  0  0  0  0  0  0  0  0  0
    5.8374  -12.1901   26.4852 C   0  0  0  0  0  0  0  0  0  0  0  0
    7.0274  -12.6942   25.6934 C   0  0  1  0  0  0  0  0  0  0  0  0
    8.1601  -11.7373   25.7984 C   0  0  0  0  0  0  0  0  0  0  0  0
    7.3212  -14.1284   25.9296 C   0  0  0  0  0  0  0  0  0  0  0  0
    8.3745  -14.7317   25.0234 C   0  0  2  0  0  0  0  0  0  0  0  0
    7.9427  -14.9565   23.6800 N   0  0  0  0  0  0  0  0  0  0  0  0
    8.8934  -15.9467   25.6888 C   0  0  0  0  0  0  0  0  0  0  0  0
    8.1266  -16.9306   25.9734 O   0  0  0  0  0  0  0  0  0  0  0  0
   10.2539  -16.1225   26.0601 N   0  0  0  0  0  0  0  0  0  0  0  0
   10.7838  -17.3280   26.6340 C   0  0  1  0  0  0  0  0  0  0  0  0
   12.2110  -17.6061   26.2225 C   0  0  0  0  0  0  0  0  0  0  0  0
   12.4102  -17.5367   24.7682 C   0  0  0  0  0  0  0  0  0  0  0  0
   13.0592  -16.6444   24.1816 O   0  0  0  0  0  0  0  0  0  0  0  0
   10.6268  -17.2692   28.1019 C   0  0  0  0  0  0  0  0  0  0  0  0
   10.8458  -18.3389   28.9493 O   0  0  0  0  0  0  0  0  0  0  0  0
   11.8427  -18.5259   23.9782 O   0  0  0  0  0  0  0  0  0  0  0  0
   10.2729  -16.1856   28.6211 O   0  0  0  0  0  0  0  0  0  0  0  0
  2  3  2  0
  2  1  1  0
  4  3  1  0
  5  4  2  0
  6  5  1  0
  7  6  1  0
  7  8  1  6
  9  7  1  0
  9 10  2  0
 11  5  1  0
 11 12  2  0
 12  2  1  0
 14 13  1  1
 14 15  1  0
 16 14  1  0
 17 18  1  0
 17 16  1  1
 18  9  1  0
 19 17  1  0
 20 19  2  0
 21 19  1  0
 22 23  1  1
 22 21  1  0
 23 24  1  0
 24 25  2  0
 24 28  1  0
 26 27  1  0
 26 22  1  0
 29 26  2  0
M  END
$$$$
