YLD.pdb
     RDKit          3D

 29 29  0  0  1  0  0  0  0  0999 V2000
    7.3847  -14.1809   15.6298 O   0  0  0  0  0  0  0  0  0  0  0  0
    7.8643  -14.0748   16.9172 C   0  0  0  0  0  0  0  0  0  0  0  0
    7.3961  -13.1090   17.7816 C   0  0  0  0  0  0  0  0  0  0  0  0
    7.8654  -12.9921   19.0671 C   0  0  0  0  0  0  0  0  0  0  0  0
    8.8461  -13.8778   19.5119 C   0  0  0  0  0  0  0  0  0  0  0  0
    9.3624  -13.7622   20.9001 C   0  0  0  0  0  0  0  0  0  0  0  0
    8.8847  -14.9399   21.7025 C   0  0  2  0  0  0  0  0  0  0  0  0
    7.4823  -15.1380   21.4396 N   0  0  0  0  0  0  0  0  0  0  0  0
    9.1716  -14.8050   23.1497 C   0  0  0  0  0  0  0  0  0  0  0  0
   10.3763  -14.8541   23.5045 O   0  0  0  0  0  0  0  0  0  0  0  0
    9.3395  -14.8623   18.6670 C   0  0  0  0  0  0  0  0  0  0  0  0
    8.8377  -14.9417   17.3829 C   0  0  0  0  0  0  0  0  0  0  0  0
    5.3013  -12.5047   26.6293 C   0  0  0  0  0  0  0  0  0  0  0  0
    6.6552  -12.7842   26.0081 C   0  0  1  0  0  0  0  0  0  0  0  0
    7.5597  -11.6196   26.1959 C   0  0  0  0  0  0  0  0  0  0  0  0
    7.1889  -14.1251   26.3491 C   0  0  0  0  0  0  0  0  0  0  0  0
    8.3982  -14.5636   25.5491 C   0  0  2  0  0  0  0  0  0  0  0  0
    8.1844  -14.6269   24.1378 N   0  0  0  0  0  0  0  0  0  0  0  0
    8.8820  -15.8345   26.1314 C   0  0  0  0  0  0  0  0  0  0  0  0
    9.0143  -15.9816   27.3955 O   0  0  0  0  0  0  0  0  0  0  0  0
    9.2327  -16.9736   25.3572 N   0  0  0  0  0  0  0  0  0  0  0  0
    9.8125  -18.1703   25.9004 C   0  0  1  0  0  0  0  0  0  0  0  0
    9.4162  -19.4190   25.1473 C   0  0  0  0  0  0  0  0  0  0  0  0
   10.0752  -20.6285   25.6595 C   0  0  0  0  0  0  0  0  0  0  0  0
   10.2974  -20.8594   26.8673 O   0  0  0  0  0  0  0  0  0  0  0  0
   11.2787  -18.0025   25.9719 C   0  0  0  0  0  0  0  0  0  0  0  0
   11.9901  -17.0725   25.2375 O   0  0  0  0  0  0  0  0  0  0  0  0
   10.4849  -21.5909   24.7481 O   0  0  0  0  0  0  0  0  0  0  0  0
   11.9273  -18.7456   26.7442 O   0  0  0  0  0  0  0  0  0  0  0  0
  2  3  2  0
  2  1  1  0
  4  3  1  0
  5  4  2  0
  6  5  1  0
  7  6  1  0
  7  8  1  1
  9  7  1  0
  9 10  2  0
 11  5  1  0
 11 12  2  0
 12  2  1  0
 14 13  1  1
 14 15  1  0
 16 14  1  0
 17 18  1  0
 17 16  1  1
 18  9  1  0
 19 17  1  0
 20 19  2  0
 21 19  1  0
 22 23  1  6
 22 21  1  0
 23 24  1  0
 24 25  2  0
 24 28  1  0
 26 27  1  0
 26 22  1  0
 29 26  2  0
M  END
$$$$
