YLD.pdb
     RDKit          3D

 29 29  0  0  1  0  0  0  0  0999 V2000
    7.5191  -14.0724   15.9076 O   0  0  0  0  0  0  0  0  0  0  0  0
    7.8166  -13.9107   17.2433 C   0  0  0  0  0  0  0  0  0  0  0  0
    6.8825  -14.1659   18.2239 C   0  0  0  0  0  0  0  0  0  0  0  0
    7.1658  -14.0090   19.5587 C   0  0  0  0  0  0  0  0  0  0  0  0
    8.4377  -13.5780   19.9337 C   0  0  0  0  0  0  0  0  0  0  0  0
    8.7570  -13.4041   21.3742 C   0  0  0  0  0  0  0  0  0  0  0  0
    9.1727  -14.7289   21.9495 C   0  0  2  0  0  0  0  0  0  0  0  0
    8.1544  -15.7021   21.6478 N   0  0  0  0  0  0  0  0  0  0  0  0
    9.4713  -14.6589   23.3990 C   0  0  0  0  0  0  0  0  0  0  0  0
   10.6339  -14.3159   23.7311 O   0  0  0  0  0  0  0  0  0  0  0  0
    9.4019  -13.3121   18.9714 C   0  0  0  0  0  0  0  0  0  0  0  0
    9.0717  -13.4841   17.6416 C   0  0  0  0  0  0  0  0  0  0  0  0
    5.7173  -12.5631   26.7043 C   0  0  0  0  0  0  0  0  0  0  0  0
    7.1071  -12.9062   26.2067 C   0  0  1  0  0  0  0  0  0  0  0  0
    8.0483  -11.7922   26.4947 C   0  0  0  0  0  0  0  0  0  0  0  0
    7.5380  -14.2765   26.5753 C   0  0  0  0  0  0  0  0  0  0  0  0
    8.7408  -14.8026   25.8195 C   0  0  2  0  0  0  0  0  0  0  0  0
    8.5389  -14.9509   24.4128 N   0  0  0  0  0  0  0  0  0  0  0  0
    9.1789  -16.0473   26.4883 C   0  0  0  0  0  0  0  0  0  0  0  0
    9.2035  -16.1464   27.7637 O   0  0  0  0  0  0  0  0  0  0  0  0
    9.5996  -17.2115   25.7902 N   0  0  0  0  0  0  0  0  0  0  0  0
   10.1054  -18.3953   26.4276 C   0  0  1  0  0  0  0  0  0  0  0  0
    9.3506  -19.6469   26.0441 C   0  0  0  0  0  0  0  0  0  0  0  0
    9.3761  -19.9091   24.5984 C   0  0  0  0  0  0  0  0  0  0  0  0
    9.8873  -19.1503   23.7474 O   0  0  0  0  0  0  0  0  0  0  0  0
   11.5522  -18.5080   26.1500 C   0  0  0  0  0  0  0  0  0  0  0  0
   12.2445  -17.6764   25.2901 O   0  0  0  0  0  0  0  0  0  0  0  0
    8.7947  -21.0790   24.1313 O   0  0  0  0  0  0  0  0  0  0  0  0
   12.2015  -19.4115   26.7256 O   0  0  0  0  0  0  0  0  0  0  0  0
  2  3  2  0
  2  1  1  0
  4  3  1  0
  5  4  2  0
  6  5  1  0
  7  6  1  0
  7  8  1  1
  9  7  1  0
  9 10  2  0
 11  5  1  0
 11 12  2  0
 12  2  1  0
 14 13  1  1
 14 15  1  0
 16 14  1  0
 17 18  1  0
 17 16  1  1
 18  9  1  0
 19 17  1  0
 20 19  2  0
 21 19  1  0
 22 23  1  6
 22 21  1  0
 23 24  1  0
 24 25  2  0
 24 28  1  0
 26 27  1  0
 26 22  1  0
 29 26  2  0
M  END
$$$$
