YLD.pdb
     RDKit          3D

 29 29  0  0  1  0  0  0  0  0999 V2000
    7.4266  -14.9274   15.6418 O   0  0  0  0  0  0  0  0  0  0  0  0
    7.8285  -14.6387   16.9278 C   0  0  0  0  0  0  0  0  0  0  0  0
    7.3555  -13.5309   17.5973 C   0  0  0  0  0  0  0  0  0  0  0  0
    7.7478  -13.2315   18.8791 C   0  0  0  0  0  0  0  0  0  0  0  0
    8.6526  -14.0742   19.5234 C   0  0  0  0  0  0  0  0  0  0  0  0
    9.0852  -13.7617   20.9099 C   0  0  0  0  0  0  0  0  0  0  0  0
    9.0083  -15.0106   21.7427 C   0  0  2  0  0  0  0  0  0  0  0  0
    7.7392  -15.6479   21.5010 N   0  0  0  0  0  0  0  0  0  0  0  0
    9.2448  -14.7575   23.1832 C   0  0  0  0  0  0  0  0  0  0  0  0
   10.3927  -14.3711   23.5186 O   0  0  0  0  0  0  0  0  0  0  0  0
    9.1486  -15.1983   18.8778 C   0  0  0  0  0  0  0  0  0  0  0  0
    8.7258  -15.4593   17.5893 C   0  0  0  0  0  0  0  0  0  0  0  0
    5.4882  -12.5100   26.5473 C   0  0  0  0  0  0  0  0  0  0  0  0
    6.8710  -12.8691   26.0416 C   0  0  1  0  0  0  0  0  0  0  0  0
    7.8409  -11.7962   26.3849 C   0  0  0  0  0  0  0  0  0  0  0  0
    7.2612  -14.2663   26.3496 C   0  0  0  0  0  0  0  0  0  0  0  0
    8.4675  -14.7836   25.5932 C   0  0  2  0  0  0  0  0  0  0  0  0
    8.2694  -14.9230   24.1850 N   0  0  0  0  0  0  0  0  0  0  0  0
    8.9079  -16.0314   26.2546 C   0  0  0  0  0  0  0  0  0  0  0  0
    9.0061  -16.1129   27.5277 O   0  0  0  0  0  0  0  0  0  0  0  0
    9.2512  -17.2178   25.5516 N   0  0  0  0  0  0  0  0  0  0  0  0
    9.8140  -18.3865   26.1686 C   0  0  1  0  0  0  0  0  0  0  0  0
    9.1551  -19.6712   25.7228 C   0  0  0  0  0  0  0  0  0  0  0  0
    7.7157  -19.7070   26.0170 C   0  0  0  0  0  0  0  0  0  0  0  0
    7.2061  -19.3889   27.1127 O   0  0  0  0  0  0  0  0  0  0  0  0
   11.2728  -18.3963   25.9348 C   0  0  0  0  0  0  0  0  0  0  0  0
   11.9260  -17.5380   25.0705 O   0  0  0  0  0  0  0  0  0  0  0  0
    6.8494  -20.1216   25.0157 O   0  0  0  0  0  0  0  0  0  0  0  0
   11.9708  -19.2318   26.5545 O   0  0  0  0  0  0  0  0  0  0  0  0
  2  3  2  0
  2  1  1  0
  4  3  1  0
  5  4  2  0
  6  5  1  0
  7  6  1  0
  7  8  1  1
  9  7  1  0
  9 10  2  0
 11  5  1  0
 11 12  2  0
 12  2  1  0
 14 13  1  1
 14 15  1  0
 16 14  1  0
 17 18  1  0
 17 16  1  1
 18  9  1  0
 19 17  1  0
 20 19  2  0
 21 19  1  0
 22 23  1  6
 22 21  1  0
 23 24  1  0
 24 25  2  0
 24 28  1  0
 26 27  1  0
 26 22  1  0
 29 26  2  0
M  END
$$$$
