YLD.pdb
     RDKit          3D

 29 29  0  0  1  0  0  0  0  0999 V2000
    7.5024  -14.0686   15.7119 O   0  0  0  0  0  0  0  0  0  0  0  0
    7.9107  -13.9195   17.0195 C   0  0  0  0  0  0  0  0  0  0  0  0
    8.9448  -14.6674   17.5396 C   0  0  0  0  0  0  0  0  0  0  0  0
    9.3618  -14.5288   18.8409 C   0  0  0  0  0  0  0  0  0  0  0  0
    8.7192  -13.6029   19.6617 C   0  0  0  0  0  0  0  0  0  0  0  0
    9.1604  -13.4432   21.0713 C   0  0  0  0  0  0  0  0  0  0  0  0
    9.0850  -14.7747   21.7644 C   0  0  2  0  0  0  0  0  0  0  0  0
    7.7789  -15.3386   21.5378 N   0  0  0  0  0  0  0  0  0  0  0  0
    9.4198  -14.6935   23.2053 C   0  0  0  0  0  0  0  0  0  0  0  0
   10.6372  -14.6275   23.5103 O   0  0  0  0  0  0  0  0  0  0  0  0
    7.6740  -12.8335   19.1696 C   0  0  0  0  0  0  0  0  0  0  0  0
    7.2892  -13.0073   17.8547 C   0  0  0  0  0  0  0  0  0  0  0  0
    5.7011  -12.6099   26.8280 C   0  0  0  0  0  0  0  0  0  0  0  0
    7.0493  -12.8862   26.1934 C   0  0  1  0  0  0  0  0  0  0  0  0
    7.9619  -11.7304   26.3960 C   0  0  0  0  0  0  0  0  0  0  0  0
    7.5772  -14.2361   26.5073 C   0  0  0  0  0  0  0  0  0  0  0  0
    8.7325  -14.6969   25.6427 C   0  0  2  0  0  0  0  0  0  0  0  0
    8.4641  -14.6861   24.2394 N   0  0  0  0  0  0  0  0  0  0  0  0
    9.1721  -16.0150   26.1504 C   0  0  0  0  0  0  0  0  0  0  0  0
    9.3788  -16.2148   27.3972 O   0  0  0  0  0  0  0  0  0  0  0  0
    9.3972  -17.1453   25.3188 N   0  0  0  0  0  0  0  0  0  0  0  0
    9.9800  -18.3772   25.7728 C   0  0  1  0  0  0  0  0  0  0  0  0
    9.8170  -19.5117   24.7880 C   0  0  0  0  0  0  0  0  0  0  0  0
    9.6871  -20.8214   25.4416 C   0  0  0  0  0  0  0  0  0  0  0  0
    9.8052  -21.0176   26.6700 O   0  0  0  0  0  0  0  0  0  0  0  0
   11.3959  -18.1380   26.1204 C   0  0  0  0  0  0  0  0  0  0  0  0
   12.3523  -17.7019   25.2230 O   0  0  0  0  0  0  0  0  0  0  0  0
    9.4138  -21.9277   24.6502 O   0  0  0  0  0  0  0  0  0  0  0  0
   11.7628  -18.3403   27.3010 O   0  0  0  0  0  0  0  0  0  0  0  0
  2  3  2  0
  2  1  1  0
  4  3  1  0
  5  4  2  0
  6  5  1  0
  7  6  1  0
  7  8  1  1
  9  7  1  0
  9 10  2  0
 11  5  1  0
 11 12  2  0
 12  2  1  0
 14 13  1  1
 14 15  1  0
 16 14  1  0
 17 18  1  0
 17 16  1  1
 18  9  1  0
 19 17  1  0
 20 19  2  0
 21 19  1  0
 22 23  1  6
 22 21  1  0
 23 24  1  0
 24 25  2  0
 24 28  1  0
 26 27  1  0
 26 22  1  0
 29 26  2  0
M  END
$$$$
