YLD.pdb
     RDKit          3D

 29 29  0  0  1  0  0  0  0  0999 V2000
    7.5193  -13.6161   15.9819 O   0  0  0  0  0  0  0  0  0  0  0  0
    7.9075  -13.5553   17.3026 C   0  0  0  0  0  0  0  0  0  0  0  0
    9.2188  -13.7547   17.6766 C   0  0  0  0  0  0  0  0  0  0  0  0
    9.6192  -13.6969   18.9891 C   0  0  0  0  0  0  0  0  0  0  0  0
    8.6699  -13.4281   19.9743 C   0  0  0  0  0  0  0  0  0  0  0  0
    9.0897  -13.3629   21.3979 C   0  0  0  0  0  0  0  0  0  0  0  0
    9.2825  -14.7596   21.9185 C   0  0  2  0  0  0  0  0  0  0  0  0
    8.1345  -15.5497   21.5538 N   0  0  0  0  0  0  0  0  0  0  0  0
    9.5523  -14.7991   23.3748 C   0  0  0  0  0  0  0  0  0  0  0  0
   10.7156  -14.5101   23.7525 O   0  0  0  0  0  0  0  0  0  0  0  0
    7.3406  -13.2223   19.6320 C   0  0  0  0  0  0  0  0  0  0  0  0
    6.9844  -13.2900   18.2995 C   0  0  0  0  0  0  0  0  0  0  0  0
    5.8678  -12.8598   26.9707 C   0  0  0  0  0  0  0  0  0  0  0  0
    7.1961  -13.2260   26.3396 C   0  0  1  0  0  0  0  0  0  0  0  0
    8.2190  -12.1943   26.6541 C   0  0  0  0  0  0  0  0  0  0  0  0
    7.5711  -14.6454   26.5493 C   0  0  0  0  0  0  0  0  0  0  0  0
    8.7766  -15.1197   25.7641 C   0  0  2  0  0  0  0  0  0  0  0  0
    8.5920  -15.1374   24.3474 N   0  0  0  0  0  0  0  0  0  0  0  0
    9.1878  -16.4261   26.3231 C   0  0  0  0  0  0  0  0  0  0  0  0
    8.8882  -16.7637   27.5203 O   0  0  0  0  0  0  0  0  0  0  0  0
    9.9322  -17.3952   25.5974 N   0  0  0  0  0  0  0  0  0  0  0  0
   10.3553  -18.6572   26.1376 C   0  0  1  0  0  0  0  0  0  0  0  0
   10.8116  -19.6349   25.0796 C   0  0  0  0  0  0  0  0  0  0  0  0
    9.9099  -19.6842   23.9203 C   0  0  0  0  0  0  0  0  0  0  0  0
    8.6647  -19.7612   23.9911 O   0  0  0  0  0  0  0  0  0  0  0  0
   11.3934  -18.4164   27.1610 C   0  0  0  0  0  0  0  0  0  0  0  0
   11.8290  -19.3683   28.0635 O   0  0  0  0  0  0  0  0  0  0  0  0
   10.4675  -19.6431   22.6506 O   0  0  0  0  0  0  0  0  0  0  0  0
   11.9184  -17.2807   27.2226 O   0  0  0  0  0  0  0  0  0  0  0  0
  2  3  2  0
  2  1  1  0
  4  3  1  0
  5  4  2  0
  6  5  1  0
  7  6  1  0
  7  8  1  1
  9  7  1  0
  9 10  2  0
 11  5  1  0
 11 12  2  0
 12  2  1  0
 14 13  1  1
 14 15  1  0
 16 14  1  0
 17 18  1  0
 17 16  1  1
 18  9  1  0
 19 17  1  0
 20 19  2  0
 21 19  1  0
 22 23  1  6
 22 21  1  0
 23 24  1  0
 24 25  2  0
 24 28  1  0
 26 27  1  0
 26 22  1  0
 29 26  2  0
M  END
$$$$
