YLD.pdb
     RDKit          3D

 29 29  0  0  1  0  0  0  0  0999 V2000
    7.0945  -13.8423   15.7859 O   0  0  0  0  0  0  0  0  0  0  0  0
    7.7137  -13.8925   17.0159 C   0  0  0  0  0  0  0  0  0  0  0  0
    8.5891  -14.9066   17.3392 C   0  0  0  0  0  0  0  0  0  0  0  0
    9.2131  -14.9687   18.5612 C   0  0  0  0  0  0  0  0  0  0  0  0
    8.9531  -13.9752   19.5042 C   0  0  0  0  0  0  0  0  0  0  0  0
    9.6214  -14.0306   20.8299 C   0  0  0  0  0  0  0  0  0  0  0  0
    9.1371  -15.2428   21.5749 C   0  0  2  0  0  0  0  0  0  0  0  0
    7.7721  -15.5024   21.1944 N   0  0  0  0  0  0  0  0  0  0  0  0
    9.2974  -15.1189   23.0425 C   0  0  0  0  0  0  0  0  0  0  0  0
   10.4667  -15.1735   23.5002 O   0  0  0  0  0  0  0  0  0  0  0  0
    8.0767  -12.9396   19.2110 C   0  0  0  0  0  0  0  0  0  0  0  0
    7.4726  -12.9185   17.9693 C   0  0  0  0  0  0  0  0  0  0  0  0
    5.6250  -12.3595   26.4500 C   0  0  0  0  0  0  0  0  0  0  0  0
    6.9164  -12.8832   25.8541 C   0  0  1  0  0  0  0  0  0  0  0  0
    8.0475  -11.9837   26.2019 C   0  0  0  0  0  0  0  0  0  0  0  0
    7.1105  -14.3379   26.0669 C   0  0  0  0  0  0  0  0  0  0  0  0
    8.3124  -14.9400   25.3687 C   0  0  2  0  0  0  0  0  0  0  0  0
    8.2284  -14.9454   23.9423 N   0  0  0  0  0  0  0  0  0  0  0  0
    8.5433  -16.2795   25.9524 C   0  0  0  0  0  0  0  0  0  0  0  0
    7.5707  -17.0161   26.3377 O   0  0  0  0  0  0  0  0  0  0  0  0
    9.8325  -16.8503   26.1311 N   0  0  0  0  0  0  0  0  0  0  0  0
   10.0637  -18.2085   26.5376 C   0  0  1  0  0  0  0  0  0  0  0  0
   10.4226  -19.1213   25.3881 C   0  0  0  0  0  0  0  0  0  0  0  0
   10.7250  -20.4928   25.8205 C   0  0  0  0  0  0  0  0  0  0  0  0
   10.6737  -20.8927   27.0032 O   0  0  0  0  0  0  0  0  0  0  0  0
   11.0876  -18.2222   27.6027 C   0  0  0  0  0  0  0  0  0  0  0  0
   10.8620  -18.6710   28.8904 O   0  0  0  0  0  0  0  0  0  0  0  0
   11.0953  -21.4200   24.8572 O   0  0  0  0  0  0  0  0  0  0  0  0
   12.2362  -17.8025   27.3315 O   0  0  0  0  0  0  0  0  0  0  0  0
  2  3  2  0
  2  1  1  0
  4  3  1  0
  5  4  2  0
  6  5  1  0
  7  6  1  0
  7  8  1  1
  9  7  1  0
  9 10  2  0
 11  5  1  0
 11 12  2  0
 12  2  1  0
 14 13  1  1
 14 15  1  0
 16 14  1  0
 17 18  1  0
 17 16  1  1
 18  9  1  0
 19 17  1  0
 20 19  2  0
 21 19  1  0
 22 23  1  6
 22 21  1  0
 23 24  1  0
 24 25  2  0
 24 28  1  0
 26 27  1  0
 26 22  1  0
 29 26  2  0
M  END
$$$$
