YLD.pdb
     RDKit          3D

 29 29  0  0  1  0  0  0  0  0999 V2000
   11.9819  -17.6333   32.2602 O   0  0  0  0  0  0  0  0  0  0  0  0
   11.4808  -17.3332   31.0122 C   0  0  0  0  0  0  0  0  0  0  0  0
   10.7909  -16.1637   30.7766 C   0  0  0  0  0  0  0  0  0  0  0  0
   10.2862  -15.8521   29.5378 C   0  0  0  0  0  0  0  0  0  0  0  0
   10.4776  -16.7465   28.4854 C   0  0  0  0  0  0  0  0  0  0  0  0
    9.9368  -16.4216   27.1404 C   0  0  0  0  0  0  0  0  0  0  0  0
    8.5395  -16.9638   27.0278 C   0  0  2  0  0  0  0  0  0  0  0  0
    8.6005  -18.4028   27.0511 N   0  0  0  0  0  0  0  0  0  0  0  0
    7.8169  -16.4511   25.8403 C   0  0  0  0  0  0  0  0  0  0  0  0
    7.5096  -17.2834   24.9501 O   0  0  0  0  0  0  0  0  0  0  0  0
   11.1680  -17.9334   28.6883 C   0  0  0  0  0  0  0  0  0  0  0  0
   11.6573  -18.2042   29.9510 C   0  0  0  0  0  0  0  0  0  0  0  0
    7.0951  -10.8939   25.8806 C   0  0  0  0  0  0  0  0  0  0  0  0
    6.7830  -12.3739   25.7851 C   0  0  1  0  0  0  0  0  0  0  0  0
    5.4296  -12.6526   26.3331 C   0  0  0  0  0  0  0  0  0  0  0  0
    7.1179  -12.9576   24.4636 C   0  0  0  0  0  0  0  0  0  0  0  0
    7.1434  -14.4714   24.4119 C   0  0  2  0  0  0  0  0  0  0  0  0
    7.4593  -15.1020   25.6545 N   0  0  0  0  0  0  0  0  0  0  0  0
    8.0412  -14.8652   23.3040 C   0  0  0  0  0  0  0  0  0  0  0  0
    7.7536  -14.6001   22.0858 O   0  0  0  0  0  0  0  0  0  0  0  0
    9.2698  -15.5544   23.4917 N   0  0  0  0  0  0  0  0  0  0  0  0
   10.1208  -15.9918   22.4203 C   0  0  1  0  0  0  0  0  0  0  0  0
   11.5562  -15.5475   22.5806 C   0  0  0  0  0  0  0  0  0  0  0  0
   12.4291  -16.0360   21.5041 C   0  0  0  0  0  0  0  0  0  0  0  0
   12.9352  -17.1778   21.4624 O   0  0  0  0  0  0  0  0  0  0  0  0
   10.0018  -17.4579   22.2819 C   0  0  0  0  0  0  0  0  0  0  0  0
   10.2840  -18.1534   21.1213 O   0  0  0  0  0  0  0  0  0  0  0  0
   12.7204  -15.1789   20.4528 O   0  0  0  0  0  0  0  0  0  0  0  0
    9.6218  -18.1219   23.2738 O   0  0  0  0  0  0  0  0  0  0  0  0
  2  3  2  0
  2  1  1  0
  4  3  1  0
  5  4  2  0
  6  5  1  0
  7  6  1  0
  7  8  1  6
  9  7  1  0
  9 10  2  0
 11  5  1  0
 11 12  2  0
 12  2  1  0
 14 13  1  6
 14 15  1  0
 16 14  1  0
 17 18  1  0
 17 16  1  1
 18  9  1  0
 19 17  1  0
 20 19  2  0
 21 19  1  0
 22 23  1  1
 22 21  1  0
 23 24  1  0
 24 25  2  0
 24 28  1  0
 26 27  1  0
 26 22  1  0
 29 26  2  0
M  END
$$$$
