YLD.pdb
     RDKit          3D

 29 29  0  0  1  0  0  0  0  0999 V2000
    7.5318  -13.4207   15.7262 O   0  0  0  0  0  0  0  0  0  0  0  0
    7.5399  -13.7958   17.0521 C   0  0  0  0  0  0  0  0  0  0  0  0
    7.2777  -15.0938   17.4338 C   0  0  0  0  0  0  0  0  0  0  0  0
    7.2826  -15.4811   18.7516 C   0  0  0  0  0  0  0  0  0  0  0  0
    7.5614  -14.5319   19.7340 C   0  0  0  0  0  0  0  0  0  0  0  0
    7.5698  -14.9376   21.1632 C   0  0  0  0  0  0  0  0  0  0  0  0
    8.9587  -14.7730   21.7134 C   0  0  2  0  0  0  0  0  0  0  0  0
    9.8600  -15.5888   20.9405 N   0  0  0  0  0  0  0  0  0  0  0  0
    9.0416  -15.0632   23.1639 C   0  0  0  0  0  0  0  0  0  0  0  0
    9.9441  -15.8519   23.5422 O   0  0  0  0  0  0  0  0  0  0  0  0
    7.8298  -13.2158   19.3840 C   0  0  0  0  0  0  0  0  0  0  0  0
    7.8138  -12.8726   18.0465 C   0  0  0  0  0  0  0  0  0  0  0  0
    5.6733  -12.1240   26.8552 C   0  0  0  0  0  0  0  0  0  0  0  0
    6.9517  -12.6381   26.2241 C   0  0  1  0  0  0  0  0  0  0  0  0
    8.1071  -11.8024   26.6439 C   0  0  0  0  0  0  0  0  0  0  0  0
    7.1017  -14.1101   26.3239 C   0  0  0  0  0  0  0  0  0  0  0  0
    8.2605  -14.6974   25.5449 C   0  0  2  0  0  0  0  0  0  0  0  0
    8.1783  -14.5128   24.1304 N   0  0  0  0  0  0  0  0  0  0  0  0
    8.3982  -16.1138   25.9492 C   0  0  0  0  0  0  0  0  0  0  0  0
    7.3752  -16.8677   26.0976 O   0  0  0  0  0  0  0  0  0  0  0  0
    9.6468  -16.7441   26.2011 N   0  0  0  0  0  0  0  0  0  0  0  0
    9.7930  -18.1241   26.5724 C   0  0  1  0  0  0  0  0  0  0  0  0
   10.8109  -18.8617   25.7338 C   0  0  0  0  0  0  0  0  0  0  0  0
   10.9935  -20.2579   26.1541 C   0  0  0  0  0  0  0  0  0  0  0  0
   10.3597  -20.8106   27.0784 O   0  0  0  0  0  0  0  0  0  0  0  0
   10.0962  -18.2022   28.0163 C   0  0  0  0  0  0  0  0  0  0  0  0
   10.2793  -17.1012   28.8315 O   0  0  0  0  0  0  0  0  0  0  0  0
   11.9335  -21.0289   25.4857 O   0  0  0  0  0  0  0  0  0  0  0  0
   10.1958  -19.3337   28.5446 O   0  0  0  0  0  0  0  0  0  0  0  0
  2  3  2  0
  2  1  1  0
  4  3  1  0
  5  4  2  0
  6  5  1  0
  7  6  1  0
  7  8  1  6
  9  7  1  0
  9 10  2  0
 11  5  1  0
 11 12  2  0
 12  2  1  0
 14 13  1  1
 14 15  1  0
 16 14  1  0
 17 18  1  0
 17 16  1  1
 18  9  1  0
 19 17  1  0
 20 19  2  0
 21 19  1  0
 22 23  1  6
 22 21  1  0
 23 24  1  0
 24 25  2  0
 24 28  1  0
 26 27  1  0
 26 22  1  0
 29 26  2  0
M  END
$$$$
