YLD.pdb
     RDKit          3D

 29 29  0  0  1  0  0  0  0  0999 V2000
    7.7162  -13.9774   15.5895 O   0  0  0  0  0  0  0  0  0  0  0  0
    8.0339  -13.8387   16.9231 C   0  0  0  0  0  0  0  0  0  0  0  0
    7.1507  -13.2738   17.8176 C   0  0  0  0  0  0  0  0  0  0  0  0
    7.4546  -13.1296   19.1493 C   0  0  0  0  0  0  0  0  0  0  0  0
    8.6950  -13.5680   19.6110 C   0  0  0  0  0  0  0  0  0  0  0  0
    9.0363  -13.4177   21.0491 C   0  0  0  0  0  0  0  0  0  0  0  0
    9.1650  -14.7807   21.6693 C   0  0  2  0  0  0  0  0  0  0  0  0
    8.0428  -15.5832   21.2549 N   0  0  0  0  0  0  0  0  0  0  0  0
    9.3069  -14.7315   23.1432 C   0  0  0  0  0  0  0  0  0  0  0  0
   10.4651  -14.5730   23.6048 O   0  0  0  0  0  0  0  0  0  0  0  0
    9.6079  -14.1414   18.7367 C   0  0  0  0  0  0  0  0  0  0  0  0
    9.2586  -14.2659   17.4064 C   0  0  0  0  0  0  0  0  0  0  0  0
    7.8028  -12.0371   25.8145 C   0  0  0  0  0  0  0  0  0  0  0  0
    7.0811  -13.0180   26.7167 C   0  0  1  0  0  0  0  0  0  0  0  0
    5.7946  -12.4387   27.1847 C   0  0  0  0  0  0  0  0  0  0  0  0
    7.0514  -14.3978   26.1743 C   0  0  0  0  0  0  0  0  0  0  0  0
    8.3165  -14.8448   25.4712 C   0  0  2  0  0  0  0  0  0  0  0  0
    8.2320  -14.8503   24.0449 N   0  0  0  0  0  0  0  0  0  0  0  0
    8.7088  -16.1507   26.0452 C   0  0  0  0  0  0  0  0  0  0  0  0
    8.2679  -16.5395   27.1816 O   0  0  0  0  0  0  0  0  0  0  0  0
    9.5868  -17.0636   25.4006 N   0  0  0  0  0  0  0  0  0  0  0  0
   10.0182  -18.3083   25.9734 C   0  0  1  0  0  0  0  0  0  0  0  0
   10.6506  -19.2400   24.9657 C   0  0  0  0  0  0  0  0  0  0  0  0
    9.7777  -19.5158   23.8161 C   0  0  0  0  0  0  0  0  0  0  0  0
   10.1811  -19.7362   22.6542 O   0  0  0  0  0  0  0  0  0  0  0  0
   10.9149  -18.0260   27.1132 C   0  0  0  0  0  0  0  0  0  0  0  0
   11.3446  -18.9792   28.0171 O   0  0  0  0  0  0  0  0  0  0  0  0
    8.4058  -19.5360   24.0213 O   0  0  0  0  0  0  0  0  0  0  0  0
   11.3167  -16.8513   27.2795 O   0  0  0  0  0  0  0  0  0  0  0  0
  2  3  2  0
  2  1  1  0
  4  3  1  0
  5  4  2  0
  6  5  1  0
  7  6  1  0
  7  8  1  1
  9  7  1  0
  9 10  2  0
 11  5  1  0
 11 12  2  0
 12  2  1  0
 14 13  1  6
 14 15  1  0
 16 14  1  0
 17 18  1  0
 17 16  1  1
 18  9  1  0
 19 17  1  0
 20 19  2  0
 21 19  1  0
 22 23  1  6
 22 21  1  0
 23 24  1  0
 24 25  2  0
 24 28  1  0
 26 27  1  0
 26 22  1  0
 29 26  2  0
M  END
$$$$
