PPT.pdb
     RDKit          3D

 22 23  0  0  1  0  0  0  0  0999 V2000
   28.3581  -20.8034  -14.8094 N   0  0  0  0  0  0  0  0  0  0  0  0
   28.7267  -19.5699  -15.4850 C   0  0  0  0  0  0  0  0  0  0  0  0
   27.5502  -18.6960  -15.1099 C   0  0  0  0  0  0  0  0  0  0  0  0
   27.4574  -18.9414  -13.6223 C   0  0  0  0  0  0  0  0  0  0  0  0
   27.8417  -20.3985  -13.5138 C   0  0  1  0  0  0  0  0  0  0  0  0
   26.5980  -21.1667  -13.2507 C   0  0  0  0  0  0  0  0  0  0  0  0
   26.2982  -22.1917  -13.9534 O   0  0  0  0  0  0  0  0  0  0  0  0
   25.7126  -20.7986  -12.2258 N   0  0  0  0  0  0  0  0  0  0  0  0
   25.8287  -19.6959  -11.3281 C   0  0  0  0  0  0  0  0  0  0  0  0
   25.0596  -20.0667  -10.0754 C   0  0  0  0  0  0  0  0  0  0  0  0
   24.6135  -21.4757  -10.3492 C   0  0  0  0  0  0  0  0  0  0  0  0
   24.4813  -21.4988  -11.8632 C   0  0  1  0  0  0  0  0  0  0  0  0
   23.3331  -20.6835  -12.3048 C   0  0  0  0  0  0  0  0  0  0  0  0
   23.1489  -19.5069  -11.8972 O   0  0  0  0  0  0  0  0  0  0  0  0
   22.9734  -19.5297  -15.5782 C   0  0  0  0  0  0  0  0  0  0  0  0
   21.7127  -20.2926  -15.3065 C   0  0  1  0  0  0  0  0  0  0  0  0
   21.7325  -21.5506  -15.9105 O   0  0  0  0  0  0  0  0  0  0  0  0
   21.4012  -20.4053  -13.8294 C   0  0  2  0  0  0  0  0  0  0  0  0
   22.3909  -21.2497  -13.2323 N   0  0  0  0  0  0  0  0  0  0  0  0
   20.0607  -20.9363  -13.5810 C   0  0  0  0  0  0  0  0  0  0  0  0
   18.9523  -20.1689  -13.9012 O   0  0  0  0  0  0  0  0  0  0  0  0
   19.8631  -22.0781  -13.0813 O   0  0  0  0  0  0  0  0  0  0  0  0
  1  5  1  0
  2  1  1  0
  3  2  1  0
  3  4  1  0
  4  5  1  0
  5  6  1  6
  6  7  2  0
  8  6  1  0
  8 12  1  0
  9 10  1  0
  9  8  1  0
 11 10  1  0
 11 12  1  0
 12 13  1  1
 13 19  1  0
 13 14  2  0
 16 15  1  1
 16 17  1  0
 18 20  1  0
 18 16  1  0
 18 19  1  1
 20 21  1  0
 22 20  2  0
M  END
$$$$
