PPT.pdb
     RDKit          3D

 22 23  0  0  1  0  0  0  0  0999 V2000
   29.8240  -21.9436  -11.8003 N   0  0  0  0  0  0  0  0  0  0  0  0
   30.8725  -21.1551  -12.4270 C   0  0  0  0  0  0  0  0  0  0  0  0
   30.0366  -20.1177  -13.1438 C   0  0  0  0  0  0  0  0  0  0  0  0
   29.0885  -19.6886  -12.0489 C   0  0  0  0  0  0  0  0  0  0  0  0
   28.8587  -20.9806  -11.3002 C   0  0  1  0  0  0  0  0  0  0  0  0
   27.4988  -21.4622  -11.6539 C   0  0  0  0  0  0  0  0  0  0  0  0
   27.3389  -22.4913  -12.3952 O   0  0  0  0  0  0  0  0  0  0  0  0
   26.3466  -20.8098  -11.1884 N   0  0  0  0  0  0  0  0  0  0  0  0
   26.2707  -19.5714  -10.4843 C   0  0  0  0  0  0  0  0  0  0  0  0
   24.9927  -19.6072   -9.6696 C   0  0  0  0  0  0  0  0  0  0  0  0
   24.4574  -20.9876   -9.9285 C   0  0  0  0  0  0  0  0  0  0  0  0
   24.9732  -21.2922  -11.3255 C   0  0  1  0  0  0  0  0  0  0  0  0
   24.2854  -20.4627  -12.3341 C   0  0  0  0  0  0  0  0  0  0  0  0
   24.4819  -19.2232  -12.4310 O   0  0  0  0  0  0  0  0  0  0  0  0
   22.7779  -20.7370  -16.9091 C   0  0  0  0  0  0  0  0  0  0  0  0
   23.2790  -21.2930  -15.6110 C   0  0  1  0  0  0  0  0  0  0  0  0
   24.6422  -21.5866  -15.6693 O   0  0  0  0  0  0  0  0  0  0  0  0
   22.9671  -20.3991  -14.4298 C   0  0  2  0  0  0  0  0  0  0  0  0
   23.3586  -21.0889  -13.2382 N   0  0  0  0  0  0  0  0  0  0  0  0
   21.5519  -20.0332  -14.3656 C   0  0  0  0  0  0  0  0  0  0  0  0
   21.0640  -19.0439  -15.2041 O   0  0  0  0  0  0  0  0  0  0  0  0
   20.7421  -20.5846  -13.5702 O   0  0  0  0  0  0  0  0  0  0  0  0
  1  5  1  0
  2  1  1  0
  3  2  1  0
  3  4  1  0
  4  5  1  0
  5  6  1  6
  6  7  2  0
  8  6  1  0
  8 12  1  0
  9 10  1  0
  9  8  1  0
 11 10  1  0
 11 12  1  0
 12 13  1  6
 13 19  1  0
 13 14  2  0
 16 15  1  6
 16 17  1  0
 18 20  1  0
 18 16  1  0
 18 19  1  1
 20 21  1  0
 22 20  2  0
M  END
$$$$
