PPT.pdb
     RDKit          3D

 22 23  0  0  1  0  0  0  0  0999 V2000
   29.6123  -22.5767  -17.3504 N   0  0  0  0  0  0  0  0  0  0  0  0
   29.0879  -23.5845  -18.2576 C   0  0  0  0  0  0  0  0  0  0  0  0
   27.6285  -23.5717  -17.8591 C   0  0  0  0  0  0  0  0  0  0  0  0
   27.3326  -22.0905  -17.8543 C   0  0  0  0  0  0  0  0  0  0  0  0
   28.6306  -21.5065  -17.3478 C   0  0  1  0  0  0  0  0  0  0  0  0
   28.4084  -21.0859  -15.9406 C   0  0  0  0  0  0  0  0  0  0  0  0
   28.9860  -21.6925  -14.9749 O   0  0  0  0  0  0  0  0  0  0  0  0
   27.5623  -20.0124  -15.6218 N   0  0  0  0  0  0  0  0  0  0  0  0
   26.7667  -19.2349  -16.5149 C   0  0  0  0  0  0  0  0  0  0  0  0
   26.5695  -17.8811  -15.8620 C   0  0  0  0  0  0  0  0  0  0  0  0
   27.3951  -17.9787  -14.6098 C   0  0  0  0  0  0  0  0  0  0  0  0
   27.3404  -19.4626  -14.2853 C   0  0  1  0  0  0  0  0  0  0  0  0
   25.9900  -19.8550  -13.8372 C   0  0  0  0  0  0  0  0  0  0  0  0
   25.1044  -20.2490  -14.6403 O   0  0  0  0  0  0  0  0  0  0  0  0
   26.3740  -21.5216  -10.1799 C   0  0  0  0  0  0  0  0  0  0  0  0
   25.0405  -20.8805  -10.4161 C   0  0  1  0  0  0  0  0  0  0  0  0
   24.9242  -19.6687   -9.7335 O   0  0  0  0  0  0  0  0  0  0  0  0
   24.7244  -20.7069  -11.8863 C   0  0  2  0  0  0  0  0  0  0  0  0
   25.6721  -19.7859  -12.4363 N   0  0  0  0  0  0  0  0  0  0  0  0
   23.3597  -20.2293  -12.1108 C   0  0  0  0  0  0  0  0  0  0  0  0
   22.2903  -21.0692  -11.8449 O   0  0  0  0  0  0  0  0  0  0  0  0
   23.1068  -19.0706  -12.5418 O   0  0  0  0  0  0  0  0  0  0  0  0
  1  5  1  0
  2  1  1  0
  3  2  1  0
  3  4  1  0
  4  5  1  0
  5  6  1  1
  6  7  2  0
  8  6  1  0
  8 12  1  0
  9 10  1  0
  9  8  1  0
 11 10  1  0
 11 12  1  0
 12 13  1  6
 13 19  1  0
 13 14  2  0
 16 15  1  6
 16 17  1  0
 18 20  1  0
 18 16  1  0
 18 19  1  1
 20 21  1  0
 22 20  2  0
M  END
$$$$
