PPT.pdb
     RDKit          3D

 22 23  0  0  1  0  0  0  0  0999 V2000
   20.0849  -13.5051  -16.8446 N   0  0  0  0  0  0  0  0  0  0  0  0
   19.4151  -13.5723  -18.1332 C   0  0  0  0  0  0  0  0  0  0  0  0
   19.4980  -12.1219  -18.5553 C   0  0  0  0  0  0  0  0  0  0  0  0
   20.9522  -11.8144  -18.2857 C   0  0  0  0  0  0  0  0  0  0  0  0
   21.2270  -12.6306  -17.0444 C   0  0  1  0  0  0  0  0  0  0  0  0
   21.2934  -11.6872  -15.8990 C   0  0  0  0  0  0  0  0  0  0  0  0
   20.3077  -11.5599  -15.0951 O   0  0  0  0  0  0  0  0  0  0  0  0
   22.4349  -10.9069  -15.6580 N   0  0  0  0  0  0  0  0  0  0  0  0
   23.6109  -10.8118  -16.4601 C   0  0  0  0  0  0  0  0  0  0  0  0
   24.7422  -10.4095  -15.5347 C   0  0  0  0  0  0  0  0  0  0  0  0
   24.0903  -10.3922  -14.1805 C   0  0  0  0  0  0  0  0  0  0  0  0
   22.6493  -10.0336  -14.5051 C   0  0  1  0  0  0  0  0  0  0  0  0
   22.5432   -8.6319  -14.9549 C   0  0  0  0  0  0  0  0  0  0  0  0
   22.8823   -8.2707  -16.1120 O   0  0  0  0  0  0  0  0  0  0  0  0
   19.8836   -4.6873  -14.8028 C   0  0  0  0  0  0  0  0  0  0  0  0
   20.2743   -6.0875  -14.4393 C   0  0  1  0  0  0  0  0  0  0  0  0
   19.5799   -7.0292  -15.2001 O   0  0  0  0  0  0  0  0  0  0  0  0
   21.7679   -6.3202  -14.5202 C   0  0  2  0  0  0  0  0  0  0  0  0
   22.0355   -7.6429  -14.0425 N   0  0  0  0  0  0  0  0  0  0  0  0
   22.5283   -5.3362  -13.7493 C   0  0  0  0  0  0  0  0  0  0  0  0
   23.1616   -4.2946  -14.4081 O   0  0  0  0  0  0  0  0  0  0  0  0
   22.6363   -5.3920  -12.4933 O   0  0  0  0  0  0  0  0  0  0  0  0
  1  5  1  0
  2  1  1  0
  3  2  1  0
  3  4  1  0
  4  5  1  0
  5  6  1  1
  6  7  2  0
  8  6  1  0
  8 12  1  0
  9 10  1  0
  9  8  1  0
 11 10  1  0
 11 12  1  0
 12 13  1  6
 13 19  1  0
 13 14  2  0
 16 15  1  6
 16 17  1  0
 18 20  1  0
 18 16  1  0
 18 19  1  1
 20 21  1  0
 22 20  2  0
M  END
$$$$
