PPT.pdb
     RDKit          3D

 22 23  0  0  1  0  0  0  0  0999 V2000
   25.6711  -22.0782  -12.6291 N   0  0  0  0  0  0  0  0  0  0  0  0
   25.5488  -23.3384  -13.3438 C   0  0  0  0  0  0  0  0  0  0  0  0
   25.0883  -22.8376  -14.6950 C   0  0  0  0  0  0  0  0  0  0  0  0
   26.0740  -21.7223  -14.9526 C   0  0  0  0  0  0  0  0  0  0  0  0
   26.2856  -21.1562  -13.5680 C   0  0  1  0  0  0  0  0  0  0  0  0
   25.5507  -19.8672  -13.4989 C   0  0  0  0  0  0  0  0  0  0  0  0
   24.7816  -19.6018  -12.5128 O   0  0  0  0  0  0  0  0  0  0  0  0
   25.6744  -18.8985  -14.5069 N   0  0  0  0  0  0  0  0  0  0  0  0
   26.4677  -18.9689  -15.6905 C   0  0  0  0  0  0  0  0  0  0  0  0
   26.7814  -17.5417  -16.0943 C   0  0  0  0  0  0  0  0  0  0  0  0
   26.1732  -16.7283  -14.9863 C   0  0  0  0  0  0  0  0  0  0  0  0
   25.0111  -17.5957  -14.5308 C   0  0  1  0  0  0  0  0  0  0  0  0
   23.9475  -17.6319  -15.5534 C   0  0  0  0  0  0  0  0  0  0  0  0
   24.1935  -17.8365  -16.7708 O   0  0  0  0  0  0  0  0  0  0  0  0
   22.3517  -20.2507  -15.7685 C   0  0  0  0  0  0  0  0  0  0  0  0
   21.1961  -19.3142  -15.5880 C   0  0  1  0  0  0  0  0  0  0  0  0
   20.6942  -19.3612  -14.2866 O   0  0  0  0  0  0  0  0  0  0  0  0
   21.5239  -17.8924  -15.9915 C   0  0  2  0  0  0  0  0  0  0  0  0
   22.5828  -17.4268  -15.1484 N   0  0  0  0  0  0  0  0  0  0  0  0
   20.3657  -17.0037  -15.8934 C   0  0  0  0  0  0  0  0  0  0  0  0
   19.3513  -17.0983  -16.8325 O   0  0  0  0  0  0  0  0  0  0  0  0
   20.2452  -16.1417  -14.9798 O   0  0  0  0  0  0  0  0  0  0  0  0
  1  5  1  0
  2  1  1  0
  3  2  1  0
  3  4  1  0
  4  5  1  0
  5  6  1  6
  6  7  2  0
  8  6  1  0
  8 12  1  0
  9 10  1  0
  9  8  1  0
 11 10  1  0
 11 12  1  0
 12 13  1  6
 13 19  1  0
 13 14  2  0
 16 15  1  1
 16 17  1  0
 18 20  1  0
 18 16  1  0
 18 19  1  1
 20 21  1  0
 22 20  2  0
M  END
$$$$
