PPT.pdb
     RDKit          3D

 22 23  0  0  1  0  0  0  0  0999 V2000
   14.4941  -21.1396    1.9999 N   0  0  0  0  0  0  0  0  0  0  0  0
   15.2177  -21.8137    0.9343 C   0  0  0  0  0  0  0  0  0  0  0  0
   16.5116  -21.0300    0.9503 C   0  0  0  0  0  0  0  0  0  0  0  0
   16.8377  -21.0207    2.4252 C   0  0  0  0  0  0  0  0  0  0  0  0
   15.4680  -20.9222    3.0551 C   0  0  1  0  0  0  0  0  0  0  0  0
   15.3080  -19.5320    3.5533 C   0  0  0  0  0  0  0  0  0  0  0  0
   14.5547  -18.6985    2.9434 O   0  0  0  0  0  0  0  0  0  0  0  0
   15.9728  -19.0859    4.7061 N   0  0  0  0  0  0  0  0  0  0  0  0
   16.9711  -19.7741    5.4576 C   0  0  0  0  0  0  0  0  0  0  0  0
   16.9053  -19.2343    6.8727 C   0  0  0  0  0  0  0  0  0  0  0  0
   15.7416  -18.2842    6.8255 C   0  0  0  0  0  0  0  0  0  0  0  0
   15.7541  -17.8080    5.3821 C   0  0  1  0  0  0  0  0  0  0  0  0
   16.9180  -16.9380    5.1239 C   0  0  0  0  0  0  0  0  0  0  0  0
   18.0687  -17.4017    4.9112 O   0  0  0  0  0  0  0  0  0  0  0  0
   18.6296  -13.2072    2.8658 C   0  0  0  0  0  0  0  0  0  0  0  0
   17.5376  -14.1007    3.3699 C   0  0  1  0  0  0  0  0  0  0  0  0
   17.2459  -15.1193    2.4615 O   0  0  0  0  0  0  0  0  0  0  0  0
   17.8286  -14.6664    4.7435 C   0  0  2  0  0  0  0  0  0  0  0  0
   16.7344  -15.5116    5.1142 N   0  0  0  0  0  0  0  0  0  0  0  0
   18.0276  -13.6203    5.7469 C   0  0  0  0  0  0  0  0  0  0  0  0
   19.2171  -12.9099    5.7655 O   0  0  0  0  0  0  0  0  0  0  0  0
   17.1536  -13.3300    6.6095 O   0  0  0  0  0  0  0  0  0  0  0  0
  1  5  1  0
  2  1  1  0
  3  2  1  0
  3  4  1  0
  4  5  1  0
  5  6  1  6
  6  7  2  0
  8  6  1  0
  8 12  1  0
  9 10  1  0
  9  8  1  0
 11 10  1  0
 11 12  1  0
 12 13  1  1
 13 19  1  0
 13 14  2  0
 16 15  1  6
 16 17  1  0
 18 20  1  0
 18 16  1  0
 18 19  1  1
 20 21  1  0
 22 20  2  0
M  END
$$$$
