PPT.pdb
     RDKit          3D

 22 23  0  0  1  0  0  0  0  0999 V2000
   18.3313   -9.9563  -17.5610 N   0  0  0  0  0  0  0  0  0  0  0  0
   17.9188  -10.0619  -18.9512 C   0  0  0  0  0  0  0  0  0  0  0  0
   18.2947   -8.6835  -19.4486 C   0  0  0  0  0  0  0  0  0  0  0  0
   19.6993   -8.5439  -18.9107 C   0  0  0  0  0  0  0  0  0  0  0  0
   19.6071   -9.2627  -17.5850 C   0  0  1  0  0  0  0  0  0  0  0  0
   19.5913   -8.2279  -16.5196 C   0  0  0  0  0  0  0  0  0  0  0  0
   18.5105   -7.9383  -15.9013 O   0  0  0  0  0  0  0  0  0  0  0  0
   20.7560   -7.5354  -16.1537 N   0  0  0  0  0  0  0  0  0  0  0  0
   22.0358   -7.5899  -16.7816 C   0  0  0  0  0  0  0  0  0  0  0  0
   23.0599   -7.2314  -15.7229 C   0  0  0  0  0  0  0  0  0  0  0  0
   22.2303   -7.0770  -14.4791 C   0  0  0  0  0  0  0  0  0  0  0  0
   20.8885   -6.6161  -15.0244 C   0  0  1  0  0  0  0  0  0  0  0  0
   20.9775   -5.2400  -15.5504 C   0  0  0  0  0  0  0  0  0  0  0  0
   21.5068   -4.9793  -16.6622 O   0  0  0  0  0  0  0  0  0  0  0  0
   17.9976   -3.2571  -16.1769 C   0  0  0  0  0  0  0  0  0  0  0  0
   18.8818   -2.4344  -15.2900 C   0  0  1  0  0  0  0  0  0  0  0  0
   18.4220   -2.4241  -13.9723 O   0  0  0  0  0  0  0  0  0  0  0  0
   20.3341   -2.8565  -15.3541 C   0  0  2  0  0  0  0  0  0  0  0  0
   20.4422   -4.1582  -14.7684 N   0  0  0  0  0  0  0  0  0  0  0  0
   21.2195   -1.9141  -14.6694 C   0  0  0  0  0  0  0  0  0  0  0  0
   21.4781   -0.6800  -15.2438 O   0  0  0  0  0  0  0  0  0  0  0  0
   21.7674   -2.1763  -13.5633 O   0  0  0  0  0  0  0  0  0  0  0  0
  1  5  1  0
  2  1  1  0
  3  2  1  0
  3  4  1  0
  4  5  1  0
  5  6  1  1
  6  7  2  0
  8  6  1  0
  8 12  1  0
  9 10  1  0
  9  8  1  0
 11 10  1  0
 11 12  1  0
 12 13  1  6
 13 19  1  0
 13 14  2  0
 16 15  1  6
 16 17  1  0
 18 20  1  0
 18 16  1  0
 18 19  1  1
 20 21  1  0
 22 20  2  0
M  END
$$$$
