PPT.pdb
     RDKit          3D

 22 23  0  0  1  0  0  0  0  0999 V2000
   27.9424  -19.3031  -17.2765 N   0  0  0  0  0  0  0  0  0  0  0  0
   27.7059  -17.9602  -17.7810 C   0  0  0  0  0  0  0  0  0  0  0  0
   27.1402  -17.3030  -16.5413 C   0  0  0  0  0  0  0  0  0  0  0  0
   28.1391  -17.7325  -15.4926 C   0  0  0  0  0  0  0  0  0  0  0  0
   28.5008  -19.1270  -15.9475 C   0  0  1  0  0  0  0  0  0  0  0  0
   27.8251  -20.0815  -15.0315 C   0  0  0  0  0  0  0  0  0  0  0  0
   26.8902  -20.8451  -15.4521 O   0  0  0  0  0  0  0  0  0  0  0  0
   28.1876  -20.1803  -13.6792 N   0  0  0  0  0  0  0  0  0  0  0  0
   29.1386  -19.3865  -12.9717 C   0  0  0  0  0  0  0  0  0  0  0  0
   29.6405  -20.2292  -11.8157 C   0  0  0  0  0  0  0  0  0  0  0  0
   28.9521  -21.5486  -12.0266 C   0  0  0  0  0  0  0  0  0  0  0  0
   27.6594  -21.1472  -12.7180 C   0  0  1  0  0  0  0  0  0  0  0  0
   26.7617  -20.4369  -11.7864 C   0  0  0  0  0  0  0  0  0  0  0  0
   26.9096  -19.2178  -11.5099 O   0  0  0  0  0  0  0  0  0  0  0  0
   23.6744  -20.0491  -12.9582 C   0  0  0  0  0  0  0  0  0  0  0  0
   23.4005  -20.6101  -11.5961 C   0  0  1  0  0  0  0  0  0  0  0  0
   23.0043  -21.9468  -11.6604 O   0  0  0  0  0  0  0  0  0  0  0  0
   24.5643  -20.4350  -10.6439 C   0  0  2  0  0  0  0  0  0  0  0  0
   25.6803  -21.1592  -11.1722 N   0  0  0  0  0  0  0  0  0  0  0  0
   24.2520  -20.8955   -9.2907 C   0  0  0  0  0  0  0  0  0  0  0  0
   24.8708  -22.0326   -8.7969 O   0  0  0  0  0  0  0  0  0  0  0  0
   23.4329  -20.2968   -8.5404 O   0  0  0  0  0  0  0  0  0  0  0  0
  1  5  1  0
  2  1  1  0
  3  2  1  0
  3  4  1  0
  4  5  1  0
  5  6  1  1
  6  7  2  0
  8  6  1  0
  8 12  1  0
  9 10  1  0
  9  8  1  0
 11 10  1  0
 11 12  1  0
 12 13  1  1
 13 19  1  0
 13 14  2  0
 16 15  1  6
 16 17  1  0
 18 20  1  0
 18 16  1  0
 18 19  1  6
 20 21  1  0
 22 20  2  0
M  END
$$$$
