PPT.pdb
     RDKit          3D

 22 23  0  0  1  0  0  0  0  0999 V2000
   21.9137  -13.3561  -17.8099 N   0  0  0  0  0  0  0  0  0  0  0  0
   21.3707  -13.4231  -19.1570 C   0  0  0  0  0  0  0  0  0  0  0  0
   21.4693  -11.9680  -19.5592 C   0  0  0  0  0  0  0  0  0  0  0  0
   22.8859  -11.6398  -19.1504 C   0  0  0  0  0  0  0  0  0  0  0  0
   23.0550  -12.4619  -17.8942 C   0  0  1  0  0  0  0  0  0  0  0  0
   22.9965  -11.5272  -16.7412 C   0  0  0  0  0  0  0  0  0  0  0  0
   21.9899  -11.5184  -15.9534 O   0  0  0  0  0  0  0  0  0  0  0  0
   24.0391  -10.6260  -16.4753 N   0  0  0  0  0  0  0  0  0  0  0  0
   25.1914  -10.3658  -17.2752 C   0  0  0  0  0  0  0  0  0  0  0  0
   26.2722   -9.8638  -16.3381 C   0  0  0  0  0  0  0  0  0  0  0  0
   25.6299   -9.9691  -14.9833 C   0  0  0  0  0  0  0  0  0  0  0  0
   24.1550   -9.7726  -15.2937 C   0  0  1  0  0  0  0  0  0  0  0  0
   23.8817   -8.3790  -15.6955 C   0  0  0  0  0  0  0  0  0  0  0  0
   24.4125   -7.8567  -16.7104 O   0  0  0  0  0  0  0  0  0  0  0  0
   20.8870   -7.3651  -16.9835 C   0  0  0  0  0  0  0  0  0  0  0  0
   21.0794   -6.4647  -15.8014 C   0  0  1  0  0  0  0  0  0  0  0  0
   20.2992   -6.8666  -14.7163 O   0  0  0  0  0  0  0  0  0  0  0  0
   22.5325   -6.3231  -15.4014 C   0  0  2  0  0  0  0  0  0  0  0  0
   22.9789   -7.5885  -14.9028 N   0  0  0  0  0  0  0  0  0  0  0  0
   22.7352   -5.2789  -14.3967 C   0  0  0  0  0  0  0  0  0  0  0  0
   22.6012   -3.9482  -14.7586 O   0  0  0  0  0  0  0  0  0  0  0  0
   23.0309   -5.5371  -13.1974 O   0  0  0  0  0  0  0  0  0  0  0  0
  1  5  1  0
  2  1  1  0
  3  2  1  0
  3  4  1  0
  4  5  1  0
  5  6  1  1
  6  7  2  0
  8  6  1  0
  8 12  1  0
  9 10  1  0
  9  8  1  0
 11 10  1  0
 11 12  1  0
 12 13  1  6
 13 19  1  0
 13 14  2  0
 16 15  1  6
 16 17  1  0
 18 20  1  0
 18 16  1  0
 18 19  1  1
 20 21  1  0
 22 20  2  0
M  END
$$$$
