PPT.pdb
     RDKit          3D

 22 23  0  0  1  0  0  0  0  0999 V2000
   16.6141  -10.1369  -13.3218 N   0  0  0  0  0  0  0  0  0  0  0  0
   17.7635  -10.2333  -14.2070 C   0  0  0  0  0  0  0  0  0  0  0  0
   18.2484   -8.8006  -14.1749 C   0  0  0  0  0  0  0  0  0  0  0  0
   18.2472   -8.5174  -12.6912 C   0  0  0  0  0  0  0  0  0  0  0  0
   17.0423   -9.2962  -12.2177 C   0  0  1  0  0  0  0  0  0  0  0  0
   15.9626   -8.3154  -11.9371 C   0  0  0  0  0  0  0  0  0  0  0  0
   14.9724   -8.1828  -12.7347 O   0  0  0  0  0  0  0  0  0  0  0  0
   15.9891   -7.5045  -10.7919 N   0  0  0  0  0  0  0  0  0  0  0  0
   17.0301   -7.4000   -9.8220 C   0  0  0  0  0  0  0  0  0  0  0  0
   16.3806   -6.9524   -8.5274 C   0  0  0  0  0  0  0  0  0  0  0  0
   14.9171   -6.9209   -8.8688 C   0  0  0  0  0  0  0  0  0  0  0  0
   14.9249   -6.6021  -10.3549 C   0  0  1  0  0  0  0  0  0  0  0  0
   15.3629   -5.2131  -10.5940 C   0  0  0  0  0  0  0  0  0  0  0  0
   16.5774   -4.8822  -10.5905 O   0  0  0  0  0  0  0  0  0  0  0  0
   13.7917   -1.1766  -12.9537 C   0  0  0  0  0  0  0  0  0  0  0  0
   13.5354   -2.4797  -12.2598 C   0  0  1  0  0  0  0  0  0  0  0  0
   13.0374   -3.4418  -13.1397 O   0  0  0  0  0  0  0  0  0  0  0  0
   14.7490   -2.9992  -11.5190 C   0  0  2  0  0  0  0  0  0  0  0  0
   14.3710   -4.2011  -10.8396 N   0  0  0  0  0  0  0  0  0  0  0  0
   15.2827   -2.0228  -10.5689 C   0  0  0  0  0  0  0  0  0  0  0  0
   14.7910   -1.9913   -9.2739 O   0  0  0  0  0  0  0  0  0  0  0  0
   16.1838   -1.1952  -10.8779 O   0  0  0  0  0  0  0  0  0  0  0  0
  1  5  1  0
  2  1  1  0
  3  2  1  0
  3  4  1  0
  4  5  1  0
  5  6  1  6
  6  7  2  0
  8  6  1  0
  8 12  1  0
  9 10  1  0
  9  8  1  0
 11 10  1  0
 11 12  1  0
 12 13  1  1
 13 19  1  0
 13 14  2  0
 16 15  1  6
 16 17  1  0
 18 20  1  0
 18 16  1  0
 18 19  1  1
 20 21  1  0
 22 20  2  0
M  END
$$$$
