PPT.pdb
     RDKit          3D

 22 23  0  0  1  0  0  0  0  0999 V2000
   28.4148  -20.4070  -15.3207 N   0  0  0  0  0  0  0  0  0  0  0  0
   28.7429  -19.1626  -15.9973 C   0  0  0  0  0  0  0  0  0  0  0  0
   27.5562  -18.3158  -15.5930 C   0  0  0  0  0  0  0  0  0  0  0  0
   27.4999  -18.5704  -14.1052 C   0  0  0  0  0  0  0  0  0  0  0  0
   27.9173  -20.0195  -14.0125 C   0  0  1  0  0  0  0  0  0  0  0  0
   26.6960  -20.8154  -13.7275 C   0  0  0  0  0  0  0  0  0  0  0  0
   26.3240  -21.7518  -14.5143 O   0  0  0  0  0  0  0  0  0  0  0  0
   25.9113  -20.5710  -12.5898 N   0  0  0  0  0  0  0  0  0  0  0  0
   26.0750  -19.5331  -11.6248 C   0  0  0  0  0  0  0  0  0  0  0  0
   25.4632  -20.0353  -10.3318 C   0  0  0  0  0  0  0  0  0  0  0  0
   25.0530  -21.4417  -10.6680 C   0  0  0  0  0  0  0  0  0  0  0  0
   24.7588  -21.3598  -12.1570 C   0  0  1  0  0  0  0  0  0  0  0  0
   23.5345  -20.5755  -12.4103 C   0  0  0  0  0  0  0  0  0  0  0  0
   23.4615  -19.3446  -12.1574 O   0  0  0  0  0  0  0  0  0  0  0  0
   22.4839  -20.5068  -15.8090 C   0  0  0  0  0  0  0  0  0  0  0  0
   21.2539  -20.8557  -15.0277 C   0  0  1  0  0  0  0  0  0  0  0  0
   20.9307  -22.2076  -15.1537 O   0  0  0  0  0  0  0  0  0  0  0  0
   21.3500  -20.4548  -13.5711 C   0  0  2  0  0  0  0  0  0  0  0  0
   22.3842  -21.2371  -12.9648 N   0  0  0  0  0  0  0  0  0  0  0  0
   20.0862  -20.6393  -12.8573 C   0  0  0  0  0  0  0  0  0  0  0  0
   19.9873  -21.6244  -11.8880 O   0  0  0  0  0  0  0  0  0  0  0  0
   19.0662  -19.9325  -13.0862 O   0  0  0  0  0  0  0  0  0  0  0  0
  1  5  1  0
  2  1  1  0
  3  2  1  0
  3  4  1  0
  4  5  1  0
  5  6  1  6
  6  7  2  0
  8  6  1  0
  8 12  1  0
  9 10  1  0
  9  8  1  0
 11 10  1  0
 11 12  1  0
 12 13  1  1
 13 19  1  0
 13 14  2  0
 16 15  1  6
 16 17  1  0
 18 20  1  0
 18 16  1  0
 18 19  1  1
 20 21  1  0
 22 20  2  0
M  END
$$$$
