PPT.pdb
     RDKit          3D

 22 23  0  0  1  0  0  0  0  0999 V2000
   27.7398  -18.6927  -17.2024 N   0  0  0  0  0  0  0  0  0  0  0  0
   27.5934  -17.2917  -17.5624 C   0  0  0  0  0  0  0  0  0  0  0  0
   26.9181  -16.7631  -16.3161 C   0  0  0  0  0  0  0  0  0  0  0  0
   27.7893  -17.3512  -15.2313 C   0  0  0  0  0  0  0  0  0  0  0  0
   28.1597  -18.6957  -15.8122 C   0  0  1  0  0  0  0  0  0  0  0  0
   27.3663  -19.7240  -15.0914 C   0  0  0  0  0  0  0  0  0  0  0  0
   26.4684  -20.4038  -15.6963 O   0  0  0  0  0  0  0  0  0  0  0  0
   27.5735  -19.9865  -13.7283 N   0  0  0  0  0  0  0  0  0  0  0  0
   28.4572  -19.3109  -12.8352 C   0  0  0  0  0  0  0  0  0  0  0  0
   28.8082  -20.2950  -11.7367 C   0  0  0  0  0  0  0  0  0  0  0  0
   28.1182  -21.5575  -12.1716 C   0  0  0  0  0  0  0  0  0  0  0  0
   26.9199  -21.0361  -12.9478 C   0  0  1  0  0  0  0  0  0  0  0  0
   25.9401  -20.4038  -12.0432 C   0  0  0  0  0  0  0  0  0  0  0  0
   26.1327  -19.2698  -11.5320 O   0  0  0  0  0  0  0  0  0  0  0  0
   22.4475  -20.2008  -13.2795 C   0  0  0  0  0  0  0  0  0  0  0  0
   22.3819  -20.6784  -11.8608 C   0  0  1  0  0  0  0  0  0  0  0  0
   22.0359  -22.0285  -11.7880 O   0  0  0  0  0  0  0  0  0  0  0  0
   23.6546  -20.4027  -11.0889 C   0  0  2  0  0  0  0  0  0  0  0  0
   24.7230  -21.1045  -11.7332 N   0  0  0  0  0  0  0  0  0  0  0  0
   23.5539  -20.8043   -9.6856 C   0  0  0  0  0  0  0  0  0  0  0  0
   22.6869  -20.1278   -8.8426 O   0  0  0  0  0  0  0  0  0  0  0  0
   24.2299  -21.7523   -9.1991 O   0  0  0  0  0  0  0  0  0  0  0  0
  1  5  1  0
  2  1  1  0
  3  2  1  0
  3  4  1  0
  4  5  1  0
  5  6  1  1
  6  7  2  0
  8  6  1  0
  8 12  1  0
  9 10  1  0
  9  8  1  0
 11 10  1  0
 11 12  1  0
 12 13  1  1
 13 19  1  0
 13 14  2  0
 16 15  1  6
 16 17  1  0
 18 20  1  0
 18 16  1  0
 18 19  1  6
 20 21  1  0
 22 20  2  0
M  END
$$$$
