PPT.pdb
     RDKit          3D

 22 23  0  0  1  0  0  0  0  0999 V2000
   27.9374  -18.7948  -15.9048 N   0  0  0  0  0  0  0  0  0  0  0  0
   28.0197  -17.3685  -16.1744 C   0  0  0  0  0  0  0  0  0  0  0  0
   26.8326  -16.8752  -15.3769 C   0  0  0  0  0  0  0  0  0  0  0  0
   27.0452  -17.5789  -14.0573 C   0  0  0  0  0  0  0  0  0  0  0  0
   27.6209  -18.9064  -14.4918 C   0  0  1  0  0  0  0  0  0  0  0  0
   26.5518  -19.9257  -14.3361 C   0  0  0  0  0  0  0  0  0  0  0  0
   26.1455  -20.6093  -15.3370 O   0  0  0  0  0  0  0  0  0  0  0  0
   25.9533  -20.1753  -13.0913 N   0  0  0  0  0  0  0  0  0  0  0  0
   26.1197  -19.4387  -11.8810 C   0  0  0  0  0  0  0  0  0  0  0  0
   25.8348  -20.3968  -10.7413 C   0  0  0  0  0  0  0  0  0  0  0  0
   25.5989  -21.7055  -11.4418 C   0  0  0  0  0  0  0  0  0  0  0  0
   25.0354  -21.2715  -12.7851 C   0  0  1  0  0  0  0  0  0  0  0  0
   23.6773  -20.7145  -12.6323 C   0  0  0  0  0  0  0  0  0  0  0  0
   23.4580  -19.6402  -12.0140 O   0  0  0  0  0  0  0  0  0  0  0  0
   21.7299  -21.4180  -15.9013 C   0  0  0  0  0  0  0  0  0  0  0  0
   21.4458  -20.2763  -14.9735 C   0  0  1  0  0  0  0  0  0  0  0  0
   20.2977  -19.5790  -15.3525 O   0  0  0  0  0  0  0  0  0  0  0  0
   21.3665  -20.7036  -13.5234 C   0  0  2  0  0  0  0  0  0  0  0  0
   22.5646  -21.4207  -13.2080 N   0  0  0  0  0  0  0  0  0  0  0  0
   20.1905  -21.5296  -13.2488 C   0  0  0  0  0  0  0  0  0  0  0  0
   18.9511  -20.9267  -13.1065 O   0  0  0  0  0  0  0  0  0  0  0  0
   20.2526  -22.7847  -13.1336 O   0  0  0  0  0  0  0  0  0  0  0  0
  1  5  1  0
  2  1  1  0
  3  2  1  0
  3  4  1  0
  4  5  1  0
  5  6  1  6
  6  7  2  0
  8  6  1  0
  8 12  1  0
  9 10  1  0
  9  8  1  0
 11 10  1  0
 11 12  1  0
 12 13  1  1
 13 19  1  0
 13 14  2  0
 16 15  1  6
 16 17  1  0
 18 20  1  0
 18 16  1  0
 18 19  1  6
 20 21  1  0
 22 20  2  0
M  END
$$$$
