PPT.pdb
     RDKit          3D

 22 23  0  0  1  0  0  0  0  0999 V2000
   28.6068  -21.0387  -14.7917 N   0  0  0  0  0  0  0  0  0  0  0  0
   29.0134  -19.9164  -15.6217 C   0  0  0  0  0  0  0  0  0  0  0  0
   27.8050  -19.0188  -15.4709 C   0  0  0  0  0  0  0  0  0  0  0  0
   27.6051  -19.0349  -13.9737 C   0  0  0  0  0  0  0  0  0  0  0  0
   27.9931  -20.4502  -13.6144 C   0  0  1  0  0  0  0  0  0  0  0  0
   26.7400  -21.1936  -13.3252 C   0  0  0  0  0  0  0  0  0  0  0  0
   26.4320  -22.2435  -13.9862 O   0  0  0  0  0  0  0  0  0  0  0  0
   25.8546  -20.7739  -12.3203 N   0  0  0  0  0  0  0  0  0  0  0  0
   25.9792  -19.6364  -11.4684 C   0  0  0  0  0  0  0  0  0  0  0  0
   25.2010  -19.9468  -10.2049 C   0  0  0  0  0  0  0  0  0  0  0  0
   24.7407  -21.3610  -10.4222 C   0  0  0  0  0  0  0  0  0  0  0  0
   24.6143  -21.4453  -11.9346 C   0  0  1  0  0  0  0  0  0  0  0  0
   23.4768  -20.6367  -12.4146 C   0  0  0  0  0  0  0  0  0  0  0  0
   23.4913  -19.3782  -12.3928 O   0  0  0  0  0  0  0  0  0  0  0  0
   22.9580  -20.7859  -15.7298 C   0  0  0  0  0  0  0  0  0  0  0  0
   21.5939  -21.0852  -15.1870 C   0  0  1  0  0  0  0  0  0  0  0  0
   21.2872  -22.4431  -15.2867 O   0  0  0  0  0  0  0  0  0  0  0  0
   21.4041  -20.5893  -13.7694 C   0  0  2  0  0  0  0  0  0  0  0  0
   22.3109  -21.3063  -12.9253 N   0  0  0  0  0  0  0  0  0  0  0  0
   20.0288  -20.7571  -13.2992 C   0  0  0  0  0  0  0  0  0  0  0  0
   19.0107  -20.0284  -13.8928 O   0  0  0  0  0  0  0  0  0  0  0  0
   19.7211  -21.5466  -12.3640 O   0  0  0  0  0  0  0  0  0  0  0  0
  1  5  1  0
  2  1  1  0
  3  2  1  0
  3  4  1  0
  4  5  1  0
  5  6  1  6
  6  7  2  0
  8  6  1  0
  8 12  1  0
  9 10  1  0
  9  8  1  0
 11 10  1  0
 11 12  1  0
 12 13  1  6
 13 19  1  0
 13 14  2  0
 16 15  1  1
 16 17  1  0
 18 20  1  0
 18 16  1  0
 18 19  1  1
 20 21  1  0
 22 20  2  0
M  END
$$$$
