PPT.pdb
     RDKit          3D

 22 23  0  0  1  0  0  0  0  0999 V2000
   28.0217  -19.0210  -16.5092 N   0  0  0  0  0  0  0  0  0  0  0  0
   28.1927  -17.6137  -16.8317 C   0  0  0  0  0  0  0  0  0  0  0  0
   27.1161  -17.0054  -15.9601 C   0  0  0  0  0  0  0  0  0  0  0  0
   27.3796  -17.6882  -14.6387 C   0  0  0  0  0  0  0  0  0  0  0  0
   27.8132  -19.0688  -15.0728 C   0  0  1  0  0  0  0  0  0  0  0  0
   26.6840  -19.9945  -14.7996 C   0  0  0  0  0  0  0  0  0  0  0  0
   26.0327  -20.5362  -15.7569 O   0  0  0  0  0  0  0  0  0  0  0  0
   26.2944  -20.3076  -13.4881 N   0  0  0  0  0  0  0  0  0  0  0  0
   26.8405  -19.7997  -12.2720 C   0  0  0  0  0  0  0  0  0  0  0  0
   26.5813  -20.8442  -11.2043 C   0  0  0  0  0  0  0  0  0  0  0  0
   25.9445  -21.9697  -11.9704 C   0  0  0  0  0  0  0  0  0  0  0  0
   25.2407  -21.2471  -13.1074 C   0  0  1  0  0  0  0  0  0  0  0  0
   24.0859  -20.4759  -12.6074 C   0  0  0  0  0  0  0  0  0  0  0  0
   24.2059  -19.3115  -12.1448 O   0  0  0  0  0  0  0  0  0  0  0  0
   22.1588  -21.0402  -15.4198 C   0  0  0  0  0  0  0  0  0  0  0  0
   21.9065  -19.8731  -14.5146 C   0  0  1  0  0  0  0  0  0  0  0  0
   20.8675  -19.0703  -14.9878 O   0  0  0  0  0  0  0  0  0  0  0  0
   21.6619  -20.2856  -13.0788 C   0  0  2  0  0  0  0  0  0  0  0  0
   22.7778  -21.0724  -12.6489 N   0  0  0  0  0  0  0  0  0  0  0  0
   20.4166  -21.0367  -12.9186 C   0  0  0  0  0  0  0  0  0  0  0  0
   19.2279  -20.3531  -12.7194 O   0  0  0  0  0  0  0  0  0  0  0  0
   20.3731  -22.2974  -12.9539 O   0  0  0  0  0  0  0  0  0  0  0  0
  1  5  1  0
  2  1  1  0
  3  2  1  0
  3  4  1  0
  4  5  1  0
  5  6  1  6
  6  7  2  0
  8  6  1  0
  8 12  1  0
  9 10  1  0
  9  8  1  0
 11 10  1  0
 11 12  1  0
 12 13  1  1
 13 19  1  0
 13 14  2  0
 16 15  1  6
 16 17  1  0
 18 20  1  0
 18 16  1  0
 18 19  1  6
 20 21  1  0
 22 20  2  0
M  END
$$$$
