GEY.pdb
     RDKit          3D

 26 26  0  0  1  0  0  0  0  0999 V2000
    7.5309  -12.7455   18.1774 N   0  0  0  0  0  0  0  0  0  0  0  0
    8.8265  -13.2481   18.5443 C   0  0  0  0  0  0  0  0  0  0  0  0
    8.7165  -14.3559   19.5509 C   0  0  0  0  0  0  0  0  0  0  0  0
    7.6446  -14.5725   20.1693 O   0  0  0  0  0  0  0  0  0  0  0  0
    9.8166  -15.2058   19.8475 N   0  0  0  0  0  0  0  0  0  0  0  0
    9.7099  -16.2976   20.8298 C   0  0  1  0  0  0  0  0  0  0  0  0
   10.4832  -17.4393   20.2868 C   0  0  0  0  0  0  0  0  0  0  0  0
    9.9228  -18.0998   19.0790 C   0  0  0  0  0  0  0  0  0  0  0  0
   10.6984  -19.2388   18.5766 C   0  0  0  0  0  0  0  0  0  0  0  0
   11.9422  -19.3050   18.7254 O   0  0  0  0  0  0  0  0  0  0  0  0
   10.2176  -15.7635   22.1006 C   0  0  0  0  0  0  0  0  0  0  0  0
   10.9505  -14.7416   22.0678 O   0  0  0  0  0  0  0  0  0  0  0  0
   10.0681  -20.2811   17.9180 O   0  0  0  0  0  0  0  0  0  0  0  0
    5.6444  -11.6283   27.8255 O   0  0  0  0  0  0  0  0  0  0  0  0
    6.2793  -12.4211   26.8754 C   0  0  0  0  0  0  0  0  0  0  0  0
    7.3555  -11.9232   26.1773 C   0  0  0  0  0  0  0  0  0  0  0  0
    7.9780  -12.6992   25.2467 C   0  0  0  0  0  0  0  0  0  0  0  0
    7.5291  -13.9826   25.0053 C   0  0  0  0  0  0  0  0  0  0  0  0
    8.1695  -14.8424   23.9999 C   0  0  0  0  0  0  0  0  0  0  0  0
    9.4555  -15.4621   24.4668 C   0  0  2  0  0  0  0  0  0  0  0  0
    9.9372  -16.3240   23.3767 N   0  0  0  0  0  0  0  0  0  0  0  0
    9.2311  -16.2551   25.6907 C   0  0  0  0  0  0  0  0  0  0  0  0
    9.6673  -15.8137   26.7983 O   0  0  0  0  0  0  0  0  0  0  0  0
    6.4572  -14.4759   25.7015 C   0  0  0  0  0  0  0  0  0  0  0  0
    5.8320  -13.6934   26.6379 C   0  0  0  0  0  0  0  0  0  0  0  0
    8.5750  -17.4542   25.7299 O   0  0  0  0  0  0  0  0  0  0  0  0
  2  1  1  0
  3  2  1  0
  4  3  2  0
  5  3  1  0
  6  5  1  0
  6  7  1  6
  8  7  1  0
  9  8  1  0
 10  9  2  0
 11  6  1  0
 11 21  1  0
 12 11  2  0
 13  9  1  0
 15 14  1  0
 16 15  2  0
 17 16  1  0
 18 17  2  0
 18 24  1  0
 19 18  1  0
 20 21  1  0
 20 22  1  0
 20 19  1  6
 22 26  1  0
 23 22  2  0
 24 25  2  0
 25 15  1  0
M  END
$$$$
