GEY.pdb
     RDKit          3D

 26 26  0  0  1  0  0  0  0  0999 V2000
    6.9418  -12.5761   19.4185 N   0  0  0  0  0  0  0  0  0  0  0  0
    8.2416  -13.0013   19.8607 C   0  0  0  0  0  0  0  0  0  0  0  0
    8.1533  -14.2451   20.6961 C   0  0  0  0  0  0  0  0  0  0  0  0
    7.0436  -14.7321   21.0273 O   0  0  0  0  0  0  0  0  0  0  0  0
    9.3175  -14.9241   21.1476 N   0  0  0  0  0  0  0  0  0  0  0  0
    9.2387  -16.2207   21.8413 C   0  0  1  0  0  0  0  0  0  0  0  0
   10.1668  -17.1388   21.1399 C   0  0  0  0  0  0  0  0  0  0  0  0
   10.2781  -18.5134   21.6939 C   0  0  0  0  0  0  0  0  0  0  0  0
   11.1469  -19.4208   20.9369 C   0  0  0  0  0  0  0  0  0  0  0  0
   12.1279  -19.9913   21.4714 O   0  0  0  0  0  0  0  0  0  0  0  0
    9.5798  -15.9610   23.2463 C   0  0  0  0  0  0  0  0  0  0  0  0
   10.6121  -15.2863   23.4946 O   0  0  0  0  0  0  0  0  0  0  0  0
   10.9018  -19.6722   19.5974 O   0  0  0  0  0  0  0  0  0  0  0  0
    6.1100  -10.6980   26.0096 O   0  0  0  0  0  0  0  0  0  0  0  0
    6.5982  -11.9935   26.1419 C   0  0  0  0  0  0  0  0  0  0  0  0
    5.9468  -13.0366   25.5247 C   0  0  0  0  0  0  0  0  0  0  0  0
    6.4245  -14.3058   25.6537 C   0  0  0  0  0  0  0  0  0  0  0  0
    7.5600  -14.5439   26.4026 C   0  0  0  0  0  0  0  0  0  0  0  0
    8.0955  -15.9021   26.5726 C   0  0  0  0  0  0  0  0  0  0  0  0
    9.3025  -16.1854   25.7249 C   0  0  2  0  0  0  0  0  0  0  0  0
    8.8196  -16.4218   24.3559 N   0  0  0  0  0  0  0  0  0  0  0  0
   10.0208  -17.3710   26.2306 C   0  0  0  0  0  0  0  0  0  0  0  0
    9.9734  -18.4500   25.5631 O   0  0  0  0  0  0  0  0  0  0  0  0
    8.2066  -13.5036   27.0164 C   0  0  0  0  0  0  0  0  0  0  0  0
    7.7244  -12.2267   26.8853 C   0  0  0  0  0  0  0  0  0  0  0  0
   10.7514  -17.4023   27.3861 O   0  0  0  0  0  0  0  0  0  0  0  0
  2  1  1  0
  3  2  1  0
  4  3  2  0
  5  3  1  0
  6  5  1  0
  6  7  1  6
  8  7  1  0
  9  8  1  0
 10  9  2  0
 11  6  1  0
 11 21  1  0
 12 11  2  0
 13  9  1  0
 15 14  1  0
 16 15  2  0
 17 16  1  0
 18 17  2  0
 18 24  1  0
 19 18  1  0
 20 21  1  0
 20 22  1  0
 20 19  1  1
 22 26  1  0
 23 22  2  0
 24 25  2  0
 25 15  1  0
M  END
$$$$
