GEY.pdb
     RDKit          3D

 26 26  0  0  1  0  0  0  0  0999 V2000
    5.7345  -14.8366   20.2411 N   0  0  0  0  0  0  0  0  0  0  0  0
    6.5580  -14.3265   21.3029 C   0  0  0  0  0  0  0  0  0  0  0  0
    7.3554  -15.4219   21.9485 C   0  0  0  0  0  0  0  0  0  0  0  0
    6.8040  -16.3005   22.6573 O   0  0  0  0  0  0  0  0  0  0  0  0
    8.7647  -15.5129   21.7868 N   0  0  0  0  0  0  0  0  0  0  0  0
    9.5479  -16.5946   22.4072 C   0  0  1  0  0  0  0  0  0  0  0  0
   10.8407  -16.6557   21.6851 C   0  0  0  0  0  0  0  0  0  0  0  0
   11.7598  -17.7579   22.0713 C   0  0  0  0  0  0  0  0  0  0  0  0
   12.4344  -18.4259   20.9533 C   0  0  0  0  0  0  0  0  0  0  0  0
   12.9230  -19.5752   21.0713 O   0  0  0  0  0  0  0  0  0  0  0  0
    9.6585  -16.2614   23.8336 C   0  0  0  0  0  0  0  0  0  0  0  0
   10.2918  -15.2235   24.1562 O   0  0  0  0  0  0  0  0  0  0  0  0
   12.5492  -17.7958   19.7256 O   0  0  0  0  0  0  0  0  0  0  0  0
    6.5611  -11.0064   26.0059 O   0  0  0  0  0  0  0  0  0  0  0  0
    6.9452  -12.3221   26.2412 C   0  0  0  0  0  0  0  0  0  0  0  0
    8.1175  -12.5832   26.9126 C   0  0  0  0  0  0  0  0  0  0  0  0
    8.4943  -13.8718   27.1435 C   0  0  0  0  0  0  0  0  0  0  0  0
    7.7006  -14.9130   26.7043 C   0  0  0  0  0  0  0  0  0  0  0  0
    8.0831  -16.3148   26.9258 C   0  0  0  0  0  0  0  0  0  0  0  0
    9.3880  -16.6927   26.2854 C   0  0  2  0  0  0  0  0  0  0  0  0
    9.0958  -17.0352   24.8853 N   0  0  0  0  0  0  0  0  0  0  0  0
    9.9902  -17.8447   26.9834 C   0  0  0  0  0  0  0  0  0  0  0  0
   10.0847  -18.9535   26.3723 O   0  0  0  0  0  0  0  0  0  0  0  0
    6.5339  -14.6504   26.0359 C   0  0  0  0  0  0  0  0  0  0  0  0
    6.1562  -13.3528   25.8044 C   0  0  0  0  0  0  0  0  0  0  0  0
   10.4672  -17.8140   28.2647 O   0  0  0  0  0  0  0  0  0  0  0  0
  2  1  1  0
  3  2  1  0
  4  3  2  0
  5  3  1  0
  6  5  1  0
  6  7  1  6
  8  7  1  0
  9  8  1  0
 10  9  2  0
 11  6  1  0
 11 21  1  0
 12 11  2  0
 13  9  1  0
 15 14  1  0
 16 15  2  0
 17 16  1  0
 18 17  2  0
 18 24  1  0
 19 18  1  0
 20 21  1  0
 20 22  1  0
 20 19  1  1
 22 26  1  0
 23 22  2  0
 24 25  2  0
 25 15  1  0
M  END
$$$$
