GEY.pdb
     RDKit          3D

 26 26  0  0  1  0  0  0  0  0999 V2000
    5.0374  -15.4885   20.6618 N   0  0  0  0  0  0  0  0  0  0  0  0
    6.3893  -15.0004   20.6544 C   0  0  0  0  0  0  0  0  0  0  0  0
    7.3269  -15.9822   21.2945 C   0  0  0  0  0  0  0  0  0  0  0  0
    6.9031  -17.0381   21.8270 O   0  0  0  0  0  0  0  0  0  0  0  0
    8.7306  -15.7609   21.3260 N   0  0  0  0  0  0  0  0  0  0  0  0
    9.6498  -16.7057   21.9825 C   0  0  1  0  0  0  0  0  0  0  0  0
   10.9201  -16.6670   21.2202 C   0  0  0  0  0  0  0  0  0  0  0  0
   10.9029  -17.3049   19.8779 C   0  0  0  0  0  0  0  0  0  0  0  0
   12.1891  -17.8510   19.4322 C   0  0  0  0  0  0  0  0  0  0  0  0
   12.9652  -17.1924   18.6991 O   0  0  0  0  0  0  0  0  0  0  0  0
    9.7617  -16.2715   23.3814 C   0  0  0  0  0  0  0  0  0  0  0  0
   10.3971  -15.2144   23.6287 O   0  0  0  0  0  0  0  0  0  0  0  0
   12.5821  -19.1224   19.8150 O   0  0  0  0  0  0  0  0  0  0  0  0
    6.4610  -10.8469   25.8305 O   0  0  0  0  0  0  0  0  0  0  0  0
    6.8598  -12.1717   25.9721 C   0  0  0  0  0  0  0  0  0  0  0  0
    6.5507  -13.0878   24.9931 C   0  0  0  0  0  0  0  0  0  0  0  0
    6.9412  -14.3856   25.1310 C   0  0  0  0  0  0  0  0  0  0  0  0
    7.6458  -14.7798   26.2515 C   0  0  0  0  0  0  0  0  0  0  0  0
    8.0718  -16.1740   26.4380 C   0  0  0  0  0  0  0  0  0  0  0  0
    9.4222  -16.4757   25.8539 C   0  0  2  0  0  0  0  0  0  0  0  0
    9.1980  -16.9670   24.4859 N   0  0  0  0  0  0  0  0  0  0  0  0
   10.1167  -17.4969   26.6615 C   0  0  0  0  0  0  0  0  0  0  0  0
   10.2708  -18.6616   26.1801 O   0  0  0  0  0  0  0  0  0  0  0  0
    7.9521  -13.8657   27.2249 C   0  0  0  0  0  0  0  0  0  0  0  0
    7.5583  -12.5598   27.0843 C   0  0  0  0  0  0  0  0  0  0  0  0
   10.6205  -17.2853   27.9150 O   0  0  0  0  0  0  0  0  0  0  0  0
  2  1  1  0
  3  2  1  0
  4  3  2  0
  5  3  1  0
  6  5  1  0
  6  7  1  6
  8  7  1  0
  9  8  1  0
 10  9  2  0
 11  6  1  0
 11 21  1  0
 12 11  2  0
 13  9  1  0
 15 14  1  0
 16 15  2  0
 17 16  1  0
 18 17  2  0
 18 24  1  0
 19 18  1  0
 20 21  1  0
 20 22  1  0
 20 19  1  1
 22 26  1  0
 23 22  2  0
 24 25  2  0
 25 15  1  0
M  END
$$$$
