GEY.pdb
     RDKit          3D

 26 26  0  0  1  0  0  0  0  0999 V2000
    5.7764  -14.8570   19.6433 N   0  0  0  0  0  0  0  0  0  0  0  0
    7.1242  -14.4865   19.9780 C   0  0  0  0  0  0  0  0  0  0  0  0
    7.7672  -15.5121   20.8653 C   0  0  0  0  0  0  0  0  0  0  0  0
    7.1245  -16.5055   21.2876 O   0  0  0  0  0  0  0  0  0  0  0  0
    9.1269  -15.4047   21.2652 N   0  0  0  0  0  0  0  0  0  0  0  0
    9.7779  -16.4402   22.0852 C   0  0  1  0  0  0  0  0  0  0  0  0
   11.1502  -16.6090   21.5517 C   0  0  0  0  0  0  0  0  0  0  0  0
   11.9966  -17.6306   22.2217 C   0  0  0  0  0  0  0  0  0  0  0  0
   13.3460  -17.7813   21.6669 C   0  0  0  0  0  0  0  0  0  0  0  0
   14.3690  -17.6640   22.3833 O   0  0  0  0  0  0  0  0  0  0  0  0
    9.7150  -15.9690   23.4752 C   0  0  0  0  0  0  0  0  0  0  0  0
    9.6097  -14.7326   23.6816 O   0  0  0  0  0  0  0  0  0  0  0  0
   13.5248  -18.0600   20.3224 O   0  0  0  0  0  0  0  0  0  0  0  0
    6.4910  -10.6519   26.4878 O   0  0  0  0  0  0  0  0  0  0  0  0
    6.8010  -11.9925   26.2855 C   0  0  0  0  0  0  0  0  0  0  0  0
    6.9145  -12.8391   27.3643 C   0  0  0  0  0  0  0  0  0  0  0  0
    7.2180  -14.1523   27.1669 C   0  0  0  0  0  0  0  0  0  0  0  0
    7.4112  -14.6319   25.8863 C   0  0  0  0  0  0  0  0  0  0  0  0
    7.7517  -16.0399   25.6382 C   0  0  0  0  0  0  0  0  0  0  0  0
    9.1957  -16.3655   25.8925 C   0  0  2  0  0  0  0  0  0  0  0  0
    9.7652  -16.8183   24.6143 N   0  0  0  0  0  0  0  0  0  0  0  0
    9.3134  -17.4242   26.9136 C   0  0  0  0  0  0  0  0  0  0  0  0
    9.1576  -17.1197   28.1363 O   0  0  0  0  0  0  0  0  0  0  0  0
    7.2979  -13.7869   24.8139 C   0  0  0  0  0  0  0  0  0  0  0  0
    6.9922  -12.4654   25.0145 C   0  0  0  0  0  0  0  0  0  0  0  0
    9.5817  -18.7375   26.6434 O   0  0  0  0  0  0  0  0  0  0  0  0
  2  1  1  0
  3  2  1  0
  4  3  2  0
  5  3  1  0
  6  5  1  0
  6  7  1  6
  8  7  1  0
  9  8  1  0
 10  9  2  0
 11  6  1  0
 11 21  1  0
 12 11  2  0
 13  9  1  0
 15 14  1  0
 16 15  2  0
 17 16  1  0
 18 17  2  0
 18 24  1  0
 19 18  1  0
 20 21  1  0
 20 22  1  0
 20 19  1  6
 22 26  1  0
 23 22  2  0
 24 25  2  0
 25 15  1  0
M  END
$$$$
