GEY.pdb
     RDKit          3D

 26 26  0  0  1  0  0  0  0  0999 V2000
    7.1934  -12.5474   18.5627 N   0  0  0  0  0  0  0  0  0  0  0  0
    8.4878  -13.1007   18.8531 C   0  0  0  0  0  0  0  0  0  0  0  0
    8.3829  -14.2745   19.7825 C   0  0  0  0  0  0  0  0  0  0  0  0
    7.2933  -14.5805   20.3278 O   0  0  0  0  0  0  0  0  0  0  0  0
    9.5080  -15.0887   20.0852 N   0  0  0  0  0  0  0  0  0  0  0  0
    9.3843  -16.3115   20.8963 C   0  0  1  0  0  0  0  0  0  0  0  0
   10.3934  -17.2687   20.3847 C   0  0  0  0  0  0  0  0  0  0  0  0
   10.4811  -18.5737   21.0906 C   0  0  0  0  0  0  0  0  0  0  0  0
   11.4631  -19.5139   20.5400 C   0  0  0  0  0  0  0  0  0  0  0  0
   11.9459  -19.3640   19.3920 O   0  0  0  0  0  0  0  0  0  0  0  0
    9.5804  -15.9038   22.2939 C   0  0  0  0  0  0  0  0  0  0  0  0
   10.5348  -15.1291   22.5610 O   0  0  0  0  0  0  0  0  0  0  0  0
   11.8857  -20.6027   21.2838 O   0  0  0  0  0  0  0  0  0  0  0  0
    6.5699  -10.5687   27.2549 O   0  0  0  0  0  0  0  0  0  0  0  0
    6.8521  -11.8515   26.7978 C   0  0  0  0  0  0  0  0  0  0  0  0
    6.1355  -12.3766   25.7470 C   0  0  0  0  0  0  0  0  0  0  0  0
    6.4114  -13.6330   25.2986 C   0  0  0  0  0  0  0  0  0  0  0  0
    7.4085  -14.3771   25.8980 C   0  0  0  0  0  0  0  0  0  0  0  0
    7.7240  -15.7400   25.4475 C   0  0  0  0  0  0  0  0  0  0  0  0
    9.0438  -15.8512   24.7394 C   0  0  2  0  0  0  0  0  0  0  0  0
    8.7610  -16.3261   23.3764 N   0  0  0  0  0  0  0  0  0  0  0  0
    9.9281  -16.7999   25.4431 C   0  0  0  0  0  0  0  0  0  0  0  0
   10.5307  -16.4165   26.4927 O   0  0  0  0  0  0  0  0  0  0  0  0
    8.1204  -13.8520   26.9442 C   0  0  0  0  0  0  0  0  0  0  0  0
    7.8413  -12.5872   27.3941 C   0  0  0  0  0  0  0  0  0  0  0  0
   10.1554  -18.0892   25.0479 O   0  0  0  0  0  0  0  0  0  0  0  0
  2  1  1  0
  3  2  1  0
  4  3  2  0
  5  3  1  0
  6  5  1  0
  6  7  1  6
  8  7  1  0
  9  8  1  0
 10  9  2  0
 11  6  1  0
 11 21  1  0
 12 11  2  0
 13  9  1  0
 15 14  1  0
 16 15  2  0
 17 16  1  0
 18 17  2  0
 18 24  1  0
 19 18  1  0
 20 21  1  0
 20 22  1  0
 20 19  1  1
 22 26  1  0
 23 22  2  0
 24 25  2  0
 25 15  1  0
M  END
$$$$
