GEY.pdb
     RDKit          3D

 26 26  0  0  1  0  0  0  0  0999 V2000
    5.7077  -15.0926   20.7897 N   0  0  0  0  0  0  0  0  0  0  0  0
    7.0719  -14.9823   20.3506 C   0  0  0  0  0  0  0  0  0  0  0  0
    7.9472  -15.9937   21.0314 C   0  0  0  0  0  0  0  0  0  0  0  0
    7.5373  -16.6529   22.0191 O   0  0  0  0  0  0  0  0  0  0  0  0
    9.2739  -16.2491   20.5897 N   0  0  0  0  0  0  0  0  0  0  0  0
   10.1043  -17.3020   21.1983 C   0  0  1  0  0  0  0  0  0  0  0  0
   11.1604  -17.6369   20.2139 C   0  0  0  0  0  0  0  0  0  0  0  0
   10.7187  -18.3636   18.9951 C   0  0  0  0  0  0  0  0  0  0  0  0
   11.7724  -18.6199   18.0075 C   0  0  0  0  0  0  0  0  0  0  0  0
   12.8394  -19.2010   18.3193 O   0  0  0  0  0  0  0  0  0  0  0  0
   10.6018  -16.7560   22.4680 C   0  0  0  0  0  0  0  0  0  0  0  0
   11.4746  -15.8510   22.4270 O   0  0  0  0  0  0  0  0  0  0  0  0
   11.6122  -18.2213   16.6911 O   0  0  0  0  0  0  0  0  0  0  0  0
    5.1326  -13.8916   25.7446 O   0  0  0  0  0  0  0  0  0  0  0  0
    6.4722  -14.2212   25.5683 C   0  0  0  0  0  0  0  0  0  0  0  0
    7.0637  -15.1477   26.3960 C   0  0  0  0  0  0  0  0  0  0  0  0
    8.3757  -15.4712   26.2239 C   0  0  0  0  0  0  0  0  0  0  0  0
    9.1096  -14.8699   25.2205 C   0  0  0  0  0  0  0  0  0  0  0  0
   10.5301  -15.1864   25.0146 C   0  0  0  0  0  0  0  0  0  0  0  0
   10.8185  -16.6594   24.9609 C   0  0  2  0  0  0  0  0  0  0  0  0
   10.1633  -17.1812   23.7519 N   0  0  0  0  0  0  0  0  0  0  0  0
   10.2921  -17.3320   26.1641 C   0  0  0  0  0  0  0  0  0  0  0  0
    9.3467  -18.1697   26.0366 O   0  0  0  0  0  0  0  0  0  0  0  0
    8.5184  -13.9475   24.3978 C   0  0  0  0  0  0  0  0  0  0  0  0
    7.1977  -13.6233   24.5726 C   0  0  0  0  0  0  0  0  0  0  0  0
   10.7516  -17.1223   27.4349 O   0  0  0  0  0  0  0  0  0  0  0  0
  2  1  1  0
  3  2  1  0
  4  3  2  0
  5  3  1  0
  6  5  1  0
  6  7  1  6
  8  7  1  0
  9  8  1  0
 10  9  2  0
 11  6  1  0
 11 21  1  0
 12 11  2  0
 13  9  1  0
 15 14  1  0
 16 15  2  0
 17 16  1  0
 18 17  2  0
 18 24  1  0
 19 18  1  0
 20 21  1  0
 20 22  1  0
 20 19  1  1
 22 26  1  0
 23 22  2  0
 24 25  2  0
 25 15  1  0
M  END
$$$$
