GEY.pdb
     RDKit          3D

 26 26  0  0  1  0  0  0  0  0999 V2000
    6.8702  -12.4952   18.9465 N   0  0  0  0  0  0  0  0  0  0  0  0
    8.1555  -12.8116   19.5068 C   0  0  0  0  0  0  0  0  0  0  0  0
    8.0955  -14.0599   20.3378 C   0  0  0  0  0  0  0  0  0  0  0  0
    6.9972  -14.5724   20.6685 O   0  0  0  0  0  0  0  0  0  0  0  0
    9.2750  -14.7149   20.7855 N   0  0  0  0  0  0  0  0  0  0  0  0
    9.2279  -16.0293   21.4477 C   0  0  1  0  0  0  0  0  0  0  0  0
   10.2139  -16.8928   20.7558 C   0  0  0  0  0  0  0  0  0  0  0  0
   10.2685  -18.3121   21.1934 C   0  0  0  0  0  0  0  0  0  0  0  0
   11.2531  -19.1421   20.4913 C   0  0  0  0  0  0  0  0  0  0  0  0
   10.9258  -19.8833   19.5337 O   0  0  0  0  0  0  0  0  0  0  0  0
    9.5149  -15.7889   22.8681 C   0  0  0  0  0  0  0  0  0  0  0  0
   10.5327  -15.1118   23.1647 O   0  0  0  0  0  0  0  0  0  0  0  0
   12.5839  -19.1269   20.8737 O   0  0  0  0  0  0  0  0  0  0  0  0
    6.0869  -10.5571   26.4413 O   0  0  0  0  0  0  0  0  0  0  0  0
    6.5188  -11.8768   26.3623 C   0  0  0  0  0  0  0  0  0  0  0  0
    5.5991  -12.9000   26.3786 C   0  0  0  0  0  0  0  0  0  0  0  0
    6.0214  -14.1929   26.3011 C   0  0  0  0  0  0  0  0  0  0  0  0
    7.3700  -14.4746   26.2065 C   0  0  0  0  0  0  0  0  0  0  0  0
    7.8609  -15.8581   26.1335 C   0  0  0  0  0  0  0  0  0  0  0  0
    9.1215  -16.0096   25.3313 C   0  0  2  0  0  0  0  0  0  0  0  0
    8.7171  -16.2712   23.9416 N   0  0  0  0  0  0  0  0  0  0  0  0
    9.9325  -17.1271   25.8517 C   0  0  0  0  0  0  0  0  0  0  0  0
    9.9909  -18.2068   25.1863 O   0  0  0  0  0  0  0  0  0  0  0  0
    8.2838  -13.4540   26.1908 C   0  0  0  0  0  0  0  0  0  0  0  0
    7.8568  -12.1533   26.2687 C   0  0  0  0  0  0  0  0  0  0  0  0
   10.6438  -17.0929   27.0191 O   0  0  0  0  0  0  0  0  0  0  0  0
  2  1  1  0
  3  2  1  0
  4  3  2  0
  5  3  1  0
  6  5  1  0
  6  7  1  6
  8  7  1  0
  9  8  1  0
 10  9  2  0
 11  6  1  0
 11 21  1  0
 12 11  2  0
 13  9  1  0
 15 14  1  0
 16 15  2  0
 17 16  1  0
 18 17  2  0
 18 24  1  0
 19 18  1  0
 20 21  1  0
 20 22  1  0
 20 19  1  1
 22 26  1  0
 23 22  2  0
 24 25  2  0
 25 15  1  0
M  END
$$$$
