GEY.pdb
     RDKit          3D

 26 26  0  0  1  0  0  0  0  0999 V2000
    9.5080  -16.1674   15.7484 N   0  0  0  0  0  0  0  0  0  0  0  0
   10.5744  -15.8470   16.6573 C   0  0  0  0  0  0  0  0  0  0  0  0
   10.3432  -16.4610   18.0072 C   0  0  0  0  0  0  0  0  0  0  0  0
    9.1839  -16.6053   18.4692 O   0  0  0  0  0  0  0  0  0  0  0  0
   11.4222  -16.9047   18.8191 N   0  0  0  0  0  0  0  0  0  0  0  0
   11.1976  -17.5252   20.1355 C   0  0  1  0  0  0  0  0  0  0  0  0
   12.3793  -18.3746   20.4159 C   0  0  0  0  0  0  0  0  0  0  0  0
   12.3259  -19.1887   21.6581 C   0  0  0  0  0  0  0  0  0  0  0  0
   13.5144  -20.0087   21.9159 C   0  0  0  0  0  0  0  0  0  0  0  0
   14.6363  -19.4914   22.1334 O   0  0  0  0  0  0  0  0  0  0  0  0
   10.9970  -16.4226   21.0852 C   0  0  0  0  0  0  0  0  0  0  0  0
   11.8411  -15.4901   21.1034 O   0  0  0  0  0  0  0  0  0  0  0  0
   13.4251  -21.3905   21.9255 O   0  0  0  0  0  0  0  0  0  0  0  0
    8.1630  -11.8558   17.8696 O   0  0  0  0  0  0  0  0  0  0  0  0
    8.2517  -12.5281   19.0838 C   0  0  0  0  0  0  0  0  0  0  0  0
    7.3557  -13.5298   19.3786 C   0  0  0  0  0  0  0  0  0  0  0  0
    7.4421  -14.1888   20.5677 C   0  0  0  0  0  0  0  0  0  0  0  0
    8.4273  -13.8513   21.4746 C   0  0  0  0  0  0  0  0  0  0  0  0
    8.5416  -14.5334   22.7715 C   0  0  0  0  0  0  0  0  0  0  0  0
    9.8545  -15.2351   22.9707 C   0  0  2  0  0  0  0  0  0  0  0  0
    9.9069  -16.3331   21.9936 N   0  0  0  0  0  0  0  0  0  0  0  0
    9.9538  -15.7625   24.3452 C   0  0  0  0  0  0  0  0  0  0  0  0
    9.9251  -17.0189   24.5255 O   0  0  0  0  0  0  0  0  0  0  0  0
    9.3181  -12.8534   21.1789 C   0  0  0  0  0  0  0  0  0  0  0  0
    9.2297  -12.1913   19.9814 C   0  0  0  0  0  0  0  0  0  0  0  0
   10.0785  -14.9898   25.4665 O   0  0  0  0  0  0  0  0  0  0  0  0
  2  1  1  0
  3  2  1  0
  4  3  2  0
  5  3  1  0
  6  5  1  0
  6  7  1  1
  8  7  1  0
  9  8  1  0
 10  9  2  0
 11  6  1  0
 11 21  1  0
 12 11  2  0
 13  9  1  0
 15 14  1  0
 16 15  2  0
 17 16  1  0
 18 17  2  0
 18 24  1  0
 19 18  1  0
 20 21  1  0
 20 22  1  0
 20 19  1  1
 22 26  1  0
 23 22  2  0
 24 25  2  0
 25 15  1  0
M  END
$$$$
