GEY.pdb
     RDKit          3D

 26 26  0  0  1  0  0  0  0  0999 V2000
    6.7416  -12.6849   18.6267 N   0  0  0  0  0  0  0  0  0  0  0  0
    8.0482  -12.9708   19.1532 C   0  0  0  0  0  0  0  0  0  0  0  0
    8.0642  -14.2770   19.8923 C   0  0  0  0  0  0  0  0  0  0  0  0
    7.0123  -14.9409   20.0682 O   0  0  0  0  0  0  0  0  0  0  0  0
    9.2662  -14.8181   20.4240 N   0  0  0  0  0  0  0  0  0  0  0  0
    9.2915  -16.1170   21.1174 C   0  0  1  0  0  0  0  0  0  0  0  0
   10.3564  -16.9240   20.4761 C   0  0  0  0  0  0  0  0  0  0  0  0
   10.0963  -17.3698   19.0824 C   0  0  0  0  0  0  0  0  0  0  0  0
   11.0125  -18.3977   18.5770 C   0  0  0  0  0  0  0  0  0  0  0  0
   10.7309  -19.6185   18.6392 O   0  0  0  0  0  0  0  0  0  0  0  0
    9.5175  -15.8241   22.5390 C   0  0  0  0  0  0  0  0  0  0  0  0
   10.5209  -15.1336   22.8536 O   0  0  0  0  0  0  0  0  0  0  0  0
   12.2251  -18.0403   18.0120 O   0  0  0  0  0  0  0  0  0  0  0  0
    6.2599  -10.4774   26.5894 O   0  0  0  0  0  0  0  0  0  0  0  0
    6.6395  -11.7992   26.3823 C   0  0  0  0  0  0  0  0  0  0  0  0
    7.9552  -12.0992   26.1135 C   0  0  0  0  0  0  0  0  0  0  0  0
    8.3278  -13.3937   25.9106 C   0  0  0  0  0  0  0  0  0  0  0  0
    7.3862  -14.4019   25.9747 C   0  0  0  0  0  0  0  0  0  0  0  0
    7.7515  -15.8075   25.7489 C   0  0  0  0  0  0  0  0  0  0  0  0
    9.0364  -15.9830   24.9913 C   0  0  2  0  0  0  0  0  0  0  0  0
    8.6755  -16.2692   23.5946 N   0  0  0  0  0  0  0  0  0  0  0  0
    9.8220  -17.0953   25.5595 C   0  0  0  0  0  0  0  0  0  0  0  0
   10.2948  -16.9785   26.7320 O   0  0  0  0  0  0  0  0  0  0  0  0
    6.0768  -14.1004   26.2423 C   0  0  0  0  0  0  0  0  0  0  0  0
    5.7037  -12.7969   26.4463 C   0  0  0  0  0  0  0  0  0  0  0  0
   10.0874  -18.2695   24.9109 O   0  0  0  0  0  0  0  0  0  0  0  0
  2  1  1  0
  3  2  1  0
  4  3  2  0
  5  3  1  0
  6  5  1  0
  6  7  1  6
  8  7  1  0
  9  8  1  0
 10  9  2  0
 11  6  1  0
 11 21  1  0
 12 11  2  0
 13  9  1  0
 15 14  1  0
 16 15  2  0
 17 16  1  0
 18 17  2  0
 18 24  1  0
 19 18  1  0
 20 21  1  0
 20 22  1  0
 20 19  1  1
 22 26  1  0
 23 22  2  0
 24 25  2  0
 25 15  1  0
M  END
$$$$
