GEY.pdb
     RDKit          3D

 26 26  0  0  1  0  0  0  0  0999 V2000
    4.6417  -18.5317   22.2744 N   0  0  0  0  0  0  0  0  0  0  0  0
    5.3603  -17.3129   22.5271 C   0  0  0  0  0  0  0  0  0  0  0  0
    6.8176  -17.5792   22.7682 C   0  0  0  0  0  0  0  0  0  0  0  0
    7.2053  -18.6391   23.3198 O   0  0  0  0  0  0  0  0  0  0  0  0
    7.8194  -16.6468   22.3841 N   0  0  0  0  0  0  0  0  0  0  0  0
    9.2343  -16.8364   22.7454 C   0  0  1  0  0  0  0  0  0  0  0  0
   10.0370  -16.1385   21.7134 C   0  0  0  0  0  0  0  0  0  0  0  0
   11.5076  -16.3456   21.7710 C   0  0  0  0  0  0  0  0  0  0  0  0
   12.1298  -16.7433   20.5037 C   0  0  0  0  0  0  0  0  0  0  0  0
   12.2742  -17.9496   20.1915 O   0  0  0  0  0  0  0  0  0  0  0  0
    9.3900  -16.3042   24.1057 C   0  0  0  0  0  0  0  0  0  0  0  0
    9.5712  -15.0673   24.2452 O   0  0  0  0  0  0  0  0  0  0  0  0
   12.5781  -15.7846   19.6108 O   0  0  0  0  0  0  0  0  0  0  0  0
    6.1737  -11.2833   25.9541 O   0  0  0  0  0  0  0  0  0  0  0  0
    6.7492  -12.5012   26.3002 C   0  0  0  0  0  0  0  0  0  0  0  0
    7.9351  -12.5240   26.9976 C   0  0  0  0  0  0  0  0  0  0  0  0
    8.4994  -13.7166   27.3370 C   0  0  0  0  0  0  0  0  0  0  0  0
    7.8816  -14.8993   26.9815 C   0  0  0  0  0  0  0  0  0  0  0  0
    8.4689  -16.2032   27.3209 C   0  0  0  0  0  0  0  0  0  0  0  0
    9.7384  -16.5053   26.5773 C   0  0  2  0  0  0  0  0  0  0  0  0
    9.3501  -17.0946   25.2869 N   0  0  0  0  0  0  0  0  0  0  0  0
   10.5734  -17.4490   27.3450 C   0  0  0  0  0  0  0  0  0  0  0  0
   10.9761  -17.1137   28.5015 O   0  0  0  0  0  0  0  0  0  0  0  0
    6.7010  -14.8739   26.2869 C   0  0  0  0  0  0  0  0  0  0  0  0
    6.1344  -13.6726   25.9463 C   0  0  0  0  0  0  0  0  0  0  0  0
   10.9566  -18.6847   26.9021 O   0  0  0  0  0  0  0  0  0  0  0  0
  2  1  1  0
  3  2  1  0
  4  3  2  0
  5  3  1  0
  6  5  1  0
  6  7  1  6
  8  7  1  0
  9  8  1  0
 10  9  2  0
 11  6  1  0
 11 21  1  0
 12 11  2  0
 13  9  1  0
 15 14  1  0
 16 15  2  0
 17 16  1  0
 18 17  2  0
 18 24  1  0
 19 18  1  0
 20 21  1  0
 20 22  1  0
 20 19  1  1
 22 26  1  0
 23 22  2  0
 24 25  2  0
 25 15  1  0
M  END
$$$$
