TSA.pdb
     RDKit          3D

 19 18  0  0  1  0  0  0  0  0999 V2000
   -4.6897  -23.5468   23.9377 C   0  0  0  0  0  0  0  0  0  0  0  0
   -4.9946  -23.8266   25.3890 C   0  0  1  0  0  0  0  0  0  0  0  0
   -4.2600  -24.8795   25.8932 O   0  0  0  0  0  0  0  0  0  0  0  0
   -4.6346  -22.5829   26.1819 C   0  0  2  0  0  0  0  0  0  0  0  0
   -3.2143  -22.2494   25.9747 N   0  0  0  0  0  0  0  0  0  0  0  0
   -4.8273  -22.7293   27.6275 C   0  0  0  0  0  0  0  0  0  0  0  0
   -3.8719  -23.0767   28.4078 O   0  0  0  0  0  0  0  0  0  0  0  0
   -8.4972  -21.9946   29.3267 O   0  0  0  0  0  0  0  0  0  0  0  0
   -7.3914  -21.7402   30.1095 C   0  0  0  0  0  0  0  0  0  0  0  0
   -6.2032  -22.6471   29.7556 C   0  0  2  0  0  0  0  0  0  0  0  0
   -6.0539  -22.5102   28.3093 N   0  0  0  0  0  0  0  0  0  0  0  0
   -6.4729  -24.0400   30.1169 C   0  0  0  0  0  0  0  0  0  0  0  0
   -7.1739  -24.7507   29.3624 O   0  0  0  0  0  0  0  0  0  0  0  0
   -5.2108  -26.3476   32.7983 C   0  0  0  0  0  0  0  0  0  0  0  0
   -6.1849  -25.9609   31.6992 C   0  0  2  0  0  0  0  0  0  0  0  0
   -5.9577  -24.6085   31.3061 N   0  0  0  0  0  0  0  0  0  0  0  0
   -7.5884  -26.1155   32.1377 C   0  0  0  0  0  0  0  0  0  0  0  0
   -8.2661  -27.3286   32.1419 O   0  0  0  0  0  0  0  0  0  0  0  0
   -8.2153  -25.1088   32.5297 O   0  0  0  0  0  0  0  0  0  0  0  0
  2  3  1  0
  2  1  1  6
  4  2  1  0
  4  5  1  1
  6 11  1  0
  6  4  1  0
  7  6  2  0
  9  8  1  0
 10  9  1  6
 10 11  1  0
 10 12  1  0
 12 16  1  0
 13 12  2  0
 15 14  1  1
 15 17  1  0
 16 15  1  0
 17 19  2  0
 17 18  1  0
M  END
$$$$
