TSA.pdb
     RDKit          3D

 19 18  0  0  1  0  0  0  0  0999 V2000
    8.5699  -16.7527   17.2505 C   0  0  0  0  0  0  0  0  0  0  0  0
    8.8123  -15.3761   16.6814 C   0  0  1  0  0  0  0  0  0  0  0  0
    8.3880  -15.2590   15.3743 O   0  0  0  0  0  0  0  0  0  0  0  0
    8.0226  -14.3870   17.5200 C   0  0  2  0  0  0  0  0  0  0  0  0
    8.1286  -13.0379   16.9369 N   0  0  0  0  0  0  0  0  0  0  0  0
    8.4882  -14.2856   18.9061 C   0  0  0  0  0  0  0  0  0  0  0  0
    9.6561  -13.8469   19.1994 O   0  0  0  0  0  0  0  0  0  0  0  0
    6.2418  -15.7855   22.0858 O   0  0  0  0  0  0  0  0  0  0  0  0
    7.0065  -14.6602   22.3072 C   0  0  0  0  0  0  0  0  0  0  0  0
    8.2519  -14.6135   21.4091 C   0  0  2  0  0  0  0  0  0  0  0  0
    7.7251  -14.6492   20.0475 N   0  0  0  0  0  0  0  0  0  0  0  0
    9.1262  -15.7620   21.6544 C   0  0  0  0  0  0  0  0  0  0  0  0
    8.9800  -16.8063   20.9808 O   0  0  0  0  0  0  0  0  0  0  0  0
   12.4487  -16.2986   23.0242 C   0  0  0  0  0  0  0  0  0  0  0  0
   11.0230  -16.8093   22.9119 C   0  0  2  0  0  0  0  0  0  0  0  0
   10.1403  -15.7221   22.6407 N   0  0  0  0  0  0  0  0  0  0  0  0
   10.5922  -17.4946   24.1491 C   0  0  0  0  0  0  0  0  0  0  0  0
   11.1800  -18.6577   24.6314 O   0  0  0  0  0  0  0  0  0  0  0  0
    9.6478  -17.0144   24.8106 O   0  0  0  0  0  0  0  0  0  0  0  0
  2  3  1  0
  2  1  1  1
  4  2  1  0
  4  5  1  6
  6 11  1  0
  6  4  1  0
  7  6  2  0
  9  8  1  0
 10  9  1  1
 10 11  1  0
 10 12  1  0
 12 16  1  0
 13 12  2  0
 15 14  1  1
 15 17  1  0
 16 15  1  0
 17 19  2  0
 17 18  1  0
M  END
$$$$
