TSA.pdb
     RDKit          3D

 19 18  0  0  1  0  0  0  0  0999 V2000
    8.1643  -17.3573   14.5661 C   0  0  0  0  0  0  0  0  0  0  0  0
    8.4943  -16.9519   15.9818 C   0  0  1  0  0  0  0  0  0  0  0  0
    9.3715  -17.8230   16.5935 O   0  0  0  0  0  0  0  0  0  0  0  0
    9.1542  -15.5857   15.9263 C   0  0  2  0  0  0  0  0  0  0  0  0
   10.3853  -15.6556   15.1195 N   0  0  0  0  0  0  0  0  0  0  0  0
    9.5398  -15.0636   17.2404 C   0  0  0  0  0  0  0  0  0  0  0  0
   10.7532  -15.0895   17.6517 O   0  0  0  0  0  0  0  0  0  0  0  0
    6.7067  -13.8522   20.0804 O   0  0  0  0  0  0  0  0  0  0  0  0
    7.8924  -13.1547   19.9916 C   0  0  0  0  0  0  0  0  0  0  0  0
    9.0538  -14.0352   19.5065 C   0  0  2  0  0  0  0  0  0  0  0  0
    8.6437  -14.4871   18.1797 N   0  0  0  0  0  0  0  0  0  0  0  0
    9.2626  -15.1771   20.3988 C   0  0  0  0  0  0  0  0  0  0  0  0
    8.7136  -16.2718   20.1420 O   0  0  0  0  0  0  0  0  0  0  0  0
   11.5241  -15.8945   23.2956 C   0  0  0  0  0  0  0  0  0  0  0  0
   10.2641  -16.1390   22.4840 C   0  0  2  0  0  0  0  0  0  0  0  0
   10.0751  -15.0748   21.5530 N   0  0  0  0  0  0  0  0  0  0  0  0
    9.0719  -16.2500   23.3513 C   0  0  0  0  0  0  0  0  0  0  0  0
    8.7854  -17.3649   24.1298 O   0  0  0  0  0  0  0  0  0  0  0  0
    8.2660  -15.2969   23.3989 O   0  0  0  0  0  0  0  0  0  0  0  0
  2  3  1  0
  2  1  1  6
  4  2  1  0
  4  5  1  6
  6 11  1  0
  6  4  1  0
  7  6  2  0
  9  8  1  0
 10  9  1  1
 10 11  1  0
 10 12  1  0
 12 16  1  0
 13 12  2  0
 15 14  1  1
 15 17  1  0
 16 15  1  0
 17 19  2  0
 17 18  1  0
M  END
$$$$
