TSA.pdb
     RDKit          3D

 19 18  0  0  1  0  0  0  0  0999 V2000
    1.0756  -22.1351   22.7868 C   0  0  0  0  0  0  0  0  0  0  0  0
    2.4341  -22.0888   23.4425 C   0  0  1  0  0  0  0  0  0  0  0  0
    2.4591  -22.7364   24.6600 O   0  0  0  0  0  0  0  0  0  0  0  0
    3.4138  -22.7906   22.5192 C   0  0  2  0  0  0  0  0  0  0  0  0
    3.0393  -24.2085   22.3744 N   0  0  0  0  0  0  0  0  0  0  0  0
    4.7980  -22.7667   23.0005 C   0  0  0  0  0  0  0  0  0  0  0  0
    5.3637  -23.8063   23.4921 O   0  0  0  0  0  0  0  0  0  0  0  0
    7.2589  -19.3633   22.6676 O   0  0  0  0  0  0  0  0  0  0  0  0
    7.7556  -20.6420   22.5320 C   0  0  0  0  0  0  0  0  0  0  0  0
    7.0317  -21.6496   23.4377 C   0  0  2  0  0  0  0  0  0  0  0  0
    5.6455  -21.6271   22.9789 N   0  0  0  0  0  0  0  0  0  0  0  0
    7.1160  -21.2540   24.8449 C   0  0  0  0  0  0  0  0  0  0  0  0
    6.3614  -20.3567   25.2819 O   0  0  0  0  0  0  0  0  0  0  0  0
    8.4646  -22.7864   27.9158 C   0  0  0  0  0  0  0  0  0  0  0  0
    8.1344  -21.5384   27.1161 C   0  0  2  0  0  0  0  0  0  0  0  0
    8.0354  -21.8645   25.7308 N   0  0  0  0  0  0  0  0  0  0  0  0
    9.1578  -20.4876   27.3011 C   0  0  0  0  0  0  0  0  0  0  0  0
    9.3904  -19.8415   28.5093 O   0  0  0  0  0  0  0  0  0  0  0  0
    9.8623  -20.1492   26.3268 O   0  0  0  0  0  0  0  0  0  0  0  0
  2  3  1  0
  2  1  1  6
  4  2  1  0
  4  5  1  1
  6 11  1  0
  6  4  1  0
  7  6  2  0
  9  8  1  0
 10  9  1  6
 10 11  1  0
 10 12  1  0
 12 16  1  0
 13 12  2  0
 15 14  1  1
 15 17  1  0
 16 15  1  0
 17 19  2  0
 17 18  1  0
M  END
$$$$
