TSA.pdb
     RDKit          3D

 19 18  0  0  1  0  0  0  0  0999 V2000
   11.6116  -20.5268   16.5957 C   0  0  0  0  0  0  0  0  0  0  0  0
   11.2860  -19.5773   17.7227 C   0  0  1  0  0  0  0  0  0  0  0  0
   12.4083  -18.9734   18.2500 O   0  0  0  0  0  0  0  0  0  0  0  0
   10.3890  -18.4886   17.1613 C   0  0  2  0  0  0  0  0  0  0  0  0
   11.1285  -17.6931   16.1654 N   0  0  0  0  0  0  0  0  0  0  0  0
    9.8993  -17.5483   18.1733 C   0  0  0  0  0  0  0  0  0  0  0  0
   10.3699  -16.3612   18.2810 O   0  0  0  0  0  0  0  0  0  0  0  0
    6.8199  -18.5362   20.8403 O   0  0  0  0  0  0  0  0  0  0  0  0
    7.0131  -17.2280   20.4513 C   0  0  0  0  0  0  0  0  0  0  0  0
    8.4919  -16.9099   20.1834 C   0  0  2  0  0  0  0  0  0  0  0  0
    8.8801  -17.8333   19.1207 N   0  0  0  0  0  0  0  0  0  0  0  0
    9.3068  -17.1283   21.3799 C   0  0  0  0  0  0  0  0  0  0  0  0
    9.9577  -18.1901   21.5003 O   0  0  0  0  0  0  0  0  0  0  0  0
   10.1177  -15.0518   24.4190 C   0  0  0  0  0  0  0  0  0  0  0  0
   10.1541  -16.3287   23.5978 C   0  0  2  0  0  0  0  0  0  0  0  0
    9.3785  -16.1627   22.4121 N   0  0  0  0  0  0  0  0  0  0  0  0
    9.6381  -17.4827   24.3645 C   0  0  0  0  0  0  0  0  0  0  0  0
   10.4046  -18.2192   25.2595 O   0  0  0  0  0  0  0  0  0  0  0  0
    8.4479  -17.8290   24.2111 O   0  0  0  0  0  0  0  0  0  0  0  0
  2  3  1  0
  2  1  1  6
  4  2  1  0
  4  5  1  6
  6 11  1  0
  6  4  1  0
  7  6  2  0
  9  8  1  0
 10  9  1  1
 10 11  1  0
 10 12  1  0
 12 16  1  0
 13 12  2  0
 15 14  1  1
 15 17  1  0
 16 15  1  0
 17 19  2  0
 17 18  1  0
M  END
$$$$
