TSA.pdb
     RDKit          3D

 19 18  0  0  1  0  0  0  0  0999 V2000
    8.3636  -21.6121   14.7107 C   0  0  0  0  0  0  0  0  0  0  0  0
    8.3115  -21.2586   16.1770 C   0  0  1  0  0  0  0  0  0  0  0  0
    9.5296  -21.4144   16.8050 O   0  0  0  0  0  0  0  0  0  0  0  0
    7.9140  -19.7971   16.2832 C   0  0  2  0  0  0  0  0  0  0  0  0
    8.9204  -18.9535   15.6147 N   0  0  0  0  0  0  0  0  0  0  0  0
    7.8075  -19.3140   17.6629 C   0  0  0  0  0  0  0  0  0  0  0  0
    8.7934  -18.7607   18.2663 O   0  0  0  0  0  0  0  0  0  0  0  0
    4.3204  -19.8189   19.9023 O   0  0  0  0  0  0  0  0  0  0  0  0
    5.1004  -18.7055   20.1309 C   0  0  0  0  0  0  0  0  0  0  0  0
    6.5892  -18.9688   19.8595 C   0  0  2  0  0  0  0  0  0  0  0  0
    6.6384  -19.3996   18.4650 N   0  0  0  0  0  0  0  0  0  0  0  0
    7.1125  -20.0140   20.7412 C   0  0  0  0  0  0  0  0  0  0  0  0
    7.0527  -21.2119   20.3847 O   0  0  0  0  0  0  0  0  0  0  0  0
    9.2993  -19.9885   23.7659 C   0  0  0  0  0  0  0  0  0  0  0  0
    8.3015  -20.6705   22.8463 C   0  0  2  0  0  0  0  0  0  0  0  0
    7.6887  -19.7030   21.9958 N   0  0  0  0  0  0  0  0  0  0  0  0
    7.2566  -21.3836   23.6115 C   0  0  0  0  0  0  0  0  0  0  0  0
    7.4538  -22.6156   24.2233 O   0  0  0  0  0  0  0  0  0  0  0  0
    6.1266  -20.8634   23.7243 O   0  0  0  0  0  0  0  0  0  0  0  0
  2  3  1  0
  2  1  1  6
  4  2  1  0
  4  5  1  6
  6 11  1  0
  6  4  1  0
  7  6  2  0
  9  8  1  0
 10  9  1  1
 10 11  1  0
 10 12  1  0
 12 16  1  0
 13 12  2  0
 15 14  1  1
 15 17  1  0
 16 15  1  0
 17 19  2  0
 17 18  1  0
M  END
$$$$
