TSA.pdb
     RDKit          3D

 19 18  0  0  1  0  0  0  0  0999 V2000
    9.7657  -18.1368   13.3341 C   0  0  0  0  0  0  0  0  0  0  0  0
   10.6549  -17.6318   14.4440 C   0  0  1  0  0  0  0  0  0  0  0  0
   11.9891  -17.9006   14.2202 O   0  0  0  0  0  0  0  0  0  0  0  0
   10.4872  -16.1246   14.5170 C   0  0  2  0  0  0  0  0  0  0  0  0
   10.8960  -15.5119   13.2407 N   0  0  0  0  0  0  0  0  0  0  0  0
   11.2923  -15.4921   15.5658 C   0  0  0  0  0  0  0  0  0  0  0  0
   12.3241  -14.7823   15.2942 O   0  0  0  0  0  0  0  0  0  0  0  0
   11.7760  -14.6951   20.3866 O   0  0  0  0  0  0  0  0  0  0  0  0
   11.0804  -15.1567   19.2897 C   0  0  0  0  0  0  0  0  0  0  0  0
   11.8338  -14.9114   17.9737 C   0  0  2  0  0  0  0  0  0  0  0  0
   11.0314  -15.5886   16.9587 N   0  0  0  0  0  0  0  0  0  0  0  0
   13.1848  -15.4736   18.0232 C   0  0  0  0  0  0  0  0  0  0  0  0
   13.3531  -16.6984   17.8304 O   0  0  0  0  0  0  0  0  0  0  0  0
   16.4908  -14.3473   17.2993 C   0  0  0  0  0  0  0  0  0  0  0  0
   15.6553  -15.1484   18.2823 C   0  0  2  0  0  0  0  0  0  0  0  0
   14.3143  -14.6621   18.2852 N   0  0  0  0  0  0  0  0  0  0  0  0
   16.2074  -15.0740   19.6518 C   0  0  0  0  0  0  0  0  0  0  0  0
   17.3678  -15.7254   20.0522 O   0  0  0  0  0  0  0  0  0  0  0  0
   15.6096  -14.3914   20.5101 O   0  0  0  0  0  0  0  0  0  0  0  0
  2  3  1  0
  2  1  1  6
  4  2  1  0
  4  5  1  6
  6 11  1  0
  6  4  1  0
  7  6  2  0
  9  8  1  0
 10  9  1  1
 10 11  1  0
 10 12  1  0
 12 16  1  0
 13 12  2  0
 15 14  1  6
 15 17  1  0
 16 15  1  0
 17 19  2  0
 17 18  1  0
M  END
$$$$
