TSA.pdb
     RDKit          3D

 19 18  0  0  1  0  0  0  0  0999 V2000
    7.5398  -18.3320   21.3337 C   0  0  0  0  0  0  0  0  0  0  0  0
    8.0846  -17.4356   22.4187 C   0  0  1  0  0  0  0  0  0  0  0  0
    9.4085  -17.6938   22.7066 O   0  0  0  0  0  0  0  0  0  0  0  0
    7.9840  -16.0035   21.9248 C   0  0  2  0  0  0  0  0  0  0  0  0
    8.8212  -15.8265   20.7251 N   0  0  0  0  0  0  0  0  0  0  0  0
    8.4335  -15.0095   22.9036 C   0  0  0  0  0  0  0  0  0  0  0  0
    9.5846  -14.4516   22.8248 O   0  0  0  0  0  0  0  0  0  0  0  0
    5.9670  -13.5206   25.9972 O   0  0  0  0  0  0  0  0  0  0  0  0
    6.9514  -12.7703   25.3905 C   0  0  0  0  0  0  0  0  0  0  0  0
    8.1756  -13.6141   25.0048 C   0  0  2  0  0  0  0  0  0  0  0  0
    7.6715  -14.5633   24.0162 N   0  0  0  0  0  0  0  0  0  0  0  0
    8.7211  -14.3194   26.1661 C   0  0  0  0  0  0  0  0  0  0  0  0
    8.2275  -15.4158   26.5125 O   0  0  0  0  0  0  0  0  0  0  0  0
    9.2732  -13.7552   29.2646 C   0  0  0  0  0  0  0  0  0  0  0  0
   10.2006  -14.2902   28.1876 C   0  0  2  0  0  0  0  0  0  0  0  0
    9.8002  -13.7899   26.9131 N   0  0  0  0  0  0  0  0  0  0  0  0
   10.2018  -15.7684   28.1565 C   0  0  0  0  0  0  0  0  0  0  0  0
   11.0096  -16.5564   28.9674 O   0  0  0  0  0  0  0  0  0  0  0  0
    9.4396  -16.3585   27.3623 O   0  0  0  0  0  0  0  0  0  0  0  0
  2  3  1  0
  2  1  1  6
  4  2  1  0
  4  5  1  6
  6 11  1  0
  6  4  1  0
  7  6  2  0
  9  8  1  0
 10  9  1  1
 10 11  1  0
 10 12  1  0
 12 16  1  0
 13 12  2  0
 15 14  1  1
 15 17  1  0
 16 15  1  0
 17 19  2  0
 17 18  1  0
M  END
$$$$
