TSA.pdb
     RDKit          3D

 19 18  0  0  1  0  0  0  0  0999 V2000
   10.4460  -15.6270   18.9953 C   0  0  0  0  0  0  0  0  0  0  0  0
    9.9769  -14.3217   18.4007 C   0  0  1  0  0  0  0  0  0  0  0  0
   10.4806  -14.1025   17.1355 O   0  0  0  0  0  0  0  0  0  0  0  0
    8.4634  -14.3816   18.2977 C   0  0  2  0  0  0  0  0  0  0  0  0
    7.9486  -13.1218   17.7326 N   0  0  0  0  0  0  0  0  0  0  0  0
    7.7919  -14.5715   19.5866 C   0  0  0  0  0  0  0  0  0  0  0  0
    7.4631  -13.5829   20.3328 O   0  0  0  0  0  0  0  0  0  0  0  0
    5.6712  -17.7988   22.6137 O   0  0  0  0  0  0  0  0  0  0  0  0
    6.3019  -17.4592   21.4360 C   0  0  0  0  0  0  0  0  0  0  0  0
    6.7098  -15.9787   21.3970 C   0  0  2  0  0  0  0  0  0  0  0  0
    7.4390  -15.8310   20.1404 N   0  0  0  0  0  0  0  0  0  0  0  0
    7.5656  -15.6340   22.5338 C   0  0  0  0  0  0  0  0  0  0  0  0
    8.7861  -15.9067   22.4949 O   0  0  0  0  0  0  0  0  0  0  0  0
    7.0356  -13.5764   25.6324 C   0  0  0  0  0  0  0  0  0  0  0  0
    7.8552  -14.5007   24.7492 C   0  0  2  0  0  0  0  0  0  0  0  0
    7.0449  -14.9955   23.6845 N   0  0  0  0  0  0  0  0  0  0  0  0
    8.4059  -15.6383   25.5163 C   0  0  0  0  0  0  0  0  0  0  0  0
    9.5181  -15.5442   26.3441 O   0  0  0  0  0  0  0  0  0  0  0  0
    7.8525  -16.7544   25.4269 O   0  0  0  0  0  0  0  0  0  0  0  0
  2  3  1  0
  2  1  1  6
  4  2  1  0
  4  5  1  1
  6 11  1  0
  6  4  1  0
  7  6  2  0
  9  8  1  0
 10  9  1  1
 10 11  1  0
 10 12  1  0
 12 16  1  0
 13 12  2  0
 15 14  1  1
 15 17  1  0
 16 15  1  0
 17 19  2  0
 17 18  1  0
M  END
$$$$
