TSA.pdb
     RDKit          3D

 19 18  0  0  1  0  0  0  0  0999 V2000
    7.0222  -19.1376   19.4239 C   0  0  0  0  0  0  0  0  0  0  0  0
    7.8479  -18.8413   18.1959 C   0  0  1  0  0  0  0  0  0  0  0  0
    7.2595  -19.3008   17.0361 O   0  0  0  0  0  0  0  0  0  0  0  0
    7.9829  -17.3331   18.0862 C   0  0  2  0  0  0  0  0  0  0  0  0
    8.7013  -16.9824   16.8483 N   0  0  0  0  0  0  0  0  0  0  0  0
    8.7278  -16.7259   19.1929 C   0  0  0  0  0  0  0  0  0  0  0  0
    9.9739  -16.9589   19.3810 O   0  0  0  0  0  0  0  0  0  0  0  0
    6.8759  -14.8041   22.4394 O   0  0  0  0  0  0  0  0  0  0  0  0
    8.0049  -14.2338   21.8914 C   0  0  0  0  0  0  0  0  0  0  0  0
    8.9408  -15.2772   21.2628 C   0  0  2  0  0  0  0  0  0  0  0  0
    8.1742  -15.8382   20.1536 N   0  0  0  0  0  0  0  0  0  0  0  0
    9.2943  -16.3216   22.2261 C   0  0  0  0  0  0  0  0  0  0  0  0
    8.4954  -17.2599   22.4428 O   0  0  0  0  0  0  0  0  0  0  0  0
   12.1217  -18.0605   23.3147 C   0  0  0  0  0  0  0  0  0  0  0  0
   10.9245  -17.3000   23.8574 C   0  0  2  0  0  0  0  0  0  0  0  0
   10.5252  -16.2978   22.9240 N   0  0  0  0  0  0  0  0  0  0  0  0
   11.2274  -16.6663   25.1584 C   0  0  0  0  0  0  0  0  0  0  0  0
   11.5352  -17.3794   26.3107 O   0  0  0  0  0  0  0  0  0  0  0  0
   11.2101  -15.4204   25.2444 O   0  0  0  0  0  0  0  0  0  0  0  0
  2  3  1  0
  2  1  1  1
  4  2  1  0
  4  5  1  6
  6 11  1  0
  6  4  1  0
  7  6  2  0
  9  8  1  0
 10  9  1  1
 10 11  1  0
 10 12  1  0
 12 16  1  0
 13 12  2  0
 15 14  1  6
 15 17  1  0
 16 15  1  0
 17 19  2  0
 17 18  1  0
M  END
$$$$
