TSA.pdb
     RDKit          3D

 19 18  0  0  1  0  0  0  0  0999 V2000
    9.7241  -16.5818   17.6555 C   0  0  0  0  0  0  0  0  0  0  0  0
    9.5649  -15.1669   17.1552 C   0  0  1  0  0  0  0  0  0  0  0  0
    9.7959  -15.0529   15.8002 O   0  0  0  0  0  0  0  0  0  0  0  0
    8.1314  -14.7439   17.4225 C   0  0  2  0  0  0  0  0  0  0  0  0
    7.8899  -13.4044   16.8576 N   0  0  0  0  0  0  0  0  0  0  0  0
    7.7951  -14.6682   18.8470 C   0  0  0  0  0  0  0  0  0  0  0  0
    8.1092  -13.6546   19.5656 O   0  0  0  0  0  0  0  0  0  0  0  0
    6.1550  -17.8850   21.0280 O   0  0  0  0  0  0  0  0  0  0  0  0
    5.6436  -16.6148   21.1866 C   0  0  0  0  0  0  0  0  0  0  0  0
    6.7049  -15.5258   20.9694 C   0  0  2  0  0  0  0  0  0  0  0  0
    7.1049  -15.6753   19.5729 N   0  0  0  0  0  0  0  0  0  0  0  0
    7.8522  -15.7183   21.8583 C   0  0  0  0  0  0  0  0  0  0  0  0
    8.8656  -16.3211   21.4394 O   0  0  0  0  0  0  0  0  0  0  0  0
    8.7621  -14.4764   25.2844 C   0  0  0  0  0  0  0  0  0  0  0  0
    8.9319  -15.4087   24.0977 C   0  0  2  0  0  0  0  0  0  0  0  0
    7.8456  -15.2369   23.1891 N   0  0  0  0  0  0  0  0  0  0  0  0
    8.9973  -16.8232   24.5228 C   0  0  0  0  0  0  0  0  0  0  0  0
   10.1595  -17.4425   24.9662 O   0  0  0  0  0  0  0  0  0  0  0  0
    7.9582  -17.5153   24.4877 O   0  0  0  0  0  0  0  0  0  0  0  0
  2  3  1  0
  2  1  1  6
  4  2  1  0
  4  5  1  1
  6 11  1  0
  6  4  1  0
  7  6  2  0
  9  8  1  0
 10  9  1  1
 10 11  1  0
 10 12  1  0
 12 16  1  0
 13 12  2  0
 15 14  1  1
 15 17  1  0
 16 15  1  0
 17 19  2  0
 17 18  1  0
M  END
$$$$
