KIC.pdb
     RDKit          3D

 24 23  0  0  1  0  0  0  0  0999 V2000
    7.6595  -15.5956   20.9790 N   0  0  0  0  0  0  0  0  0  0  0  0
    7.1757  -15.9934   22.2614 C   0  0  1  0  0  0  0  0  0  0  0  0
    7.0121  -17.4573   22.4540 C   0  0  0  0  0  0  0  0  0  0  0  0
    6.6764  -18.2216   21.2342 C   0  0  0  0  0  0  0  0  0  0  0  0
    5.4590  -19.0736   21.2809 C   0  0  0  0  0  0  0  0  0  0  0  0
    5.1987  -19.7503   19.9259 C   0  0  0  0  0  0  0  0  0  0  0  0
    3.9975  -20.5513   19.9987 N   0  0  0  0  0  0  0  0  0  0  0  0
    8.0130  -15.3621   23.3163 C   0  0  0  0  0  0  0  0  0  0  0  0
    9.2695  -15.2572   23.1824 O   0  0  0  0  0  0  0  0  0  0  0  0
    5.8579  -11.4063   26.3112 C   0  0  0  0  0  0  0  0  0  0  0  0
    6.9055  -12.2232   25.5995 C   0  0  0  0  0  0  0  0  0  0  0  0
    7.4893  -13.3222   26.4159 C   0  0  2  0  0  0  0  0  0  0  0  0
    8.3826  -12.7451   27.5213 C   0  0  0  0  0  0  0  0  0  0  0  0
    8.1880  -14.4007   25.6584 C   0  0  2  0  0  0  0  0  0  0  0  0
    7.4400  -14.8544   24.5095 N   0  0  0  0  0  0  0  0  0  0  0  0
    8.7561  -15.4709   26.4878 C   0  0  0  0  0  0  0  0  0  0  0  0
    8.0843  -16.3728   27.0394 O   0  0  0  0  0  0  0  0  0  0  0  0
   10.1581  -15.5206   26.6983 N   0  0  0  0  0  0  0  0  0  0  0  0
   10.7942  -16.6157   27.3178 C   0  0  1  0  0  0  0  0  0  0  0  0
   12.0986  -17.0756   26.8126 C   0  0  0  0  0  0  0  0  0  0  0  0
   12.3914  -16.9078   25.0618 S   0  0  0  0  0  0  0  0  0  0  0  0
   10.7683  -16.4392   28.8216 C   0  0  0  0  0  0  0  0  0  0  0  0
   11.2006  -17.4333   29.6781 O   0  0  0  0  0  0  0  0  0  0  0  0
   10.3478  -15.3727   29.3193 O   0  0  0  0  0  0  0  0  0  0  0  0
  2  1  1  6
  2  3  1  0
  4  3  1  0
  4  5  1  0
  5  6  1  0
  6  7  1  0
  8  9  2  0
  8  2  1  0
 10 11  1  0
 11 12  1  0
 12 14  1  0
 12 13  1  1
 14 15  1  6
 15  8  1  0
 16 18  1  0
 16 14  1  0
 17 16  2  0
 19 22  1  0
 19 18  1  0
 19 20  1  6
 20 21  1  0
 22 23  1  0
 24 22  2  0
M  END
$$$$
