KIC.pdb
     RDKit          3D

 24 23  0  0  1  0  0  0  0  0999 V2000
    4.8637  -18.5476   22.9684 N   0  0  0  0  0  0  0  0  0  0  0  0
    5.2392  -18.0836   24.2647 C   0  0  1  0  0  0  0  0  0  0  0  0
    5.5673  -19.1454   25.2505 C   0  0  0  0  0  0  0  0  0  0  0  0
    6.3282  -20.2930   24.7135 C   0  0  0  0  0  0  0  0  0  0  0  0
    7.5305  -20.7255   25.4735 C   0  0  0  0  0  0  0  0  0  0  0  0
    8.1868  -21.9559   24.8278 C   0  0  0  0  0  0  0  0  0  0  0  0
    9.4149  -22.2781   25.5189 N   0  0  0  0  0  0  0  0  0  0  0  0
    6.3194  -17.0703   24.1264 C   0  0  0  0  0  0  0  0  0  0  0  0
    6.9955  -16.9725   23.0582 O   0  0  0  0  0  0  0  0  0  0  0  0
    5.7397  -12.2290   26.4460 C   0  0  0  0  0  0  0  0  0  0  0  0
    6.2909  -13.2068   25.4405 C   0  0  0  0  0  0  0  0  0  0  0  0
    7.4568  -13.9959   25.9237 C   0  0  2  0  0  0  0  0  0  0  0  0
    8.7000  -13.1022   26.0178 C   0  0  0  0  0  0  0  0  0  0  0  0
    7.7471  -15.2567   25.1814 C   0  0  2  0  0  0  0  0  0  0  0  0
    6.6340  -16.1767   25.1811 N   0  0  0  0  0  0  0  0  0  0  0  0
    9.0504  -15.8639   25.4793 C   0  0  0  0  0  0  0  0  0  0  0  0
    9.3492  -16.4019   26.5703 O   0  0  0  0  0  0  0  0  0  0  0  0
   10.0638  -15.8625   24.4866 N   0  0  0  0  0  0  0  0  0  0  0  0
   11.1257  -16.7900   24.4847 C   0  0  1  0  0  0  0  0  0  0  0  0
   11.7548  -17.1672   23.2080 C   0  0  0  0  0  0  0  0  0  0  0  0
   12.4231  -15.8455   22.2152 S   0  0  0  0  0  0  0  0  0  0  0  0
   12.1304  -16.4202   25.5557 C   0  0  0  0  0  0  0  0  0  0  0  0
   13.1243  -17.2936   25.9531 O   0  0  0  0  0  0  0  0  0  0  0  0
   12.0745  -15.2995   26.1060 O   0  0  0  0  0  0  0  0  0  0  0  0
  2  1  1  6
  2  3  1  0
  4  3  1  0
  4  5  1  0
  5  6  1  0
  6  7  1  0
  8  9  2  0
  8  2  1  0
 10 11  1  0
 11 12  1  0
 12 14  1  0
 12 13  1  6
 14 15  1  1
 15  8  1  0
 16 18  1  0
 16 14  1  0
 17 16  2  0
 19 22  1  0
 19 18  1  0
 19 20  1  6
 20 21  1  0
 22 23  1  0
 24 22  2  0
M  END
$$$$
