KIC.pdb
     RDKit          3D

 24 23  0  0  1  0  0  0  0  0999 V2000
    8.5622  -15.9353   20.5028 N   0  0  0  0  0  0  0  0  0  0  0  0
    7.7544  -16.2427   21.6384 C   0  0  1  0  0  0  0  0  0  0  0  0
    7.3153  -17.6581   21.7427 C   0  0  0  0  0  0  0  0  0  0  0  0
    6.4608  -18.1378   20.6363 C   0  0  0  0  0  0  0  0  0  0  0  0
    6.8199  -17.6988   19.2621 C   0  0  0  0  0  0  0  0  0  0  0  0
    6.1882  -18.6131   18.2007 C   0  0  0  0  0  0  0  0  0  0  0  0
    4.7505  -18.4625   18.2142 N   0  0  0  0  0  0  0  0  0  0  0  0
    8.4362  -15.7574   22.8681 C   0  0  0  0  0  0  0  0  0  0  0  0
    9.7005  -15.7625   22.9637 O   0  0  0  0  0  0  0  0  0  0  0  0
    6.0363  -11.8327   25.8272 C   0  0  0  0  0  0  0  0  0  0  0  0
    7.0917  -12.6951   25.1841 C   0  0  0  0  0  0  0  0  0  0  0  0
    7.4842  -13.8875   25.9837 C   0  0  2  0  0  0  0  0  0  0  0  0
    8.1877  -13.4520   27.2754 C   0  0  0  0  0  0  0  0  0  0  0  0
    8.2681  -14.9311   25.2617 C   0  0  2  0  0  0  0  0  0  0  0  0
    7.7005  -15.2715   23.9783 N   0  0  0  0  0  0  0  0  0  0  0  0
    8.6727  -16.0794   26.0825 C   0  0  0  0  0  0  0  0  0  0  0  0
    7.8784  -16.9109   26.5792 O   0  0  0  0  0  0  0  0  0  0  0  0
   10.0491  -16.2954   26.3497 N   0  0  0  0  0  0  0  0  0  0  0  0
   10.5211  -17.4424   27.0201 C   0  0  1  0  0  0  0  0  0  0  0  0
   11.5633  -18.2708   26.3909 C   0  0  0  0  0  0  0  0  0  0  0  0
   11.8930  -19.8571   27.1351 S   0  0  0  0  0  0  0  0  0  0  0  0
   10.8234  -17.1032   28.4646 C   0  0  0  0  0  0  0  0  0  0  0  0
   10.9264  -18.0810   29.4351 O   0  0  0  0  0  0  0  0  0  0  0  0
   10.9872  -15.9123   28.8066 O   0  0  0  0  0  0  0  0  0  0  0  0
  2  1  1  6
  2  3  1  0
  4  3  1  0
  4  5  1  0
  5  6  1  0
  6  7  1  0
  8  9  2  0
  8  2  1  0
 10 11  1  0
 11 12  1  0
 12 14  1  0
 12 13  1  1
 14 15  1  6
 15  8  1  0
 16 18  1  0
 16 14  1  0
 17 16  2  0
 19 22  1  0
 19 18  1  0
 19 20  1  6
 20 21  1  0
 22 23  1  0
 24 22  2  0
M  END
$$$$
