KIC.pdb
     RDKit          3D

 24 23  0  0  1  0  0  0  0  0999 V2000
    8.3138  -14.9673   20.3123 N   0  0  0  0  0  0  0  0  0  0  0  0
    7.6308  -15.5294   21.4322 C   0  0  1  0  0  0  0  0  0  0  0  0
    7.4343  -17.0012   21.3847 C   0  0  0  0  0  0  0  0  0  0  0  0
    6.9678  -17.5349   20.0877 C   0  0  0  0  0  0  0  0  0  0  0  0
    5.5307  -17.9005   19.9818 C   0  0  0  0  0  0  0  0  0  0  0  0
    5.2042  -18.4874   18.5996 C   0  0  0  0  0  0  0  0  0  0  0  0
    5.7382  -19.8267   18.4951 N   0  0  0  0  0  0  0  0  0  0  0  0
    8.2913  -15.0751   22.6851 C   0  0  0  0  0  0  0  0  0  0  0  0
    9.5546  -15.0566   22.7922 O   0  0  0  0  0  0  0  0  0  0  0  0
    5.9123  -11.4054   26.0568 C   0  0  0  0  0  0  0  0  0  0  0  0
    6.9042  -12.2465   25.2952 C   0  0  0  0  0  0  0  0  0  0  0  0
    7.2686  -13.5256   25.9634 C   0  0  2  0  0  0  0  0  0  0  0  0
    7.9508  -13.2460   27.3085 C   0  0  0  0  0  0  0  0  0  0  0  0
    8.0559  -14.4916   25.1437 C   0  0  2  0  0  0  0  0  0  0  0  0
    7.5358  -14.6463   23.8054 N   0  0  0  0  0  0  0  0  0  0  0  0
    8.3949  -15.7479   25.8239 C   0  0  0  0  0  0  0  0  0  0  0  0
    7.5945  -16.6942   26.0054 O   0  0  0  0  0  0  0  0  0  0  0  0
    9.7100  -15.9398   26.3198 N   0  0  0  0  0  0  0  0  0  0  0  0
   10.1704  -17.1879   26.7870 C   0  0  1  0  0  0  0  0  0  0  0  0
   11.1116  -17.9661   25.9643 C   0  0  0  0  0  0  0  0  0  0  0  0
   10.9592  -19.7416   26.0239 S   0  0  0  0  0  0  0  0  0  0  0  0
   10.6058  -17.0648   28.2321 C   0  0  0  0  0  0  0  0  0  0  0  0
   10.9693  -18.1689   28.9787 O   0  0  0  0  0  0  0  0  0  0  0  0
   10.6436  -15.9426   28.7808 O   0  0  0  0  0  0  0  0  0  0  0  0
  2  1  1  6
  2  3  1  0
  4  3  1  0
  4  5  1  0
  5  6  1  0
  6  7  1  0
  8  9  2  0
  8  2  1  0
 10 11  1  0
 11 12  1  0
 12 14  1  0
 12 13  1  1
 14 15  1  6
 15  8  1  0
 16 18  1  0
 16 14  1  0
 17 16  2  0
 19 22  1  0
 19 18  1  0
 19 20  1  6
 20 21  1  0
 22 23  1  0
 24 22  2  0
M  END
$$$$
