KIC.pdb
     RDKit          3D

 24 23  0  0  1  0  0  0  0  0999 V2000
    6.1103  -16.5514   21.0496 N   0  0  0  0  0  0  0  0  0  0  0  0
    5.8584  -16.6737   22.4489 C   0  0  1  0  0  0  0  0  0  0  0  0
    5.5418  -18.0463   22.9210 C   0  0  0  0  0  0  0  0  0  0  0  0
    4.7115  -18.8544   22.0033 C   0  0  0  0  0  0  0  0  0  0  0  0
    4.3277  -20.2169   22.4576 C   0  0  0  0  0  0  0  0  0  0  0  0
    3.4179  -20.9118   21.4323 C   0  0  0  0  0  0  0  0  0  0  0  0
    3.0977  -22.2472   21.8840 N   0  0  0  0  0  0  0  0  0  0  0  0
    6.9773  -16.0474   23.2029 C   0  0  0  0  0  0  0  0  0  0  0  0
    8.1637  -16.0694   22.7564 O   0  0  0  0  0  0  0  0  0  0  0  0
    5.9397  -11.7345   26.5214 C   0  0  0  0  0  0  0  0  0  0  0  0
    6.6193  -12.6790   25.5636 C   0  0  0  0  0  0  0  0  0  0  0  0
    7.3298  -13.8124   26.2163 C   0  0  2  0  0  0  0  0  0  0  0  0
    8.4668  -13.2866   27.1017 C   0  0  0  0  0  0  0  0  0  0  0  0
    7.8032  -14.8979   25.3093 C   0  0  2  0  0  0  0  0  0  0  0  0
    6.7608  -15.4031   24.4470 N   0  0  0  0  0  0  0  0  0  0  0  0
    8.6248  -15.9294   25.9551 C   0  0  0  0  0  0  0  0  0  0  0  0
    8.1712  -16.8519   26.6708 O   0  0  0  0  0  0  0  0  0  0  0  0
   10.0319  -15.9136   25.7760 N   0  0  0  0  0  0  0  0  0  0  0  0
   10.8456  -17.0297   26.0594 C   0  0  1  0  0  0  0  0  0  0  0  0
   11.8542  -17.4583   25.0759 C   0  0  0  0  0  0  0  0  0  0  0  0
   12.8356  -18.8865   25.4956 S   0  0  0  0  0  0  0  0  0  0  0  0
   11.3968  -16.9176   27.4653 C   0  0  0  0  0  0  0  0  0  0  0  0
   11.8898  -18.0160   28.1429 O   0  0  0  0  0  0  0  0  0  0  0  0
   11.4144  -15.8101   28.0441 O   0  0  0  0  0  0  0  0  0  0  0  0
  2  1  1  6
  2  3  1  0
  4  3  1  0
  4  5  1  0
  5  6  1  0
  6  7  1  0
  8  9  2  0
  8  2  1  0
 10 11  1  0
 11 12  1  0
 12 14  1  0
 12 13  1  6
 14 15  1  1
 15  8  1  0
 16 18  1  0
 16 14  1  0
 17 16  2  0
 19 22  1  0
 19 18  1  0
 19 20  1  6
 20 21  1  0
 22 23  1  0
 24 22  2  0
M  END
$$$$
