KIC.pdb
     RDKit          3D

 24 23  0  0  1  0  0  0  0  0999 V2000
    8.5887  -15.0683   20.6545 N   0  0  0  0  0  0  0  0  0  0  0  0
    7.7394  -15.5537   21.6935 C   0  0  1  0  0  0  0  0  0  0  0  0
    7.3349  -16.9780   21.5718 C   0  0  0  0  0  0  0  0  0  0  0  0
    7.2908  -17.5067   20.1923 C   0  0  0  0  0  0  0  0  0  0  0  0
    8.4655  -18.2908   19.7282 C   0  0  0  0  0  0  0  0  0  0  0  0
    8.1646  -19.0201   18.4094 C   0  0  0  0  0  0  0  0  0  0  0  0
    9.2847  -19.8575   18.0436 N   0  0  0  0  0  0  0  0  0  0  0  0
    8.3514  -15.2378   23.0119 C   0  0  0  0  0  0  0  0  0  0  0  0
    9.6101  -15.2014   23.1599 O   0  0  0  0  0  0  0  0  0  0  0  0
    5.8880  -11.5018   25.8077 C   0  0  0  0  0  0  0  0  0  0  0  0
    6.9965  -12.3732   25.2755 C   0  0  0  0  0  0  0  0  0  0  0  0
    7.3219  -13.5470   26.1307 C   0  0  2  0  0  0  0  0  0  0  0  0
    8.0280  -13.0895   27.4133 C   0  0  0  0  0  0  0  0  0  0  0  0
    8.0653  -14.6560   25.4655 C   0  0  2  0  0  0  0  0  0  0  0  0
    7.5530  -14.9658   24.1514 N   0  0  0  0  0  0  0  0  0  0  0  0
    8.3281  -15.8229   26.3171 C   0  0  0  0  0  0  0  0  0  0  0  0
    7.5484  -16.7943   26.4491 O   0  0  0  0  0  0  0  0  0  0  0  0
    9.5389  -15.8908   27.0530 N   0  0  0  0  0  0  0  0  0  0  0  0
   10.1654  -17.1128   27.3725 C   0  0  1  0  0  0  0  0  0  0  0  0
   10.9081  -17.8398   26.3293 C   0  0  0  0  0  0  0  0  0  0  0  0
    9.9508  -18.8340   25.2005 S   0  0  0  0  0  0  0  0  0  0  0  0
   10.9433  -16.9673   28.6635 C   0  0  0  0  0  0  0  0  0  0  0  0
   11.3404  -18.0659   29.4011 O   0  0  0  0  0  0  0  0  0  0  0  0
   11.2430  -15.8309   29.0888 O   0  0  0  0  0  0  0  0  0  0  0  0
  2  1  1  6
  2  3  1  0
  4  3  1  0
  4  5  1  0
  5  6  1  0
  6  7  1  0
  8  9  2  0
  8  2  1  0
 10 11  1  0
 11 12  1  0
 12 14  1  0
 12 13  1  1
 14 15  1  6
 15  8  1  0
 16 18  1  0
 16 14  1  0
 17 16  2  0
 19 22  1  0
 19 18  1  0
 19 20  1  6
 20 21  1  0
 22 23  1  0
 24 22  2  0
M  END
$$$$
