KIC.pdb
     RDKit          3D

 24 23  0  0  1  0  0  0  0  0999 V2000
    7.9702  -17.6698   21.4226 N   0  0  0  0  0  0  0  0  0  0  0  0
    7.4272  -17.6368   22.7419 C   0  0  1  0  0  0  0  0  0  0  0  0
    7.4032  -18.9408   23.4532 C   0  0  0  0  0  0  0  0  0  0  0  0
    6.6115  -20.0033   22.7984 C   0  0  0  0  0  0  0  0  0  0  0  0
    5.1580  -19.7507   22.6143 C   0  0  0  0  0  0  0  0  0  0  0  0
    4.4693  -20.9346   21.9173 C   0  0  0  0  0  0  0  0  0  0  0  0
    3.0530  -20.6745   21.7901 N   0  0  0  0  0  0  0  0  0  0  0  0
    8.1039  -16.5659   23.5216 C   0  0  0  0  0  0  0  0  0  0  0  0
    9.3461  -16.3462   23.3947 O   0  0  0  0  0  0  0  0  0  0  0  0
    6.7701  -11.3311   26.6035 C   0  0  0  0  0  0  0  0  0  0  0  0
    7.6862  -12.5086   26.3901 C   0  0  0  0  0  0  0  0  0  0  0  0
    7.0995  -13.6054   25.5729 C   0  0  2  0  0  0  0  0  0  0  0  0
    5.7488  -14.0383   26.1572 C   0  0  0  0  0  0  0  0  0  0  0  0
    7.9847  -14.7790   25.3196 C   0  0  2  0  0  0  0  0  0  0  0  0
    7.3878  -15.7515   24.4346 N   0  0  0  0  0  0  0  0  0  0  0  0
    8.6231  -15.3421   26.5160 C   0  0  0  0  0  0  0  0  0  0  0  0
    8.0763  -16.1572   27.2943 O   0  0  0  0  0  0  0  0  0  0  0  0
    9.9503  -14.9624   26.8427 N   0  0  0  0  0  0  0  0  0  0  0  0
   10.7108  -15.6300   27.8244 C   0  0  1  0  0  0  0  0  0  0  0  0
   12.1184  -15.9618   27.5475 C   0  0  0  0  0  0  0  0  0  0  0  0
   12.6014  -16.0678   25.8345 S   0  0  0  0  0  0  0  0  0  0  0  0
   10.5112  -14.9619   29.1686 C   0  0  0  0  0  0  0  0  0  0  0  0
   10.9713  -15.5325   30.3397 O   0  0  0  0  0  0  0  0  0  0  0  0
    9.9168  -13.8649   29.2401 O   0  0  0  0  0  0  0  0  0  0  0  0
  2  1  1  6
  2  3  1  0
  4  3  1  0
  4  5  1  0
  5  6  1  0
  6  7  1  0
  8  9  2  0
  8  2  1  0
 10 11  1  0
 11 12  1  0
 12 14  1  0
 12 13  1  1
 14 15  1  1
 15  8  1  0
 16 18  1  0
 16 14  1  0
 17 16  2  0
 19 22  1  0
 19 18  1  0
 19 20  1  6
 20 21  1  0
 22 23  1  0
 24 22  2  0
M  END
$$$$
