KIC.pdb
     RDKit          3D

 24 23  0  0  1  0  0  0  0  0999 V2000
    6.0489  -18.5174   22.9162 N   0  0  0  0  0  0  0  0  0  0  0  0
    6.1729  -18.1197   24.2811 C   0  0  1  0  0  0  0  0  0  0  0  0
    6.5807  -19.1942   25.2226 C   0  0  0  0  0  0  0  0  0  0  0  0
    6.3100  -20.5728   24.7636 C   0  0  0  0  0  0  0  0  0  0  0  0
    5.7237  -21.5146   25.7533 C   0  0  0  0  0  0  0  0  0  0  0  0
    5.6587  -22.9442   25.1932 C   0  0  0  0  0  0  0  0  0  0  0  0
    6.8396  -23.6803   25.5849 N   0  0  0  0  0  0  0  0  0  0  0  0
    7.0466  -16.9186   24.3622 C   0  0  0  0  0  0  0  0  0  0  0  0
    7.9844  -16.7312   23.5297 O   0  0  0  0  0  0  0  0  0  0  0  0
    5.1306  -12.2913   26.5114 C   0  0  0  0  0  0  0  0  0  0  0  0
    5.9835  -13.1923   25.6557 C   0  0  0  0  0  0  0  0  0  0  0  0
    7.2001  -13.7159   26.3346 C   0  0  2  0  0  0  0  0  0  0  0  0
    8.2232  -12.5902   26.5326 C   0  0  0  0  0  0  0  0  0  0  0  0
    7.8276  -14.9200   25.7172 C   0  0  2  0  0  0  0  0  0  0  0  0
    6.8650  -15.9392   25.3710 N   0  0  0  0  0  0  0  0  0  0  0  0
    9.0290  -15.4122   26.4031 C   0  0  0  0  0  0  0  0  0  0  0  0
    9.0705  -15.7433   27.6105 O   0  0  0  0  0  0  0  0  0  0  0  0
   10.2431  -15.5373   25.6802 N   0  0  0  0  0  0  0  0  0  0  0  0
   11.2887  -16.3877   26.0942 C   0  0  1  0  0  0  0  0  0  0  0  0
   10.9707  -17.7379   26.5884 C   0  0  0  0  0  0  0  0  0  0  0  0
   11.6879  -18.2164   28.1490 S   0  0  0  0  0  0  0  0  0  0  0  0
   12.3956  -16.3786   25.0608 C   0  0  0  0  0  0  0  0  0  0  0  0
   13.6926  -16.7305   25.3813 O   0  0  0  0  0  0  0  0  0  0  0  0
   12.1481  -16.0468   23.8816 O   0  0  0  0  0  0  0  0  0  0  0  0
  2  1  1  6
  2  3  1  0
  4  3  1  0
  4  5  1  0
  5  6  1  0
  6  7  1  0
  8  9  2  0
  8  2  1  0
 10 11  1  0
 11 12  1  0
 12 14  1  0
 12 13  1  6
 14 15  1  1
 15  8  1  0
 16 18  1  0
 16 14  1  0
 17 16  2  0
 19 22  1  0
 19 18  1  0
 19 20  1  6
 20 21  1  0
 22 23  1  0
 24 22  2  0
M  END
$$$$
