KIC.pdb
     RDKit          3D

 24 23  0  0  1  0  0  0  0  0999 V2000
    8.1408  -14.5330   20.2943 N   0  0  0  0  0  0  0  0  0  0  0  0
    7.4424  -15.1436   21.3787 C   0  0  1  0  0  0  0  0  0  0  0  0
    7.1878  -16.5999   21.2325 C   0  0  0  0  0  0  0  0  0  0  0  0
    6.5795  -17.0092   19.9491 C   0  0  0  0  0  0  0  0  0  0  0  0
    7.4997  -17.2361   18.8038 C   0  0  0  0  0  0  0  0  0  0  0  0
    6.7597  -17.8526   17.6063 C   0  0  0  0  0  0  0  0  0  0  0  0
    7.6644  -17.9917   16.4874 N   0  0  0  0  0  0  0  0  0  0  0  0
    8.1273  -14.8024   22.6543 C   0  0  0  0  0  0  0  0  0  0  0  0
    9.3911  -14.7248   22.7209 O   0  0  0  0  0  0  0  0  0  0  0  0
    5.7792  -11.3424   26.1152 C   0  0  0  0  0  0  0  0  0  0  0  0
    6.7748  -12.1541   25.3272 C   0  0  0  0  0  0  0  0  0  0  0  0
    7.2152  -13.4081   25.9973 C   0  0  2  0  0  0  0  0  0  0  0  0
    7.9693  -13.0809   27.2925 C   0  0  0  0  0  0  0  0  0  0  0  0
    7.9788  -14.3698   25.1505 C   0  0  2  0  0  0  0  0  0  0  0  0
    7.3953  -14.5512   23.8421 N   0  0  0  0  0  0  0  0  0  0  0  0
    8.3754  -15.6108   25.8277 C   0  0  0  0  0  0  0  0  0  0  0  0
    7.5841  -16.5267   26.1501 O   0  0  0  0  0  0  0  0  0  0  0  0
    9.7400  -15.8230   26.1520 N   0  0  0  0  0  0  0  0  0  0  0  0
   10.2055  -17.0227   26.7281 C   0  0  1  0  0  0  0  0  0  0  0  0
   11.2693  -17.7847   26.0528 C   0  0  0  0  0  0  0  0  0  0  0  0
   11.4848  -17.4971   24.3064 S   0  0  0  0  0  0  0  0  0  0  0  0
   10.4704  -16.8129   28.2041 C   0  0  0  0  0  0  0  0  0  0  0  0
   10.8454  -17.8542   29.0310 O   0  0  0  0  0  0  0  0  0  0  0  0
   10.3517  -15.6743   28.7055 O   0  0  0  0  0  0  0  0  0  0  0  0
  2  1  1  6
  2  3  1  0
  4  3  1  0
  4  5  1  0
  5  6  1  0
  6  7  1  0
  8  9  2  0
  8  2  1  0
 10 11  1  0
 11 12  1  0
 12 14  1  0
 12 13  1  1
 14 15  1  6
 15  8  1  0
 16 18  1  0
 16 14  1  0
 17 16  2  0
 19 22  1  0
 19 18  1  0
 19 20  1  6
 20 21  1  0
 22 23  1  0
 24 22  2  0
M  END
$$$$
