KIC.pdb
     RDKit          3D

 24 23  0  0  1  0  0  0  0  0999 V2000
    6.8525  -16.7481   21.0542 N   0  0  0  0  0  0  0  0  0  0  0  0
    6.2155  -16.7365   22.3312 C   0  0  1  0  0  0  0  0  0  0  0  0
    5.5379  -18.0013   22.7161 C   0  0  0  0  0  0  0  0  0  0  0  0
    4.6300  -18.5674   21.6963 C   0  0  0  0  0  0  0  0  0  0  0  0
    3.8485  -19.7731   22.0780 C   0  0  0  0  0  0  0  0  0  0  0  0
    2.8811  -20.1890   20.9587 C   0  0  0  0  0  0  0  0  0  0  0  0
    2.1882  -21.4014   21.3324 N   0  0  0  0  0  0  0  0  0  0  0  0
    7.1853  -16.2659   23.3562 C   0  0  0  0  0  0  0  0  0  0  0  0
    8.4219  -16.5287   23.2600 O   0  0  0  0  0  0  0  0  0  0  0  0
    6.1613  -11.5813   25.8769 C   0  0  0  0  0  0  0  0  0  0  0  0
    6.9482  -12.7192   25.2793 C   0  0  0  0  0  0  0  0  0  0  0  0
    7.2114  -13.8452   26.2165 C   0  0  2  0  0  0  0  0  0  0  0  0
    8.2122  -13.4140   27.2961 C   0  0  0  0  0  0  0  0  0  0  0  0
    7.6094  -15.1391   25.5902 C   0  0  2  0  0  0  0  0  0  0  0  0
    6.7655  -15.5070   24.4776 N   0  0  0  0  0  0  0  0  0  0  0  0
    7.8903  -16.2247   26.5381 C   0  0  0  0  0  0  0  0  0  0  0  0
    7.0128  -16.9172   27.1033 O   0  0  0  0  0  0  0  0  0  0  0  0
    9.2358  -16.5414   26.8572 N   0  0  0  0  0  0  0  0  0  0  0  0
    9.6012  -17.7431   27.4978 C   0  0  1  0  0  0  0  0  0  0  0  0
    9.6728  -18.9879   26.7145 C   0  0  0  0  0  0  0  0  0  0  0  0
    8.4602  -20.2429   27.0798 S   0  0  0  0  0  0  0  0  0  0  0  0
   10.8247  -17.5122   28.3597 C   0  0  0  0  0  0  0  0  0  0  0  0
   11.2786  -18.4673   29.2488 O   0  0  0  0  0  0  0  0  0  0  0  0
   11.4533  -16.4352   28.2784 O   0  0  0  0  0  0  0  0  0  0  0  0
  2  1  1  6
  2  3  1  0
  4  3  1  0
  4  5  1  0
  5  6  1  0
  6  7  1  0
  8  9  2  0
  8  2  1  0
 10 11  1  0
 11 12  1  0
 12 14  1  0
 12 13  1  1
 14 15  1  6
 15  8  1  0
 16 18  1  0
 16 14  1  0
 17 16  2  0
 19 22  1  0
 19 18  1  0
 19 20  1  6
 20 21  1  0
 22 23  1  0
 24 22  2  0
M  END
$$$$
