KIC.pdb
     RDKit          3D

 24 23  0  0  1  0  0  0  0  0999 V2000
   10.0940  -17.5098   16.6536 N   0  0  0  0  0  0  0  0  0  0  0  0
    9.2654  -17.8364   17.7686 C   0  0  1  0  0  0  0  0  0  0  0  0
    9.2425  -19.2732   18.1455 C   0  0  0  0  0  0  0  0  0  0  0  0
    8.2425  -20.0971   17.4343 C   0  0  0  0  0  0  0  0  0  0  0  0
    8.7037  -21.3986   16.8834 C   0  0  0  0  0  0  0  0  0  0  0  0
    7.5439  -22.1754   16.2406 C   0  0  0  0  0  0  0  0  0  0  0  0
    7.9725  -23.5162   15.9113 N   0  0  0  0  0  0  0  0  0  0  0  0
    9.6087  -16.9456   18.9093 C   0  0  0  0  0  0  0  0  0  0  0  0
   10.8142  -16.7483   19.2490 O   0  0  0  0  0  0  0  0  0  0  0  0
    6.8486  -12.2931   19.9025 C   0  0  0  0  0  0  0  0  0  0  0  0
    7.9237  -13.3468   19.8311 C   0  0  0  0  0  0  0  0  0  0  0  0
    7.8990  -14.3288   20.9493 C   0  0  2  0  0  0  0  0  0  0  0  0
    8.0585  -13.6067   22.2932 C   0  0  0  0  0  0  0  0  0  0  0  0
    8.8432  -15.4778   20.8329 C   0  0  2  0  0  0  0  0  0  0  0  0
    8.6036  -16.2841   19.6591 N   0  0  0  0  0  0  0  0  0  0  0  0
    9.0496  -16.2371   22.0726 C   0  0  0  0  0  0  0  0  0  0  0  0
    8.2131  -17.0271   22.5677 O   0  0  0  0  0  0  0  0  0  0  0  0
   10.2688  -16.0939   22.7834 N   0  0  0  0  0  0  0  0  0  0  0  0
   10.5503  -16.8168   23.9607 C   0  0  1  0  0  0  0  0  0  0  0  0
   11.9497  -17.1102   24.3126 C   0  0  0  0  0  0  0  0  0  0  0  0
   13.0418  -17.5576   22.9762 S   0  0  0  0  0  0  0  0  0  0  0  0
    9.7547  -16.2449   25.1153 C   0  0  0  0  0  0  0  0  0  0  0  0
    9.6856  -16.8841   26.3381 O   0  0  0  0  0  0  0  0  0  0  0  0
    9.1377  -15.1669   24.9769 O   0  0  0  0  0  0  0  0  0  0  0  0
  2  1  1  6
  2  3  1  0
  4  3  1  0
  4  5  1  0
  5  6  1  0
  6  7  1  0
  8  9  2  0
  8  2  1  0
 10 11  1  0
 11 12  1  0
 12 14  1  0
 12 13  1  1
 14 15  1  6
 15  8  1  0
 16 18  1  0
 16 14  1  0
 17 16  2  0
 19 22  1  0
 19 18  1  0
 19 20  1  1
 20 21  1  0
 22 23  1  0
 24 22  2  0
M  END
$$$$
