KIC.pdb
     RDKit          3D

 24 23  0  0  1  0  0  0  0  0999 V2000
    8.7345  -15.8456   20.5022 N   0  0  0  0  0  0  0  0  0  0  0  0
    7.7412  -16.0299   21.5101 C   0  0  1  0  0  0  0  0  0  0  0  0
    7.0716  -17.3560   21.5091 C   0  0  0  0  0  0  0  0  0  0  0  0
    6.5055  -17.7771   20.2103 C   0  0  0  0  0  0  0  0  0  0  0  0
    7.4147  -18.4862   19.2718 C   0  0  0  0  0  0  0  0  0  0  0  0
    6.6581  -18.9841   18.0303 C   0  0  0  0  0  0  0  0  0  0  0  0
    6.6039  -17.9374   17.0346 N   0  0  0  0  0  0  0  0  0  0  0  0
    8.3180  -15.6752   22.8346 C   0  0  0  0  0  0  0  0  0  0  0  0
    9.5614  -15.7800   23.0587 O   0  0  0  0  0  0  0  0  0  0  0  0
    6.1098  -11.5163   25.4802 C   0  0  0  0  0  0  0  0  0  0  0  0
    7.0413  -12.5633   24.9258 C   0  0  0  0  0  0  0  0  0  0  0  0
    7.2681  -13.7256   25.8274 C   0  0  2  0  0  0  0  0  0  0  0  0
    7.9518  -13.2676   27.1219 C   0  0  0  0  0  0  0  0  0  0  0  0
    7.9710  -14.8949   25.2243 C   0  0  2  0  0  0  0  0  0  0  0  0
    7.5016  -15.2072   23.8949 N   0  0  0  0  0  0  0  0  0  0  0  0
    8.1214  -16.0529   26.1145 C   0  0  0  0  0  0  0  0  0  0  0  0
    7.2116  -16.8760   26.3669 O   0  0  0  0  0  0  0  0  0  0  0  0
    9.3691  -16.2891   26.7469 N   0  0  0  0  0  0  0  0  0  0  0  0
    9.7937  -17.5778   27.1302 C   0  0  1  0  0  0  0  0  0  0  0  0
   10.0838  -18.5823   26.0934 C   0  0  0  0  0  0  0  0  0  0  0  0
    9.1238  -20.0843   26.1329 S   0  0  0  0  0  0  0  0  0  0  0  0
   10.8861  -17.4678   28.1731 C   0  0  0  0  0  0  0  0  0  0  0  0
   11.3349  -18.5698   28.8752 O   0  0  0  0  0  0  0  0  0  0  0  0
   11.4074  -16.3589   28.4187 O   0  0  0  0  0  0  0  0  0  0  0  0
  2  1  1  6
  2  3  1  0
  4  3  1  0
  4  5  1  0
  5  6  1  0
  6  7  1  0
  8  9  2  0
  8  2  1  0
 10 11  1  0
 11 12  1  0
 12 14  1  0
 12 13  1  1
 14 15  1  6
 15  8  1  0
 16 18  1  0
 16 14  1  0
 17 16  2  0
 19 22  1  0
 19 18  1  0
 19 20  1  6
 20 21  1  0
 22 23  1  0
 24 22  2  0
M  END
$$$$
