KIC.pdb
     RDKit          3D

 24 23  0  0  1  0  0  0  0  0999 V2000
    9.9819  -15.7153   20.1762 N   0  0  0  0  0  0  0  0  0  0  0  0
    9.3794  -16.4177   21.2626 C   0  0  1  0  0  0  0  0  0  0  0  0
    9.7591  -17.8488   21.3842 C   0  0  0  0  0  0  0  0  0  0  0  0
    8.8014  -18.8088   20.7962 C   0  0  0  0  0  0  0  0  0  0  0  0
    8.3490  -19.9311   21.6599 C   0  0  0  0  0  0  0  0  0  0  0  0
    7.9855  -21.1680   20.8235 C   0  0  0  0  0  0  0  0  0  0  0  0
    9.0830  -22.1088   20.8337 N   0  0  0  0  0  0  0  0  0  0  0  0
    9.5987  -15.6532   22.5196 C   0  0  0  0  0  0  0  0  0  0  0  0
   10.7063  -15.0839   22.7573 O   0  0  0  0  0  0  0  0  0  0  0  0
    6.4517  -12.2690   26.5482 C   0  0  0  0  0  0  0  0  0  0  0  0
    7.6766  -13.0959   26.2533 C   0  0  0  0  0  0  0  0  0  0  0  0
    7.5079  -14.0723   25.1425 C   0  0  2  0  0  0  0  0  0  0  0  0
    6.3192  -14.9993   25.4269 C   0  0  0  0  0  0  0  0  0  0  0  0
    8.7241  -14.8472   24.7614 C   0  0  2  0  0  0  0  0  0  0  0  0
    8.5801  -15.5319   23.4982 N   0  0  0  0  0  0  0  0  0  0  0  0
    9.3054  -15.6563   25.8400 C   0  0  0  0  0  0  0  0  0  0  0  0
    9.2856  -16.9082   25.8767 O   0  0  0  0  0  0  0  0  0  0  0  0
    9.9438  -15.0106   26.9299 N   0  0  0  0  0  0  0  0  0  0  0  0
   10.7254  -15.7084   27.8733 C   0  0  1  0  0  0  0  0  0  0  0  0
   11.2508  -14.9934   29.0484 C   0  0  0  0  0  0  0  0  0  0  0  0
   10.7214  -13.3053   29.2701 S   0  0  0  0  0  0  0  0  0  0  0  0
   10.0530  -17.0184   28.2266 C   0  0  0  0  0  0  0  0  0  0  0  0
   10.7328  -18.0345   28.8701 O   0  0  0  0  0  0  0  0  0  0  0  0
    8.8516  -17.2034   27.9363 O   0  0  0  0  0  0  0  0  0  0  0  0
  2  1  1  6
  2  3  1  0
  4  3  1  0
  4  5  1  0
  5  6  1  0
  6  7  1  0
  8  9  2  0
  8  2  1  0
 10 11  1  0
 11 12  1  0
 12 14  1  0
 12 13  1  1
 14 15  1  6
 15  8  1  0
 16 18  1  0
 16 14  1  0
 17 16  2  0
 19 22  1  0
 19 18  1  0
 19 20  1  1
 20 21  1  0
 22 23  1  0
 24 22  2  0
M  END
$$$$
