FFI.pdb
     RDKit          3D

 31 32  0  0  1  0  0  0  0  0999 V2000
   25.3490  -11.0791  -18.5748 N   0  0  0  0  0  0  0  0  0  0  0  0
   24.7139  -10.6831  -17.3359 C   0  0  1  0  0  0  0  0  0  0  0  0
   25.7681  -10.1647  -16.4005 C   0  0  0  0  0  0  0  0  0  0  0  0
   26.6424  -11.3168  -16.0377 C   0  0  0  0  0  0  0  0  0  0  0  0
   26.1472  -12.3465  -15.2688 C   0  0  0  0  0  0  0  0  0  0  0  0
   26.9308  -13.4373  -14.9098 C   0  0  0  0  0  0  0  0  0  0  0  0
   28.2330  -13.5074  -15.3227 C   0  0  0  0  0  0  0  0  0  0  0  0
   28.7542  -12.4846  -16.0967 C   0  0  0  0  0  0  0  0  0  0  0  0
   27.9569  -11.3992  -16.4478 C   0  0  0  0  0  0  0  0  0  0  0  0
   23.6410   -9.7392  -17.6207 C   0  0  0  0  0  0  0  0  0  0  0  0
   23.7916   -8.9094  -18.5536 O   0  0  0  0  0  0  0  0  0  0  0  0
   22.4058   -9.6703  -16.9199 N   0  0  0  0  0  0  0  0  0  0  0  0
   21.4267   -8.6892  -17.2557 C   0  0  1  0  0  0  0  0  0  0  0  0
   20.1403   -9.2809  -17.7829 C   0  0  0  0  0  0  0  0  0  0  0  0
   20.3018   -9.9190  -19.1016 C   0  0  0  0  0  0  0  0  0  0  0  0
   20.1248   -9.1693  -20.2435 C   0  0  0  0  0  0  0  0  0  0  0  0
   20.2594   -9.6973  -21.5080 C   0  0  0  0  0  0  0  0  0  0  0  0
   20.5818  -11.0188  -21.6803 C   0  0  0  0  0  0  0  0  0  0  0  0
   20.7658  -11.7969  -20.5525 C   0  0  0  0  0  0  0  0  0  0  0  0
   20.6252  -11.2442  -19.2918 C   0  0  0  0  0  0  0  0  0  0  0  0
   21.0953   -7.7865  -16.1195 C   0  0  0  0  0  0  0  0  0  0  0  0
   20.9937   -8.2643  -14.9603 O   0  0  0  0  0  0  0  0  0  0  0  0
   23.1553   -4.5291  -14.2169 C   0  0  0  0  0  0  0  0  0  0  0  0
   22.5075   -4.1220  -15.5416 C   0  0  0  0  0  0  0  0  0  0  0  0
   21.0095   -4.1212  -15.3970 C   0  0  2  0  0  0  0  0  0  0  0  0
   20.6722   -3.1921  -14.2503 C   0  0  0  0  0  0  0  0  0  0  0  0
   20.5114   -5.5056  -15.1797 C   0  0  2  0  0  0  0  0  0  0  0  0
   20.8853   -6.3957  -16.2788 N   0  0  0  0  0  0  0  0  0  0  0  0
   19.0664   -5.6181  -14.9199 C   0  0  0  0  0  0  0  0  0  0  0  0
   18.6500   -5.6896  -13.5759 O   0  0  0  0  0  0  0  0  0  0  0  0
   18.1562   -5.6582  -15.7580 O   0  0  0  0  0  0  0  0  0  0  0  0
  2  1  1  6
  2 10  1  0
  3  2  1  0
  3  4  1  0
  4  9  1  0
  4  5  2  0
  5  6  1  0
  6  7  2  0
  8  7  1  0
  9  8  2  0
 10 11  2  0
 12 13  1  0
 12 10  1  0
 13 21  1  0
 13 14  1  1
 15 14  1  0
 16 15  2  0
 17 16  1  0
 18 19  1  0
 18 17  2  0
 19 20  2  0
 20 15  1  0
 21 22  2  0
 24 25  1  0
 24 23  1  0
 25 27  1  0
 25 26  1  1
 27 29  1  0
 28 21  1  0
 27 28  1  6
 29 31  2  0
 29 30  1  0
M  END
$$$$
