FFI.pdb
     RDKit          3D

 31 32  0  0  1  0  0  0  0  0999 V2000
   15.5369  -18.2678    2.7256 N   0  0  0  0  0  0  0  0  0  0  0  0
   15.2169  -17.4405    3.8693 C   0  0  1  0  0  0  0  0  0  0  0  0
   14.0297  -18.0327    4.5728 C   0  0  0  0  0  0  0  0  0  0  0  0
   12.8178  -17.3285    4.0642 C   0  0  0  0  0  0  0  0  0  0  0  0
   11.9373  -17.9804    3.2296 C   0  0  0  0  0  0  0  0  0  0  0  0
   10.7969  -17.3579    2.7348 C   0  0  0  0  0  0  0  0  0  0  0  0
   10.5249  -16.0614    3.0757 C   0  0  0  0  0  0  0  0  0  0  0  0
   11.3949  -15.3844    3.9134 C   0  0  0  0  0  0  0  0  0  0  0  0
   12.5324  -16.0215    4.4004 C   0  0  0  0  0  0  0  0  0  0  0  0
   16.4011  -17.2884    4.7046 C   0  0  0  0  0  0  0  0  0  0  0  0
   17.4714  -17.8459    4.3510 O   0  0  0  0  0  0  0  0  0  0  0  0
   16.4565  -16.5463    5.9161 N   0  0  0  0  0  0  0  0  0  0  0  0
   17.6813  -16.4047    6.6330 C   0  0  1  0  0  0  0  0  0  0  0  0
   17.8690  -15.0318    7.2354 C   0  0  0  0  0  0  0  0  0  0  0  0
   18.0689  -13.9833    6.2192 C   0  0  0  0  0  0  0  0  0  0  0  0
   16.9732  -13.3617    5.6620 C   0  0  0  0  0  0  0  0  0  0  0  0
   17.0832  -12.3746    4.7084 C   0  0  0  0  0  0  0  0  0  0  0  0
   18.3157  -11.9652    4.2686 C   0  0  0  0  0  0  0  0  0  0  0  0
   19.4346  -12.5708    4.8095 C   0  0  0  0  0  0  0  0  0  0  0  0
   19.2993  -13.5607    5.7668 C   0  0  0  0  0  0  0  0  0  0  0  0
   17.8419  -17.4156    7.7137 C   0  0  0  0  0  0  0  0  0  0  0  0
   16.8529  -17.7162    8.4305 O   0  0  0  0  0  0  0  0  0  0  0  0
   19.4630  -22.1674    6.8728 C   0  0  0  0  0  0  0  0  0  0  0  0
   18.8634  -20.8887    7.4608 C   0  0  0  0  0  0  0  0  0  0  0  0
   19.7756  -20.3410    8.5252 C   0  0  2  0  0  0  0  0  0  0  0  0
   19.8955  -21.4013    9.5991 C   0  0  0  0  0  0  0  0  0  0  0  0
   19.2450  -19.0533    9.0466 C   0  0  2  0  0  0  0  0  0  0  0  0
   19.0703  -18.0667    7.9806 N   0  0  0  0  0  0  0  0  0  0  0  0
   20.0167  -18.4588   10.1509 C   0  0  0  0  0  0  0  0  0  0  0  0
   19.5386  -18.6588   11.4610 O   0  0  0  0  0  0  0  0  0  0  0  0
   21.0555  -17.7912   10.0636 O   0  0  0  0  0  0  0  0  0  0  0  0
  2  1  1  6
  2 10  1  0
  3  2  1  0
  3  4  1  0
  4  9  1  0
  4  5  2  0
  5  6  1  0
  6  7  2  0
  8  7  1  0
  9  8  2  0
 10 11  2  0
 12 13  1  0
 12 10  1  0
 13 21  1  0
 13 14  1  1
 15 14  1  0
 16 15  2  0
 17 16  1  0
 18 19  1  0
 18 17  2  0
 19 20  2  0
 20 15  1  0
 21 22  2  0
 24 25  1  0
 24 23  1  0
 25 27  1  0
 25 26  1  1
 27 29  1  0
 28 21  1  0
 27 28  1  6
 29 31  2  0
 29 30  1  0
M  END
$$$$
