FFI.pdb
     RDKit          3D

 31 32  0  0  1  0  0  0  0  0999 V2000
   26.9159  -23.1461  -17.2377 N   0  0  0  0  0  0  0  0  0  0  0  0
   26.8011  -21.8128  -16.6863 C   0  0  1  0  0  0  0  0  0  0  0  0
   25.9162  -20.9968  -17.5842 C   0  0  0  0  0  0  0  0  0  0  0  0
   26.7453  -20.5601  -18.7440 C   0  0  0  0  0  0  0  0  0  0  0  0
   27.5893  -19.4785  -18.6236 C   0  0  0  0  0  0  0  0  0  0  0  0
   28.3779  -19.0411  -19.6817 C   0  0  0  0  0  0  0  0  0  0  0  0
   28.3276  -19.6909  -20.8843 C   0  0  0  0  0  0  0  0  0  0  0  0
   27.4868  -20.7811  -21.0305 C   0  0  0  0  0  0  0  0  0  0  0  0
   26.7036  -21.2068  -19.9617 C   0  0  0  0  0  0  0  0  0  0  0  0
   26.3478  -21.8966  -15.3041 C   0  0  0  0  0  0  0  0  0  0  0  0
   25.4848  -22.7585  -14.9975 O   0  0  0  0  0  0  0  0  0  0  0  0
   26.8059  -21.0693  -14.2423 N   0  0  0  0  0  0  0  0  0  0  0  0
   26.2138  -21.1449  -12.9471 C   0  0  1  0  0  0  0  0  0  0  0  0
   27.0553  -20.5105  -11.8644 C   0  0  0  0  0  0  0  0  0  0  0  0
   26.3841  -20.4962  -10.5523 C   0  0  0  0  0  0  0  0  0  0  0  0
   25.6969  -19.3705  -10.1548 C   0  0  0  0  0  0  0  0  0  0  0  0
   25.0465  -19.2852   -8.9442 C   0  0  0  0  0  0  0  0  0  0  0  0
   25.0595  -20.3417   -8.0704 C   0  0  0  0  0  0  0  0  0  0  0  0
   25.7413  -21.4856   -8.4416 C   0  0  0  0  0  0  0  0  0  0  0  0
   26.3877  -21.5483   -9.6635 C   0  0  0  0  0  0  0  0  0  0  0  0
   24.8531  -20.5437  -12.8944 C   0  0  0  0  0  0  0  0  0  0  0  0
   24.6824  -19.3650  -13.2989 O   0  0  0  0  0  0  0  0  0  0  0  0
   21.4895  -21.1405  -16.1172 C   0  0  0  0  0  0  0  0  0  0  0  0
   22.2521  -20.6325  -14.8922 C   0  0  0  0  0  0  0  0  0  0  0  0
   21.6157  -21.1678  -13.6379 C   0  0  2  0  0  0  0  0  0  0  0  0
   20.1723  -20.7112  -13.6397 C   0  0  0  0  0  0  0  0  0  0  0  0
   22.3639  -20.7013  -12.4403 C   0  0  2  0  0  0  0  0  0  0  0  0
   23.7229  -21.2416  -12.4048 N   0  0  0  0  0  0  0  0  0  0  0  0
   21.6983  -20.9480  -11.1502 C   0  0  0  0  0  0  0  0  0  0  0  0
   20.9921  -19.8776  -10.5665 O   0  0  0  0  0  0  0  0  0  0  0  0
   21.6849  -22.0043  -10.5047 O   0  0  0  0  0  0  0  0  0  0  0  0
  2  1  1  6
  2 10  1  0
  3  2  1  0
  3  4  1  0
  4  9  1  0
  4  5  2  0
  5  6  1  0
  6  7  2  0
  8  7  1  0
  9  8  2  0
 10 11  2  0
 12 13  1  0
 12 10  1  0
 13 21  1  0
 13 14  1  1
 15 14  1  0
 16 15  2  0
 17 16  1  0
 18 19  1  0
 18 17  2  0
 19 20  2  0
 20 15  1  0
 21 22  2  0
 24 25  1  0
 24 23  1  0
 25 27  1  0
 25 26  1  1
 27 29  1  0
 28 21  1  0
 27 28  1  1
 29 31  2  0
 29 30  1  0
M  END
$$$$
