FFI.pdb
     RDKit          3D

 31 32  0  0  1  0  0  0  0  0999 V2000
   25.6363  -21.3278  -17.9157 N   0  0  0  0  0  0  0  0  0  0  0  0
   25.8413  -20.1725  -17.0683 C   0  0  1  0  0  0  0  0  0  0  0  0
   24.5610  -19.3902  -17.0054 C   0  0  0  0  0  0  0  0  0  0  0  0
   24.3984  -18.7021  -18.3182 C   0  0  0  0  0  0  0  0  0  0  0  0
   25.2208  -17.6499  -18.6548 C   0  0  0  0  0  0  0  0  0  0  0  0
   25.1003  -16.9831  -19.8688 C   0  0  0  0  0  0  0  0  0  0  0  0
   24.1437  -17.3689  -20.7672 C   0  0  0  0  0  0  0  0  0  0  0  0
   23.3046  -18.4241  -20.4519 C   0  0  0  0  0  0  0  0  0  0  0  0
   23.4378  -19.0815  -19.2325 C   0  0  0  0  0  0  0  0  0  0  0  0
   26.3502  -20.6048  -15.7732 C   0  0  0  0  0  0  0  0  0  0  0  0
   25.8002  -21.5779  -15.1968 O   0  0  0  0  0  0  0  0  0  0  0  0
   27.4420  -20.0093  -15.0841 N   0  0  0  0  0  0  0  0  0  0  0  0
   27.7703  -20.4025  -13.7530 C   0  0  1  0  0  0  0  0  0  0  0  0
   29.1269  -19.9149  -13.3004 C   0  0  0  0  0  0  0  0  0  0  0  0
   29.4170  -20.2527  -11.8954 C   0  0  0  0  0  0  0  0  0  0  0  0
   30.1101  -21.4071  -11.6050 C   0  0  0  0  0  0  0  0  0  0  0  0
   30.4167  -21.7864  -10.3174 C   0  0  0  0  0  0  0  0  0  0  0  0
   30.0346  -21.0109   -9.2531 C   0  0  0  0  0  0  0  0  0  0  0  0
   29.3374  -19.8459   -9.5131 C   0  0  0  0  0  0  0  0  0  0  0  0
   29.0405  -19.4851  -10.8155 C   0  0  0  0  0  0  0  0  0  0  0  0
   26.7585  -19.9661  -12.7522 C   0  0  0  0  0  0  0  0  0  0  0  0
   26.4011  -18.7605  -12.7205 O   0  0  0  0  0  0  0  0  0  0  0  0
   21.3651  -19.9623  -11.1939 C   0  0  0  0  0  0  0  0  0  0  0  0
   22.7490  -19.9276  -10.5430 C   0  0  0  0  0  0  0  0  0  0  0  0
   23.7813  -20.4350  -11.5135 C   0  0  2  0  0  0  0  0  0  0  0  0
   23.3318  -21.8080  -11.9659 C   0  0  0  0  0  0  0  0  0  0  0  0
   25.1247  -20.4519  -10.8757 C   0  0  2  0  0  0  0  0  0  0  0  0
   26.1685  -20.8523  -11.8193 N   0  0  0  0  0  0  0  0  0  0  0  0
   25.2264  -21.2622   -9.6504 C   0  0  0  0  0  0  0  0  0  0  0  0
   26.3041  -22.1645   -9.5540 O   0  0  0  0  0  0  0  0  0  0  0  0
   24.4631  -21.2448   -8.6760 O   0  0  0  0  0  0  0  0  0  0  0  0
  2  1  1  6
  2 10  1  0
  3  2  1  0
  3  4  1  0
  4  9  1  0
  4  5  2  0
  5  6  1  0
  6  7  2  0
  8  7  1  0
  9  8  2  0
 10 11  2  0
 12 13  1  0
 12 10  1  0
 13 21  1  0
 13 14  1  1
 15 14  1  0
 16 15  2  0
 17 16  1  0
 18 19  1  0
 18 17  2  0
 19 20  2  0
 20 15  1  0
 21 22  2  0
 24 25  1  0
 24 23  1  0
 25 27  1  0
 25 26  1  1
 27 29  1  0
 28 21  1  0
 27 28  1  6
 29 31  2  0
 29 30  1  0
M  END
$$$$
