FFI.pdb
     RDKit          3D

 31 32  0  0  1  0  0  0  0  0999 V2000
   23.5050  -20.6033  -16.6132 N   0  0  0  0  0  0  0  0  0  0  0  0
   23.5929  -19.7604  -15.4399 C   0  0  1  0  0  0  0  0  0  0  0  0
   22.2493  -19.7291  -14.7699 C   0  0  0  0  0  0  0  0  0  0  0  0
   21.3359  -18.9423  -15.6474 C   0  0  0  0  0  0  0  0  0  0  0  0
   21.6262  -17.6305  -15.9499 C   0  0  0  0  0  0  0  0  0  0  0  0
   20.7997  -16.8644  -16.7640 C   0  0  0  0  0  0  0  0  0  0  0  0
   19.6614  -17.4120  -17.2888 C   0  0  0  0  0  0  0  0  0  0  0  0
   19.3476  -18.7291  -16.9993 C   0  0  0  0  0  0  0  0  0  0  0  0
   20.1852  -19.4829  -16.1826 C   0  0  0  0  0  0  0  0  0  0  0  0
   24.6819  -20.2238  -14.5900 C   0  0  0  0  0  0  0  0  0  0  0  0
   24.7681  -21.4501  -14.3251 O   0  0  0  0  0  0  0  0  0  0  0  0
   25.6827  -19.3915  -14.0178 N   0  0  0  0  0  0  0  0  0  0  0  0
   26.6495  -19.9237  -13.1143 C   0  0  1  0  0  0  0  0  0  0  0  0
   28.0693  -19.5390  -13.4593 C   0  0  0  0  0  0  0  0  0  0  0  0
   28.5329  -20.1364  -14.7244 C   0  0  0  0  0  0  0  0  0  0  0  0
   28.3782  -19.4369  -15.9010 C   0  0  0  0  0  0  0  0  0  0  0  0
   28.7870  -19.9314  -17.1193 C   0  0  0  0  0  0  0  0  0  0  0  0
   29.3764  -21.1663  -17.2076 C   0  0  0  0  0  0  0  0  0  0  0  0
   29.5452  -21.8922  -16.0432 C   0  0  0  0  0  0  0  0  0  0  0  0
   29.1264  -21.3747  -14.8302 C   0  0  0  0  0  0  0  0  0  0  0  0
   26.3926  -19.5431  -11.6984 C   0  0  0  0  0  0  0  0  0  0  0  0
   26.1371  -18.3439  -11.4177 O   0  0  0  0  0  0  0  0  0  0  0  0
   22.4561  -20.6039   -8.8697 C   0  0  0  0  0  0  0  0  0  0  0  0
   23.7668  -20.1022   -9.4783 C   0  0  0  0  0  0  0  0  0  0  0  0
   24.9327  -20.6588   -8.7065 C   0  0  2  0  0  0  0  0  0  0  0  0
   24.7074  -20.3169   -7.2490 C   0  0  0  0  0  0  0  0  0  0  0  0
   26.2101  -20.1094   -9.2341 C   0  0  2  0  0  0  0  0  0  0  0  0
   26.4215  -20.4764  -10.6344 N   0  0  0  0  0  0  0  0  0  0  0  0
   27.4088  -20.4445   -8.4472 C   0  0  0  0  0  0  0  0  0  0  0  0
   27.7185  -19.6185   -7.3487 O   0  0  0  0  0  0  0  0  0  0  0  0
   28.1920  -21.3836   -8.6396 O   0  0  0  0  0  0  0  0  0  0  0  0
  2  1  1  6
  2 10  1  0
  3  2  1  0
  3  4  1  0
  4  9  1  0
  4  5  2  0
  5  6  1  0
  6  7  2  0
  8  7  1  0
  9  8  2  0
 10 11  2  0
 12 13  1  0
 12 10  1  0
 13 21  1  0
 13 14  1  6
 15 14  1  0
 16 15  2  0
 17 16  1  0
 18 19  1  0
 18 17  2  0
 19 20  2  0
 20 15  1  0
 21 22  2  0
 24 25  1  0
 24 23  1  0
 25 27  1  0
 25 26  1  1
 27 29  1  0
 28 21  1  0
 27 28  1  6
 29 31  2  0
 29 30  1  0
M  END
$$$$
