FFI.pdb
     RDKit          3D

 31 32  0  0  1  0  0  0  0  0999 V2000
   25.7150  -21.9295  -12.7651 N   0  0  0  0  0  0  0  0  0  0  0  0
   25.5771  -20.7473  -11.9416 C   0  0  1  0  0  0  0  0  0  0  0  0
   24.1300  -20.3468  -11.9156 C   0  0  0  0  0  0  0  0  0  0  0  0
   23.7926  -19.8200  -13.2691 C   0  0  0  0  0  0  0  0  0  0  0  0
   24.5019  -18.7645  -13.7978 C   0  0  0  0  0  0  0  0  0  0  0  0
   24.2175  -18.2454  -15.0557 C   0  0  0  0  0  0  0  0  0  0  0  0
   23.2080  -18.7854  -15.8044 C   0  0  0  0  0  0  0  0  0  0  0  0
   22.4803  -19.8473  -15.2948 C   0  0  0  0  0  0  0  0  0  0  0  0
   22.7772  -20.3557  -14.0337 C   0  0  0  0  0  0  0  0  0  0  0  0
   26.1587  -20.9992  -10.6296 C   0  0  0  0  0  0  0  0  0  0  0  0
   25.8502  -22.0547  -10.0193 O   0  0  0  0  0  0  0  0  0  0  0  0
   27.0679  -20.1358   -9.9593 N   0  0  0  0  0  0  0  0  0  0  0  0
   27.4322  -20.3682   -8.6001 C   0  0  1  0  0  0  0  0  0  0  0  0
   28.6157  -19.5456   -8.1468 C   0  0  0  0  0  0  0  0  0  0  0  0
   28.8573  -19.6414   -6.6960 C   0  0  0  0  0  0  0  0  0  0  0  0
   29.5515  -20.7202   -6.1943 C   0  0  0  0  0  0  0  0  0  0  0  0
   29.8144  -20.8761   -4.8518 C   0  0  0  0  0  0  0  0  0  0  0  0
   29.3850  -19.9418   -3.9447 C   0  0  0  0  0  0  0  0  0  0  0  0
   28.6854  -18.8475   -4.4184 C   0  0  0  0  0  0  0  0  0  0  0  0
   28.4331  -18.7121   -5.7722 C   0  0  0  0  0  0  0  0  0  0  0  0
   26.3099  -20.1361   -7.6502 C   0  0  0  0  0  0  0  0  0  0  0  0
   25.5946  -19.1094   -7.7781 O   0  0  0  0  0  0  0  0  0  0  0  0
   21.3178  -22.1442   -5.5778 C   0  0  0  0  0  0  0  0  0  0  0  0
   22.5623  -21.3922   -5.1026 C   0  0  0  0  0  0  0  0  0  0  0  0
   23.7091  -21.6624   -6.0389 C   0  0  2  0  0  0  0  0  0  0  0  0
   24.0036  -23.1456   -5.9678 C   0  0  0  0  0  0  0  0  0  0  0  0
   24.8828  -20.8259   -5.6717 C   0  0  2  0  0  0  0  0  0  0  0  0
   26.0013  -21.0258   -6.5933 N   0  0  0  0  0  0  0  0  0  0  0  0
   25.3506  -20.9774   -4.2838 C   0  0  0  0  0  0  0  0  0  0  0  0
   26.6580  -21.4641   -4.0866 O   0  0  0  0  0  0  0  0  0  0  0  0
   24.7198  -20.7231   -3.2494 O   0  0  0  0  0  0  0  0  0  0  0  0
  2  1  1  6
  2 10  1  0
  3  2  1  0
  3  4  1  0
  4  9  1  0
  4  5  2  0
  5  6  1  0
  6  7  2  0
  8  7  1  0
  9  8  2  0
 10 11  2  0
 12 13  1  0
 12 10  1  0
 13 21  1  0
 13 14  1  1
 15 14  1  0
 16 15  2  0
 17 16  1  0
 18 19  1  0
 18 17  2  0
 19 20  2  0
 20 15  1  0
 21 22  2  0
 24 25  1  0
 24 23  1  0
 25 27  1  0
 25 26  1  1
 27 29  1  0
 28 21  1  0
 27 28  1  6
 29 31  2  0
 29 30  1  0
M  END
$$$$
