FFI.pdb
     RDKit          3D

 31 32  0  0  1  0  0  0  0  0999 V2000
   25.2397  -20.8163  -19.4399 N   0  0  0  0  0  0  0  0  0  0  0  0
   24.3453  -20.6830  -18.3098 C   0  0  1  0  0  0  0  0  0  0  0  0
   23.5215  -21.9337  -18.1997 C   0  0  0  0  0  0  0  0  0  0  0  0
   22.2720  -21.7106  -18.9823 C   0  0  0  0  0  0  0  0  0  0  0  0
   22.1174  -22.2931  -20.2206 C   0  0  0  0  0  0  0  0  0  0  0  0
   20.9678  -22.1089  -20.9803 C   0  0  0  0  0  0  0  0  0  0  0  0
   19.9505  -21.3302  -20.5008 C   0  0  0  0  0  0  0  0  0  0  0  0
   20.0821  -20.7336  -19.2583 C   0  0  0  0  0  0  0  0  0  0  0  0
   21.2392  -20.9277  -18.5099 C   0  0  0  0  0  0  0  0  0  0  0  0
   25.1161  -20.3594  -17.1164 C   0  0  0  0  0  0  0  0  0  0  0  0
   26.3526  -20.5885  -17.1096 O   0  0  0  0  0  0  0  0  0  0  0  0
   24.5815  -19.7928  -15.9270 N   0  0  0  0  0  0  0  0  0  0  0  0
   25.4243  -19.4880  -14.8176 C   0  0  1  0  0  0  0  0  0  0  0  0
   25.4887  -18.0122  -14.5002 C   0  0  0  0  0  0  0  0  0  0  0  0
   26.1748  -17.2314  -15.5452 C   0  0  0  0  0  0  0  0  0  0  0  0
   27.5504  -17.1609  -15.5454 C   0  0  0  0  0  0  0  0  0  0  0  0
   28.2585  -16.4512  -16.4892 C   0  0  0  0  0  0  0  0  0  0  0  0
   27.6051  -15.7734  -17.4860 C   0  0  0  0  0  0  0  0  0  0  0  0
   26.2239  -15.8255  -17.5120 C   0  0  0  0  0  0  0  0  0  0  0  0
   25.5336  -16.5453  -16.5528 C   0  0  0  0  0  0  0  0  0  0  0  0
   25.0391  -20.2167  -13.5781 C   0  0  0  0  0  0  0  0  0  0  0  0
   23.8262  -20.4710  -13.3627 O   0  0  0  0  0  0  0  0  0  0  0  0
   29.1712  -21.7936  -10.1304 C   0  0  0  0  0  0  0  0  0  0  0  0
   27.8899  -21.9460  -10.9521 C   0  0  0  0  0  0  0  0  0  0  0  0
   26.7989  -21.0976  -10.3565 C   0  0  2  0  0  0  0  0  0  0  0  0
   26.4766  -21.6761   -8.9951 C   0  0  0  0  0  0  0  0  0  0  0  0
   25.6186  -21.0655  -11.2607 C   0  0  2  0  0  0  0  0  0  0  0  0
   25.9827  -20.6451  -12.6138 N   0  0  0  0  0  0  0  0  0  0  0  0
   24.4828  -20.2610  -10.7802 C   0  0  0  0  0  0  0  0  0  0  0  0
   23.3460  -20.9516  -10.3154 O   0  0  0  0  0  0  0  0  0  0  0  0
   24.4061  -19.0263  -10.7350 O   0  0  0  0  0  0  0  0  0  0  0  0
  2  1  1  6
  2 10  1  0
  3  2  1  0
  3  4  1  0
  4  9  1  0
  4  5  2  0
  5  6  1  0
  6  7  2  0
  8  7  1  0
  9  8  2  0
 10 11  2  0
 12 13  1  0
 12 10  1  0
 13 21  1  0
 13 14  1  1
 15 14  1  0
 16 15  2  0
 17 16  1  0
 18 19  1  0
 18 17  2  0
 19 20  2  0
 20 15  1  0
 21 22  2  0
 24 25  1  0
 24 23  1  0
 25 27  1  0
 25 26  1  1
 27 29  1  0
 28 21  1  0
 27 28  1  6
 29 31  2  0
 29 30  1  0
M  END
$$$$
