FFI.pdb
     RDKit          3D

 31 32  0  0  1  0  0  0  0  0999 V2000
   28.0593  -27.2835  -16.3635 N   0  0  0  0  0  0  0  0  0  0  0  0
   26.7941  -27.6733  -16.9487 C   0  0  1  0  0  0  0  0  0  0  0  0
   26.2204  -26.4941  -17.6804 C   0  0  0  0  0  0  0  0  0  0  0  0
   25.7509  -25.5214  -16.6523 C   0  0  0  0  0  0  0  0  0  0  0  0
   24.7094  -25.8497  -15.8132 C   0  0  0  0  0  0  0  0  0  0  0  0
   24.2433  -24.9703  -14.8426 C   0  0  0  0  0  0  0  0  0  0  0  0
   24.8233  -23.7394  -14.7020 C   0  0  0  0  0  0  0  0  0  0  0  0
   25.8722  -23.3859  -15.5337 C   0  0  0  0  0  0  0  0  0  0  0  0
   26.3273  -24.2774  -16.5006 C   0  0  0  0  0  0  0  0  0  0  0  0
   26.9852  -28.8609  -17.7710 C   0  0  0  0  0  0  0  0  0  0  0  0
   28.0851  -29.0243  -18.3584 O   0  0  0  0  0  0  0  0  0  0  0  0
   26.0137  -29.8789  -17.9743 N   0  0  0  0  0  0  0  0  0  0  0  0
   26.2963  -31.0068  -18.8002 C   0  0  1  0  0  0  0  0  0  0  0  0
   26.5450  -32.2757  -18.0186 C   0  0  0  0  0  0  0  0  0  0  0  0
   27.8991  -32.3354  -17.4398 C   0  0  0  0  0  0  0  0  0  0  0  0
   28.0872  -31.9935  -16.1187 C   0  0  0  0  0  0  0  0  0  0  0  0
   29.3222  -32.0254  -15.5109 C   0  0  0  0  0  0  0  0  0  0  0  0
   30.4353  -32.4076  -16.2146 C   0  0  0  0  0  0  0  0  0  0  0  0
   30.2780  -32.7567  -17.5430 C   0  0  0  0  0  0  0  0  0  0  0  0
   29.0268  -32.7169  -18.1325 C   0  0  0  0  0  0  0  0  0  0  0  0
   25.2283  -31.2758  -19.8014 C   0  0  0  0  0  0  0  0  0  0  0  0
   24.0477  -30.9171  -19.5569 O   0  0  0  0  0  0  0  0  0  0  0  0
   23.7925  -31.1671  -25.6003 C   0  0  0  0  0  0  0  0  0  0  0  0
   23.6361  -31.9861  -24.3178 C   0  0  0  0  0  0  0  0  0  0  0  0
   24.6601  -31.5482  -23.3056 C   0  0  2  0  0  0  0  0  0  0  0  0
   26.0235  -31.8478  -23.8916 C   0  0  0  0  0  0  0  0  0  0  0  0
   24.4294  -32.2362  -22.0075 C   0  0  2  0  0  0  0  0  0  0  0  0
   25.4768  -31.9250  -21.0346 N   0  0  0  0  0  0  0  0  0  0  0  0
   24.2511  -33.6952  -22.0946 C   0  0  0  0  0  0  0  0  0  0  0  0
   22.9795  -34.1748  -22.4660 O   0  0  0  0  0  0  0  0  0  0  0  0
   25.1018  -34.5676  -21.8760 O   0  0  0  0  0  0  0  0  0  0  0  0
  2  1  1  6
  2 10  1  0
  3  2  1  0
  3  4  1  0
  4  9  1  0
  4  5  2  0
  5  6  1  0
  6  7  2  0
  8  7  1  0
  9  8  2  0
 10 11  2  0
 12 13  1  0
 12 10  1  0
 13 21  1  0
 13 14  1  1
 15 14  1  0
 16 15  2  0
 17 16  1  0
 18 19  1  0
 18 17  2  0
 19 20  2  0
 20 15  1  0
 21 22  2  0
 24 25  1  0
 24 23  1  0
 25 27  1  0
 25 26  1  6
 27 29  1  0
 28 21  1  0
 27 28  1  1
 29 31  2  0
 29 30  1  0
M  END
$$$$
