FFI.pdb
     RDKit          3D

 31 32  0  0  1  0  0  0  0  0999 V2000
   26.0934  -19.9791  -18.5621 N   0  0  0  0  0  0  0  0  0  0  0  0
   25.8256  -19.0758  -17.4633 C   0  0  1  0  0  0  0  0  0  0  0  0
   24.3886  -18.6456  -17.5353 C   0  0  0  0  0  0  0  0  0  0  0  0
   24.2359  -17.8181  -18.7662 C   0  0  0  0  0  0  0  0  0  0  0  0
   24.8898  -16.6109  -18.8744 C   0  0  0  0  0  0  0  0  0  0  0  0
   24.7726  -15.8111  -20.0055 C   0  0  0  0  0  0  0  0  0  0  0  0
   23.9899  -16.2183  -21.0509 C   0  0  0  0  0  0  0  0  0  0  0  0
   23.3223  -17.4282  -20.9662 C   0  0  0  0  0  0  0  0  0  0  0  0
   23.4498  -18.2175  -19.8270 C   0  0  0  0  0  0  0  0  0  0  0  0
   26.2043  -19.7122  -16.2085 C   0  0  0  0  0  0  0  0  0  0  0  0
   25.7053  -20.8293  -15.9174 O   0  0  0  0  0  0  0  0  0  0  0  0
   27.1117  -19.1692  -15.2581 N   0  0  0  0  0  0  0  0  0  0  0  0
   27.2339  -19.7359  -13.9551 C   0  0  1  0  0  0  0  0  0  0  0  0
   28.3759  -19.1565  -13.1532 C   0  0  0  0  0  0  0  0  0  0  0  0
   28.3974  -19.6351  -11.7593 C   0  0  0  0  0  0  0  0  0  0  0  0
   29.1491  -20.7427  -11.4346 C   0  0  0  0  0  0  0  0  0  0  0  0
   29.2169  -21.2463  -10.1549 C   0  0  0  0  0  0  0  0  0  0  0  0
   28.5227  -20.6499   -9.1339 C   0  0  0  0  0  0  0  0  0  0  0  0
   27.7590  -19.5359   -9.4292 C   0  0  0  0  0  0  0  0  0  0  0  0
   27.7062  -19.0478  -10.7228 C   0  0  0  0  0  0  0  0  0  0  0  0
   25.9880  -19.6146  -13.1497 C   0  0  0  0  0  0  0  0  0  0  0  0
   25.3425  -18.5351  -13.1691 O   0  0  0  0  0  0  0  0  0  0  0  0
   20.5765  -20.8842  -12.5754 C   0  0  0  0  0  0  0  0  0  0  0  0
   21.7839  -20.6494  -11.6660 C   0  0  0  0  0  0  0  0  0  0  0  0
   23.0547  -20.9099  -12.4290 C   0  0  2  0  0  0  0  0  0  0  0  0
   23.0293  -22.3622  -12.8558 C   0  0  0  0  0  0  0  0  0  0  0  0
   24.2372  -20.5787  -11.5902 C   0  0  2  0  0  0  0  0  0  0  0  0
   25.4841  -20.6685  -12.3502 N   0  0  0  0  0  0  0  0  0  0  0  0
   24.3588  -21.3543  -10.3444 C   0  0  0  0  0  0  0  0  0  0  0  0
   25.4885  -22.1839  -10.2014 O   0  0  0  0  0  0  0  0  0  0  0  0
   23.5715  -21.3644   -9.3892 O   0  0  0  0  0  0  0  0  0  0  0  0
  2  1  1  6
  2 10  1  0
  3  2  1  0
  3  4  1  0
  4  9  1  0
  4  5  2  0
  5  6  1  0
  6  7  2  0
  8  7  1  0
  9  8  2  0
 10 11  2  0
 12 13  1  0
 12 10  1  0
 13 21  1  0
 13 14  1  1
 15 14  1  0
 16 15  2  0
 17 16  1  0
 18 19  1  0
 18 17  2  0
 19 20  2  0
 20 15  1  0
 21 22  2  0
 24 25  1  0
 24 23  1  0
 25 27  1  0
 25 26  1  1
 27 29  1  0
 28 21  1  0
 27 28  1  6
 29 31  2  0
 29 30  1  0
M  END
$$$$
