FFI.pdb
     RDKit          3D

 31 32  0  0  1  0  0  0  0  0999 V2000
   23.8232  -19.9364  -18.5945 N   0  0  0  0  0  0  0  0  0  0  0  0
   23.8629  -19.1048  -17.4106 C   0  0  1  0  0  0  0  0  0  0  0  0
   22.4539  -18.7807  -17.0044 C   0  0  0  0  0  0  0  0  0  0  0  0
   21.9261  -17.7930  -17.9889 C   0  0  0  0  0  0  0  0  0  0  0  0
   22.3578  -16.4855  -17.9570 C   0  0  0  0  0  0  0  0  0  0  0  0
   21.8893  -15.5355  -18.8575 C   0  0  0  0  0  0  0  0  0  0  0  0
   20.9734  -15.8908  -19.8093 C   0  0  0  0  0  0  0  0  0  0  0  0
   20.5240  -17.1993  -19.8618 C   0  0  0  0  0  0  0  0  0  0  0  0
   21.0025  -18.1387  -18.9533 C   0  0  0  0  0  0  0  0  0  0  0  0
   24.6527  -19.7655  -16.3796 C   0  0  0  0  0  0  0  0  0  0  0  0
   24.4939  -20.9981  -16.1874 O   0  0  0  0  0  0  0  0  0  0  0  0
   25.6125  -19.1246  -15.5493 N   0  0  0  0  0  0  0  0  0  0  0  0
   26.3442  -19.8616  -14.5718 C   0  0  1  0  0  0  0  0  0  0  0  0
   27.8298  -19.5878  -14.6015 C   0  0  0  0  0  0  0  0  0  0  0  0
   28.4948  -20.1653  -15.7833 C   0  0  0  0  0  0  0  0  0  0  0  0
   28.6574  -19.3949  -16.9135 C   0  0  0  0  0  0  0  0  0  0  0  0
   29.2685  -19.8669  -18.0535 C   0  0  0  0  0  0  0  0  0  0  0  0
   29.7483  -21.1502  -18.1063 C   0  0  0  0  0  0  0  0  0  0  0  0
   29.5997  -21.9478  -16.9870 C   0  0  0  0  0  0  0  0  0  0  0  0
   28.9821  -21.4516  -15.8525 C   0  0  0  0  0  0  0  0  0  0  0  0
   25.8540  -19.6329  -13.1850 C   0  0  0  0  0  0  0  0  0  0  0  0
   25.6804  -18.4557  -12.7774 O   0  0  0  0  0  0  0  0  0  0  0  0
   21.4510  -19.9131   -9.7097 C   0  0  0  0  0  0  0  0  0  0  0  0
   22.9689  -20.0868   -9.6319 C   0  0  0  0  0  0  0  0  0  0  0  0
   23.5133  -20.4253  -10.9934 C   0  0  2  0  0  0  0  0  0  0  0  0
   22.8876  -21.7393  -11.4103 C   0  0  0  0  0  0  0  0  0  0  0  0
   24.9989  -20.4835  -10.9551 C   0  0  2  0  0  0  0  0  0  0  0  0
   25.5685  -20.6893  -12.2869 N   0  0  0  0  0  0  0  0  0  0  0  0
   25.5635  -21.4679  -10.0168 C   0  0  0  0  0  0  0  0  0  0  0  0
   26.1445  -22.6294  -10.5629 O   0  0  0  0  0  0  0  0  0  0  0  0
   25.5889  -21.3951   -8.7812 O   0  0  0  0  0  0  0  0  0  0  0  0
  2  1  1  6
  2 10  1  0
  3  2  1  0
  3  4  1  0
  4  9  1  0
  4  5  2  0
  5  6  1  0
  6  7  2  0
  8  7  1  0
  9  8  2  0
 10 11  2  0
 12 13  1  0
 12 10  1  0
 13 21  1  0
 13 14  1  1
 15 14  1  0
 16 15  2  0
 17 16  1  0
 18 19  1  0
 18 17  2  0
 19 20  2  0
 20 15  1  0
 21 22  2  0
 24 25  1  0
 24 23  1  0
 25 27  1  0
 25 26  1  1
 27 29  1  0
 28 21  1  0
 27 28  1  6
 29 31  2  0
 29 30  1  0
M  END
$$$$
