FFI.pdb
     RDKit          3D

 31 32  0  0  1  0  0  0  0  0999 V2000
   25.3320  -19.1412  -19.2609 N   0  0  0  0  0  0  0  0  0  0  0  0
   25.2377  -18.2372  -18.1346 C   0  0  1  0  0  0  0  0  0  0  0  0
   23.8771  -17.6015  -18.1421 C   0  0  0  0  0  0  0  0  0  0  0  0
   23.8982  -16.5242  -19.1726 C   0  0  0  0  0  0  0  0  0  0  0  0
   23.2925  -16.7220  -20.3936 C   0  0  0  0  0  0  0  0  0  0  0  0
   23.2909  -15.7422  -21.3798 C   0  0  0  0  0  0  0  0  0  0  0  0
   23.9032  -14.5409  -21.1492 C   0  0  0  0  0  0  0  0  0  0  0  0
   24.5191  -14.3178  -19.9295 C   0  0  0  0  0  0  0  0  0  0  0  0
   24.5122  -15.3087  -18.9523 C   0  0  0  0  0  0  0  0  0  0  0  0
   25.5637  -18.9539  -16.9085 C   0  0  0  0  0  0  0  0  0  0  0  0
   25.4220  -20.2030  -16.8774 O   0  0  0  0  0  0  0  0  0  0  0  0
   26.0404  -18.3515  -15.7121 N   0  0  0  0  0  0  0  0  0  0  0  0
   26.2771  -19.1327  -14.5425 C   0  0  1  0  0  0  0  0  0  0  0  0
   27.3079  -18.5302  -13.6167 C   0  0  0  0  0  0  0  0  0  0  0  0
   27.5074  -19.3217  -12.3895 C   0  0  0  0  0  0  0  0  0  0  0  0
   26.8023  -18.9971  -11.2515 C   0  0  0  0  0  0  0  0  0  0  0  0
   26.9370  -19.6911  -10.0700 C   0  0  0  0  0  0  0  0  0  0  0  0
   27.7975  -20.7549   -9.9811 C   0  0  0  0  0  0  0  0  0  0  0  0
   28.5192  -21.1047  -11.1072 C   0  0  0  0  0  0  0  0  0  0  0  0
   28.3672  -20.3924  -12.2837 C   0  0  0  0  0  0  0  0  0  0  0  0
   25.0393  -19.3934  -13.7580 C   0  0  0  0  0  0  0  0  0  0  0  0
   24.3107  -18.4273  -13.4142 O   0  0  0  0  0  0  0  0  0  0  0  0
   20.7516  -21.3364  -15.2114 C   0  0  0  0  0  0  0  0  0  0  0  0
   21.8270  -20.6450  -14.3713 C   0  0  0  0  0  0  0  0  0  0  0  0
   22.3670  -21.6045  -13.3453 C   0  0  2  0  0  0  0  0  0  0  0  0
   21.1998  -22.0441  -12.4873 C   0  0  0  0  0  0  0  0  0  0  0  0
   23.4494  -20.9596  -12.5553 C   0  0  2  0  0  0  0  0  0  0  0  0
   24.6333  -20.6937  -13.3726 N   0  0  0  0  0  0  0  0  0  0  0  0
   23.8431  -21.6758  -11.3304 C   0  0  0  0  0  0  0  0  0  0  0  0
   23.3080  -21.2204  -10.1092 O   0  0  0  0  0  0  0  0  0  0  0  0
   24.6030  -22.6493  -11.2440 O   0  0  0  0  0  0  0  0  0  0  0  0
  2  1  1  6
  2 10  1  0
  3  2  1  0
  3  4  1  0
  4  9  1  0
  4  5  2  0
  5  6  1  0
  6  7  2  0
  8  7  1  0
  9  8  2  0
 10 11  2  0
 12 13  1  0
 12 10  1  0
 13 21  1  0
 13 14  1  1
 15 14  1  0
 16 15  2  0
 17 16  1  0
 18 19  1  0
 18 17  2  0
 19 20  2  0
 20 15  1  0
 21 22  2  0
 24 25  1  0
 24 23  1  0
 25 27  1  0
 25 26  1  1
 27 29  1  0
 28 21  1  0
 27 28  1  6
 29 31  2  0
 29 30  1  0
M  END
$$$$
