FFI.pdb
     RDKit          3D

 31 32  0  0  1  0  0  0  0  0999 V2000
   22.4192  -11.0262  -18.9903 N   0  0  0  0  0  0  0  0  0  0  0  0
   22.2897   -9.6410  -19.3893 C   0  0  1  0  0  0  0  0  0  0  0  0
   21.1145   -9.5162  -20.3157 C   0  0  0  0  0  0  0  0  0  0  0  0
   21.5344  -10.0613  -21.6385 C   0  0  0  0  0  0  0  0  0  0  0  0
   22.2959   -9.2952  -22.4929 C   0  0  0  0  0  0  0  0  0  0  0  0
   22.7068   -9.7679  -23.7340 C   0  0  0  0  0  0  0  0  0  0  0  0
   22.3546  -11.0273  -24.1353 C   0  0  0  0  0  0  0  0  0  0  0  0
   21.5893  -11.8170  -23.2941 C   0  0  0  0  0  0  0  0  0  0  0  0
   21.1858  -11.3294  -22.0547 C   0  0  0  0  0  0  0  0  0  0  0  0
   22.2163   -8.7990  -18.2023 C   0  0  0  0  0  0  0  0  0  0  0  0
   21.4718   -9.1503  -17.2517 O   0  0  0  0  0  0  0  0  0  0  0  0
   22.9301   -7.5833  -18.0175 N   0  0  0  0  0  0  0  0  0  0  0  0
   22.6711   -6.7455  -16.8927 C   0  0  1  0  0  0  0  0  0  0  0  0
   23.9005   -6.4576  -16.0630 C   0  0  0  0  0  0  0  0  0  0  0  0
   24.5732   -7.6817  -15.5925 C   0  0  0  0  0  0  0  0  0  0  0  0
   25.7509   -8.0788  -16.1863 C   0  0  0  0  0  0  0  0  0  0  0  0
   26.4342   -9.2099  -15.7995 C   0  0  0  0  0  0  0  0  0  0  0  0
   25.9562  -10.0001  -14.7860 C   0  0  0  0  0  0  0  0  0  0  0  0
   24.7758   -9.6270  -14.1706 C   0  0  0  0  0  0  0  0  0  0  0  0
   24.1066   -8.4859  -14.5764 C   0  0  0  0  0  0  0  0  0  0  0  0
   22.0448   -5.4480  -17.2668 C   0  0  0  0  0  0  0  0  0  0  0  0
   22.5559   -4.7575  -18.1857 O   0  0  0  0  0  0  0  0  0  0  0  0
   17.8194   -2.9790  -19.9452 C   0  0  0  0  0  0  0  0  0  0  0  0
   18.5605   -2.7523  -18.6263 C   0  0  0  0  0  0  0  0  0  0  0  0
   19.3079   -4.0004  -18.2410 C   0  0  2  0  0  0  0  0  0  0  0  0
   18.2748   -5.0721  -17.9652 C   0  0  0  0  0  0  0  0  0  0  0  0
   20.1863   -3.7350  -17.0706 C   0  0  2  0  0  0  0  0  0  0  0  0
   20.8850   -4.9430  -16.6314 N   0  0  0  0  0  0  0  0  0  0  0  0
   19.5222   -3.1002  -15.9198 C   0  0  0  0  0  0  0  0  0  0  0  0
   19.3328   -1.7048  -15.9656 O   0  0  0  0  0  0  0  0  0  0  0  0
   19.1023   -3.6572  -14.8971 O   0  0  0  0  0  0  0  0  0  0  0  0
  2  1  1  1
  2 10  1  0
  3  2  1  0
  3  4  1  0
  4  9  1  0
  4  5  2  0
  5  6  1  0
  6  7  2  0
  8  7  1  0
  9  8  2  0
 10 11  2  0
 12 13  1  0
 12 10  1  0
 13 21  1  0
 13 14  1  6
 15 14  1  0
 16 15  2  0
 17 16  1  0
 18 19  1  0
 18 17  2  0
 19 20  2  0
 20 15  1  0
 21 22  2  0
 24 25  1  0
 24 23  1  0
 25 27  1  0
 25 26  1  1
 27 29  1  0
 28 21  1  0
 27 28  1  1
 29 31  2  0
 29 30  1  0
M  END
$$$$
