FFI.pdb
     RDKit          3D

 31 32  0  0  1  0  0  0  0  0999 V2000
   25.7059  -22.0115  -12.3734 N   0  0  0  0  0  0  0  0  0  0  0  0
   25.5131  -20.7897  -11.6216 C   0  0  1  0  0  0  0  0  0  0  0  0
   24.0458  -20.4714  -11.5914 C   0  0  0  0  0  0  0  0  0  0  0  0
   23.6569  -20.0479  -12.9672 C   0  0  0  0  0  0  0  0  0  0  0  0
   24.2031  -18.9121  -13.5223 C   0  0  0  0  0  0  0  0  0  0  0  0
   23.8658  -18.4848  -14.8016 C   0  0  0  0  0  0  0  0  0  0  0  0
   22.9676  -19.1999  -15.5451 C   0  0  0  0  0  0  0  0  0  0  0  0
   22.4045  -20.3456  -15.0091 C   0  0  0  0  0  0  0  0  0  0  0  0
   22.7524  -20.7602  -13.7270 C   0  0  0  0  0  0  0  0  0  0  0  0
   26.1297  -20.9255  -10.3085 C   0  0  0  0  0  0  0  0  0  0  0  0
   25.9899  -22.0051   -9.6788 O   0  0  0  0  0  0  0  0  0  0  0  0
   26.8959  -19.9201   -9.6576 N   0  0  0  0  0  0  0  0  0  0  0  0
   27.4805  -20.1576   -8.3786 C   0  0  1  0  0  0  0  0  0  0  0  0
   28.6856  -19.2902   -8.0990 C   0  0  0  0  0  0  0  0  0  0  0  0
   29.2136  -19.4667   -6.7343 C   0  0  0  0  0  0  0  0  0  0  0  0
   28.9292  -18.5245   -5.7705 C   0  0  0  0  0  0  0  0  0  0  0  0
   29.3877  -18.6233   -4.4759 C   0  0  0  0  0  0  0  0  0  0  0  0
   30.1618  -19.6873   -4.0903 C   0  0  0  0  0  0  0  0  0  0  0  0
   30.4641  -20.6494   -5.0359 C   0  0  0  0  0  0  0  0  0  0  0  0
   29.9920  -20.5289   -6.3310 C   0  0  0  0  0  0  0  0  0  0  0  0
   26.5144  -19.9913   -7.2585 C   0  0  0  0  0  0  0  0  0  0  0  0
   25.7959  -18.9600   -7.2103 O   0  0  0  0  0  0  0  0  0  0  0  0
   23.1974  -23.7585   -5.7645 C   0  0  0  0  0  0  0  0  0  0  0  0
   23.7737  -22.3540   -5.9524 C   0  0  0  0  0  0  0  0  0  0  0  0
   24.6889  -22.0212   -4.8050 C   0  0  2  0  0  0  0  0  0  0  0  0
   23.8269  -21.9029   -3.5661 C   0  0  0  0  0  0  0  0  0  0  0  0
   25.4496  -20.7769   -5.0960 C   0  0  2  0  0  0  0  0  0  0  0  0
   26.3602  -20.9496   -6.2279 N   0  0  0  0  0  0  0  0  0  0  0  0
   26.1824  -20.2083   -3.9523 C   0  0  0  0  0  0  0  0  0  0  0  0
   27.4712  -20.7127   -3.6889 O   0  0  0  0  0  0  0  0  0  0  0  0
   25.7933  -19.3228   -3.1796 O   0  0  0  0  0  0  0  0  0  0  0  0
  2  1  1  6
  2 10  1  0
  3  2  1  0
  3  4  1  0
  4  9  1  0
  4  5  2  0
  5  6  1  0
  6  7  2  0
  8  7  1  0
  9  8  2  0
 10 11  2  0
 12 13  1  0
 12 10  1  0
 13 21  1  0
 13 14  1  1
 15 14  1  0
 16 15  2  0
 17 16  1  0
 18 19  1  0
 18 17  2  0
 19 20  2  0
 20 15  1  0
 21 22  2  0
 24 25  1  0
 24 23  1  0
 25 27  1  0
 25 26  1  1
 27 29  1  0
 28 21  1  0
 27 28  1  6
 29 31  2  0
 29 30  1  0
M  END
$$$$
