MRE.pdb
     RDKit          3D

 29 28  0  0  1  0  0  0  0  0999 V2000
   27.1084  -18.3780   -6.7018 C   0  0  0  0  0  0  0  0  0  0  0  0
   28.0738  -19.8967   -6.7751 S   0  0  0  0  0  0  0  0  0  0  0  0
   27.3093  -20.9719   -8.0412 C   0  0  0  0  0  0  0  0  0  0  0  0
   26.5053  -20.0698   -8.9461 C   0  0  0  0  0  0  0  0  0  0  0  0
   25.8132  -20.8767  -10.0011 C   0  0  2  0  0  0  0  0  0  0  0  0
   26.5716  -21.9478  -10.4797 N   0  0  0  0  0  0  0  0  0  0  0  0
   25.3063  -20.0206  -11.1112 C   0  0  0  0  0  0  0  0  0  0  0  0
   24.4697  -19.0783  -10.8721 O   0  0  0  0  0  0  0  0  0  0  0  0
   28.2538  -22.1771  -17.1968 N   0  0  0  0  0  0  0  0  0  0  0  0
   28.5783  -21.1695  -16.2546 C   0  0  0  0  0  0  0  0  0  0  0  0
   29.3723  -21.4506  -15.2885 N   0  0  0  0  0  0  0  0  0  0  0  0
   28.0058  -19.8900  -16.4317 N   0  0  0  0  0  0  0  0  0  0  0  0
   28.3580  -18.8079  -15.5525 C   0  0  0  0  0  0  0  0  0  0  0  0
   27.4870  -18.8427  -14.3323 C   0  0  0  0  0  0  0  0  0  0  0  0
   26.1095  -19.2869  -14.7179 C   0  0  0  0  0  0  0  0  0  0  0  0
   25.1647  -19.3476  -13.5573 C   0  0  2  0  0  0  0  0  0  0  0  0
   25.6716  -20.1511  -12.4701 N   0  0  0  0  0  0  0  0  0  0  0  0
   23.9145  -19.9940  -14.0701 C   0  0  0  0  0  0  0  0  0  0  0  0
   23.9054  -21.2272  -14.2890 O   0  0  0  0  0  0  0  0  0  0  0  0
   29.7357  -22.4184  -15.1839 N   0  0  0  0  0  0  0  0  0  0  0  0
   22.7392  -19.2246  -14.3103 C   0  0  1  0  0  0  0  0  0  0  0  0
   21.5466  -19.8836  -14.7357 C   0  0  0  0  0  0  0  0  0  0  0  0
   20.5591  -20.0833  -13.6488 C   0  0  0  0  0  0  0  0  0  0  0  0
   20.4209  -21.4092  -13.0279 C   0  0  0  0  0  0  0  0  0  0  0  0
   19.3603  -21.6004  -12.0462 O   0  0  0  0  0  0  0  0  0  0  0  0
   18.5464  -20.7677  -11.6027 C   0  0  0  0  0  0  0  0  0  0  0  0
   20.9635  -19.3083  -15.9687 O   0  0  0  0  0  0  0  0  0  0  0  0
   19.8747  -19.9510  -16.5413 O   0  0  0  0  0  0  0  0  0  0  0  0
   19.2309  -22.9074  -11.5208 O   0  0  0  0  0  0  0  0  0  0  0  0
  1  2  1  0
  2  3  1  0
  3  4  1  0
  5  6  1  6
  5  4  1  0
  7  5  1  0
  8  7  2  0
 10  9  1  0
 10 12  1  0
 11 10  2  0
 12 13  1  0
 13 14  1  0
 14 15  1  0
 16 15  1  6
 16 17  1  0
 17  7  1  0
 18 16  1  0
 18 19  2  0
 20 18  1  0
 21 20  1  0
 21 22  1  6
 22 23  1  0
 23 24  1  0
 24 28  1  0
 24 25  2  0
 26 21  1  0
 27 26  1  0
 29 26  2  0
M  END
$$$$
