MRE.pdb
     RDKit          3D

 29 28  0  0  1  0  0  0  0  0999 V2000
   29.6326  -20.0364  -13.5429 C   0  0  0  0  0  0  0  0  0  0  0  0
   29.5081  -19.9800  -11.7470 S   0  0  0  0  0  0  0  0  0  0  0  0
   28.0769  -21.0106  -11.2639 C   0  0  0  0  0  0  0  0  0  0  0  0
   27.0042  -20.7732  -12.2993 C   0  0  0  0  0  0  0  0  0  0  0  0
   25.7558  -21.5147  -11.9324 C   0  0  2  0  0  0  0  0  0  0  0  0
   25.9825  -22.8289  -11.5163 N   0  0  0  0  0  0  0  0  0  0  0  0
   24.7323  -21.4477  -13.0141 C   0  0  0  0  0  0  0  0  0  0  0  0
   24.8509  -22.1749  -14.0638 O   0  0  0  0  0  0  0  0  0  0  0  0
   19.1517  -23.9677  -12.1573 N   0  0  0  0  0  0  0  0  0  0  0  0
   18.8657  -22.9095  -11.2591 C   0  0  0  0  0  0  0  0  0  0  0  0
   18.6379  -23.1806  -10.0273 N   0  0  0  0  0  0  0  0  0  0  0  0
   18.8492  -21.5933  -11.7722 N   0  0  0  0  0  0  0  0  0  0  0  0
   19.1232  -21.3516  -13.1630 C   0  0  0  0  0  0  0  0  0  0  0  0
   20.5781  -21.5864  -13.4409 C   0  0  0  0  0  0  0  0  0  0  0  0
   21.2587  -20.2717  -13.6686 C   0  0  0  0  0  0  0  0  0  0  0  0
   22.6836  -20.4154  -14.1069 C   0  0  2  0  0  0  0  0  0  0  0  0
   23.5874  -20.6193  -12.9995 N   0  0  0  0  0  0  0  0  0  0  0  0
   23.0478  -19.1241  -14.7729 C   0  0  0  0  0  0  0  0  0  0  0  0
   23.1385  -18.0816  -14.0847 O   0  0  0  0  0  0  0  0  0  0  0  0
   18.3991  -22.4155   -9.3659 N   0  0  0  0  0  0  0  0  0  0  0  0
   23.2920  -19.0684  -16.1759 C   0  0  1  0  0  0  0  0  0  0  0  0
   23.6456  -17.8222  -16.7755 C   0  0  0  0  0  0  0  0  0  0  0  0
   24.8354  -17.9035  -17.6553 C   0  0  0  0  0  0  0  0  0  0  0  0
   25.3583  -16.6813  -18.2840 C   0  0  0  0  0  0  0  0  0  0  0  0
   26.5101  -16.8034  -19.1693 O   0  0  0  0  0  0  0  0  0  0  0  0
   27.0867  -15.9170  -19.8285 C   0  0  0  0  0  0  0  0  0  0  0  0
   22.4984  -17.1188  -17.3924 O   0  0  0  0  0  0  0  0  0  0  0  0
   22.5359  -15.7329  -17.4562 O   0  0  0  0  0  0  0  0  0  0  0  0
   27.0534  -18.1026  -19.3032 O   0  0  0  0  0  0  0  0  0  0  0  0
  1  2  1  0
  2  3  1  0
  3  4  1  0
  5  6  1  6
  5  4  1  0
  7  5  1  0
  8  7  2  0
 10  9  1  0
 10 12  1  0
 11 10  2  0
 12 13  1  0
 13 14  1  0
 14 15  1  0
 16 15  1  1
 16 17  1  0
 17  7  1  0
 18 16  1  0
 18 19  2  0
 20 18  1  0
 21 20  1  0
 21 22  1  6
 22 23  1  0
 23 24  1  0
 24 28  1  0
 24 25  2  0
 26 21  1  0
 27 26  1  0
 29 26  2  0
M  END
$$$$
