MRE.pdb
     RDKit          3D

 29 28  0  0  1  0  0  0  0  0999 V2000
   10.6103  -12.0627  -11.5945 C   0  0  0  0  0  0  0  0  0  0  0  0
   11.9136  -10.8717  -11.9507 S   0  0  0  0  0  0  0  0  0  0  0  0
   12.6567  -10.3782  -10.3545 C   0  0  0  0  0  0  0  0  0  0  0  0
   13.7621   -9.4015  -10.6759 C   0  0  0  0  0  0  0  0  0  0  0  0
   15.0983  -10.0276  -10.4200 C   0  0  2  0  0  0  0  0  0  0  0  0
   15.2253  -10.5836   -9.1447 N   0  0  0  0  0  0  0  0  0  0  0  0
   16.2175   -9.0922  -10.7276 C   0  0  0  0  0  0  0  0  0  0  0  0
   16.4194   -8.0604   -9.9931 O   0  0  0  0  0  0  0  0  0  0  0  0
   20.3350  -10.7980  -15.7022 N   0  0  0  0  0  0  0  0  0  0  0  0
   20.6535   -9.5515  -16.2964 C   0  0  0  0  0  0  0  0  0  0  0  0
   20.4018   -9.3702  -17.5399 N   0  0  0  0  0  0  0  0  0  0  0  0
   21.2364   -8.5587  -15.4774 N   0  0  0  0  0  0  0  0  0  0  0  0
   21.4355   -8.7989  -14.0736 C   0  0  0  0  0  0  0  0  0  0  0  0
   20.4017   -8.0561  -13.2810 C   0  0  0  0  0  0  0  0  0  0  0  0
   19.2777   -8.9847  -12.9374 C   0  0  0  0  0  0  0  0  0  0  0  0
   18.2116   -8.3362  -12.1092 C   0  0  2  0  0  0  0  0  0  0  0  0
   17.1229   -9.2339  -11.8033 N   0  0  0  0  0  0  0  0  0  0  0  0
   17.6684   -7.2105  -12.9348 C   0  0  0  0  0  0  0  0  0  0  0  0
   16.8164   -7.4530  -13.8202 O   0  0  0  0  0  0  0  0  0  0  0  0
   20.6687   -8.4753  -17.9955 N   0  0  0  0  0  0  0  0  0  0  0  0
   18.1080   -5.8712  -12.7247 C   0  0  1  0  0  0  0  0  0  0  0  0
   17.5689   -4.8235  -13.5304 C   0  0  0  0  0  0  0  0  0  0  0  0
   16.2504   -4.3343  -13.0631 C   0  0  0  0  0  0  0  0  0  0  0  0
   15.6644   -3.1314  -13.6731 C   0  0  0  0  0  0  0  0  0  0  0  0
   14.4139   -2.6223  -13.1232 O   0  0  0  0  0  0  0  0  0  0  0  0
   13.8499   -1.5330  -13.3422 C   0  0  0  0  0  0  0  0  0  0  0  0
   18.5374   -3.7403  -13.8133 O   0  0  0  0  0  0  0  0  0  0  0  0
   19.7920   -3.8116  -13.2241 O   0  0  0  0  0  0  0  0  0  0  0  0
   13.7430   -3.4760  -12.2165 O   0  0  0  0  0  0  0  0  0  0  0  0
  1  2  1  0
  2  3  1  0
  3  4  1  0
  5  6  1  1
  5  4  1  0
  7  5  1  0
  8  7  2  0
 10  9  1  0
 10 12  1  0
 11 10  2  0
 12 13  1  0
 13 14  1  0
 14 15  1  0
 16 15  1  6
 16 17  1  0
 17  7  1  0
 18 16  1  0
 18 19  2  0
 20 18  1  0
 21 20  1  0
 21 22  1  1
 22 23  1  0
 23 24  1  0
 24 28  1  0
 24 25  2  0
 26 21  1  0
 27 26  1  0
 29 26  2  0
M  END
$$$$
