MRE.pdb
     RDKit          3D

 29 28  0  0  1  0  0  0  0  0999 V2000
   30.4703  -13.2515  -15.9188 C   0  0  0  0  0  0  0  0  0  0  0  0
   29.0991  -12.0837  -15.9178 S   0  0  0  0  0  0  0  0  0  0  0  0
   27.5967  -13.0017  -16.4115 C   0  0  0  0  0  0  0  0  0  0  0  0
   26.4451  -12.0305  -16.3137 C   0  0  0  0  0  0  0  0  0  0  0  0
   25.1540  -12.7237  -16.6229 C   0  0  2  0  0  0  0  0  0  0  0  0
   25.2362  -13.6169  -17.6939 N   0  0  0  0  0  0  0  0  0  0  0  0
   24.0326  -11.7570  -16.7960 C   0  0  0  0  0  0  0  0  0  0  0  0
   23.8436  -11.1800  -17.9257 O   0  0  0  0  0  0  0  0  0  0  0  0
   15.9756  -12.2666  -15.6024 N   0  0  0  0  0  0  0  0  0  0  0  0
   17.1428  -13.0192  -15.3204 C   0  0  0  0  0  0  0  0  0  0  0  0
   17.0602  -14.2962  -15.2496 N   0  0  0  0  0  0  0  0  0  0  0  0
   18.3535  -12.3156  -15.1323 N   0  0  0  0  0  0  0  0  0  0  0  0
   18.3379  -10.9105  -14.8269 C   0  0  0  0  0  0  0  0  0  0  0  0
   19.5219  -10.2416  -15.4591 C   0  0  0  0  0  0  0  0  0  0  0  0
   20.7195  -11.1330  -15.3375 C   0  0  0  0  0  0  0  0  0  0  0  0
   21.9467  -10.5595  -15.9764 C   0  0  2  0  0  0  0  0  0  0  0  0
   23.1113  -11.3919  -15.7885 N   0  0  0  0  0  0  0  0  0  0  0  0
   22.1973   -9.2484  -15.2967 C   0  0  0  0  0  0  0  0  0  0  0  0
   22.6832   -9.2374  -14.1424 O   0  0  0  0  0  0  0  0  0  0  0  0
   17.9225  -14.8634  -15.1287 N   0  0  0  0  0  0  0  0  0  0  0  0
   21.8908   -8.0176  -15.9465 C   0  0  2  0  0  0  0  0  0  0  0  0
   22.2099   -6.7862  -15.2988 C   0  0  0  0  0  0  0  0  0  0  0  0
   22.2774   -5.6297  -16.2230 C   0  0  0  0  0  0  0  0  0  0  0  0
   22.6793   -4.3119  -15.7088 C   0  0  0  0  0  0  0  0  0  0  0  0
   22.7135   -3.1922  -16.6417 O   0  0  0  0  0  0  0  0  0  0  0  0
   22.5142   -3.1933  -17.8717 C   0  0  0  0  0  0  0  0  0  0  0  0
   21.3988   -6.5307  -14.0870 O   0  0  0  0  0  0  0  0  0  0  0  0
   22.0125   -5.9163  -13.0043 O   0  0  0  0  0  0  0  0  0  0  0  0
   23.0129   -1.9282  -16.0816 O   0  0  0  0  0  0  0  0  0  0  0  0
  1  2  1  0
  2  3  1  0
  3  4  1  0
  5  6  1  6
  5  4  1  0
  7  5  1  0
  8  7  2  0
 10  9  1  0
 10 12  1  0
 11 10  2  0
 12 13  1  0
 13 14  1  0
 14 15  1  0
 16 15  1  1
 16 17  1  0
 17  7  1  0
 18 16  1  0
 18 19  2  0
 20 18  1  0
 21 20  1  0
 21 22  1  6
 22 23  1  0
 23 24  1  0
 24 28  1  0
 24 25  2  0
 26 21  1  0
 27 26  1  0
 29 26  2  0
M  END
$$$$
