MRE.pdb
     RDKit          3D

 29 28  0  0  1  0  0  0  0  0999 V2000
   34.5608    1.4690  -19.2740 C   0  0  0  0  0  0  0  0  0  0  0  0
   34.2744   -0.1954  -19.8998 S   0  0  0  0  0  0  0  0  0  0  0  0
   33.5771   -1.1843  -18.5288 C   0  0  0  0  0  0  0  0  0  0  0  0
   33.2907   -2.5570  -19.0881 C   0  0  0  0  0  0  0  0  0  0  0  0
   32.6958   -3.4345  -18.0303 C   0  0  2  0  0  0  0  0  0  0  0  0
   33.5430   -3.6597  -16.9425 N   0  0  0  0  0  0  0  0  0  0  0  0
   32.1746   -4.7111  -18.5966 C   0  0  0  0  0  0  0  0  0  0  0  0
   31.3670   -4.6955  -19.5929 O   0  0  0  0  0  0  0  0  0  0  0  0
   35.4298  -12.7647  -17.6621 N   0  0  0  0  0  0  0  0  0  0  0  0
   34.9810  -12.6958  -19.0046 C   0  0  0  0  0  0  0  0  0  0  0  0
   35.2419  -13.6658  -19.8006 N   0  0  0  0  0  0  0  0  0  0  0  0
   34.2573  -11.5491  -19.4015 N   0  0  0  0  0  0  0  0  0  0  0  0
   33.8465  -10.5751  -18.4266 C   0  0  0  0  0  0  0  0  0  0  0  0
   33.1457   -9.4389  -19.1099 C   0  0  0  0  0  0  0  0  0  0  0  0
   32.7013   -8.4412  -18.0850 C   0  0  0  0  0  0  0  0  0  0  0  0
   32.0244   -7.2462  -18.6825 C   0  0  2  0  0  0  0  0  0  0  0  0
   32.4952   -6.0024  -18.1204 N   0  0  0  0  0  0  0  0  0  0  0  0
   30.5692   -7.3835  -18.3550 C   0  0  0  0  0  0  0  0  0  0  0  0
   30.1968   -7.2980  -17.1622 O   0  0  0  0  0  0  0  0  0  0  0  0
   35.0454  -13.5673  -20.8162 N   0  0  0  0  0  0  0  0  0  0  0  0
   29.6068   -7.6090  -19.3816 C   0  0  2  0  0  0  0  0  0  0  0  0
   28.2215   -7.6642  -19.0418 C   0  0  0  0  0  0  0  0  0  0  0  0
   27.5598   -6.3382  -19.0316 C   0  0  0  0  0  0  0  0  0  0  0  0
   26.1135   -6.2504  -18.7807 C   0  0  0  0  0  0  0  0  0  0  0  0
   25.5023   -4.9274  -18.7426 O   0  0  0  0  0  0  0  0  0  0  0  0
   24.9361   -4.3014  -19.6592 C   0  0  0  0  0  0  0  0  0  0  0  0
   27.4714   -8.6958  -19.7932 O   0  0  0  0  0  0  0  0  0  0  0  0
   26.3511   -9.2573  -19.1965 O   0  0  0  0  0  0  0  0  0  0  0  0
   25.5548   -4.2564  -17.4984 O   0  0  0  0  0  0  0  0  0  0  0  0
  1  2  1  0
  2  3  1  0
  3  4  1  0
  5  6  1  1
  5  4  1  0
  7  5  1  0
  8  7  2  0
 10  9  1  0
 10 12  1  0
 11 10  2  0
 12 13  1  0
 13 14  1  0
 14 15  1  0
 16 15  1  1
 16 17  1  0
 17  7  1  0
 18 16  1  0
 18 19  2  0
 20 18  1  0
 21 20  1  0
 21 22  1  6
 22 23  1  0
 23 24  1  0
 24 28  1  0
 24 25  2  0
 26 21  1  0
 27 26  1  0
 29 26  2  0
M  END
$$$$
