MRE.pdb
     RDKit          3D

 29 28  0  0  1  0  0  0  0  0999 V2000
   27.8114  -17.9708   -4.6359 C   0  0  0  0  0  0  0  0  0  0  0  0
   28.6727  -19.3026   -5.4892 S   0  0  0  0  0  0  0  0  0  0  0  0
   27.4036  -20.3832   -6.2410 C   0  0  0  0  0  0  0  0  0  0  0  0
   26.8896  -19.6609   -7.4630 C   0  0  0  0  0  0  0  0  0  0  0  0
   25.9065  -20.5191   -8.1978 C   0  0  2  0  0  0  0  0  0  0  0  0
   26.2143  -21.8815   -8.1673 N   0  0  0  0  0  0  0  0  0  0  0  0
   25.6798  -20.0361   -9.5897 C   0  0  0  0  0  0  0  0  0  0  0  0
   25.1602  -18.8822   -9.7982 O   0  0  0  0  0  0  0  0  0  0  0  0
   28.4711  -17.8877  -16.2274 N   0  0  0  0  0  0  0  0  0  0  0  0
   27.7689  -18.8265  -17.0236 C   0  0  0  0  0  0  0  0  0  0  0  0
   27.1753  -18.4240  -18.0859 N   0  0  0  0  0  0  0  0  0  0  0  0
   27.7610  -20.1752  -16.6027 N   0  0  0  0  0  0  0  0  0  0  0  0
   27.9897  -20.5075  -15.2225 C   0  0  0  0  0  0  0  0  0  0  0  0
   26.8002  -20.1076  -14.4014 C   0  0  0  0  0  0  0  0  0  0  0  0
   26.9566  -20.6382  -13.0094 C   0  0  0  0  0  0  0  0  0  0  0  0
   25.8070  -20.2899  -12.1148 C   0  0  2  0  0  0  0  0  0  0  0  0
   25.9936  -20.7597  -10.7624 N   0  0  0  0  0  0  0  0  0  0  0  0
   24.6082  -20.9824  -12.6867 C   0  0  0  0  0  0  0  0  0  0  0  0
   24.5104  -22.2270  -12.5846 O   0  0  0  0  0  0  0  0  0  0  0  0
   26.6053  -19.0908  -18.6428 N   0  0  0  0  0  0  0  0  0  0  0  0
   23.5809  -20.2441  -13.3428 C   0  0  2  0  0  0  0  0  0  0  0  0
   22.4575  -20.9383  -13.8846 C   0  0  0  0  0  0  0  0  0  0  0  0
   21.1551  -20.3242  -13.5342 C   0  0  0  0  0  0  0  0  0  0  0  0
   20.6370  -20.4529  -12.1640 C   0  0  0  0  0  0  0  0  0  0  0  0
   19.3278  -19.8834  -11.8687 O   0  0  0  0  0  0  0  0  0  0  0  0
   18.2172  -20.4479  -11.8454 C   0  0  0  0  0  0  0  0  0  0  0  0
   22.5974  -21.2518  -15.3246 O   0  0  0  0  0  0  0  0  0  0  0  0
   23.1317  -20.2797  -16.1588 O   0  0  0  0  0  0  0  0  0  0  0  0
   19.3074  -18.5018  -11.5660 O   0  0  0  0  0  0  0  0  0  0  0  0
  1  2  1  0
  2  3  1  0
  3  4  1  0
  5  6  1  6
  5  4  1  0
  7  5  1  0
  8  7  2  0
 10  9  1  0
 10 12  1  0
 11 10  2  0
 12 13  1  0
 13 14  1  0
 14 15  1  0
 16 15  1  6
 16 17  1  0
 17  7  1  0
 18 16  1  0
 18 19  2  0
 20 18  1  0
 21 20  1  0
 21 22  1  1
 22 23  1  0
 23 24  1  0
 24 28  1  0
 24 25  2  0
 26 21  1  0
 27 26  1  0
 29 26  2  0
M  END
$$$$
