MRE.pdb
     RDKit          3D

 29 28  0  0  1  0  0  0  0  0999 V2000
   30.5348  -19.1720  -20.0495 C   0  0  0  0  0  0  0  0  0  0  0  0
   28.9645  -19.5533  -19.2543 S   0  0  0  0  0  0  0  0  0  0  0  0
   29.2755  -20.8791  -18.0339 C   0  0  0  0  0  0  0  0  0  0  0  0
   27.9701  -21.1194  -17.3145 C   0  0  0  0  0  0  0  0  0  0  0  0
   28.1542  -22.1374  -16.2316 C   0  0  2  0  0  0  0  0  0  0  0  0
   28.4772  -23.4115  -16.7047 N   0  0  0  0  0  0  0  0  0  0  0  0
   26.9907  -22.1736  -15.3004 C   0  0  0  0  0  0  0  0  0  0  0  0
   26.0871  -23.0748  -15.4279 O   0  0  0  0  0  0  0  0  0  0  0  0
   22.4425  -19.7568   -8.5733 N   0  0  0  0  0  0  0  0  0  0  0  0
   22.4253  -21.1312   -8.9184 C   0  0  0  0  0  0  0  0  0  0  0  0
   22.0018  -21.9849   -8.0613 N   0  0  0  0  0  0  0  0  0  0  0  0
   22.8784  -21.4950  -10.2062 N   0  0  0  0  0  0  0  0  0  0  0  0
   24.2857  -21.5233  -10.5008 C   0  0  0  0  0  0  0  0  0  0  0  0
   24.6683  -20.2903  -11.2638 C   0  0  0  0  0  0  0  0  0  0  0  0
   25.9081  -20.5632  -12.0589 C   0  0  0  0  0  0  0  0  0  0  0  0
   25.6353  -21.2772  -13.3469 C   0  0  2  0  0  0  0  0  0  0  0  0
   26.7708  -21.2673  -14.2387 N   0  0  0  0  0  0  0  0  0  0  0  0
   24.5173  -20.5318  -14.0089 C   0  0  0  0  0  0  0  0  0  0  0  0
   24.6510  -19.3099  -14.2496 O   0  0  0  0  0  0  0  0  0  0  0  0
   21.9863  -22.9953   -8.3033 N   0  0  0  0  0  0  0  0  0  0  0  0
   23.3077  -21.1947  -14.3671 C   0  0  2  0  0  0  0  0  0  0  0  0
   22.2609  -20.4513  -14.9909 C   0  0  0  0  0  0  0  0  0  0  0  0
   21.7785  -21.0532  -16.2563 C   0  0  0  0  0  0  0  0  0  0  0  0
   22.6987  -21.1821  -17.3962 C   0  0  0  0  0  0  0  0  0  0  0  0
   22.3384  -22.1012  -18.4689 O   0  0  0  0  0  0  0  0  0  0  0  0
   22.9167  -22.3006  -19.5544 C   0  0  0  0  0  0  0  0  0  0  0  0
   21.1728  -20.0725  -14.0614 O   0  0  0  0  0  0  0  0  0  0  0  0
   20.1824  -19.2175  -14.5244 O   0  0  0  0  0  0  0  0  0  0  0  0
   21.1746  -22.8764  -18.2555 O   0  0  0  0  0  0  0  0  0  0  0  0
  1  2  1  0
  2  3  1  0
  3  4  1  0
  5  6  1  6
  5  4  1  0
  7  5  1  0
  8  7  2  0
 10  9  1  0
 10 12  1  0
 11 10  2  0
 12 13  1  0
 13 14  1  0
 14 15  1  0
 16 15  1  1
 16 17  1  0
 17  7  1  0
 18 16  1  0
 18 19  2  0
 20 18  1  0
 21 20  1  0
 21 22  1  1
 22 23  1  0
 23 24  1  0
 24 28  1  0
 24 25  2  0
 26 21  1  0
 27 26  1  0
 29 26  2  0
M  END
$$$$
