MRE.pdb
     RDKit          3D

 29 28  0  0  1  0  0  0  0  0999 V2000
   14.1780   -9.6633  -17.5258 C   0  0  0  0  0  0  0  0  0  0  0  0
   13.6733  -11.2352  -16.8059 S   0  0  0  0  0  0  0  0  0  0  0  0
   15.1002  -12.3731  -16.9182 C   0  0  0  0  0  0  0  0  0  0  0  0
   16.2217  -11.7392  -16.1311 C   0  0  0  0  0  0  0  0  0  0  0  0
   17.4387  -12.6113  -16.1676 C   0  0  2  0  0  0  0  0  0  0  0  0
   17.2980  -13.8054  -15.4563 N   0  0  0  0  0  0  0  0  0  0  0  0
   18.6658  -11.8688  -15.7614 C   0  0  0  0  0  0  0  0  0  0  0  0
   18.9858  -11.7752  -14.5229 O   0  0  0  0  0  0  0  0  0  0  0  0
   25.5113  -13.3913  -16.0266 N   0  0  0  0  0  0  0  0  0  0  0  0
   24.9058  -14.3625  -16.8622 C   0  0  0  0  0  0  0  0  0  0  0  0
   25.1916  -15.6000  -16.6898 N   0  0  0  0  0  0  0  0  0  0  0  0
   24.0045  -13.9127  -17.8529 N   0  0  0  0  0  0  0  0  0  0  0  0
   23.6129  -12.5300  -17.9056 C   0  0  0  0  0  0  0  0  0  0  0  0
   22.4561  -12.2956  -16.9805 C   0  0  0  0  0  0  0  0  0  0  0  0
   21.9220  -10.9125  -17.1939 C   0  0  0  0  0  0  0  0  0  0  0  0
   20.7893  -10.5714  -16.2752 C   0  0  2  0  0  0  0  0  0  0  0  0
   19.5561  -11.2228  -16.6486 N   0  0  0  0  0  0  0  0  0  0  0  0
   20.5880   -9.0917  -16.3923 C   0  0  0  0  0  0  0  0  0  0  0  0
   19.7712   -8.6469  -17.2313 O   0  0  0  0  0  0  0  0  0  0  0  0
   24.7216  -16.3239  -17.2684 N   0  0  0  0  0  0  0  0  0  0  0  0
   21.3122   -8.1873  -15.5625 C   0  0  2  0  0  0  0  0  0  0  0  0
   21.1488   -6.7817  -15.7505 C   0  0  0  0  0  0  0  0  0  0  0  0
   21.6219   -5.9708  -14.6039 C   0  0  0  0  0  0  0  0  0  0  0  0
   21.5499   -4.5037  -14.6734 C   0  0  0  0  0  0  0  0  0  0  0  0
   22.1139   -3.7356  -13.5701 O   0  0  0  0  0  0  0  0  0  0  0  0
   22.6230   -4.1483  -12.5103 C   0  0  0  0  0  0  0  0  0  0  0  0
   21.6427   -6.3015  -17.0608 O   0  0  0  0  0  0  0  0  0  0  0  0
   20.8765   -5.3719  -17.7501 O   0  0  0  0  0  0  0  0  0  0  0  0
   22.0830   -2.3288  -13.7153 O   0  0  0  0  0  0  0  0  0  0  0  0
  1  2  1  0
  2  3  1  0
  3  4  1  0
  5  6  1  1
  5  4  1  0
  7  5  1  0
  8  7  2  0
 10  9  1  0
 10 12  1  0
 11 10  2  0
 12 13  1  0
 13 14  1  0
 14 15  1  0
 16 15  1  6
 16 17  1  0
 17  7  1  0
 18 16  1  0
 18 19  2  0
 20 18  1  0
 21 20  1  0
 21 22  1  1
 22 23  1  0
 23 24  1  0
 24 28  1  0
 24 25  2  0
 26 21  1  0
 27 26  1  0
 29 26  2  0
M  END
$$$$
