MRE.pdb
     RDKit          3D

 29 28  0  0  1  0  0  0  0  0999 V2000
   27.4291  -18.2318  -18.0743 C   0  0  0  0  0  0  0  0  0  0  0  0
   28.6354  -18.5351  -16.7717 S   0  0  0  0  0  0  0  0  0  0  0  0
   27.7423  -19.2773  -15.3592 C   0  0  0  0  0  0  0  0  0  0  0  0
   26.7032  -20.2037  -15.9434 C   0  0  0  0  0  0  0  0  0  0  0  0
   25.8958  -20.8329  -14.8502 C   0  0  2  0  0  0  0  0  0  0  0  0
   26.6679  -21.4469  -13.8610 N   0  0  0  0  0  0  0  0  0  0  0  0
   24.8554  -21.7547  -15.3888 C   0  0  0  0  0  0  0  0  0  0  0  0
   24.0558  -21.3606  -16.3109 O   0  0  0  0  0  0  0  0  0  0  0  0
   28.0249  -27.1904  -16.5893 N   0  0  0  0  0  0  0  0  0  0  0  0
   26.8926  -27.9771  -16.9167 C   0  0  0  0  0  0  0  0  0  0  0  0
   26.9349  -29.2433  -16.7228 N   0  0  0  0  0  0  0  0  0  0  0  0
   25.7596  -27.3176  -17.4437 N   0  0  0  0  0  0  0  0  0  0  0  0
   25.5296  -25.9271  -17.1584 C   0  0  0  0  0  0  0  0  0  0  0  0
   25.4431  -25.7219  -15.6754 C   0  0  0  0  0  0  0  0  0  0  0  0
   24.0239  -25.4288  -15.2965 C   0  0  0  0  0  0  0  0  0  0  0  0
   23.6509  -23.9902  -15.4820 C   0  0  2  0  0  0  0  0  0  0  0  0
   24.6494  -23.0861  -14.9621 N   0  0  0  0  0  0  0  0  0  0  0  0
   22.3867  -23.7833  -14.7057 C   0  0  0  0  0  0  0  0  0  0  0  0
   22.4511  -23.5510  -13.4765 O   0  0  0  0  0  0  0  0  0  0  0  0
   26.1358  -29.8379  -17.0188 N   0  0  0  0  0  0  0  0  0  0  0  0
   21.1158  -23.8468  -15.3474 C   0  0  2  0  0  0  0  0  0  0  0  0
   20.1933  -22.7704  -15.1805 C   0  0  0  0  0  0  0  0  0  0  0  0
   20.7967  -21.4336  -15.3921 C   0  0  0  0  0  0  0  0  0  0  0  0
   20.0231  -20.2273  -15.0620 C   0  0  0  0  0  0  0  0  0  0  0  0
   20.2214  -19.6221  -13.7506 O   0  0  0  0  0  0  0  0  0  0  0  0
   21.1579  -19.7897  -12.9460 C   0  0  0  0  0  0  0  0  0  0  0  0
   18.9194  -22.9683  -15.9082 O   0  0  0  0  0  0  0  0  0  0  0  0
   17.7373  -22.9385  -15.1815 O   0  0  0  0  0  0  0  0  0  0  0  0
   19.2178  -18.7198  -13.3267 O   0  0  0  0  0  0  0  0  0  0  0  0
  1  2  1  0
  2  3  1  0
  3  4  1  0
  5  6  1  1
  5  4  1  0
  7  5  1  0
  8  7  2  0
 10  9  1  0
 10 12  1  0
 11 10  2  0
 12 13  1  0
 13 14  1  0
 14 15  1  0
 16 15  1  1
 16 17  1  0
 17  7  1  0
 18 16  1  0
 18 19  2  0
 20 18  1  0
 21 20  1  0
 21 22  1  1
 22 23  1  0
 23 24  1  0
 24 28  1  0
 24 25  2  0
 26 21  1  0
 27 26  1  0
 29 26  2  0
M  END
$$$$
