MRE.pdb
     RDKit          3D

 29 28  0  0  1  0  0  0  0  0999 V2000
   22.4997  -12.4149  -18.2689 C   0  0  0  0  0  0  0  0  0  0  0  0
   24.1955  -12.2100  -18.8400 S   0  0  0  0  0  0  0  0  0  0  0  0
   24.4494  -13.3692  -20.2312 C   0  0  0  0  0  0  0  0  0  0  0  0
   24.2260  -14.7580  -19.6829 C   0  0  0  0  0  0  0  0  0  0  0  0
   25.5071  -15.3149  -19.1429 C   0  0  2  0  0  0  0  0  0  0  0  0
   26.4656  -15.5779  -20.1246 N   0  0  0  0  0  0  0  0  0  0  0  0
   25.2726  -16.5001  -18.2698 C   0  0  0  0  0  0  0  0  0  0  0  0
   25.0656  -17.6551  -18.7876 O   0  0  0  0  0  0  0  0  0  0  0  0
   26.4777  -21.3052  -11.8156 N   0  0  0  0  0  0  0  0  0  0  0  0
   27.6658  -21.0271  -12.5363 C   0  0  0  0  0  0  0  0  0  0  0  0
   28.4980  -21.9761  -12.7581 N   0  0  0  0  0  0  0  0  0  0  0  0
   27.8737  -19.7025  -12.9819 N   0  0  0  0  0  0  0  0  0  0  0  0
   26.8194  -18.7293  -12.8863 C   0  0  0  0  0  0  0  0  0  0  0  0
   25.8914  -18.8713  -14.0557 C   0  0  0  0  0  0  0  0  0  0  0  0
   25.6824  -17.5303  -14.6895 C   0  0  0  0  0  0  0  0  0  0  0  0
   24.9660  -17.6058  -16.0026 C   0  0  2  0  0  0  0  0  0  0  0  0
   25.2519  -16.4776  -16.8569 N   0  0  0  0  0  0  0  0  0  0  0  0
   23.5030  -17.5874  -15.6816 C   0  0  0  0  0  0  0  0  0  0  0  0
   22.8813  -16.5003  -15.7087 O   0  0  0  0  0  0  0  0  0  0  0  0
   29.3866  -21.7770  -13.2587 N   0  0  0  0  0  0  0  0  0  0  0  0
   22.8125  -18.7884  -15.3473 C   0  0  1  0  0  0  0  0  0  0  0  0
   21.3858  -18.8100  -15.3896 C   0  0  0  0  0  0  0  0  0  0  0  0
   20.8194  -18.2013  -16.6163 C   0  0  0  0  0  0  0  0  0  0  0  0
   19.3634  -18.2044  -16.8226 C   0  0  0  0  0  0  0  0  0  0  0  0
   18.5918  -17.0893  -16.2875 O   0  0  0  0  0  0  0  0  0  0  0  0
   18.6317  -15.8859  -16.6085 C   0  0  0  0  0  0  0  0  0  0  0  0
   20.8068  -20.1324  -15.0616 O   0  0  0  0  0  0  0  0  0  0  0  0
   21.4680  -21.2675  -15.5098 O   0  0  0  0  0  0  0  0  0  0  0  0
   17.6692  -17.4090  -15.2640 O   0  0  0  0  0  0  0  0  0  0  0  0
  1  2  1  0
  2  3  1  0
  3  4  1  0
  5  6  1  6
  5  4  1  0
  7  5  1  0
  8  7  2  0
 10  9  1  0
 10 12  1  0
 11 10  2  0
 12 13  1  0
 13 14  1  0
 14 15  1  0
 16 15  1  1
 16 17  1  0
 17  7  1  0
 18 16  1  0
 18 19  2  0
 20 18  1  0
 21 20  1  0
 21 22  1  1
 22 23  1  0
 23 24  1  0
 24 28  1  0
 24 25  2  0
 26 21  1  0
 27 26  1  0
 29 26  2  0
M  END
$$$$
