MRE.pdb
     RDKit          3D

 29 28  0  0  1  0  0  0  0  0999 V2000
   30.2265  -16.7853  -17.5197 C   0  0  0  0  0  0  0  0  0  0  0  0
   28.6951  -17.6877  -17.2296 S   0  0  0  0  0  0  0  0  0  0  0  0
   28.9137  -19.3715  -17.9083 C   0  0  0  0  0  0  0  0  0  0  0  0
   27.6807  -20.1547  -17.5270 C   0  0  0  0  0  0  0  0  0  0  0  0
   27.9745  -21.0511  -16.3638 C   0  0  2  0  0  0  0  0  0  0  0  0
   28.8257  -22.1149  -16.6728 N   0  0  0  0  0  0  0  0  0  0  0  0
   26.7272  -21.5194  -15.6951 C   0  0  0  0  0  0  0  0  0  0  0  0
   26.6538  -22.7091  -15.2216 O   0  0  0  0  0  0  0  0  0  0  0  0
   25.7828  -20.8352   -8.5352 N   0  0  0  0  0  0  0  0  0  0  0  0
   24.5647  -20.8854   -9.2576 C   0  0  0  0  0  0  0  0  0  0  0  0
   23.4604  -20.9787   -8.6137 N   0  0  0  0  0  0  0  0  0  0  0  0
   24.6296  -20.8262  -10.6677 N   0  0  0  0  0  0  0  0  0  0  0  0
   25.8878  -20.6082  -11.3291 C   0  0  0  0  0  0  0  0  0  0  0  0
   25.6542  -20.3384  -12.7857 C   0  0  0  0  0  0  0  0  0  0  0  0
   24.6621  -21.3248  -13.3206 C   0  0  0  0  0  0  0  0  0  0  0  0
   24.3854  -21.1471  -14.7818 C   0  0  2  0  0  0  0  0  0  0  0  0
   25.5570  -20.7458  -15.5240 N   0  0  0  0  0  0  0  0  0  0  0  0
   23.3713  -20.0495  -14.8841 C   0  0  0  0  0  0  0  0  0  0  0  0
   23.1572  -19.3158  -13.8918 O   0  0  0  0  0  0  0  0  0  0  0  0
   22.5604  -20.9995   -9.1327 N   0  0  0  0  0  0  0  0  0  0  0  0
   22.6501  -19.8307  -16.0937 C   0  0  2  0  0  0  0  0  0  0  0  0
   21.2376  -20.0359  -16.1128 C   0  0  0  0  0  0  0  0  0  0  0  0
   20.8442  -21.4625  -16.0331 C   0  0  0  0  0  0  0  0  0  0  0  0
   20.0602  -21.9363  -14.8827 C   0  0  0  0  0  0  0  0  0  0  0  0
   19.6505  -23.3352  -14.8604 O   0  0  0  0  0  0  0  0  0  0  0  0
   18.9063  -23.9188  -14.0491 C   0  0  0  0  0  0  0  0  0  0  0  0
   20.5029  -19.1643  -15.1685 O   0  0  0  0  0  0  0  0  0  0  0  0
   19.2855  -18.6359  -15.5748 O   0  0  0  0  0  0  0  0  0  0  0  0
   20.1637  -24.1475  -15.8985 O   0  0  0  0  0  0  0  0  0  0  0  0
  1  2  1  0
  2  3  1  0
  3  4  1  0
  5  6  1  6
  5  4  1  0
  7  5  1  0
  8  7  2  0
 10  9  1  0
 10 12  1  0
 11 10  2  0
 12 13  1  0
 13 14  1  0
 14 15  1  0
 16 15  1  1
 16 17  1  0
 17  7  1  0
 18 16  1  0
 18 19  2  0
 20 18  1  0
 21 20  1  0
 21 22  1  6
 22 23  1  0
 23 24  1  0
 24 28  1  0
 24 25  2  0
 26 21  1  0
 27 26  1  0
 29 26  2  0
M  END
$$$$
