MRE.pdb
     RDKit          3D

 29 28  0  0  1  0  0  0  0  0999 V2000
   29.3755  -18.7138   -5.4876 C   0  0  0  0  0  0  0  0  0  0  0  0
   28.0127  -19.8465   -5.1663 S   0  0  0  0  0  0  0  0  0  0  0  0
   27.8861  -20.9732   -6.6010 C   0  0  0  0  0  0  0  0  0  0  0  0
   27.1408  -20.2208   -7.6769 C   0  0  0  0  0  0  0  0  0  0  0  0
   27.0256  -21.0601   -8.9120 C   0  0  2  0  0  0  0  0  0  0  0  0
   28.2320  -21.6372   -9.3159 N   0  0  0  0  0  0  0  0  0  0  0  0
   26.3680  -20.3202  -10.0265 C   0  0  0  0  0  0  0  0  0  0  0  0
   26.9449  -19.3066  -10.5601 O   0  0  0  0  0  0  0  0  0  0  0  0
   25.1046  -25.1928  -16.1789 N   0  0  0  0  0  0  0  0  0  0  0  0
   25.5957  -24.0469  -16.8526 C   0  0  0  0  0  0  0  0  0  0  0  0
   25.4610  -23.9649  -18.1246 N   0  0  0  0  0  0  0  0  0  0  0  0
   26.2135  -23.0393  -16.0786 N   0  0  0  0  0  0  0  0  0  0  0  0
   26.2216  -23.1273  -14.6433 C   0  0  0  0  0  0  0  0  0  0  0  0
   25.2987  -22.0951  -14.0673 C   0  0  0  0  0  0  0  0  0  0  0  0
   25.6382  -21.8749  -12.6251 C   0  0  0  0  0  0  0  0  0  0  0  0
   24.8230  -20.7921  -11.9878 C   0  0  2  0  0  0  0  0  0  0  0  0
   25.1074  -20.6378  -10.5808 N   0  0  0  0  0  0  0  0  0  0  0  0
   23.3913  -21.2088  -12.1301 C   0  0  0  0  0  0  0  0  0  0  0  0
   22.9983  -22.2589  -11.5719 O   0  0  0  0  0  0  0  0  0  0  0  0
   25.8726  -23.1596  -18.6364 N   0  0  0  0  0  0  0  0  0  0  0  0
   22.4740  -20.4265  -12.8903 C   0  0  2  0  0  0  0  0  0  0  0  0
   21.0715  -20.6185  -12.7070 C   0  0  0  0  0  0  0  0  0  0  0  0
   20.2673  -19.4006  -12.9643 C   0  0  0  0  0  0  0  0  0  0  0  0
   18.8040  -19.4548  -12.8288 C   0  0  0  0  0  0  0  0  0  0  0  0
   18.0465  -18.2326  -13.0693 O   0  0  0  0  0  0  0  0  0  0  0  0
   18.4693  -17.0878  -13.3205 C   0  0  0  0  0  0  0  0  0  0  0  0
   20.5494  -21.8279  -13.3825 O   0  0  0  0  0  0  0  0  0  0  0  0
   19.5919  -22.5859  -12.7230 O   0  0  0  0  0  0  0  0  0  0  0  0
   16.6384  -18.3551  -13.0115 O   0  0  0  0  0  0  0  0  0  0  0  0
  1  2  1  0
  2  3  1  0
  3  4  1  0
  5  6  1  6
  5  4  1  0
  7  5  1  0
  8  7  2  0
 10  9  1  0
 10 12  1  0
 11 10  2  0
 12 13  1  0
 13 14  1  0
 14 15  1  0
 16 15  1  1
 16 17  1  0
 17  7  1  0
 18 16  1  0
 18 19  2  0
 20 18  1  0
 21 20  1  0
 21 22  1  1
 22 23  1  0
 23 24  1  0
 24 28  1  0
 24 25  2  0
 26 21  1  0
 27 26  1  0
 29 26  2  0
M  END
$$$$
