MRE.pdb
     RDKit          3D

 29 28  0  0  1  0  0  0  0  0999 V2000
   13.0413  -26.2241   -3.9168 C   0  0  0  0  0  0  0  0  0  0  0  0
   13.7117  -27.4082   -2.7369 S   0  0  0  0  0  0  0  0  0  0  0  0
   15.5180  -27.4911   -3.0094 C   0  0  0  0  0  0  0  0  0  0  0  0
   15.8186  -26.5986   -4.1893 C   0  0  0  0  0  0  0  0  0  0  0  0
   17.2923  -26.5673   -4.4540 C   0  0  2  0  0  0  0  0  0  0  0  0
   18.0403  -26.0108   -3.4136 N   0  0  0  0  0  0  0  0  0  0  0  0
   17.6076  -25.9276   -5.7630 C   0  0  0  0  0  0  0  0  0  0  0  0
   17.8759  -24.6749   -5.8236 O   0  0  0  0  0  0  0  0  0  0  0  0
   21.0772  -26.4246  -13.1274 N   0  0  0  0  0  0  0  0  0  0  0  0
   21.3173  -27.2909  -12.0318 C   0  0  0  0  0  0  0  0  0  0  0  0
   22.5262  -27.5516  -11.6953 N   0  0  0  0  0  0  0  0  0  0  0  0
   20.1985  -27.8272  -11.3558 N   0  0  0  0  0  0  0  0  0  0  0  0
   18.8707  -27.3785  -11.6776 C   0  0  0  0  0  0  0  0  0  0  0  0
   18.4390  -26.3293  -10.6970 C   0  0  0  0  0  0  0  0  0  0  0  0
   18.2129  -26.9632   -9.3589 C   0  0  0  0  0  0  0  0  0  0  0  0
   17.8639  -25.9730   -8.2907 C   0  0  2  0  0  0  0  0  0  0  0  0
   17.6397  -26.5961   -7.0077 N   0  0  0  0  0  0  0  0  0  0  0  0
   16.5842  -25.3257   -8.7234 C   0  0  0  0  0  0  0  0  0  0  0  0
   15.4944  -25.7735   -8.2985 O   0  0  0  0  0  0  0  0  0  0  0  0
   22.7141  -28.1347  -10.8560 N   0  0  0  0  0  0  0  0  0  0  0  0
   16.5926  -24.2096   -9.6097 C   0  0  2  0  0  0  0  0  0  0  0  0
   15.4014  -23.4413   -9.7781 C   0  0  0  0  0  0  0  0  0  0  0  0
   14.7375  -23.0884   -8.5011 C   0  0  0  0  0  0  0  0  0  0  0  0
   13.5141  -22.2725   -8.5201 C   0  0  0  0  0  0  0  0  0  0  0  0
   12.8713  -21.9693   -7.2472 O   0  0  0  0  0  0  0  0  0  0  0  0
   13.1414  -21.0680   -6.4304 C   0  0  0  0  0  0  0  0  0  0  0  0
   15.5662  -22.2934  -10.6982 O   0  0  0  0  0  0  0  0  0  0  0  0
   14.5115  -21.9717  -11.5412 O   0  0  0  0  0  0  0  0  0  0  0  0
   11.7923  -22.8084   -6.8828 O   0  0  0  0  0  0  0  0  0  0  0  0
  1  2  1  0
  2  3  1  0
  3  4  1  0
  5  6  1  1
  5  4  1  0
  7  5  1  0
  8  7  2  0
 10  9  1  0
 10 12  1  0
 11 10  2  0
 12 13  1  0
 13 14  1  0
 14 15  1  0
 16 15  1  6
 16 17  1  0
 17  7  1  0
 18 16  1  0
 18 19  2  0
 20 18  1  0
 21 20  1  0
 21 22  1  1
 22 23  1  0
 23 24  1  0
 24 28  1  0
 24 25  2  0
 26 21  1  0
 27 26  1  0
 29 26  2  0
M  END
$$$$
