MRE.pdb
     RDKit          3D

 29 28  0  0  1  0  0  0  0  0999 V2000
   28.4869  -17.2001  -16.1427 C   0  0  0  0  0  0  0  0  0  0  0  0
   27.4250  -15.7555  -15.9714 S   0  0  0  0  0  0  0  0  0  0  0  0
   25.7378  -16.3559  -15.6019 C   0  0  0  0  0  0  0  0  0  0  0  0
   24.8224  -15.1592  -15.6977 C   0  0  0  0  0  0  0  0  0  0  0  0
   23.4069  -15.5657  -15.4256 C   0  0  2  0  0  0  0  0  0  0  0  0
   23.1046  -16.8658  -15.8376 N   0  0  0  0  0  0  0  0  0  0  0  0
   22.4318  -14.5756  -15.9651 C   0  0  0  0  0  0  0  0  0  0  0  0
   21.7337  -14.8543  -17.0043 O   0  0  0  0  0  0  0  0  0  0  0  0
   15.0206  -14.1671  -15.2375 N   0  0  0  0  0  0  0  0  0  0  0  0
   16.2803  -14.8073  -15.3436 C   0  0  0  0  0  0  0  0  0  0  0  0
   16.3555  -16.0728  -15.1550 N   0  0  0  0  0  0  0  0  0  0  0  0
   17.4028  -14.0092  -15.6590 N   0  0  0  0  0  0  0  0  0  0  0  0
   17.3487  -12.5815  -15.4959 C   0  0  0  0  0  0  0  0  0  0  0  0
   18.6692  -11.9784  -15.8717 C   0  0  0  0  0  0  0  0  0  0  0  0
   19.7737  -12.8956  -15.4443 C   0  0  0  0  0  0  0  0  0  0  0  0
   21.1333  -12.3959  -15.8248 C   0  0  2  0  0  0  0  0  0  0  0  0
   22.1885  -13.2945  -15.4203 N   0  0  0  0  0  0  0  0  0  0  0  0
   21.3208  -11.1004  -15.0966 C   0  0  0  0  0  0  0  0  0  0  0  0
   21.6164  -11.1164  -13.8795 O   0  0  0  0  0  0  0  0  0  0  0  0
   17.2615  -16.5625  -15.2932 N   0  0  0  0  0  0  0  0  0  0  0  0
   21.1679   -9.8539  -15.7705 C   0  0  2  0  0  0  0  0  0  0  0  0
   21.6543   -8.6615  -15.1548 C   0  0  0  0  0  0  0  0  0  0  0  0
   21.9625   -7.5791  -16.1190 C   0  0  0  0  0  0  0  0  0  0  0  0
   22.8972   -7.8362  -17.2248 C   0  0  0  0  0  0  0  0  0  0  0  0
   23.1819   -6.7465  -18.1504 O   0  0  0  0  0  0  0  0  0  0  0  0
   22.7319   -5.5845  -18.1519 C   0  0  0  0  0  0  0  0  0  0  0  0
   20.8355   -8.2163  -14.0047 O   0  0  0  0  0  0  0  0  0  0  0  0
   19.5650   -8.7549  -13.8563 O   0  0  0  0  0  0  0  0  0  0  0  0
   24.0930   -7.0405  -19.1918 O   0  0  0  0  0  0  0  0  0  0  0  0
  1  2  1  0
  2  3  1  0
  3  4  1  0
  5  6  1  6
  5  4  1  0
  7  5  1  0
  8  7  2  0
 10  9  1  0
 10 12  1  0
 11 10  2  0
 12 13  1  0
 13 14  1  0
 14 15  1  0
 16 15  1  1
 16 17  1  0
 17  7  1  0
 18 16  1  0
 18 19  2  0
 20 18  1  0
 21 20  1  0
 21 22  1  6
 22 23  1  0
 23 24  1  0
 24 28  1  0
 24 25  2  0
 26 21  1  0
 27 26  1  0
 29 26  2  0
M  END
$$$$
