RAT.pdb
     RDKit          3D

 24 23  0  0  1  0  0  0  0  0999 V2000
    9.7060  -14.5730   17.4671 N   0  0  0  0  0  0  0  0  0  0  0  0
   10.2967  -13.8078   18.4955 C   0  0  0  0  0  0  0  0  0  0  0  0
   11.5516  -13.9199   18.7758 N   0  0  0  0  0  0  0  0  0  0  0  0
    9.4956  -12.8841   19.2488 N   0  0  0  0  0  0  0  0  0  0  0  0
    8.0543  -12.9289   19.0274 C   0  0  0  0  0  0  0  0  0  0  0  0
    7.4906  -14.2765   19.4151 C   0  0  0  0  0  0  0  0  0  0  0  0
    7.7577  -14.6122   20.8609 C   0  0  0  0  0  0  0  0  0  0  0  0
    7.2623  -15.9966   21.2230 C   0  0  2  0  0  0  0  0  0  0  0  0
    5.9309  -16.2161   20.6830 N   0  0  0  0  0  0  0  0  0  0  0  0
    7.2241  -16.1072   22.6967 C   0  0  0  0  0  0  0  0  0  0  0  0
    6.4113  -15.4146   23.3346 O   0  0  0  0  0  0  0  0  0  0  0  0
   11.9870  -13.3148   19.5052 C   0  0  0  0  0  0  0  0  0  0  0  0
    8.6046  -18.4274   25.3324 C   0  0  1  0  0  0  0  0  0  0  0  0
    8.0933  -17.0782   24.8698 N   0  0  0  0  0  0  0  0  0  0  0  0
    8.0743  -16.9711   23.4358 C   0  0  0  0  0  0  0  0  0  0  0  0
    8.8622  -16.0062   25.5186 O   0  0  0  0  0  0  0  0  0  0  0  0
    9.9196  -15.5706   24.9720 C   0  0  0  0  0  0  0  0  0  0  0  0
    7.9196  -12.3597   26.5069 C   0  0  2  0  0  0  0  0  0  0  0  0
    8.3238  -13.1534   27.7085 O   0  0  0  0  0  0  0  0  0  0  0  0
    7.2096  -13.6408   28.4085 C   0  0  2  0  0  0  0  0  0  0  0  0
    9.2525  -14.3051   27.3387 N   0  0  0  0  0  0  0  0  0  0  0  0
    8.4989  -15.4049   26.7466 C   0  0  0  0  0  0  0  0  0  0  0  0
    9.8689  -14.8623   28.5870 O   0  0  0  0  0  0  0  0  0  0  0  0
   10.7226  -14.0932   29.3825 O   0  0  0  0  0  0  0  0  0  0  0  0
  1  2  1  0
  2  3  2  0
  4  5  1  0
  4  2  1  0
  6  7  1  0
  6  5  1  0
  7  8  1  0
  8  9  1  1
  8 10  1  0
 10 11  2  0
 13 12  1  6
 14 10  1  0
 14 13  1  0
 15 13  1  0
 15 16  2  0
 18 17  1  1
 18 20  1  0
 19 18  1  0
 20 21  1  1
 21 15  1  0
 22 20  1  0
 23 22  1  0
 24 22  2  0
M  END
$$$$
