RAT.pdb
     RDKit          3D

 24 23  0  0  1  0  0  0  0  0999 V2000
    7.9132  -13.3949   16.6724 N   0  0  0  0  0  0  0  0  0  0  0  0
    8.7489  -13.1132   17.7743 C   0  0  0  0  0  0  0  0  0  0  0  0
    8.9937  -11.8983   18.1345 N   0  0  0  0  0  0  0  0  0  0  0  0
    9.3416  -14.1913   18.5154 N   0  0  0  0  0  0  0  0  0  0  0  0
    8.9632  -15.5452   18.1256 C   0  0  0  0  0  0  0  0  0  0  0  0
    8.5543  -16.3594   19.3315 C   0  0  0  0  0  0  0  0  0  0  0  0
    9.3186  -15.9666   20.5709 C   0  0  0  0  0  0  0  0  0  0  0  0
    8.8779  -16.7583   21.7842 C   0  0  2  0  0  0  0  0  0  0  0  0
    7.5139  -17.2304   21.6136 N   0  0  0  0  0  0  0  0  0  0  0  0
    8.9530  -15.8766   22.9684 C   0  0  0  0  0  0  0  0  0  0  0  0
   10.0676  -15.5015   23.3738 O   0  0  0  0  0  0  0  0  0  0  0  0
    9.6510  -11.7015   18.9201 C   0  0  0  0  0  0  0  0  0  0  0  0
    6.5525  -13.8981   25.1222 C   0  0  2  0  0  0  0  0  0  0  0  0
    7.8449  -14.6549   24.8920 N   0  0  0  0  0  0  0  0  0  0  0  0
    7.8094  -15.4273   23.6795 C   0  0  0  0  0  0  0  0  0  0  0  0
    8.1680  -15.4591   26.0796 O   0  0  0  0  0  0  0  0  0  0  0  0
    8.2382  -14.9029   27.2164 C   0  0  0  0  0  0  0  0  0  0  0  0
    6.4802  -18.8755   27.1720 C   0  0  2  0  0  0  0  0  0  0  0  0
    7.9707  -18.9986   27.1524 O   0  0  0  0  0  0  0  0  0  0  0  0
    8.4214  -19.6770   26.0097 C   0  0  2  0  0  0  0  0  0  0  0  0
    8.6514  -17.6377   27.2538 N   0  0  0  0  0  0  0  0  0  0  0  0
    8.4143  -16.8518   26.0478 C   0  0  0  0  0  0  0  0  0  0  0  0
   10.1365  -17.8328   27.3245 O   0  0  0  0  0  0  0  0  0  0  0  0
   10.7338  -18.4837   28.4076 O   0  0  0  0  0  0  0  0  0  0  0  0
  1  2  1  0
  2  3  2  0
  4  5  1  0
  4  2  1  0
  6  7  1  0
  6  5  1  0
  7  8  1  0
  8  9  1  6
  8 10  1  0
 10 11  2  0
 13 12  1  6
 14 10  1  0
 14 13  1  0
 15 13  1  0
 15 16  2  0
 18 17  1  1
 18 20  1  0
 19 18  1  0
 20 21  1  1
 21 15  1  0
 22 20  1  0
 23 22  1  0
 24 22  2  0
M  END
$$$$
