RAT.pdb
     RDKit          3D

 24 23  0  0  1  0  0  0  0  0999 V2000
    7.5306  -12.8567   18.3954 N   0  0  0  0  0  0  0  0  0  0  0  0
    8.2950  -12.9199   19.5801 C   0  0  0  0  0  0  0  0  0  0  0  0
    8.5736  -11.8549   20.2538 N   0  0  0  0  0  0  0  0  0  0  0  0
    8.7754  -14.1879   20.0536 N   0  0  0  0  0  0  0  0  0  0  0  0
    8.4225  -15.3628   19.2640 C   0  0  0  0  0  0  0  0  0  0  0  0
    7.3123  -16.1449   19.9272 C   0  0  0  0  0  0  0  0  0  0  0  0
    7.7319  -16.7133   21.2597 C   0  0  0  0  0  0  0  0  0  0  0  0
    6.6455  -17.5663   21.8803 C   0  0  2  0  0  0  0  0  0  0  0  0
    5.3515  -17.2357   21.3070 N   0  0  0  0  0  0  0  0  0  0  0  0
    6.6239  -17.3073   23.3356 C   0  0  0  0  0  0  0  0  0  0  0  0
    5.9304  -16.3723   23.7735 O   0  0  0  0  0  0  0  0  0  0  0  0
    9.1227  -11.9168   21.1384 C   0  0  0  0  0  0  0  0  0  0  0  0
    7.2702  -19.0742   26.5100 C   0  0  1  0  0  0  0  0  0  0  0  0
    7.4222  -17.8109   25.6872 N   0  0  0  0  0  0  0  0  0  0  0  0
    7.3602  -18.0759   24.2750 C   0  0  0  0  0  0  0  0  0  0  0  0
    8.6455  -17.1008   26.0881 O   0  0  0  0  0  0  0  0  0  0  0  0
    9.7239  -17.2959   25.4513 C   0  0  0  0  0  0  0  0  0  0  0  0
    9.1459  -13.1923   27.4870 C   0  0  2  0  0  0  0  0  0  0  0  0
    9.6746  -14.2772   28.3705 O   0  0  0  0  0  0  0  0  0  0  0  0
    8.8045  -14.5491   29.4374 C   0  0  2  0  0  0  0  0  0  0  0  0
    9.9569  -15.5555   27.5884 N   0  0  0  0  0  0  0  0  0  0  0  0
    8.7114  -16.1867   27.1658 C   0  0  0  0  0  0  0  0  0  0  0  0
   10.6280  -16.5479   28.4904 O   0  0  0  0  0  0  0  0  0  0  0  0
    9.9802  -17.7191   28.8930 O   0  0  0  0  0  0  0  0  0  0  0  0
  1  2  1  0
  2  3  2  0
  4  5  1  0
  4  2  1  0
  6  7  1  0
  6  5  1  0
  7  8  1  0
  8  9  1  6
  8 10  1  0
 10 11  2  0
 13 12  1  1
 14 10  1  0
 14 13  1  0
 15 13  1  0
 15 16  2  0
 18 17  1  1
 18 20  1  0
 19 18  1  0
 20 21  1  1
 21 15  1  0
 22 20  1  0
 23 22  1  0
 24 22  2  0
M  END
$$$$
