RAT.pdb
     RDKit          3D

 24 23  0  0  1  0  0  0  0  0999 V2000
    7.2254  -12.8281   17.2192 N   0  0  0  0  0  0  0  0  0  0  0  0
    8.2306  -13.6318   16.6400 C   0  0  0  0  0  0  0  0  0  0  0  0
    8.2856  -13.8176   15.3639 N   0  0  0  0  0  0  0  0  0  0  0  0
    9.2156  -14.2577   17.4771 N   0  0  0  0  0  0  0  0  0  0  0  0
    8.9887  -14.2009   18.9171 C   0  0  0  0  0  0  0  0  0  0  0  0
    8.0422  -15.2936   19.3577 C   0  0  0  0  0  0  0  0  0  0  0  0
    7.8414  -15.3062   20.8524 C   0  0  0  0  0  0  0  0  0  0  0  0
    7.0113  -16.4896   21.3036 C   0  0  2  0  0  0  0  0  0  0  0  0
    5.6951  -16.4500   20.6882 N   0  0  0  0  0  0  0  0  0  0  0  0
    6.8732  -16.4283   22.7742 C   0  0  0  0  0  0  0  0  0  0  0  0
    6.0616  -15.6284   23.2729 O   0  0  0  0  0  0  0  0  0  0  0  0
    9.0744  -14.3528   14.9406 C   0  0  0  0  0  0  0  0  0  0  0  0
    7.9378  -18.4927   25.7447 C   0  0  1  0  0  0  0  0  0  0  0  0
    7.5535  -17.1779   25.0971 N   0  0  0  0  0  0  0  0  0  0  0  0
    7.6247  -17.2420   23.6622 C   0  0  0  0  0  0  0  0  0  0  0  0
    8.3600  -16.0887   25.6671 O   0  0  0  0  0  0  0  0  0  0  0  0
    9.4816  -15.8000   25.1520 C   0  0  0  0  0  0  0  0  0  0  0  0
    7.4124  -12.3523   26.3227 C   0  0  2  0  0  0  0  0  0  0  0  0
    7.8949  -12.9947   27.5844 O   0  0  0  0  0  0  0  0  0  0  0  0
    6.8302  -13.3539   28.4249 C   0  0  2  0  0  0  0  0  0  0  0  0
    8.7690  -14.2115   27.3003 N   0  0  0  0  0  0  0  0  0  0  0  0
    7.9655  -15.3137   26.7829 C   0  0  0  0  0  0  0  0  0  0  0  0
    9.3567  -14.7082   28.5874 O   0  0  0  0  0  0  0  0  0  0  0  0
   10.3253  -13.9729   29.2763 O   0  0  0  0  0  0  0  0  0  0  0  0
  1  2  1  0
  2  3  2  0
  4  5  1  0
  4  2  1  0
  6  7  1  0
  6  5  1  0
  7  8  1  0
  8  9  1  6
  8 10  1  0
 10 11  2  0
 13 12  1  6
 14 10  1  0
 14 13  1  0
 15 13  1  0
 15 16  2  0
 18 17  1  1
 18 20  1  0
 19 18  1  0
 20 21  1  1
 21 15  1  0
 22 20  1  0
 23 22  1  0
 24 22  2  0
M  END
$$$$
