RAT.pdb
     RDKit          3D

 24 23  0  0  1  0  0  0  0  0999 V2000
    7.9502  -13.3575   17.4644 N   0  0  0  0  0  0  0  0  0  0  0  0
    8.0591  -13.1765   18.8598 C   0  0  0  0  0  0  0  0  0  0  0  0
    7.7899  -12.0403   19.4098 N   0  0  0  0  0  0  0  0  0  0  0  0
    8.4752  -14.2707   19.6918 N   0  0  0  0  0  0  0  0  0  0  0  0
    8.8232  -15.5164   19.0169 C   0  0  0  0  0  0  0  0  0  0  0  0
    7.7399  -16.5532   19.2060 C   0  0  0  0  0  0  0  0  0  0  0  0
    8.1639  -17.6575   20.1417 C   0  0  0  0  0  0  0  0  0  0  0  0
    7.1661  -17.8672   21.2612 C   0  0  2  0  0  0  0  0  0  0  0  0
    5.9279  -17.1614   20.9758 N   0  0  0  0  0  0  0  0  0  0  0  0
    7.7552  -17.3483   22.5138 C   0  0  0  0  0  0  0  0  0  0  0  0
    8.8470  -16.7541   22.4682 O   0  0  0  0  0  0  0  0  0  0  0  0
    7.8174  -11.9348   20.4471 C   0  0  0  0  0  0  0  0  0  0  0  0
    6.7404  -16.4100   25.9453 C   0  0  2  0  0  0  0  0  0  0  0  0
    7.7311  -17.1087   25.0363 N   0  0  0  0  0  0  0  0  0  0  0  0
    7.1371  -17.4917   23.7838 C   0  0  0  0  0  0  0  0  0  0  0  0
    8.3512  -18.2349   25.7494 O   0  0  0  0  0  0  0  0  0  0  0  0
    7.7214  -19.3284   25.8679 C   0  0  0  0  0  0  0  0  0  0  0  0
   12.3206  -20.6901   27.2530 C   0  0  2  0  0  0  0  0  0  0  0  0
   11.6300  -19.6181   26.4714 O   0  0  0  0  0  0  0  0  0  0  0  0
   11.5544  -19.9363   25.1068 C   0  0  1  0  0  0  0  0  0  0  0  0
   10.2358  -19.3294   27.0179 N   0  0  0  0  0  0  0  0  0  0  0  0
    9.6396  -18.1882   26.3320 C   0  0  0  0  0  0  0  0  0  0  0  0
   10.3444  -18.9248   28.4578 O   0  0  0  0  0  0  0  0  0  0  0  0
   10.6375  -17.6080   28.8232 O   0  0  0  0  0  0  0  0  0  0  0  0
  1  2  1  0
  2  3  2  0
  4  5  1  0
  4  2  1  0
  6  7  1  0
  6  5  1  0
  7  8  1  0
  8  9  1  6
  8 10  1  0
 10 11  2  0
 13 12  1  6
 14 10  1  0
 14 13  1  0
 15 13  1  0
 15 16  2  0
 18 17  1  6
 18 20  1  0
 19 18  1  0
 20 21  1  1
 21 15  1  0
 22 20  1  0
 23 22  1  0
 24 22  2  0
M  END
$$$$
