RAT.pdb
     RDKit          3D

 24 23  0  0  1  0  0  0  0  0999 V2000
    7.8545  -12.3071   17.0889 N   0  0  0  0  0  0  0  0  0  0  0  0
    8.3332  -13.6026   16.7983 C   0  0  0  0  0  0  0  0  0  0  0  0
    8.1593  -14.1345   15.6352 N   0  0  0  0  0  0  0  0  0  0  0  0
    9.0287  -14.3505   17.8081 N   0  0  0  0  0  0  0  0  0  0  0  0
    8.2859  -15.4212   18.4640 C   0  0  0  0  0  0  0  0  0  0  0  0
    7.1526  -14.8621   19.2930 C   0  0  0  0  0  0  0  0  0  0  0  0
    7.4145  -14.9838   20.7733 C   0  0  0  0  0  0  0  0  0  0  0  0
    7.6329  -16.4217   21.1948 C   0  0  2  0  0  0  0  0  0  0  0  0
    6.5074  -17.2462   20.7872 N   0  0  0  0  0  0  0  0  0  0  0  0
    7.7688  -16.4605   22.6663 C   0  0  0  0  0  0  0  0  0  0  0  0
    6.7637  -16.2634   23.3722 O   0  0  0  0  0  0  0  0  0  0  0  0
    8.4740  -15.1110   15.4475 C   0  0  0  0  0  0  0  0  0  0  0  0
   10.3536  -17.6132   25.1604 C   0  0  1  0  0  0  0  0  0  0  0  0
    9.1706  -16.7570   24.7562 N   0  0  0  0  0  0  0  0  0  0  0  0
    8.9985  -16.7134   23.3291 C   0  0  0  0  0  0  0  0  0  0  0  0
    9.2914  -15.4238   25.3641 O   0  0  0  0  0  0  0  0  0  0  0  0
   10.1474  -14.6031   24.9164 C   0  0  0  0  0  0  0  0  0  0  0  0
    7.1547  -12.2577   25.7477 C   0  0  2  0  0  0  0  0  0  0  0  0
    7.4220  -12.8634   27.0890 O   0  0  0  0  0  0  0  0  0  0  0  0
    6.3478  -13.6535   27.5260 C   0  0  2  0  0  0  0  0  0  0  0  0
    8.7081  -13.6829   27.0926 N   0  0  0  0  0  0  0  0  0  0  0  0
    8.4985  -14.9736   26.4457 C   0  0  0  0  0  0  0  0  0  0  0  0
    9.0891  -13.9968   28.5086 O   0  0  0  0  0  0  0  0  0  0  0  0
    9.4818  -12.9911   29.3961 O   0  0  0  0  0  0  0  0  0  0  0  0
  1  2  1  0
  2  3  2  0
  4  5  1  0
  4  2  1  0
  6  7  1  0
  6  5  1  0
  7  8  1  0
  8  9  1  1
  8 10  1  0
 10 11  2  0
 13 12  1  1
 14 10  1  0
 14 13  1  0
 15 13  1  0
 15 16  2  0
 18 17  1  1
 18 20  1  0
 19 18  1  0
 20 21  1  1
 21 15  1  0
 22 20  1  0
 23 22  1  0
 24 22  2  0
M  END
$$$$
