RAT.pdb
     RDKit          3D

 24 23  0  0  1  0  0  0  0  0999 V2000
    8.7049  -13.3039   17.9755 N   0  0  0  0  0  0  0  0  0  0  0  0
    8.5896  -12.6767   19.2346 C   0  0  0  0  0  0  0  0  0  0  0  0
    8.5964  -11.3907   19.3441 N   0  0  0  0  0  0  0  0  0  0  0  0
    8.4608  -13.4751   20.4214 N   0  0  0  0  0  0  0  0  0  0  0  0
    7.4100  -14.4871   20.4240 C   0  0  0  0  0  0  0  0  0  0  0  0
    7.8393  -15.7127   19.6508 C   0  0  0  0  0  0  0  0  0  0  0  0
    8.9507  -16.4627   20.3415 C   0  0  0  0  0  0  0  0  0  0  0  0
    8.4490  -17.7164   21.0266 C   0  0  2  0  0  0  0  0  0  0  0  0
    7.2245  -18.1828   20.3976 N   0  0  0  0  0  0  0  0  0  0  0  0
    8.1871  -17.3986   22.4465 C   0  0  0  0  0  0  0  0  0  0  0  0
    7.0315  -17.1001   22.7965 O   0  0  0  0  0  0  0  0  0  0  0  0
    8.5309  -10.9392   20.2821 C   0  0  0  0  0  0  0  0  0  0  0  0
    9.9035  -17.9529   25.7291 C   0  0  1  0  0  0  0  0  0  0  0  0
    8.9709  -17.1517   24.8435 N   0  0  0  0  0  0  0  0  0  0  0  0
    9.1938  -17.4148   23.4473 C   0  0  0  0  0  0  0  0  0  0  0  0
    9.0656  -15.7247   25.1843 O   0  0  0  0  0  0  0  0  0  0  0  0
    9.9629  -15.0077   24.6482 C   0  0  0  0  0  0  0  0  0  0  0  0
    6.7927  -12.5324   24.9290 C   0  0  2  0  0  0  0  0  0  0  0  0
    7.0701  -12.9079   26.3500 O   0  0  0  0  0  0  0  0  0  0  0  0
    6.0177  -13.6508   26.9063 C   0  0  2  0  0  0  0  0  0  0  0  0
    8.3803  -13.6765   26.4858 N   0  0  0  0  0  0  0  0  0  0  0  0
    8.2027  -15.0707   26.0949 C   0  0  0  0  0  0  0  0  0  0  0  0
    8.7858  -13.7091   27.9291 O   0  0  0  0  0  0  0  0  0  0  0  0
    9.1297  -12.5407   28.6145 O   0  0  0  0  0  0  0  0  0  0  0  0
  1  2  1  0
  2  3  2  0
  4  5  1  0
  4  2  1  0
  6  7  1  0
  6  5  1  0
  7  8  1  0
  8  9  1  6
  8 10  1  0
 10 11  2  0
 13 12  1  1
 14 10  1  0
 14 13  1  0
 15 13  1  0
 15 16  2  0
 18 17  1  1
 18 20  1  0
 19 18  1  0
 20 21  1  1
 21 15  1  0
 22 20  1  0
 23 22  1  0
 24 22  2  0
M  END
$$$$
