RAT.pdb
     RDKit          3D

 24 23  0  0  1  0  0  0  0  0999 V2000
    8.9214  -13.1640   16.4136 N   0  0  0  0  0  0  0  0  0  0  0  0
    8.3778  -14.1761   15.5938 C   0  0  0  0  0  0  0  0  0  0  0  0
    7.9829  -13.9226   14.3915 N   0  0  0  0  0  0  0  0  0  0  0  0
    8.2586  -15.5160   16.0970 N   0  0  0  0  0  0  0  0  0  0  0  0
    8.6404  -15.7338   17.4881 C   0  0  0  0  0  0  0  0  0  0  0  0
    7.8539  -14.8316   18.4110 C   0  0  0  0  0  0  0  0  0  0  0  0
    8.1695  -15.0866   19.8636 C   0  0  0  0  0  0  0  0  0  0  0  0
    7.3688  -14.1897   20.7842 C   0  0  2  0  0  0  0  0  0  0  0  0
    7.3006  -12.8414   20.2457 N   0  0  0  0  0  0  0  0  0  0  0  0
    8.0343  -14.1635   22.1040 C   0  0  0  0  0  0  0  0  0  0  0  0
    9.2563  -14.3861   22.1700 O   0  0  0  0  0  0  0  0  0  0  0  0
    7.5932  -14.6815   13.7914 C   0  0  0  0  0  0  0  0  0  0  0  0
    7.0951  -13.2535   25.6679 C   0  0  2  0  0  0  0  0  0  0  0  0
    7.9358  -13.9664   24.6283 N   0  0  0  0  0  0  0  0  0  0  0  0
    7.3484  -13.8949   23.3176 C   0  0  0  0  0  0  0  0  0  0  0  0
    8.2046  -15.3440   25.0661 O   0  0  0  0  0  0  0  0  0  0  0  0
    7.2598  -16.1881   25.1040 C   0  0  0  0  0  0  0  0  0  0  0  0
   10.1994  -18.0442   23.5390 C   0  0  2  0  0  0  0  0  0  0  0  0
   10.7494  -17.8418   24.9152 O   0  0  0  0  0  0  0  0  0  0  0  0
   11.9268  -17.0786   24.8974 C   0  0  2  0  0  0  0  0  0  0  0  0
    9.7249  -17.1993   25.8442 N   0  0  0  0  0  0  0  0  0  0  0  0
    9.4795  -15.8133   25.4608 C   0  0  0  0  0  0  0  0  0  0  0  0
   10.2863  -17.1418   27.2335 O   0  0  0  0  0  0  0  0  0  0  0  0
   10.5396  -18.3059   27.9643 O   0  0  0  0  0  0  0  0  0  0  0  0
  1  2  1  0
  2  3  2  0
  4  5  1  0
  4  2  1  0
  6  7  1  0
  6  5  1  0
  7  8  1  0
  8  9  1  6
  8 10  1  0
 10 11  2  0
 13 12  1  6
 14 10  1  0
 14 13  1  0
 15 13  1  0
 15 16  2  0
 18 17  1  6
 18 20  1  0
 19 18  1  0
 20 21  1  1
 21 15  1  0
 22 20  1  0
 23 22  1  0
 24 22  2  0
M  END
$$$$
