RAT.pdb
     RDKit          3D

 24 23  0  0  1  0  0  0  0  0999 V2000
    7.8266  -16.4034   15.3145 N   0  0  0  0  0  0  0  0  0  0  0  0
    8.2944  -15.1172   15.6592 C   0  0  0  0  0  0  0  0  0  0  0  0
    8.2355  -14.1374   14.8211 N   0  0  0  0  0  0  0  0  0  0  0  0
    8.8466  -14.8839   16.9642 N   0  0  0  0  0  0  0  0  0  0  0  0
    8.2142  -15.5775   18.0811 C   0  0  0  0  0  0  0  0  0  0  0  0
    8.7930  -15.1175   19.3992 C   0  0  0  0  0  0  0  0  0  0  0  0
    7.7371  -14.9718   20.4662 C   0  0  0  0  0  0  0  0  0  0  0  0
    7.5142  -13.5241   20.8501 C   0  0  2  0  0  0  0  0  0  0  0  0
    8.3065  -12.6472   20.0039 N   0  0  0  0  0  0  0  0  0  0  0  0
    7.9178  -13.3487   22.2614 C   0  0  0  0  0  0  0  0  0  0  0  0
    9.1218  -13.1916   22.5314 O   0  0  0  0  0  0  0  0  0  0  0  0
    8.5857  -13.1917   15.0872 C   0  0  0  0  0  0  0  0  0  0  0  0
    6.1968  -12.7121   25.5672 C   0  0  2  0  0  0  0  0  0  0  0  0
    7.3534  -13.2164   24.7281 N   0  0  0  0  0  0  0  0  0  0  0  0
    6.9964  -13.3495   23.3414 C   0  0  0  0  0  0  0  0  0  0  0  0
    7.8847  -14.4580   25.3093 O   0  0  0  0  0  0  0  0  0  0  0  0
    8.1648  -14.5053   26.5445 C   0  0  0  0  0  0  0  0  0  0  0  0
    6.4942  -18.1039   25.3846 C   0  0  2  0  0  0  0  0  0  0  0  0
    7.8438  -18.0757   24.7404 O   0  0  0  0  0  0  0  0  0  0  0  0
    7.7528  -18.1192   23.3408 C   0  0  2  0  0  0  0  0  0  0  0  0
    8.6511  -16.8565   25.1733 N   0  0  0  0  0  0  0  0  0  0  0  0
    8.1139  -15.6419   24.5696 C   0  0  0  0  0  0  0  0  0  0  0  0
   10.0518  -16.9820   24.6529 O   0  0  0  0  0  0  0  0  0  0  0  0
   10.9126  -17.9814   25.1151 O   0  0  0  0  0  0  0  0  0  0  0  0
  1  2  1  0
  2  3  2  0
  4  5  1  0
  4  2  1  0
  6  7  1  0
  6  5  1  0
  7  8  1  0
  8  9  1  6
  8 10  1  0
 10 11  2  0
 13 12  1  6
 14 10  1  0
 14 13  1  0
 15 13  1  0
 15 16  2  0
 18 17  1  1
 18 20  1  0
 19 18  1  0
 20 21  1  1
 21 15  1  0
 22 20  1  0
 23 22  1  0
 24 22  2  0
M  END
$$$$
