RAT.pdb
     RDKit          3D

 24 23  0  0  1  0  0  0  0  0999 V2000
   10.1855  -14.9085   16.2230 N   0  0  0  0  0  0  0  0  0  0  0  0
    8.8251  -14.7117   15.9029 C   0  0  0  0  0  0  0  0  0  0  0  0
    8.4594  -14.3884   14.7080 N   0  0  0  0  0  0  0  0  0  0  0  0
    7.8218  -14.8727   16.9177 N   0  0  0  0  0  0  0  0  0  0  0  0
    7.6408  -13.7630   17.8473 C   0  0  0  0  0  0  0  0  0  0  0  0
    8.9389  -13.4254   18.5439 C   0  0  0  0  0  0  0  0  0  0  0  0
    8.7370  -13.1076   20.0043 C   0  0  0  0  0  0  0  0  0  0  0  0
    8.5172  -14.3566   20.8318 C   0  0  2  0  0  0  0  0  0  0  0  0
    7.2160  -14.9353   20.5410 N   0  0  0  0  0  0  0  0  0  0  0  0
    8.5871  -13.9867   22.2614 C   0  0  0  0  0  0  0  0  0  0  0  0
    9.6796  -13.6389   22.7437 O   0  0  0  0  0  0  0  0  0  0  0  0
    7.4476  -14.3108   14.4672 C   0  0  0  0  0  0  0  0  0  0  0  0
    6.1678  -13.0934   24.9957 C   0  0  2  0  0  0  0  0  0  0  0  0
    7.4916  -13.6588   24.5226 N   0  0  0  0  0  0  0  0  0  0  0  0
    7.4623  -14.0062   23.1274 C   0  0  0  0  0  0  0  0  0  0  0  0
    7.8916  -14.7780   25.3879 O   0  0  0  0  0  0  0  0  0  0  0  0
    7.9399  -14.6163   26.6442 C   0  0  0  0  0  0  0  0  0  0  0  0
    6.4273  -18.3258   25.8450 C   0  0  2  0  0  0  0  0  0  0  0  0
    7.8679  -18.4274   25.4557 O   0  0  0  0  0  0  0  0  0  0  0  0
    8.0184  -18.7329   24.0945 C   0  0  2  0  0  0  0  0  0  0  0  0
    8.6353  -17.1533   25.7926 N   0  0  0  0  0  0  0  0  0  0  0  0
    8.2377  -16.0632   24.9084 C   0  0  0  0  0  0  0  0  0  0  0  0
   10.0957  -17.3735   25.5325 O   0  0  0  0  0  0  0  0  0  0  0  0
   10.8370  -18.2930   26.2797 O   0  0  0  0  0  0  0  0  0  0  0  0
  1  2  1  0
  2  3  2  0
  4  5  1  0
  4  2  1  0
  6  7  1  0
  6  5  1  0
  7  8  1  0
  8  9  1  1
  8 10  1  0
 10 11  2  0
 13 12  1  6
 14 10  1  0
 14 13  1  0
 15 13  1  0
 15 16  2  0
 18 17  1  1
 18 20  1  0
 19 18  1  0
 20 21  1  1
 21 15  1  0
 22 20  1  0
 23 22  1  0
 24 22  2  0
M  END
$$$$
