DMV.pdb
     RDKit          3D

 24 23  0  0  1  0  0  0  0  0999 V2000
   10.5912  -16.1138   20.1579 N   0  0  0  0  0  0  0  0  0  0  0  0
   10.0755  -16.9151   21.2514 C   0  0  1  0  0  0  0  0  0  0  0  0
   11.0195  -18.0533   21.5846 C   0  0  0  0  0  0  0  0  0  0  0  0
   10.9994  -19.1111   20.5528 C   0  0  0  0  0  0  0  0  0  0  0  0
   12.0940  -19.5720   20.1062 O   0  0  0  0  0  0  0  0  0  0  0  0
    9.9400  -16.0533   22.4486 C   0  0  0  0  0  0  0  0  0  0  0  0
   10.8128  -15.1673   22.6945 O   0  0  0  0  0  0  0  0  0  0  0  0
    9.8353  -19.6504   20.0237 O   0  0  0  0  0  0  0  0  0  0  0  0
    6.6314  -11.4401   25.2437 C   0  0  0  0  0  0  0  0  0  0  0  0
    5.7792  -12.9436   25.8113 S   0  0  0  0  0  0  0  0  0  0  0  0
    7.0184  -14.2298   26.0265 C   0  0  0  0  0  0  0  0  0  0  0  0
    7.2680  -15.0822   24.8427 C   0  0  0  0  0  0  0  0  0  0  0  0
    8.6776  -15.3840   24.4896 C   0  0  2  0  0  0  0  0  0  0  0  0
    8.8356  -16.2122   23.3270 N   0  0  0  0  0  0  0  0  0  0  0  0
    9.4475  -15.9784   25.6135 C   0  0  0  0  0  0  0  0  0  0  0  0
    9.7543  -17.2069   25.5963 O   0  0  0  0  0  0  0  0  0  0  0  0
   11.3970  -13.5969   28.4007 C   0  0  0  0  0  0  0  0  0  0  0  0
   10.9897  -14.9619   28.9137 C   0  0  1  0  0  0  0  0  0  0  0  0
    9.7725  -14.7782   29.7869 C   0  0  0  0  0  0  0  0  0  0  0  0
   10.7258  -15.8529   27.7305 C   0  0  2  0  0  0  0  0  0  0  0  0
    9.8745  -15.2299   26.7419 N   0  0  0  0  0  0  0  0  0  0  0  0
   10.0970  -17.1022   28.1845 C   0  0  0  0  0  0  0  0  0  0  0  0
   10.7490  -17.9141   28.8682 O   0  0  0  0  0  0  0  0  0  0  0  0
    8.7918  -17.3787   27.8575 O   0  0  0  0  0  0  0  0  0  0  0  0
  2  1  1  6
  2  3  1  0
  4  3  1  0
  4  8  1  0
  5  4  2  0
  6  7  2  0
  6  2  1  0
  9 10  1  0
 10 11  1  0
 11 12  1  0
 13 12  1  1
 13 14  1  0
 14  6  1  0
 15 13  1  0
 15 21  1  0
 16 15  2  0
 18 17  1  6
 18 20  1  0
 19 18  1  0
 20 21  1  6
 20 22  1  0
 22 24  1  0
 23 22  2  0
M  END
$$$$
