DMV.pdb
     RDKit          3D

 24 23  0  0  1  0  0  0  0  0999 V2000
    8.1927  -12.8315   19.5025 N   0  0  0  0  0  0  0  0  0  0  0  0
    7.7239  -14.0420   20.1496 C   0  0  1  0  0  0  0  0  0  0  0  0
    8.3034  -15.2745   19.4842 C   0  0  0  0  0  0  0  0  0  0  0  0
    7.7408  -15.4934   18.1353 C   0  0  0  0  0  0  0  0  0  0  0  0
    7.9316  -14.6267   17.2283 O   0  0  0  0  0  0  0  0  0  0  0  0
    8.1619  -14.0241   21.5646 C   0  0  0  0  0  0  0  0  0  0  0  0
    9.3936  -13.9193   21.8461 O   0  0  0  0  0  0  0  0  0  0  0  0
    6.9980  -16.6110   17.7815 O   0  0  0  0  0  0  0  0  0  0  0  0
    6.6562  -10.7613   26.4505 C   0  0  0  0  0  0  0  0  0  0  0  0
    7.5487  -12.1826   27.1522 S   0  0  0  0  0  0  0  0  0  0  0  0
    6.9004  -13.6735   26.3820 C   0  0  0  0  0  0  0  0  0  0  0  0
    6.6185  -13.5740   24.9325 C   0  0  0  0  0  0  0  0  0  0  0  0
    7.6117  -14.1488   23.9913 C   0  0  2  0  0  0  0  0  0  0  0  0
    7.2092  -14.1236   22.6129 N   0  0  0  0  0  0  0  0  0  0  0  0
    8.0234  -15.5316   24.3483 C   0  0  0  0  0  0  0  0  0  0  0  0
    7.1895  -16.4822   24.2811 O   0  0  0  0  0  0  0  0  0  0  0  0
   10.4414  -17.6152   22.7254 C   0  0  0  0  0  0  0  0  0  0  0  0
   10.8354  -17.7181   24.1837 C   0  0  1  0  0  0  0  0  0  0  0  0
   12.0761  -16.8821   24.3826 C   0  0  0  0  0  0  0  0  0  0  0  0
    9.6777  -17.2468   25.0211 C   0  0  2  0  0  0  0  0  0  0  0  0
    9.3367  -15.8638   24.7736 N   0  0  0  0  0  0  0  0  0  0  0  0
   10.0004  -17.4126   26.4461 C   0  0  0  0  0  0  0  0  0  0  0  0
   10.1927  -18.5517   26.9120 O   0  0  0  0  0  0  0  0  0  0  0  0
   10.0906  -16.3152   27.2675 O   0  0  0  0  0  0  0  0  0  0  0  0
  2  1  1  6
  2  3  1  0
  4  3  1  0
  4  8  1  0
  5  4  2  0
  6  7  2  0
  6  2  1  0
  9 10  1  0
 10 11  1  0
 11 12  1  0
 13 12  1  1
 13 14  1  0
 14  6  1  0
 15 13  1  0
 15 21  1  0
 16 15  2  0
 18 17  1  6
 18 20  1  0
 19 18  1  0
 20 21  1  1
 20 22  1  0
 22 24  1  0
 23 22  2  0
M  END
$$$$
