DMV.pdb
     RDKit          3D

 24 23  0  0  1  0  0  0  0  0999 V2000
    7.5560  -17.2333   20.7867 N   0  0  0  0  0  0  0  0  0  0  0  0
    8.6788  -16.3238   20.6602 C   0  0  1  0  0  0  0  0  0  0  0  0
    8.5780  -15.5083   19.3865 C   0  0  0  0  0  0  0  0  0  0  0  0
    9.1452  -16.2227   18.2238 C   0  0  0  0  0  0  0  0  0  0  0  0
   10.0151  -17.1279   18.4077 O   0  0  0  0  0  0  0  0  0  0  0  0
    8.6688  -15.3941   21.8136 C   0  0  0  0  0  0  0  0  0  0  0  0
    8.2939  -14.1932   21.6571 O   0  0  0  0  0  0  0  0  0  0  0  0
    8.7831  -15.9657   16.9089 O   0  0  0  0  0  0  0  0  0  0  0  0
    5.6702  -11.1397   25.8849 C   0  0  0  0  0  0  0  0  0  0  0  0
    5.5371  -12.9349   25.6229 S   0  0  0  0  0  0  0  0  0  0  0  0
    7.2050  -13.6051   25.5525 C   0  0  0  0  0  0  0  0  0  0  0  0
    7.4945  -14.4800   24.3944 C   0  0  0  0  0  0  0  0  0  0  0  0
    8.8641  -15.0386   24.2717 C   0  0  2  0  0  0  0  0  0  0  0  0
    9.0774  -15.8392   23.0987 N   0  0  0  0  0  0  0  0  0  0  0  0
    9.2893  -15.8122   25.4675 C   0  0  0  0  0  0  0  0  0  0  0  0
    9.5870  -17.0383   25.3605 O   0  0  0  0  0  0  0  0  0  0  0  0
   11.4177  -15.6524   29.8992 C   0  0  0  0  0  0  0  0  0  0  0  0
   10.4057  -14.9946   28.9852 C   0  0  1  0  0  0  0  0  0  0  0  0
   10.8743  -13.5840   28.7234 C   0  0  0  0  0  0  0  0  0  0  0  0
   10.3006  -15.8139   27.7277 C   0  0  2  0  0  0  0  0  0  0  0  0
    9.3858  -15.2430   26.7647 N   0  0  0  0  0  0  0  0  0  0  0  0
    9.8559  -17.1751   28.0618 C   0  0  0  0  0  0  0  0  0  0  0  0
    8.6543  -17.4827   27.9466 O   0  0  0  0  0  0  0  0  0  0  0  0
   10.7607  -18.1106   28.5013 O   0  0  0  0  0  0  0  0  0  0  0  0
  2  1  1  1
  2  3  1  0
  4  3  1  0
  4  8  1  0
  5  4  2  0
  6  7  2  0
  6  2  1  0
  9 10  1  0
 10 11  1  0
 11 12  1  0
 13 12  1  1
 13 14  1  0
 14  6  1  0
 15 13  1  0
 15 21  1  0
 16 15  2  0
 18 17  1  1
 18 20  1  0
 19 18  1  0
 20 21  1  6
 20 22  1  0
 22 24  1  0
 23 22  2  0
M  END
$$$$
