DMV.pdb
     RDKit          3D

 24 23  0  0  1  0  0  0  0  0999 V2000
   10.3157  -16.0884   19.9718 N   0  0  0  0  0  0  0  0  0  0  0  0
    9.2328  -16.4920   20.8483 C   0  0  1  0  0  0  0  0  0  0  0  0
    9.2057  -17.9975   21.0225 C   0  0  0  0  0  0  0  0  0  0  0  0
    8.8036  -18.6926   19.7818 C   0  0  0  0  0  0  0  0  0  0  0  0
    8.1419  -18.0663   18.8987 O   0  0  0  0  0  0  0  0  0  0  0  0
    9.4409  -15.8706   22.1769 C   0  0  0  0  0  0  0  0  0  0  0  0
   10.6167  -15.6792   22.6105 O   0  0  0  0  0  0  0  0  0  0  0  0
    9.1076  -20.0186   19.5075 O   0  0  0  0  0  0  0  0  0  0  0  0
    6.2937  -11.5140   27.9830 C   0  0  0  0  0  0  0  0  0  0  0  0
    6.0066  -12.2218   26.3321 S   0  0  0  0  0  0  0  0  0  0  0  0
    7.4171  -13.2626   25.9275 C   0  0  0  0  0  0  0  0  0  0  0  0
    7.3635  -13.9274   24.6063 C   0  0  0  0  0  0  0  0  0  0  0  0
    8.5031  -14.7961   24.2197 C   0  0  2  0  0  0  0  0  0  0  0  0
    8.3291  -15.4858   22.9721 N   0  0  0  0  0  0  0  0  0  0  0  0
    8.8685  -15.7828   25.2695 C   0  0  0  0  0  0  0  0  0  0  0  0
    8.1178  -16.7763   25.4992 O   0  0  0  0  0  0  0  0  0  0  0  0
   11.7954  -17.9228   25.4484 C   0  0  0  0  0  0  0  0  0  0  0  0
   11.7336  -17.2889   26.8220 C   0  0  1  0  0  0  0  0  0  0  0  0
   12.8182  -16.2416   26.8920 C   0  0  0  0  0  0  0  0  0  0  0  0
   10.3574  -16.7127   27.0159 C   0  0  2  0  0  0  0  0  0  0  0  0
   10.0458  -15.6773   26.0562 N   0  0  0  0  0  0  0  0  0  0  0  0
   10.2417  -16.1581   28.3728 C   0  0  0  0  0  0  0  0  0  0  0  0
   10.0069  -14.9451   28.5311 O   0  0  0  0  0  0  0  0  0  0  0  0
   10.3920  -16.9727   29.4686 O   0  0  0  0  0  0  0  0  0  0  0  0
  2  1  1  6
  2  3  1  0
  4  3  1  0
  4  8  1  0
  5  4  2  0
  6  7  2  0
  6  2  1  0
  9 10  1  0
 10 11  1  0
 11 12  1  0
 13 12  1  1
 13 14  1  0
 14  6  1  0
 15 13  1  0
 15 21  1  0
 16 15  2  0
 18 17  1  6
 18 20  1  0
 19 18  1  0
 20 21  1  6
 20 22  1  0
 22 24  1  0
 23 22  2  0
M  END
$$$$
