DMV.pdb
     RDKit          3D

 24 23  0  0  1  0  0  0  0  0999 V2000
    9.3722  -16.0211   19.7413 N   0  0  0  0  0  0  0  0  0  0  0  0
    9.9096  -16.7701   20.8611 C   0  0  1  0  0  0  0  0  0  0  0  0
   11.3656  -17.1233   20.6313 C   0  0  0  0  0  0  0  0  0  0  0  0
   11.5179  -18.3644   19.8436 C   0  0  0  0  0  0  0  0  0  0  0  0
   11.8618  -18.2947   18.6242 O   0  0  0  0  0  0  0  0  0  0  0  0
    9.8176  -15.9330   22.0799 C   0  0  0  0  0  0  0  0  0  0  0  0
   10.6300  -14.9757   22.2548 O   0  0  0  0  0  0  0  0  0  0  0  0
   11.3052  -19.6356   20.3584 O   0  0  0  0  0  0  0  0  0  0  0  0
    6.2463  -11.6044   26.7957 C   0  0  0  0  0  0  0  0  0  0  0  0
    6.4144  -12.5279   25.2375 S   0  0  0  0  0  0  0  0  0  0  0  0
    6.8394  -14.2269   25.6486 C   0  0  0  0  0  0  0  0  0  0  0  0
    7.1612  -15.1019   24.4992 C   0  0  0  0  0  0  0  0  0  0  0  0
    8.5914  -15.2946   24.1526 C   0  0  2  0  0  0  0  0  0  0  0  0
    8.8223  -16.1954   23.0583 N   0  0  0  0  0  0  0  0  0  0  0  0
    9.4214  -15.7191   25.3102 C   0  0  0  0  0  0  0  0  0  0  0  0
    9.7573  -16.9329   25.4424 O   0  0  0  0  0  0  0  0  0  0  0  0
    9.4245  -13.7389   28.8864 C   0  0  0  0  0  0  0  0  0  0  0  0
   10.7860  -14.2973   28.5304 C   0  0  1  0  0  0  0  0  0  0  0  0
   11.3877  -14.8736   29.7889 C   0  0  0  0  0  0  0  0  0  0  0  0
   10.6071  -15.3274   27.4485 C   0  0  2  0  0  0  0  0  0  0  0  0
    9.8763  -14.8187   26.3094 N   0  0  0  0  0  0  0  0  0  0  0  0
    9.8956  -16.4941   27.9913 C   0  0  0  0  0  0  0  0  0  0  0  0
   10.5080  -17.3295   28.6833 O   0  0  0  0  0  0  0  0  0  0  0  0
    8.5566  -16.6676   27.7385 O   0  0  0  0  0  0  0  0  0  0  0  0
  2  1  1  6
  2  3  1  0
  4  3  1  0
  4  8  1  0
  5  4  2  0
  6  7  2  0
  6  2  1  0
  9 10  1  0
 10 11  1  0
 11 12  1  0
 13 12  1  1
 13 14  1  0
 14  6  1  0
 15 13  1  0
 15 21  1  0
 16 15  2  0
 18 17  1  1
 18 20  1  0
 19 18  1  0
 20 21  1  6
 20 22  1  0
 22 24  1  0
 23 22  2  0
M  END
$$$$
