DMV.pdb
     RDKit          3D

 24 23  0  0  1  0  0  0  0  0999 V2000
    8.5938  -17.5150   21.3009 N   0  0  0  0  0  0  0  0  0  0  0  0
    9.9441  -17.1351   21.6697 C   0  0  1  0  0  0  0  0  0  0  0  0
   10.6617  -16.4782   20.5073 C   0  0  0  0  0  0  0  0  0  0  0  0
   10.4384  -17.2007   19.2376 C   0  0  0  0  0  0  0  0  0  0  0  0
   10.8447  -18.3966   19.1170 O   0  0  0  0  0  0  0  0  0  0  0  0
    9.8758  -16.1644   22.7867 C   0  0  0  0  0  0  0  0  0  0  0  0
   10.9300  -15.5892   23.1927 O   0  0  0  0  0  0  0  0  0  0  0  0
    9.7977  -16.6473   18.1378 O   0  0  0  0  0  0  0  0  0  0  0  0
    6.0250  -10.9299   26.9691 C   0  0  0  0  0  0  0  0  0  0  0  0
    5.6732  -12.3699   25.9147 S   0  0  0  0  0  0  0  0  0  0  0  0
    7.1393  -13.4123   25.9010 C   0  0  0  0  0  0  0  0  0  0  0  0
    7.3821  -14.1583   24.6460 C   0  0  0  0  0  0  0  0  0  0  0  0
    8.5605  -15.0590   24.5909 C   0  0  2  0  0  0  0  0  0  0  0  0
    8.6334  -15.8717   23.4091 N   0  0  0  0  0  0  0  0  0  0  0  0
    8.6842  -15.9336   25.7862 C   0  0  0  0  0  0  0  0  0  0  0  0
    8.5142  -15.4552   26.9462 O   0  0  0  0  0  0  0  0  0  0  0  0
    8.3657  -20.1858   28.0513 C   0  0  0  0  0  0  0  0  0  0  0  0
    8.2384  -19.4039   26.7611 C   0  0  1  0  0  0  0  0  0  0  0  0
    6.7680  -19.1807   26.5043 C   0  0  0  0  0  0  0  0  0  0  0  0
    9.0032  -18.1168   26.9102 C   0  0  2  0  0  0  0  0  0  0  0  0
    8.9907  -17.3177   25.7055 N   0  0  0  0  0  0  0  0  0  0  0  0
   10.3970  -18.4109   27.2750 C   0  0  0  0  0  0  0  0  0  0  0  0
   11.3147  -18.1742   26.4667 O   0  0  0  0  0  0  0  0  0  0  0  0
   10.6922  -18.9466   28.5050 O   0  0  0  0  0  0  0  0  0  0  0  0
  2  1  1  6
  2  3  1  0
  4  3  1  0
  4  8  1  0
  5  4  2  0
  6  7  2  0
  6  2  1  0
  9 10  1  0
 10 11  1  0
 11 12  1  0
 13 12  1  1
 13 14  1  0
 14  6  1  0
 15 13  1  0
 15 21  1  0
 16 15  2  0
 18 17  1  1
 18 20  1  0
 19 18  1  0
 20 21  1  6
 20 22  1  0
 22 24  1  0
 23 22  2  0
M  END
$$$$
