DMV.pdb
     RDKit          3D

 24 23  0  0  1  0  0  0  0  0999 V2000
    4.4417  -19.9000   22.5417 N   0  0  0  0  0  0  0  0  0  0  0  0
    5.3239  -19.7719   23.6859 C   0  0  1  0  0  0  0  0  0  0  0  0
    6.3416  -20.8947   23.7170 C   0  0  0  0  0  0  0  0  0  0  0  0
    6.0704  -21.8596   24.8031 C   0  0  0  0  0  0  0  0  0  0  0  0
    4.8781  -22.2306   25.0286 O   0  0  0  0  0  0  0  0  0  0  0  0
    6.0498  -18.4846   23.5837 C   0  0  0  0  0  0  0  0  0  0  0  0
    6.4252  -18.0561   22.4512 O   0  0  0  0  0  0  0  0  0  0  0  0
    7.0554  -22.4031   25.6157 O   0  0  0  0  0  0  0  0  0  0  0  0
    7.7666  -11.5012   26.8134 C   0  0  0  0  0  0  0  0  0  0  0  0
    6.7460  -13.0004   26.9549 S   0  0  0  0  0  0  0  0  0  0  0  0
    7.3363  -14.1842   25.7357 C   0  0  0  0  0  0  0  0  0  0  0  0
    6.6017  -15.4679   25.6826 C   0  0  0  0  0  0  0  0  0  0  0  0
    7.0298  -16.4714   24.6763 C   0  0  2  0  0  0  0  0  0  0  0  0
    6.3298  -17.7232   24.7493 N   0  0  0  0  0  0  0  0  0  0  0  0
    8.4925  -16.7346   24.6989 C   0  0  0  0  0  0  0  0  0  0  0  0
    8.9845  -17.5250   25.5571 O   0  0  0  0  0  0  0  0  0  0  0  0
   10.7032  -16.9201   21.3274 C   0  0  0  0  0  0  0  0  0  0  0  0
   11.4613  -16.2510   22.4544 C   0  0  1  0  0  0  0  0  0  0  0  0
   11.4836  -14.7682   22.1740 C   0  0  0  0  0  0  0  0  0  0  0  0
   10.7751  -16.5861   23.7508 C   0  0  2  0  0  0  0  0  0  0  0  0
    9.4019  -16.1355   23.7878 N   0  0  0  0  0  0  0  0  0  0  0  0
   11.5093  -15.9761   24.8693 C   0  0  0  0  0  0  0  0  0  0  0  0
   10.9490  -15.1327   25.5948 O   0  0  0  0  0  0  0  0  0  0  0  0
   12.8123  -16.3325   25.1182 O   0  0  0  0  0  0  0  0  0  0  0  0
  2  1  1  6
  2  3  1  0
  4  3  1  0
  4  8  1  0
  5  4  2  0
  6  7  2  0
  6  2  1  0
  9 10  1  0
 10 11  1  0
 11 12  1  0
 13 12  1  1
 13 14  1  0
 14  6  1  0
 15 13  1  0
 15 21  1  0
 16 15  2  0
 18 17  1  6
 18 20  1  0
 19 18  1  0
 20 21  1  6
 20 22  1  0
 22 24  1  0
 23 22  2  0
M  END
$$$$
