DMV.pdb
     RDKit          3D

 24 23  0  0  1  0  0  0  0  0999 V2000
    9.8467  -17.5425   20.7269 N   0  0  0  0  0  0  0  0  0  0  0  0
   11.0445  -17.0288   21.3635 C   0  0  1  0  0  0  0  0  0  0  0  0
   11.8648  -16.2020   20.3934 C   0  0  0  0  0  0  0  0  0  0  0  0
   12.1509  -16.9358   19.1429 C   0  0  0  0  0  0  0  0  0  0  0  0
   12.8809  -17.9731   19.1778 O   0  0  0  0  0  0  0  0  0  0  0  0
   10.6452  -16.1618   22.4965 C   0  0  0  0  0  0  0  0  0  0  0  0
   11.4626  -15.3135   22.9648 O   0  0  0  0  0  0  0  0  0  0  0  0
   11.6637  -16.5594   17.8991 O   0  0  0  0  0  0  0  0  0  0  0  0
    5.9810  -11.9840   26.6105 C   0  0  0  0  0  0  0  0  0  0  0  0
    6.5497  -12.7479   25.0606 S   0  0  0  0  0  0  0  0  0  0  0  0
    6.9516  -14.4662   25.4100 C   0  0  0  0  0  0  0  0  0  0  0  0
    7.4666  -15.2485   24.2640 C   0  0  0  0  0  0  0  0  0  0  0  0
    8.9346  -15.4389   24.1573 C   0  0  2  0  0  0  0  0  0  0  0  0
    9.3485  -16.2737   23.0645 N   0  0  0  0  0  0  0  0  0  0  0  0
    9.5512  -15.9451   25.4114 C   0  0  0  0  0  0  0  0  0  0  0  0
    9.9007  -17.1585   25.5050 O   0  0  0  0  0  0  0  0  0  0  0  0
   11.3678  -15.3338   29.9445 C   0  0  0  0  0  0  0  0  0  0  0  0
   10.5436  -14.7007   28.8435 C   0  0  1  0  0  0  0  0  0  0  0  0
   11.2342  -13.4233   28.4318 C   0  0  0  0  0  0  0  0  0  0  0  0
   10.4261  -15.6869   27.7134 C   0  0  2  0  0  0  0  0  0  0  0  0
    9.7803  -15.1256   26.5480 N   0  0  0  0  0  0  0  0  0  0  0  0
    9.6657  -16.8627   28.1622 C   0  0  0  0  0  0  0  0  0  0  0  0
    8.4215  -16.8593   28.1011 O   0  0  0  0  0  0  0  0  0  0  0  0
   10.3219  -17.9667   28.6496 O   0  0  0  0  0  0  0  0  0  0  0  0
  2  1  1  6
  2  3  1  0
  4  3  1  0
  4  8  1  0
  5  4  2  0
  6  7  2  0
  6  2  1  0
  9 10  1  0
 10 11  1  0
 11 12  1  0
 13 12  1  1
 13 14  1  0
 14  6  1  0
 15 13  1  0
 15 21  1  0
 16 15  2  0
 18 17  1  1
 18 20  1  0
 19 18  1  0
 20 21  1  6
 20 22  1  0
 22 24  1  0
 23 22  2  0
M  END
$$$$
