DMV.pdb
     RDKit          3D

 24 23  0  0  1  0  0  0  0  0999 V2000
   10.6091  -16.0576   19.8636 N   0  0  0  0  0  0  0  0  0  0  0  0
   10.4365  -16.9149   21.0207 C   0  0  1  0  0  0  0  0  0  0  0  0
   11.7016  -17.6974   21.3121 C   0  0  0  0  0  0  0  0  0  0  0  0
   11.9847  -18.7037   20.2675 C   0  0  0  0  0  0  0  0  0  0  0  0
   11.0274  -19.1964   19.5959 O   0  0  0  0  0  0  0  0  0  0  0  0
   10.1281  -16.0686   22.1968 C   0  0  0  0  0  0  0  0  0  0  0  0
   10.7892  -15.0071   22.4053 O   0  0  0  0  0  0  0  0  0  0  0  0
   13.2590  -19.1601   19.9613 O   0  0  0  0  0  0  0  0  0  0  0  0
    6.1794  -11.9123   26.5744 C   0  0  0  0  0  0  0  0  0  0  0  0
    6.5749  -12.8319   25.0556 S   0  0  0  0  0  0  0  0  0  0  0  0
    6.8186  -14.5567   25.5051 C   0  0  0  0  0  0  0  0  0  0  0  0
    7.2728  -15.4447   24.4118 C   0  0  0  0  0  0  0  0  0  0  0  0
    8.7345  -15.6041   24.2090 C   0  0  2  0  0  0  0  0  0  0  0  0
    9.0934  -16.4382   23.0965 N   0  0  0  0  0  0  0  0  0  0  0  0
    9.4438  -16.0871   25.4226 C   0  0  0  0  0  0  0  0  0  0  0  0
    9.8943  -17.2696   25.4691 O   0  0  0  0  0  0  0  0  0  0  0  0
   11.0052  -13.4477   28.2725 C   0  0  0  0  0  0  0  0  0  0  0  0
   10.5819  -14.8043   28.7949 C   0  0  1  0  0  0  0  0  0  0  0  0
    9.2532  -14.6328   29.4901 C   0  0  0  0  0  0  0  0  0  0  0  0
   10.5100  -15.7576   27.6330 C   0  0  2  0  0  0  0  0  0  0  0  0
    9.6548  -15.2783   26.5704 N   0  0  0  0  0  0  0  0  0  0  0  0
   10.0134  -17.0620   28.0955 C   0  0  0  0  0  0  0  0  0  0  0  0
    8.8426  -17.4061   27.8456 O   0  0  0  0  0  0  0  0  0  0  0  0
   10.8358  -17.9044   28.8033 O   0  0  0  0  0  0  0  0  0  0  0  0
  2  1  1  6
  2  3  1  0
  4  3  1  0
  4  8  1  0
  5  4  2  0
  6  7  2  0
  6  2  1  0
  9 10  1  0
 10 11  1  0
 11 12  1  0
 13 12  1  1
 13 14  1  0
 14  6  1  0
 15 13  1  0
 15 21  1  0
 16 15  2  0
 18 17  1  6
 18 20  1  0
 19 18  1  0
 20 21  1  6
 20 22  1  0
 22 24  1  0
 23 22  2  0
M  END
$$$$
