DMV.pdb
     RDKit          3D

 24 23  0  0  1  0  0  0  0  0999 V2000
    7.2946  -20.0571   22.5305 N   0  0  0  0  0  0  0  0  0  0  0  0
    6.9840  -18.9405   23.4025 C   0  0  1  0  0  0  0  0  0  0  0  0
    7.2567  -19.2895   24.8522 C   0  0  0  0  0  0  0  0  0  0  0  0
    6.4021  -20.3982   25.3262 C   0  0  0  0  0  0  0  0  0  0  0  0
    5.8274  -21.1515   24.4823 O   0  0  0  0  0  0  0  0  0  0  0  0
    7.8423  -17.7926   23.0279 C   0  0  0  0  0  0  0  0  0  0  0  0
    9.0942  -17.9502   22.9048 O   0  0  0  0  0  0  0  0  0  0  0  0
    6.1782  -20.6806   26.6664 O   0  0  0  0  0  0  0  0  0  0  0  0
    7.1157  -13.0062   18.3606 C   0  0  0  0  0  0  0  0  0  0  0  0
    7.3559  -12.1372   19.9405 S   0  0  0  0  0  0  0  0  0  0  0  0
    8.2107  -13.2570   21.0593 C   0  0  0  0  0  0  0  0  0  0  0  0
    7.4400  -14.4461   21.4865 C   0  0  0  0  0  0  0  0  0  0  0  0
    8.0824  -15.3831   22.4416 C   0  0  2  0  0  0  0  0  0  0  0  0
    7.2717  -16.5116   22.8044 N   0  0  0  0  0  0  0  0  0  0  0  0
    8.5636  -14.7169   23.6800 C   0  0  0  0  0  0  0  0  0  0  0  0
    9.5357  -13.9069   23.6313 O   0  0  0  0  0  0  0  0  0  0  0  0
    7.1807  -12.1373   25.6451 C   0  0  0  0  0  0  0  0  0  0  0  0
    7.4005  -13.2531   26.6447 C   0  0  1  0  0  0  0  0  0  0  0  0
    6.0739  -13.9386   26.8643 C   0  0  0  0  0  0  0  0  0  0  0  0
    8.4492  -14.1813   26.0949 C   0  0  2  0  0  0  0  0  0  0  0  0
    7.9816  -14.9392   24.9559 N   0  0  0  0  0  0  0  0  0  0  0  0
    8.8816  -15.1145   27.1458 C   0  0  0  0  0  0  0  0  0  0  0  0
    8.7182  -16.3401   26.9951 O   0  0  0  0  0  0  0  0  0  0  0  0
    9.4657  -14.6401   28.2951 O   0  0  0  0  0  0  0  0  0  0  0  0
  2  1  1  6
  2  3  1  0
  4  3  1  0
  4  8  1  0
  5  4  2  0
  6  7  2  0
  6  2  1  0
  9 10  1  0
 10 11  1  0
 11 12  1  0
 13 12  1  1
 13 14  1  0
 14  6  1  0
 15 13  1  0
 15 21  1  0
 16 15  2  0
 18 17  1  6
 18 20  1  0
 19 18  1  0
 20 21  1  6
 20 22  1  0
 22 24  1  0
 23 22  2  0
M  END
$$$$
