DMV.pdb
     RDKit          3D

 24 23  0  0  1  0  0  0  0  0999 V2000
    7.3903  -17.0372   20.7467 N   0  0  0  0  0  0  0  0  0  0  0  0
    8.8154  -16.7692   20.7145 C   0  0  1  0  0  0  0  0  0  0  0  0
    9.2180  -16.1212   19.4047 C   0  0  0  0  0  0  0  0  0  0  0  0
    9.0151  -17.0249   18.2531 C   0  0  0  0  0  0  0  0  0  0  0  0
    8.8187  -18.2622   18.4542 O   0  0  0  0  0  0  0  0  0  0  0  0
    9.1485  -15.8396   21.8188 C   0  0  0  0  0  0  0  0  0  0  0  0
   10.3469  -15.4639   21.9920 O   0  0  0  0  0  0  0  0  0  0  0  0
    9.0247  -16.6033   16.9309 O   0  0  0  0  0  0  0  0  0  0  0  0
    7.7276  -12.7138   28.1498 C   0  0  0  0  0  0  0  0  0  0  0  0
    6.6471  -12.7275   26.6864 S   0  0  0  0  0  0  0  0  0  0  0  0
    7.6911  -12.5609   25.2309 C   0  0  0  0  0  0  0  0  0  0  0  0
    7.4117  -13.5111   24.1311 C   0  0  0  0  0  0  0  0  0  0  0  0
    8.4412  -14.5336   23.8191 C   0  0  2  0  0  0  0  0  0  0  0  0
    8.1320  -15.3637   22.6887 N   0  0  0  0  0  0  0  0  0  0  0  0
    8.7730  -15.4020   24.9788 C   0  0  0  0  0  0  0  0  0  0  0  0
    7.9229  -16.2318   25.4173 O   0  0  0  0  0  0  0  0  0  0  0  0
   12.3538  -18.0541   26.8286 C   0  0  0  0  0  0  0  0  0  0  0  0
   11.8781  -16.9481   25.9106 C   0  0  1  0  0  0  0  0  0  0  0  0
   11.9030  -17.4823   24.4993 C   0  0  0  0  0  0  0  0  0  0  0  0
   10.5009  -16.5292   26.3482 C   0  0  2  0  0  0  0  0  0  0  0  0
   10.0250  -15.3578   25.6471 N   0  0  0  0  0  0  0  0  0  0  0  0
   10.5050  -16.2537   27.7926 C   0  0  0  0  0  0  0  0  0  0  0  0
   10.3531  -17.1864   28.6042 O   0  0  0  0  0  0  0  0  0  0  0  0
   10.6756  -14.9704   28.2520 O   0  0  0  0  0  0  0  0  0  0  0  0
  2  1  1  6
  2  3  1  0
  4  3  1  0
  4  8  1  0
  5  4  2  0
  6  7  2  0
  6  2  1  0
  9 10  1  0
 10 11  1  0
 11 12  1  0
 13 12  1  1
 13 14  1  0
 14  6  1  0
 15 13  1  0
 15 21  1  0
 16 15  2  0
 18 17  1  1
 18 20  1  0
 19 18  1  0
 20 21  1  6
 20 22  1  0
 22 24  1  0
 23 22  2  0
M  END
$$$$
