ASC.pdb
     RDKit          3D

 18 17  0  0  1  0  0  0  0  0999 V2000
   17.0186  -12.3707  -16.6091 C   0  0  0  0  0  0  0  0  0  0  0  0
   17.5121  -11.5281  -15.4634 C   0  0  2  0  0  0  0  0  0  0  0  0
   16.5681  -11.4391  -14.3913 N   0  0  0  0  0  0  0  0  0  0  0  0
   17.8800  -10.1754  -15.9303 C   0  0  0  0  0  0  0  0  0  0  0  0
   18.7389   -9.9900  -16.8426 O   0  0  0  0  0  0  0  0  0  0  0  0
   15.6219   -6.8756  -14.6266 O   0  0  0  0  0  0  0  0  0  0  0  0
   16.3145   -6.8912  -15.8087 C   0  0  0  0  0  0  0  0  0  0  0  0
   17.5971   -7.6841  -15.7434 C   0  0  2  0  0  0  0  0  0  0  0  0
   17.2614   -9.0511  -15.3484 N   0  0  0  0  0  0  0  0  0  0  0  0
   18.5556   -7.1352  -14.7609 C   0  0  0  0  0  0  0  0  0  0  0  0
   18.6297   -7.6110  -13.6011 O   0  0  0  0  0  0  0  0  0  0  0  0
   19.3979   -6.0649  -15.1270 N   0  0  0  0  0  0  0  0  0  0  0  0
   20.3354   -5.4456  -14.1760 C   0  0  1  0  0  0  0  0  0  0  0  0
   21.6895   -6.0856  -14.4766 C   0  0  0  0  0  0  0  0  0  0  0  0
   22.9722   -5.2076  -13.5816 S   0  0  0  0  0  0  0  0  0  0  0  0
   20.3530   -3.9878  -14.3621 C   0  0  0  0  0  0  0  0  0  0  0  0
   20.1632   -3.5195  -15.5086 O   0  0  0  0  0  0  0  0  0  0  0  0
   20.5674   -3.0805  -13.3465 O   0  0  0  0  0  0  0  0  0  0  0  0
  2  1  1  6
  2  3  1  0
  4  2  1  0
  5  4  2  0
  7  6  1  0
  8  7  1  1
  8  9  1  0
  9  4  1  0
 10  8  1  0
 10 12  1  0
 11 10  2  0
 13 14  1  6
 13 12  1  0
 13 16  1  0
 14 15  1  0
 16 18  1  0
 17 16  2  0
M  END
$$$$
