ASC.pdb
     RDKit          3D

 18 17  0  0  1  0  0  0  0  0999 V2000
   16.2424   -9.7759  -16.4557 C   0  0  0  0  0  0  0  0  0  0  0  0
   17.4416  -10.6659  -16.2655 C   0  0  2  0  0  0  0  0  0  0  0  0
   17.1625  -11.8090  -15.4509 N   0  0  0  0  0  0  0  0  0  0  0  0
   18.5737   -9.9031  -15.7001 C   0  0  0  0  0  0  0  0  0  0  0  0
   18.5178   -9.3688  -14.5530 O   0  0  0  0  0  0  0  0  0  0  0  0
   23.2557   -8.7425  -16.4737 O   0  0  0  0  0  0  0  0  0  0  0  0
   22.0967   -9.3762  -16.8372 C   0  0  0  0  0  0  0  0  0  0  0  0
   20.9273   -9.0519  -15.9397 C   0  0  2  0  0  0  0  0  0  0  0  0
   19.7561   -9.7604  -16.4531 N   0  0  0  0  0  0  0  0  0  0  0  0
   20.6213   -7.6061  -15.9046 C   0  0  0  0  0  0  0  0  0  0  0  0
   19.8772   -7.0859  -16.7721 O   0  0  0  0  0  0  0  0  0  0  0  0
   21.1697   -6.7988  -14.8864 N   0  0  0  0  0  0  0  0  0  0  0  0
   21.0002   -5.3367  -14.8698 C   0  0  1  0  0  0  0  0  0  0  0  0
   19.5834   -5.1052  -14.3475 C   0  0  0  0  0  0  0  0  0  0  0  0
   19.3660   -3.3643  -13.9743 S   0  0  0  0  0  0  0  0  0  0  0  0
   22.0202   -4.7205  -14.0096 C   0  0  0  0  0  0  0  0  0  0  0  0
   22.5222   -5.3973  -13.0821 O   0  0  0  0  0  0  0  0  0  0  0  0
   22.4737   -3.4264  -14.1519 O   0  0  0  0  0  0  0  0  0  0  0  0
  2  1  1  1
  2  3  1  0
  4  2  1  0
  5  4  2  0
  7  6  1  0
  8  7  1  6
  8  9  1  0
  9  4  1  0
 10  8  1  0
 10 12  1  0
 11 10  2  0
 13 14  1  1
 13 12  1  0
 13 16  1  0
 14 15  1  0
 16 18  1  0
 17 16  2  0
M  END
$$$$
