ASC.pdb
     RDKit          3D

 18 17  0  0  1  0  0  0  0  0999 V2000
   12.5151  -10.9008  -13.6114 C   0  0  0  0  0  0  0  0  0  0  0  0
   13.8777  -11.5375  -13.5477 C   0  0  2  0  0  0  0  0  0  0  0  0
   13.8224  -12.9463  -13.3012 N   0  0  0  0  0  0  0  0  0  0  0  0
   14.7164  -10.8756  -12.5271 C   0  0  0  0  0  0  0  0  0  0  0  0
   14.7311  -11.2567  -11.3192 O   0  0  0  0  0  0  0  0  0  0  0  0
   18.3601   -7.7076  -11.9301 O   0  0  0  0  0  0  0  0  0  0  0  0
   17.5185   -8.4528  -12.7135 C   0  0  0  0  0  0  0  0  0  0  0  0
   16.3875   -9.0899  -11.9435 C   0  0  2  0  0  0  0  0  0  0  0  0
   15.5282   -9.7860  -12.8999 N   0  0  0  0  0  0  0  0  0  0  0  0
   15.5683   -8.0999  -11.2129 C   0  0  0  0  0  0  0  0  0  0  0  0
   14.6785   -7.4403  -11.8048 O   0  0  0  0  0  0  0  0  0  0  0  0
   15.7859   -7.8911   -9.8351 N   0  0  0  0  0  0  0  0  0  0  0  0
   15.0412   -6.8782   -9.0695 C   0  0  1  0  0  0  0  0  0  0  0  0
   14.4116   -7.6411   -7.9053 C   0  0  0  0  0  0  0  0  0  0  0  0
   13.1488   -8.7481   -8.5355 S   0  0  0  0  0  0  0  0  0  0  0  0
   15.9528   -5.8187   -8.6150 C   0  0  0  0  0  0  0  0  0  0  0  0
   17.1841   -6.0490   -8.5834 O   0  0  0  0  0  0  0  0  0  0  0  0
   15.5434   -4.5652   -8.2131 O   0  0  0  0  0  0  0  0  0  0  0  0
  2  1  1  1
  2  3  1  0
  4  2  1  0
  5  4  2  0
  7  6  1  0
  8  7  1  6
  8  9  1  0
  9  4  1  0
 10  8  1  0
 10 12  1  0
 11 10  2  0
 13 14  1  1
 13 12  1  0
 13 16  1  0
 14 15  1  0
 16 18  1  0
 17 16  2  0
M  END
$$$$
