ASC.pdb
     RDKit          3D

 18 17  0  0  1  0  0  0  0  0999 V2000
   18.3834  -12.3324  -18.8775 C   0  0  0  0  0  0  0  0  0  0  0  0
   19.5752  -11.8393  -18.1013 C   0  0  2  0  0  0  0  0  0  0  0  0
   19.5967  -12.3166  -16.7522 N   0  0  0  0  0  0  0  0  0  0  0  0
   19.6358  -10.3631  -18.1191 C   0  0  0  0  0  0  0  0  0  0  0  0
   19.7603   -9.7087  -19.1965 O   0  0  0  0  0  0  0  0  0  0  0  0
   18.0864   -6.3835  -16.2571 O   0  0  0  0  0  0  0  0  0  0  0  0
   18.1732   -7.7325  -16.4804 C   0  0  0  0  0  0  0  0  0  0  0  0
   19.5617   -8.1919  -16.8533 C   0  0  2  0  0  0  0  0  0  0  0  0
   19.5534   -9.6530  -16.9049 N   0  0  0  0  0  0  0  0  0  0  0  0
   20.5841   -7.7641  -15.8753 C   0  0  0  0  0  0  0  0  0  0  0  0
   20.7495   -8.3944  -14.8017 O   0  0  0  0  0  0  0  0  0  0  0  0
   21.3849   -6.6355  -16.1477 N   0  0  0  0  0  0  0  0  0  0  0  0
   22.4447   -6.1873  -15.2297 C   0  0  1  0  0  0  0  0  0  0  0  0
   23.6199   -5.8114  -16.1304 C   0  0  0  0  0  0  0  0  0  0  0  0
   24.4164   -7.3061  -16.7211 S   0  0  0  0  0  0  0  0  0  0  0  0
   21.9699   -5.0510  -14.4276 C   0  0  0  0  0  0  0  0  0  0  0  0
   21.1384   -4.2590  -14.9289 O   0  0  0  0  0  0  0  0  0  0  0  0
   22.3811   -4.7883  -13.1382 O   0  0  0  0  0  0  0  0  0  0  0  0
  2  1  1  1
  2  3  1  0
  4  2  1  0
  5  4  2  0
  7  6  1  0
  8  7  1  1
  8  9  1  0
  9  4  1  0
 10  8  1  0
 10 12  1  0
 11 10  2  0
 13 14  1  6
 13 12  1  0
 13 16  1  0
 14 15  1  0
 16 18  1  0
 17 16  2  0
M  END
$$$$
