ASC.pdb
     RDKit          3D

 18 17  0  0  1  0  0  0  0  0999 V2000
   15.2392  -13.1070  -16.1485 C   0  0  0  0  0  0  0  0  0  0  0  0
   15.4877  -11.8311  -16.9077 C   0  0  2  0  0  0  0  0  0  0  0  0
   16.2228  -12.0381  -18.1181 N   0  0  0  0  0  0  0  0  0  0  0  0
   16.1801  -10.8426  -16.0554 C   0  0  0  0  0  0  0  0  0  0  0  0
   15.7173  -10.4820  -14.9328 O   0  0  0  0  0  0  0  0  0  0  0  0
   19.8130   -9.0827  -17.4208 O   0  0  0  0  0  0  0  0  0  0  0  0
   19.5368   -9.2707  -16.0921 C   0  0  0  0  0  0  0  0  0  0  0  0
   18.0641   -9.2024  -15.7688 C   0  0  2  0  0  0  0  0  0  0  0  0
   17.3934  -10.2782  -16.4969 N   0  0  0  0  0  0  0  0  0  0  0  0
   17.4535   -7.9165  -16.1669 C   0  0  0  0  0  0  0  0  0  0  0  0
   16.8983   -7.7882  -17.2860 O   0  0  0  0  0  0  0  0  0  0  0  0
   17.4932   -6.8188  -15.2821 N   0  0  0  0  0  0  0  0  0  0  0  0
   17.0049   -5.4846  -15.6672 C   0  0  1  0  0  0  0  0  0  0  0  0
   15.7046   -5.2954  -14.8881 C   0  0  0  0  0  0  0  0  0  0  0  0
   14.3942   -6.2241  -15.6867 S   0  0  0  0  0  0  0  0  0  0  0  0
   18.0091   -4.4646  -15.3341 C   0  0  0  0  0  0  0  0  0  0  0  0
   18.9234   -4.7529  -14.5272 O   0  0  0  0  0  0  0  0  0  0  0  0
   18.0183   -3.1883  -15.8552 O   0  0  0  0  0  0  0  0  0  0  0  0
  2  1  1  1
  2  3  1  0
  4  2  1  0
  5  4  2  0
  7  6  1  0
  8  7  1  6
  8  9  1  0
  9  4  1  0
 10  8  1  0
 10 12  1  0
 11 10  2  0
 13 14  1  1
 13 12  1  0
 13 16  1  0
 14 15  1  0
 16 18  1  0
 17 16  2  0
M  END
$$$$
