ASC.pdb
     RDKit          3D

 18 17  0  0  1  0  0  0  0  0999 V2000
   18.1596  -11.2168  -18.4099 C   0  0  0  0  0  0  0  0  0  0  0  0
   19.4607  -10.4603  -18.3783 C   0  0  2  0  0  0  0  0  0  0  0  0
   20.6040  -11.3156  -18.4770 N   0  0  0  0  0  0  0  0  0  0  0  0
   19.5519   -9.6285  -17.1606 C   0  0  0  0  0  0  0  0  0  0  0  0
   18.7002   -8.7290  -16.8960 O   0  0  0  0  0  0  0  0  0  0  0  0
   22.8966  -10.0989  -14.6104 O   0  0  0  0  0  0  0  0  0  0  0  0
   21.6628   -9.7951  -14.0979 C   0  0  0  0  0  0  0  0  0  0  0  0
   20.7872   -9.0245  -15.0556 C   0  0  2  0  0  0  0  0  0  0  0  0
   20.6157   -9.8351  -16.2602 N   0  0  0  0  0  0  0  0  0  0  0  0
   21.3762   -7.7260  -15.4455 C   0  0  0  0  0  0  0  0  0  0  0  0
   21.8609   -7.5589  -16.5919 O   0  0  0  0  0  0  0  0  0  0  0  0
   21.3958   -6.6603  -14.5218 N   0  0  0  0  0  0  0  0  0  0  0  0
   21.9807   -5.3501  -14.8502 C   0  0  1  0  0  0  0  0  0  0  0  0
   21.0736   -4.7683  -15.9329 C   0  0  0  0  0  0  0  0  0  0  0  0
   21.5142   -3.0529  -16.2171 S   0  0  0  0  0  0  0  0  0  0  0  0
   22.0300   -4.5045  -13.6491 C   0  0  0  0  0  0  0  0  0  0  0  0
   21.1608   -4.6607  -12.7602 O   0  0  0  0  0  0  0  0  0  0  0  0
   22.9820   -3.5329  -13.4251 O   0  0  0  0  0  0  0  0  0  0  0  0
  2  1  1  1
  2  3  1  0
  4  2  1  0
  5  4  2  0
  7  6  1  0
  8  7  1  1
  8  9  1  0
  9  4  1  0
 10  8  1  0
 10 12  1  0
 11 10  2  0
 13 14  1  6
 13 12  1  0
 13 16  1  0
 14 15  1  0
 16 18  1  0
 17 16  2  0
M  END
$$$$
