ASC.pdb
     RDKit          3D

 18 17  0  0  1  0  0  0  0  0999 V2000
   18.1622  -12.3027  -18.4704 C   0  0  0  0  0  0  0  0  0  0  0  0
   19.0091  -11.9850  -17.2671 C   0  0  2  0  0  0  0  0  0  0  0  0
   18.6036  -12.7018  -16.0966 N   0  0  0  0  0  0  0  0  0  0  0  0
   19.0107  -10.5321  -16.9982 C   0  0  0  0  0  0  0  0  0  0  0  0
   19.4220   -9.6913  -17.8517 O   0  0  0  0  0  0  0  0  0  0  0  0
   18.0108   -8.9970  -13.0874 O   0  0  0  0  0  0  0  0  0  0  0  0
   17.5988   -8.4287  -14.2640 C   0  0  0  0  0  0  0  0  0  0  0  0
   18.5650   -8.6395  -15.4042 C   0  0  2  0  0  0  0  0  0  0  0  0
   18.5420  -10.0582  -15.7569 N   0  0  0  0  0  0  0  0  0  0  0  0
   19.9514   -8.2677  -15.0509 C   0  0  0  0  0  0  0  0  0  0  0  0
   20.7945   -9.1472  -14.7466 O   0  0  0  0  0  0  0  0  0  0  0  0
   20.3349   -6.9105  -15.0545 N   0  0  0  0  0  0  0  0  0  0  0  0
   21.6631   -6.4709  -14.5968 C   0  0  1  0  0  0  0  0  0  0  0  0
   22.5156   -6.3933  -15.8621 C   0  0  0  0  0  0  0  0  0  0  0  0
   24.0854   -5.6177  -15.4729 S   0  0  0  0  0  0  0  0  0  0  0  0
   21.5574   -5.1737  -13.9141 C   0  0  0  0  0  0  0  0  0  0  0  0
   20.6858   -4.3572  -14.2929 O   0  0  0  0  0  0  0  0  0  0  0  0
   22.3637   -4.7825  -12.8665 O   0  0  0  0  0  0  0  0  0  0  0  0
  2  1  1  6
  2  3  1  0
  4  2  1  0
  5  4  2  0
  7  6  1  0
  8  7  1  1
  8  9  1  0
  9  4  1  0
 10  8  1  0
 10 12  1  0
 11 10  2  0
 13 14  1  6
 13 12  1  0
 13 16  1  0
 14 15  1  0
 16 18  1  0
 17 16  2  0
M  END
$$$$
