ASC.pdb
     RDKit          3D

 18 17  0  0  1  0  0  0  0  0999 V2000
   18.1519  -12.2379  -16.1445 C   0  0  0  0  0  0  0  0  0  0  0  0
   18.7002  -11.0099  -16.8211 C   0  0  2  0  0  0  0  0  0  0  0  0
   19.5276  -11.3181  -17.9475 N   0  0  0  0  0  0  0  0  0  0  0  0
   19.4440  -10.1713  -15.8585 C   0  0  0  0  0  0  0  0  0  0  0  0
   18.9412   -9.8098  -14.7535 O   0  0  0  0  0  0  0  0  0  0  0  0
   23.4534   -8.8477  -16.7340 O   0  0  0  0  0  0  0  0  0  0  0  0
   23.0070   -9.2544  -15.5042 C   0  0  0  0  0  0  0  0  0  0  0  0
   21.5517   -8.9387  -15.2584 C   0  0  2  0  0  0  0  0  0  0  0  0
   20.7537   -9.7560  -16.1709 N   0  0  0  0  0  0  0  0  0  0  0  0
   21.2295   -7.5165  -15.5008 C   0  0  0  0  0  0  0  0  0  0  0  0
   21.0837   -7.0812  -16.6697 O   0  0  0  0  0  0  0  0  0  0  0  0
   21.0835   -6.6356  -14.4091 N   0  0  0  0  0  0  0  0  0  0  0  0
   20.9004   -5.1865  -14.5913 C   0  0  1  0  0  0  0  0  0  0  0  0
   19.5033   -4.8896  -14.0495 C   0  0  0  0  0  0  0  0  0  0  0  0
   18.2800   -5.6698  -15.1043 S   0  0  0  0  0  0  0  0  0  0  0  0
   21.9476   -4.4510  -13.8685 C   0  0  0  0  0  0  0  0  0  0  0  0
   22.0028   -3.2044  -13.9817 O   0  0  0  0  0  0  0  0  0  0  0  0
   22.8923   -5.0451  -13.0589 O   0  0  0  0  0  0  0  0  0  0  0  0
  2  1  1  1
  2  3  1  0
  4  2  1  0
  5  4  2  0
  7  6  1  0
  8  7  1  6
  8  9  1  0
  9  4  1  0
 10  8  1  0
 10 12  1  0
 11 10  2  0
 13 14  1  1
 13 12  1  0
 13 16  1  0
 14 15  1  0
 16 18  1  0
 17 16  2  0
M  END
$$$$
