ASC.pdb
     RDKit          3D

 18 17  0  0  1  0  0  0  0  0999 V2000
   19.3494  -13.8410  -18.2396 C   0  0  0  0  0  0  0  0  0  0  0  0
   19.1565  -12.8875  -17.0908 C   0  0  2  0  0  0  0  0  0  0  0  0
   17.7777  -12.6671  -16.7764 N   0  0  0  0  0  0  0  0  0  0  0  0
   19.8278  -11.5996  -17.3626 C   0  0  0  0  0  0  0  0  0  0  0  0
   21.0861  -11.5089  -17.4773 O   0  0  0  0  0  0  0  0  0  0  0  0
   17.5002   -8.1295  -18.1475 O   0  0  0  0  0  0  0  0  0  0  0  0
   18.7577   -8.3414  -18.6484 C   0  0  0  0  0  0  0  0  0  0  0  0
   19.6544   -9.1160  -17.7137 C   0  0  2  0  0  0  0  0  0  0  0  0
   19.0526  -10.4311  -17.4998 N   0  0  0  0  0  0  0  0  0  0  0  0
   19.8139   -8.4554  -16.4010 C   0  0  0  0  0  0  0  0  0  0  0  0
   18.9851   -8.6517  -15.4782 O   0  0  0  0  0  0  0  0  0  0  0  0
   20.9084   -7.5940  -16.1789 N   0  0  0  0  0  0  0  0  0  0  0  0
   21.1310   -6.9283  -14.8851 C   0  0  1  0  0  0  0  0  0  0  0  0
   22.5698   -7.2707  -14.5025 C   0  0  0  0  0  0  0  0  0  0  0  0
   22.6202   -8.9207  -13.8008 S   0  0  0  0  0  0  0  0  0  0  0  0
   20.9184   -5.4803  -15.0198 C   0  0  0  0  0  0  0  0  0  0  0  0
   20.9177   -4.9704  -16.1644 O   0  0  0  0  0  0  0  0  0  0  0  0
   20.7158   -4.6256  -13.9573 O   0  0  0  0  0  0  0  0  0  0  0  0
  2  1  1  6
  2  3  1  0
  4  2  1  0
  5  4  2  0
  7  6  1  0
  8  7  1  6
  8  9  1  0
  9  4  1  0
 10  8  1  0
 10 12  1  0
 11 10  2  0
 13 14  1  6
 13 12  1  0
 13 16  1  0
 14 15  1  0
 16 18  1  0
 17 16  2  0
M  END
$$$$
