ASC.pdb
     RDKit          3D

 18 17  0  0  1  0  0  0  0  0999 V2000
   16.1382  -10.9326  -10.2549 C   0  0  0  0  0  0  0  0  0  0  0  0
   15.1437   -9.8039  -10.1993 C   0  0  2  0  0  0  0  0  0  0  0  0
   13.9210  -10.1059  -10.8792 N   0  0  0  0  0  0  0  0  0  0  0  0
   15.7327   -8.5617  -10.7406 C   0  0  0  0  0  0  0  0  0  0  0  0
   15.8206   -8.3467  -11.9859 O   0  0  0  0  0  0  0  0  0  0  0  0
   17.2370   -5.6528   -8.0455 O   0  0  0  0  0  0  0  0  0  0  0  0
   16.6679   -5.3009   -9.2412 C   0  0  0  0  0  0  0  0  0  0  0  0
   16.8395   -6.3439  -10.3186 C   0  0  2  0  0  0  0  0  0  0  0  0
   16.2141   -7.5801   -9.8517 N   0  0  0  0  0  0  0  0  0  0  0  0
   18.2597   -6.6227  -10.6192 C   0  0  0  0  0  0  0  0  0  0  0  0
   18.8909   -7.5010   -9.9810 O   0  0  0  0  0  0  0  0  0  0  0  0
   18.9166   -5.8957  -11.6337 N   0  0  0  0  0  0  0  0  0  0  0  0
   20.3032   -6.1866  -12.0330 C   0  0  1  0  0  0  0  0  0  0  0  0
   20.2551   -7.5809  -12.6553 C   0  0  0  0  0  0  0  0  0  0  0  0
   21.8779   -8.0022  -13.2928 S   0  0  0  0  0  0  0  0  0  0  0  0
   20.7794   -5.1685  -12.9799 C   0  0  0  0  0  0  0  0  0  0  0  0
   19.9747   -4.6891  -13.8121 O   0  0  0  0  0  0  0  0  0  0  0  0
   22.0729   -4.6933  -13.0196 O   0  0  0  0  0  0  0  0  0  0  0  0
  2  1  1  6
  2  3  1  0
  4  2  1  0
  5  4  2  0
  7  6  1  0
  8  7  1  1
  8  9  1  0
  9  4  1  0
 10  8  1  0
 10 12  1  0
 11 10  2  0
 13 14  1  6
 13 12  1  0
 13 16  1  0
 14 15  1  0
 16 18  1  0
 17 16  2  0
M  END
$$$$
