ASC.pdb
     RDKit          3D

 18 17  0  0  1  0  0  0  0  0999 V2000
   16.3658  -11.1609  -16.7695 C   0  0  0  0  0  0  0  0  0  0  0  0
   17.8517  -10.9352  -16.6839 C   0  0  2  0  0  0  0  0  0  0  0  0
   18.5541  -12.0566  -16.1386 N   0  0  0  0  0  0  0  0  0  0  0  0
   18.1509   -9.7185  -15.9009 C   0  0  0  0  0  0  0  0  0  0  0  0
   17.6856   -8.5839  -16.2183 O   0  0  0  0  0  0  0  0  0  0  0  0
   20.0833   -8.1424  -11.7197 O   0  0  0  0  0  0  0  0  0  0  0  0
   19.7150   -9.1456  -12.5771 C   0  0  0  0  0  0  0  0  0  0  0  0
   19.3169   -8.6503  -13.9462 C   0  0  2  0  0  0  0  0  0  0  0  0
   18.9786   -9.8136  -14.7646 N   0  0  0  0  0  0  0  0  0  0  0  0
   20.4017   -7.9047  -14.6187 C   0  0  0  0  0  0  0  0  0  0  0  0
   21.2390   -8.5005  -15.3404 O   0  0  0  0  0  0  0  0  0  0  0  0
   20.5003   -6.5079  -14.4501 N   0  0  0  0  0  0  0  0  0  0  0  0
   21.5585   -5.7140  -15.0957 C   0  0  1  0  0  0  0  0  0  0  0  0
   20.9240   -5.1675  -16.3733 C   0  0  0  0  0  0  0  0  0  0  0  0
   22.0537   -4.0095  -17.1481 S   0  0  0  0  0  0  0  0  0  0  0  0
   22.0079   -4.6443  -14.1935 C   0  0  0  0  0  0  0  0  0  0  0  0
   21.1840   -4.1325  -13.4003 O   0  0  0  0  0  0  0  0  0  0  0  0
   23.2957   -4.1536  -14.1560 O   0  0  0  0  0  0  0  0  0  0  0  0
  2  1  1  1
  2  3  1  0
  4  2  1  0
  5  4  2  0
  7  6  1  0
  8  7  1  1
  8  9  1  0
  9  4  1  0
 10  8  1  0
 10 12  1  0
 11 10  2  0
 13 14  1  6
 13 12  1  0
 13 16  1  0
 14 15  1  0
 16 18  1  0
 17 16  2  0
M  END
$$$$
