ASC.pdb
     RDKit          3D

 18 17  0  0  1  0  0  0  0  0999 V2000
   14.4776   -7.6581   -8.5038 C   0  0  0  0  0  0  0  0  0  0  0  0
   14.4856   -8.6707   -9.6177 C   0  0  2  0  0  0  0  0  0  0  0  0
   13.9543   -9.9389   -9.2205 N   0  0  0  0  0  0  0  0  0  0  0  0
   15.8493   -8.8388  -10.1611 C   0  0  0  0  0  0  0  0  0  0  0  0
   16.7276   -9.5335   -9.5691 O   0  0  0  0  0  0  0  0  0  0  0  0
   18.4376   -9.0347  -14.1245 O   0  0  0  0  0  0  0  0  0  0  0  0
   17.2782   -8.8790  -13.4111 C   0  0  0  0  0  0  0  0  0  0  0  0
   17.5011   -8.3867  -12.0019 C   0  0  2  0  0  0  0  0  0  0  0  0
   16.1924   -8.2104  -11.3747 N   0  0  0  0  0  0  0  0  0  0  0  0
   18.2189   -7.0952  -11.9576 C   0  0  0  0  0  0  0  0  0  0  0  0
   17.6207   -6.0191  -12.2044 O   0  0  0  0  0  0  0  0  0  0  0  0
   19.5916   -7.0678  -11.6347 N   0  0  0  0  0  0  0  0  0  0  0  0
   20.3949   -5.8383  -11.7339 C   0  0  1  0  0  0  0  0  0  0  0  0
   21.0801   -5.6987  -10.3757 C   0  0  0  0  0  0  0  0  0  0  0  0
   19.9127   -5.0324   -9.1881 S   0  0  0  0  0  0  0  0  0  0  0  0
   21.3593   -5.9536  -12.8369 C   0  0  0  0  0  0  0  0  0  0  0  0
   21.5029   -7.0612  -13.4049 O   0  0  0  0  0  0  0  0  0  0  0  0
   22.1327   -4.9109  -13.3009 O   0  0  0  0  0  0  0  0  0  0  0  0
  2  1  1  1
  2  3  1  0
  4  2  1  0
  5  4  2  0
  7  6  1  0
  8  7  1  6
  8  9  1  0
  9  4  1  0
 10  8  1  0
 10 12  1  0
 11 10  2  0
 13 14  1  1
 13 12  1  0
 13 16  1  0
 14 15  1  0
 16 18  1  0
 17 16  2  0
M  END
$$$$
