ASC.pdb
     RDKit          3D

 18 17  0  0  1  0  0  0  0  0999 V2000
   24.1941  -11.9423  -15.1070 C   0  0  0  0  0  0  0  0  0  0  0  0
   23.1587  -11.9417  -16.1997 C   0  0  2  0  0  0  0  0  0  0  0  0
   23.6383  -12.5141  -17.4207 N   0  0  0  0  0  0  0  0  0  0  0  0
   22.6564  -10.5736  -16.4427 C   0  0  0  0  0  0  0  0  0  0  0  0
   23.2508   -9.7674  -17.2180 O   0  0  0  0  0  0  0  0  0  0  0  0
   19.3144   -9.1245  -14.2476 O   0  0  0  0  0  0  0  0  0  0  0  0
   19.4480   -8.8791  -15.5889 C   0  0  0  0  0  0  0  0  0  0  0  0
   20.8840   -8.8337  -16.0515 C   0  0  2  0  0  0  0  0  0  0  0  0
   21.4805  -10.1438  -15.7961 N   0  0  0  0  0  0  0  0  0  0  0  0
   21.6788   -7.8109  -15.3394 C   0  0  0  0  0  0  0  0  0  0  0  0
   22.2932   -8.0963  -14.2820 O   0  0  0  0  0  0  0  0  0  0  0  0
   21.7501   -6.4984  -15.8506 N   0  0  0  0  0  0  0  0  0  0  0  0
   22.5815   -5.4579  -15.2237 C   0  0  1  0  0  0  0  0  0  0  0  0
   23.1603   -4.6548  -16.3871 C   0  0  0  0  0  0  0  0  0  0  0  0
   24.1228   -3.2857  -15.7419 S   0  0  0  0  0  0  0  0  0  0  0  0
   21.7624   -4.6305  -14.3267 C   0  0  0  0  0  0  0  0  0  0  0  0
   20.5649   -4.4139  -14.6248 O   0  0  0  0  0  0  0  0  0  0  0  0
   22.2254   -4.0644  -13.1581 O   0  0  0  0  0  0  0  0  0  0  0  0
  2  1  1  1
  2  3  1  0
  4  2  1  0
  5  4  2  0
  7  6  1  0
  8  7  1  1
  8  9  1  0
  9  4  1  0
 10  8  1  0
 10 12  1  0
 11 10  2  0
 13 14  1  6
 13 12  1  0
 13 16  1  0
 14 15  1  0
 16 18  1  0
 17 16  2  0
M  END
$$$$
