ACT.pdb
     RDKit          3D

 19 18  0  0  1  0  0  0  0  0999 V2000
   28.0752  -20.9996  -16.6573 C   0  0  0  0  0  0  0  0  0  0  0  0
   27.4160  -20.1116  -15.6324 C   0  0  2  0  0  0  0  0  0  0  0  0
   27.0012  -20.8671  -14.4850 N   0  0  0  0  0  0  0  0  0  0  0  0
   26.2925  -19.3338  -16.1916 C   0  0  0  0  0  0  0  0  0  0  0  0
   26.5123  -18.6251  -17.2054 O   0  0  0  0  0  0  0  0  0  0  0  0
   24.9968  -19.3409  -15.6572 N   0  0  0  0  0  0  0  0  0  0  0  0
   23.8606  -18.6567  -16.1820 C   0  0  1  0  0  0  0  0  0  0  0  0
   22.6019  -19.4800  -16.1954 C   0  0  0  0  0  0  0  0  0  0  0  0
   22.6581  -20.6550  -14.8143 S   0  0  0  0  0  0  0  0  0  0  0  0
   23.6219  -17.3583  -15.4725 C   0  0  0  0  0  0  0  0  0  0  0  0
   23.4272  -17.3205  -14.2495 O   0  0  0  0  0  0  0  0  0  0  0  0
   25.5497  -14.6573  -14.4376 C   0  0  0  0  0  0  0  0  0  0  0  0
   24.5995  -13.9931  -15.4076 C   0  0  1  0  0  0  0  0  0  0  0  0
   25.2234  -13.9840  -16.6632 O   0  0  0  0  0  0  0  0  0  0  0  0
   23.3780  -14.8603  -15.5274 C   0  0  2  0  0  0  0  0  0  0  0  0
   23.6092  -16.1104  -16.1778 N   0  0  0  0  0  0  0  0  0  0  0  0
   22.3516  -14.0952  -16.2897 C   0  0  0  0  0  0  0  0  0  0  0  0
   21.9971  -14.4633  -17.4404 O   0  0  0  0  0  0  0  0  0  0  0  0
   21.7411  -12.9528  -15.7786 O   0  0  0  0  0  0  0  0  0  0  0  0
  2  1  1  6
  2  3  1  0
  4  5  2  0
  4  2  1  0
  6  4  1  0
  7  6  1  0
  7  8  1  1
  9  8  1  0
 10 11  2  0
 10  7  1  0
 13 12  1  1
 13 14  1  0
 15 13  1  0
 15 16  1  6
 16 10  1  0
 17 15  1  0
 18 17  2  0
 19 17  1  0
M  END
$$$$
