ACT.pdb
     RDKit          3D

 19 18  0  0  1  0  0  0  0  0999 V2000
   15.8078   -9.5846  -16.7213 C   0  0  0  0  0  0  0  0  0  0  0  0
   17.2506   -9.9991  -16.8623 C   0  0  2  0  0  0  0  0  0  0  0  0
   17.3773  -11.4285  -16.8852 N   0  0  0  0  0  0  0  0  0  0  0  0
   18.1173   -9.4050  -15.8251 C   0  0  0  0  0  0  0  0  0  0  0  0
   17.5717   -8.7345  -14.9135 O   0  0  0  0  0  0  0  0  0  0  0  0
   19.5115   -9.5459  -15.7992 N   0  0  0  0  0  0  0  0  0  0  0  0
   20.4072   -8.9374  -14.8708 C   0  0  1  0  0  0  0  0  0  0  0  0
   21.5783   -9.8020  -14.4925 C   0  0  0  0  0  0  0  0  0  0  0  0
   22.6546   -8.8683  -13.3696 S   0  0  0  0  0  0  0  0  0  0  0  0
   20.8852   -7.6033  -15.3587 C   0  0  0  0  0  0  0  0  0  0  0  0
   21.4231   -7.4797  -16.4679 O   0  0  0  0  0  0  0  0  0  0  0  0
   20.8677   -2.7579  -15.3483 C   0  0  0  0  0  0  0  0  0  0  0  0
   20.2231   -4.0294  -14.8454 C   0  0  1  0  0  0  0  0  0  0  0  0
   19.1532   -4.3226  -15.7029 O   0  0  0  0  0  0  0  0  0  0  0  0
   21.2219   -5.1432  -14.9880 C   0  0  2  0  0  0  0  0  0  0  0  0
   20.7402   -6.4190  -14.5640 N   0  0  0  0  0  0  0  0  0  0  0  0
   22.4223   -4.7818  -14.1828 C   0  0  0  0  0  0  0  0  0  0  0  0
   22.4444   -4.9727  -12.9385 O   0  0  0  0  0  0  0  0  0  0  0  0
   23.5629   -4.2236  -14.7541 O   0  0  0  0  0  0  0  0  0  0  0  0
  2  1  1  1
  2  3  1  0
  4  5  2  0
  4  2  1  0
  6  4  1  0
  7  6  1  0
  7  8  1  6
  9  8  1  0
 10 11  2  0
 10  7  1  0
 13 12  1  6
 13 14  1  0
 15 13  1  0
 15 16  1  1
 16 10  1  0
 17 15  1  0
 18 17  2  0
 19 17  1  0
M  END
$$$$
