ACT.pdb
     RDKit          3D

 19 18  0  0  1  0  0  0  0  0999 V2000
   23.4910  -13.4374  -20.2736 C   0  0  0  0  0  0  0  0  0  0  0  0
   24.0217  -13.9246  -18.9490 C   0  0  2  0  0  0  0  0  0  0  0  0
   23.2819  -15.0629  -18.4836 N   0  0  0  0  0  0  0  0  0  0  0  0
   24.0607  -12.8611  -17.9256 C   0  0  0  0  0  0  0  0  0  0  0  0
   23.0242  -12.6588  -17.2452 O   0  0  0  0  0  0  0  0  0  0  0  0
   25.1860  -12.0655  -17.6702 N   0  0  0  0  0  0  0  0  0  0  0  0
   25.2459  -10.9384  -16.7981 C   0  0  1  0  0  0  0  0  0  0  0  0
   26.5910  -10.7295  -16.1584 C   0  0  0  0  0  0  0  0  0  0  0  0
   26.4653   -9.3682  -14.9658 S   0  0  0  0  0  0  0  0  0  0  0  0
   24.7999   -9.6838  -17.4863 C   0  0  0  0  0  0  0  0  0  0  0  0
   25.3083   -9.3226  -18.5568 O   0  0  0  0  0  0  0  0  0  0  0  0
   21.6503   -5.9273  -17.9193 C   0  0  0  0  0  0  0  0  0  0  0  0
   22.0094   -7.1401  -17.0915 C   0  0  1  0  0  0  0  0  0  0  0  0
   21.0767   -8.1425  -17.3931 O   0  0  0  0  0  0  0  0  0  0  0  0
   23.3526   -7.6335  -17.5508 C   0  0  2  0  0  0  0  0  0  0  0  0
   23.7697   -8.8529  -16.9355 N   0  0  0  0  0  0  0  0  0  0  0  0
   24.3524   -6.5694  -17.2540 C   0  0  0  0  0  0  0  0  0  0  0  0
   24.8083   -6.4208  -16.0899 O   0  0  0  0  0  0  0  0  0  0  0  0
   24.8269   -5.6985  -18.2314 O   0  0  0  0  0  0  0  0  0  0  0  0
  2  1  1  6
  2  3  1  0
  4  5  2  0
  4  2  1  0
  6  4  1  0
  7  6  1  0
  7  8  1  6
  9  8  1  0
 10 11  2  0
 10  7  1  0
 13 12  1  6
 13 14  1  0
 15 13  1  0
 15 16  1  1
 16 10  1  0
 17 15  1  0
 18 17  2  0
 19 17  1  0
M  END
$$$$
