ACT.pdb
     RDKit          3D

 19 18  0  0  1  0  0  0  0  0999 V2000
   19.9773  -11.7012  -19.2418 C   0  0  0  0  0  0  0  0  0  0  0  0
   21.0433  -10.6516  -19.0532 C   0  0  2  0  0  0  0  0  0  0  0  0
   22.3394  -11.1651  -19.3940 N   0  0  0  0  0  0  0  0  0  0  0  0
   21.0403  -10.0752  -17.6939 C   0  0  0  0  0  0  0  0  0  0  0  0
   19.9603   -9.6083  -17.2535 O   0  0  0  0  0  0  0  0  0  0  0  0
   22.1713  -10.0190  -16.8680 N   0  0  0  0  0  0  0  0  0  0  0  0
   22.2394   -9.4475  -15.5630 C   0  0  1  0  0  0  0  0  0  0  0  0
   23.2419  -10.1076  -14.6566 C   0  0  0  0  0  0  0  0  0  0  0  0
   22.5298  -11.6520  -14.0250 S   0  0  0  0  0  0  0  0  0  0  0  0
   22.4869   -7.9704  -15.6196 C   0  0  0  0  0  0  0  0  0  0  0  0
   23.3678   -7.4939  -16.3490 O   0  0  0  0  0  0  0  0  0  0  0  0
   20.1729   -5.3934  -16.7397 C   0  0  0  0  0  0  0  0  0  0  0  0
   20.5538   -4.9437  -15.3477 C   0  0  1  0  0  0  0  0  0  0  0  0
   19.5620   -5.4089  -14.4726 O   0  0  0  0  0  0  0  0  0  0  0  0
   21.8344   -5.6344  -14.9715 C   0  0  2  0  0  0  0  0  0  0  0  0
   21.7168   -7.0510  -14.8344 N   0  0  0  0  0  0  0  0  0  0  0  0
   22.2996   -5.0553  -13.6800 C   0  0  0  0  0  0  0  0  0  0  0  0
   22.3805   -5.7693  -12.6461 O   0  0  0  0  0  0  0  0  0  0  0  0
   22.6631   -3.7174  -13.5506 O   0  0  0  0  0  0  0  0  0  0  0  0
  2  1  1  1
  2  3  1  0
  4  5  2  0
  4  2  1  0
  6  4  1  0
  7  6  1  0
  7  8  1  1
  9  8  1  0
 10 11  2  0
 10  7  1  0
 13 12  1  6
 13 14  1  0
 15 13  1  0
 15 16  1  1
 16 10  1  0
 17 15  1  0
 18 17  2  0
 19 17  1  0
M  END
$$$$
