ACT.pdb
     RDKit          3D

 19 18  0  0  1  0  0  0  0  0999 V2000
   16.4126  -10.9501  -16.6533 C   0  0  0  0  0  0  0  0  0  0  0  0
   17.3719   -9.8830  -17.1165 C   0  0  2  0  0  0  0  0  0  0  0  0
   18.0886  -10.3054  -18.2859 N   0  0  0  0  0  0  0  0  0  0  0  0
   18.2989   -9.4501  -16.0520 C   0  0  0  0  0  0  0  0  0  0  0  0
   17.8061   -9.0296  -14.9756 O   0  0  0  0  0  0  0  0  0  0  0  0
   19.6949   -9.4814  -16.1733 N   0  0  0  0  0  0  0  0  0  0  0  0
   20.6399   -9.0653  -15.1893 C   0  0  1  0  0  0  0  0  0  0  0  0
   21.8049  -10.0022  -15.0238 C   0  0  0  0  0  0  0  0  0  0  0  0
   23.0089   -9.2435  -13.8987 S   0  0  0  0  0  0  0  0  0  0  0  0
   21.1289   -7.6724  -15.4481 C   0  0  0  0  0  0  0  0  0  0  0  0
   21.7786   -7.3982  -16.4667 O   0  0  0  0  0  0  0  0  0  0  0  0
   19.4828   -4.5908  -16.1871 C   0  0  0  0  0  0  0  0  0  0  0  0
   20.2327   -4.2567  -14.9178 C   0  0  1  0  0  0  0  0  0  0  0  0
   19.3420   -4.4290  -13.8489 O   0  0  0  0  0  0  0  0  0  0  0  0
   21.3293   -5.2701  -14.7470 C   0  0  2  0  0  0  0  0  0  0  0  0
   20.8656   -6.6032  -14.5301 N   0  0  0  0  0  0  0  0  0  0  0  0
   22.1610   -4.8469  -13.5854 C   0  0  0  0  0  0  0  0  0  0  0  0
   22.2400   -5.5652  -12.5544 O   0  0  0  0  0  0  0  0  0  0  0  0
   22.8819   -3.6557  -13.5791 O   0  0  0  0  0  0  0  0  0  0  0  0
  2  1  1  1
  2  3  1  0
  4  5  2  0
  4  2  1  0
  6  4  1  0
  7  6  1  0
  7  8  1  6
  9  8  1  0
 10 11  2  0
 10  7  1  0
 13 12  1  6
 13 14  1  0
 15 13  1  0
 15 16  1  1
 16 10  1  0
 17 15  1  0
 18 17  2  0
 19 17  1  0
M  END
$$$$
