ACT.pdb
     RDKit          3D

 19 18  0  0  1  0  0  0  0  0999 V2000
   19.8603  -10.5226  -19.3770 C   0  0  0  0  0  0  0  0  0  0  0  0
   21.1331  -11.0715  -18.7836 C   0  0  2  0  0  0  0  0  0  0  0  0
   21.0252  -12.4826  -18.5452 N   0  0  0  0  0  0  0  0  0  0  0  0
   21.5456  -10.3555  -17.5600 C   0  0  0  0  0  0  0  0  0  0  0  0
   20.7446  -10.3312  -16.5924 O   0  0  0  0  0  0  0  0  0  0  0  0
   22.7773   -9.7025  -17.4162 N   0  0  0  0  0  0  0  0  0  0  0  0
   23.2300   -8.9922  -16.2651 C   0  0  1  0  0  0  0  0  0  0  0  0
   24.6648   -9.2624  -15.9034 C   0  0  0  0  0  0  0  0  0  0  0  0
   24.7960  -10.9532  -15.2591 S   0  0  0  0  0  0  0  0  0  0  0  0
   22.9995   -7.5175  -16.4007 C   0  0  0  0  0  0  0  0  0  0  0  0
   23.4753   -6.8771  -17.3486 O   0  0  0  0  0  0  0  0  0  0  0  0
   20.0126   -5.7017  -17.0956 C   0  0  0  0  0  0  0  0  0  0  0  0
   20.4459   -5.1171  -15.7707 C   0  0  1  0  0  0  0  0  0  0  0  0
   19.7648   -5.8153  -14.7635 O   0  0  0  0  0  0  0  0  0  0  0  0
   21.9106   -5.4041  -15.5943 C   0  0  2  0  0  0  0  0  0  0  0  0
   22.2213   -6.7895  -15.4418 N   0  0  0  0  0  0  0  0  0  0  0  0
   22.3758   -4.6632  -14.3882 C   0  0  0  0  0  0  0  0  0  0  0  0
   22.7717   -5.2818  -13.3655 O   0  0  0  0  0  0  0  0  0  0  0  0
   22.3969   -3.2722  -14.3295 O   0  0  0  0  0  0  0  0  0  0  0  0
  2  1  1  1
  2  3  1  0
  4  5  2  0
  4  2  1  0
  6  4  1  0
  7  6  1  0
  7  8  1  6
  9  8  1  0
 10 11  2  0
 10  7  1  0
 13 12  1  6
 13 14  1  0
 15 13  1  0
 15 16  1  1
 16 10  1  0
 17 15  1  0
 18 17  2  0
 19 17  1  0
M  END
$$$$
