ACT.pdb
     RDKit          3D

 19 18  0  0  1  0  0  0  0  0999 V2000
   20.7568  -11.1653  -20.4230 C   0  0  0  0  0  0  0  0  0  0  0  0
   22.1461  -10.9578  -19.8750 C   0  0  2  0  0  0  0  0  0  0  0  0
   22.9364  -12.1484  -20.0070 N   0  0  0  0  0  0  0  0  0  0  0  0
   22.1413  -10.4747  -18.4798 C   0  0  0  0  0  0  0  0  0  0  0  0
   21.0302  -10.2812  -17.9263 O   0  0  0  0  0  0  0  0  0  0  0  0
   23.3033  -10.2199  -17.7387 N   0  0  0  0  0  0  0  0  0  0  0  0
   23.3639   -9.7300  -16.4005 C   0  0  1  0  0  0  0  0  0  0  0  0
   24.4790  -10.3202  -15.5818 C   0  0  0  0  0  0  0  0  0  0  0  0
   24.0925  -12.0588  -15.2363 S   0  0  0  0  0  0  0  0  0  0  0  0
   23.4311   -8.2332  -16.3634 C   0  0  0  0  0  0  0  0  0  0  0  0
   23.9411   -7.5896  -17.2910 O   0  0  0  0  0  0  0  0  0  0  0  0
   20.3406   -6.3258  -15.9697 C   0  0  0  0  0  0  0  0  0  0  0  0
   21.6514   -5.6680  -16.3359 C   0  0  1  0  0  0  0  0  0  0  0  0
   21.4742   -4.2832  -16.2066 O   0  0  0  0  0  0  0  0  0  0  0  0
   22.6769   -6.0793  -15.3171 C   0  0  2  0  0  0  0  0  0  0  0  0
   22.9094   -7.4870  -15.2561 N   0  0  0  0  0  0  0  0  0  0  0  0
   22.2092   -5.6030  -13.9850 C   0  0  0  0  0  0  0  0  0  0  0  0
   21.8455   -6.4212  -13.0999 O   0  0  0  0  0  0  0  0  0  0  0  0
   22.1508   -4.2516  -13.6547 O   0  0  0  0  0  0  0  0  0  0  0  0
  2  1  1  1
  2  3  1  0
  4  5  2  0
  4  2  1  0
  6  4  1  0
  7  6  1  0
  7  8  1  6
  9  8  1  0
 10 11  2  0
 10  7  1  0
 13 12  1  1
 13 14  1  0
 15 13  1  0
 15 16  1  1
 16 10  1  0
 17 15  1  0
 18 17  2  0
 19 17  1  0
M  END
$$$$
