ACT.pdb
     RDKit          3D

 19 18  0  0  1  0  0  0  0  0999 V2000
   19.2300   -8.6437  -19.3841 C   0  0  0  0  0  0  0  0  0  0  0  0
   20.1399   -8.8340  -18.1970 C   0  0  2  0  0  0  0  0  0  0  0  0
   20.0263  -10.1628  -17.6671 N   0  0  0  0  0  0  0  0  0  0  0  0
   19.9218   -7.8214  -17.1448 C   0  0  0  0  0  0  0  0  0  0  0  0
   18.7455   -7.6248  -16.7500 O   0  0  0  0  0  0  0  0  0  0  0  0
   20.9502   -7.0682  -16.5621 N   0  0  0  0  0  0  0  0  0  0  0  0
   20.8183   -6.1510  -15.4778 C   0  0  1  0  0  0  0  0  0  0  0  0
   21.8756   -6.2987  -14.4183 C   0  0  0  0  0  0  0  0  0  0  0  0
   21.5513   -7.8155  -13.4773 S   0  0  0  0  0  0  0  0  0  0  0  0
   20.7621   -4.7326  -15.9585 C   0  0  0  0  0  0  0  0  0  0  0  0
   21.6726   -4.2508  -16.6468 O   0  0  0  0  0  0  0  0  0  0  0  0
   17.9653   -3.1384  -17.9831 C   0  0  0  0  0  0  0  0  0  0  0  0
   18.1525   -2.2776  -16.7547 C   0  0  1  0  0  0  0  0  0  0  0  0
   17.2135   -2.6990  -15.8025 O   0  0  0  0  0  0  0  0  0  0  0  0
   19.5149   -2.5661  -16.1897 C   0  0  2  0  0  0  0  0  0  0  0  0
   19.6557   -3.8776  -15.6425 N   0  0  0  0  0  0  0  0  0  0  0  0
   19.7864   -1.5603  -15.1245 C   0  0  0  0  0  0  0  0  0  0  0  0
   19.8654   -1.9069  -13.9167 O   0  0  0  0  0  0  0  0  0  0  0  0
   19.9641   -0.2078  -15.4039 O   0  0  0  0  0  0  0  0  0  0  0  0
  2  1  1  6
  2  3  1  0
  4  5  2  0
  4  2  1  0
  6  4  1  0
  7  6  1  0
  7  8  1  1
  9  8  1  0
 10 11  2  0
 10  7  1  0
 13 12  1  6
 13 14  1  0
 15 13  1  0
 15 16  1  1
 16 10  1  0
 17 15  1  0
 18 17  2  0
 19 17  1  0
M  END
$$$$
