ACT.pdb
     RDKit          3D

 19 18  0  0  1  0  0  0  0  0999 V2000
   22.4922  -15.3579  -19.7844 C   0  0  0  0  0  0  0  0  0  0  0  0
   23.2135  -15.0327  -18.5009 C   0  0  2  0  0  0  0  0  0  0  0  0
   23.5106  -16.2248  -17.7592 N   0  0  0  0  0  0  0  0  0  0  0  0
   22.4819  -14.0570  -17.6685 C   0  0  0  0  0  0  0  0  0  0  0  0
   21.2747  -13.8384  -17.9392 O   0  0  0  0  0  0  0  0  0  0  0  0
   23.0560  -13.3619  -16.5954 N   0  0  0  0  0  0  0  0  0  0  0  0
   22.3801  -12.4860  -15.6951 C   0  0  1  0  0  0  0  0  0  0  0  0
   22.6804  -12.7472  -14.2447 C   0  0  0  0  0  0  0  0  0  0  0  0
   21.9495  -14.3397  -13.7748 S   0  0  0  0  0  0  0  0  0  0  0  0
   22.6390  -11.0473  -16.0262 C   0  0  0  0  0  0  0  0  0  0  0  0
   23.7720  -10.6529  -16.3355 O   0  0  0  0  0  0  0  0  0  0  0  0
   21.0282   -6.7571  -17.6524 C   0  0  0  0  0  0  0  0  0  0  0  0
   20.6762   -8.1793  -17.2803 C   0  0  1  0  0  0  0  0  0  0  0  0
   20.6700   -8.9312  -18.4638 O   0  0  0  0  0  0  0  0  0  0  0  0
   21.7824   -8.7204  -16.4188 C   0  0  2  0  0  0  0  0  0  0  0  0
   21.5893  -10.0715  -15.9985 N   0  0  0  0  0  0  0  0  0  0  0  0
   21.8908   -7.8456  -15.2175 C   0  0  0  0  0  0  0  0  0  0  0  0
   21.2224   -8.0918  -14.1793 O   0  0  0  0  0  0  0  0  0  0  0  0
   22.7224   -6.7294  -15.1805 O   0  0  0  0  0  0  0  0  0  0  0  0
  2  1  1  6
  2  3  1  0
  4  5  2  0
  4  2  1  0
  6  4  1  0
  7  6  1  0
  7  8  1  1
  9  8  1  0
 10 11  2  0
 10  7  1  0
 13 12  1  6
 13 14  1  0
 15 13  1  0
 15 16  1  1
 16 10  1  0
 17 15  1  0
 18 17  2  0
 19 17  1  0
M  END
$$$$
