ACT.pdb
     RDKit          3D

 19 18  0  0  1  0  0  0  0  0999 V2000
   19.3842  -11.3712  -19.7041 C   0  0  0  0  0  0  0  0  0  0  0  0
   20.5544  -10.4630  -19.4225 C   0  0  2  0  0  0  0  0  0  0  0  0
   21.7926  -11.0857  -19.7950 N   0  0  0  0  0  0  0  0  0  0  0  0
   20.5919  -10.0011  -18.0207 C   0  0  0  0  0  0  0  0  0  0  0  0
   19.6002   -9.3671  -17.5817 O   0  0  0  0  0  0  0  0  0  0  0  0
   21.6688  -10.2291  -17.1530 N   0  0  0  0  0  0  0  0  0  0  0  0
   21.8137   -9.7159  -15.8301 C   0  0  1  0  0  0  0  0  0  0  0  0
   22.6813  -10.5598  -14.9372 C   0  0  0  0  0  0  0  0  0  0  0  0
   22.7600   -9.7855  -13.2985 S   0  0  0  0  0  0  0  0  0  0  0  0
   22.3032   -8.2994  -15.8384 C   0  0  0  0  0  0  0  0  0  0  0  0
   23.3818   -7.9952  -16.3666 O   0  0  0  0  0  0  0  0  0  0  0  0
   19.7055   -4.9592  -15.1884 C   0  0  0  0  0  0  0  0  0  0  0  0
   20.9984   -4.9571  -15.9718 C   0  0  1  0  0  0  0  0  0  0  0  0
   21.5323   -3.6631  -15.8930 O   0  0  0  0  0  0  0  0  0  0  0  0
   21.9630   -5.8763  -15.2766 C   0  0  2  0  0  0  0  0  0  0  0  0
   21.5455   -7.2414  -15.2370 N   0  0  0  0  0  0  0  0  0  0  0  0
   22.1397   -5.3786  -13.8834 C   0  0  0  0  0  0  0  0  0  0  0  0
   21.7574   -6.0665  -12.9006 O   0  0  0  0  0  0  0  0  0  0  0  0
   22.7267   -4.1482  -13.5999 O   0  0  0  0  0  0  0  0  0  0  0  0
  2  1  1  1
  2  3  1  0
  4  5  2  0
  4  2  1  0
  6  4  1  0
  7  6  1  0
  7  8  1  1
  9  8  1  0
 10 11  2  0
 10  7  1  0
 13 12  1  1
 13 14  1  0
 15 13  1  0
 15 16  1  1
 16 10  1  0
 17 15  1  0
 18 17  2  0
 19 17  1  0
M  END
$$$$
