ACT.pdb
     RDKit          3D

 19 18  0  0  1  0  0  0  0  0999 V2000
   13.1645  -11.5391  -10.9983 C   0  0  0  0  0  0  0  0  0  0  0  0
   13.8094  -10.9071   -9.7907 C   0  0  2  0  0  0  0  0  0  0  0  0
   12.9608  -11.0115   -8.6381 N   0  0  0  0  0  0  0  0  0  0  0  0
   14.2134   -9.5070  -10.0287 C   0  0  0  0  0  0  0  0  0  0  0  0
   13.7517   -8.9237  -11.0410 O   0  0  0  0  0  0  0  0  0  0  0  0
   15.0810   -8.7925   -9.1913 N   0  0  0  0  0  0  0  0  0  0  0  0
   15.3732   -7.3985   -9.2660 C   0  0  1  0  0  0  0  0  0  0  0  0
   15.4284   -6.7114   -7.9292 C   0  0  0  0  0  0  0  0  0  0  0  0
   13.7746   -6.7496   -7.1844 S   0  0  0  0  0  0  0  0  0  0  0  0
   16.6343   -7.1394  -10.0334 C   0  0  0  0  0  0  0  0  0  0  0  0
   17.7456   -7.3933   -9.5480 O   0  0  0  0  0  0  0  0  0  0  0  0
   18.0220   -8.7596  -12.8591 C   0  0  0  0  0  0  0  0  0  0  0  0
   17.8340   -7.3430  -13.3520 C   0  0  1  0  0  0  0  0  0  0  0  0
   16.5775   -7.2796  -13.9710 O   0  0  0  0  0  0  0  0  0  0  0  0
   17.7822   -6.4382  -12.1531 C   0  0  2  0  0  0  0  0  0  0  0  0
   16.6065   -6.5888  -11.3566 N   0  0  0  0  0  0  0  0  0  0  0  0
   17.8649   -5.0330  -12.6417 C   0  0  0  0  0  0  0  0  0  0  0  0
   18.9271   -4.5904  -13.1524 O   0  0  0  0  0  0  0  0  0  0  0  0
   16.7906   -4.1508  -12.5604 O   0  0  0  0  0  0  0  0  0  0  0  0
  2  1  1  6
  2  3  1  0
  4  5  2  0
  4  2  1  0
  6  4  1  0
  7  6  1  0
  7  8  1  1
  9  8  1  0
 10 11  2  0
 10  7  1  0
 13 12  1  1
 13 14  1  0
 15 13  1  0
 15 16  1  6
 16 10  1  0
 17 15  1  0
 18 17  2  0
 19 17  1  0
M  END
$$$$
