ACT.pdb
     RDKit          3D

 19 18  0  0  1  0  0  0  0  0999 V2000
   17.9741  -11.3118  -17.3332 C   0  0  0  0  0  0  0  0  0  0  0  0
   19.4705  -11.4946  -17.3023 C   0  0  2  0  0  0  0  0  0  0  0  0
   19.8184  -12.8728  -17.1050 N   0  0  0  0  0  0  0  0  0  0  0  0
   20.1287  -10.6314  -16.3015 C   0  0  0  0  0  0  0  0  0  0  0  0
   19.5563  -10.4688  -15.1950 O   0  0  0  0  0  0  0  0  0  0  0  0
   21.3535   -9.9841  -16.5146 N   0  0  0  0  0  0  0  0  0  0  0  0
   22.0923   -9.2321  -15.5539 C   0  0  1  0  0  0  0  0  0  0  0  0
   23.5026   -9.7142  -15.3514 C   0  0  0  0  0  0  0  0  0  0  0  0
   23.4960  -11.0303  -14.1029 S   0  0  0  0  0  0  0  0  0  0  0  0
   22.0872   -7.7684  -15.8764 C   0  0  0  0  0  0  0  0  0  0  0  0
   22.4054   -7.3570  -17.0009 O   0  0  0  0  0  0  0  0  0  0  0  0
   19.5338   -5.5921  -16.4575 C   0  0  0  0  0  0  0  0  0  0  0  0
   20.2064   -4.8850  -15.3031 C   0  0  1  0  0  0  0  0  0  0  0  0
   19.5437   -5.2758  -14.1309 O   0  0  0  0  0  0  0  0  0  0  0  0
   21.6164   -5.3957  -15.2048 C   0  0  2  0  0  0  0  0  0  0  0  0
   21.7149   -6.7873  -14.8998 N   0  0  0  0  0  0  0  0  0  0  0  0
   22.3094   -4.6125  -14.1434 C   0  0  0  0  0  0  0  0  0  0  0  0
   22.6906   -5.1670  -13.0793 O   0  0  0  0  0  0  0  0  0  0  0  0
   22.5675   -3.2501  -14.2704 O   0  0  0  0  0  0  0  0  0  0  0  0
  2  1  1  1
  2  3  1  0
  4  5  2  0
  4  2  1  0
  6  4  1  0
  7  6  1  0
  7  8  1  6
  9  8  1  0
 10 11  2  0
 10  7  1  0
 13 12  1  6
 13 14  1  0
 15 13  1  0
 15 16  1  1
 16 10  1  0
 17 15  1  0
 18 17  2  0
 19 17  1  0
M  END
$$$$
