ACT.pdb
     RDKit          3D

 19 18  0  0  1  0  0  0  0  0999 V2000
   26.4041  -12.8074  -16.2573 C   0  0  0  0  0  0  0  0  0  0  0  0
   25.1837  -13.2694  -15.5020 C   0  0  2  0  0  0  0  0  0  0  0  0
   25.0733  -14.7001  -15.5249 N   0  0  0  0  0  0  0  0  0  0  0  0
   23.9416  -12.6325  -15.9832 C   0  0  0  0  0  0  0  0  0  0  0  0
   23.6850  -12.6934  -17.2115 O   0  0  0  0  0  0  0  0  0  0  0  0
   23.0340  -11.9649  -15.1496 N   0  0  0  0  0  0  0  0  0  0  0  0
   21.7821  -11.4030  -15.5389 C   0  0  1  0  0  0  0  0  0  0  0  0
   20.5949  -12.0119  -14.8445 C   0  0  0  0  0  0  0  0  0  0  0  0
   20.7138  -13.8184  -14.9606 S   0  0  0  0  0  0  0  0  0  0  0  0
   21.7704   -9.9135  -15.3734 C   0  0  0  0  0  0  0  0  0  0  0  0
   22.3587   -9.3671  -14.4298 O   0  0  0  0  0  0  0  0  0  0  0  0
   20.6531   -5.4452  -17.1710 C   0  0  0  0  0  0  0  0  0  0  0  0
   20.4496   -6.9317  -17.3557 C   0  0  1  0  0  0  0  0  0  0  0  0
   21.1246   -7.3032  -18.5271 O   0  0  0  0  0  0  0  0  0  0  0  0
   21.1250   -7.6375  -16.2136 C   0  0  2  0  0  0  0  0  0  0  0  0
   21.0800   -9.0624  -16.2975 N   0  0  0  0  0  0  0  0  0  0  0  0
   20.4602   -7.2008  -14.9537 C   0  0  0  0  0  0  0  0  0  0  0  0
   20.9830   -6.3200  -14.2217 O   0  0  0  0  0  0  0  0  0  0  0  0
   19.2469   -7.7346  -14.5271 O   0  0  0  0  0  0  0  0  0  0  0  0
  2  1  1  6
  2  3  1  0
  4  5  2  0
  4  2  1  0
  6  4  1  0
  7  6  1  0
  7  8  1  1
  9  8  1  0
 10 11  2  0
 10  7  1  0
 13 12  1  1
 13 14  1  0
 15 13  1  0
 15 16  1  6
 16 10  1  0
 17 15  1  0
 18 17  2  0
 19 17  1  0
M  END
$$$$
