ACT.pdb
     RDKit          3D

 19 18  0  0  1  0  0  0  0  0999 V2000
   15.7067  -10.6549  -16.0186 C   0  0  0  0  0  0  0  0  0  0  0  0
   16.5767   -9.4961  -16.4357 C   0  0  2  0  0  0  0  0  0  0  0  0
   17.0547   -9.6663  -17.7781 N   0  0  0  0  0  0  0  0  0  0  0  0
   17.6934   -9.2571  -15.4998 C   0  0  0  0  0  0  0  0  0  0  0  0
   17.4186   -9.0763  -14.2874 O   0  0  0  0  0  0  0  0  0  0  0  0
   19.0402   -9.2205  -15.8859 N   0  0  0  0  0  0  0  0  0  0  0  0
   20.1499   -8.8803  -15.0569 C   0  0  1  0  0  0  0  0  0  0  0  0
   21.2987   -9.8472  -15.1435 C   0  0  0  0  0  0  0  0  0  0  0  0
   22.6565   -9.2349  -14.1079 S   0  0  0  0  0  0  0  0  0  0  0  0
   20.6277   -7.4842  -15.3199 C   0  0  0  0  0  0  0  0  0  0  0  0
   21.0422   -7.1467  -16.4375 O   0  0  0  0  0  0  0  0  0  0  0  0
   19.0104   -4.3701  -15.5329 C   0  0  0  0  0  0  0  0  0  0  0  0
   20.0054   -4.1070  -14.4257 C   0  0  1  0  0  0  0  0  0  0  0  0
   19.3379   -4.3044  -13.2087 O   0  0  0  0  0  0  0  0  0  0  0  0
   21.0830   -5.1509  -14.5131 C   0  0  2  0  0  0  0  0  0  0  0  0
   20.6245   -6.4851  -14.2919 N   0  0  0  0  0  0  0  0  0  0  0  0
   22.1218   -4.8165  -13.4987 C   0  0  0  0  0  0  0  0  0  0  0  0
   22.3986   -5.6215  -12.5710 O   0  0  0  0  0  0  0  0  0  0  0  0
   22.8287   -3.6171  -13.5227 O   0  0  0  0  0  0  0  0  0  0  0  0
  2  1  1  1
  2  3  1  0
  4  5  2  0
  4  2  1  0
  6  4  1  0
  7  6  1  0
  7  8  1  6
  9  8  1  0
 10 11  2  0
 10  7  1  0
 13 12  1  6
 13 14  1  0
 15 13  1  0
 15 16  1  1
 16 10  1  0
 17 15  1  0
 18 17  2  0
 19 17  1  0
M  END
$$$$
