ACT.pdb
     RDKit          3D

 19 18  0  0  1  0  0  0  0  0999 V2000
   19.3643  -13.3079  -17.3927 C   0  0  0  0  0  0  0  0  0  0  0  0
   19.7645  -11.8916  -17.7206 C   0  0  2  0  0  0  0  0  0  0  0  0
   20.8412  -11.8658  -18.6691 N   0  0  0  0  0  0  0  0  0  0  0  0
   20.0958  -11.1010  -16.5184 C   0  0  0  0  0  0  0  0  0  0  0  0
   19.2244  -11.0021  -15.6189 O   0  0  0  0  0  0  0  0  0  0  0  0
   21.3246  -10.4557  -16.3236 N   0  0  0  0  0  0  0  0  0  0  0  0
   21.7051   -9.6845  -15.1857 C   0  0  1  0  0  0  0  0  0  0  0  0
   22.9879  -10.1340  -14.5419 C   0  0  0  0  0  0  0  0  0  0  0  0
   24.2759  -10.2354  -15.8155 S   0  0  0  0  0  0  0  0  0  0  0  0
   21.7724   -8.2222  -15.5075 C   0  0  0  0  0  0  0  0  0  0  0  0
   22.1738   -7.8247  -16.6101 O   0  0  0  0  0  0  0  0  0  0  0  0
   20.2607   -3.6998  -15.1495 C   0  0  0  0  0  0  0  0  0  0  0  0
   20.0661   -5.1574  -14.7995 C   0  0  1  0  0  0  0  0  0  0  0  0
   19.2859   -5.7299  -15.8142 O   0  0  0  0  0  0  0  0  0  0  0  0
   21.4102   -5.8283  -14.8438 C   0  0  2  0  0  0  0  0  0  0  0  0
   21.3762   -7.2265  -14.5553 N   0  0  0  0  0  0  0  0  0  0  0  0
   22.2902   -5.1462  -13.8536 C   0  0  0  0  0  0  0  0  0  0  0  0
   22.1840   -5.3893  -12.6229 O   0  0  0  0  0  0  0  0  0  0  0  0
   23.2595   -4.2204  -14.2308 O   0  0  0  0  0  0  0  0  0  0  0  0
  2  1  1  1
  2  3  1  0
  4  5  2  0
  4  2  1  0
  6  4  1  0
  7  6  1  0
  7  8  1  6
  9  8  1  0
 10 11  2  0
 10  7  1  0
 13 12  1  6
 13 14  1  0
 15 13  1  0
 15 16  1  1
 16 10  1  0
 17 15  1  0
 18 17  2  0
 19 17  1  0
M  END
$$$$
