HLD.pdb
     RDKit          3D

 27 27  0  0  1  0  0  0  0  0999 V2000
   42.9777  -10.9444   -8.0720 N   0  0  0  0  0  0  0  0  0  0  0  0
   42.3120   -9.8483   -7.4003 C   0  0  1  0  0  0  0  0  0  0  0  0
   43.2693   -8.6858   -7.3452 C   0  0  0  0  0  0  0  0  0  0  0  0
   44.4154   -9.0923   -6.4583 C   0  0  0  0  0  0  0  0  0  0  0  0
   44.3171   -9.3094   -5.1048 C   0  0  0  0  0  0  0  0  0  0  0  0
   45.5471   -9.6589   -4.6454 N   0  0  0  0  0  0  0  0  0  0  0  0
   46.3801   -9.6568   -5.6898 C   0  0  0  0  0  0  0  0  0  0  0  0
   45.6939   -9.3115   -6.7987 N   0  0  0  0  0  0  0  0  0  0  0  0
   41.0869   -9.4209   -8.1211 C   0  0  0  0  0  0  0  0  0  0  0  0
   41.1502   -8.9865   -9.2777 O   0  0  0  0  0  0  0  0  0  0  0  0
   36.6389  -12.0433   -6.5297 C   0  0  0  0  0  0  0  0  0  0  0  0
   37.6364  -11.3136   -7.3551 C   0  0  1  0  0  0  0  0  0  0  0  0
   37.7612  -11.9204   -8.7464 C   0  0  0  0  0  0  0  0  0  0  0  0
   37.4432   -9.8300   -7.4719 C   0  0  0  0  0  0  0  0  0  0  0  0
   38.5854   -9.0630   -8.0427 C   0  0  2  0  0  0  0  0  0  0  0  0
   39.8277   -9.5055   -7.4909 N   0  0  0  0  0  0  0  0  0  0  0  0
   38.4007   -7.5970   -7.9391 C   0  0  0  0  0  0  0  0  0  0  0  0
   37.4782   -7.0457   -8.5760 O   0  0  0  0  0  0  0  0  0  0  0  0
   39.2426   -6.7945   -7.1354 N   0  0  0  0  0  0  0  0  0  0  0  0
   39.1344   -5.3402   -7.1057 C   0  0  1  0  0  0  0  0  0  0  0  0
   39.6660   -4.7632   -5.8093 C   0  0  0  0  0  0  0  0  0  0  0  0
   39.5840   -3.2824   -5.8315 C   0  0  0  0  0  0  0  0  0  0  0  0
   38.5558   -2.6314   -6.0903 O   0  0  0  0  0  0  0  0  0  0  0  0
   39.9282   -4.8029   -8.2513 C   0  0  0  0  0  0  0  0  0  0  0  0
   41.0881   -5.4143   -8.7095 O   0  0  0  0  0  0  0  0  0  0  0  0
   40.7374   -2.5529   -5.5427 O   0  0  0  0  0  0  0  0  0  0  0  0
   39.5682   -3.7579   -8.8533 O   0  0  0  0  0  0  0  0  0  0  0  0
  2  3  1  0
  2  1  1  6
  4  8  1  0
  4  3  1  0
  5  4  2  0
  6  5  1  0
  6  7  1  0
  7  8  2  0
  9 10  2  0
  9  2  1  0
 12 14  1  0
 12 11  1  6
 13 12  1  0
 15 14  1  1
 15 16  1  0
 16  9  1  0
 17 18  2  0
 17 15  1  0
 19 17  1  0
 20 19  1  0
 20 21  1  1
 21 22  1  0
 22 26  1  0
 23 22  2  0
 24 25  1  0
 24 20  1  0
 27 24  2  0
M  END
$$$$
