HLD.pdb
     RDKit          3D

 27 27  0  0  1  0  0  0  0  0999 V2000
   26.9181  -21.8119  -15.2011 N   0  0  0  0  0  0  0  0  0  0  0  0
   27.0989  -21.0074  -14.0112 C   0  0  1  0  0  0  0  0  0  0  0  0
   26.7065  -19.5907  -14.3431 C   0  0  0  0  0  0  0  0  0  0  0  0
   27.5930  -19.1339  -15.4704 C   0  0  0  0  0  0  0  0  0  0  0  0
   28.5425  -19.9156  -16.0837 C   0  0  0  0  0  0  0  0  0  0  0  0
   29.1405  -19.1696  -17.0491 N   0  0  0  0  0  0  0  0  0  0  0  0
   28.5731  -17.9603  -17.0297 C   0  0  0  0  0  0  0  0  0  0  0  0
   27.6278  -17.9336  -16.0677 N   0  0  0  0  0  0  0  0  0  0  0  0
   26.2530  -21.4837  -12.8884 C   0  0  0  0  0  0  0  0  0  0  0  0
   25.9253  -22.6734  -12.8012 O   0  0  0  0  0  0  0  0  0  0  0  0
   26.6011  -19.5431   -7.7502 C   0  0  0  0  0  0  0  0  0  0  0  0
   26.2622  -20.4261   -8.8966 C   0  0  1  0  0  0  0  0  0  0  0  0
   26.1651  -21.8845   -8.4685 C   0  0  0  0  0  0  0  0  0  0  0  0
   25.0396  -20.0531   -9.6827 C   0  0  0  0  0  0  0  0  0  0  0  0
   24.7960  -20.8353  -10.9267 C   0  0  2  0  0  0  0  0  0  0  0  0
   25.8100  -20.5788  -11.9011 N   0  0  0  0  0  0  0  0  0  0  0  0
   23.4267  -20.6517  -11.4608 C   0  0  0  0  0  0  0  0  0  0  0  0
   22.4456  -20.7799  -10.6982 O   0  0  0  0  0  0  0  0  0  0  0  0
   23.1924  -20.3333  -12.8182 N   0  0  0  0  0  0  0  0  0  0  0  0
   21.8535  -20.0776  -13.3373 C   0  0  1  0  0  0  0  0  0  0  0  0
   21.8917  -19.2610  -14.6133 C   0  0  0  0  0  0  0  0  0  0  0  0
   20.5192  -19.0591  -15.1381 C   0  0  0  0  0  0  0  0  0  0  0  0
   19.5903  -18.5202  -14.5098 O   0  0  0  0  0  0  0  0  0  0  0  0
   21.2135  -21.3990  -13.6120 C   0  0  0  0  0  0  0  0  0  0  0  0
   19.8723  -21.6489  -13.3514 O   0  0  0  0  0  0  0  0  0  0  0  0
   20.2347  -19.5011  -16.4303 O   0  0  0  0  0  0  0  0  0  0  0  0
   21.8784  -22.3506  -14.0981 O   0  0  0  0  0  0  0  0  0  0  0  0
  2  3  1  0
  2  1  1  6
  4  8  1  0
  4  3  1  0
  5  4  2  0
  6  5  1  0
  6  7  1  0
  7  8  2  0
  9 10  2  0
  9  2  1  0
 12 14  1  0
 12 11  1  1
 13 12  1  0
 15 14  1  1
 15 16  1  0
 16  9  1  0
 17 18  2  0
 17 15  1  0
 19 17  1  0
 20 19  1  0
 20 21  1  6
 21 22  1  0
 22 26  1  0
 23 22  2  0
 24 25  1  0
 24 20  1  0
 27 24  2  0
M  END
$$$$
