HLD.pdb
     RDKit          3D

 27 27  0  0  1  0  0  0  0  0999 V2000
   29.4538  -37.4633   -8.6002 N   0  0  0  0  0  0  0  0  0  0  0  0
   28.2924  -37.2591   -7.7605 C   0  0  1  0  0  0  0  0  0  0  0  0
   28.2669  -38.3551   -6.7266 C   0  0  0  0  0  0  0  0  0  0  0  0
   27.8969  -39.6301   -7.4358 C   0  0  0  0  0  0  0  0  0  0  0  0
   26.7042  -39.8460   -8.0836 C   0  0  0  0  0  0  0  0  0  0  0  0
   26.7289  -41.1022   -8.6008 N   0  0  0  0  0  0  0  0  0  0  0  0
   27.9067  -41.6445   -8.2792 C   0  0  0  0  0  0  0  0  0  0  0  0
   28.6232  -40.7497   -7.5680 N   0  0  0  0  0  0  0  0  0  0  0  0
   28.3379  -35.9495   -7.0633 C   0  0  0  0  0  0  0  0  0  0  0  0
   29.4138  -35.4676   -6.6880 O   0  0  0  0  0  0  0  0  0  0  0  0
   26.8930  -32.8085   -8.9814 C   0  0  0  0  0  0  0  0  0  0  0  0
   26.1366  -32.2530   -7.8290 C   0  0  1  0  0  0  0  0  0  0  0  0
   24.8245  -31.6210   -8.2747 C   0  0  0  0  0  0  0  0  0  0  0  0
   25.8766  -33.1947   -6.6900 C   0  0  0  0  0  0  0  0  0  0  0  0
   27.0540  -33.9559   -6.1868 C   0  0  2  0  0  0  0  0  0  0  0  0
   27.1467  -35.2347   -6.8188 N   0  0  0  0  0  0  0  0  0  0  0  0
   27.0924  -34.0418   -4.7085 C   0  0  0  0  0  0  0  0  0  0  0  0
   27.1370  -32.9929   -4.0314 O   0  0  0  0  0  0  0  0  0  0  0  0
   27.0800  -35.2838   -4.0333 N   0  0  0  0  0  0  0  0  0  0  0  0
   27.0449  -35.3780   -2.5782 C   0  0  1  0  0  0  0  0  0  0  0  0
   25.8754  -36.2127   -2.0969 C   0  0  0  0  0  0  0  0  0  0  0  0
   25.8842  -36.3085   -0.6168 C   0  0  0  0  0  0  0  0  0  0  0  0
   26.4518  -35.5041    0.1441 O   0  0  0  0  0  0  0  0  0  0  0  0
   28.3231  -36.0102   -2.1336 C   0  0  0  0  0  0  0  0  0  0  0  0
   29.0511  -35.5416   -1.0475 O   0  0  0  0  0  0  0  0  0  0  0  0
   25.2103  -37.3742   -0.0200 O   0  0  0  0  0  0  0  0  0  0  0  0
   28.7949  -37.0083   -2.7379 O   0  0  0  0  0  0  0  0  0  0  0  0
  2  3  1  0
  2  1  1  6
  4  8  1  0
  4  3  1  0
  5  4  2  0
  6  5  1  0
  6  7  1  0
  7  8  2  0
  9 10  2  0
  9  2  1  0
 12 14  1  0
 12 11  1  6
 13 12  1  0
 15 14  1  1
 15 16  1  0
 16  9  1  0
 17 18  2  0
 17 15  1  0
 19 17  1  0
 20 19  1  0
 20 21  1  6
 21 22  1  0
 22 26  1  0
 23 22  2  0
 24 25  1  0
 24 20  1  0
 27 24  2  0
M  END
$$$$
