HLD.pdb
     RDKit          3D

 27 27  0  0  1  0  0  0  0  0999 V2000
   13.8625  -19.2122    2.8255 N   0  0  0  0  0  0  0  0  0  0  0  0
   14.0929  -18.0685    3.6825 C   0  0  1  0  0  0  0  0  0  0  0  0
   13.3139  -18.2764    4.9557 C   0  0  0  0  0  0  0  0  0  0  0  0
   11.8553  -18.1239    4.6172 C   0  0  0  0  0  0  0  0  0  0  0  0
   10.9533  -19.1594    4.5635 C   0  0  0  0  0  0  0  0  0  0  0  0
    9.7416  -18.6436    4.2289 N   0  0  0  0  0  0  0  0  0  0  0  0
    9.8950  -17.3247    4.0808 C   0  0  0  0  0  0  0  0  0  0  0  0
   11.1836  -17.0027    4.3168 N   0  0  0  0  0  0  0  0  0  0  0  0
   15.5290  -17.9144    4.0242 C   0  0  0  0  0  0  0  0  0  0  0  0
   16.3173  -18.8588    3.8931 O   0  0  0  0  0  0  0  0  0  0  0  0
   18.0678  -13.2281    2.7458 C   0  0  0  0  0  0  0  0  0  0  0  0
   17.7335  -14.6376    3.0781 C   0  0  1  0  0  0  0  0  0  0  0  0
   18.6209  -15.6158    2.3199 C   0  0  0  0  0  0  0  0  0  0  0  0
   17.7295  -14.9926    4.5361 C   0  0  0  0  0  0  0  0  0  0  0  0
   17.3689  -16.3994    4.8675 C   0  0  2  0  0  0  0  0  0  0  0  0
   16.0147  -16.6808    4.5060 N   0  0  0  0  0  0  0  0  0  0  0  0
   17.6736  -16.7538    6.2730 C   0  0  0  0  0  0  0  0  0  0  0  0
   18.8486  -16.6698    6.6887 O   0  0  0  0  0  0  0  0  0  0  0  0
   16.6682  -17.1879    7.1672 N   0  0  0  0  0  0  0  0  0  0  0  0
   16.9595  -17.5462    8.5507 C   0  0  1  0  0  0  0  0  0  0  0  0
   16.1919  -16.6803    9.5292 C   0  0  0  0  0  0  0  0  0  0  0  0
   16.8837  -15.3827    9.7230 C   0  0  0  0  0  0  0  0  0  0  0  0
   18.1023  -15.1951    9.5558 O   0  0  0  0  0  0  0  0  0  0  0  0
   16.5702  -18.9757    8.7407 C   0  0  0  0  0  0  0  0  0  0  0  0
   15.9874  -19.7325    7.7324 O   0  0  0  0  0  0  0  0  0  0  0  0
   16.1243  -14.2827   10.1221 O   0  0  0  0  0  0  0  0  0  0  0  0
   16.7598  -19.5563    9.8411 O   0  0  0  0  0  0  0  0  0  0  0  0
  2  3  1  0
  2  1  1  6
  4  8  1  0
  4  3  1  0
  5  4  2  0
  6  5  1  0
  6  7  1  0
  7  8  2  0
  9 10  2  0
  9  2  1  0
 12 14  1  0
 12 11  1  1
 13 12  1  0
 15 14  1  1
 15 16  1  0
 16  9  1  0
 17 18  2  0
 17 15  1  0
 19 17  1  0
 20 19  1  0
 20 21  1  1
 21 22  1  0
 22 26  1  0
 23 22  2  0
 24 25  1  0
 24 20  1  0
 27 24  2  0
M  END
$$$$
