HLD.pdb
     RDKit          3D

 27 27  0  0  1  0  0  0  0  0999 V2000
   26.2409  -20.2491  -16.8865 N   0  0  0  0  0  0  0  0  0  0  0  0
   25.2227  -19.6035  -16.0852 C   0  0  1  0  0  0  0  0  0  0  0  0
   24.1941  -19.0215  -17.0202 C   0  0  0  0  0  0  0  0  0  0  0  0
   24.8639  -17.9135  -17.7877 C   0  0  0  0  0  0  0  0  0  0  0  0
   25.1015  -16.6534  -17.2934 C   0  0  0  0  0  0  0  0  0  0  0  0
   25.7188  -15.9311  -18.2646 N   0  0  0  0  0  0  0  0  0  0  0  0
   25.8571  -16.7268  -19.3287 C   0  0  0  0  0  0  0  0  0  0  0  0
   25.3367  -17.9381  -19.0425 N   0  0  0  0  0  0  0  0  0  0  0  0
   24.5479  -20.5606  -15.1733 C   0  0  0  0  0  0  0  0  0  0  0  0
   24.2478  -21.6980  -15.5563 O   0  0  0  0  0  0  0  0  0  0  0  0
   26.1024  -20.2663  -10.0450 C   0  0  0  0  0  0  0  0  0  0  0  0
   25.5776  -20.7289  -11.3563 C   0  0  1  0  0  0  0  0  0  0  0  0
   26.1250  -22.1017  -11.7240 C   0  0  0  0  0  0  0  0  0  0  0  0
   24.0851  -20.7276  -11.5115 C   0  0  0  0  0  0  0  0  0  0  0  0
   23.5682  -20.9930  -12.8831 C   0  0  2  0  0  0  0  0  0  0  0  0
   24.2388  -20.1815  -13.8502 N   0  0  0  0  0  0  0  0  0  0  0  0
   22.0932  -20.8896  -12.9702 C   0  0  0  0  0  0  0  0  0  0  0  0
   21.3819  -21.5458  -12.1803 O   0  0  0  0  0  0  0  0  0  0  0  0
   21.4589  -20.0648  -13.9273 N   0  0  0  0  0  0  0  0  0  0  0  0
   20.0073  -19.9600  -14.0240 C   0  0  1  0  0  0  0  0  0  0  0  0
   19.5454  -18.5168  -14.0065 C   0  0  0  0  0  0  0  0  0  0  0  0
   18.0739  -18.4437  -14.1770 C   0  0  0  0  0  0  0  0  0  0  0  0
   17.3076  -19.4239  -14.1655 O   0  0  0  0  0  0  0  0  0  0  0  0
   19.5908  -20.5994  -15.3081 C   0  0  0  0  0  0  0  0  0  0  0  0
   20.4017  -20.6101  -16.4357 O   0  0  0  0  0  0  0  0  0  0  0  0
   17.4924  -17.1897  -14.3651 O   0  0  0  0  0  0  0  0  0  0  0  0
   18.4701  -21.1617  -15.4163 O   0  0  0  0  0  0  0  0  0  0  0  0
  2  3  1  0
  2  1  1  6
  4  8  1  0
  4  3  1  0
  5  4  2  0
  6  5  1  0
  6  7  1  0
  7  8  2  0
  9 10  2  0
  9  2  1  0
 12 14  1  0
 12 11  1  1
 13 12  1  0
 15 14  1  1
 15 16  1  0
 16  9  1  0
 17 18  2  0
 17 15  1  0
 19 17  1  0
 20 19  1  0
 20 21  1  6
 21 22  1  0
 22 26  1  0
 23 22  2  0
 24 25  1  0
 24 20  1  0
 27 24  2  0
M  END
$$$$
