HLD.pdb
     RDKit          3D

 27 27  0  0  1  0  0  0  0  0999 V2000
   18.2176  -12.4663  -17.5913 N   0  0  0  0  0  0  0  0  0  0  0  0
   19.1384  -11.4523  -18.0599 C   0  0  1  0  0  0  0  0  0  0  0  0
   18.3506  -10.4347  -18.8439 C   0  0  0  0  0  0  0  0  0  0  0  0
   17.8870  -11.1061  -20.1086 C   0  0  0  0  0  0  0  0  0  0  0  0
   18.4971  -12.1948  -20.6841 C   0  0  0  0  0  0  0  0  0  0  0  0
   17.8030  -12.5207  -21.8058 N   0  0  0  0  0  0  0  0  0  0  0  0
   16.7920  -11.6544  -21.9169 C   0  0  0  0  0  0  0  0  0  0  0  0
   16.8391  -10.7889  -20.8832 N   0  0  0  0  0  0  0  0  0  0  0  0
   19.8194  -10.7624  -16.9359 C   0  0  0  0  0  0  0  0  0  0  0  0
   19.1960  -10.4438  -15.9159 O   0  0  0  0  0  0  0  0  0  0  0  0
   23.8225   -9.7781  -13.5541 C   0  0  0  0  0  0  0  0  0  0  0  0
   24.2564   -9.6240  -14.9672 C   0  0  1  0  0  0  0  0  0  0  0  0
   25.6856  -10.1101  -15.1688 C   0  0  0  0  0  0  0  0  0  0  0  0
   23.3668  -10.2420  -16.0057 C   0  0  0  0  0  0  0  0  0  0  0  0
   21.9575   -9.7604  -16.0325 C   0  0  2  0  0  0  0  0  0  0  0  0
   21.1947  -10.4599  -17.0186 N   0  0  0  0  0  0  0  0  0  0  0  0
   21.8567   -8.2887  -16.1660 C   0  0  0  0  0  0  0  0  0  0  0  0
   22.3057   -7.7308  -17.1896 O   0  0  0  0  0  0  0  0  0  0  0  0
   21.2634   -7.4879  -15.1633 N   0  0  0  0  0  0  0  0  0  0  0  0
   21.1867   -6.0355  -15.2717 C   0  0  1  0  0  0  0  0  0  0  0  0
   19.7592   -5.5383  -15.1658 C   0  0  0  0  0  0  0  0  0  0  0  0
   19.7163   -4.0611  -15.2926 C   0  0  0  0  0  0  0  0  0  0  0  0
   20.3789   -3.3986  -16.1112 O   0  0  0  0  0  0  0  0  0  0  0  0
   21.9991   -5.4542  -14.1612 C   0  0  0  0  0  0  0  0  0  0  0  0
   22.5625   -6.2339  -13.1593 O   0  0  0  0  0  0  0  0  0  0  0  0
   18.8752   -3.3491  -14.4373 O   0  0  0  0  0  0  0  0  0  0  0  0
   22.2059   -4.2146  -14.0919 O   0  0  0  0  0  0  0  0  0  0  0  0
  2  3  1  0
  2  1  1  1
  4  8  1  0
  4  3  1  0
  5  4  2  0
  6  5  1  0
  6  7  1  0
  7  8  2  0
  9 10  2  0
  9  2  1  0
 12 14  1  0
 12 11  1  1
 13 12  1  0
 15 14  1  6
 15 16  1  0
 16  9  1  0
 17 18  2  0
 17 15  1  0
 19 17  1  0
 20 19  1  0
 20 21  1  1
 21 22  1  0
 22 26  1  0
 23 22  2  0
 24 25  1  0
 24 20  1  0
 27 24  2  0
M  END
$$$$
