HLD.pdb
     RDKit          3D

 27 27  0  0  1  0  0  0  0  0999 V2000
   14.2085  -24.3326    2.6265 N   0  0  0  0  0  0  0  0  0  0  0  0
   15.5994  -24.7278    2.6968 C   0  0  1  0  0  0  0  0  0  0  0  0
   16.0986  -24.9262    1.2889 C   0  0  0  0  0  0  0  0  0  0  0  0
   15.3537  -26.0998    0.7117 C   0  0  0  0  0  0  0  0  0  0  0  0
   15.4995  -27.4005    1.1308 C   0  0  0  0  0  0  0  0  0  0  0  0
   14.6717  -28.1773    0.3841 N   0  0  0  0  0  0  0  0  0  0  0  0
   14.0333  -27.3745   -0.4720 C   0  0  0  0  0  0  0  0  0  0  0  0
   14.4463  -26.1053   -0.2759 N   0  0  0  0  0  0  0  0  0  0  0  0
   16.4352  -23.6932    3.3557 C   0  0  0  0  0  0  0  0  0  0  0  0
   17.6655  -23.8112    3.4097 O   0  0  0  0  0  0  0  0  0  0  0  0
   15.1740  -18.2369    3.2223 C   0  0  0  0  0  0  0  0  0  0  0  0
   16.0200  -19.4474    3.3891 C   0  0  1  0  0  0  0  0  0  0  0  0
   17.5014  -19.1141    3.2707 C   0  0  0  0  0  0  0  0  0  0  0  0
   15.7866  -20.2540    4.6328 C   0  0  0  0  0  0  0  0  0  0  0  0
   16.4990  -21.5598    4.7107 C   0  0  2  0  0  0  0  0  0  0  0  0
   15.8319  -22.5557    3.9319 N   0  0  0  0  0  0  0  0  0  0  0  0
   16.7502  -21.9938    6.1045 C   0  0  0  0  0  0  0  0  0  0  0  0
   15.9370  -22.7562    6.6684 O   0  0  0  0  0  0  0  0  0  0  0  0
   17.8910  -21.5692    6.8234 N   0  0  0  0  0  0  0  0  0  0  0  0
   18.0902  -21.8968    8.2307 C   0  0  1  0  0  0  0  0  0  0  0  0
   19.0353  -23.0681    8.4070 C   0  0  0  0  0  0  0  0  0  0  0  0
   19.1938  -23.3914    9.8458 C   0  0  0  0  0  0  0  0  0  0  0  0
   18.5774  -22.8337   10.7716 O   0  0  0  0  0  0  0  0  0  0  0  0
   18.6631  -20.6909    8.9006 C   0  0  0  0  0  0  0  0  0  0  0  0
   18.3706  -20.3566   10.2166 O   0  0  0  0  0  0  0  0  0  0  0  0
   20.0974  -24.3927   10.2020 O   0  0  0  0  0  0  0  0  0  0  0  0
   19.4454  -19.9204    8.2855 O   0  0  0  0  0  0  0  0  0  0  0  0
  2  3  1  0
  2  1  1  6
  4  8  1  0
  4  3  1  0
  5  4  2  0
  6  5  1  0
  6  7  1  0
  7  8  2  0
  9 10  2  0
  9  2  1  0
 12 14  1  0
 12 11  1  1
 13 12  1  0
 15 14  1  1
 15 16  1  0
 16  9  1  0
 17 18  2  0
 17 15  1  0
 19 17  1  0
 20 19  1  0
 20 21  1  6
 21 22  1  0
 22 26  1  0
 23 22  2  0
 24 25  1  0
 24 20  1  0
 27 24  2  0
M  END
$$$$
