HLD.pdb
     RDKit          3D

 27 27  0  0  1  0  0  0  0  0999 V2000
   27.5998  -19.0189  -16.6593 N   0  0  0  0  0  0  0  0  0  0  0  0
   26.6528  -18.8292  -15.5808 C   0  0  1  0  0  0  0  0  0  0  0  0
   25.5809  -17.8861  -16.0631 C   0  0  0  0  0  0  0  0  0  0  0  0
   26.2090  -16.5245  -16.1931 C   0  0  0  0  0  0  0  0  0  0  0  0
   26.8284  -15.8488  -15.1692 C   0  0  0  0  0  0  0  0  0  0  0  0
   27.2707  -14.6605  -15.6576 N   0  0  0  0  0  0  0  0  0  0  0  0
   26.9318  -14.6072  -16.9487 C   0  0  0  0  0  0  0  0  0  0  0  0
   26.2835  -15.7428  -17.2803 N   0  0  0  0  0  0  0  0  0  0  0  0
   26.0144  -20.1062  -15.1751 C   0  0  0  0  0  0  0  0  0  0  0  0
   25.9080  -21.0445  -15.9743 O   0  0  0  0  0  0  0  0  0  0  0  0
   25.6299  -20.5817   -9.7177 C   0  0  0  0  0  0  0  0  0  0  0  0
   25.9582  -20.5496  -11.1668 C   0  0  1  0  0  0  0  0  0  0  0  0
   27.4381  -20.2742  -11.3982 C   0  0  0  0  0  0  0  0  0  0  0  0
   25.5410  -21.7476  -11.9684 C   0  0  0  0  0  0  0  0  0  0  0  0
   24.9736  -21.4688  -13.3172 C   0  0  2  0  0  0  0  0  0  0  0  0
   25.5180  -20.2655  -13.8643 N   0  0  0  0  0  0  0  0  0  0  0  0
   23.4926  -21.4875  -13.3315 C   0  0  0  0  0  0  0  0  0  0  0  0
   22.8843  -22.4707  -12.8582 O   0  0  0  0  0  0  0  0  0  0  0  0
   22.7387  -20.4189  -13.8684 N   0  0  0  0  0  0  0  0  0  0  0  0
   21.2988  -20.5128  -14.0818 C   0  0  1  0  0  0  0  0  0  0  0  0
   20.6291  -19.1558  -14.0024 C   0  0  0  0  0  0  0  0  0  0  0  0
   20.0541  -18.9422  -12.6519 C   0  0  0  0  0  0  0  0  0  0  0  0
   20.0500  -19.7880  -11.7394 O   0  0  0  0  0  0  0  0  0  0  0  0
   21.0785  -21.0971  -15.4387 C   0  0  0  0  0  0  0  0  0  0  0  0
   19.9071  -21.7568  -15.7876 O   0  0  0  0  0  0  0  0  0  0  0  0
   19.4717  -17.7063  -12.3702 O   0  0  0  0  0  0  0  0  0  0  0  0
   21.9622  -21.0113  -16.3306 O   0  0  0  0  0  0  0  0  0  0  0  0
  2  3  1  0
  2  1  1  6
  4  8  1  0
  4  3  1  0
  5  4  2  0
  6  5  1  0
  6  7  1  0
  7  8  2  0
  9 10  2  0
  9  2  1  0
 12 14  1  0
 12 11  1  1
 13 12  1  0
 15 14  1  1
 15 16  1  0
 16  9  1  0
 17 18  2  0
 17 15  1  0
 19 17  1  0
 20 19  1  0
 20 21  1  6
 21 22  1  0
 22 26  1  0
 23 22  2  0
 24 25  1  0
 24 20  1  0
 27 24  2  0
M  END
$$$$
