HLD.pdb
     RDKit          3D

 27 27  0  0  1  0  0  0  0  0999 V2000
   27.1632  -19.3314  -15.3542 N   0  0  0  0  0  0  0  0  0  0  0  0
   26.6552  -20.5895  -15.8589 C   0  0  1  0  0  0  0  0  0  0  0  0
   27.8191  -21.5349  -16.0090 C   0  0  0  0  0  0  0  0  0  0  0  0
   28.6482  -21.0431  -17.1649 C   0  0  0  0  0  0  0  0  0  0  0  0
   28.3427  -19.9465  -17.9348 C   0  0  0  0  0  0  0  0  0  0  0  0
   29.3133  -19.8109  -18.8759 N   0  0  0  0  0  0  0  0  0  0  0  0
   30.1930  -20.7989  -18.6892 C   0  0  0  0  0  0  0  0  0  0  0  0
   29.7913  -21.5538  -17.6458 N   0  0  0  0  0  0  0  0  0  0  0  0
   25.6662  -21.1971  -14.9338 C   0  0  0  0  0  0  0  0  0  0  0  0
   25.2247  -22.3351  -15.1351 O   0  0  0  0  0  0  0  0  0  0  0  0
   26.1330  -20.2983   -9.6155 C   0  0  0  0  0  0  0  0  0  0  0  0
   25.8016  -20.8336  -10.9618 C   0  0  1  0  0  0  0  0  0  0  0  0
   25.9501  -22.3485  -11.0126 C   0  0  0  0  0  0  0  0  0  0  0  0
   24.4648  -20.4431  -11.5205 C   0  0  0  0  0  0  0  0  0  0  0  0
   24.1794  -20.8913  -12.9121 C   0  0  2  0  0  0  0  0  0  0  0  0
   25.2151  -20.4787  -13.8068 N   0  0  0  0  0  0  0  0  0  0  0  0
   22.8290  -20.4974  -13.3761 C   0  0  0  0  0  0  0  0  0  0  0  0
   22.5351  -19.2860  -13.4589 O   0  0  0  0  0  0  0  0  0  0  0  0
   21.8534  -21.4568  -13.7313 N   0  0  0  0  0  0  0  0  0  0  0  0
   20.5160  -21.0792  -14.1741 C   0  0  1  0  0  0  0  0  0  0  0  0
   19.9627  -22.0581  -15.1900 C   0  0  0  0  0  0  0  0  0  0  0  0
   18.5851  -21.6723  -15.5815 C   0  0  0  0  0  0  0  0  0  0  0  0
   18.0499  -20.5810  -15.3151 O   0  0  0  0  0  0  0  0  0  0  0  0
   19.6296  -21.0565  -12.9720 C   0  0  0  0  0  0  0  0  0  0  0  0
   18.7266  -20.0298  -12.7279 O   0  0  0  0  0  0  0  0  0  0  0  0
   17.8216  -22.5909  -16.3020 O   0  0  0  0  0  0  0  0  0  0  0  0
   19.6699  -21.9835  -12.1217 O   0  0  0  0  0  0  0  0  0  0  0  0
  2  3  1  0
  2  1  1  1
  4  8  1  0
  4  3  1  0
  5  4  2  0
  6  5  1  0
  6  7  1  0
  7  8  2  0
  9 10  2  0
  9  2  1  0
 12 14  1  0
 12 11  1  1
 13 12  1  0
 15 14  1  1
 15 16  1  0
 16  9  1  0
 17 18  2  0
 17 15  1  0
 19 17  1  0
 20 19  1  0
 20 21  1  6
 21 22  1  0
 22 26  1  0
 23 22  2  0
 24 25  1  0
 24 20  1  0
 27 24  2  0
M  END
$$$$
