HLD.pdb
     RDKit          3D

 27 27  0  0  1  0  0  0  0  0999 V2000
   27.4260  -20.5590  -16.3904 N   0  0  0  0  0  0  0  0  0  0  0  0
   26.5519  -19.6532  -15.6754 C   0  0  1  0  0  0  0  0  0  0  0  0
   25.9491  -18.7012  -16.6759 C   0  0  0  0  0  0  0  0  0  0  0  0
   27.0719  -17.8674  -17.2322 C   0  0  0  0  0  0  0  0  0  0  0  0
   27.6650  -16.8167  -16.5742 C   0  0  0  0  0  0  0  0  0  0  0  0
   28.6326  -16.3085  -17.3813 N   0  0  0  0  0  0  0  0  0  0  0  0
   28.6343  -17.0284  -18.5067 C   0  0  0  0  0  0  0  0  0  0  0  0
   27.6833  -17.9813  -18.4204 N   0  0  0  0  0  0  0  0  0  0  0  0
   25.4538  -20.3748  -14.9851 C   0  0  0  0  0  0  0  0  0  0  0  0
   24.8708  -21.3179  -15.5340 O   0  0  0  0  0  0  0  0  0  0  0  0
   26.0420  -20.4888   -9.5762 C   0  0  0  0  0  0  0  0  0  0  0  0
   25.7228  -20.7810  -10.9980 C   0  0  1  0  0  0  0  0  0  0  0  0
   26.0548  -22.2227  -11.3600 C   0  0  0  0  0  0  0  0  0  0  0  0
   24.3257  -20.4625  -11.4436 C   0  0  0  0  0  0  0  0  0  0  0  0
   24.0486  -20.6236  -12.8982 C   0  0  2  0  0  0  0  0  0  0  0  0
   25.0594  -19.9907  -13.6864 N   0  0  0  0  0  0  0  0  0  0  0  0
   22.6795  -20.1993  -13.2717 C   0  0  0  0  0  0  0  0  0  0  0  0
   22.3731  -18.9895  -13.2172 O   0  0  0  0  0  0  0  0  0  0  0  0
   21.6997  -21.1279  -13.6917 N   0  0  0  0  0  0  0  0  0  0  0  0
   20.3712  -20.7132  -14.1279 C   0  0  1  0  0  0  0  0  0  0  0  0
   20.0884  -21.1414  -15.5538 C   0  0  0  0  0  0  0  0  0  0  0  0
   20.4976  -22.5521  -15.7597 C   0  0  0  0  0  0  0  0  0  0  0  0
   21.6657  -22.9725  -15.6773 O   0  0  0  0  0  0  0  0  0  0  0  0
   19.3750  -21.3459  -13.2122 C   0  0  0  0  0  0  0  0  0  0  0  0
   18.0654  -20.8954  -13.1057 O   0  0  0  0  0  0  0  0  0  0  0  0
   19.5101  -23.4876  -16.0693 O   0  0  0  0  0  0  0  0  0  0  0  0
   19.6920  -22.3276  -12.4914 O   0  0  0  0  0  0  0  0  0  0  0  0
  2  3  1  0
  2  1  1  6
  4  8  1  0
  4  3  1  0
  5  4  2  0
  6  5  1  0
  6  7  1  0
  7  8  2  0
  9 10  2  0
  9  2  1  0
 12 14  1  0
 12 11  1  1
 13 12  1  0
 15 14  1  1
 15 16  1  0
 16  9  1  0
 17 18  2  0
 17 15  1  0
 19 17  1  0
 20 19  1  0
 20 21  1  6
 21 22  1  0
 22 26  1  0
 23 22  2  0
 24 25  1  0
 24 20  1  0
 27 24  2  0
M  END
$$$$
