HLD.pdb
     RDKit          3D

 27 27  0  0  1  0  0  0  0  0999 V2000
   21.3056  -11.5489  -19.5333 N   0  0  0  0  0  0  0  0  0  0  0  0
   22.5246  -10.7715  -19.4603 C   0  0  1  0  0  0  0  0  0  0  0  0
   22.4669   -9.7138  -20.5321 C   0  0  0  0  0  0  0  0  0  0  0  0
   22.7000  -10.4007  -21.8509 C   0  0  0  0  0  0  0  0  0  0  0  0
   23.1560  -11.6896  -21.9907 C   0  0  0  0  0  0  0  0  0  0  0  0
   23.2420  -11.9626  -23.3189 N   0  0  0  0  0  0  0  0  0  0  0  0
   22.8489  -10.8695  -23.9787 C   0  0  0  0  0  0  0  0  0  0  0  0
   22.5170   -9.9133  -23.0869 N   0  0  0  0  0  0  0  0  0  0  0  0
   22.6767  -10.1047  -18.1429 C   0  0  0  0  0  0  0  0  0  0  0  0
   21.6865   -9.8161  -17.4598 O   0  0  0  0  0  0  0  0  0  0  0  0
   27.3308  -11.2551  -15.4345 C   0  0  0  0  0  0  0  0  0  0  0  0
   25.9202  -10.9134  -15.7543 C   0  0  1  0  0  0  0  0  0  0  0  0
   24.9566  -11.5101  -14.7371 C   0  0  0  0  0  0  0  0  0  0  0  0
   25.6156   -9.4554  -15.9365 C   0  0  0  0  0  0  0  0  0  0  0  0
   24.2445   -9.1270  -16.4174 C   0  0  2  0  0  0  0  0  0  0  0  0
   23.9610   -9.7903  -17.6516 N   0  0  0  0  0  0  0  0  0  0  0  0
   23.9917   -7.6688  -16.4778 C   0  0  0  0  0  0  0  0  0  0  0  0
   24.3769   -7.0175  -17.4718 O   0  0  0  0  0  0  0  0  0  0  0  0
   23.3226   -6.9844  -15.4374 N   0  0  0  0  0  0  0  0  0  0  0  0
   22.9167   -5.5888  -15.5594 C   0  0  1  0  0  0  0  0  0  0  0  0
   21.9817   -5.3757  -16.7328 C   0  0  0  0  0  0  0  0  0  0  0  0
   21.5644   -3.9545  -16.8087 C   0  0  0  0  0  0  0  0  0  0  0  0
   22.3407   -2.9829  -16.7703 O   0  0  0  0  0  0  0  0  0  0  0  0
   22.2212   -5.2064  -14.2940 C   0  0  0  0  0  0  0  0  0  0  0  0
   21.9220   -6.1265  -13.2976 O   0  0  0  0  0  0  0  0  0  0  0  0
   20.2041   -3.6714  -16.9326 O   0  0  0  0  0  0  0  0  0  0  0  0
   21.8751   -4.0152  -14.0814 O   0  0  0  0  0  0  0  0  0  0  0  0
  2  3  1  0
  2  1  1  1
  4  8  1  0
  4  3  1  0
  5  4  2  0
  6  5  1  0
  6  7  1  0
  7  8  2  0
  9 10  2  0
  9  2  1  0
 12 14  1  0
 12 11  1  1
 13 12  1  0
 15 14  1  6
 15 16  1  0
 16  9  1  0
 17 18  2  0
 17 15  1  0
 19 17  1  0
 20 19  1  0
 20 21  1  6
 21 22  1  0
 22 26  1  0
 23 22  2  0
 24 25  1  0
 24 20  1  0
 27 24  2  0
M  END
$$$$
