HLD.pdb
     RDKit          3D

 27 27  0  0  1  0  0  0  0  0999 V2000
   27.8809  -21.1823  -15.9169 N   0  0  0  0  0  0  0  0  0  0  0  0
   27.2064  -20.2302  -15.0600 C   0  0  1  0  0  0  0  0  0  0  0  0
   26.6031  -19.1621  -15.9353 C   0  0  0  0  0  0  0  0  0  0  0  0
   27.7409  -18.3821  -16.5373 C   0  0  0  0  0  0  0  0  0  0  0  0
   29.0707  -18.6174  -16.2822 C   0  0  0  0  0  0  0  0  0  0  0  0
   29.8002  -17.7224  -16.9984 N   0  0  0  0  0  0  0  0  0  0  0  0
   28.9407  -16.9566  -17.6765 C   0  0  0  0  0  0  0  0  0  0  0  0
   27.6824  -17.3555  -17.3982 N   0  0  0  0  0  0  0  0  0  0  0  0
   26.1217  -20.8674  -14.2724 C   0  0  0  0  0  0  0  0  0  0  0  0
   25.5693  -21.8996  -14.6724 O   0  0  0  0  0  0  0  0  0  0  0  0
   26.6770  -20.4309   -8.9649 C   0  0  0  0  0  0  0  0  0  0  0  0
   26.3316  -20.8238  -10.3560 C   0  0  1  0  0  0  0  0  0  0  0  0
   26.6786  -22.2817  -10.6271 C   0  0  0  0  0  0  0  0  0  0  0  0
   24.9202  -20.5565  -10.7900 C   0  0  0  0  0  0  0  0  0  0  0  0
   24.6277  -20.7665  -12.2354 C   0  0  2  0  0  0  0  0  0  0  0  0
   25.7053  -20.2993  -13.0502 N   0  0  0  0  0  0  0  0  0  0  0  0
   23.3168  -20.2095  -12.6421 C   0  0  0  0  0  0  0  0  0  0  0  0
   23.2068  -18.9828  -12.8513 O   0  0  0  0  0  0  0  0  0  0  0  0
   22.1761  -21.0289  -12.8027 N   0  0  0  0  0  0  0  0  0  0  0  0
   21.0697  -20.6593  -13.6784 C   0  0  1  0  0  0  0  0  0  0  0  0
   21.4982  -20.5987  -15.1306 C   0  0  0  0  0  0  0  0  0  0  0  0
   20.3304  -20.3219  -16.0022 C   0  0  0  0  0  0  0  0  0  0  0  0
   19.4431  -19.4849  -15.7568 O   0  0  0  0  0  0  0  0  0  0  0  0
   20.0006  -21.6901  -13.5183 C   0  0  0  0  0  0  0  0  0  0  0  0
   20.2264  -23.0425  -13.7401 O   0  0  0  0  0  0  0  0  0  0  0  0
   20.2050  -21.0460  -17.1878 O   0  0  0  0  0  0  0  0  0  0  0  0
   18.8358  -21.3644  -13.1704 O   0  0  0  0  0  0  0  0  0  0  0  0
  2  3  1  0
  2  1  1  6
  4  8  1  0
  4  3  1  0
  5  4  2  0
  6  5  1  0
  6  7  1  0
  7  8  2  0
  9 10  2  0
  9  2  1  0
 12 14  1  0
 12 11  1  1
 13 12  1  0
 15 14  1  1
 15 16  1  0
 16  9  1  0
 17 18  2  0
 17 15  1  0
 19 17  1  0
 20 19  1  0
 20 21  1  6
 21 22  1  0
 22 26  1  0
 23 22  2  0
 24 25  1  0
 24 20  1  0
 27 24  2  0
M  END
$$$$
