HLD.pdb
     RDKit          3D

 27 27  0  0  1  0  0  0  0  0999 V2000
   22.1780  -12.9385  -19.3072 N   0  0  0  0  0  0  0  0  0  0  0  0
   23.1852  -12.0089  -19.7732 C   0  0  1  0  0  0  0  0  0  0  0  0
   22.8074  -11.5725  -21.1652 C   0  0  0  0  0  0  0  0  0  0  0  0
   22.8887  -12.7861  -22.0516 C   0  0  0  0  0  0  0  0  0  0  0  0
   24.0597  -13.3535  -22.4941 C   0  0  0  0  0  0  0  0  0  0  0  0
   23.7412  -14.4248  -23.2667 N   0  0  0  0  0  0  0  0  0  0  0  0
   22.4086  -14.5137  -23.2984 C   0  0  0  0  0  0  0  0  0  0  0  0
   21.8837  -13.5155  -22.5582 N   0  0  0  0  0  0  0  0  0  0  0  0
   23.2718  -10.8075  -18.9059 C   0  0  0  0  0  0  0  0  0  0  0  0
   22.2533  -10.1853  -18.5802 O   0  0  0  0  0  0  0  0  0  0  0  0
   27.9872  -10.4983  -15.9254 C   0  0  0  0  0  0  0  0  0  0  0  0
   26.5517  -10.4166  -16.3014 C   0  0  1  0  0  0  0  0  0  0  0  0
   25.6464  -10.5759  -15.0870 C   0  0  0  0  0  0  0  0  0  0  0  0
   26.1373   -9.2015  -17.0783 C   0  0  0  0  0  0  0  0  0  0  0  0
   24.7490   -9.2104  -17.6180 C   0  0  2  0  0  0  0  0  0  0  0  0
   24.5252  -10.3583  -18.4401 N   0  0  0  0  0  0  0  0  0  0  0  0
   24.3876   -7.9419  -18.2922 C   0  0  0  0  0  0  0  0  0  0  0  0
   24.7806   -7.7308  -19.4591 O   0  0  0  0  0  0  0  0  0  0  0  0
   23.6052   -6.9538  -17.6518 N   0  0  0  0  0  0  0  0  0  0  0  0
   23.1859   -5.7329  -18.3306 C   0  0  1  0  0  0  0  0  0  0  0  0
   22.1492   -6.0119  -19.4001 C   0  0  0  0  0  0  0  0  0  0  0  0
   21.7592   -4.7537  -20.0818 C   0  0  0  0  0  0  0  0  0  0  0  0
   22.2782   -3.6422  -19.8733 O   0  0  0  0  0  0  0  0  0  0  0  0
   22.6051   -4.8186  -17.3021 C   0  0  0  0  0  0  0  0  0  0  0  0
   22.3930   -5.2112  -15.9868 O   0  0  0  0  0  0  0  0  0  0  0  0
   20.7365   -4.8054  -21.0290 O   0  0  0  0  0  0  0  0  0  0  0  0
   22.2812   -3.6383  -17.5955 O   0  0  0  0  0  0  0  0  0  0  0  0
  2  3  1  0
  2  1  1  1
  4  8  1  0
  4  3  1  0
  5  4  2  0
  6  5  1  0
  6  7  1  0
  7  8  2  0
  9 10  2  0
  9  2  1  0
 12 14  1  0
 12 11  1  1
 13 12  1  0
 15 14  1  6
 15 16  1  0
 16  9  1  0
 17 18  2  0
 17 15  1  0
 19 17  1  0
 20 19  1  0
 20 21  1  6
 21 22  1  0
 22 26  1  0
 23 22  2  0
 24 25  1  0
 24 20  1  0
 27 24  2  0
M  END
$$$$
