HLD.pdb
     RDKit          3D

 27 27  0  0  1  0  0  0  0  0999 V2000
   16.9311  -12.7869    3.7642 N   0  0  0  0  0  0  0  0  0  0  0  0
   16.7970  -12.9556    5.1957 C   0  0  1  0  0  0  0  0  0  0  0  0
   15.6752  -13.9302    5.4464 C   0  0  0  0  0  0  0  0  0  0  0  0
   15.4099  -13.9349    6.9280 C   0  0  0  0  0  0  0  0  0  0  0  0
   14.6667  -12.9883    7.5916 C   0  0  0  0  0  0  0  0  0  0  0  0
   14.6456  -13.3193    8.9092 N   0  0  0  0  0  0  0  0  0  0  0  0
   15.3578  -14.4406    9.0519 C   0  0  0  0  0  0  0  0  0  0  0  0
   15.8264  -14.8202    7.8452 N   0  0  0  0  0  0  0  0  0  0  0  0
   18.0381  -13.4926    5.8076 C   0  0  0  0  0  0  0  0  0  0  0  0
   18.7165  -14.3456    5.2222 O   0  0  0  0  0  0  0  0  0  0  0  0
   21.1678   -9.9612    8.5765 C   0  0  0  0  0  0  0  0  0  0  0  0
   20.7320  -11.1364    7.7780 C   0  0  1  0  0  0  0  0  0  0  0  0
   21.8253  -11.6004    6.8246 C   0  0  0  0  0  0  0  0  0  0  0  0
   20.2140  -12.3112    8.5547 C   0  0  0  0  0  0  0  0  0  0  0  0
   19.6540  -13.4333    7.7510 C   0  0  2  0  0  0  0  0  0  0  0  0
   18.4611  -13.0332    7.0724 N   0  0  0  0  0  0  0  0  0  0  0  0
   19.4764  -14.6729    8.5422 C   0  0  0  0  0  0  0  0  0  0  0  0
   18.3261  -15.1189    8.7385 O   0  0  0  0  0  0  0  0  0  0  0  0
   20.5767  -15.3736    9.0872 N   0  0  0  0  0  0  0  0  0  0  0  0
   20.4149  -16.6151    9.8354 C   0  0  1  0  0  0  0  0  0  0  0  0
   19.4539  -17.5643    9.1487 C   0  0  0  0  0  0  0  0  0  0  0  0
   19.3011  -18.8079    9.9425 C   0  0  0  0  0  0  0  0  0  0  0  0
   19.2533  -18.8566   11.1849 O   0  0  0  0  0  0  0  0  0  0  0  0
   21.7585  -17.2590    9.9417 C   0  0  0  0  0  0  0  0  0  0  0  0
   21.9995  -18.3563   10.7584 O   0  0  0  0  0  0  0  0  0  0  0  0
   19.2026  -20.0198    9.2588 O   0  0  0  0  0  0  0  0  0  0  0  0
   22.7383  -16.8226    9.2832 O   0  0  0  0  0  0  0  0  0  0  0  0
  2  3  1  0
  2  1  1  6
  4  8  1  0
  4  3  1  0
  5  4  2  0
  6  5  1  0
  6  7  1  0
  7  8  2  0
  9 10  2  0
  9  2  1  0
 12 14  1  0
 12 11  1  1
 13 12  1  0
 15 14  1  1
 15 16  1  0
 16  9  1  0
 17 18  2  0
 17 15  1  0
 19 17  1  0
 20 19  1  0
 20 21  1  6
 21 22  1  0
 22 26  1  0
 23 22  2  0
 24 25  1  0
 24 20  1  0
 27 24  2  0
M  END
$$$$
