THR.pdb
     RDKit          3D

 29 29  0  0  1  0  0  0  0  0999 V2000
    8.3985  -11.8359   26.4706 C   0  0  0  0  0  0  0  0  0  0  0  0
    7.1018  -12.2591   27.0838 C   0  0  1  0  0  0  0  0  0  0  0  0
    6.5698  -11.3140   27.9622 O   0  0  0  0  0  0  0  0  0  0  0  0
    6.0885  -12.4396   25.9460 C   0  0  2  0  0  0  0  0  0  0  0  0
    4.7747  -12.7421   26.4843 N   0  0  0  0  0  0  0  0  0  0  0  0
    6.6052  -13.5511   25.1057 C   0  0  0  0  0  0  0  0  0  0  0  0
    6.2475  -14.7453   25.2661 O   0  0  0  0  0  0  0  0  0  0  0  0
    7.5408  -13.2112   24.0887 N   0  0  0  0  0  0  0  0  0  0  0  0
    8.1915  -14.1816   23.2659 C   0  0  1  0  0  0  0  0  0  0  0  0
    8.8633  -13.5643   22.0622 C   0  0  0  0  0  0  0  0  0  0  0  0
    8.1580  -13.9018   20.8004 C   0  0  0  0  0  0  0  0  0  0  0  0
    7.8725  -13.0034   19.7870 C   0  0  0  0  0  0  0  0  0  0  0  0
    7.2223  -13.6604   18.7914 N   0  0  0  0  0  0  0  0  0  0  0  0
    7.0987  -14.9278   19.1570 C   0  0  0  0  0  0  0  0  0  0  0  0
    7.6642  -15.0728   20.3708 N   0  0  0  0  0  0  0  0  0  0  0  0
    9.1951  -14.9090   24.0923 C   0  0  0  0  0  0  0  0  0  0  0  0
    9.8680  -14.2950   24.9702 O   0  0  0  0  0  0  0  0  0  0  0  0
   11.5457  -22.2417   23.5227 N   0  0  0  0  0  0  0  0  0  0  0  0
   11.2484  -22.5255   24.8760 C   0  0  0  0  0  0  0  0  0  0  0  0
   10.7556  -23.6329   25.2623 N   0  0  0  0  0  0  0  0  0  0  0  0
   11.5137  -21.5274   25.8368 N   0  0  0  0  0  0  0  0  0  0  0  0
   10.5432  -20.5218   26.2231 C   0  0  0  0  0  0  0  0  0  0  0  0
   11.0277  -19.1281   25.8852 C   0  0  0  0  0  0  0  0  0  0  0  0
    9.9970  -18.3464   25.1454 C   0  0  0  0  0  0  0  0  0  0  0  0
   10.4343  -16.9598   24.7325 C   0  0  2  0  0  0  0  0  0  0  0  0
    9.4342  -16.2987   23.9313 N   0  0  0  0  0  0  0  0  0  0  0  0
   11.7610  -16.9579   24.0843 C   0  0  0  0  0  0  0  0  0  0  0  0
   11.9019  -17.0988   22.8565 O   0  0  0  0  0  0  0  0  0  0  0  0
   12.8932  -16.7949   24.8566 O   0  0  0  0  0  0  0  0  0  0  0  0
  2  1  1  6
  2  3  1  0
  4  2  1  0
  4  5  1  1
  6  4  1  0
  7  6  2  0
  8  6  1  0
  9  8  1  0
 10 11  1  0
  9 10  1  6
 11 15  1  0
 12 11  2  0
 12 13  1  0
 13 14  1  0
 15 14  2  0
 16  9  1  0
 16 17  2  0
 19 18  1  0
 20 19  2  0
 21 19  1  0
 22 21  1  0
 23 22  1  0
 25 24  1  6
 24 23  1  0
 25 26  1  0
 26 16  1  0
 27 25  1  0
 28 27  2  0
 29 27  1  0
M  END
$$$$
