THR.pdb
     RDKit          3D

 29 29  0  0  1  0  0  0  0  0999 V2000
    7.7668  -16.9976   21.5664 C   0  0  0  0  0  0  0  0  0  0  0  0
    7.6463  -18.1756   20.6528 C   0  0  1  0  0  0  0  0  0  0  0  0
    6.6548  -19.0781   21.0402 O   0  0  0  0  0  0  0  0  0  0  0  0
    7.2599  -17.6477   19.2650 C   0  0  2  0  0  0  0  0  0  0  0  0
    7.0274  -18.7523   18.3523 N   0  0  0  0  0  0  0  0  0  0  0  0
    8.3928  -16.7965   18.8172 C   0  0  0  0  0  0  0  0  0  0  0  0
    9.4297  -17.2708   18.2881 O   0  0  0  0  0  0  0  0  0  0  0  0
    8.2626  -15.3928   19.0113 N   0  0  0  0  0  0  0  0  0  0  0  0
    9.3088  -14.4616   18.7276 C   0  0  1  0  0  0  0  0  0  0  0  0
    8.7879  -13.1526   18.1831 C   0  0  0  0  0  0  0  0  0  0  0  0
    8.4751  -13.2406   16.7347 C   0  0  0  0  0  0  0  0  0  0  0  0
    8.6697  -14.3629   15.9484 C   0  0  0  0  0  0  0  0  0  0  0  0
    8.2739  -14.0812   14.6797 N   0  0  0  0  0  0  0  0  0  0  0  0
    7.8439  -12.8283   14.6593 C   0  0  0  0  0  0  0  0  0  0  0  0
    7.9658  -12.3211   15.9010 N   0  0  0  0  0  0  0  0  0  0  0  0
   10.0828  -14.2214   19.9776 C   0  0  0  0  0  0  0  0  0  0  0  0
    9.4848  -13.9541   21.0600 O   0  0  0  0  0  0  0  0  0  0  0  0
   11.2459  -20.7151   24.1441 N   0  0  0  0  0  0  0  0  0  0  0  0
   12.1542  -19.8908   24.8483 C   0  0  0  0  0  0  0  0  0  0  0  0
   12.6766  -20.2227   25.9598 N   0  0  0  0  0  0  0  0  0  0  0  0
   12.4914  -18.6426   24.2845 N   0  0  0  0  0  0  0  0  0  0  0  0
   11.7758  -18.0592   23.1665 C   0  0  0  0  0  0  0  0  0  0  0  0
   12.4151  -16.7626   22.7176 C   0  0  0  0  0  0  0  0  0  0  0  0
   11.6517  -16.1215   21.6101 C   0  0  0  0  0  0  0  0  0  0  0  0
   12.1825  -14.7746   21.1763 C   0  0  2  0  0  0  0  0  0  0  0  0
   11.5005  -14.2813   20.0055 N   0  0  0  0  0  0  0  0  0  0  0  0
   13.6497  -14.7749   21.0101 C   0  0  0  0  0  0  0  0  0  0  0  0
   14.4287  -14.8756   21.9747 O   0  0  0  0  0  0  0  0  0  0  0  0
   14.1893  -14.6600   19.7449 O   0  0  0  0  0  0  0  0  0  0  0  0
  2  1  1  1
  2  3  1  0
  4  2  1  0
  4  5  1  6
  6  4  1  0
  7  6  2  0
  8  6  1  0
  9  8  1  0
 10 11  1  0
  9 10  1  1
 11 15  1  0
 12 11  2  0
 12 13  1  0
 13 14  1  0
 15 14  2  0
 16  9  1  0
 16 17  2  0
 19 18  1  0
 20 19  2  0
 21 19  1  0
 22 21  1  0
 23 22  1  0
 25 24  1  6
 24 23  1  0
 25 26  1  0
 26 16  1  0
 27 25  1  0
 28 27  2  0
 29 27  1  0
M  END
$$$$
