THR.pdb
     RDKit          3D

 29 29  0  0  1  0  0  0  0  0999 V2000
    7.5921  -14.6378   15.2657 C   0  0  0  0  0  0  0  0  0  0  0  0
    8.2647  -14.6788   16.6008 C   0  0  1  0  0  0  0  0  0  0  0  0
    9.6564  -14.6084   16.5224 O   0  0  0  0  0  0  0  0  0  0  0  0
    7.7940  -13.4530   17.3944 C   0  0  2  0  0  0  0  0  0  0  0  0
    8.2653  -12.2331   16.7643 N   0  0  0  0  0  0  0  0  0  0  0  0
    8.3478  -13.6109   18.7644 C   0  0  0  0  0  0  0  0  0  0  0  0
    9.5005  -13.2208   19.0791 O   0  0  0  0  0  0  0  0  0  0  0  0
    7.5103  -14.2331   19.7322 N   0  0  0  0  0  0  0  0  0  0  0  0
    7.9547  -14.5840   21.0442 C   0  0  1  0  0  0  0  0  0  0  0  0
    6.8977  -15.3143   21.8385 C   0  0  0  0  0  0  0  0  0  0  0  0
    7.3780  -15.6801   23.1945 C   0  0  0  0  0  0  0  0  0  0  0  0
    8.6306  -15.3781   23.7001 C   0  0  0  0  0  0  0  0  0  0  0  0
    8.7200  -15.8656   24.9650 N   0  0  0  0  0  0  0  0  0  0  0  0
    7.5691  -16.4549   25.2533 C   0  0  0  0  0  0  0  0  0  0  0  0
    6.7589  -16.3425   24.1833 N   0  0  0  0  0  0  0  0  0  0  0  0
    9.1750  -15.4297   20.9220 C   0  0  0  0  0  0  0  0  0  0  0  0
    9.3956  -16.0868   19.8637 O   0  0  0  0  0  0  0  0  0  0  0  0
   15.6055  -13.3959   17.0850 N   0  0  0  0  0  0  0  0  0  0  0  0
   16.1082  -14.5905   17.6512 C   0  0  0  0  0  0  0  0  0  0  0  0
   17.2225  -15.1042   17.3153 N   0  0  0  0  0  0  0  0  0  0  0  0
   15.3304  -15.2371   18.6343 N   0  0  0  0  0  0  0  0  0  0  0  0
   14.0065  -14.7877   19.0190 C   0  0  0  0  0  0  0  0  0  0  0  0
   13.4715  -15.5841   20.1899 C   0  0  0  0  0  0  0  0  0  0  0  0
   12.0914  -15.1638   20.5628 C   0  0  0  0  0  0  0  0  0  0  0  0
   11.4733  -15.9594   21.6893 C   0  0  2  0  0  0  0  0  0  0  0  0
   10.1254  -15.5317   21.9711 N   0  0  0  0  0  0  0  0  0  0  0  0
   12.3199  -15.9731   22.8990 C   0  0  0  0  0  0  0  0  0  0  0  0
   13.4747  -16.4356   22.8979 O   0  0  0  0  0  0  0  0  0  0  0  0
   11.8246  -15.4578   24.0798 O   0  0  0  0  0  0  0  0  0  0  0  0
  2  1  1  6
  2  3  1  0
  4  2  1  0
  4  5  1  6
  6  4  1  0
  7  6  2  0
  8  6  1  0
  9  8  1  0
 10 11  1  0
  9 10  1  6
 11 15  1  0
 12 11  2  0
 12 13  1  0
 13 14  1  0
 15 14  2  0
 16  9  1  0
 16 17  2  0
 19 18  1  0
 20 19  2  0
 21 19  1  0
 22 21  1  0
 23 22  1  0
 25 24  1  6
 24 23  1  0
 25 26  1  0
 26 16  1  0
 27 25  1  0
 28 27  2  0
 29 27  1  0
M  END
$$$$
