THR.pdb
     RDKit          3D

 29 29  0  0  1  0  0  0  0  0999 V2000
    6.5133  -21.9243   18.2184 C   0  0  0  0  0  0  0  0  0  0  0  0
    7.4468  -20.8426   18.6601 C   0  0  1  0  0  0  0  0  0  0  0  0
    8.6837  -21.3214   19.0946 O   0  0  0  0  0  0  0  0  0  0  0  0
    7.7122  -19.9373   17.4501 C   0  0  2  0  0  0  0  0  0  0  0  0
    8.5257  -20.6325   16.4692 N   0  0  0  0  0  0  0  0  0  0  0  0
    8.4029  -18.7328   17.9797 C   0  0  0  0  0  0  0  0  0  0  0  0
    9.6552  -18.6352   18.0276 O   0  0  0  0  0  0  0  0  0  0  0  0
    7.5806  -17.6672   18.4419 N   0  0  0  0  0  0  0  0  0  0  0  0
    8.0970  -16.5014   19.0871 C   0  0  1  0  0  0  0  0  0  0  0  0
    7.1524  -15.3257   19.0029 C   0  0  0  0  0  0  0  0  0  0  0  0
    7.7345  -14.1031   19.6109 C   0  0  0  0  0  0  0  0  0  0  0  0
    7.3194  -13.5359   20.8033 C   0  0  0  0  0  0  0  0  0  0  0  0
    8.0736  -12.4328   21.0480 N   0  0  0  0  0  0  0  0  0  0  0  0
    8.9352  -12.3029   20.0501 C   0  0  0  0  0  0  0  0  0  0  0  0
    8.7298  -13.3122   19.1824 N   0  0  0  0  0  0  0  0  0  0  0  0
    8.3741  -16.8311   20.5132 C   0  0  0  0  0  0  0  0  0  0  0  0
    7.5192  -17.4580   21.2035 O   0  0  0  0  0  0  0  0  0  0  0  0
   15.1106  -19.0728   22.2280 N   0  0  0  0  0  0  0  0  0  0  0  0
   14.5029  -19.4420   21.0053 C   0  0  0  0  0  0  0  0  0  0  0  0
   15.1645  -19.6950   19.9485 N   0  0  0  0  0  0  0  0  0  0  0  0
   13.0959  -19.5314   20.9642 N   0  0  0  0  0  0  0  0  0  0  0  0
   12.2354  -18.9511   21.9768 C   0  0  0  0  0  0  0  0  0  0  0  0
   12.1320  -17.4491   21.8191 C   0  0  0  0  0  0  0  0  0  0  0  0
   11.2778  -16.8376   22.8759 C   0  0  0  0  0  0  0  0  0  0  0  0
    9.8062  -16.7732   22.5373 C   0  0  2  0  0  0  0  0  0  0  0  0
    9.5893  -16.4613   21.1464 N   0  0  0  0  0  0  0  0  0  0  0  0
    9.0612  -15.8688   23.4359 C   0  0  0  0  0  0  0  0  0  0  0  0
    8.8687  -16.1333   24.6360 O   0  0  0  0  0  0  0  0  0  0  0  0
    8.5549  -14.6847   22.9393 O   0  0  0  0  0  0  0  0  0  0  0  0
  2  1  1  6
  2  3  1  0
  4  2  1  0
  4  5  1  6
  6  4  1  0
  7  6  2  0
  8  6  1  0
  9  8  1  0
 10 11  1  0
  9 10  1  1
 11 15  1  0
 12 11  2  0
 12 13  1  0
 13 14  1  0
 15 14  2  0
 16  9  1  0
 16 17  2  0
 19 18  1  0
 20 19  2  0
 21 19  1  0
 22 21  1  0
 23 22  1  0
 25 24  1  1
 24 23  1  0
 25 26  1  0
 26 16  1  0
 27 25  1  0
 28 27  2  0
 29 27  1  0
M  END
$$$$
