THR.pdb
     RDKit          3D

 29 29  0  0  1  0  0  0  0  0999 V2000
    7.9591  -18.1556   12.9650 C   0  0  0  0  0  0  0  0  0  0  0  0
    8.6279  -17.4502   14.1016 C   0  0  1  0  0  0  0  0  0  0  0  0
   10.0198  -17.5482   14.0724 O   0  0  0  0  0  0  0  0  0  0  0  0
    8.2772  -15.9605   13.9928 C   0  0  2  0  0  0  0  0  0  0  0  0
    8.8694  -15.3892   12.7969 N   0  0  0  0  0  0  0  0  0  0  0  0
    8.8067  -15.3209   15.2253 C   0  0  0  0  0  0  0  0  0  0  0  0
    9.9554  -14.8144   15.2866 O   0  0  0  0  0  0  0  0  0  0  0  0
    7.9501  -15.2998   16.3616 N   0  0  0  0  0  0  0  0  0  0  0  0
    8.2820  -14.6335   17.5814 C   0  0  1  0  0  0  0  0  0  0  0  0
    7.1882  -14.7419   18.6174 C   0  0  0  0  0  0  0  0  0  0  0  0
    7.5364  -14.0216   19.8678 C   0  0  0  0  0  0  0  0  0  0  0  0
    8.7119  -13.3220   20.0785 C   0  0  0  0  0  0  0  0  0  0  0  0
    8.6874  -12.7940   21.3300 N   0  0  0  0  0  0  0  0  0  0  0  0
    7.5408  -13.1440   21.8939 C   0  0  0  0  0  0  0  0  0  0  0  0
    6.8461  -13.8856   21.0100 N   0  0  0  0  0  0  0  0  0  0  0  0
    9.5461  -15.2163   18.1122 C   0  0  0  0  0  0  0  0  0  0  0  0
    9.7875  -16.4510   17.9795 O   0  0  0  0  0  0  0  0  0  0  0  0
   17.8549  -12.6685   17.5674 N   0  0  0  0  0  0  0  0  0  0  0  0
   17.9000  -13.9729   18.1127 C   0  0  0  0  0  0  0  0  0  0  0  0
   18.9762  -14.6416   18.2279 N   0  0  0  0  0  0  0  0  0  0  0  0
   16.6896  -14.5526   18.5466 N   0  0  0  0  0  0  0  0  0  0  0  0
   15.3970  -13.9242   18.3552 C   0  0  0  0  0  0  0  0  0  0  0  0
   14.2863  -14.7465   18.9729 C   0  0  0  0  0  0  0  0  0  0  0  0
   12.9460  -14.1445   18.7245 C   0  0  0  0  0  0  0  0  0  0  0  0
   11.7801  -14.9982   19.1673 C   0  0  2  0  0  0  0  0  0  0  0  0
   10.5163  -14.4231   18.7785 N   0  0  0  0  0  0  0  0  0  0  0  0
   11.8302  -15.3152   20.6086 C   0  0  0  0  0  0  0  0  0  0  0  0
   12.8187  -15.8543   21.1374 O   0  0  0  0  0  0  0  0  0  0  0  0
   10.7486  -15.0079   21.4090 O   0  0  0  0  0  0  0  0  0  0  0  0
  2  1  1  6
  2  3  1  0
  4  2  1  0
  4  5  1  6
  6  4  1  0
  7  6  2  0
  8  6  1  0
  9  8  1  0
 10 11  1  0
  9 10  1  1
 11 15  1  0
 12 11  2  0
 12 13  1  0
 13 14  1  0
 15 14  2  0
 16  9  1  0
 16 17  2  0
 19 18  1  0
 20 19  2  0
 21 19  1  0
 22 21  1  0
 23 22  1  0
 25 24  1  1
 24 23  1  0
 25 26  1  0
 26 16  1  0
 27 25  1  0
 28 27  2  0
 29 27  1  0
M  END
$$$$
