THR.pdb
     RDKit          3D

 29 29  0  0  1  0  0  0  0  0999 V2000
    8.1789  -12.8899   20.0537 C   0  0  0  0  0  0  0  0  0  0  0  0
    7.5257  -13.7917   19.0554 C   0  0  1  0  0  0  0  0  0  0  0  0
    6.6412  -13.1276   18.2043 O   0  0  0  0  0  0  0  0  0  0  0  0
    8.6329  -14.3909   18.1785 C   0  0  2  0  0  0  0  0  0  0  0  0
    8.0586  -15.2470   17.1564 N   0  0  0  0  0  0  0  0  0  0  0  0
    9.5192  -15.1528   19.0964 C   0  0  0  0  0  0  0  0  0  0  0  0
    9.3038  -16.3514   19.4076 O   0  0  0  0  0  0  0  0  0  0  0  0
   10.6475  -14.4647   19.6243 N   0  0  0  0  0  0  0  0  0  0  0  0
   11.6387  -15.0935   20.4393 C   0  0  1  0  0  0  0  0  0  0  0  0
   12.9345  -14.3184   20.4781 C   0  0  0  0  0  0  0  0  0  0  0  0
   13.7513  -14.5439   19.2594 C   0  0  0  0  0  0  0  0  0  0  0  0
   13.8825  -15.7571   18.6062 C   0  0  0  0  0  0  0  0  0  0  0  0
   14.7022  -15.5903   17.5358 N   0  0  0  0  0  0  0  0  0  0  0  0
   15.0781  -14.3203   17.5087 C   0  0  0  0  0  0  0  0  0  0  0  0
   14.5034  -13.6888   18.5502 N   0  0  0  0  0  0  0  0  0  0  0  0
   11.0941  -15.2449   21.8176 C   0  0  0  0  0  0  0  0  0  0  0  0
   10.5067  -14.2782   22.3841 O   0  0  0  0  0  0  0  0  0  0  0  0
    5.6326  -20.8979   23.4408 N   0  0  0  0  0  0  0  0  0  0  0  0
    6.0409  -20.4511   22.1625 C   0  0  0  0  0  0  0  0  0  0  0  0
    5.4533  -20.7912   21.0865 N   0  0  0  0  0  0  0  0  0  0  0  0
    7.1536  -19.5878   22.0857 N   0  0  0  0  0  0  0  0  0  0  0  0
    7.8938  -19.1441   23.2509 C   0  0  0  0  0  0  0  0  0  0  0  0
    9.0317  -18.2234   22.8648 C   0  0  0  0  0  0  0  0  0  0  0  0
    9.8625  -17.8439   24.0422 C   0  0  0  0  0  0  0  0  0  0  0  0
   10.6572  -16.5701   23.8681 C   0  0  2  0  0  0  0  0  0  0  0  0
   11.2102  -16.4605   22.5410 N   0  0  0  0  0  0  0  0  0  0  0  0
   11.6823  -16.3986   24.9169 C   0  0  0  0  0  0  0  0  0  0  0  0
   12.9006  -16.4206   24.6666 O   0  0  0  0  0  0  0  0  0  0  0  0
   11.2884  -16.2065   26.2257 O   0  0  0  0  0  0  0  0  0  0  0  0
  2  1  1  1
  2  3  1  0
  4  2  1  0
  4  5  1  6
  6  4  1  0
  7  6  2  0
  8  6  1  0
  9  8  1  0
 10 11  1  0
  9 10  1  1
 11 15  1  0
 12 11  2  0
 12 13  1  0
 13 14  1  0
 15 14  2  0
 16  9  1  0
 16 17  2  0
 19 18  1  0
 20 19  2  0
 21 19  1  0
 22 21  1  0
 23 22  1  0
 25 24  1  6
 24 23  1  0
 25 26  1  0
 26 16  1  0
 27 25  1  0
 28 27  2  0
 29 27  1  0
M  END
$$$$
