THR.pdb
     RDKit          3D

 29 29  0  0  1  0  0  0  0  0999 V2000
   10.8139  -18.7788   15.5853 C   0  0  0  0  0  0  0  0  0  0  0  0
   11.2557  -17.7320   14.6128 C   0  0  1  0  0  0  0  0  0  0  0  0
   11.0948  -18.1114   13.2794 O   0  0  0  0  0  0  0  0  0  0  0  0
   10.3814  -16.4916   14.8386 C   0  0  2  0  0  0  0  0  0  0  0  0
   10.5703  -15.5386   13.7600 N   0  0  0  0  0  0  0  0  0  0  0  0
   10.7980  -15.9260   16.1482 C   0  0  0  0  0  0  0  0  0  0  0  0
   11.9011  -15.3476   16.3171 O   0  0  0  0  0  0  0  0  0  0  0  0
    9.8852  -16.0636   17.2313 N   0  0  0  0  0  0  0  0  0  0  0  0
   10.1415  -15.5558   18.5421 C   0  0  1  0  0  0  0  0  0  0  0  0
    8.9174  -15.5888   19.4264 C   0  0  0  0  0  0  0  0  0  0  0  0
    7.9216  -14.5610   19.0321 C   0  0  0  0  0  0  0  0  0  0  0  0
    8.1090  -13.6155   18.0388 C   0  0  0  0  0  0  0  0  0  0  0  0
    6.9935  -12.8448   17.9537 N   0  0  0  0  0  0  0  0  0  0  0  0
    6.1297  -13.2828   18.8575 C   0  0  0  0  0  0  0  0  0  0  0  0
    6.6911  -14.3195   19.5087 N   0  0  0  0  0  0  0  0  0  0  0  0
   11.2358  -16.3583   19.1568 C   0  0  0  0  0  0  0  0  0  0  0  0
   11.8982  -17.1791   18.4584 O   0  0  0  0  0  0  0  0  0  0  0  0
   16.2529  -15.8696   16.7654 N   0  0  0  0  0  0  0  0  0  0  0  0
   17.0488  -15.2177   17.7361 C   0  0  0  0  0  0  0  0  0  0  0  0
   18.2574  -15.5368   17.9727 N   0  0  0  0  0  0  0  0  0  0  0  0
   16.4669  -14.1650   18.4727 N   0  0  0  0  0  0  0  0  0  0  0  0
   15.0482  -13.8670   18.4429 C   0  0  0  0  0  0  0  0  0  0  0  0
   14.2268  -15.0417   18.9296 C   0  0  0  0  0  0  0  0  0  0  0  0
   13.4412  -14.7022   20.1495 C   0  0  0  0  0  0  0  0  0  0  0  0
   12.9215  -15.8963   20.9165 C   0  0  2  0  0  0  0  0  0  0  0  0
   11.5749  -16.2372   20.5297 N   0  0  0  0  0  0  0  0  0  0  0  0
   13.0583  -15.7297   22.3773 C   0  0  0  0  0  0  0  0  0  0  0  0
   14.0736  -16.0945   22.9965 O   0  0  0  0  0  0  0  0  0  0  0  0
   12.0305  -15.1501   23.0933 O   0  0  0  0  0  0  0  0  0  0  0  0
  2  1  1  1
  2  3  1  0
  4  2  1  0
  4  5  1  6
  6  4  1  0
  7  6  2  0
  8  6  1  0
  9  8  1  0
 10 11  1  0
  9 10  1  1
 11 15  1  0
 12 11  2  0
 12 13  1  0
 13 14  1  0
 15 14  2  0
 16  9  1  0
 16 17  2  0
 19 18  1  0
 20 19  2  0
 21 19  1  0
 22 21  1  0
 23 22  1  0
 25 24  1  6
 24 23  1  0
 25 26  1  0
 26 16  1  0
 27 25  1  0
 28 27  2  0
 29 27  1  0
M  END
$$$$
