THR.pdb
     RDKit          3D

 29 29  0  0  1  0  0  0  0  0999 V2000
    7.0572  -20.2603   17.6407 C   0  0  0  0  0  0  0  0  0  0  0  0
    7.7138  -18.9907   18.0808 C   0  0  1  0  0  0  0  0  0  0  0  0
    7.0816  -17.8438   17.5984 O   0  0  0  0  0  0  0  0  0  0  0  0
    7.6394  -18.9376   19.6124 C   0  0  2  0  0  0  0  0  0  0  0  0
    6.2582  -18.8321   20.0466 N   0  0  0  0  0  0  0  0  0  0  0  0
    8.4347  -17.7513   20.0233 C   0  0  0  0  0  0  0  0  0  0  0  0
    9.6197  -17.5659   19.6473 O   0  0  0  0  0  0  0  0  0  0  0  0
    7.7955  -16.8089   20.8768 N   0  0  0  0  0  0  0  0  0  0  0  0
    8.4020  -15.5798   21.2812 C   0  0  1  0  0  0  0  0  0  0  0  0
    7.5449  -14.3778   20.9621 C   0  0  0  0  0  0  0  0  0  0  0  0
    7.7452  -13.9092   19.5680 C   0  0  0  0  0  0  0  0  0  0  0  0
    8.6666  -14.4356   18.6793 C   0  0  0  0  0  0  0  0  0  0  0  0
    8.5706  -13.7644   17.5021 N   0  0  0  0  0  0  0  0  0  0  0  0
    7.6248  -12.8466   17.6362 C   0  0  0  0  0  0  0  0  0  0  0  0
    7.1267  -12.9346   18.8844 N   0  0  0  0  0  0  0  0  0  0  0  0
    8.6688  -15.6411   22.7456 C   0  0  0  0  0  0  0  0  0  0  0  0
    7.7123  -15.6063   23.5729 O   0  0  0  0  0  0  0  0  0  0  0  0
    8.3378  -23.0365   24.4390 N   0  0  0  0  0  0  0  0  0  0  0  0
    7.6416  -21.9601   25.0368 C   0  0  0  0  0  0  0  0  0  0  0  0
    6.4220  -22.0322   25.3915 N   0  0  0  0  0  0  0  0  0  0  0  0
    8.3402  -20.7527   25.2457 N   0  0  0  0  0  0  0  0  0  0  0  0
    9.6239  -20.4646   24.6361 C   0  0  0  0  0  0  0  0  0  0  0  0
   10.1262  -19.0918   25.0291 C   0  0  0  0  0  0  0  0  0  0  0  0
    9.8240  -18.0707   23.9867 C   0  0  0  0  0  0  0  0  0  0  0  0
   10.2796  -16.6702   24.3260 C   0  0  2  0  0  0  0  0  0  0  0  0
    9.9860  -15.7391   23.2649 N   0  0  0  0  0  0  0  0  0  0  0  0
   11.6977  -16.6232   24.7346 C   0  0  0  0  0  0  0  0  0  0  0  0
   12.1272  -17.2481   25.7207 O   0  0  0  0  0  0  0  0  0  0  0  0
   12.5892  -15.8628   24.0051 O   0  0  0  0  0  0  0  0  0  0  0  0
  2  1  1  6
  2  3  1  0
  4  2  1  0
  4  5  1  6
  6  4  1  0
  7  6  2  0
  8  6  1  0
  9  8  1  0
 10 11  1  0
  9 10  1  1
 11 15  1  0
 12 11  2  0
 12 13  1  0
 13 14  1  0
 15 14  2  0
 16  9  1  0
 16 17  2  0
 19 18  1  0
 20 19  2  0
 21 19  1  0
 22 21  1  0
 23 22  1  0
 25 24  1  6
 24 23  1  0
 25 26  1  0
 26 16  1  0
 27 25  1  0
 28 27  2  0
 29 27  1  0
M  END
$$$$
