THR.pdb
     RDKit          3D

 29 29  0  0  1  0  0  0  0  0999 V2000
    8.0724  -20.3354   17.5802 C   0  0  0  0  0  0  0  0  0  0  0  0
    8.8381  -19.4512   18.5122 C   0  0  1  0  0  0  0  0  0  0  0  0
   10.2111  -19.7013   18.5105 O   0  0  0  0  0  0  0  0  0  0  0  0
    8.6417  -18.0036   18.0434 C   0  0  2  0  0  0  0  0  0  0  0  0
    9.2228  -17.8170   16.7263 N   0  0  0  0  0  0  0  0  0  0  0  0
    9.3046  -17.1468   19.0607 C   0  0  0  0  0  0  0  0  0  0  0  0
   10.4348  -16.6280   18.8780 O   0  0  0  0  0  0  0  0  0  0  0  0
    8.6012  -16.9273   20.2782 N   0  0  0  0  0  0  0  0  0  0  0  0
    9.0795  -16.0699   21.3165 C   0  0  1  0  0  0  0  0  0  0  0  0
    8.0341  -15.0842   21.7822 C   0  0  0  0  0  0  0  0  0  0  0  0
    7.6936  -14.0980   20.7263 C   0  0  0  0  0  0  0  0  0  0  0  0
    8.3593  -12.9034   20.5128 C   0  0  0  0  0  0  0  0  0  0  0  0
    7.7771  -12.2599   19.4677 N   0  0  0  0  0  0  0  0  0  0  0  0
    6.7796  -13.0155   19.0327 C   0  0  0  0  0  0  0  0  0  0  0  0
    6.7297  -14.1257   19.7936 N   0  0  0  0  0  0  0  0  0  0  0  0
    9.5295  -16.9131   22.4593 C   0  0  0  0  0  0  0  0  0  0  0  0
    8.8420  -17.9080   22.8310 O   0  0  0  0  0  0  0  0  0  0  0  0
   17.9360  -19.2015   23.2074 N   0  0  0  0  0  0  0  0  0  0  0  0
   17.1944  -20.2486   23.8026 C   0  0  0  0  0  0  0  0  0  0  0  0
   17.7089  -21.3638   24.1341 N   0  0  0  0  0  0  0  0  0  0  0  0
   15.8194  -20.0381   24.0357 N   0  0  0  0  0  0  0  0  0  0  0  0
   15.1163  -18.8454   23.6049 C   0  0  0  0  0  0  0  0  0  0  0  0
   13.6588  -18.8862   24.0118 C   0  0  0  0  0  0  0  0  0  0  0  0
   12.9030  -17.7143   23.4866 C   0  0  0  0  0  0  0  0  0  0  0  0
   11.4332  -17.7035   23.8386 C   0  0  2  0  0  0  0  0  0  0  0  0
   10.7288  -16.6395   23.1671 N   0  0  0  0  0  0  0  0  0  0  0  0
   11.2041  -17.6922   25.2973 C   0  0  0  0  0  0  0  0  0  0  0  0
   11.4615  -18.6721   26.0190 O   0  0  0  0  0  0  0  0  0  0  0  0
   10.6861  -16.5605   25.8940 O   0  0  0  0  0  0  0  0  0  0  0  0
  2  1  1  6
  2  3  1  0
  4  2  1  0
  4  5  1  6
  6  4  1  0
  7  6  2  0
  8  6  1  0
  9  8  1  0
 10 11  1  0
  9 10  1  1
 11 15  1  0
 12 11  2  0
 12 13  1  0
 13 14  1  0
 15 14  2  0
 16  9  1  0
 16 17  2  0
 19 18  1  0
 20 19  2  0
 21 19  1  0
 22 21  1  0
 23 22  1  0
 25 24  1  1
 24 23  1  0
 25 26  1  0
 26 16  1  0
 27 25  1  0
 28 27  2  0
 29 27  1  0
M  END
$$$$
