THR.pdb
     RDKit          3D

 29 29  0  0  1  0  0  0  0  0999 V2000
   10.3510  -27.4726   12.4823 C   0  0  0  0  0  0  0  0  0  0  0  0
   11.0369  -26.1698   12.7447 C   0  0  1  0  0  0  0  0  0  0  0  0
   11.5976  -25.5987   11.6014 O   0  0  0  0  0  0  0  0  0  0  0  0
    9.9810  -25.1879   13.2692 C   0  0  2  0  0  0  0  0  0  0  0  0
    9.1206  -24.7471   12.1863 N   0  0  0  0  0  0  0  0  0  0  0  0
   10.7329  -24.0542   13.8674 C   0  0  0  0  0  0  0  0  0  0  0  0
   11.4272  -23.2631   13.1804 O   0  0  0  0  0  0  0  0  0  0  0  0
   10.6388  -23.8889   15.2778 N   0  0  0  0  0  0  0  0  0  0  0  0
   11.2405  -22.8005   15.9815 C   0  0  1  0  0  0  0  0  0  0  0  0
   10.2414  -22.0143   16.7971 C   0  0  0  0  0  0  0  0  0  0  0  0
    9.3771  -21.1622   15.9424 C   0  0  0  0  0  0  0  0  0  0  0  0
    9.7705  -19.9734   15.3529 C   0  0  0  0  0  0  0  0  0  0  0  0
    8.7254  -19.4697   14.6460 N   0  0  0  0  0  0  0  0  0  0  0  0
    7.7064  -20.3056   14.7804 C   0  0  0  0  0  0  0  0  0  0  0  0
    8.1008  -21.3277   15.5637 N   0  0  0  0  0  0  0  0  0  0  0  0
   12.3091  -23.3407   16.8679 C   0  0  0  0  0  0  0  0  0  0  0  0
   12.1229  -24.4105   17.5169 O   0  0  0  0  0  0  0  0  0  0  0  0
   21.1131  -21.7649   17.7748 N   0  0  0  0  0  0  0  0  0  0  0  0
   20.8400  -22.9408   18.5121 C   0  0  0  0  0  0  0  0  0  0  0  0
   21.7451  -23.6322   19.0788 N   0  0  0  0  0  0  0  0  0  0  0  0
   19.4974  -23.3598   18.6188 N   0  0  0  0  0  0  0  0  0  0  0  0
   18.3994  -22.6749   17.9649 C   0  0  0  0  0  0  0  0  0  0  0  0
   17.0785  -23.3614   18.2393 C   0  0  0  0  0  0  0  0  0  0  0  0
   15.9410  -22.6602   17.5799 C   0  0  0  0  0  0  0  0  0  0  0  0
   14.5836  -23.2656   17.8541 C   0  0  2  0  0  0  0  0  0  0  0  0
   13.5602  -22.6877   17.0187 N   0  0  0  0  0  0  0  0  0  0  0  0
   14.2269  -23.2220   19.2862 C   0  0  0  0  0  0  0  0  0  0  0  0
   14.3573  -24.2069   20.0348 O   0  0  0  0  0  0  0  0  0  0  0  0
   13.7299  -22.0531   19.8265 O   0  0  0  0  0  0  0  0  0  0  0  0
  2  1  1  6
  2  3  1  0
  4  2  1  0
  4  5  1  6
  6  4  1  0
  7  6  2  0
  8  6  1  0
  9  8  1  0
 10 11  1  0
  9 10  1  1
 11 15  1  0
 12 11  2  0
 12 13  1  0
 13 14  1  0
 15 14  2  0
 16  9  1  0
 16 17  2  0
 19 18  1  0
 20 19  2  0
 21 19  1  0
 22 21  1  0
 23 22  1  0
 25 24  1  1
 24 23  1  0
 25 26  1  0
 26 16  1  0
 27 25  1  0
 28 27  2  0
 29 27  1  0
M  END
$$$$
