THR.pdb
     RDKit          3D

 29 29  0  0  1  0  0  0  0  0999 V2000
    7.9948  -14.8664   15.9320 C   0  0  0  0  0  0  0  0  0  0  0  0
    8.5077  -14.9282   17.3354 C   0  0  1  0  0  0  0  0  0  0  0  0
    9.8891  -15.1109   17.4129 O   0  0  0  0  0  0  0  0  0  0  0  0
    8.1913  -13.5838   18.0037 C   0  0  2  0  0  0  0  0  0  0  0  0
    8.9255  -12.5130   17.3544 N   0  0  0  0  0  0  0  0  0  0  0  0
    8.5827  -13.7297   19.4299 C   0  0  0  0  0  0  0  0  0  0  0  0
    9.7112  -13.3838   19.8622 O   0  0  0  0  0  0  0  0  0  0  0  0
    7.6149  -14.2871   20.3118 N   0  0  0  0  0  0  0  0  0  0  0  0
    7.8111  -14.3968   21.7230 C   0  0  1  0  0  0  0  0  0  0  0  0
    6.5204  -14.2793   22.4987 C   0  0  0  0  0  0  0  0  0  0  0  0
    6.7164  -14.5525   23.9445 C   0  0  0  0  0  0  0  0  0  0  0  0
    7.3045  -13.6798   24.8436 C   0  0  0  0  0  0  0  0  0  0  0  0
    7.3152  -14.2600   26.0720 N   0  0  0  0  0  0  0  0  0  0  0  0
    6.7556  -15.4555   25.9591 C   0  0  0  0  0  0  0  0  0  0  0  0
    6.3942  -15.6315   24.6736 N   0  0  0  0  0  0  0  0  0  0  0  0
    8.4618  -15.7054   22.0118 C   0  0  0  0  0  0  0  0  0  0  0  0
    8.1587  -16.7336   21.3398 O   0  0  0  0  0  0  0  0  0  0  0  0
    9.9253  -13.2988   28.0199 N   0  0  0  0  0  0  0  0  0  0  0  0
   10.6516  -14.4229   28.4777 C   0  0  0  0  0  0  0  0  0  0  0  0
   11.3375  -14.4183   29.5492 N   0  0  0  0  0  0  0  0  0  0  0  0
   10.6081  -15.6009   27.7033 N   0  0  0  0  0  0  0  0  0  0  0  0
   10.9257  -15.6312   26.2889 C   0  0  0  0  0  0  0  0  0  0  0  0
   10.8455  -17.0377   25.7349 C   0  0  0  0  0  0  0  0  0  0  0  0
   11.1479  -17.0778   24.2763 C   0  0  0  0  0  0  0  0  0  0  0  0
    9.9316  -17.1585   23.3828 C   0  0  2  0  0  0  0  0  0  0  0  0
    9.4328  -15.8507   23.0367 N   0  0  0  0  0  0  0  0  0  0  0  0
    8.8782  -18.0282   23.9436 C   0  0  0  0  0  0  0  0  0  0  0  0
    7.8421  -17.5712   24.4584 O   0  0  0  0  0  0  0  0  0  0  0  0
    9.0362  -19.3987   23.9018 O   0  0  0  0  0  0  0  0  0  0  0  0
  2  1  1  6
  2  3  1  0
  4  2  1  0
  4  5  1  6
  6  4  1  0
  7  6  2  0
  8  6  1  0
  9  8  1  0
 10 11  1  0
  9 10  1  1
 11 15  1  0
 12 11  2  0
 12 13  1  0
 13 14  1  0
 15 14  2  0
 16  9  1  0
 16 17  2  0
 19 18  1  0
 20 19  2  0
 21 19  1  0
 22 21  1  0
 23 22  1  0
 25 24  1  1
 24 23  1  0
 25 26  1  0
 26 16  1  0
 27 25  1  0
 28 27  2  0
 29 27  1  0
M  END
$$$$
