TSR.pdb
     RDKit          3D

 25 24  0  0  1  0  0  0  0  0999 V2000
    8.0120  -16.3938   18.1872 C   0  0  0  0  0  0  0  0  0  0  0  0
    8.5135  -15.0958   17.6249 C   0  0  1  0  0  0  0  0  0  0  0  0
    8.3576  -14.9896   16.2622 O   0  0  0  0  0  0  0  0  0  0  0  0
    7.9246  -13.9003   18.3790 C   0  0  2  0  0  0  0  0  0  0  0  0
    8.3335  -12.7119   17.6551 N   0  0  0  0  0  0  0  0  0  0  0  0
    8.5585  -13.9514   19.7350 C   0  0  0  0  0  0  0  0  0  0  0  0
    9.7886  -13.7033   19.7987 O   0  0  0  0  0  0  0  0  0  0  0  0
    6.7020  -15.8441   23.0060 O   0  0  0  0  0  0  0  0  0  0  0  0
    7.4300  -14.6919   23.2129 C   0  0  0  0  0  0  0  0  0  0  0  0
    8.4819  -14.4538   22.1401 C   0  0  2  0  0  0  0  0  0  0  0  0
    7.8056  -14.2652   20.8985 N   0  0  0  0  0  0  0  0  0  0  0  0
    9.4971  -15.5138   22.1169 C   0  0  0  0  0  0  0  0  0  0  0  0
    9.3016  -16.4974   21.3205 O   0  0  0  0  0  0  0  0  0  0  0  0
   16.5770  -14.1758   19.2375 N   0  0  0  0  0  0  0  0  0  0  0  0
   15.1564  -14.2712   19.3765 C   0  0  0  0  0  0  0  0  0  0  0  0
   14.4269  -14.0364   18.3501 N   0  0  0  0  0  0  0  0  0  0  0  0
   14.6624  -14.6173   20.6454 N   0  0  0  0  0  0  0  0  0  0  0  0
   15.2442  -15.7955   21.3397 C   0  0  0  0  0  0  0  0  0  0  0  0
   14.0933  -16.5859   21.8264 C   0  0  0  0  0  0  0  0  0  0  0  0
   12.8089  -15.9822   22.1228 C   0  0  0  0  0  0  0  0  0  0  0  0
   11.6739  -16.6666   22.7707 C   0  0  2  0  0  0  0  0  0  0  0  0
   10.6625  -15.5525   22.8835 N   0  0  0  0  0  0  0  0  0  0  0  0
   11.8036  -17.3160   24.0492 C   0  0  0  0  0  0  0  0  0  0  0  0
   12.6071  -18.2308   24.2828 O   0  0  0  0  0  0  0  0  0  0  0  0
   11.0117  -16.9624   25.1738 O   0  0  0  0  0  0  0  0  0  0  0  0
  2  4  1  0
  2  1  1  1
  3  2  1  0
  4  6  1  0
  4  5  1  6
  6 11  1  0
  6  7  2  0
  9  8  1  0
 10  9  1  1
 10 12  1  0
 11 10  1  0
 12 13  2  0
 15 14  1  0
 15 16  2  0
 17 15  1  0
 18 17  1  0
 19 18  1  0
 20 19  1  0
 21 20  1  1
 21 23  1  0
 22 12  1  0
 22 21  1  0
 23 25  1  0
 24 23  2  0
M  END
$$$$
