TSR.pdb
     RDKit          3D

 25 24  0  0  1  0  0  0  0  0999 V2000
    5.6290  -21.9001   24.1326 C   0  0  0  0  0  0  0  0  0  0  0  0
    6.3250  -20.6005   23.8516 C   0  0  1  0  0  0  0  0  0  0  0  0
    7.1331  -20.6384   22.7389 O   0  0  0  0  0  0  0  0  0  0  0  0
    5.3318  -19.4355   23.8173 C   0  0  2  0  0  0  0  0  0  0  0  0
    4.4683  -19.6610   22.6742 N   0  0  0  0  0  0  0  0  0  0  0  0
    6.1780  -18.2152   23.6224 C   0  0  0  0  0  0  0  0  0  0  0  0
    6.3427  -17.8185   22.4416 O   0  0  0  0  0  0  0  0  0  0  0  0
    8.1093  -16.2458   26.8294 O   0  0  0  0  0  0  0  0  0  0  0  0
    7.5517  -15.5478   25.7794 C   0  0  0  0  0  0  0  0  0  0  0  0
    7.5221  -16.3465   24.4850 C   0  0  2  0  0  0  0  0  0  0  0  0
    6.7684  -17.5342   24.7209 N   0  0  0  0  0  0  0  0  0  0  0  0
    8.8688  -16.5848   23.9520 C   0  0  0  0  0  0  0  0  0  0  0  0
    9.4014  -17.7251   24.1889 O   0  0  0  0  0  0  0  0  0  0  0  0
    8.0424  -13.1188   19.8011 N   0  0  0  0  0  0  0  0  0  0  0  0
    8.4896  -13.5232   18.5037 C   0  0  0  0  0  0  0  0  0  0  0  0
    7.6697  -13.4388   17.5232 N   0  0  0  0  0  0  0  0  0  0  0  0
    9.8106  -13.9906   18.4024 N   0  0  0  0  0  0  0  0  0  0  0  0
   10.7439  -13.7401   19.5316 C   0  0  0  0  0  0  0  0  0  0  0  0
   10.5065  -14.8312   20.5009 C   0  0  0  0  0  0  0  0  0  0  0  0
   11.2610  -14.9506   21.7330 C   0  0  0  0  0  0  0  0  0  0  0  0
   11.0435  -15.9767   22.7705 C   0  0  2  0  0  0  0  0  0  0  0  0
    9.6292  -15.6828   23.2065 N   0  0  0  0  0  0  0  0  0  0  0  0
   11.8845  -16.0744   23.9351 C   0  0  0  0  0  0  0  0  0  0  0  0
   11.5648  -15.6553   25.0572 O   0  0  0  0  0  0  0  0  0  0  0  0
   13.1743  -16.6679   23.9030 O   0  0  0  0  0  0  0  0  0  0  0  0
  2  4  1  0
  2  1  1  6
  3  2  1  0
  4  6  1  0
  4  5  1  6
  6 11  1  0
  6  7  2  0
  9  8  1  0
 10  9  1  1
 10 12  1  0
 11 10  1  0
 12 13  2  0
 15 14  1  0
 15 16  2  0
 17 15  1  0
 18 17  1  0
 19 18  1  0
 20 19  1  0
 21 20  1  6
 21 23  1  0
 22 12  1  0
 22 21  1  0
 23 25  1  0
 24 23  2  0
M  END
$$$$
