TSR.pdb
     RDKit          3D

 25 24  0  0  1  0  0  0  0  0999 V2000
    5.6059  -18.0615   20.3832 C   0  0  0  0  0  0  0  0  0  0  0  0
    6.5850  -18.8513   19.5646 C   0  0  1  0  0  0  0  0  0  0  0  0
    6.0578  -20.0100   19.0430 O   0  0  0  0  0  0  0  0  0  0  0  0
    7.2498  -17.9759   18.4985 C   0  0  2  0  0  0  0  0  0  0  0  0
    8.0750  -18.8571   17.6948 N   0  0  0  0  0  0  0  0  0  0  0  0
    8.0894  -17.0037   19.2688 C   0  0  0  0  0  0  0  0  0  0  0  0
    9.1703  -17.4347   19.7428 O   0  0  0  0  0  0  0  0  0  0  0  0
    6.7083  -13.2844   19.5978 O   0  0  0  0  0  0  0  0  0  0  0  0
    8.0535  -13.3410   19.8938 C   0  0  0  0  0  0  0  0  0  0  0  0
    8.5446  -14.7568   20.1557 C   0  0  2  0  0  0  0  0  0  0  0  0
    7.6849  -15.6545   19.4561 N   0  0  0  0  0  0  0  0  0  0  0  0
    8.6715  -15.0409   21.5902 C   0  0  0  0  0  0  0  0  0  0  0  0
    7.6244  -14.8959   22.3130 O   0  0  0  0  0  0  0  0  0  0  0  0
    6.6685  -21.0443   23.5582 N   0  0  0  0  0  0  0  0  0  0  0  0
    5.8054  -19.9893   23.1240 C   0  0  0  0  0  0  0  0  0  0  0  0
    4.8808  -20.2664   22.2819 N   0  0  0  0  0  0  0  0  0  0  0  0
    6.0416  -18.7120   23.6592 N   0  0  0  0  0  0  0  0  0  0  0  0
    7.3318  -18.4568   24.3516 C   0  0  0  0  0  0  0  0  0  0  0  0
    8.1747  -17.7292   23.3788 C   0  0  0  0  0  0  0  0  0  0  0  0
    9.4822  -17.2072   23.7248 C   0  0  0  0  0  0  0  0  0  0  0  0
    9.8601  -15.7811   23.7196 C   0  0  2  0  0  0  0  0  0  0  0  0
    9.8307  -15.4573   22.2462 N   0  0  0  0  0  0  0  0  0  0  0  0
   11.1041  -15.3195   24.2785 C   0  0  0  0  0  0  0  0  0  0  0  0
   12.0757  -14.9560   23.5995 O   0  0  0  0  0  0  0  0  0  0  0  0
   11.3338  -15.2376   25.6776 O   0  0  0  0  0  0  0  0  0  0  0  0
  2  4  1  0
  2  1  1  6
  3  2  1  0
  4  6  1  0
  4  5  1  6
  6 11  1  0
  6  7  2  0
  9  8  1  0
 10  9  1  1
 10 12  1  0
 11 10  1  0
 12 13  2  0
 15 14  1  0
 15 16  2  0
 17 15  1  0
 18 17  1  0
 19 18  1  0
 20 19  1  0
 21 20  1  6
 21 23  1  0
 22 12  1  0
 22 21  1  0
 23 25  1  0
 24 23  2  0
M  END
$$$$
