TSR.pdb
     RDKit          3D

 25 24  0  0  1  0  0  0  0  0999 V2000
    6.8946  -16.0124   20.0388 C   0  0  0  0  0  0  0  0  0  0  0  0
    7.5897  -15.0166   19.1569 C   0  0  1  0  0  0  0  0  0  0  0  0
    7.1583  -15.0427   17.8509 O   0  0  0  0  0  0  0  0  0  0  0  0
    7.5435  -13.6113   19.7633 C   0  0  2  0  0  0  0  0  0  0  0  0
    8.1804  -12.7265   18.8069 N   0  0  0  0  0  0  0  0  0  0  0  0
    8.3457  -13.7107   21.0243 C   0  0  0  0  0  0  0  0  0  0  0  0
    9.5951  -13.7641   20.9022 O   0  0  0  0  0  0  0  0  0  0  0  0
    6.4901  -13.9721   24.7737 O   0  0  0  0  0  0  0  0  0  0  0  0
    7.7580  -13.4416   24.6660 C   0  0  0  0  0  0  0  0  0  0  0  0
    8.5226  -13.9711   23.4622 C   0  0  2  0  0  0  0  0  0  0  0  0
    7.7250  -13.7424   22.3021 N   0  0  0  0  0  0  0  0  0  0  0  0
    8.9366  -15.3680   23.6415 C   0  0  0  0  0  0  0  0  0  0  0  0
    8.0737  -16.2756   23.3741 O   0  0  0  0  0  0  0  0  0  0  0  0
   11.4468  -18.9546   19.3801 N   0  0  0  0  0  0  0  0  0  0  0  0
   12.8225  -18.7121   19.6886 C   0  0  0  0  0  0  0  0  0  0  0  0
   13.6274  -18.4591   18.7248 N   0  0  0  0  0  0  0  0  0  0  0  0
   13.1919  -18.7728   21.0428 N   0  0  0  0  0  0  0  0  0  0  0  0
   12.2293  -19.3464   22.0191 C   0  0  0  0  0  0  0  0  0  0  0  0
   12.4757  -18.6371   23.2928 C   0  0  0  0  0  0  0  0  0  0  0  0
   11.8189  -17.3875   23.6231 C   0  0  0  0  0  0  0  0  0  0  0  0
   10.5110  -17.2627   24.2943 C   0  0  2  0  0  0  0  0  0  0  0  0
   10.1883  -15.8048   24.0773 N   0  0  0  0  0  0  0  0  0  0  0  0
   10.3348  -17.5817   25.6872 C   0  0  0  0  0  0  0  0  0  0  0  0
   10.5068  -16.7719   26.6102 O   0  0  0  0  0  0  0  0  0  0  0  0
    9.9427  -18.8708   26.1360 O   0  0  0  0  0  0  0  0  0  0  0  0
  2  4  1  0
  2  1  1  1
  3  2  1  0
  4  6  1  0
  4  5  1  6
  6 11  1  0
  6  7  2  0
  9  8  1  0
 10  9  1  1
 10 12  1  0
 11 10  1  0
 12 13  2  0
 15 14  1  0
 15 16  2  0
 17 15  1  0
 18 17  1  0
 19 18  1  0
 20 19  1  0
 21 20  1  1
 21 23  1  0
 22 12  1  0
 22 21  1  0
 23 25  1  0
 24 23  2  0
M  END
$$$$
