TSR.pdb
     RDKit          3D

 25 24  0  0  1  0  0  0  0  0999 V2000
    7.6591  -14.8410   16.1129 C   0  0  0  0  0  0  0  0  0  0  0  0
    8.2806  -14.8489   17.4790 C   0  0  1  0  0  0  0  0  0  0  0  0
    9.6495  -14.9841   17.4601 O   0  0  0  0  0  0  0  0  0  0  0  0
    7.8202  -13.6443   18.3047 C   0  0  2  0  0  0  0  0  0  0  0  0
    8.4292  -12.4733   17.7037 N   0  0  0  0  0  0  0  0  0  0  0  0
    8.3635  -13.8904   19.6786 C   0  0  0  0  0  0  0  0  0  0  0  0
    9.5398  -13.5100   19.9029 O   0  0  0  0  0  0  0  0  0  0  0  0
    6.6774  -16.6771   22.3359 O   0  0  0  0  0  0  0  0  0  0  0  0
    7.1199  -15.4662   22.8240 C   0  0  0  0  0  0  0  0  0  0  0  0
    8.1830  -14.8246   21.9451 C   0  0  2  0  0  0  0  0  0  0  0  0
    7.5861  -14.5243   20.6850 N   0  0  0  0  0  0  0  0  0  0  0  0
    9.3955  -15.6471   21.8553 C   0  0  0  0  0  0  0  0  0  0  0  0
    9.5790  -16.3075   20.7736 O   0  0  0  0  0  0  0  0  0  0  0  0
   16.5205  -15.6117   19.1159 N   0  0  0  0  0  0  0  0  0  0  0  0
   15.4173  -14.7486   18.8251 C   0  0  0  0  0  0  0  0  0  0  0  0
   15.2681  -14.3352   17.6219 N   0  0  0  0  0  0  0  0  0  0  0  0
   14.5715  -14.4134   19.8956 N   0  0  0  0  0  0  0  0  0  0  0  0
   14.8738  -14.9643   21.2424 C   0  0  0  0  0  0  0  0  0  0  0  0
   13.8503  -16.0015   21.4931 C   0  0  0  0  0  0  0  0  0  0  0  0
   12.5250  -15.6791   21.9844 C   0  0  0  0  0  0  0  0  0  0  0  0
   11.6101  -16.6237   22.6533 C   0  0  2  0  0  0  0  0  0  0  0  0
   10.3742  -15.7789   22.8414 N   0  0  0  0  0  0  0  0  0  0  0  0
   11.9447  -17.2537   23.9040 C   0  0  0  0  0  0  0  0  0  0  0  0
   12.4458  -18.3838   23.9978 O   0  0  0  0  0  0  0  0  0  0  0  0
   11.7279  -16.6287   25.1607 O   0  0  0  0  0  0  0  0  0  0  0  0
  2  4  1  0
  2  1  1  6
  3  2  1  0
  4  6  1  0
  4  5  1  6
  6 11  1  0
  6  7  2  0
  9  8  1  0
 10  9  1  1
 10 12  1  0
 11 10  1  0
 12 13  2  0
 15 14  1  0
 15 16  2  0
 17 15  1  0
 18 17  1  0
 19 18  1  0
 20 19  1  0
 21 20  1  1
 21 23  1  0
 22 12  1  0
 22 21  1  0
 23 25  1  0
 24 23  2  0
M  END
$$$$
