TSR.pdb
     RDKit          3D

 25 24  0  0  1  0  0  0  0  0999 V2000
    9.3450  -19.2991   17.4851 C   0  0  0  0  0  0  0  0  0  0  0  0
    9.3337  -18.4319   18.7100 C   0  0  1  0  0  0  0  0  0  0  0  0
    9.8632  -19.0439   19.8225 O   0  0  0  0  0  0  0  0  0  0  0  0
    9.9712  -17.0681   18.4300 C   0  0  2  0  0  0  0  0  0  0  0  0
   11.3877  -17.3064   18.2300 N   0  0  0  0  0  0  0  0  0  0  0  0
    9.7284  -16.2683   19.6728 C   0  0  0  0  0  0  0  0  0  0  0  0
   10.5721  -16.3811   20.5971 O   0  0  0  0  0  0  0  0  0  0  0  0
    6.0858  -14.3552   20.5250 O   0  0  0  0  0  0  0  0  0  0  0  0
    7.2691  -13.6909   20.7683 C   0  0  0  0  0  0  0  0  0  0  0  0
    8.4447  -14.6321   20.9834 C   0  0  2  0  0  0  0  0  0  0  0  0
    8.5968  -15.4190   19.8035 N   0  0  0  0  0  0  0  0  0  0  0  0
    8.3055  -15.4172   22.2159 C   0  0  0  0  0  0  0  0  0  0  0  0
    7.8410  -16.6055   22.1064 O   0  0  0  0  0  0  0  0  0  0  0  0
   12.2375  -18.4521   29.0399 N   0  0  0  0  0  0  0  0  0  0  0  0
   11.7720  -17.1989   29.5492 C   0  0  0  0  0  0  0  0  0  0  0  0
   12.3750  -16.6896   30.5580 N   0  0  0  0  0  0  0  0  0  0  0  0
   10.6728  -16.6153   28.8973 N   0  0  0  0  0  0  0  0  0  0  0  0
   10.8282  -16.1868   27.4827 C   0  0  0  0  0  0  0  0  0  0  0  0
    9.5043  -15.6753   27.0683 C   0  0  0  0  0  0  0  0  0  0  0  0
    9.2492  -15.1811   25.7294 C   0  0  0  0  0  0  0  0  0  0  0  0
    8.3859  -15.8362   24.7284 C   0  0  2  0  0  0  0  0  0  0  0  0
    8.6335  -14.9907   23.5035 N   0  0  0  0  0  0  0  0  0  0  0  0
    6.9664  -15.9800   24.9223 C   0  0  0  0  0  0  0  0  0  0  0  0
    6.1311  -15.1307   24.5786 O   0  0  0  0  0  0  0  0  0  0  0  0
    6.3869  -17.1235   25.5333 O   0  0  0  0  0  0  0  0  0  0  0  0
  2  4  1  0
  2  1  1  6
  3  2  1  0
  4  6  1  0
  4  5  1  1
  6 11  1  0
  6  7  2  0
  9  8  1  0
 10  9  1  6
 10 12  1  0
 11 10  1  0
 12 13  2  0
 15 14  1  0
 15 16  2  0
 17 15  1  0
 18 17  1  0
 19 18  1  0
 20 19  1  0
 21 20  1  1
 21 23  1  0
 22 12  1  0
 22 21  1  0
 23 25  1  0
 24 23  2  0
M  END
$$$$
