TSR.pdb
     RDKit          3D

 25 24  0  0  1  0  0  0  0  0999 V2000
    8.7187  -16.1034   18.2728 C   0  0  0  0  0  0  0  0  0  0  0  0
    8.9265  -14.6563   17.9332 C   0  0  1  0  0  0  0  0  0  0  0  0
    8.8086  -14.3839   16.5899 O   0  0  0  0  0  0  0  0  0  0  0  0
    8.0426  -13.7516   18.7963 C   0  0  2  0  0  0  0  0  0  0  0  0
    8.2658  -12.3943   18.3366 N   0  0  0  0  0  0  0  0  0  0  0  0
    8.5497  -13.9389   20.1931 C   0  0  0  0  0  0  0  0  0  0  0  0
    9.6686  -13.4363   20.4654 O   0  0  0  0  0  0  0  0  0  0  0  0
    6.6560  -16.4767   22.9687 O   0  0  0  0  0  0  0  0  0  0  0  0
    7.2029  -15.2826   23.3873 C   0  0  0  0  0  0  0  0  0  0  0  0
    8.3281  -14.7968   22.4860 C   0  0  2  0  0  0  0  0  0  0  0  0
    7.8013  -14.6514   21.1685 N   0  0  0  0  0  0  0  0  0  0  0  0
    9.5130  -15.6592   22.5681 C   0  0  0  0  0  0  0  0  0  0  0  0
    9.5808  -16.6440   21.7524 O   0  0  0  0  0  0  0  0  0  0  0  0
   16.2925  -14.1028   20.5665 N   0  0  0  0  0  0  0  0  0  0  0  0
   15.6340  -14.9139   19.5893 C   0  0  0  0  0  0  0  0  0  0  0  0
   16.3039  -15.3028   18.5691 N   0  0  0  0  0  0  0  0  0  0  0  0
   14.2842  -15.2248   19.8244 N   0  0  0  0  0  0  0  0  0  0  0  0
   13.6332  -14.6923   21.0497 C   0  0  0  0  0  0  0  0  0  0  0  0
   13.6091  -15.8134   22.0134 C   0  0  0  0  0  0  0  0  0  0  0  0
   12.8772  -15.7451   23.2630 C   0  0  0  0  0  0  0  0  0  0  0  0
   11.6759  -16.5357   23.5922 C   0  0  2  0  0  0  0  0  0  0  0  0
   10.5801  -15.5076   23.4546 N   0  0  0  0  0  0  0  0  0  0  0  0
   11.5304  -17.2128   24.8546 C   0  0  0  0  0  0  0  0  0  0  0  0
   10.8127  -16.8059   25.7799 O   0  0  0  0  0  0  0  0  0  0  0  0
   12.2056  -18.4248   25.1579 O   0  0  0  0  0  0  0  0  0  0  0  0
  2  4  1  0
  2  1  1  6
  3  2  1  0
  4  6  1  0
  4  5  1  6
  6 11  1  0
  6  7  2  0
  9  8  1  0
 10  9  1  1
 10 12  1  0
 11 10  1  0
 12 13  2  0
 15 14  1  0
 15 16  2  0
 17 15  1  0
 18 17  1  0
 19 18  1  0
 20 19  1  0
 21 20  1  1
 21 23  1  0
 22 12  1  0
 22 21  1  0
 23 25  1  0
 24 23  2  0
M  END
$$$$
