TSR.pdb
     RDKit          3D

 25 24  0  0  1  0  0  0  0  0999 V2000
    8.4205  -16.3473   18.8394 C   0  0  0  0  0  0  0  0  0  0  0  0
    8.9029  -15.0587   18.2399 C   0  0  1  0  0  0  0  0  0  0  0  0
    8.7800  -15.0088   16.8706 O   0  0  0  0  0  0  0  0  0  0  0  0
    8.2637  -13.8515   18.9319 C   0  0  2  0  0  0  0  0  0  0  0  0
    8.6770  -12.6792   18.1848 N   0  0  0  0  0  0  0  0  0  0  0  0
    8.8473  -13.8461   20.3113 C   0  0  0  0  0  0  0  0  0  0  0  0
   10.0608  -13.5374   20.4155 O   0  0  0  0  0  0  0  0  0  0  0  0
    6.5912  -14.7963   23.7961 O   0  0  0  0  0  0  0  0  0  0  0  0
    7.6400  -13.9017   23.7812 C   0  0  0  0  0  0  0  0  0  0  0  0
    8.6908  -14.2364   22.7332 C   0  0  2  0  0  0  0  0  0  0  0  0
    8.0665  -14.1741   21.4523 N   0  0  0  0  0  0  0  0  0  0  0  0
    9.3635  -15.5107   23.0129 C   0  0  0  0  0  0  0  0  0  0  0  0
    8.7774  -16.5819   22.6268 O   0  0  0  0  0  0  0  0  0  0  0  0
   16.2416  -14.2913   20.5683 N   0  0  0  0  0  0  0  0  0  0  0  0
   15.0773  -14.5035   19.7647 C   0  0  0  0  0  0  0  0  0  0  0  0
   15.0658  -14.0337   18.5730 N   0  0  0  0  0  0  0  0  0  0  0  0
   14.0197  -15.2183   20.3517 N   0  0  0  0  0  0  0  0  0  0  0  0
   14.1308  -15.6096   21.7812 C   0  0  0  0  0  0  0  0  0  0  0  0
   12.9291  -16.4204   22.0721 C   0  0  0  0  0  0  0  0  0  0  0  0
   12.5784  -16.8304   23.4178 C   0  0  0  0  0  0  0  0  0  0  0  0
   11.2046  -17.0211   23.9206 C   0  0  2  0  0  0  0  0  0  0  0  0
   10.5886  -15.6681   23.6624 N   0  0  0  0  0  0  0  0  0  0  0  0
   10.9372  -17.4083   25.2814 C   0  0  0  0  0  0  0  0  0  0  0  0
   10.4788  -16.6425   26.1419 O   0  0  0  0  0  0  0  0  0  0  0  0
   11.1778  -18.7208   25.7676 O   0  0  0  0  0  0  0  0  0  0  0  0
  2  4  1  0
  2  1  1  1
  3  2  1  0
  4  6  1  0
  4  5  1  6
  6 11  1  0
  6  7  2  0
  9  8  1  0
 10  9  1  1
 10 12  1  0
 11 10  1  0
 12 13  2  0
 15 14  1  0
 15 16  2  0
 17 15  1  0
 18 17  1  0
 19 18  1  0
 20 19  1  0
 21 20  1  1
 21 23  1  0
 22 12  1  0
 22 21  1  0
 23 25  1  0
 24 23  2  0
M  END
$$$$
