TSR.pdb
     RDKit          3D

 25 24  0  0  1  0  0  0  0  0999 V2000
    8.7216  -17.6954   16.0617 C   0  0  0  0  0  0  0  0  0  0  0  0
    9.2301  -16.8836   14.9064 C   0  0  1  0  0  0  0  0  0  0  0  0
    9.0833  -17.5070   13.6888 O   0  0  0  0  0  0  0  0  0  0  0  0
    8.6393  -15.4709   14.9185 C   0  0  2  0  0  0  0  0  0  0  0  0
    9.1112  -14.8144   13.7145 N   0  0  0  0  0  0  0  0  0  0  0  0
    9.2103  -14.8265   16.1441 C   0  0  0  0  0  0  0  0  0  0  0  0
   10.4561  -14.6657   16.1756 O   0  0  0  0  0  0  0  0  0  0  0  0
    6.9388  -14.1134   19.6257 O   0  0  0  0  0  0  0  0  0  0  0  0
    7.8604  -13.1826   19.1958 C   0  0  0  0  0  0  0  0  0  0  0  0
    8.9768  -13.7939   18.3626 C   0  0  2  0  0  0  0  0  0  0  0  0
    8.3833  -14.4139   17.2234 N   0  0  0  0  0  0  0  0  0  0  0  0
    9.8326  -14.6854   19.1548 C   0  0  0  0  0  0  0  0  0  0  0  0
    9.6007  -15.9426   19.0795 O   0  0  0  0  0  0  0  0  0  0  0  0
   15.5906  -13.5061   17.4633 N   0  0  0  0  0  0  0  0  0  0  0  0
   16.2588  -14.7491   17.6979 C   0  0  0  0  0  0  0  0  0  0  0  0
   16.8749  -15.3033   16.7211 N   0  0  0  0  0  0  0  0  0  0  0  0
   16.1857  -15.2759   18.9983 N   0  0  0  0  0  0  0  0  0  0  0  0
   15.3920  -14.5446   20.0200 C   0  0  0  0  0  0  0  0  0  0  0  0
   14.0570  -15.1802   20.0247 C   0  0  0  0  0  0  0  0  0  0  0  0
   12.9800  -14.7137   20.8757 C   0  0  0  0  0  0  0  0  0  0  0  0
   11.6085  -15.2571   20.8910 C   0  0  2  0  0  0  0  0  0  0  0  0
   10.8818  -14.2923   19.9866 N   0  0  0  0  0  0  0  0  0  0  0  0
   10.8621  -15.4104   22.1127 C   0  0  0  0  0  0  0  0  0  0  0  0
    9.9428  -14.6555   22.4618 O   0  0  0  0  0  0  0  0  0  0  0  0
   11.1153  -16.4548   23.0412 O   0  0  0  0  0  0  0  0  0  0  0  0
  2  4  1  0
  2  1  1  1
  3  2  1  0
  4  6  1  0
  4  5  1  6
  6 11  1  0
  6  7  2  0
  9  8  1  0
 10  9  1  1
 10 12  1  0
 11 10  1  0
 12 13  2  0
 15 14  1  0
 15 16  2  0
 17 15  1  0
 18 17  1  0
 19 18  1  0
 20 19  1  0
 21 20  1  1
 21 23  1  0
 22 12  1  0
 22 21  1  0
 23 25  1  0
 24 23  2  0
M  END
$$$$
