TSR.pdb
     RDKit          3D

 25 24  0  0  1  0  0  0  0  0999 V2000
    9.6509  -21.8426   19.6132 C   0  0  0  0  0  0  0  0  0  0  0  0
    8.3546  -21.0872   19.6507 C   0  0  1  0  0  0  0  0  0  0  0  0
    7.8641  -20.7736   18.4042 O   0  0  0  0  0  0  0  0  0  0  0  0
    7.3213  -21.8017   20.5263 C   0  0  2  0  0  0  0  0  0  0  0  0
    6.1895  -22.1014   19.6703 N   0  0  0  0  0  0  0  0  0  0  0  0
    6.9526  -20.8018   21.5787 C   0  0  0  0  0  0  0  0  0  0  0  0
    6.3963  -19.7443   21.1901 O   0  0  0  0  0  0  0  0  0  0  0  0
    8.0654  -21.2199   25.6779 O   0  0  0  0  0  0  0  0  0  0  0  0
    6.8802  -20.6387   25.2804 C   0  0  0  0  0  0  0  0  0  0  0  0
    6.9653  -20.0000   23.9024 C   0  0  2  0  0  0  0  0  0  0  0  0
    7.2178  -21.0359   22.9549 N   0  0  0  0  0  0  0  0  0  0  0  0
    7.9355  -18.8992   23.8627 C   0  0  0  0  0  0  0  0  0  0  0  0
    9.1219  -19.1754   23.4674 O   0  0  0  0  0  0  0  0  0  0  0  0
    7.1749  -12.0598   19.6629 N   0  0  0  0  0  0  0  0  0  0  0  0
    7.6127  -13.4152   19.5304 C   0  0  0  0  0  0  0  0  0  0  0  0
    7.5523  -13.9646   18.3748 N   0  0  0  0  0  0  0  0  0  0  0  0
    8.0795  -14.0504   20.6934 N   0  0  0  0  0  0  0  0  0  0  0  0
    8.0599  -13.2964   21.9740 C   0  0  0  0  0  0  0  0  0  0  0  0
    8.6786  -14.1892   22.9772 C   0  0  0  0  0  0  0  0  0  0  0  0
    8.0880  -15.4588   23.3533 C   0  0  0  0  0  0  0  0  0  0  0  0
    8.7507  -16.5027   24.1580 C   0  0  2  0  0  0  0  0  0  0  0  0
    7.6877  -17.5721   24.2157 N   0  0  0  0  0  0  0  0  0  0  0  0
    9.2343  -16.2472   25.4899 C   0  0  0  0  0  0  0  0  0  0  0  0
    8.6054  -16.5281   26.5207 O   0  0  0  0  0  0  0  0  0  0  0  0
   10.4931  -15.6418   25.7466 O   0  0  0  0  0  0  0  0  0  0  0  0
  2  4  1  0
  2  1  1  6
  3  2  1  0
  4  6  1  0
  4  5  1  6
  6 11  1  0
  6  7  2  0
  9  8  1  0
 10  9  1  1
 10 12  1  0
 11 10  1  0
 12 13  2  0
 15 14  1  0
 15 16  2  0
 17 15  1  0
 18 17  1  0
 19 18  1  0
 20 19  1  0
 21 20  1  1
 21 23  1  0
 22 12  1  0
 22 21  1  0
 23 25  1  0
 24 23  2  0
M  END
$$$$
