TSR.pdb
     RDKit          3D

 25 24  0  0  1  0  0  0  0  0999 V2000
    7.5276  -15.8875   15.3278 C   0  0  0  0  0  0  0  0  0  0  0  0
    8.0873  -15.5541   16.6799 C   0  0  1  0  0  0  0  0  0  0  0  0
    9.4603  -15.4708   16.7019 O   0  0  0  0  0  0  0  0  0  0  0  0
    7.4135  -14.3111   17.2679 C   0  0  2  0  0  0  0  0  0  0  0  0
    7.7790  -13.1983   16.4127 N   0  0  0  0  0  0  0  0  0  0  0  0
    8.0097  -14.1611   18.6337 C   0  0  0  0  0  0  0  0  0  0  0  0
    9.1208  -13.5793   18.7097 O   0  0  0  0  0  0  0  0  0  0  0  0
    6.5020  -16.1455   22.0803 O   0  0  0  0  0  0  0  0  0  0  0  0
    6.9504  -14.8430   22.1343 C   0  0  0  0  0  0  0  0  0  0  0  0
    7.9844  -14.5264   21.0644 C   0  0  2  0  0  0  0  0  0  0  0  0
    7.3508  -14.6525   19.7927 N   0  0  0  0  0  0  0  0  0  0  0  0
    9.1995  -15.3363   21.2137 C   0  0  0  0  0  0  0  0  0  0  0  0
    9.2988  -16.3864   20.4876 O   0  0  0  0  0  0  0  0  0  0  0  0
   17.3641  -14.0258   19.9693 N   0  0  0  0  0  0  0  0  0  0  0  0
   17.3853  -15.3644   20.4736 C   0  0  0  0  0  0  0  0  0  0  0  0
   18.4949  -16.0042   20.4567 N   0  0  0  0  0  0  0  0  0  0  0  0
   16.1711  -15.8836   20.9533 N   0  0  0  0  0  0  0  0  0  0  0  0
   14.9697  -15.0087   20.9468 C   0  0  0  0  0  0  0  0  0  0  0  0
   13.8840  -15.8097   21.5517 C   0  0  0  0  0  0  0  0  0  0  0  0
   12.5484  -15.2810   21.7480 C   0  0  0  0  0  0  0  0  0  0  0  0
   11.4022  -16.0377   22.2867 C   0  0  2  0  0  0  0  0  0  0  0  0
   10.2641  -15.0697   22.0758 N   0  0  0  0  0  0  0  0  0  0  0  0
   11.3717  -16.5112   23.6461 C   0  0  0  0  0  0  0  0  0  0  0  0
   10.7044  -15.9840   24.5482 O   0  0  0  0  0  0  0  0  0  0  0  0
   12.1138  -17.6408   24.0824 O   0  0  0  0  0  0  0  0  0  0  0  0
  2  4  1  0
  2  1  1  6
  3  2  1  0
  4  6  1  0
  4  5  1  6
  6 11  1  0
  6  7  2  0
  9  8  1  0
 10  9  1  1
 10 12  1  0
 11 10  1  0
 12 13  2  0
 15 14  1  0
 15 16  2  0
 17 15  1  0
 18 17  1  0
 19 18  1  0
 20 19  1  0
 21 20  1  1
 21 23  1  0
 22 12  1  0
 22 21  1  0
 23 25  1  0
 24 23  2  0
M  END
$$$$
