TSR.pdb
     RDKit          3D

 25 24  0  0  1  0  0  0  0  0999 V2000
    8.3949  -16.2537   17.1949 C   0  0  0  0  0  0  0  0  0  0  0  0
    8.7655  -14.8122   17.0028 C   0  0  1  0  0  0  0  0  0  0  0  0
    8.7648  -14.4145   15.6858 O   0  0  0  0  0  0  0  0  0  0  0  0
    7.9186  -13.8984   17.8931 C   0  0  2  0  0  0  0  0  0  0  0  0
    8.2169  -12.5370   17.4918 N   0  0  0  0  0  0  0  0  0  0  0  0
    8.3981  -14.1680   19.2862 C   0  0  0  0  0  0  0  0  0  0  0  0
    9.5668  -13.8021   19.5675 O   0  0  0  0  0  0  0  0  0  0  0  0
    6.5756  -16.8533   22.0188 O   0  0  0  0  0  0  0  0  0  0  0  0
    6.9272  -15.5789   22.4096 C   0  0  0  0  0  0  0  0  0  0  0  0
    8.0574  -14.9932   21.5765 C   0  0  2  0  0  0  0  0  0  0  0  0
    7.5711  -14.8076   20.2485 N   0  0  0  0  0  0  0  0  0  0  0  0
    9.2813  -15.7991   21.6615 C   0  0  0  0  0  0  0  0  0  0  0  0
    9.6672  -16.3959   20.5962 O   0  0  0  0  0  0  0  0  0  0  0  0
   15.7297  -15.2531   17.2318 N   0  0  0  0  0  0  0  0  0  0  0  0
   15.2377  -14.7671   18.4841 C   0  0  0  0  0  0  0  0  0  0  0  0
   16.0855  -14.3785   19.3621 N   0  0  0  0  0  0  0  0  0  0  0  0
   13.8437  -14.7549   18.6593 N   0  0  0  0  0  0  0  0  0  0  0  0
   13.2897  -14.2174   19.9293 C   0  0  0  0  0  0  0  0  0  0  0  0
   12.7719  -15.3872   20.6706 C   0  0  0  0  0  0  0  0  0  0  0  0
   12.1035  -15.2591   21.9507 C   0  0  0  0  0  0  0  0  0  0  0  0
   11.5246  -16.3729   22.7260 C   0  0  2  0  0  0  0  0  0  0  0  0
   10.0702  -15.9780   22.7987 N   0  0  0  0  0  0  0  0  0  0  0  0
   11.9891  -16.7048   24.0478 C   0  0  0  0  0  0  0  0  0  0  0  0
   11.4472  -16.3114   25.0912 O   0  0  0  0  0  0  0  0  0  0  0  0
   13.1258  -17.5243   24.2789 O   0  0  0  0  0  0  0  0  0  0  0  0
  2  4  1  0
  2  1  1  6
  3  2  1  0
  4  6  1  0
  4  5  1  6
  6 11  1  0
  6  7  2  0
  9  8  1  0
 10  9  1  1
 10 12  1  0
 11 10  1  0
 12 13  2  0
 15 14  1  0
 15 16  2  0
 17 15  1  0
 18 17  1  0
 19 18  1  0
 20 19  1  0
 21 20  1  1
 21 23  1  0
 22 12  1  0
 22 21  1  0
 23 25  1  0
 24 23  2  0
M  END
$$$$
