QEW.pdb
     RDKit          3D

 33 34  0  0  1  0  0  0  0  0999 V2000
    7.8270  -12.2115   17.2581 N   0  0  0  0  0  0  0  0  0  0  0  0
    7.6012  -13.4972   16.6811 C   0  0  0  0  0  0  0  0  0  0  0  0
    7.2840  -13.5051   15.4425 O   0  0  0  0  0  0  0  0  0  0  0  0
    7.7212  -14.7595   17.4502 C   0  0  0  0  0  0  0  0  0  0  0  0
    7.8942  -14.3950   18.9087 C   0  0  0  0  0  0  0  0  0  0  0  0
    9.3238  -14.5936   19.3637 C   0  0  2  0  0  0  0  0  0  0  0  0
   10.0056  -15.3068   18.3031 N   0  0  0  0  0  0  0  0  0  0  0  0
    9.2727  -15.4038   20.6175 C   0  0  0  0  0  0  0  0  0  0  0  0
    8.5222  -15.0677   21.5669 O   0  0  0  0  0  0  0  0  0  0  0  0
   10.0588  -16.5749   20.7942 N   0  0  0  0  0  0  0  0  0  0  0  0
   10.0430  -17.4238   21.9526 C   0  0  1  0  0  0  0  0  0  0  0  0
   10.7089  -18.7378   21.7430 C   0  0  0  0  0  0  0  0  0  0  0  0
   11.9039  -18.8157   20.8967 C   0  0  0  0  0  0  0  0  0  0  0  0
   12.5305  -20.0999   20.6374 C   0  0  0  0  0  0  0  0  0  0  0  0
   13.5399  -20.1441   19.8157 O   0  0  0  0  0  0  0  0  0  0  0  0
   10.4012  -16.8014   23.2278 C   0  0  0  0  0  0  0  0  0  0  0  0
   11.2537  -15.8457   23.2418 O   0  0  0  0  0  0  0  0  0  0  0  0
   12.1980  -21.3154   21.1529 O   0  0  0  0  0  0  0  0  0  0  0  0
    9.8584  -17.1945   24.4866 N   0  0  0  0  0  0  0  0  0  0  0  0
   10.1133  -16.4422   25.7132 C   0  0  1  0  0  0  0  0  0  0  0  0
    9.7410  -15.0124   25.5717 C   0  0  0  0  0  0  0  0  0  0  0  0
    8.3048  -14.7117   25.4833 C   0  0  0  0  0  0  0  0  0  0  0  0
    7.3091  -15.6417   25.1606 C   0  0  0  0  0  0  0  0  0  0  0  0
    6.1381  -15.0199   25.2200 N   0  0  0  0  0  0  0  0  0  0  0  0
    6.2963  -13.7199   25.5653 C   0  0  0  0  0  0  0  0  0  0  0  0
    5.4077  -12.6815   25.7474 C   0  0  0  0  0  0  0  0  0  0  0  0
    5.8326  -11.4070   26.0989 C   0  0  0  0  0  0  0  0  0  0  0  0
    7.1901  -11.2117   26.2616 C   0  0  0  0  0  0  0  0  0  0  0  0
    8.0713  -12.2511   26.0790 C   0  0  0  0  0  0  0  0  0  0  0  0
    7.6524  -13.5272   25.7292 C   0  0  0  0  0  0  0  0  0  0  0  0
    9.5364  -17.1920   26.8333 C   0  0  0  0  0  0  0  0  0  0  0  0
    9.7930  -16.7644   28.1298 O   0  0  0  0  0  0  0  0  0  0  0  0
    8.8093  -18.2157   26.7322 O   0  0  0  0  0  0  0  0  0  0  0  0
  2  1  1  0
  2  3  2  0
  4  2  1  0
  5  4  1  0
  5  6  1  0
  6  7  1  6
  8  6  1  0
  8  9  2  0
 10  8  1  0
 11 10  1  0
 11 12  1  6
 13 12  1  0
 13 14  1  0
 14 15  2  0
 16 11  1  0
 17 16  2  0
 18 14  1  0
 19 16  1  0
 20 21  1  6
 20 19  1  0
 21 22  1  0
 22 30  1  0
 23 22  2  0
 23 24  1  0
 24 25  1  0
 25 26  1  0
 26 27  2  0
 28 27  1  0
 29 28  2  0
 30 25  2  0
 30 29  1  0
 31 20  1  0
 32 31  1  0
 33 31  2  0
M  END
$$$$
