QEW.pdb
     RDKit          3D

 33 34  0  0  1  0  0  0  0  0999 V2000
    7.1953  -14.0860   20.4959 N   0  0  0  0  0  0  0  0  0  0  0  0
    8.0604  -13.8336   19.3892 C   0  0  0  0  0  0  0  0  0  0  0  0
    8.3864  -12.6114   19.2032 O   0  0  0  0  0  0  0  0  0  0  0  0
    8.5633  -14.9059   18.4968 C   0  0  0  0  0  0  0  0  0  0  0  0
    8.0134  -16.2216   19.0031 C   0  0  0  0  0  0  0  0  0  0  0  0
    9.0529  -17.3194   18.9359 C   0  0  2  0  0  0  0  0  0  0  0  0
    8.3494  -18.5429   18.6092 N   0  0  0  0  0  0  0  0  0  0  0  0
    9.6870  -17.4014   20.2857 C   0  0  0  0  0  0  0  0  0  0  0  0
    9.0263  -17.7895   21.2809 O   0  0  0  0  0  0  0  0  0  0  0  0
   11.0464  -17.0491   20.5059 N   0  0  0  0  0  0  0  0  0  0  0  0
   11.6885  -16.9600   21.7875 C   0  0  1  0  0  0  0  0  0  0  0  0
   13.1407  -16.6452   21.7107 C   0  0  0  0  0  0  0  0  0  0  0  0
   13.9209  -16.5259   22.9467 C   0  0  0  0  0  0  0  0  0  0  0  0
   15.3354  -16.2024   22.8870 C   0  0  0  0  0  0  0  0  0  0  0  0
   16.1847  -17.0268   23.4302 O   0  0  0  0  0  0  0  0  0  0  0  0
   10.9928  -16.1885   22.8183 C   0  0  0  0  0  0  0  0  0  0  0  0
   10.5501  -15.0203   22.5359 O   0  0  0  0  0  0  0  0  0  0  0  0
   15.9242  -15.1135   22.3202 O   0  0  0  0  0  0  0  0  0  0  0  0
   10.7700  -16.6541   24.1478 N   0  0  0  0  0  0  0  0  0  0  0  0
    9.8657  -15.9711   25.0703 C   0  0  1  0  0  0  0  0  0  0  0  0
    8.5340  -15.7296   24.4613 C   0  0  0  0  0  0  0  0  0  0  0  0
    7.5156  -15.1172   25.3265 C   0  0  0  0  0  0  0  0  0  0  0  0
    6.4652  -15.8089   25.9422 C   0  0  0  0  0  0  0  0  0  0  0  0
    5.7805  -14.9392   26.6744 N   0  0  0  0  0  0  0  0  0  0  0  0
    6.3164  -13.6988   26.5814 C   0  0  0  0  0  0  0  0  0  0  0  0
    5.9729  -12.4833   27.1341 C   0  0  0  0  0  0  0  0  0  0  0  0
    6.6950  -11.3275   26.8679 C   0  0  0  0  0  0  0  0  0  0  0  0
    7.7809  -11.4370   26.0215 C   0  0  0  0  0  0  0  0  0  0  0  0
    8.1187  -12.6518   25.4737 C   0  0  0  0  0  0  0  0  0  0  0  0
    7.4017  -13.8106   25.7373 C   0  0  0  0  0  0  0  0  0  0  0  0
    9.9130  -16.6746   26.3558 C   0  0  0  0  0  0  0  0  0  0  0  0
    9.5969  -15.9766   27.5145 O   0  0  0  0  0  0  0  0  0  0  0  0
   10.2208  -17.8854   26.5172 O   0  0  0  0  0  0  0  0  0  0  0  0
  2  1  1  0
  2  3  2  0
  4  2  1  0
  5  4  1  0
  5  6  1  0
  6  7  1  1
  8  6  1  0
  8  9  2  0
 10  8  1  0
 11 10  1  0
 11 12  1  6
 13 12  1  0
 13 14  1  0
 14 15  2  0
 16 11  1  0
 17 16  2  0
 18 14  1  0
 19 16  1  0
 20 21  1  6
 20 19  1  0
 21 22  1  0
 22 30  1  0
 23 22  2  0
 23 24  1  0
 24 25  1  0
 25 26  1  0
 26 27  2  0
 28 27  1  0
 29 28  2  0
 30 25  2  0
 30 29  1  0
 31 20  1  0
 32 31  1  0
 33 31  2  0
M  END
$$$$
