QEW.pdb
     RDKit          3D

 33 34  0  0  1  0  0  0  0  0999 V2000
    9.5319  -12.7481   19.1964 N   0  0  0  0  0  0  0  0  0  0  0  0
    8.3878  -12.9898   18.3782 C   0  0  0  0  0  0  0  0  0  0  0  0
    8.2508  -12.2177   17.3683 O   0  0  0  0  0  0  0  0  0  0  0  0
    7.4053  -14.0639   18.6614 C   0  0  0  0  0  0  0  0  0  0  0  0
    7.8092  -14.7262   19.9606 C   0  0  0  0  0  0  0  0  0  0  0  0
    8.0935  -16.2000   19.7664 C   0  0  2  0  0  0  0  0  0  0  0  0
    6.8440  -16.8193   19.3743 N   0  0  0  0  0  0  0  0  0  0  0  0
    8.5726  -16.7273   21.0791 C   0  0  0  0  0  0  0  0  0  0  0  0
    7.7568  -17.1500   21.9355 O   0  0  0  0  0  0  0  0  0  0  0  0
    9.9524  -16.7747   21.4175 N   0  0  0  0  0  0  0  0  0  0  0  0
   10.5067  -17.4244   22.5723 C   0  0  1  0  0  0  0  0  0  0  0  0
   11.7252  -18.2275   22.2820 C   0  0  0  0  0  0  0  0  0  0  0  0
   12.4082  -18.9258   23.3758 C   0  0  0  0  0  0  0  0  0  0  0  0
   13.5971  -19.7150   23.1063 C   0  0  0  0  0  0  0  0  0  0  0  0
   14.6978  -19.0931   22.7934 O   0  0  0  0  0  0  0  0  0  0  0  0
   10.6350  -16.6134   23.7837 C   0  0  0  0  0  0  0  0  0  0  0  0
   11.6824  -15.8952   23.9499 O   0  0  0  0  0  0  0  0  0  0  0  0
   13.7298  -21.0697   23.1351 O   0  0  0  0  0  0  0  0  0  0  0  0
    9.6552  -16.5670   24.8190 N   0  0  0  0  0  0  0  0  0  0  0  0
   10.0148  -16.3802   26.2230 C   0  0  1  0  0  0  0  0  0  0  0  0
    8.8173  -16.3357   27.0987 C   0  0  0  0  0  0  0  0  0  0  0  0
    7.6842  -15.5284   26.6242 C   0  0  0  0  0  0  0  0  0  0  0  0
    6.5146  -16.0452   26.0534 C   0  0  0  0  0  0  0  0  0  0  0  0
    5.7068  -15.0258   25.7899 N   0  0  0  0  0  0  0  0  0  0  0  0
    6.2740  -13.8508   26.1535 C   0  0  0  0  0  0  0  0  0  0  0  0
    5.8502  -12.5408   26.0804 C   0  0  0  0  0  0  0  0  0  0  0  0
    6.6422  -11.4892   26.5220 C   0  0  0  0  0  0  0  0  0  0  0  0
    7.8825  -11.8023   27.0425 C   0  0  0  0  0  0  0  0  0  0  0  0
    8.2994  -13.1106   27.1131 C   0  0  0  0  0  0  0  0  0  0  0  0
    7.5117  -14.1658   26.6748 C   0  0  0  0  0  0  0  0  0  0  0  0
   11.0688  -17.3444   26.5534 C   0  0  0  0  0  0  0  0  0  0  0  0
   11.6935  -17.2574   27.7910 O   0  0  0  0  0  0  0  0  0  0  0  0
   11.4750  -18.2712   25.8031 O   0  0  0  0  0  0  0  0  0  0  0  0
  2  1  1  0
  2  3  2  0
  4  2  1  0
  5  4  1  0
  5  6  1  0
  6  7  1  1
  8  6  1  0
  8  9  2  0
 10  8  1  0
 11 10  1  0
 11 12  1  6
 13 12  1  0
 13 14  1  0
 14 15  2  0
 16 11  1  0
 17 16  2  0
 18 14  1  0
 19 16  1  0
 20 21  1  1
 20 19  1  0
 21 22  1  0
 22 30  1  0
 23 22  2  0
 23 24  1  0
 24 25  1  0
 25 26  1  0
 26 27  2  0
 28 27  1  0
 29 28  2  0
 30 25  2  0
 30 29  1  0
 31 20  1  0
 32 31  1  0
 33 31  2  0
M  END
$$$$
