QEW.pdb
     RDKit          3D

 33 34  0  0  1  0  0  0  0  0999 V2000
    9.3954  -11.9360   19.6088 N   0  0  0  0  0  0  0  0  0  0  0  0
    8.3835  -12.6620   18.9119 C   0  0  0  0  0  0  0  0  0  0  0  0
    8.6083  -12.8828   17.6727 O   0  0  0  0  0  0  0  0  0  0  0  0
    7.1402  -13.1410   19.5632 C   0  0  0  0  0  0  0  0  0  0  0  0
    7.5379  -14.0950   20.6683 C   0  0  0  0  0  0  0  0  0  0  0  0
    8.1704  -15.3530   20.1135 C   0  0  2  0  0  0  0  0  0  0  0  0
    7.1499  -16.0276   19.3376 N   0  0  0  0  0  0  0  0  0  0  0  0
    8.5970  -16.1778   21.2834 C   0  0  0  0  0  0  0  0  0  0  0  0
    7.7604  -16.8620   21.9235 O   0  0  0  0  0  0  0  0  0  0  0  0
    9.9481  -16.2270   21.7222 N   0  0  0  0  0  0  0  0  0  0  0  0
   10.4510  -17.0516   22.7852 C   0  0  1  0  0  0  0  0  0  0  0  0
   11.7687  -17.6757   22.4886 C   0  0  0  0  0  0  0  0  0  0  0  0
   11.9470  -18.4314   21.2446 C   0  0  0  0  0  0  0  0  0  0  0  0
   13.2482  -18.9802   20.9057 C   0  0  0  0  0  0  0  0  0  0  0  0
   14.2356  -18.7948   21.7344 O   0  0  0  0  0  0  0  0  0  0  0  0
   10.3752  -16.4979   24.1378 C   0  0  0  0  0  0  0  0  0  0  0  0
   10.8637  -15.3367   24.3686 O   0  0  0  0  0  0  0  0  0  0  0  0
   13.5969  -19.6906   19.7979 O   0  0  0  0  0  0  0  0  0  0  0  0
    9.7851  -17.1766   25.2446 N   0  0  0  0  0  0  0  0  0  0  0  0
    9.8428  -16.6445   26.6044 C   0  0  1  0  0  0  0  0  0  0  0  0
    8.4883  -16.4333   27.1729 C   0  0  0  0  0  0  0  0  0  0  0  0
    7.5949  -15.5337   26.4290 C   0  0  0  0  0  0  0  0  0  0  0  0
    6.5858  -15.9504   25.5522 C   0  0  0  0  0  0  0  0  0  0  0  0
    5.9644  -14.8668   25.1039 N   0  0  0  0  0  0  0  0  0  0  0  0
    6.5048  -13.7437   25.6339 C   0  0  0  0  0  0  0  0  0  0  0  0
    6.2237  -12.4027   25.4793 C   0  0  0  0  0  0  0  0  0  0  0  0
    6.9487  -11.4213   26.1422 C   0  0  0  0  0  0  0  0  0  0  0  0
    7.9723  -11.8375   26.9707 C   0  0  0  0  0  0  0  0  0  0  0  0
    8.2476  -13.1760   27.1211 C   0  0  0  0  0  0  0  0  0  0  0  0
    7.5256  -14.1614   26.4624 C   0  0  0  0  0  0  0  0  0  0  0  0
   10.7872  -17.4625   27.3717 C   0  0  0  0  0  0  0  0  0  0  0  0
   11.3868  -18.5525   26.7536 O   0  0  0  0  0  0  0  0  0  0  0  0
   11.1180  -17.2679   28.5715 O   0  0  0  0  0  0  0  0  0  0  0  0
  2  1  1  0
  2  3  2  0
  4  2  1  0
  5  4  1  0
  5  6  1  0
  6  7  1  1
  8  6  1  0
  8  9  2  0
 10  8  1  0
 11 10  1  0
 11 12  1  6
 13 12  1  0
 13 14  1  0
 14 15  2  0
 16 11  1  0
 17 16  2  0
 18 14  1  0
 19 16  1  0
 20 21  1  1
 20 19  1  0
 21 22  1  0
 22 30  1  0
 23 22  2  0
 23 24  1  0
 24 25  1  0
 25 26  1  0
 26 27  2  0
 28 27  1  0
 29 28  2  0
 30 25  2  0
 30 29  1  0
 31 20  1  0
 32 31  1  0
 33 31  2  0
M  END
$$$$
