QEW.pdb
     RDKit          3D

 33 34  0  0  1  0  0  0  0  0999 V2000
    8.4297  -20.0623   16.9685 N   0  0  0  0  0  0  0  0  0  0  0  0
    8.1228  -21.2610   17.6796 C   0  0  0  0  0  0  0  0  0  0  0  0
    8.4598  -22.3524   17.1051 O   0  0  0  0  0  0  0  0  0  0  0  0
    7.4553  -21.2656   19.0039 C   0  0  0  0  0  0  0  0  0  0  0  0
    7.2627  -19.8256   19.4271 C   0  0  0  0  0  0  0  0  0  0  0  0
    7.9372  -19.5424   20.7519 C   0  0  2  0  0  0  0  0  0  0  0  0
    6.9122  -19.6330   21.7715 N   0  0  0  0  0  0  0  0  0  0  0  0
    8.4989  -18.1610   20.6676 C   0  0  0  0  0  0  0  0  0  0  0  0
    9.6986  -17.9762   20.3450 O   0  0  0  0  0  0  0  0  0  0  0  0
    7.7157  -17.0075   20.9447 N   0  0  0  0  0  0  0  0  0  0  0  0
    8.2067  -15.6589   21.0001 C   0  0  1  0  0  0  0  0  0  0  0  0
    7.1901  -14.6347   20.6377 C   0  0  0  0  0  0  0  0  0  0  0  0
    7.6238  -13.2791   20.2843 C   0  0  0  0  0  0  0  0  0  0  0  0
    8.4534  -13.0621   19.1123 C   0  0  0  0  0  0  0  0  0  0  0  0
    7.9601  -13.3453   17.9408 O   0  0  0  0  0  0  0  0  0  0  0  0
    8.9874  -15.2923   22.1825 C   0  0  0  0  0  0  0  0  0  0  0  0
    9.6029  -14.1694   22.2044 O   0  0  0  0  0  0  0  0  0  0  0  0
    9.7276  -12.5848   19.0624 O   0  0  0  0  0  0  0  0  0  0  0  0
    9.1177  -16.1173   23.3385 N   0  0  0  0  0  0  0  0  0  0  0  0
    9.9412  -15.7303   24.4819 C   0  0  1  0  0  0  0  0  0  0  0  0
    9.1848  -15.8014   25.7568 C   0  0  0  0  0  0  0  0  0  0  0  0
    7.9008  -15.0871   25.8013 C   0  0  0  0  0  0  0  0  0  0  0  0
    6.6436  -15.6879   25.6632 C   0  0  0  0  0  0  0  0  0  0  0  0
    5.7239  -14.7410   25.8001 N   0  0  0  0  0  0  0  0  0  0  0  0
    6.2988  -13.5349   26.0221 C   0  0  0  0  0  0  0  0  0  0  0  0
    5.7842  -12.2706   26.2167 C   0  0  0  0  0  0  0  0  0  0  0  0
    6.6051  -11.1688   26.4179 C   0  0  0  0  0  0  0  0  0  0  0  0
    7.9694  -11.3837   26.4164 C   0  0  0  0  0  0  0  0  0  0  0  0
    8.4765  -12.6467   26.2221 C   0  0  0  0  0  0  0  0  0  0  0  0
    7.6611  -13.7518   26.0220 C   0  0  0  0  0  0  0  0  0  0  0  0
   11.2086  -16.4625   24.3964 C   0  0  0  0  0  0  0  0  0  0  0  0
   12.1941  -16.2103   25.3423 O   0  0  0  0  0  0  0  0  0  0  0  0
   11.4998  -17.3233   23.5240 O   0  0  0  0  0  0  0  0  0  0  0  0
  2  1  1  0
  2  3  2  0
  4  2  1  0
  5  4  1  0
  5  6  1  0
  6  7  1  1
  8  6  1  0
  8  9  2  0
 10  8  1  0
 11 10  1  0
 11 12  1  1
 13 12  1  0
 13 14  1  0
 14 15  2  0
 16 11  1  0
 17 16  2  0
 18 14  1  0
 19 16  1  0
 20 21  1  1
 20 19  1  0
 21 22  1  0
 22 30  1  0
 23 22  2  0
 23 24  1  0
 24 25  1  0
 25 26  1  0
 26 27  2  0
 28 27  1  0
 29 28  2  0
 30 25  2  0
 30 29  1  0
 31 20  1  0
 32 31  1  0
 33 31  2  0
M  END
$$$$
