QEW.pdb
     RDKit          3D

 33 34  0  0  1  0  0  0  0  0999 V2000
   55.3620  -42.6862   49.1494 N   0  0  0  0  0  0  0  0  0  0  0  0
   55.9675  -41.7694   48.2385 C   0  0  0  0  0  0  0  0  0  0  0  0
   55.1825  -40.9128   47.7047 O   0  0  0  0  0  0  0  0  0  0  0  0
   57.4147  -41.7894   47.9156 C   0  0  0  0  0  0  0  0  0  0  0  0
   58.0298  -40.5277   48.4810 C   0  0  0  0  0  0  0  0  0  0  0  0
   59.3235  -40.1785   47.7777 C   0  0  2  0  0  0  0  0  0  0  0  0
   59.0807  -40.3256   46.3571 N   0  0  0  0  0  0  0  0  0  0  0  0
   60.3541  -41.1481   48.2557 C   0  0  0  0  0  0  0  0  0  0  0  0
   60.7401  -42.0881   47.5174 O   0  0  0  0  0  0  0  0  0  0  0  0
   60.9377  -41.0560   49.5486 N   0  0  0  0  0  0  0  0  0  0  0  0
   61.3989  -42.1644   50.3370 C   0  0  1  0  0  0  0  0  0  0  0  0
   62.8299  -42.0654   50.7326 C   0  0  0  0  0  0  0  0  0  0  0  0
   63.5532  -43.2751   51.1376 C   0  0  0  0  0  0  0  0  0  0  0  0
   64.3584  -44.0004   50.1710 C   0  0  0  0  0  0  0  0  0  0  0  0
   63.9243  -44.0947   48.9468 O   0  0  0  0  0  0  0  0  0  0  0  0
   60.5332  -42.5937   51.4361 C   0  0  0  0  0  0  0  0  0  0  0  0
   61.0178  -42.6830   52.6183 O   0  0  0  0  0  0  0  0  0  0  0  0
   65.5528  -44.6223   50.3715 O   0  0  0  0  0  0  0  0  0  0  0  0
   59.1563  -42.9311   51.2807 N   0  0  0  0  0  0  0  0  0  0  0  0
   58.3746  -43.5284   52.3612 C   0  0  1  0  0  0  0  0  0  0  0  0
   58.0528  -42.5409   53.4215 C   0  0  0  0  0  0  0  0  0  0  0  0
   59.1403  -41.6435   53.8374 C   0  0  0  0  0  0  0  0  0  0  0  0
   59.0507  -40.2472   53.8933 C   0  0  0  0  0  0  0  0  0  0  0  0
   60.2070  -39.7843   54.3515 N   0  0  0  0  0  0  0  0  0  0  0  0
   61.0689  -40.7978   54.6053 C   0  0  0  0  0  0  0  0  0  0  0  0
   62.3648  -40.8334   55.0750 C   0  0  0  0  0  0  0  0  0  0  0  0
   63.0507  -42.0292   55.2416 C   0  0  0  0  0  0  0  0  0  0  0  0
   62.3845  -43.1949   54.9175 C   0  0  0  0  0  0  0  0  0  0  0  0
   61.0923  -43.1529   54.4498 C   0  0  0  0  0  0  0  0  0  0  0  0
   60.4013  -41.9610   54.2827 C   0  0  0  0  0  0  0  0  0  0  0  0
   57.2640  -44.2728   51.7596 C   0  0  0  0  0  0  0  0  0  0  0  0
   56.0266  -44.2582   52.3908 O   0  0  0  0  0  0  0  0  0  0  0  0
   57.3234  -44.9437   50.6950 O   0  0  0  0  0  0  0  0  0  0  0  0
  2  1  1  0
  2  3  2  0
  4  2  1  0
  5  4  1  0
  5  6  1  0
  6  7  1  6
  8  6  1  0
  8  9  2  0
 10  8  1  0
 11 10  1  0
 11 12  1  1
 13 12  1  0
 13 14  1  0
 14 15  2  0
 16 11  1  0
 17 16  2  0
 18 14  1  0
 19 16  1  0
 20 21  1  1
 20 19  1  0
 21 22  1  0
 22 30  1  0
 23 22  2  0
 23 24  1  0
 24 25  1  0
 25 26  1  0
 26 27  2  0
 28 27  1  0
 29 28  2  0
 30 25  2  0
 30 29  1  0
 31 20  1  0
 32 31  1  0
 33 31  2  0
M  END
$$$$
