QEW.pdb
     RDKit          3D

 33 34  0  0  1  0  0  0  0  0999 V2000
    6.8624  -15.2473   17.0837 N   0  0  0  0  0  0  0  0  0  0  0  0
    7.9637  -14.3439   16.9958 C   0  0  0  0  0  0  0  0  0  0  0  0
    8.0068  -13.6174   15.9445 O   0  0  0  0  0  0  0  0  0  0  0  0
    9.0053  -14.2363   18.0458 C   0  0  0  0  0  0  0  0  0  0  0  0
    8.3810  -13.5576   19.2455 C   0  0  0  0  0  0  0  0  0  0  0  0
    9.3938  -13.3412   20.3491 C   0  0  2  0  0  0  0  0  0  0  0  0
   10.6622  -13.0668   19.7055 N   0  0  0  0  0  0  0  0  0  0  0  0
    9.4496  -14.6056   21.1424 C   0  0  0  0  0  0  0  0  0  0  0  0
    8.4357  -15.0215   21.7562 O   0  0  0  0  0  0  0  0  0  0  0  0
   10.6336  -15.3860   21.2401 N   0  0  0  0  0  0  0  0  0  0  0  0
   10.8126  -16.5280   22.0926 C   0  0  1  0  0  0  0  0  0  0  0  0
   11.8293  -17.4942   21.5961 C   0  0  0  0  0  0  0  0  0  0  0  0
   11.9230  -17.7703   20.1589 C   0  0  0  0  0  0  0  0  0  0  0  0
   13.2006  -18.1260   19.5672 C   0  0  0  0  0  0  0  0  0  0  0  0
   13.6617  -19.3285   19.7608 O   0  0  0  0  0  0  0  0  0  0  0  0
   10.9310  -16.2643   23.5273 C   0  0  0  0  0  0  0  0  0  0  0  0
   11.6514  -15.2838   23.9275 O   0  0  0  0  0  0  0  0  0  0  0  0
   14.0194  -17.3479   18.8071 O   0  0  0  0  0  0  0  0  0  0  0  0
   10.2891  -17.0417   24.5360 N   0  0  0  0  0  0  0  0  0  0  0  0
   10.4136  -16.7275   25.9576 C   0  0  1  0  0  0  0  0  0  0  0  0
    9.9968  -15.3342   26.2541 C   0  0  0  0  0  0  0  0  0  0  0  0
    8.5755  -15.0159   26.0559 C   0  0  0  0  0  0  0  0  0  0  0  0
    7.6149  -15.9078   25.5634 C   0  0  0  0  0  0  0  0  0  0  0  0
    6.4436  -15.2840   25.5639 N   0  0  0  0  0  0  0  0  0  0  0  0
    6.5681  -14.0187   26.0307 C   0  0  0  0  0  0  0  0  0  0  0  0
    5.6660  -12.9922   26.2146 C   0  0  0  0  0  0  0  0  0  0  0  0
    6.0555  -11.7551   26.7105 C   0  0  0  0  0  0  0  0  0  0  0  0
    7.3914  -11.5848   27.0168 C   0  0  0  0  0  0  0  0  0  0  0  0
    8.2861  -12.6121   26.8315 C   0  0  0  0  0  0  0  0  0  0  0  0
    7.9025  -13.8511   26.3377 C   0  0  0  0  0  0  0  0  0  0  0  0
    9.7787  -17.8083   26.7182 C   0  0  0  0  0  0  0  0  0  0  0  0
    9.2571  -18.8963   26.0298 O   0  0  0  0  0  0  0  0  0  0  0  0
    9.6565  -17.8483   27.9713 O   0  0  0  0  0  0  0  0  0  0  0  0
  2  1  1  0
  2  3  2  0
  4  2  1  0
  5  4  1  0
  5  6  1  0
  6  7  1  6
  8  6  1  0
  8  9  2  0
 10  8  1  0
 11 10  1  0
 11 12  1  6
 13 12  1  0
 13 14  1  0
 14 15  2  0
 16 11  1  0
 17 16  2  0
 18 14  1  0
 19 16  1  0
 20 21  1  6
 20 19  1  0
 21 22  1  0
 22 30  1  0
 23 22  2  0
 23 24  1  0
 24 25  1  0
 25 26  1  0
 26 27  2  0
 28 27  1  0
 29 28  2  0
 30 25  2  0
 30 29  1  0
 31 20  1  0
 32 31  1  0
 33 31  2  0
M  END
$$$$
