QEW.pdb
     RDKit          3D

 33 34  0  0  1  0  0  0  0  0999 V2000
    6.6151  -18.9039   18.1106 N   0  0  0  0  0  0  0  0  0  0  0  0
    7.4461  -17.7758   17.8387 C   0  0  0  0  0  0  0  0  0  0  0  0
    7.3638  -17.2940   16.6573 O   0  0  0  0  0  0  0  0  0  0  0  0
    8.3562  -17.1819   18.8477 C   0  0  0  0  0  0  0  0  0  0  0  0
    8.2164  -17.9846   20.1228 C   0  0  0  0  0  0  0  0  0  0  0  0
    8.1972  -17.0888   21.3424 C   0  0  2  0  0  0  0  0  0  0  0  0
    8.2134  -15.7232   20.8592 N   0  0  0  0  0  0  0  0  0  0  0  0
    9.4271  -17.4006   22.1305 C   0  0  0  0  0  0  0  0  0  0  0  0
    9.4713  -18.4112   22.8751 O   0  0  0  0  0  0  0  0  0  0  0  0
   10.5877  -16.5816   22.0776 N   0  0  0  0  0  0  0  0  0  0  0  0
   11.8131  -16.8235   22.7866 C   0  0  1  0  0  0  0  0  0  0  0  0
   12.9755  -16.0634   22.2530 C   0  0  0  0  0  0  0  0  0  0  0  0
   14.3110  -16.2988   22.8112 C   0  0  0  0  0  0  0  0  0  0  0  0
   15.4612  -15.5976   22.2689 C   0  0  0  0  0  0  0  0  0  0  0  0
   16.6376  -15.8587   22.7628 O   0  0  0  0  0  0  0  0  0  0  0  0
   11.7414  -16.8016   24.2482 C   0  0  0  0  0  0  0  0  0  0  0  0
   12.7353  -17.2322   24.9316 O   0  0  0  0  0  0  0  0  0  0  0  0
   15.4852  -14.6666   21.2758 O   0  0  0  0  0  0  0  0  0  0  0  0
   10.6156  -16.3268   24.9837 N   0  0  0  0  0  0  0  0  0  0  0  0
   10.5896  -16.3139   26.4447 C   0  0  1  0  0  0  0  0  0  0  0  0
   10.0164  -15.0522   26.9759 C   0  0  0  0  0  0  0  0  0  0  0  0
    8.6140  -14.7717   26.6360 C   0  0  0  0  0  0  0  0  0  0  0  0
    7.6801  -15.7321   26.2284 C   0  0  0  0  0  0  0  0  0  0  0  0
    6.5167  -15.1181   26.0525 N   0  0  0  0  0  0  0  0  0  0  0  0
    6.6215  -13.7946   26.3203 C   0  0  0  0  0  0  0  0  0  0  0  0
    5.7184  -12.7535   26.2791 C   0  0  0  0  0  0  0  0  0  0  0  0
    6.0853  -11.4527   26.5976 C   0  0  0  0  0  0  0  0  0  0  0  0
    7.3996  -11.2337   26.9609 C   0  0  0  0  0  0  0  0  0  0  0  0
    8.2955  -12.2758   27.0004 C   0  0  0  0  0  0  0  0  0  0  0  0
    7.9342  -13.5781   26.6846 C   0  0  0  0  0  0  0  0  0  0  0  0
   10.0010  -17.5776   26.8990 C   0  0  0  0  0  0  0  0  0  0  0  0
   10.0644  -17.9002   28.2486 O   0  0  0  0  0  0  0  0  0  0  0  0
    9.4263  -18.4240   26.1639 O   0  0  0  0  0  0  0  0  0  0  0  0
  2  1  1  0
  2  3  2  0
  4  2  1  0
  5  4  1  0
  5  6  1  0
  6  7  1  6
  8  6  1  0
  8  9  2  0
 10  8  1  0
 11 10  1  0
 11 12  1  6
 13 12  1  0
 13 14  1  0
 14 15  2  0
 16 11  1  0
 17 16  2  0
 18 14  1  0
 19 16  1  0
 20 21  1  6
 20 19  1  0
 21 22  1  0
 22 30  1  0
 23 22  2  0
 23 24  1  0
 24 25  1  0
 25 26  1  0
 26 27  2  0
 28 27  1  0
 29 28  2  0
 30 25  2  0
 30 29  1  0
 31 20  1  0
 32 31  1  0
 33 31  2  0
M  END
$$$$
