QEW.pdb
     RDKit          3D

 33 34  0  0  1  0  0  0  0  0999 V2000
    8.3789  -11.8770   20.0876 N   0  0  0  0  0  0  0  0  0  0  0  0
    8.1607  -12.7535   18.9827 C   0  0  0  0  0  0  0  0  0  0  0  0
    8.5094  -12.3049   17.8373 O   0  0  0  0  0  0  0  0  0  0  0  0
    7.5680  -14.1050   19.1292 C   0  0  0  0  0  0  0  0  0  0  0  0
    8.1017  -14.7049   20.4118 C   0  0  0  0  0  0  0  0  0  0  0  0
    7.5732  -16.1061   20.6301 C   0  0  2  0  0  0  0  0  0  0  0  0
    6.1414  -15.9894   20.8164 N   0  0  0  0  0  0  0  0  0  0  0  0
    8.2392  -16.6359   21.8576 C   0  0  0  0  0  0  0  0  0  0  0  0
    7.5968  -16.7657   22.9291 O   0  0  0  0  0  0  0  0  0  0  0  0
    9.6099  -17.0119   21.8725 N   0  0  0  0  0  0  0  0  0  0  0  0
   10.3143  -17.5552   23.0002 C   0  0  1  0  0  0  0  0  0  0  0  0
   11.6818  -18.0433   22.6754 C   0  0  0  0  0  0  0  0  0  0  0  0
   11.9606  -18.5755   21.3377 C   0  0  0  0  0  0  0  0  0  0  0  0
   13.2625  -18.3689   20.7283 C   0  0  0  0  0  0  0  0  0  0  0  0
   14.2732  -19.0595   21.1729 O   0  0  0  0  0  0  0  0  0  0  0  0
   10.2666  -16.7792   24.2401 C   0  0  0  0  0  0  0  0  0  0  0  0
   10.7447  -15.5911   24.2554 O   0  0  0  0  0  0  0  0  0  0  0  0
   13.5902  -17.5198   19.7158 O   0  0  0  0  0  0  0  0  0  0  0  0
    9.7157  -17.2641   25.4629 N   0  0  0  0  0  0  0  0  0  0  0  0
    9.8787  -16.5500   26.7273 C   0  0  1  0  0  0  0  0  0  0  0  0
    8.5726  -16.2541   27.3671 C   0  0  0  0  0  0  0  0  0  0  0  0
    7.6196  -15.4577   26.5807 C   0  0  0  0  0  0  0  0  0  0  0  0
    6.5388  -15.9816   25.8608 C   0  0  0  0  0  0  0  0  0  0  0  0
    5.8822  -14.9647   25.3168 N   0  0  0  0  0  0  0  0  0  0  0  0
    6.4669  -13.7847   25.6335 C   0  0  0  0  0  0  0  0  0  0  0  0
    6.1748  -12.4758   25.3135 C   0  0  0  0  0  0  0  0  0  0  0  0
    6.9546  -11.4197   25.7659 C   0  0  0  0  0  0  0  0  0  0  0  0
    8.0450  -11.7273   26.5558 C   0  0  0  0  0  0  0  0  0  0  0  0
    8.3311  -13.0344   26.8717 C   0  0  0  0  0  0  0  0  0  0  0  0
    7.5545  -14.0938   26.4238 C   0  0  0  0  0  0  0  0  0  0  0  0
   10.8851  -17.2600   27.5227 C   0  0  0  0  0  0  0  0  0  0  0  0
   11.2877  -16.7157   28.7357 O   0  0  0  0  0  0  0  0  0  0  0  0
   11.4364  -18.3471   27.2048 O   0  0  0  0  0  0  0  0  0  0  0  0
  2  1  1  0
  2  3  2  0
  4  2  1  0
  5  4  1  0
  5  6  1  0
  6  7  1  1
  8  6  1  0
  8  9  2  0
 10  8  1  0
 11 10  1  0
 11 12  1  6
 13 12  1  0
 13 14  1  0
 14 15  2  0
 16 11  1  0
 17 16  2  0
 18 14  1  0
 19 16  1  0
 20 21  1  1
 20 19  1  0
 21 22  1  0
 22 30  1  0
 23 22  2  0
 23 24  1  0
 24 25  1  0
 25 26  1  0
 26 27  2  0
 28 27  1  0
 29 28  2  0
 30 25  2  0
 30 29  1  0
 31 20  1  0
 32 31  1  0
 33 31  2  0
M  END
$$$$
