QEW.pdb
     RDKit          3D

 33 34  0  0  1  0  0  0  0  0999 V2000
    8.9219  -18.4507   17.0747 N   0  0  0  0  0  0  0  0  0  0  0  0
    7.5431  -18.3656   17.4334 C   0  0  0  0  0  0  0  0  0  0  0  0
    6.8061  -19.3381   17.0516 O   0  0  0  0  0  0  0  0  0  0  0  0
    6.9774  -17.2299   18.2012 C   0  0  0  0  0  0  0  0  0  0  0  0
    8.1089  -16.2732   18.5086 C   0  0  0  0  0  0  0  0  0  0  0  0
    7.9612  -15.6648   19.8864 C   0  0  2  0  0  0  0  0  0  0  0  0
    9.0365  -14.7060   20.0381 N   0  0  0  0  0  0  0  0  0  0  0  0
    8.0862  -16.7812   20.8707 C   0  0  0  0  0  0  0  0  0  0  0  0
    7.6629  -17.9306   20.5922 O   0  0  0  0  0  0  0  0  0  0  0  0
    8.6796  -16.5997   22.1495 N   0  0  0  0  0  0  0  0  0  0  0  0
    9.8944  -17.2186   22.6014 C   0  0  1  0  0  0  0  0  0  0  0  0
   11.0045  -17.1545   21.6128 C   0  0  0  0  0  0  0  0  0  0  0  0
   11.4326  -18.3775   20.9262 C   0  0  0  0  0  0  0  0  0  0  0  0
   12.8139  -18.5308   20.5047 C   0  0  0  0  0  0  0  0  0  0  0  0
   13.5051  -19.5223   20.9896 O   0  0  0  0  0  0  0  0  0  0  0  0
   10.3261  -16.9008   23.9632 C   0  0  0  0  0  0  0  0  0  0  0  0
   11.2823  -16.0672   24.1397 O   0  0  0  0  0  0  0  0  0  0  0  0
   13.5184  -17.7520   19.6382 O   0  0  0  0  0  0  0  0  0  0  0  0
    9.7467  -17.4692   25.1358 N   0  0  0  0  0  0  0  0  0  0  0  0
    9.9304  -16.8781   26.4595 C   0  0  1  0  0  0  0  0  0  0  0  0
    8.6355  -16.5117   27.0854 C   0  0  0  0  0  0  0  0  0  0  0  0
    7.7697  -15.6011   26.3224 C   0  0  0  0  0  0  0  0  0  0  0  0
    6.7196  -16.0039   25.4882 C   0  0  0  0  0  0  0  0  0  0  0  0
    6.1419  -14.9107   25.0061 N   0  0  0  0  0  0  0  0  0  0  0  0
    6.7505  -13.7944   25.4729 C   0  0  0  0  0  0  0  0  0  0  0  0
    6.5328  -12.4489   25.2648 C   0  0  0  0  0  0  0  0  0  0  0  0
    7.3220  -11.4776   25.8665 C   0  0  0  0  0  0  0  0  0  0  0  0
    8.3439  -11.9088   26.6894 C   0  0  0  0  0  0  0  0  0  0  0  0
    8.5559  -13.2518   26.8933 C   0  0  0  0  0  0  0  0  0  0  0  0
    7.7696  -14.2269   26.2959 C   0  0  0  0  0  0  0  0  0  0  0  0
   10.8378  -17.7427   27.2203 C   0  0  0  0  0  0  0  0  0  0  0  0
   11.2017  -17.3661   28.5069 O   0  0  0  0  0  0  0  0  0  0  0  0
   11.3339  -18.8254   26.8097 O   0  0  0  0  0  0  0  0  0  0  0  0
  2  1  1  0
  2  3  2  0
  4  2  1  0
  5  4  1  0
  5  6  1  0
  6  7  1  1
  8  6  1  0
  8  9  2  0
 10  8  1  0
 11 10  1  0
 11 12  1  6
 13 12  1  0
 13 14  1  0
 14 15  2  0
 16 11  1  0
 17 16  2  0
 18 14  1  0
 19 16  1  0
 20 21  1  1
 20 19  1  0
 21 22  1  0
 22 30  1  0
 23 22  2  0
 23 24  1  0
 24 25  1  0
 25 26  1  0
 26 27  2  0
 28 27  1  0
 29 28  2  0
 30 25  2  0
 30 29  1  0
 31 20  1  0
 32 31  1  0
 33 31  2  0
M  END
$$$$
