KKS.pdb
     RDKit          3D

 25 24  0  0  1  0  0  0  0  0999 V2000
   19.0228  -13.2474  -16.4270 N   0  0  0  0  0  0  0  0  0  0  0  0
   19.1339  -11.8945  -16.7974 C   0  0  1  0  0  0  0  0  0  0  0  0
   17.8140  -11.1797  -16.5668 C   0  0  0  0  0  0  0  0  0  0  0  0
   16.7515  -11.9841  -15.9239 C   0  0  0  0  0  0  0  0  0  0  0  0
   15.4425  -11.3156  -15.6824 C   0  0  0  0  0  0  0  0  0  0  0  0
   14.5046  -12.2033  -14.8571 C   0  0  0  0  0  0  0  0  0  0  0  0
   13.2141  -11.5311  -14.6623 N   0  0  0  0  0  0  0  0  0  0  0  0
   20.2606  -11.1536  -16.2318 C   0  0  0  0  0  0  0  0  0  0  0  0
   20.4266  -11.2050  -14.9544 O   0  0  0  0  0  0  0  0  0  0  0  0
   21.1640  -10.4010  -16.9570 N   0  0  0  0  0  0  0  0  0  0  0  0
   22.2775   -9.6595  -16.3170 C   0  0  1  0  0  0  0  0  0  0  0  0
   23.4377   -9.8505  -17.2641 C   0  0  0  0  0  0  0  0  0  0  0  0
   24.6976   -9.2100  -16.8239 C   0  0  0  0  0  0  0  0  0  0  0  0
   25.8640   -9.3766  -17.7641 C   0  0  0  0  0  0  0  0  0  0  0  0
   27.1151   -8.6782  -17.3865 C   0  0  0  0  0  0  0  0  0  0  0  0
   28.2001   -8.7572  -18.3156 N   0  0  0  0  0  0  0  0  0  0  0  0
   21.8811   -8.2598  -16.0921 C   0  0  0  0  0  0  0  0  0  0  0  0
   21.2390   -7.6635  -17.0180 O   0  0  0  0  0  0  0  0  0  0  0  0
   21.8620   -4.2741  -13.2157 O   0  0  0  0  0  0  0  0  0  0  0  0
   22.0433   -5.6210  -13.3871 C   0  0  0  0  0  0  0  0  0  0  0  0
   21.8681   -6.0932  -14.8070 C   0  0  2  0  0  0  0  0  0  0  0  0
   22.1404   -7.5097  -14.9423 N   0  0  0  0  0  0  0  0  0  0  0  0
   22.5992   -5.2758  -15.7912 C   0  0  0  0  0  0  0  0  0  0  0  0
   23.9650   -5.3965  -15.9352 O   0  0  0  0  0  0  0  0  0  0  0  0
   21.9801   -4.4628  -16.5063 O   0  0  0  0  0  0  0  0  0  0  0  0
  2  1  1  1
  2  3  1  0
  3  4  1  0
  5  6  1  0
  5  4  1  0
  7  6  1  0
  8  2  1  0
  9  8  2  0
 10  8  1  0
 11 10  1  0
 11 12  1  6
 12 13  1  0
 14 15  1  0
 14 13  1  0
 16 15  1  0
 17 11  1  0
 18 17  2  0
 19 20  1  0
 21 20  1  1
 21 23  1  0
 21 22  1  0
 22 17  1  0
 23 24  1  0
 25 23  2  0
M  END
$$$$
