KKS.pdb
     RDKit          3D

 25 24  0  0  1  0  0  0  0  0999 V2000
   14.6620  -11.8500  -12.0589 N   0  0  0  0  0  0  0  0  0  0  0  0
   14.8133  -10.4944  -12.4042 C   0  0  1  0  0  0  0  0  0  0  0  0
   14.6872   -9.6231  -11.1669 C   0  0  0  0  0  0  0  0  0  0  0  0
   13.3055   -9.3072  -10.7417 C   0  0  0  0  0  0  0  0  0  0  0  0
   12.6323  -10.2792   -9.8356 C   0  0  0  0  0  0  0  0  0  0  0  0
   11.1865   -9.8633   -9.5438 C   0  0  0  0  0  0  0  0  0  0  0  0
   10.5614  -10.8205   -8.6227 N   0  0  0  0  0  0  0  0  0  0  0  0
   15.9946  -10.1503  -13.1945 C   0  0  0  0  0  0  0  0  0  0  0  0
   17.1048  -10.7306  -12.8903 O   0  0  0  0  0  0  0  0  0  0  0  0
   16.0175   -9.2515  -14.2433 N   0  0  0  0  0  0  0  0  0  0  0  0
   17.2040   -9.0761  -15.1156 C   0  0  1  0  0  0  0  0  0  0  0  0
   16.6296   -8.5811  -16.4212 C   0  0  0  0  0  0  0  0  0  0  0  0
   17.6432   -8.2433  -17.4458 C   0  0  0  0  0  0  0  0  0  0  0  0
   17.3521   -8.7616  -18.8309 C   0  0  0  0  0  0  0  0  0  0  0  0
   18.3435   -8.4236  -19.8790 C   0  0  0  0  0  0  0  0  0  0  0  0
   18.1204   -8.9809  -21.1776 N   0  0  0  0  0  0  0  0  0  0  0  0
   18.1657   -8.1654  -14.4733 C   0  0  0  0  0  0  0  0  0  0  0  0
   17.7046   -7.2018  -13.7775 O   0  0  0  0  0  0  0  0  0  0  0  0
   21.6843   -8.6526  -12.4122 O   0  0  0  0  0  0  0  0  0  0  0  0
   21.7736   -7.9177  -13.5648 C   0  0  0  0  0  0  0  0  0  0  0  0
   20.4769   -7.2838  -13.9966 C   0  0  2  0  0  0  0  0  0  0  0  0
   19.5577   -8.2578  -14.5493 N   0  0  0  0  0  0  0  0  0  0  0  0
   20.6596   -6.1123  -14.8713 C   0  0  0  0  0  0  0  0  0  0  0  0
   21.2540   -4.9620  -14.3974 O   0  0  0  0  0  0  0  0  0  0  0  0
   20.2742   -6.1556  -16.0568 O   0  0  0  0  0  0  0  0  0  0  0  0
  2  1  1  1
  2  3  1  0
  3  4  1  0
  5  6  1  0
  5  4  1  0
  7  6  1  0
  8  2  1  0
  9  8  2  0
 10  8  1  0
 11 10  1  0
 11 12  1  6
 12 13  1  0
 14 15  1  0
 14 13  1  0
 16 15  1  0
 17 11  1  0
 18 17  2  0
 19 20  1  0
 21 20  1  6
 21 23  1  0
 21 22  1  0
 22 17  1  0
 23 24  1  0
 25 23  2  0
M  END
$$$$
