KKS.pdb
     RDKit          3D

 25 24  0  0  1  0  0  0  0  0999 V2000
   15.4814  -11.6814  -12.1024 N   0  0  0  0  0  0  0  0  0  0  0  0
   15.6656  -10.3357  -12.4699 C   0  0  1  0  0  0  0  0  0  0  0  0
   15.2345   -9.4211  -11.3369 C   0  0  0  0  0  0  0  0  0  0  0  0
   13.7756   -9.2188  -11.1941 C   0  0  0  0  0  0  0  0  0  0  0  0
   13.0104  -10.2681  -10.4646 C   0  0  0  0  0  0  0  0  0  0  0  0
   11.5248   -9.9064  -10.3601 C   0  0  0  0  0  0  0  0  0  0  0  0
   10.8034  -10.9438   -9.6128 N   0  0  0  0  0  0  0  0  0  0  0  0
   16.9845   -9.9756  -12.9887 C   0  0  0  0  0  0  0  0  0  0  0  0
   18.0141  -10.4883  -12.4065 O   0  0  0  0  0  0  0  0  0  0  0  0
   17.2174   -9.1284  -14.0547 N   0  0  0  0  0  0  0  0  0  0  0  0
   18.5711   -8.9165  -14.6222 C   0  0  1  0  0  0  0  0  0  0  0  0
   18.3599   -8.9976  -16.1150 C   0  0  0  0  0  0  0  0  0  0  0  0
   18.2768  -10.3767  -16.6464 C   0  0  0  0  0  0  0  0  0  0  0  0
   18.0619  -10.4784  -18.1349 C   0  0  0  0  0  0  0  0  0  0  0  0
   17.9551  -11.8482  -18.6897 C   0  0  0  0  0  0  0  0  0  0  0  0
   17.6527  -11.9545  -20.0840 N   0  0  0  0  0  0  0  0  0  0  0  0
   19.1205   -7.6391  -14.1394 C   0  0  0  0  0  0  0  0  0  0  0  0
   18.3086   -6.6781  -13.9334 O   0  0  0  0  0  0  0  0  0  0  0  0
   22.8861   -5.0041  -12.4398 O   0  0  0  0  0  0  0  0  0  0  0  0
   22.3598   -6.1951  -12.8650 C   0  0  0  0  0  0  0  0  0  0  0  0
   20.9857   -6.0826  -13.4726 C   0  0  2  0  0  0  0  0  0  0  0  0
   20.4668   -7.3736  -13.8765 N   0  0  0  0  0  0  0  0  0  0  0  0
   20.8985   -5.0734  -14.5426 C   0  0  0  0  0  0  0  0  0  0  0  0
   20.5670   -3.7662  -14.2561 O   0  0  0  0  0  0  0  0  0  0  0  0
   21.1270   -5.3995  -15.7246 O   0  0  0  0  0  0  0  0  0  0  0  0
  2  1  1  1
  2  3  1  0
  3  4  1  0
  5  6  1  0
  5  4  1  0
  7  6  1  0
  8  2  1  0
  9  8  2  0
 10  8  1  0
 11 10  1  0
 11 12  1  6
 12 13  1  0
 14 15  1  0
 14 13  1  0
 16 15  1  0
 17 11  1  0
 18 17  2  0
 19 20  1  0
 21 20  1  6
 21 23  1  0
 21 22  1  0
 22 17  1  0
 23 24  1  0
 25 23  2  0
M  END
$$$$
