KKS.pdb
     RDKit          3D

 25 24  0  0  1  0  0  0  0  0999 V2000
   17.3229  -14.6848  -16.7332 N   0  0  0  0  0  0  0  0  0  0  0  0
   17.1533  -13.3003  -16.9185 C   0  0  1  0  0  0  0  0  0  0  0  0
   15.8292  -12.8522  -16.3252 C   0  0  0  0  0  0  0  0  0  0  0  0
   14.6412  -13.6269  -16.7470 C   0  0  0  0  0  0  0  0  0  0  0  0
   13.3298  -13.2389  -16.1565 C   0  0  0  0  0  0  0  0  0  0  0  0
   12.1748  -14.0119  -16.8022 C   0  0  0  0  0  0  0  0  0  0  0  0
   10.8910  -13.5436  -16.2658 N   0  0  0  0  0  0  0  0  0  0  0  0
   18.2592  -12.4445  -16.4908 C   0  0  0  0  0  0  0  0  0  0  0  0
   18.7965  -12.6930  -15.3456 O   0  0  0  0  0  0  0  0  0  0  0  0
   18.7763  -11.3886  -17.2161 N   0  0  0  0  0  0  0  0  0  0  0  0
   20.0289  -10.6950  -16.8298 C   0  0  1  0  0  0  0  0  0  0  0  0
   20.8423  -10.6711  -18.1015 C   0  0  0  0  0  0  0  0  0  0  0  0
   21.4971  -11.9568  -18.4325 C   0  0  0  0  0  0  0  0  0  0  0  0
   22.4425  -11.9115  -19.6056 C   0  0  0  0  0  0  0  0  0  0  0  0
   23.1138  -13.1852  -19.9559 C   0  0  0  0  0  0  0  0  0  0  0  0
   24.0471  -13.1423  -21.0394 N   0  0  0  0  0  0  0  0  0  0  0  0
   19.7138   -9.3718  -16.2670 C   0  0  0  0  0  0  0  0  0  0  0  0
   18.9566   -8.5994  -16.9417 O   0  0  0  0  0  0  0  0  0  0  0  0
   20.2227   -8.5973  -12.3712 O   0  0  0  0  0  0  0  0  0  0  0  0
   19.5690   -7.5971  -13.0411 C   0  0  0  0  0  0  0  0  0  0  0  0
   19.8459   -7.5602  -14.5216 C   0  0  2  0  0  0  0  0  0  0  0  0
   20.1676   -8.8729  -15.0434 N   0  0  0  0  0  0  0  0  0  0  0  0
   20.8320   -6.5359  -14.9084 C   0  0  0  0  0  0  0  0  0  0  0  0
   20.6258   -5.2065  -14.6067 O   0  0  0  0  0  0  0  0  0  0  0  0
   21.8688   -6.8696  -15.5162 O   0  0  0  0  0  0  0  0  0  0  0  0
  2  1  1  1
  2  3  1  0
  3  4  1  0
  5  6  1  0
  5  4  1  0
  7  6  1  0
  8  2  1  0
  9  8  2  0
 10  8  1  0
 11 10  1  0
 11 12  1  6
 12 13  1  0
 14 15  1  0
 14 13  1  0
 16 15  1  0
 17 11  1  0
 18 17  2  0
 19 20  1  0
 21 20  1  1
 21 23  1  0
 21 22  1  0
 22 17  1  0
 23 24  1  0
 25 23  2  0
M  END
$$$$
