KKS.pdb
     RDKit          3D

 25 24  0  0  1  0  0  0  0  0999 V2000
   20.9181  -11.5431  -21.1809 N   0  0  0  0  0  0  0  0  0  0  0  0
   21.1989  -10.6889  -20.0987 C   0  0  1  0  0  0  0  0  0  0  0  0
   22.3672   -9.7807  -20.4395 C   0  0  0  0  0  0  0  0  0  0  0  0
   23.6560  -10.4608  -20.6964 C   0  0  0  0  0  0  0  0  0  0  0  0
   24.3359  -10.1670  -21.9888 C   0  0  0  0  0  0  0  0  0  0  0  0
   25.7246  -10.8121  -22.0499 C   0  0  0  0  0  0  0  0  0  0  0  0
   26.4833  -10.4946  -20.8338 N   0  0  0  0  0  0  0  0  0  0  0  0
   20.0697   -9.9403  -19.5483 C   0  0  0  0  0  0  0  0  0  0  0  0
   19.2554   -9.3908  -20.3830 O   0  0  0  0  0  0  0  0  0  0  0  0
   19.8040   -9.7737  -18.2029 N   0  0  0  0  0  0  0  0  0  0  0  0
   18.6080   -9.0473  -17.7116 C   0  0  1  0  0  0  0  0  0  0  0  0
   18.0396   -9.9542  -16.6467 C   0  0  0  0  0  0  0  0  0  0  0  0
   17.0977  -10.9773  -17.1543 C   0  0  0  0  0  0  0  0  0  0  0  0
   16.4820  -11.8611  -16.0999 C   0  0  0  0  0  0  0  0  0  0  0  0
   15.4691  -12.8348  -16.5707 C   0  0  0  0  0  0  0  0  0  0  0  0
   14.8437  -13.6448  -15.5709 N   0  0  0  0  0  0  0  0  0  0  0  0
   18.9951   -7.7058  -17.2454 C   0  0  0  0  0  0  0  0  0  0  0  0
   19.9986   -7.6099  -16.4650 O   0  0  0  0  0  0  0  0  0  0  0  0
   17.0488   -3.9232  -18.2173 O   0  0  0  0  0  0  0  0  0  0  0  0
   18.4007   -4.1439  -18.2241 C   0  0  0  0  0  0  0  0  0  0  0  0
   18.8618   -5.1902  -17.2430 C   0  0  2  0  0  0  0  0  0  0  0  0
   18.3624   -6.5069  -17.5836 N   0  0  0  0  0  0  0  0  0  0  0  0
   18.6056   -4.8295  -15.8375 C   0  0  0  0  0  0  0  0  0  0  0  0
   17.8943   -5.6720  -15.0099 O   0  0  0  0  0  0  0  0  0  0  0  0
   19.0355   -3.7497  -15.3848 O   0  0  0  0  0  0  0  0  0  0  0  0
  2  1  1  6
  2  3  1  0
  3  4  1  0
  5  6  1  0
  5  4  1  0
  7  6  1  0
  8  2  1  0
  9  8  2  0
 10  8  1  0
 11 10  1  0
 11 12  1  1
 12 13  1  0
 14 15  1  0
 14 13  1  0
 16 15  1  0
 17 11  1  0
 18 17  2  0
 19 20  1  0
 21 20  1  6
 21 23  1  0
 21 22  1  0
 22 17  1  0
 23 24  1  0
 25 23  2  0
M  END
$$$$
