KKS.pdb
     RDKit          3D

 25 24  0  0  1  0  0  0  0  0999 V2000
   21.0786  -21.0730  -10.7252 N   0  0  0  0  0  0  0  0  0  0  0  0
   20.3580  -21.0326  -11.9330 C   0  0  1  0  0  0  0  0  0  0  0  0
   18.8769  -21.2333  -11.6646 C   0  0  0  0  0  0  0  0  0  0  0  0
   18.5441  -22.1436  -10.5465 C   0  0  0  0  0  0  0  0  0  0  0  0
   18.1344  -23.5322  -10.8972 C   0  0  0  0  0  0  0  0  0  0  0  0
   17.6145  -24.2889   -9.6701 C   0  0  0  0  0  0  0  0  0  0  0  0
   18.7201  -24.9834   -8.9988 N   0  0  0  0  0  0  0  0  0  0  0  0
   20.6031  -19.8814  -12.8009 C   0  0  0  0  0  0  0  0  0  0  0  0
   21.0630  -18.8091  -12.2527 O   0  0  0  0  0  0  0  0  0  0  0  0
   20.3812  -19.8496  -14.1640 N   0  0  0  0  0  0  0  0  0  0  0  0
   20.7806  -18.6980  -15.0089 C   0  0  1  0  0  0  0  0  0  0  0  0
   21.2601  -19.3331  -16.2919 C   0  0  0  0  0  0  0  0  0  0  0  0
   22.6602  -19.8120  -16.2507 C   0  0  0  0  0  0  0  0  0  0  0  0
   23.1754  -20.3986  -17.5401 C   0  0  0  0  0  0  0  0  0  0  0  0
   24.5894  -20.8417  -17.5398 C   0  0  0  0  0  0  0  0  0  0  0  0
   25.0960  -21.3729  -18.7677 N   0  0  0  0  0  0  0  0  0  0  0  0
   19.6465  -17.7715  -15.1585 C   0  0  0  0  0  0  0  0  0  0  0  0
   18.4717  -18.2650  -15.1978 O   0  0  0  0  0  0  0  0  0  0  0  0
   20.0130  -13.5865  -15.7334 O   0  0  0  0  0  0  0  0  0  0  0  0
   18.9955  -14.0661  -14.9517 C   0  0  0  0  0  0  0  0  0  0  0  0
   18.5941  -15.4850  -15.2605 C   0  0  2  0  0  0  0  0  0  0  0  0
   19.7329  -16.3806  -15.2592 N   0  0  0  0  0  0  0  0  0  0  0  0
   17.7720  -15.6103  -16.4770 C   0  0  0  0  0  0  0  0  0  0  0  0
   16.4226  -15.3288  -16.4504 O   0  0  0  0  0  0  0  0  0  0  0  0
   18.2980  -15.9747  -17.5476 O   0  0  0  0  0  0  0  0  0  0  0  0
  2  1  1  1
  2  3  1  0
  3  4  1  0
  5  6  1  0
  5  4  1  0
  7  6  1  0
  8  2  1  0
  9  8  2  0
 10  8  1  0
 11 10  1  0
 11 12  1  6
 12 13  1  0
 14 15  1  0
 14 13  1  0
 16 15  1  0
 17 11  1  0
 18 17  2  0
 19 20  1  0
 21 20  1  6
 21 23  1  0
 21 22  1  0
 22 17  1  0
 23 24  1  0
 25 23  2  0
M  END
$$$$
