KKS.pdb
     RDKit          3D

 25 24  0  0  1  0  0  0  0  0999 V2000
   21.4768  -14.6387  -18.6916 N   0  0  0  0  0  0  0  0  0  0  0  0
   21.4092  -13.2627  -18.9778 C   0  0  1  0  0  0  0  0  0  0  0  0
   20.0410  -12.9118  -19.5354 C   0  0  0  0  0  0  0  0  0  0  0  0
   19.1966  -14.0592  -19.9353 C   0  0  0  0  0  0  0  0  0  0  0  0
   17.8600  -14.1797  -19.2888 C   0  0  0  0  0  0  0  0  0  0  0  0
   17.0547  -15.3413  -19.8810 C   0  0  0  0  0  0  0  0  0  0  0  0
   15.7265  -15.4042  -19.2589 N   0  0  0  0  0  0  0  0  0  0  0  0
   21.8102  -12.3527  -17.9057 C   0  0  0  0  0  0  0  0  0  0  0  0
   21.3924  -12.6144  -16.7146 O   0  0  0  0  0  0  0  0  0  0  0  0
   22.6025  -11.2325  -18.0660 N   0  0  0  0  0  0  0  0  0  0  0  0
   23.1109  -10.4458  -16.9163 C   0  0  1  0  0  0  0  0  0  0  0  0
   24.5191  -10.0778  -17.3174 C   0  0  0  0  0  0  0  0  0  0  0  0
   25.5575  -10.4816  -16.3427 C   0  0  0  0  0  0  0  0  0  0  0  0
   26.5792  -11.4602  -16.8628 C   0  0  0  0  0  0  0  0  0  0  0  0
   27.5801  -11.9452  -15.8837 C   0  0  0  0  0  0  0  0  0  0  0  0
   28.5337  -12.8996  -16.3596 N   0  0  0  0  0  0  0  0  0  0  0  0
   22.2182   -9.3040  -16.6587 C   0  0  0  0  0  0  0  0  0  0  0  0
   21.7399   -8.6801  -17.6623 O   0  0  0  0  0  0  0  0  0  0  0  0
   19.5992   -6.5992  -13.5164 O   0  0  0  0  0  0  0  0  0  0  0  0
   20.4039   -7.6746  -13.7854 C   0  0  0  0  0  0  0  0  0  0  0  0
   20.9706   -7.6895  -15.1813 C   0  0  2  0  0  0  0  0  0  0  0  0
   21.8341   -8.8319  -15.4011 N   0  0  0  0  0  0  0  0  0  0  0  0
   21.5998   -6.4158  -15.5723 C   0  0  0  0  0  0  0  0  0  0  0  0
   20.9190   -5.4986  -16.3443 O   0  0  0  0  0  0  0  0  0  0  0  0
   22.7630   -6.1581  -15.2029 O   0  0  0  0  0  0  0  0  0  0  0  0
  2  1  1  1
  2  3  1  0
  3  4  1  0
  5  6  1  0
  5  4  1  0
  7  6  1  0
  8  2  1  0
  9  8  2  0
 10  8  1  0
 11 10  1  0
 11 12  1  6
 12 13  1  0
 14 15  1  0
 14 13  1  0
 16 15  1  0
 17 11  1  0
 18 17  2  0
 19 20  1  0
 21 20  1  1
 21 23  1  0
 21 22  1  0
 22 17  1  0
 23 24  1  0
 25 23  2  0
M  END
$$$$
