KKS.pdb
     RDKit          3D

 25 24  0  0  1  0  0  0  0  0999 V2000
   22.1098  -20.3460  -12.6393 N   0  0  0  0  0  0  0  0  0  0  0  0
   21.6261  -20.5125  -13.9500 C   0  0  1  0  0  0  0  0  0  0  0  0
   20.1109  -20.6129  -13.9388 C   0  0  0  0  0  0  0  0  0  0  0  0
   19.5357  -21.7356  -14.7123 C   0  0  0  0  0  0  0  0  0  0  0  0
   20.2187  -23.0552  -14.6085 C   0  0  0  0  0  0  0  0  0  0  0  0
   19.4987  -24.1247  -15.4371 C   0  0  0  0  0  0  0  0  0  0  0  0
   20.2134  -25.4036  -15.3421 N   0  0  0  0  0  0  0  0  0  0  0  0
   22.1010  -19.5543  -14.9474 C   0  0  0  0  0  0  0  0  0  0  0  0
   21.3649  -18.5218  -15.1797 O   0  0  0  0  0  0  0  0  0  0  0  0
   23.2775  -19.6661  -15.6628 N   0  0  0  0  0  0  0  0  0  0  0  0
   23.7103  -18.6453  -16.6478 C   0  0  1  0  0  0  0  0  0  0  0  0
   25.2182  -18.6947  -16.5889 C   0  0  0  0  0  0  0  0  0  0  0  0
   25.8971  -17.8328  -17.5826 C   0  0  0  0  0  0  0  0  0  0  0  0
   27.4026  -17.9060  -17.5726 C   0  0  0  0  0  0  0  0  0  0  0  0
   28.1085  -17.0164  -18.5244 C   0  0  0  0  0  0  0  0  0  0  0  0
   29.5370  -17.0942  -18.5373 N   0  0  0  0  0  0  0  0  0  0  0  0
   23.1284  -18.9453  -17.9662 C   0  0  0  0  0  0  0  0  0  0  0  0
   23.1556  -20.1538  -18.3714 O   0  0  0  0  0  0  0  0  0  0  0  0
   20.6414  -16.3098  -20.1468 O   0  0  0  0  0  0  0  0  0  0  0  0
   20.5961  -17.6721  -20.2830 C   0  0  0  0  0  0  0  0  0  0  0  0
   21.9256  -18.3568  -20.1000 C   0  0  2  0  0  0  0  0  0  0  0  0
   22.5356  -18.0205  -18.8296 N   0  0  0  0  0  0  0  0  0  0  0  0
   22.8421  -18.1718  -21.2388 C   0  0  0  0  0  0  0  0  0  0  0  0
   22.9575  -19.1362  -22.2173 O   0  0  0  0  0  0  0  0  0  0  0  0
   23.5246  -17.1313  -21.3247 O   0  0  0  0  0  0  0  0  0  0  0  0
  2  1  1  1
  2  3  1  0
  3  4  1  0
  5  6  1  0
  5  4  1  0
  7  6  1  0
  8  2  1  0
  9  8  2  0
 10  8  1  0
 11 10  1  0
 11 12  1  6
 12 13  1  0
 14 15  1  0
 14 13  1  0
 16 15  1  0
 17 11  1  0
 18 17  2  0
 19 20  1  0
 21 20  1  6
 21 23  1  0
 21 22  1  0
 22 17  1  0
 23 24  1  0
 25 23  2  0
M  END
$$$$
