ERD.pdb
     RDKit          3D

 29 28  0  0  1  0  0  0  0  0999 V2000
   10.8382  -18.7560   16.3015 N   0  0  0  0  0  0  0  0  0  0  0  0
   11.4162  -19.2643   17.5075 C   0  0  1  0  0  0  0  0  0  0  0  0
   12.7105  -20.0050   17.2690 C   0  0  0  0  0  0  0  0  0  0  0  0
   13.8939  -19.0771   17.1114 C   0  0  0  0  0  0  0  0  0  0  0  0
   15.0787  -19.9167   16.8611 C   0  0  0  0  0  0  0  0  0  0  0  0
   14.9505  -21.1503   16.7891 O   0  0  0  0  0  0  0  0  0  0  0  0
   11.5193  -18.2103   18.5293 C   0  0  0  0  0  0  0  0  0  0  0  0
   12.0493  -17.0870   18.3153 O   0  0  0  0  0  0  0  0  0  0  0  0
   16.3098  -19.3352   16.7102 O   0  0  0  0  0  0  0  0  0  0  0  0
    6.6119  -13.3497   19.2723 N   0  0  0  0  0  0  0  0  0  0  0  0
    7.4644  -12.8460   20.2826 C   0  0  0  0  0  0  0  0  0  0  0  0
    7.5332  -11.5791   20.4851 N   0  0  0  0  0  0  0  0  0  0  0  0
    8.2353  -13.7646   21.0605 N   0  0  0  0  0  0  0  0  0  0  0  0
    8.4140  -15.1152   20.5896 C   0  0  0  0  0  0  0  0  0  0  0  0
    9.1817  -15.8925   21.6726 C   0  0  0  0  0  0  0  0  0  0  0  0
    9.4667  -17.2555   21.1477 C   0  0  0  0  0  0  0  0  0  0  0  0
   10.9139  -17.4329   20.8467 C   0  0  2  0  0  0  0  0  0  0  0  0
   10.9935  -18.4772   19.8218 N   0  0  0  0  0  0  0  0  0  0  0  0
   11.7116  -17.8886   21.9938 C   0  0  0  0  0  0  0  0  0  0  0  0
   11.6841  -19.0883   22.3286 O   0  0  0  0  0  0  0  0  0  0  0  0
    8.2089  -11.2255   21.1917 N   0  0  0  0  0  0  0  0  0  0  0  0
   12.5109  -16.9861   22.7255 C   0  0  2  0  0  0  0  0  0  0  0  0
   13.1500  -17.2966   24.0050 C   0  0  0  0  0  0  0  0  0  0  0  0
   14.3999  -16.5189   24.0854 C   0  0  0  0  0  0  0  0  0  0  0  0
   15.4687  -16.8217   23.1451 O   0  0  0  0  0  0  0  0  0  0  0  0
   15.9723  -17.9246   22.8824 C   0  0  0  0  0  0  0  0  0  0  0  0
   12.1920  -17.1216   25.1219 O   0  0  0  0  0  0  0  0  0  0  0  0
   11.0923  -16.5694   24.9588 O   0  0  0  0  0  0  0  0  0  0  0  0
   15.9905  -15.7046   22.4477 O   0  0  0  0  0  0  0  0  0  0  0  0
  2  1  1  6
  2  3  1  0
  2  7  1  0
  3  4  1  0
  4  5  1  0
  5  9  1  0
  6  5  2  0
  7  8  2  0
 11 10  1  0
 12 11  2  0
 13 11  1  0
 14 13  1  0
 15 14  1  0
 15 16  1  0
 17 16  1  1
 18  7  1  0
 18 17  1  0
 19 17  1  0
 19 20  2  0
 21 19  1  0
 22 21  1  0
 22 23  1  6
 24 25  2  0
 24 23  1  0
 26 22  1  0
 26 29  1  0
 27 26  2  0
 28 24  1  0
M  END
$$$$
