ERD.pdb
     RDKit          3D

 29 28  0  0  1  0  0  0  0  0999 V2000
   12.4607  -15.9344   15.1266 N   0  0  0  0  0  0  0  0  0  0  0  0
   12.8020  -16.8998   16.1258 C   0  0  1  0  0  0  0  0  0  0  0  0
   13.9802  -17.7583   15.7316 C   0  0  0  0  0  0  0  0  0  0  0  0
   15.2618  -16.9667   15.6003 C   0  0  0  0  0  0  0  0  0  0  0  0
   16.3114  -17.9021   15.1593 C   0  0  0  0  0  0  0  0  0  0  0  0
   16.9084  -18.5933   16.0015 O   0  0  0  0  0  0  0  0  0  0  0  0
   12.9499  -16.2650   17.4452 C   0  0  0  0  0  0  0  0  0  0  0  0
   13.6263  -15.2193   17.6394 O   0  0  0  0  0  0  0  0  0  0  0  0
   16.6222  -18.0040   13.8291 O   0  0  0  0  0  0  0  0  0  0  0  0
    7.7814  -12.4015   20.2949 N   0  0  0  0  0  0  0  0  0  0  0  0
    7.5759  -12.9683   19.0152 C   0  0  0  0  0  0  0  0  0  0  0  0
    6.4662  -12.7669   18.3997 N   0  0  0  0  0  0  0  0  0  0  0  0
    8.6151  -13.7580   18.4321 N   0  0  0  0  0  0  0  0  0  0  0  0
    9.0245  -14.9791   19.0794 C   0  0  0  0  0  0  0  0  0  0  0  0
   10.3917  -14.7263   19.7373 C   0  0  0  0  0  0  0  0  0  0  0  0
   10.8978  -16.0234   20.2628 C   0  0  0  0  0  0  0  0  0  0  0  0
   12.3196  -16.2486   19.8831 C   0  0  2  0  0  0  0  0  0  0  0  0
   12.2955  -16.8652   18.5542 N   0  0  0  0  0  0  0  0  0  0  0  0
   13.0380  -17.1689   20.7758 C   0  0  0  0  0  0  0  0  0  0  0  0
   13.4314  -18.2690   20.3432 O   0  0  0  0  0  0  0  0  0  0  0  0
    6.3633  -13.1295   17.4308 N   0  0  0  0  0  0  0  0  0  0  0  0
   13.2902  -16.8260   22.1204 C   0  0  2  0  0  0  0  0  0  0  0  0
   14.6160  -16.8282   22.7401 C   0  0  0  0  0  0  0  0  0  0  0  0
   15.5145  -16.0302   21.8861 C   0  0  0  0  0  0  0  0  0  0  0  0
   16.9283  -15.9738   22.2265 O   0  0  0  0  0  0  0  0  0  0  0  0
   17.5841  -15.0010   22.6298 C   0  0  0  0  0  0  0  0  0  0  0  0
   14.5266  -16.4228   24.1627 O   0  0  0  0  0  0  0  0  0  0  0  0
   15.4993  -16.5096   24.9289 O   0  0  0  0  0  0  0  0  0  0  0  0
   17.6329  -17.1931   22.0731 O   0  0  0  0  0  0  0  0  0  0  0  0
  2  1  1  6
  2  3  1  0
  2  7  1  0
  3  4  1  0
  4  5  1  0
  5  9  1  0
  6  5  2  0
  7  8  2  0
 11 10  1  0
 12 11  2  0
 13 11  1  0
 14 13  1  0
 15 14  1  0
 15 16  1  0
 17 16  1  1
 18  7  1  0
 18 17  1  0
 19 17  1  0
 19 20  2  0
 21 19  1  0
 22 21  1  0
 22 23  1  6
 24 25  2  0
 24 23  1  0
 26 22  1  0
 26 29  1  0
 27 26  2  0
 28 24  1  0
M  END
$$$$
