ERD.pdb
     RDKit          3D

 29 28  0  0  1  0  0  0  0  0999 V2000
   11.9727  -18.4542   19.7195 N   0  0  0  0  0  0  0  0  0  0  0  0
   12.6949  -17.2252   19.8421 C   0  0  1  0  0  0  0  0  0  0  0  0
   12.9203  -16.5440   18.5132 C   0  0  0  0  0  0  0  0  0  0  0  0
   13.6780  -15.2422   18.6454 C   0  0  0  0  0  0  0  0  0  0  0  0
   13.7883  -14.6605   17.2960 C   0  0  0  0  0  0  0  0  0  0  0  0
   14.4807  -15.2326   16.4377 O   0  0  0  0  0  0  0  0  0  0  0  0
   12.0834  -16.3519   20.8565 C   0  0  0  0  0  0  0  0  0  0  0  0
   12.6293  -15.2999   21.2854 O   0  0  0  0  0  0  0  0  0  0  0  0
   13.1301  -13.4971   16.9966 O   0  0  0  0  0  0  0  0  0  0  0  0
    9.4108  -13.4064   17.6593 N   0  0  0  0  0  0  0  0  0  0  0  0
    8.7710  -12.5871   18.6187 C   0  0  0  0  0  0  0  0  0  0  0  0
    8.9188  -11.3118   18.5678 N   0  0  0  0  0  0  0  0  0  0  0  0
    7.9691  -13.2012   19.6302 N   0  0  0  0  0  0  0  0  0  0  0  0
    8.2810  -14.5394   20.0657 C   0  0  0  0  0  0  0  0  0  0  0  0
    8.2800  -14.5450   21.6040 C   0  0  0  0  0  0  0  0  0  0  0  0
    8.7062  -15.8956   22.0608 C   0  0  0  0  0  0  0  0  0  0  0  0
   10.1522  -15.9212   22.4141 C   0  0  2  0  0  0  0  0  0  0  0  0
   10.8128  -16.7175   21.3765 N   0  0  0  0  0  0  0  0  0  0  0  0
   10.4411  -16.5634   23.7041 C   0  0  0  0  0  0  0  0  0  0  0  0
    9.9038  -16.1340   24.7427 O   0  0  0  0  0  0  0  0  0  0  0  0
    8.4647  -10.7300   19.3000 N   0  0  0  0  0  0  0  0  0  0  0  0
   11.3210  -17.6626   23.7859 C   0  0  1  0  0  0  0  0  0  0  0  0
   11.6511  -18.3675   25.0253 C   0  0  0  0  0  0  0  0  0  0  0  0
   11.6127  -19.8144   24.7452 C   0  0  0  0  0  0  0  0  0  0  0  0
   10.4705  -20.3522   24.0212 O   0  0  0  0  0  0  0  0  0  0  0  0
    9.2730  -20.3248   24.3441 C   0  0  0  0  0  0  0  0  0  0  0  0
   12.9097  -17.8416   25.6043 O   0  0  0  0  0  0  0  0  0  0  0  0
   13.6190  -17.0261   24.9936 O   0  0  0  0  0  0  0  0  0  0  0  0
   10.7811  -20.9845   22.7922 O   0  0  0  0  0  0  0  0  0  0  0  0
  2  1  1  6
  2  3  1  0
  2  7  1  0
  3  4  1  0
  4  5  1  0
  5  9  1  0
  6  5  2  0
  7  8  2  0
 11 10  1  0
 12 11  2  0
 13 11  1  0
 14 13  1  0
 15 14  1  0
 15 16  1  0
 17 16  1  6
 18  7  1  0
 18 17  1  0
 19 17  1  0
 19 20  2  0
 21 19  1  0
 22 21  1  0
 22 23  1  1
 24 25  2  0
 24 23  1  0
 26 22  1  0
 26 29  1  0
 27 26  2  0
 28 24  1  0
M  END
$$$$
