ERD.pdb
     RDKit          3D

 29 28  0  0  1  0  0  0  0  0999 V2000
    9.1793  -18.7657   19.1232 N   0  0  0  0  0  0  0  0  0  0  0  0
   10.3703  -17.9801   19.0165 C   0  0  1  0  0  0  0  0  0  0  0  0
   10.5166  -17.3198   17.6662 C   0  0  0  0  0  0  0  0  0  0  0  0
    9.2621  -17.4198   16.8281 C   0  0  0  0  0  0  0  0  0  0  0  0
    9.5596  -16.8111   15.5196 C   0  0  0  0  0  0  0  0  0  0  0  0
   10.6957  -16.3594   15.2989 O   0  0  0  0  0  0  0  0  0  0  0  0
   10.4895  -17.0450   20.1466 C   0  0  0  0  0  0  0  0  0  0  0  0
   11.5374  -16.3912   20.3977 O   0  0  0  0  0  0  0  0  0  0  0  0
    8.5863  -16.7465   14.5579 O   0  0  0  0  0  0  0  0  0  0  0  0
    9.5606  -13.4414   18.7734 N   0  0  0  0  0  0  0  0  0  0  0  0
    8.2907  -12.8276   18.8820 C   0  0  0  0  0  0  0  0  0  0  0  0
    7.8011  -12.1940   17.8771 N   0  0  0  0  0  0  0  0  0  0  0  0
    7.5761  -12.9270   20.1160 N   0  0  0  0  0  0  0  0  0  0  0  0
    8.1774  -13.6184   21.2287 C   0  0  0  0  0  0  0  0  0  0  0  0
    7.4222  -14.9445   21.4213 C   0  0  0  0  0  0  0  0  0  0  0  0
    8.0535  -15.6748   22.5539 C   0  0  0  0  0  0  0  0  0  0  0  0
    9.4467  -16.0868   22.2288 C   0  0  2  0  0  0  0  0  0  0  0  0
    9.3633  -16.8739   20.9956 N   0  0  0  0  0  0  0  0  0  0  0  0
   10.0704  -16.9420   23.2484 C   0  0  0  0  0  0  0  0  0  0  0  0
    9.5707  -18.0517   23.5147 O   0  0  0  0  0  0  0  0  0  0  0  0
    6.9114  -11.6718   18.0054 N   0  0  0  0  0  0  0  0  0  0  0  0
   11.2303  -16.5250   23.9337 C   0  0  2  0  0  0  0  0  0  0  0  0
   11.9232  -17.3209   24.9479 C   0  0  0  0  0  0  0  0  0  0  0  0
   13.3342  -16.8945   24.9696 C   0  0  0  0  0  0  0  0  0  0  0  0
   14.0751  -16.8792   23.7170 O   0  0  0  0  0  0  0  0  0  0  0  0
   14.0755  -17.7291   22.8134 C   0  0  0  0  0  0  0  0  0  0  0  0
   11.1979  -17.2650   26.2389 O   0  0  0  0  0  0  0  0  0  0  0  0
   10.2768  -16.4567   26.4362 O   0  0  0  0  0  0  0  0  0  0  0  0
   14.8962  -15.7422   23.5178 O   0  0  0  0  0  0  0  0  0  0  0  0
  2  1  1  6
  2  3  1  0
  2  7  1  0
  3  4  1  0
  4  5  1  0
  5  9  1  0
  6  5  2  0
  7  8  2  0
 11 10  1  0
 12 11  2  0
 13 11  1  0
 14 13  1  0
 15 14  1  0
 15 16  1  0
 17 16  1  1
 18  7  1  0
 18 17  1  0
 19 17  1  0
 19 20  2  0
 21 19  1  0
 22 21  1  0
 22 23  1  6
 24 25  2  0
 24 23  1  0
 26 22  1  0
 26 29  1  0
 27 26  2  0
 28 24  1  0
M  END
$$$$
