ERD.pdb
     RDKit          3D

 29 28  0  0  1  0  0  0  0  0999 V2000
   12.4425  -16.7925   19.4964 N   0  0  0  0  0  0  0  0  0  0  0  0
   12.9413  -15.5157   19.9060 C   0  0  1  0  0  0  0  0  0  0  0  0
   13.2987  -14.6255   18.7395 C   0  0  0  0  0  0  0  0  0  0  0  0
   14.7763  -14.3111   18.6761 C   0  0  0  0  0  0  0  0  0  0  0  0
   15.2443  -14.6758   17.3273 C   0  0  0  0  0  0  0  0  0  0  0  0
   16.4277  -15.0155   17.1612 O   0  0  0  0  0  0  0  0  0  0  0  0
   12.0353  -14.8810   20.8766 C   0  0  0  0  0  0  0  0  0  0  0  0
   12.3978  -13.9732   21.6722 O   0  0  0  0  0  0  0  0  0  0  0  0
   14.3762  -14.6381   16.2684 O   0  0  0  0  0  0  0  0  0  0  0  0
    8.2786  -14.9521   17.5001 N   0  0  0  0  0  0  0  0  0  0  0  0
    8.3765  -13.5889   17.1354 C   0  0  0  0  0  0  0  0  0  0  0  0
    7.9938  -13.2124   15.9681 N   0  0  0  0  0  0  0  0  0  0  0  0
    8.9030  -12.6547   18.0806 N   0  0  0  0  0  0  0  0  0  0  0  0
    8.6521  -12.8521   19.4863 C   0  0  0  0  0  0  0  0  0  0  0  0
    8.6738  -14.3658   19.7592 C   0  0  0  0  0  0  0  0  0  0  0  0
    8.4614  -14.5748   21.2172 C   0  0  0  0  0  0  0  0  0  0  0  0
    9.7473  -14.8195   21.9265 C   0  0  2  0  0  0  0  0  0  0  0  0
   10.6839  -15.3175   20.9156 N   0  0  0  0  0  0  0  0  0  0  0  0
    9.6636  -15.8399   22.9809 C   0  0  0  0  0  0  0  0  0  0  0  0
    8.7645  -15.7687   23.8403 O   0  0  0  0  0  0  0  0  0  0  0  0
    8.1054  -12.2121   15.7079 N   0  0  0  0  0  0  0  0  0  0  0  0
   10.5888  -16.9028   23.0365 C   0  0  1  0  0  0  0  0  0  0  0  0
   10.6544  -17.8869   24.1178 C   0  0  0  0  0  0  0  0  0  0  0  0
   10.8628  -19.2132   23.5087 C   0  0  0  0  0  0  0  0  0  0  0  0
   10.0110  -19.6091   22.3972 O   0  0  0  0  0  0  0  0  0  0  0  0
    8.7738  -19.6959   22.3693 C   0  0  0  0  0  0  0  0  0  0  0  0
   11.6405  -17.4700   25.1424 O   0  0  0  0  0  0  0  0  0  0  0  0
   11.7284  -18.0476   26.2376 O   0  0  0  0  0  0  0  0  0  0  0  0
   10.6960  -19.9337   21.2005 O   0  0  0  0  0  0  0  0  0  0  0  0
  2  1  1  6
  2  3  1  0
  2  7  1  0
  3  4  1  0
  4  5  1  0
  5  9  1  0
  6  5  2  0
  7  8  2  0
 11 10  1  0
 12 11  2  0
 13 11  1  0
 14 13  1  0
 15 14  1  0
 15 16  1  0
 17 16  1  6
 18  7  1  0
 18 17  1  0
 19 17  1  0
 19 20  2  0
 21 19  1  0
 22 21  1  0
 22 23  1  1
 24 25  2  0
 24 23  1  0
 26 22  1  0
 26 29  1  0
 27 26  2  0
 28 24  1  0
M  END
$$$$
