ERD.pdb
     RDKit          3D

 29 28  0  0  1  0  0  0  0  0999 V2000
   11.3620  -20.5060   18.3103 N   0  0  0  0  0  0  0  0  0  0  0  0
   11.4818  -20.1341   19.6866 C   0  0  1  0  0  0  0  0  0  0  0  0
   12.5872  -20.8765   20.3992 C   0  0  0  0  0  0  0  0  0  0  0  0
   12.0644  -21.9115   21.3696 C   0  0  0  0  0  0  0  0  0  0  0  0
   12.9309  -21.8724   22.5608 C   0  0  0  0  0  0  0  0  0  0  0  0
   14.0274  -22.4562   22.5394 O   0  0  0  0  0  0  0  0  0  0  0  0
   11.5628  -18.6721   19.8339 C   0  0  0  0  0  0  0  0  0  0  0  0
   12.2512  -17.9363   19.0767 O   0  0  0  0  0  0  0  0  0  0  0  0
   12.5247  -21.1960   23.6805 O   0  0  0  0  0  0  0  0  0  0  0  0
    7.4022  -13.9889   18.1177 N   0  0  0  0  0  0  0  0  0  0  0  0
    7.4632  -12.9473   19.0729 C   0  0  0  0  0  0  0  0  0  0  0  0
    7.2839  -11.7305   18.7013 N   0  0  0  0  0  0  0  0  0  0  0  0
    7.7249  -13.2747   20.4396 N   0  0  0  0  0  0  0  0  0  0  0  0
    7.5923  -14.6414   20.8781 C   0  0  0  0  0  0  0  0  0  0  0  0
    8.7538  -15.4450   20.2688 C   0  0  0  0  0  0  0  0  0  0  0  0
    9.3625  -16.2676   21.3493 C   0  0  0  0  0  0  0  0  0  0  0  0
   10.7795  -16.6074   21.0440 C   0  0  2  0  0  0  0  0  0  0  0  0
   10.8260  -18.0633   20.8850 N   0  0  0  0  0  0  0  0  0  0  0  0
   11.7223  -16.2574   22.1157 C   0  0  0  0  0  0  0  0  0  0  0  0
   11.8457  -15.0685   22.4669 O   0  0  0  0  0  0  0  0  0  0  0  0
    7.3329  -10.9801   19.4192 N   0  0  0  0  0  0  0  0  0  0  0  0
   12.4936  -17.2496   22.7557 C   0  0  1  0  0  0  0  0  0  0  0  0
   13.4000  -16.9979   23.8768 C   0  0  0  0  0  0  0  0  0  0  0  0
   13.2556  -18.1111   24.8325 C   0  0  0  0  0  0  0  0  0  0  0  0
   12.0652  -18.1597   25.6683 O   0  0  0  0  0  0  0  0  0  0  0  0
   11.1495  -17.3269   25.7516 C   0  0  0  0  0  0  0  0  0  0  0  0
   14.7714  -16.7240   23.3866 O   0  0  0  0  0  0  0  0  0  0  0  0
   15.0842  -16.8866   22.1964 O   0  0  0  0  0  0  0  0  0  0  0  0
   11.9506  -19.3112   26.4853 O   0  0  0  0  0  0  0  0  0  0  0  0
  2  1  1  6
  2  3  1  0
  2  7  1  0
  3  4  1  0
  4  5  1  0
  5  9  1  0
  6  5  2  0
  7  8  2  0
 11 10  1  0
 12 11  2  0
 13 11  1  0
 14 13  1  0
 15 14  1  0
 15 16  1  0
 17 16  1  1
 18  7  1  0
 18 17  1  0
 19 17  1  0
 19 20  2  0
 21 19  1  0
 22 21  1  0
 22 23  1  1
 24 25  2  0
 24 23  1  0
 26 22  1  0
 26 29  1  0
 27 26  2  0
 28 24  1  0
M  END
$$$$
