ERD.pdb
     RDKit          3D

 29 28  0  0  1  0  0  0  0  0999 V2000
   10.5022  -18.9566   18.1721 N   0  0  0  0  0  0  0  0  0  0  0  0
   11.8186  -18.4159   18.3194 C   0  0  1  0  0  0  0  0  0  0  0  0
   12.4016  -17.9314   17.0132 C   0  0  0  0  0  0  0  0  0  0  0  0
   11.3550  -17.7554   15.9361 C   0  0  0  0  0  0  0  0  0  0  0  0
   12.0541  -17.3276   14.7116 C   0  0  0  0  0  0  0  0  0  0  0  0
   13.2928  -17.2321   14.7157 O   0  0  0  0  0  0  0  0  0  0  0  0
   11.8598  -17.4102   19.3929 C   0  0  0  0  0  0  0  0  0  0  0  0
   12.9088  -16.7974   19.7288 O   0  0  0  0  0  0  0  0  0  0  0  0
   11.3379  -17.0383   13.5804 O   0  0  0  0  0  0  0  0  0  0  0  0
    7.8996  -12.7532   17.3712 N   0  0  0  0  0  0  0  0  0  0  0  0
    7.5840  -12.8245   18.7484 C   0  0  0  0  0  0  0  0  0  0  0  0
    7.9688  -11.8883   19.5397 N   0  0  0  0  0  0  0  0  0  0  0  0
    6.8388  -13.9447   19.2315 N   0  0  0  0  0  0  0  0  0  0  0  0
    7.2882  -14.6376   20.4128 C   0  0  0  0  0  0  0  0  0  0  0  0
    8.7732  -14.9870   20.2161 C   0  0  0  0  0  0  0  0  0  0  0  0
    9.2228  -15.7729   21.3972 C   0  0  0  0  0  0  0  0  0  0  0  0
   10.6326  -16.2268   21.2462 C   0  0  2  0  0  0  0  0  0  0  0  0
   10.6531  -17.1186   20.0838 N   0  0  0  0  0  0  0  0  0  0  0  0
   11.1391  -16.9953   22.3920 C   0  0  0  0  0  0  0  0  0  0  0  0
   10.7266  -18.1540   22.5904 O   0  0  0  0  0  0  0  0  0  0  0  0
    7.8440  -12.0211   20.5632 N   0  0  0  0  0  0  0  0  0  0  0  0
   12.0883  -16.4400   23.2751 C   0  0  2  0  0  0  0  0  0  0  0  0
   12.5972  -17.1116   24.4716 C   0  0  0  0  0  0  0  0  0  0  0  0
   13.8889  -16.4928   24.8213 C   0  0  0  0  0  0  0  0  0  0  0  0
   14.9496  -16.4879   23.8250 O   0  0  0  0  0  0  0  0  0  0  0  0
   15.9304  -15.7321   23.7495 C   0  0  0  0  0  0  0  0  0  0  0  0
   11.5664  -17.1315   25.5360 O   0  0  0  0  0  0  0  0  0  0  0  0
   10.5260  -16.4600   25.4503 O   0  0  0  0  0  0  0  0  0  0  0  0
   14.8345  -17.4788   22.8192 O   0  0  0  0  0  0  0  0  0  0  0  0
  2  1  1  6
  2  3  1  0
  2  7  1  0
  3  4  1  0
  4  5  1  0
  5  9  1  0
  6  5  2  0
  7  8  2  0
 11 10  1  0
 12 11  2  0
 13 11  1  0
 14 13  1  0
 15 14  1  0
 15 16  1  0
 17 16  1  1
 18  7  1  0
 18 17  1  0
 19 17  1  0
 19 20  2  0
 21 19  1  0
 22 21  1  0
 22 23  1  6
 24 25  2  0
 24 23  1  0
 26 22  1  0
 26 29  1  0
 27 26  2  0
 28 24  1  0
M  END
$$$$
