ERD.pdb
     RDKit          3D

 29 28  0  0  1  0  0  0  0  0999 V2000
   13.5925  -16.2920   19.2548 N   0  0  0  0  0  0  0  0  0  0  0  0
   13.2334  -17.2055   20.2956 C   0  0  1  0  0  0  0  0  0  0  0  0
   14.3265  -18.2012   20.6030 C   0  0  0  0  0  0  0  0  0  0  0  0
   13.9589  -19.1437   21.7267 C   0  0  0  0  0  0  0  0  0  0  0  0
   15.0724  -20.0962   21.8817 C   0  0  0  0  0  0  0  0  0  0  0  0
   16.1965  -19.8001   21.4433 O   0  0  0  0  0  0  0  0  0  0  0  0
   12.7388  -16.4878   21.4813 C   0  0  0  0  0  0  0  0  0  0  0  0
   13.4483  -15.6959   22.1583 O   0  0  0  0  0  0  0  0  0  0  0  0
   14.8632  -21.2979   22.5051 O   0  0  0  0  0  0  0  0  0  0  0  0
    7.3078  -12.0184   19.3274 N   0  0  0  0  0  0  0  0  0  0  0  0
    7.9129  -13.0242   18.5380 C   0  0  0  0  0  0  0  0  0  0  0  0
    7.8756  -12.9372   17.2566 N   0  0  0  0  0  0  0  0  0  0  0  0
    8.5565  -14.1224   19.1885 N   0  0  0  0  0  0  0  0  0  0  0  0
    8.6311  -14.1476   20.6278 C   0  0  0  0  0  0  0  0  0  0  0  0
    9.4580  -15.3795   21.0337 C   0  0  0  0  0  0  0  0  0  0  0  0
    9.5026  -15.4361   22.5201 C   0  0  0  0  0  0  0  0  0  0  0  0
   10.8024  -15.9745   23.0071 C   0  0  2  0  0  0  0  0  0  0  0  0
   11.3921  -16.7018   21.8799 N   0  0  0  0  0  0  0  0  0  0  0  0
   10.6758  -16.9265   24.1196 C   0  0  0  0  0  0  0  0  0  0  0  0
   10.0280  -16.6085   25.1350 O   0  0  0  0  0  0  0  0  0  0  0  0
    8.2698  -13.7178   16.6946 N   0  0  0  0  0  0  0  0  0  0  0  0
   11.2789  -18.1999   24.0565 C   0  0  2  0  0  0  0  0  0  0  0  0
   11.2354  -19.1901   25.1332 C   0  0  0  0  0  0  0  0  0  0  0  0
   11.0543  -20.5177   24.5181 C   0  0  0  0  0  0  0  0  0  0  0  0
    9.7052  -21.0502   24.3988 O   0  0  0  0  0  0  0  0  0  0  0  0
    8.6436  -20.5539   24.8061 C   0  0  0  0  0  0  0  0  0  0  0  0
   12.4033  -19.0340   26.0319 O   0  0  0  0  0  0  0  0  0  0  0  0
   12.3301  -19.2788   27.2466 O   0  0  0  0  0  0  0  0  0  0  0  0
    9.6070  -22.2948   23.7295 O   0  0  0  0  0  0  0  0  0  0  0  0
  2  1  1  6
  2  3  1  0
  2  7  1  0
  3  4  1  0
  4  5  1  0
  5  9  1  0
  6  5  2  0
  7  8  2  0
 11 10  1  0
 12 11  2  0
 13 11  1  0
 14 13  1  0
 15 14  1  0
 15 16  1  0
 17 16  1  6
 18  7  1  0
 18 17  1  0
 19 17  1  0
 19 20  2  0
 21 19  1  0
 22 21  1  0
 22 23  1  1
 24 25  2  0
 24 23  1  0
 26 22  1  0
 26 29  1  0
 27 26  2  0
 28 24  1  0
M  END
$$$$
