ERD.pdb
     RDKit          3D

 29 28  0  0  1  0  0  0  0  0999 V2000
    9.6823  -16.9693   17.0749 N   0  0  0  0  0  0  0  0  0  0  0  0
    9.4281  -17.6709   18.2956 C   0  0  1  0  0  0  0  0  0  0  0  0
    9.8735  -19.1130   18.2453 C   0  0  0  0  0  0  0  0  0  0  0  0
   11.3375  -19.2841   18.5828 C   0  0  0  0  0  0  0  0  0  0  0  0
   11.6639  -20.7102   18.4065 C   0  0  0  0  0  0  0  0  0  0  0  0
   10.7727  -21.5039   18.0612 O   0  0  0  0  0  0  0  0  0  0  0  0
    9.9579  -16.9297   19.4513 C   0  0  0  0  0  0  0  0  0  0  0  0
   11.1509  -16.5310   19.5312 O   0  0  0  0  0  0  0  0  0  0  0  0
   12.9424  -21.1513   18.6237 O   0  0  0  0  0  0  0  0  0  0  0  0
    8.2619  -14.3283   18.1420 N   0  0  0  0  0  0  0  0  0  0  0  0
    7.4398  -13.2120   18.4235 C   0  0  0  0  0  0  0  0  0  0  0  0
    6.6922  -12.7222   17.5005 N   0  0  0  0  0  0  0  0  0  0  0  0
    7.4599  -12.6505   19.7379 N   0  0  0  0  0  0  0  0  0  0  0  0
    8.2104  -13.3087   20.7777 C   0  0  0  0  0  0  0  0  0  0  0  0
    7.3954  -14.5262   21.2465 C   0  0  0  0  0  0  0  0  0  0  0  0
    8.2117  -15.2724   22.2421 C   0  0  0  0  0  0  0  0  0  0  0  0
    9.4742  -15.7827   21.6402 C   0  0  2  0  0  0  0  0  0  0  0  0
    9.0760  -16.6521   20.5300 N   0  0  0  0  0  0  0  0  0  0  0  0
   10.2881  -16.5938   22.5565 C   0  0  0  0  0  0  0  0  0  0  0  0
    9.8925  -17.7244   22.8989 O   0  0  0  0  0  0  0  0  0  0  0  0
    6.1274  -11.8765   17.7160 N   0  0  0  0  0  0  0  0  0  0  0  0
   11.5149  -16.1110   23.0573 C   0  0  1  0  0  0  0  0  0  0  0  0
   12.3941  -16.8604   23.9558 C   0  0  0  0  0  0  0  0  0  0  0  0
   13.7292  -16.2372   23.9039 C   0  0  0  0  0  0  0  0  0  0  0  0
   14.8012  -16.8236   24.6944 O   0  0  0  0  0  0  0  0  0  0  0  0
   14.7682  -17.8455   25.3970 C   0  0  0  0  0  0  0  0  0  0  0  0
   11.7792  -16.9902   25.2978 O   0  0  0  0  0  0  0  0  0  0  0  0
   10.9161  -16.1942   25.7006 O   0  0  0  0  0  0  0  0  0  0  0  0
   16.0343  -16.1280   24.6452 O   0  0  0  0  0  0  0  0  0  0  0  0
  2  1  1  6
  2  3  1  0
  2  7  1  0
  3  4  1  0
  4  5  1  0
  5  9  1  0
  6  5  2  0
  7  8  2  0
 11 10  1  0
 12 11  2  0
 13 11  1  0
 14 13  1  0
 15 14  1  0
 15 16  1  0
 17 16  1  1
 18  7  1  0
 18 17  1  0
 19 17  1  0
 19 20  2  0
 21 19  1  0
 22 21  1  0
 22 23  1  6
 24 25  2  0
 24 23  1  0
 26 22  1  0
 26 29  1  0
 27 26  2  0
 28 24  1  0
M  END
$$$$
