ERD.pdb
     RDKit          3D

 29 28  0  0  1  0  0  0  0  0999 V2000
   11.6280  -18.3029   21.4248 N   0  0  0  0  0  0  0  0  0  0  0  0
   12.3854  -17.0993   21.5820 C   0  0  1  0  0  0  0  0  0  0  0  0
   12.7013  -16.4305   20.2653 C   0  0  0  0  0  0  0  0  0  0  0  0
   13.5493  -15.1894   20.4293 C   0  0  0  0  0  0  0  0  0  0  0  0
   13.7808  -14.6360   19.0834 C   0  0  0  0  0  0  0  0  0  0  0  0
   12.8101  -14.2995   18.3848 O   0  0  0  0  0  0  0  0  0  0  0  0
   11.7542  -16.2021   22.5630 C   0  0  0  0  0  0  0  0  0  0  0  0
   12.3252  -15.1845   23.0395 O   0  0  0  0  0  0  0  0  0  0  0  0
   15.0592  -14.4965   18.6116 O   0  0  0  0  0  0  0  0  0  0  0  0
    7.0914  -11.5432   19.9672 N   0  0  0  0  0  0  0  0  0  0  0  0
    7.9328  -12.4865   19.3321 C   0  0  0  0  0  0  0  0  0  0  0  0
    8.4353  -12.2185   18.1803 N   0  0  0  0  0  0  0  0  0  0  0  0
    8.2066  -13.7252   19.9909 N   0  0  0  0  0  0  0  0  0  0  0  0
    8.1928  -13.7793   21.4313 C   0  0  0  0  0  0  0  0  0  0  0  0
    8.5351  -15.2191   21.8506 C   0  0  0  0  0  0  0  0  0  0  0  0
    8.4244  -15.3070   23.3319 C   0  0  0  0  0  0  0  0  0  0  0  0
    9.7304  -15.6531   23.9573 C   0  0  2  0  0  0  0  0  0  0  0  0
   10.4337  -16.5025   22.9924 N   0  0  0  0  0  0  0  0  0  0  0  0
    9.6110  -16.4204   25.2051 C   0  0  0  0  0  0  0  0  0  0  0  0
    8.8400  -16.0275   26.1012 O   0  0  0  0  0  0  0  0  0  0  0  0
    9.0423  -12.9298   17.7261 N   0  0  0  0  0  0  0  0  0  0  0  0
   10.3588  -17.5992   25.4058 C   0  0  1  0  0  0  0  0  0  0  0  0
   10.3534  -18.3818   26.6425 C   0  0  0  0  0  0  0  0  0  0  0  0
   10.2436  -19.8053   26.2751 C   0  0  0  0  0  0  0  0  0  0  0  0
    9.0431  -20.2546   25.5859 O   0  0  0  0  0  0  0  0  0  0  0  0
    8.0270  -19.6006   25.3053 C   0  0  0  0  0  0  0  0  0  0  0  0
   11.5034  -18.0092   27.4997 O   0  0  0  0  0  0  0  0  0  0  0  0
   12.4050  -17.2590   27.0933 O   0  0  0  0  0  0  0  0  0  0  0  0
    9.0503  -21.6149   25.1905 O   0  0  0  0  0  0  0  0  0  0  0  0
  2  1  1  6
  2  3  1  0
  2  7  1  0
  3  4  1  0
  4  5  1  0
  5  9  1  0
  6  5  2  0
  7  8  2  0
 11 10  1  0
 12 11  2  0
 13 11  1  0
 14 13  1  0
 15 14  1  0
 15 16  1  0
 17 16  1  6
 18  7  1  0
 18 17  1  0
 19 17  1  0
 19 20  2  0
 21 19  1  0
 22 21  1  0
 22 23  1  1
 24 25  2  0
 24 23  1  0
 26 22  1  0
 26 29  1  0
 27 26  2  0
 28 24  1  0
M  END
$$$$
