ERD.pdb
     RDKit          3D

 29 28  0  0  1  0  0  0  0  0999 V2000
   13.2891  -14.6615   15.7221 N   0  0  0  0  0  0  0  0  0  0  0  0
   13.9926  -15.1331   16.8752 C   0  0  1  0  0  0  0  0  0  0  0  0
   15.4718  -14.8333   16.8212 C   0  0  0  0  0  0  0  0  0  0  0  0
   16.1514  -15.4599   15.6247 C   0  0  0  0  0  0  0  0  0  0  0  0
   17.5829  -15.1204   15.7063 C   0  0  0  0  0  0  0  0  0  0  0  0
   18.2935  -15.6670   16.5664 O   0  0  0  0  0  0  0  0  0  0  0  0
   13.3429  -14.6763   18.1141 C   0  0  0  0  0  0  0  0  0  0  0  0
   13.1283  -13.4625   18.3774 O   0  0  0  0  0  0  0  0  0  0  0  0
   18.1203  -14.2076   14.8377 O   0  0  0  0  0  0  0  0  0  0  0  0
    6.3134  -13.4585   19.7791 N   0  0  0  0  0  0  0  0  0  0  0  0
    7.5976  -13.1232   19.2896 C   0  0  0  0  0  0  0  0  0  0  0  0
    7.7197  -12.2095   18.3944 N   0  0  0  0  0  0  0  0  0  0  0  0
    8.7380  -13.8134   19.8056 N   0  0  0  0  0  0  0  0  0  0  0  0
    8.5544  -14.8365   20.8042 C   0  0  0  0  0  0  0  0  0  0  0  0
    9.9463  -15.3445   21.2177 C   0  0  0  0  0  0  0  0  0  0  0  0
   10.7745  -15.4733   19.9881 C   0  0  0  0  0  0  0  0  0  0  0  0
   12.2222  -15.2913   20.2837 C   0  0  2  0  0  0  0  0  0  0  0  0
   12.9390  -15.6572   19.0591 N   0  0  0  0  0  0  0  0  0  0  0  0
   12.7267  -16.1585   21.3576 C   0  0  0  0  0  0  0  0  0  0  0  0
   12.5670  -17.3918   21.2830 O   0  0  0  0  0  0  0  0  0  0  0  0
    8.6507  -12.0677   17.9540 N   0  0  0  0  0  0  0  0  0  0  0  0
   13.3912  -15.6152   22.4766 C   0  0  2  0  0  0  0  0  0  0  0  0
   13.8208  -16.3909   23.6409 C   0  0  0  0  0  0  0  0  0  0  0  0
   15.1125  -15.8445   24.0954 C   0  0  0  0  0  0  0  0  0  0  0  0
   16.2714  -15.9858   23.2265 O   0  0  0  0  0  0  0  0  0  0  0  0
   17.4321  -15.5946   23.4229 C   0  0  0  0  0  0  0  0  0  0  0  0
   12.7396  -16.4544   24.6523 O   0  0  0  0  0  0  0  0  0  0  0  0
   11.7058  -15.7755   24.5468 O   0  0  0  0  0  0  0  0  0  0  0  0
   16.0278  -16.6585   22.0039 O   0  0  0  0  0  0  0  0  0  0  0  0
  2  1  1  6
  2  3  1  0
  2  7  1  0
  3  4  1  0
  4  5  1  0
  5  9  1  0
  6  5  2  0
  7  8  2  0
 11 10  1  0
 12 11  2  0
 13 11  1  0
 14 13  1  0
 15 14  1  0
 15 16  1  0
 17 16  1  6
 18  7  1  0
 18 17  1  0
 19 17  1  0
 19 20  2  0
 21 19  1  0
 22 21  1  0
 22 23  1  6
 24 25  2  0
 24 23  1  0
 26 22  1  0
 26 29  1  0
 27 26  2  0
 28 24  1  0
M  END
$$$$
