ERD.pdb
     RDKit          3D

 29 28  0  0  1  0  0  0  0  0999 V2000
   12.7368  -17.8029   18.4015 N   0  0  0  0  0  0  0  0  0  0  0  0
   13.5585  -16.7217   18.8517 C   0  0  1  0  0  0  0  0  0  0  0  0
   13.9502  -15.7811   17.7370 C   0  0  0  0  0  0  0  0  0  0  0  0
   14.7350  -14.5863   18.2297 C   0  0  0  0  0  0  0  0  0  0  0  0
   15.0153  -13.7339   17.0609 C   0  0  0  0  0  0  0  0  0  0  0  0
   14.8237  -12.5088   17.1369 O   0  0  0  0  0  0  0  0  0  0  0  0
   12.9531  -16.0445   20.0096 C   0  0  0  0  0  0  0  0  0  0  0  0
   13.5296  -15.1294   20.6567 O   0  0  0  0  0  0  0  0  0  0  0  0
   15.4832  -14.2943   15.9018 O   0  0  0  0  0  0  0  0  0  0  0  0
    6.9549  -11.6338   20.7800 N   0  0  0  0  0  0  0  0  0  0  0  0
    7.6550  -12.5712   19.9847 C   0  0  0  0  0  0  0  0  0  0  0  0
    7.8146  -12.3486   18.7294 N   0  0  0  0  0  0  0  0  0  0  0  0
    8.1725  -13.7529   20.6003 N   0  0  0  0  0  0  0  0  0  0  0  0
    8.0363  -13.9270   22.0247 C   0  0  0  0  0  0  0  0  0  0  0  0
    8.7845  -15.2133   22.4143 C   0  0  0  0  0  0  0  0  0  0  0  0
    9.5845  -15.6555   21.2400 C   0  0  0  0  0  0  0  0  0  0  0  0
   11.0110  -15.8774   21.6037 C   0  0  2  0  0  0  0  0  0  0  0  0
   11.6524  -16.4465   20.4155 N   0  0  0  0  0  0  0  0  0  0  0  0
   11.2059  -16.8338   22.7024 C   0  0  0  0  0  0  0  0  0  0  0  0
   10.6952  -17.9680   22.6329 O   0  0  0  0  0  0  0  0  0  0  0  0
    8.3575  -13.0355   18.1688 N   0  0  0  0  0  0  0  0  0  0  0  0
   11.9646  -16.4872   23.8396 C   0  0  1  0  0  0  0  0  0  0  0  0
   12.2233  -17.3843   24.9665 C   0  0  0  0  0  0  0  0  0  0  0  0
   13.4817  -16.9563   25.6042 C   0  0  0  0  0  0  0  0  0  0  0  0
   14.7207  -17.0828   24.8512 O   0  0  0  0  0  0  0  0  0  0  0  0
   14.8881  -17.5681   23.7219 C   0  0  0  0  0  0  0  0  0  0  0  0
   11.0345  -17.4707   25.8470 O   0  0  0  0  0  0  0  0  0  0  0  0
   10.1471  -16.6029   25.8334 O   0  0  0  0  0  0  0  0  0  0  0  0
   15.8746  -16.5833   25.5036 O   0  0  0  0  0  0  0  0  0  0  0  0
  2  1  1  6
  2  3  1  0
  2  7  1  0
  3  4  1  0
  4  5  1  0
  5  9  1  0
  6  5  2  0
  7  8  2  0
 11 10  1  0
 12 11  2  0
 13 11  1  0
 14 13  1  0
 15 14  1  0
 15 16  1  0
 17 16  1  6
 18  7  1  0
 18 17  1  0
 19 17  1  0
 19 20  2  0
 21 19  1  0
 22 21  1  0
 22 23  1  6
 24 25  2  0
 24 23  1  0
 26 22  1  0
 26 29  1  0
 27 26  2  0
 28 24  1  0
M  END
$$$$
