ERD.pdb
     RDKit          3D

 29 28  0  0  1  0  0  0  0  0999 V2000
   13.2539  -17.4779   16.1112 N   0  0  0  0  0  0  0  0  0  0  0  0
   13.6508  -17.6008   17.4803 C   0  0  1  0  0  0  0  0  0  0  0  0
   15.0807  -18.0612   17.6358 C   0  0  0  0  0  0  0  0  0  0  0  0
   15.4907  -18.2146   19.0831 C   0  0  0  0  0  0  0  0  0  0  0  0
   16.9093  -18.6130   19.0967 C   0  0  0  0  0  0  0  0  0  0  0  0
   17.3165  -19.3966   19.9706 O   0  0  0  0  0  0  0  0  0  0  0  0
   13.3407  -16.3746   18.2325 C   0  0  0  0  0  0  0  0  0  0  0  0
   13.8367  -15.2489   17.9579 O   0  0  0  0  0  0  0  0  0  0  0  0
   17.7677  -18.1194   18.1502 O   0  0  0  0  0  0  0  0  0  0  0  0
    7.3268  -11.7639   18.6796 N   0  0  0  0  0  0  0  0  0  0  0  0
    7.6353  -13.1026   18.3421 C   0  0  0  0  0  0  0  0  0  0  0  0
    7.2283  -13.5880   17.2242 N   0  0  0  0  0  0  0  0  0  0  0  0
    8.3982  -13.8903   19.2591 N   0  0  0  0  0  0  0  0  0  0  0  0
    9.1698  -13.2340   20.2846 C   0  0  0  0  0  0  0  0  0  0  0  0
    9.9723  -14.3131   21.0315 C   0  0  0  0  0  0  0  0  0  0  0  0
   10.5367  -15.2497   20.0222 C   0  0  0  0  0  0  0  0  0  0  0  0
   12.0239  -15.2851   20.0819 C   0  0  2  0  0  0  0  0  0  0  0  0
   12.4358  -16.4694   19.3236 N   0  0  0  0  0  0  0  0  0  0  0  0
   12.5643  -15.4301   21.4409 C   0  0  0  0  0  0  0  0  0  0  0  0
   12.3425  -14.5478   22.2920 O   0  0  0  0  0  0  0  0  0  0  0  0
    7.4951  -14.5627   16.9800 N   0  0  0  0  0  0  0  0  0  0  0  0
   13.3337  -16.5565   21.7990 C   0  0  1  0  0  0  0  0  0  0  0  0
   13.9047  -16.7799   23.1278 C   0  0  0  0  0  0  0  0  0  0  0  0
   13.3041  -18.0096   23.6760 C   0  0  0  0  0  0  0  0  0  0  0  0
   13.7556  -18.4841   24.9756 O   0  0  0  0  0  0  0  0  0  0  0  0
   14.6661  -18.0309   25.6860 C   0  0  0  0  0  0  0  0  0  0  0  0
   15.3850  -16.7374   23.0726 O   0  0  0  0  0  0  0  0  0  0  0  0
   16.0832  -16.9835   24.0689 O   0  0  0  0  0  0  0  0  0  0  0  0
   13.0565  -19.6073   25.4818 O   0  0  0  0  0  0  0  0  0  0  0  0
  2  1  1  6
  2  3  1  0
  2  7  1  0
  3  4  1  0
  4  5  1  0
  5  9  1  0
  6  5  2  0
  7  8  2  0
 11 10  1  0
 12 11  2  0
 13 11  1  0
 14 13  1  0
 15 14  1  0
 15 16  1  0
 17 16  1  1
 18  7  1  0
 18 17  1  0
 19 17  1  0
 19 20  2  0
 21 19  1  0
 22 21  1  0
 22 23  1  1
 24 25  2  0
 24 23  1  0
 26 22  1  0
 26 29  1  0
 27 26  2  0
 28 24  1  0
M  END
$$$$
