ERD.pdb
     RDKit          3D

 29 28  0  0  1  0  0  0  0  0999 V2000
    8.4847  -18.9412   18.9874 N   0  0  0  0  0  0  0  0  0  0  0  0
    9.8087  -18.4502   18.7579 C   0  0  1  0  0  0  0  0  0  0  0  0
   10.0195  -17.9768   17.3393 C   0  0  0  0  0  0  0  0  0  0  0  0
    9.1346  -16.8055   16.9770 C   0  0  0  0  0  0  0  0  0  0  0  0
    9.3971  -16.4786   15.5644 C   0  0  0  0  0  0  0  0  0  0  0  0
   10.2018  -17.1682   14.9160 O   0  0  0  0  0  0  0  0  0  0  0  0
   10.1869  -17.4553   19.7742 C   0  0  0  0  0  0  0  0  0  0  0  0
   11.3113  -16.8864   19.8024 O   0  0  0  0  0  0  0  0  0  0  0  0
    8.7556  -15.4208   14.9762 O   0  0  0  0  0  0  0  0  0  0  0  0
    7.8607  -14.5795   17.6160 N   0  0  0  0  0  0  0  0  0  0  0  0
    7.7842  -13.3498   18.3111 C   0  0  0  0  0  0  0  0  0  0  0  0
    8.1644  -12.2667   17.7338 N   0  0  0  0  0  0  0  0  0  0  0  0
    7.2821  -13.3403   19.6494 N   0  0  0  0  0  0  0  0  0  0  0  0
    8.0953  -13.8712   20.7146 C   0  0  0  0  0  0  0  0  0  0  0  0
    7.3868  -15.1188   21.2693 C   0  0  0  0  0  0  0  0  0  0  0  0
    8.2311  -15.6838   22.3566 C   0  0  0  0  0  0  0  0  0  0  0  0
    9.5412  -16.1635   21.8370 C   0  0  2  0  0  0  0  0  0  0  0  0
    9.2329  -17.1225   20.7729 N   0  0  0  0  0  0  0  0  0  0  0  0
   10.3576  -16.8695   22.8345 C   0  0  0  0  0  0  0  0  0  0  0  0
   10.0184  -18.0046   23.2199 O   0  0  0  0  0  0  0  0  0  0  0  0
    8.0859  -11.3717   18.2569 N   0  0  0  0  0  0  0  0  0  0  0  0
   11.5238  -16.2804   23.3655 C   0  0  2  0  0  0  0  0  0  0  0  0
   12.3632  -16.8911   24.3972 C   0  0  0  0  0  0  0  0  0  0  0  0
   13.6740  -16.2170   24.3697 C   0  0  0  0  0  0  0  0  0  0  0  0
   14.3767  -16.1150   23.0994 O   0  0  0  0  0  0  0  0  0  0  0  0
   14.9599  -15.1307   22.6199 C   0  0  0  0  0  0  0  0  0  0  0  0
   11.6577  -16.9076   25.7003 O   0  0  0  0  0  0  0  0  0  0  0  0
   10.5948  -16.2909   25.8755 O   0  0  0  0  0  0  0  0  0  0  0  0
   14.3884  -17.2992   22.3219 O   0  0  0  0  0  0  0  0  0  0  0  0
  2  1  1  6
  2  3  1  0
  2  7  1  0
  3  4  1  0
  4  5  1  0
  5  9  1  0
  6  5  2  0
  7  8  2  0
 11 10  1  0
 12 11  2  0
 13 11  1  0
 14 13  1  0
 15 14  1  0
 15 16  1  0
 17 16  1  1
 18  7  1  0
 18 17  1  0
 19 17  1  0
 19 20  2  0
 21 19  1  0
 22 21  1  0
 22 23  1  6
 24 25  2  0
 24 23  1  0
 26 22  1  0
 26 29  1  0
 27 26  2  0
 28 24  1  0
M  END
$$$$
