ERD.pdb
     RDKit          3D

 29 28  0  0  1  0  0  0  0  0999 V2000
   10.9539  -18.7617   19.7550 N   0  0  0  0  0  0  0  0  0  0  0  0
   12.0143  -17.8016   19.7327 C   0  0  1  0  0  0  0  0  0  0  0  0
   12.3283  -17.3090   18.3400 C   0  0  0  0  0  0  0  0  0  0  0  0
   11.9643  -18.3130   17.2695 C   0  0  0  0  0  0  0  0  0  0  0  0
   12.2806  -17.6994   15.9677 C   0  0  0  0  0  0  0  0  0  0  0  0
   13.3255  -18.0207   15.3774 O   0  0  0  0  0  0  0  0  0  0  0  0
   11.7682  -16.7198   20.6996 C   0  0  0  0  0  0  0  0  0  0  0  0
   12.5916  -15.7931   20.9273 O   0  0  0  0  0  0  0  0  0  0  0  0
   11.4249  -16.7819   15.4178 O   0  0  0  0  0  0  0  0  0  0  0  0
    8.3115  -12.0601   19.3685 N   0  0  0  0  0  0  0  0  0  0  0  0
    7.7485  -13.0499   18.5292 C   0  0  0  0  0  0  0  0  0  0  0  0
    7.9219  -12.9812   17.2579 N   0  0  0  0  0  0  0  0  0  0  0  0
    6.9942  -14.1114   19.1188 N   0  0  0  0  0  0  0  0  0  0  0  0
    7.1767  -14.4190   20.5151 C   0  0  0  0  0  0  0  0  0  0  0  0
    8.6573  -14.7781   20.7273 C   0  0  0  0  0  0  0  0  0  0  0  0
    8.8172  -15.2708   22.1224 C   0  0  0  0  0  0  0  0  0  0  0  0
   10.2198  -15.6882   22.3964 C   0  0  2  0  0  0  0  0  0  0  0  0
   10.5383  -16.7245   21.4107 N   0  0  0  0  0  0  0  0  0  0  0  0
   10.4184  -16.2791   23.7273 C   0  0  0  0  0  0  0  0  0  0  0  0
   10.1019  -15.6330   24.7443 O   0  0  0  0  0  0  0  0  0  0  0  0
    7.4766  -13.7030   16.6567 N   0  0  0  0  0  0  0  0  0  0  0  0
   10.9644  -17.5712   23.8728 C   0  0  1  0  0  0  0  0  0  0  0  0
   11.2673  -18.2015   25.1585 C   0  0  0  0  0  0  0  0  0  0  0  0
   11.0249  -19.6490   25.0196 C   0  0  0  0  0  0  0  0  0  0  0  0
   11.3013  -20.5125   26.1580 O   0  0  0  0  0  0  0  0  0  0  0  0
   11.9901  -21.5437   26.1917 C   0  0  0  0  0  0  0  0  0  0  0  0
   12.6137  -17.8011   25.6305 O   0  0  0  0  0  0  0  0  0  0  0  0
   13.0083  -18.0630   26.7779 O   0  0  0  0  0  0  0  0  0  0  0  0
   10.7008  -20.1114   27.3767 O   0  0  0  0  0  0  0  0  0  0  0  0
  2  1  1  6
  2  3  1  0
  2  7  1  0
  3  4  1  0
  4  5  1  0
  5  9  1  0
  6  5  2  0
  7  8  2  0
 11 10  1  0
 12 11  2  0
 13 11  1  0
 14 13  1  0
 15 14  1  0
 15 16  1  0
 17 16  1  1
 18  7  1  0
 18 17  1  0
 19 17  1  0
 19 20  2  0
 21 19  1  0
 22 21  1  0
 22 23  1  1
 24 25  2  0
 24 23  1  0
 26 22  1  0
 26 29  1  0
 27 26  2  0
 28 24  1  0
M  END
$$$$
