YRD.pdb
     RDKit          3D

 32 32  0  0  1  0  0  0  0  0999 V2000
    5.6287  -10.8487   28.8016 O   0  0  0  0  0  0  0  0  0  0  0  0
    6.2536  -11.8000   28.0029 C   0  0  0  0  0  0  0  0  0  0  0  0
    5.7858  -12.0406   26.7388 C   0  0  0  0  0  0  0  0  0  0  0  0
    6.4053  -12.9896   25.9358 C   0  0  0  0  0  0  0  0  0  0  0  0
    7.4950  -13.7060   26.3844 C   0  0  0  0  0  0  0  0  0  0  0  0
    8.1560  -14.7170   25.5285 C   0  0  0  0  0  0  0  0  0  0  0  0
    7.1274  -15.6119   24.8592 C   0  0  2  0  0  0  0  0  0  0  0  0
    7.0128  -16.8703   25.5536 N   0  0  0  0  0  0  0  0  0  0  0  0
    7.6776  -15.9089   23.4855 C   0  0  0  0  0  0  0  0  0  0  0  0
    8.1585  -17.0242   23.2368 O   0  0  0  0  0  0  0  0  0  0  0  0
    7.9507  -13.4513   27.6556 C   0  0  0  0  0  0  0  0  0  0  0  0
    7.3467  -12.5051   28.4795 C   0  0  0  0  0  0  0  0  0  0  0  0
    9.6082  -14.9523   16.1664 N   0  0  0  0  0  0  0  0  0  0  0  0
    8.2878  -14.5572   15.8298 C   0  0  0  0  0  0  0  0  0  0  0  0
    7.6947  -15.0304   14.7985 N   0  0  0  0  0  0  0  0  0  0  0  0
    7.6117  -13.6193   16.6491 N   0  0  0  0  0  0  0  0  0  0  0  0
    8.2352  -13.0718   17.8541 C   0  0  0  0  0  0  0  0  0  0  0  0
    8.4824  -14.2874   18.7728 C   0  0  0  0  0  0  0  0  0  0  0  0
    7.9675  -14.0136   20.1543 C   0  0  0  0  0  0  0  0  0  0  0  0
    8.1612  -15.0893   21.1660 C   0  0  2  0  0  0  0  0  0  0  0  0
    7.6651  -14.9511   22.4606 N   0  0  0  0  0  0  0  0  0  0  0  0
    9.5744  -15.4936   21.1938 C   0  0  0  0  0  0  0  0  0  0  0  0
   10.3880  -14.7481   20.5375 O   0  0  0  0  0  0  0  0  0  0  0  0
    6.7407  -14.8056   14.4821 N   0  0  0  0  0  0  0  0  0  0  0  0
   10.0614  -16.6122   21.8766 C   0  0  1  0  0  0  0  0  0  0  0  0
   11.5212  -16.8755   21.7670 C   0  0  0  0  0  0  0  0  0  0  0  0
   12.2556  -15.7141   22.4228 C   0  0  0  0  0  0  0  0  0  0  0  0
   13.6843  -16.0092   22.4895 O   0  0  0  0  0  0  0  0  0  0  0  0
   14.1547  -16.8995   23.2017 C   0  0  0  0  0  0  0  0  0  0  0  0
   11.7415  -18.1276   22.5015 O   0  0  0  0  0  0  0  0  0  0  0  0
   12.2550  -19.1271   21.8939 O   0  0  0  0  0  0  0  0  0  0  0  0
   14.5851  -15.2617   21.7193 O   0  0  0  0  0  0  0  0  0  0  0  0
  2  1  1  0
  2 12  2  0
  3  2  1  0
  4  3  2  0
  4  5  1  0
  5 11  2  0
  6  5  1  0
  7  9  1  0
  7  6  1  0
  7  8  1  1
  9 10  2  0
 11 12  1  0
 14 15  2  0
 14 13  1  0
 16 14  1  0
 17 16  1  0
 18 17  1  0
 19 18  1  0
 20 19  1  1
 21 20  1  0
 21  9  1  0
 22 20  1  0
 23 22  2  0
 24 22  1  0
 25 26  1  6
 25 24  1  0
 26 27  1  0
 27 28  2  0
 27 31  1  0
 29 32  1  0
 29 25  1  0
 30 29  2  0
M  END
$$$$
