YRD.pdb
     RDKit          3D

 32 32  0  0  1  0  0  0  0  0999 V2000
   10.9828  -14.5273   31.2807 O   0  0  0  0  0  0  0  0  0  0  0  0
   10.2583  -14.6971   30.1061 C   0  0  0  0  0  0  0  0  0  0  0  0
    9.6644  -15.9020   29.8410 C   0  0  0  0  0  0  0  0  0  0  0  0
    8.9395  -16.0784   28.6694 C   0  0  0  0  0  0  0  0  0  0  0  0
    8.7997  -15.0572   27.7532 C   0  0  0  0  0  0  0  0  0  0  0  0
    8.0264  -15.2445   26.5048 C   0  0  0  0  0  0  0  0  0  0  0  0
    8.3172  -16.6024   25.8895 C   0  0  2  0  0  0  0  0  0  0  0  0
    9.7273  -16.8987   25.9432 N   0  0  0  0  0  0  0  0  0  0  0  0
    7.9425  -16.4786   24.4328 C   0  0  0  0  0  0  0  0  0  0  0  0
    6.7632  -16.2730   24.1101 O   0  0  0  0  0  0  0  0  0  0  0  0
    9.4025  -13.8550   28.0359 C   0  0  0  0  0  0  0  0  0  0  0  0
   10.1345  -13.6538   29.2032 C   0  0  0  0  0  0  0  0  0  0  0  0
    8.9653  -12.1561   18.0637 N   0  0  0  0  0  0  0  0  0  0  0  0
    8.2008  -13.2257   17.5305 C   0  0  0  0  0  0  0  0  0  0  0  0
    8.2817  -13.5492   16.2943 N   0  0  0  0  0  0  0  0  0  0  0  0
    7.3290  -13.9498   18.3811 N   0  0  0  0  0  0  0  0  0  0  0  0
    7.2780  -13.6887   19.8198 C   0  0  0  0  0  0  0  0  0  0  0  0
    8.3678  -14.5916   20.4363 C   0  0  0  0  0  0  0  0  0  0  0  0
    7.7659  -15.5280   21.4410 C   0  0  0  0  0  0  0  0  0  0  0  0
    8.6760  -16.5457   22.0362 C   0  0  2  0  0  0  0  0  0  0  0  0
    8.8973  -16.5901   23.4111 N   0  0  0  0  0  0  0  0  0  0  0  0
    9.9520  -16.5557   21.3061 C   0  0  0  0  0  0  0  0  0  0  0  0
   10.6775  -15.5028   21.4226 O   0  0  0  0  0  0  0  0  0  0  0  0
    7.7872  -14.3237   15.8290 N   0  0  0  0  0  0  0  0  0  0  0  0
   10.4010  -17.6190   20.5173 C   0  0  2  0  0  0  0  0  0  0  0  0
   11.8377  -17.6022   20.1325 C   0  0  0  0  0  0  0  0  0  0  0  0
   12.4317  -18.9586   20.4867 C   0  0  0  0  0  0  0  0  0  0  0  0
   13.8374  -18.9991   20.0927 O   0  0  0  0  0  0  0  0  0  0  0  0
   14.4333  -18.0254   19.6257 C   0  0  0  0  0  0  0  0  0  0  0  0
   11.8437  -17.3808   18.6811 O   0  0  0  0  0  0  0  0  0  0  0  0
   10.8695  -17.8150   17.9781 O   0  0  0  0  0  0  0  0  0  0  0  0
   14.5670  -20.1861   20.2414 O   0  0  0  0  0  0  0  0  0  0  0  0
  2  1  1  0
  2 12  2  0
  3  2  1  0
  4  3  2  0
  4  5  1  0
  5 11  2  0
  6  5  1  0
  7  9  1  0
  7  6  1  0
  7  8  1  6
  9 10  2  0
 11 12  1  0
 14 15  2  0
 14 13  1  0
 16 14  1  0
 17 16  1  0
 18 17  1  0
 19 18  1  0
 20 19  1  1
 21 20  1  0
 21  9  1  0
 22 20  1  0
 23 22  2  0
 24 22  1  0
 25 26  1  6
 25 24  1  0
 26 27  1  0
 27 28  2  0
 27 31  1  0
 29 32  1  0
 29 25  1  0
 30 29  2  0
M  END
$$$$
