YRD.pdb
     RDKit          3D

 32 32  0  0  1  0  0  0  0  0999 V2000
    6.3941  -11.1314   19.4908 O   0  0  0  0  0  0  0  0  0  0  0  0
    7.1179  -12.2121   19.9822 C   0  0  0  0  0  0  0  0  0  0  0  0
    6.6102  -12.9603   21.0103 C   0  0  0  0  0  0  0  0  0  0  0  0
    7.3282  -14.0411   21.5060 C   0  0  0  0  0  0  0  0  0  0  0  0
    8.5566  -14.3856   20.9821 C   0  0  0  0  0  0  0  0  0  0  0  0
    9.3218  -15.5379   21.5096 C   0  0  0  0  0  0  0  0  0  0  0  0
    9.1869  -16.7400   20.5912 C   0  0  2  0  0  0  0  0  0  0  0  0
    7.8602  -17.2993   20.6695 N   0  0  0  0  0  0  0  0  0  0  0  0
   10.1407  -17.7764   21.1335 C   0  0  0  0  0  0  0  0  0  0  0  0
    9.7576  -18.5839   21.9928 O   0  0  0  0  0  0  0  0  0  0  0  0
    9.0505  -13.6234   19.9508 C   0  0  0  0  0  0  0  0  0  0  0  0
    8.3497  -12.5353   19.4369 C   0  0  0  0  0  0  0  0  0  0  0  0
   13.6831  -20.1318   14.8140 N   0  0  0  0  0  0  0  0  0  0  0  0
   14.4095  -19.1681   15.5601 C   0  0  0  0  0  0  0  0  0  0  0  0
   15.0924  -18.2542   14.9790 N   0  0  0  0  0  0  0  0  0  0  0  0
   14.3808  -19.2180   16.9760 N   0  0  0  0  0  0  0  0  0  0  0  0
   13.6515  -20.2687   17.6864 C   0  0  0  0  0  0  0  0  0  0  0  0
   12.6889  -19.5247   18.6366 C   0  0  0  0  0  0  0  0  0  0  0  0
   13.2326  -19.5187   20.0341 C   0  0  0  0  0  0  0  0  0  0  0  0
   12.4263  -18.8044   21.0626 C   0  0  2  0  0  0  0  0  0  0  0  0
   11.4699  -17.8610   20.6932 N   0  0  0  0  0  0  0  0  0  0  0  0
   13.3159  -18.2608   22.0991 C   0  0  0  0  0  0  0  0  0  0  0  0
   13.6774  -17.0380   21.9484 O   0  0  0  0  0  0  0  0  0  0  0  0
   15.6151  -17.4940   15.4369 N   0  0  0  0  0  0  0  0  0  0  0  0
   13.7733  -18.9843   23.2046 C   0  0  1  0  0  0  0  0  0  0  0  0
   14.7417  -18.2936   24.0977 C   0  0  0  0  0  0  0  0  0  0  0  0
   14.9584  -19.1739   25.3210 C   0  0  0  0  0  0  0  0  0  0  0  0
   15.7122  -18.4366   26.3314 O   0  0  0  0  0  0  0  0  0  0  0  0
   16.1403  -17.2941   26.1505 C   0  0  0  0  0  0  0  0  0  0  0  0
   15.9722  -18.1693   23.3064 O   0  0  0  0  0  0  0  0  0  0  0  0
   16.3526  -19.1511   22.5831 O   0  0  0  0  0  0  0  0  0  0  0  0
   15.9755  -19.0305   27.5729 O   0  0  0  0  0  0  0  0  0  0  0  0
  2  1  1  0
  2 12  2  0
  3  2  1  0
  4  3  2  0
  4  5  1  0
  5 11  2  0
  6  5  1  0
  7  9  1  0
  7  6  1  0
  7  8  1  1
  9 10  2  0
 11 12  1  0
 14 15  2  0
 14 13  1  0
 16 14  1  0
 17 16  1  0
 18 17  1  0
 19 18  1  0
 20 19  1  6
 21 20  1  0
 21  9  1  0
 22 20  1  0
 23 22  2  0
 24 22  1  0
 25 26  1  6
 25 24  1  0
 26 27  1  0
 27 28  2  0
 27 31  1  0
 29 32  1  0
 29 25  1  0
 30 29  2  0
M  END
$$$$
