YRD.pdb
     RDKit          3D

 32 32  0  0  1  0  0  0  0  0999 V2000
    5.0105  -10.3256   27.8868 O   0  0  0  0  0  0  0  0  0  0  0  0
    5.7875  -11.3286   27.3180 C   0  0  0  0  0  0  0  0  0  0  0  0
    5.8132  -11.4806   25.9575 C   0  0  0  0  0  0  0  0  0  0  0  0
    6.5872  -12.4805   25.3829 C   0  0  0  0  0  0  0  0  0  0  0  0
    7.3417  -13.3365   26.1575 C   0  0  0  0  0  0  0  0  0  0  0  0
    8.1673  -14.4019   25.5454 C   0  0  0  0  0  0  0  0  0  0  0  0
    7.3121  -15.3239   24.6937 C   0  0  2  0  0  0  0  0  0  0  0  0
    6.5087  -16.1887   25.5216 N   0  0  0  0  0  0  0  0  0  0  0  0
    8.2830  -16.2016   23.9419 C   0  0  0  0  0  0  0  0  0  0  0  0
    8.4383  -17.3850   24.2772 O   0  0  0  0  0  0  0  0  0  0  0  0
    7.3037  -13.1692   27.5210 C   0  0  0  0  0  0  0  0  0  0  0  0
    6.5356  -12.1744   28.1206 C   0  0  0  0  0  0  0  0  0  0  0  0
    8.3702  -12.6934   17.4668 N   0  0  0  0  0  0  0  0  0  0  0  0
    7.9284  -13.9327   16.9356 C   0  0  0  0  0  0  0  0  0  0  0  0
    7.2208  -13.9848   15.8699 N   0  0  0  0  0  0  0  0  0  0  0  0
    8.2749  -15.1367   17.5976 N   0  0  0  0  0  0  0  0  0  0  0  0
    9.4955  -15.2422   18.3973 C   0  0  0  0  0  0  0  0  0  0  0  0
    9.0473  -15.8424   19.7470 C   0  0  0  0  0  0  0  0  0  0  0  0
   10.2209  -15.9958   20.6678 C   0  0  0  0  0  0  0  0  0  0  0  0
    9.9255  -16.4300   22.0615 C   0  0  2  0  0  0  0  0  0  0  0  0
    9.0305  -15.7184   22.8577 N   0  0  0  0  0  0  0  0  0  0  0  0
   11.1841  -16.6674   22.7831 C   0  0  0  0  0  0  0  0  0  0  0  0
   11.5530  -15.7429   23.5942 O   0  0  0  0  0  0  0  0  0  0  0  0
    6.8625  -14.8350   15.4122 N   0  0  0  0  0  0  0  0  0  0  0  0
   11.9739  -17.8116   22.6358 C   0  0  2  0  0  0  0  0  0  0  0  0
   13.1949  -17.8910   23.4816 C   0  0  0  0  0  0  0  0  0  0  0  0
   13.5370  -19.3625   23.6706 C   0  0  0  0  0  0  0  0  0  0  0  0
   14.7895  -19.4861   24.4113 O   0  0  0  0  0  0  0  0  0  0  0  0
   15.8765  -19.6905   23.8653 C   0  0  0  0  0  0  0  0  0  0  0  0
   14.2375  -17.1959   22.7166 O   0  0  0  0  0  0  0  0  0  0  0  0
   14.1736  -17.1829   21.4408 O   0  0  0  0  0  0  0  0  0  0  0  0
   14.7854  -19.3713   25.8078 O   0  0  0  0  0  0  0  0  0  0  0  0
  2  1  1  0
  2 12  2  0
  3  2  1  0
  4  3  2  0
  4  5  1  0
  5 11  2  0
  6  5  1  0
  7  9  1  0
  7  6  1  0
  7  8  1  1
  9 10  2  0
 11 12  1  0
 14 15  2  0
 14 13  1  0
 16 14  1  0
 17 16  1  0
 18 17  1  0
 19 18  1  0
 20 19  1  6
 21 20  1  0
 21  9  1  0
 22 20  1  0
 23 22  2  0
 24 22  1  0
 25 26  1  6
 25 24  1  0
 26 27  1  0
 27 28  2  0
 27 31  1  0
 29 32  1  0
 29 25  1  0
 30 29  2  0
M  END
$$$$
