YRD.pdb
     RDKit          3D

 32 32  0  0  1  0  0  0  0  0999 V2000
    5.3887  -10.5441   28.0129 O   0  0  0  0  0  0  0  0  0  0  0  0
    6.0318  -11.6349   27.4385 C   0  0  0  0  0  0  0  0  0  0  0  0
    7.1079  -12.1999   28.0690 C   0  0  0  0  0  0  0  0  0  0  0  0
    7.7550  -13.2896   27.5006 C   0  0  0  0  0  0  0  0  0  0  0  0
    7.3360  -13.8254   26.3009 C   0  0  0  0  0  0  0  0  0  0  0  0
    8.0250  -14.9873   25.6952 C   0  0  0  0  0  0  0  0  0  0  0  0
    7.0205  -15.9609   25.1035 C   0  0  2  0  0  0  0  0  0  0  0  0
    7.0313  -17.2101   25.8234 N   0  0  0  0  0  0  0  0  0  0  0  0
    7.5069  -16.2483   23.7040 C   0  0  0  0  0  0  0  0  0  0  0  0
    7.9332  -17.3758   23.4138 O   0  0  0  0  0  0  0  0  0  0  0  0
    6.2545  -13.2455   25.6824 C   0  0  0  0  0  0  0  0  0  0  0  0
    5.5894  -12.1525   26.2321 C   0  0  0  0  0  0  0  0  0  0  0  0
    9.4484  -15.5625   16.5685 N   0  0  0  0  0  0  0  0  0  0  0  0
    8.6882  -14.4701   16.0768 C   0  0  0  0  0  0  0  0  0  0  0  0
    9.1192  -13.7376   15.1191 N   0  0  0  0  0  0  0  0  0  0  0  0
    7.4281  -14.1818   16.6573 N   0  0  0  0  0  0  0  0  0  0  0  0
    7.3207  -13.6114   18.0003 C   0  0  0  0  0  0  0  0  0  0  0  0
    7.9356  -14.6687   18.9420 C   0  0  0  0  0  0  0  0  0  0  0  0
    7.6164  -14.3464   20.3713 C   0  0  0  0  0  0  0  0  0  0  0  0
    7.9088  -15.4051   21.3773 C   0  0  2  0  0  0  0  0  0  0  0  0
    7.4947  -15.2680   22.7006 N   0  0  0  0  0  0  0  0  0  0  0  0
    9.3324  -15.7668   21.3154 C   0  0  0  0  0  0  0  0  0  0  0  0
   10.1499  -14.9368   21.8551 O   0  0  0  0  0  0  0  0  0  0  0  0
    8.6860  -12.8729   14.7652 N   0  0  0  0  0  0  0  0  0  0  0  0
    9.8250  -16.9310   20.7182 C   0  0  1  0  0  0  0  0  0  0  0  0
   11.2989  -17.1273   20.7586 C   0  0  0  0  0  0  0  0  0  0  0  0
   11.5706  -18.5018   21.3546 C   0  0  0  0  0  0  0  0  0  0  0  0
   11.8075  -18.3783   22.7903 O   0  0  0  0  0  0  0  0  0  0  0  0
   11.7849  -17.2981   23.3853 C   0  0  0  0  0  0  0  0  0  0  0  0
   11.7336  -17.0589   19.3578 O   0  0  0  0  0  0  0  0  0  0  0  0
   10.8981  -17.3281   18.4298 O   0  0  0  0  0  0  0  0  0  0  0  0
   12.0752  -19.5238   23.5516 O   0  0  0  0  0  0  0  0  0  0  0  0
  2  1  1  0
  2 12  2  0
  3  2  1  0
  4  3  2  0
  4  5  1  0
  5 11  2  0
  6  5  1  0
  7  9  1  0
  7  6  1  0
  7  8  1  1
  9 10  2  0
 11 12  1  0
 14 15  2  0
 14 13  1  0
 16 14  1  0
 17 16  1  0
 18 17  1  0
 19 18  1  0
 20 19  1  6
 21 20  1  0
 21  9  1  0
 22 20  1  0
 23 22  2  0
 24 22  1  0
 25 26  1  6
 25 24  1  0
 26 27  1  0
 27 28  2  0
 27 31  1  0
 29 32  1  0
 29 25  1  0
 30 29  2  0
M  END
$$$$
