YRD.pdb
     RDKit          3D

 32 32  0  0  1  0  0  0  0  0999 V2000
    5.2706  -10.6637   28.4621 O   0  0  0  0  0  0  0  0  0  0  0  0
    5.9279  -11.6179   27.6934 C   0  0  0  0  0  0  0  0  0  0  0  0
    5.3731  -12.0433   26.5162 C   0  0  0  0  0  0  0  0  0  0  0  0
    6.0244  -12.9963   25.7436 C   0  0  0  0  0  0  0  0  0  0  0  0
    7.2327  -13.5328   26.1364 C   0  0  0  0  0  0  0  0  0  0  0  0
    7.9275  -14.5479   25.3129 C   0  0  0  0  0  0  0  0  0  0  0  0
    6.9837  -15.6786   24.9418 C   0  0  2  0  0  0  0  0  0  0  0  0
    6.6702  -16.4848   26.0953 N   0  0  0  0  0  0  0  0  0  0  0  0
    7.7528  -16.5532   23.9818 C   0  0  0  0  0  0  0  0  0  0  0  0
    8.3303  -17.5698   24.3942 O   0  0  0  0  0  0  0  0  0  0  0  0
    7.7744  -13.0940   27.3207 C   0  0  0  0  0  0  0  0  0  0  0  0
    7.1408  -12.1399   28.1126 C   0  0  0  0  0  0  0  0  0  0  0  0
    8.1254  -13.8839   15.9466 N   0  0  0  0  0  0  0  0  0  0  0  0
    8.5786  -13.4971   17.2343 C   0  0  0  0  0  0  0  0  0  0  0  0
    9.1999  -12.3925   17.4164 N   0  0  0  0  0  0  0  0  0  0  0  0
    8.3413  -14.3499   18.3409 N   0  0  0  0  0  0  0  0  0  0  0  0
    7.6021  -15.6036   18.1914 C   0  0  0  0  0  0  0  0  0  0  0  0
    7.4635  -16.1673   19.6218 C   0  0  0  0  0  0  0  0  0  0  0  0
    8.8010  -16.2151   20.2982 C   0  0  0  0  0  0  0  0  0  0  0  0
    8.8180  -16.6728   21.7154 C   0  0  2  0  0  0  0  0  0  0  0  0
    7.8403  -16.2522   22.6145 N   0  0  0  0  0  0  0  0  0  0  0  0
   10.1605  -16.4778   22.2822 C   0  0  0  0  0  0  0  0  0  0  0  0
   10.2063  -16.0140   23.4786 O   0  0  0  0  0  0  0  0  0  0  0  0
    9.6331  -12.0695   18.2932 N   0  0  0  0  0  0  0  0  0  0  0  0
   11.3508  -16.7628   21.6066 C   0  0  1  0  0  0  0  0  0  0  0  0
   12.5793  -16.8692   22.4385 C   0  0  0  0  0  0  0  0  0  0  0  0
   12.3907  -18.0322   23.4029 C   0  0  0  0  0  0  0  0  0  0  0  0
   13.0133  -17.7149   24.6852 O   0  0  0  0  0  0  0  0  0  0  0  0
   13.6416  -16.6732   24.8885 C   0  0  0  0  0  0  0  0  0  0  0  0
   13.6650  -17.1371   21.4871 O   0  0  0  0  0  0  0  0  0  0  0  0
   13.3780  -17.5081   20.2988 O   0  0  0  0  0  0  0  0  0  0  0  0
   12.9076  -18.6179   25.7515 O   0  0  0  0  0  0  0  0  0  0  0  0
  2  1  1  0
  2 12  2  0
  3  2  1  0
  4  3  2  0
  4  5  1  0
  5 11  2  0
  6  5  1  0
  7  9  1  0
  7  6  1  0
  7  8  1  1
  9 10  2  0
 11 12  1  0
 14 15  2  0
 14 13  1  0
 16 14  1  0
 17 16  1  0
 18 17  1  0
 19 18  1  0
 20 19  1  6
 21 20  1  0
 21  9  1  0
 22 20  1  0
 23 22  2  0
 24 22  1  0
 25 26  1  6
 25 24  1  0
 26 27  1  0
 27 28  2  0
 27 31  1  0
 29 32  1  0
 29 25  1  0
 30 29  2  0
M  END
$$$$
