YRD.pdb
     RDKit          3D

 32 32  0  0  1  0  0  0  0  0999 V2000
    6.1495  -10.7544   28.8472 O   0  0  0  0  0  0  0  0  0  0  0  0
    6.6086  -11.7074   27.9449 C   0  0  0  0  0  0  0  0  0  0  0  0
    5.8729  -11.9962   26.8269 C   0  0  0  0  0  0  0  0  0  0  0  0
    6.3257  -12.9472   25.9215 C   0  0  0  0  0  0  0  0  0  0  0  0
    7.5141  -13.6178   26.1216 C   0  0  0  0  0  0  0  0  0  0  0  0
    7.9974  -14.6309   25.1565 C   0  0  0  0  0  0  0  0  0  0  0  0
    6.9147  -15.6548   24.8626 C   0  0  2  0  0  0  0  0  0  0  0  0
    6.9146  -16.7007   25.8550 N   0  0  0  0  0  0  0  0  0  0  0  0
    7.2983  -16.2877   23.5473 C   0  0  0  0  0  0  0  0  0  0  0  0
    7.8502  -17.3978   23.5297 O   0  0  0  0  0  0  0  0  0  0  0  0
    8.2392  -13.3151   27.2491 C   0  0  0  0  0  0  0  0  0  0  0  0
    7.8063  -12.3659   28.1714 C   0  0  0  0  0  0  0  0  0  0  0  0
    7.9982  -13.1935   15.2509 N   0  0  0  0  0  0  0  0  0  0  0  0
    8.8004  -14.3575   15.3723 C   0  0  0  0  0  0  0  0  0  0  0  0
    9.1711  -15.0199   14.3412 N   0  0  0  0  0  0  0  0  0  0  0  0
    9.1983  -14.7975   16.6592 N   0  0  0  0  0  0  0  0  0  0  0  0
    8.7342  -14.1233   17.8718 C   0  0  0  0  0  0  0  0  0  0  0  0
    7.9654  -15.1999   18.6672 C   0  0  0  0  0  0  0  0  0  0  0  0
    7.7852  -14.7696   20.0924 C   0  0  0  0  0  0  0  0  0  0  0  0
    7.7178  -15.8510   21.1143 C   0  0  2  0  0  0  0  0  0  0  0  0
    7.0492  -15.6541   22.3208 N   0  0  0  0  0  0  0  0  0  0  0  0
    9.0638  -16.3927   21.3511 C   0  0  0  0  0  0  0  0  0  0  0  0
    9.2958  -17.5595   20.8681 O   0  0  0  0  0  0  0  0  0  0  0  0
    9.7602  -15.8647   14.3338 N   0  0  0  0  0  0  0  0  0  0  0  0
   10.0712  -15.7235   22.0524 C   0  0  1  0  0  0  0  0  0  0  0  0
   11.4436  -16.2870   21.9457 C   0  0  0  0  0  0  0  0  0  0  0  0
   12.4157  -15.1241   21.8008 C   0  0  0  0  0  0  0  0  0  0  0  0
   13.7050  -15.6162   21.3229 O   0  0  0  0  0  0  0  0  0  0  0  0
   14.2582  -16.6153   21.7887 C   0  0  0  0  0  0  0  0  0  0  0  0
   11.6610  -17.0089   23.2055 O   0  0  0  0  0  0  0  0  0  0  0  0
   10.8193  -16.8743   24.1569 O   0  0  0  0  0  0  0  0  0  0  0  0
   14.3662  -14.9414   20.2881 O   0  0  0  0  0  0  0  0  0  0  0  0
  2  1  1  0
  2 12  2  0
  3  2  1  0
  4  3  2  0
  4  5  1  0
  5 11  2  0
  6  5  1  0
  7  9  1  0
  7  6  1  0
  7  8  1  1
  9 10  2  0
 11 12  1  0
 14 15  2  0
 14 13  1  0
 16 14  1  0
 17 16  1  0
 18 17  1  0
 19 18  1  0
 20 19  1  1
 21 20  1  0
 21  9  1  0
 22 20  1  0
 23 22  2  0
 24 22  1  0
 25 26  1  1
 25 24  1  0
 26 27  1  0
 27 28  2  0
 27 31  1  0
 29 32  1  0
 29 25  1  0
 30 29  2  0
M  END
$$$$
