YRD.pdb
     RDKit          3D

 32 32  0  0  1  0  0  0  0  0999 V2000
    5.0946  -10.5786   28.4764 O   0  0  0  0  0  0  0  0  0  0  0  0
    5.8306  -11.5080   27.7499 C   0  0  0  0  0  0  0  0  0  0  0  0
    5.3465  -11.9783   26.5586 C   0  0  0  0  0  0  0  0  0  0  0  0
    6.0766  -12.9069   25.8279 C   0  0  0  0  0  0  0  0  0  0  0  0
    7.2940  -13.3741   26.2769 C   0  0  0  0  0  0  0  0  0  0  0  0
    8.0728  -14.3632   25.4980 C   0  0  0  0  0  0  0  0  0  0  0  0
    7.2372  -15.5973   25.2056 C   0  0  2  0  0  0  0  0  0  0  0  0
    7.1482  -16.4441   26.3692 N   0  0  0  0  0  0  0  0  0  0  0  0
    7.9984  -16.3649   24.1524 C   0  0  0  0  0  0  0  0  0  0  0  0
    8.4667  -17.4824   24.4151 O   0  0  0  0  0  0  0  0  0  0  0  0
    7.7642  -12.8910   27.4744 C   0  0  0  0  0  0  0  0  0  0  0  0
    7.0508  -11.9601   28.2251 C   0  0  0  0  0  0  0  0  0  0  0  0
    9.7260  -14.9207   17.5937 N   0  0  0  0  0  0  0  0  0  0  0  0
    8.9464  -13.7356   17.6222 C   0  0  0  0  0  0  0  0  0  0  0  0
    9.4299  -12.6123   17.2429 N   0  0  0  0  0  0  0  0  0  0  0  0
    7.6069  -13.7946   18.0809 N   0  0  0  0  0  0  0  0  0  0  0  0
    7.0697  -15.0014   18.7098 C   0  0  0  0  0  0  0  0  0  0  0  0
    7.6184  -14.9872   20.1526 C   0  0  0  0  0  0  0  0  0  0  0  0
    8.4884  -16.1845   20.3941 C   0  0  0  0  0  0  0  0  0  0  0  0
    8.8776  -16.4548   21.8061 C   0  0  2  0  0  0  0  0  0  0  0  0
    8.1997  -15.8506   22.8629 N   0  0  0  0  0  0  0  0  0  0  0  0
   10.3300  -16.2874   21.9598 C   0  0  0  0  0  0  0  0  0  0  0  0
   10.7231  -15.1500   22.4074 O   0  0  0  0  0  0  0  0  0  0  0  0
    8.9710  -11.6928   17.3098 N   0  0  0  0  0  0  0  0  0  0  0  0
   11.2742  -17.2719   21.6534 C   0  0  1  0  0  0  0  0  0  0  0  0
   12.6972  -16.9383   21.9291 C   0  0  0  0  0  0  0  0  0  0  0  0
   13.3438  -18.1531   22.5805 C   0  0  0  0  0  0  0  0  0  0  0  0
   13.7423  -17.8261   23.9469 O   0  0  0  0  0  0  0  0  0  0  0  0
   13.6863  -16.6838   24.4087 C   0  0  0  0  0  0  0  0  0  0  0  0
   13.2883  -16.6614   20.6140 O   0  0  0  0  0  0  0  0  0  0  0  0
   12.6857  -17.0610   19.5608 O   0  0  0  0  0  0  0  0  0  0  0  0
   14.2136  -18.8376   24.7943 O   0  0  0  0  0  0  0  0  0  0  0  0
  2  1  1  0
  2 12  2  0
  3  2  1  0
  4  3  2  0
  4  5  1  0
  5 11  2  0
  6  5  1  0
  7  9  1  0
  7  6  1  0
  7  8  1  1
  9 10  2  0
 11 12  1  0
 14 15  2  0
 14 13  1  0
 16 14  1  0
 17 16  1  0
 18 17  1  0
 19 18  1  0
 20 19  1  6
 21 20  1  0
 21  9  1  0
 22 20  1  0
 23 22  2  0
 24 22  1  0
 25 26  1  6
 25 24  1  0
 26 27  1  0
 27 28  2  0
 27 31  1  0
 29 32  1  0
 29 25  1  0
 30 29  2  0
M  END
$$$$
