YRD.pdb
     RDKit          3D

 32 32  0  0  1  0  0  0  0  0999 V2000
   10.8562  -14.6362   30.1259 O   0  0  0  0  0  0  0  0  0  0  0  0
    9.8837  -14.7515   29.1388 C   0  0  0  0  0  0  0  0  0  0  0  0
    9.4867  -15.9919   28.7163 C   0  0  0  0  0  0  0  0  0  0  0  0
    8.5158  -16.1142   27.7305 C   0  0  0  0  0  0  0  0  0  0  0  0
    7.9326  -15.0033   27.1580 C   0  0  0  0  0  0  0  0  0  0  0  0
    6.8972  -15.1332   26.1079 C   0  0  0  0  0  0  0  0  0  0  0  0
    6.9183  -16.5248   25.4998 C   0  0  2  0  0  0  0  0  0  0  0  0
    7.5088  -17.4739   26.4105 N   0  0  0  0  0  0  0  0  0  0  0  0
    7.8292  -16.4316   24.3000 C   0  0  0  0  0  0  0  0  0  0  0  0
    8.5816  -17.3755   24.0165 O   0  0  0  0  0  0  0  0  0  0  0  0
    8.3434  -13.7666   27.5944 C   0  0  0  0  0  0  0  0  0  0  0  0
    9.3148  -13.6182   28.5810 C   0  0  0  0  0  0  0  0  0  0  0  0
    8.0592  -15.2885   17.8413 N   0  0  0  0  0  0  0  0  0  0  0  0
    7.8176  -13.9805   17.3474 C   0  0  0  0  0  0  0  0  0  0  0  0
    8.3259  -13.5830   16.2415 N   0  0  0  0  0  0  0  0  0  0  0  0
    6.9995  -13.0954   18.0925 N   0  0  0  0  0  0  0  0  0  0  0  0
    6.7502  -13.3069   19.5185 C   0  0  0  0  0  0  0  0  0  0  0  0
    7.8505  -14.2846   19.9835 C   0  0  0  0  0  0  0  0  0  0  0  0
    8.2701  -13.9715   21.3887 C   0  0  0  0  0  0  0  0  0  0  0  0
    8.5467  -15.1330   22.2789 C   0  0  2  0  0  0  0  0  0  0  0  0
    7.8569  -15.2948   23.4786 N   0  0  0  0  0  0  0  0  0  0  0  0
    9.9957  -15.2573   22.4944 C   0  0  0  0  0  0  0  0  0  0  0  0
   10.4198  -14.9569   23.6685 O   0  0  0  0  0  0  0  0  0  0  0  0
    8.2416  -12.6424   15.8305 N   0  0  0  0  0  0  0  0  0  0  0  0
   10.9056  -15.6726   21.5175 C   0  0  1  0  0  0  0  0  0  0  0  0
   12.2589  -16.0663   21.9928 C   0  0  0  0  0  0  0  0  0  0  0  0
   12.0918  -17.2157   22.9774 C   0  0  0  0  0  0  0  0  0  0  0  0
   13.3998  -17.7732   23.3107 O   0  0  0  0  0  0  0  0  0  0  0  0
   14.3798  -17.0745   23.5807 C   0  0  0  0  0  0  0  0  0  0  0  0
   12.9783  -16.4977   20.7879 O   0  0  0  0  0  0  0  0  0  0  0  0
   12.3165  -16.9417   19.7895 O   0  0  0  0  0  0  0  0  0  0  0  0
   13.5780  -19.1628   23.3324 O   0  0  0  0  0  0  0  0  0  0  0  0
  2  1  1  0
  2 12  2  0
  3  2  1  0
  4  3  2  0
  4  5  1  0
  5 11  2  0
  6  5  1  0
  7  9  1  0
  7  6  1  0
  7  8  1  1
  9 10  2  0
 11 12  1  0
 14 15  2  0
 14 13  1  0
 16 14  1  0
 17 16  1  0
 18 17  1  0
 19 18  1  0
 20 19  1  1
 21 20  1  0
 21  9  1  0
 22 20  1  0
 23 22  2  0
 24 22  1  0
 25 26  1  6
 25 24  1  0
 26 27  1  0
 27 28  2  0
 27 31  1  0
 29 32  1  0
 29 25  1  0
 30 29  2  0
M  END
$$$$
