YRD.pdb
     RDKit          3D

 32 32  0  0  1  0  0  0  0  0999 V2000
    5.2519  -10.7171   28.4241 O   0  0  0  0  0  0  0  0  0  0  0  0
    5.8902  -11.6586   27.6245 C   0  0  0  0  0  0  0  0  0  0  0  0
    7.1958  -11.9886   27.8719 C   0  0  0  0  0  0  0  0  0  0  0  0
    7.8394  -12.9282   27.0769 C   0  0  0  0  0  0  0  0  0  0  0  0
    7.1887  -13.5469   26.0300 C   0  0  0  0  0  0  0  0  0  0  0  0
    7.8741  -14.5490   25.1830 C   0  0  0  0  0  0  0  0  0  0  0  0
    7.0596  -15.8280   25.0954 C   0  0  2  0  0  0  0  0  0  0  0  0
    6.9738  -16.4708   26.3832 N   0  0  0  0  0  0  0  0  0  0  0  0
    7.8408  -16.7476   24.1888 C   0  0  0  0  0  0  0  0  0  0  0  0
    8.5034  -17.6785   24.6701 O   0  0  0  0  0  0  0  0  0  0  0  0
    5.8787  -13.2033   25.7965 C   0  0  0  0  0  0  0  0  0  0  0  0
    5.2120  -12.2643   26.5793 C   0  0  0  0  0  0  0  0  0  0  0  0
    7.7271  -12.9433   17.3800 N   0  0  0  0  0  0  0  0  0  0  0  0
    8.9826  -13.3242   17.9201 C   0  0  0  0  0  0  0  0  0  0  0  0
    9.6951  -12.4994   18.5920 N   0  0  0  0  0  0  0  0  0  0  0  0
    9.4592  -14.6422   17.7112 N   0  0  0  0  0  0  0  0  0  0  0  0
    8.7497  -15.8029   18.2497 C   0  0  0  0  0  0  0  0  0  0  0  0
    9.1043  -15.8358   19.7517 C   0  0  0  0  0  0  0  0  0  0  0  0
    8.4818  -17.0302   20.4111 C   0  0  0  0  0  0  0  0  0  0  0  0
    8.7068  -17.1788   21.8758 C   0  0  2  0  0  0  0  0  0  0  0  0
    7.8453  -16.5844   22.7956 N   0  0  0  0  0  0  0  0  0  0  0  0
   10.1057  -16.8603   22.1964 C   0  0  0  0  0  0  0  0  0  0  0  0
   10.2940  -16.1182   23.2272 O   0  0  0  0  0  0  0  0  0  0  0  0
   10.6338  -12.6728   18.9786 N   0  0  0  0  0  0  0  0  0  0  0  0
   11.2057  -17.3099   21.4599 C   0  0  1  0  0  0  0  0  0  0  0  0
   12.5499  -16.9400   21.9781 C   0  0  0  0  0  0  0  0  0  0  0  0
   12.6880  -17.5247   23.3772 C   0  0  0  0  0  0  0  0  0  0  0  0
   14.0343  -17.2752   23.8849 O   0  0  0  0  0  0  0  0  0  0  0  0
   14.8961  -16.6741   23.2390 C   0  0  0  0  0  0  0  0  0  0  0  0
   13.5032  -17.5565   21.0470 O   0  0  0  0  0  0  0  0  0  0  0  0
   13.2669  -18.7273   20.5940 O   0  0  0  0  0  0  0  0  0  0  0  0
   14.3906  -17.7287   25.1620 O   0  0  0  0  0  0  0  0  0  0  0  0
  2  1  1  0
  2 12  2  0
  3  2  1  0
  4  3  2  0
  4  5  1  0
  5 11  2  0
  6  5  1  0
  7  9  1  0
  7  6  1  0
  7  8  1  1
  9 10  2  0
 11 12  1  0
 14 15  2  0
 14 13  1  0
 16 14  1  0
 17 16  1  0
 18 17  1  0
 19 18  1  0
 20 19  1  6
 21 20  1  0
 21  9  1  0
 22 20  1  0
 23 22  2  0
 24 22  1  0
 25 26  1  6
 25 24  1  0
 26 27  1  0
 27 28  2  0
 27 31  1  0
 29 32  1  0
 29 25  1  0
 30 29  2  0
M  END
$$$$
