YRD.pdb
     RDKit          3D

 32 32  0  0  1  0  0  0  0  0999 V2000
    7.6019  -11.6541   17.8665 O   0  0  0  0  0  0  0  0  0  0  0  0
    7.8477  -12.5922   18.8629 C   0  0  0  0  0  0  0  0  0  0  0  0
    9.1317  -12.8231   19.2783 C   0  0  0  0  0  0  0  0  0  0  0  0
    9.3843  -13.7590   20.2731 C   0  0  0  0  0  0  0  0  0  0  0  0
    8.3612  -14.4718   20.8621 C   0  0  0  0  0  0  0  0  0  0  0  0
    8.6299  -15.4688   21.9230 C   0  0  0  0  0  0  0  0  0  0  0  0
    7.3846  -16.2848   22.2234 C   0  0  2  0  0  0  0  0  0  0  0  0
    6.4379  -15.5130   22.9896 N   0  0  0  0  0  0  0  0  0  0  0  0
    7.8451  -17.4238   23.1000 C   0  0  0  0  0  0  0  0  0  0  0  0
    7.8937  -17.2802   24.3305 O   0  0  0  0  0  0  0  0  0  0  0  0
    7.0789  -14.2270   20.4326 C   0  0  0  0  0  0  0  0  0  0  0  0
    6.8004  -13.2940   19.4371 C   0  0  0  0  0  0  0  0  0  0  0  0
   10.1528  -24.6332   26.1869 N   0  0  0  0  0  0  0  0  0  0  0  0
    9.3209  -24.6768   25.0384 C   0  0  0  0  0  0  0  0  0  0  0  0
    9.6665  -25.3277   23.9914 N   0  0  0  0  0  0  0  0  0  0  0  0
    8.0840  -23.9855   25.0483 N   0  0  0  0  0  0  0  0  0  0  0  0
    8.0146  -22.5450   24.8014 C   0  0  0  0  0  0  0  0  0  0  0  0
    8.9134  -22.2993   23.5708 C   0  0  0  0  0  0  0  0  0  0  0  0
    8.3840  -21.1579   22.7547 C   0  0  0  0  0  0  0  0  0  0  0  0
    8.6706  -19.7859   23.2584 C   0  0  2  0  0  0  0  0  0  0  0  0
    8.2279  -18.6622   22.5636 N   0  0  0  0  0  0  0  0  0  0  0  0
   10.1000  -19.6654   23.5803 C   0  0  0  0  0  0  0  0  0  0  0  0
   10.8566  -19.2328   22.6374 O   0  0  0  0  0  0  0  0  0  0  0  0
    9.1968  -25.3101   23.0750 N   0  0  0  0  0  0  0  0  0  0  0  0
   10.6589  -19.9875   24.8206 C   0  0  1  0  0  0  0  0  0  0  0  0
   12.1279  -19.7987   24.9578 C   0  0  0  0  0  0  0  0  0  0  0  0
   12.3919  -18.3112   25.1468 C   0  0  0  0  0  0  0  0  0  0  0  0
   13.6678  -17.9550   24.5320 O   0  0  0  0  0  0  0  0  0  0  0  0
   14.0870  -16.7965   24.4753 C   0  0  0  0  0  0  0  0  0  0  0  0
   12.5028  -20.5622   26.1546 O   0  0  0  0  0  0  0  0  0  0  0  0
   11.6285  -20.7718   27.0621 O   0  0  0  0  0  0  0  0  0  0  0  0
   14.4733  -18.9561   23.9729 O   0  0  0  0  0  0  0  0  0  0  0  0
  2  1  1  0
  2 12  2  0
  3  2  1  0
  4  3  2  0
  4  5  1  0
  5 11  2  0
  6  5  1  0
  7  9  1  0
  7  6  1  0
  7  8  1  1
  9 10  2  0
 11 12  1  0
 14 15  2  0
 14 13  1  0
 16 14  1  0
 17 16  1  0
 18 17  1  0
 19 18  1  0
 20 19  1  6
 21 20  1  0
 21  9  1  0
 22 20  1  0
 23 22  2  0
 24 22  1  0
 25 26  1  1
 25 24  1  0
 26 27  1  0
 27 28  2  0
 27 31  1  0
 29 32  1  0
 29 25  1  0
 30 29  2  0
M  END
$$$$
