YRD.pdb
     RDKit          3D

 32 32  0  0  1  0  0  0  0  0999 V2000
   10.8345  -14.5311   31.1044 O   0  0  0  0  0  0  0  0  0  0  0  0
   10.1790  -14.7306   29.8945 C   0  0  0  0  0  0  0  0  0  0  0  0
    9.6789  -15.9676   29.5874 C   0  0  0  0  0  0  0  0  0  0  0  0
    9.0232  -16.1738   28.3804 C   0  0  0  0  0  0  0  0  0  0  0  0
    8.8599  -15.1506   27.4703 C   0  0  0  0  0  0  0  0  0  0  0  0
    8.1603  -15.3698   26.1841 C   0  0  0  0  0  0  0  0  0  0  0  0
    8.8228  -16.4848   25.3937 C   0  0  2  0  0  0  0  0  0  0  0  0
   10.2529  -16.3057   25.3535 N   0  0  0  0  0  0  0  0  0  0  0  0
    8.3150  -16.3395   23.9798 C   0  0  0  0  0  0  0  0  0  0  0  0
    7.1171  -16.5350   23.7269 O   0  0  0  0  0  0  0  0  0  0  0  0
    9.3682  -13.9160   27.7954 C   0  0  0  0  0  0  0  0  0  0  0  0
   10.0294  -13.6845   28.9988 C   0  0  0  0  0  0  0  0  0  0  0  0
    7.9329  -13.3341   16.7573 N   0  0  0  0  0  0  0  0  0  0  0  0
    7.7717  -13.0533   18.1387 C   0  0  0  0  0  0  0  0  0  0  0  0
    8.2996  -12.0160   18.6723 N   0  0  0  0  0  0  0  0  0  0  0  0
    7.0133  -13.9381   18.9449 N   0  0  0  0  0  0  0  0  0  0  0  0
    6.8701  -13.7229   20.3850 C   0  0  0  0  0  0  0  0  0  0  0  0
    8.2576  -14.0380   20.9836 C   0  0  0  0  0  0  0  0  0  0  0  0
    8.7327  -15.3844   20.5251 C   0  0  0  0  0  0  0  0  0  0  0  0
    9.0637  -16.3745   21.5873 C   0  0  2  0  0  0  0  0  0  0  0  0
    9.1647  -15.9853   22.9213 N   0  0  0  0  0  0  0  0  0  0  0  0
   10.2424  -17.1558   21.1855 C   0  0  0  0  0  0  0  0  0  0  0  0
   10.4121  -17.3128   19.9225 O   0  0  0  0  0  0  0  0  0  0  0  0
    8.2770  -11.7602   19.6697 N   0  0  0  0  0  0  0  0  0  0  0  0
   11.1583  -17.7180   22.0798 C   0  0  2  0  0  0  0  0  0  0  0  0
   12.3732  -18.3379   21.4865 C   0  0  0  0  0  0  0  0  0  0  0  0
   13.1276  -17.2541   20.7286 C   0  0  0  0  0  0  0  0  0  0  0  0
   13.3615  -17.6862   19.3533 O   0  0  0  0  0  0  0  0  0  0  0  0
   14.4687  -17.6374   18.8120 C   0  0  0  0  0  0  0  0  0  0  0  0
   13.1519  -18.8277   22.6308 O   0  0  0  0  0  0  0  0  0  0  0  0
   12.9350  -18.3381   23.7905 O   0  0  0  0  0  0  0  0  0  0  0  0
   12.2966  -18.1837   18.5905 O   0  0  0  0  0  0  0  0  0  0  0  0
  2  1  1  0
  2 12  2  0
  3  2  1  0
  4  3  2  0
  4  5  1  0
  5 11  2  0
  6  5  1  0
  7  9  1  0
  7  6  1  0
  7  8  1  6
  9 10  2  0
 11 12  1  0
 14 15  2  0
 14 13  1  0
 16 14  1  0
 17 16  1  0
 18 17  1  0
 19 18  1  0
 20 19  1  6
 21 20  1  0
 21  9  1  0
 22 20  1  0
 23 22  2  0
 24 22  1  0
 25 26  1  6
 25 24  1  0
 26 27  1  0
 27 28  2  0
 27 31  1  0
 29 32  1  0
 29 25  1  0
 30 29  2  0
M  END
$$$$
