YRD.pdb
     RDKit          3D

 32 32  0  0  1  0  0  0  0  0999 V2000
    5.1094  -10.6882   28.4250 O   0  0  0  0  0  0  0  0  0  0  0  0
    5.7977  -11.6165   27.6518 C   0  0  0  0  0  0  0  0  0  0  0  0
    5.2106  -12.1361   26.5293 C   0  0  0  0  0  0  0  0  0  0  0  0
    5.8925  -13.0639   25.7525 C   0  0  0  0  0  0  0  0  0  0  0  0
    7.1638  -13.4813   26.0866 C   0  0  0  0  0  0  0  0  0  0  0  0
    7.8912  -14.4696   25.2586 C   0  0  0  0  0  0  0  0  0  0  0  0
    7.1213  -15.7764   25.1786 C   0  0  2  0  0  0  0  0  0  0  0  0
    7.0641  -16.4180   26.4686 N   0  0  0  0  0  0  0  0  0  0  0  0
    7.9297  -16.6710   24.2708 C   0  0  0  0  0  0  0  0  0  0  0  0
    8.5590  -17.6293   24.7428 O   0  0  0  0  0  0  0  0  0  0  0  0
    7.7372  -12.9492   27.2165 C   0  0  0  0  0  0  0  0  0  0  0  0
    7.0739  -12.0180   28.0114 C   0  0  0  0  0  0  0  0  0  0  0  0
    9.9773  -13.8098   17.8727 N   0  0  0  0  0  0  0  0  0  0  0  0
    8.5977  -13.4825   17.9245 C   0  0  0  0  0  0  0  0  0  0  0  0
    8.1945  -12.2764   17.7755 N   0  0  0  0  0  0  0  0  0  0  0  0
    7.6467  -14.5091   18.1470 N   0  0  0  0  0  0  0  0  0  0  0  0
    8.0593  -15.8971   18.3564 C   0  0  0  0  0  0  0  0  0  0  0  0
    8.7218  -15.9190   19.7504 C   0  0  0  0  0  0  0  0  0  0  0  0
    8.3230  -17.1546   20.5008 C   0  0  0  0  0  0  0  0  0  0  0  0
    8.6901  -17.2091   21.9432 C   0  0  2  0  0  0  0  0  0  0  0  0
    7.9968  -16.4537   22.8866 N   0  0  0  0  0  0  0  0  0  0  0  0
   10.1403  -17.0187   22.0922 C   0  0  0  0  0  0  0  0  0  0  0  0
   10.5145  -15.8923   22.5817 O   0  0  0  0  0  0  0  0  0  0  0  0
    7.2185  -11.9483   17.7994 N   0  0  0  0  0  0  0  0  0  0  0  0
   11.1011  -17.9711   21.7395 C   0  0  2  0  0  0  0  0  0  0  0  0
   12.5248  -17.5652   21.8838 C   0  0  0  0  0  0  0  0  0  0  0  0
   12.6535  -16.1303   21.3912 C   0  0  0  0  0  0  0  0  0  0  0  0
   13.8926  -15.9787   20.6333 O   0  0  0  0  0  0  0  0  0  0  0  0
   14.0681  -16.4860   19.5228 C   0  0  0  0  0  0  0  0  0  0  0  0
   12.8076  -17.6621   23.3213 O   0  0  0  0  0  0  0  0  0  0  0  0
   14.0055  -17.5024   23.7353 O   0  0  0  0  0  0  0  0  0  0  0  0
   14.9472  -15.2273   21.1686 O   0  0  0  0  0  0  0  0  0  0  0  0
  2  1  1  0
  2 12  2  0
  3  2  1  0
  4  3  2  0
  4  5  1  0
  5 11  2  0
  6  5  1  0
  7  9  1  0
  7  6  1  0
  7  8  1  1
  9 10  2  0
 11 12  1  0
 14 15  2  0
 14 13  1  0
 16 14  1  0
 17 16  1  0
 18 17  1  0
 19 18  1  0
 20 19  1  6
 21 20  1  0
 21  9  1  0
 22 20  1  0
 23 22  2  0
 24 22  1  0
 25 26  1  6
 25 24  1  0
 26 27  1  0
 27 28  2  0
 27 31  1  0
 29 32  1  0
 29 25  1  0
 30 29  2  0
M  END
$$$$
