YRD.pdb
     RDKit          3D

 32 32  0  0  1  0  0  0  0  0999 V2000
    8.2739  -11.8142   17.2063 O   0  0  0  0  0  0  0  0  0  0  0  0
    8.1682  -12.4296   18.4487 C   0  0  0  0  0  0  0  0  0  0  0  0
    9.2889  -12.6186   19.2121 C   0  0  0  0  0  0  0  0  0  0  0  0
    9.1903  -13.2327   20.4540 C   0  0  0  0  0  0  0  0  0  0  0  0
    7.9758  -13.6631   20.9457 C   0  0  0  0  0  0  0  0  0  0  0  0
    7.8702  -14.3170   22.2696 C   0  0  0  0  0  0  0  0  0  0  0  0
    8.9670  -15.3524   22.4482 C   0  0  2  0  0  0  0  0  0  0  0  0
    9.0940  -16.1737   21.2700 N   0  0  0  0  0  0  0  0  0  0  0  0
    8.5022  -16.2494   23.5694 C   0  0  0  0  0  0  0  0  0  0  0  0
    8.2524  -15.7702   24.6853 O   0  0  0  0  0  0  0  0  0  0  0  0
    6.8618  -13.4651   20.1658 C   0  0  0  0  0  0  0  0  0  0  0  0
    6.9350  -12.8521   18.9177 C   0  0  0  0  0  0  0  0  0  0  0  0
    4.0046  -24.0154   24.4538 N   0  0  0  0  0  0  0  0  0  0  0  0
    4.6059  -23.6921   25.6975 C   0  0  0  0  0  0  0  0  0  0  0  0
    4.3587  -24.3740   26.7527 N   0  0  0  0  0  0  0  0  0  0  0  0
    5.4961  -22.5924   25.7753 N   0  0  0  0  0  0  0  0  0  0  0  0
    5.6759  -21.6769   24.6483 C   0  0  0  0  0  0  0  0  0  0  0  0
    6.7781  -20.6928   25.0952 C   0  0  0  0  0  0  0  0  0  0  0  0
    7.0825  -19.7145   24.0002 C   0  0  0  0  0  0  0  0  0  0  0  0
    7.9692  -18.5708   24.3523 C   0  0  2  0  0  0  0  0  0  0  0  0
    8.3399  -17.6315   23.3923 N   0  0  0  0  0  0  0  0  0  0  0  0
    9.1497  -19.0646   25.0760 C   0  0  0  0  0  0  0  0  0  0  0  0
   10.2863  -18.8398   24.5225 O   0  0  0  0  0  0  0  0  0  0  0  0
    4.7142  -24.1875   27.7011 N   0  0  0  0  0  0  0  0  0  0  0  0
    9.0993  -19.7441   26.2968 C   0  0  2  0  0  0  0  0  0  0  0  0
   10.4017  -20.1673   26.8774 C   0  0  0  0  0  0  0  0  0  0  0  0
   11.1274  -18.9174   27.3562 C   0  0  0  0  0  0  0  0  0  0  0  0
   10.6716  -18.5667   28.6987 O   0  0  0  0  0  0  0  0  0  0  0  0
    9.4859  -18.3724   28.9770 C   0  0  0  0  0  0  0  0  0  0  0  0
   10.0535  -21.0446   28.0020 O   0  0  0  0  0  0  0  0  0  0  0  0
    8.8457  -21.0811   28.4162 O   0  0  0  0  0  0  0  0  0  0  0  0
   11.6032  -18.4385   29.7375 O   0  0  0  0  0  0  0  0  0  0  0  0
  2  1  1  0
  2 12  2  0
  3  2  1  0
  4  3  2  0
  4  5  1  0
  5 11  2  0
  6  5  1  0
  7  9  1  0
  7  6  1  0
  7  8  1  6
  9 10  2  0
 11 12  1  0
 14 15  2  0
 14 13  1  0
 16 14  1  0
 17 16  1  0
 18 17  1  0
 19 18  1  0
 20 19  1  6
 21 20  1  0
 21  9  1  0
 22 20  1  0
 23 22  2  0
 24 22  1  0
 25 26  1  6
 25 24  1  0
 26 27  1  0
 27 28  2  0
 27 31  1  0
 29 32  1  0
 29 25  1  0
 30 29  2  0
M  END
$$$$
