YRD.pdb
     RDKit          3D

 32 32  0  0  1  0  0  0  0  0999 V2000
    6.9055  -10.5949   27.6258 O   0  0  0  0  0  0  0  0  0  0  0  0
    6.7429  -11.7821   26.9206 C   0  0  0  0  0  0  0  0  0  0  0  0
    6.4909  -12.9460   27.5963 C   0  0  0  0  0  0  0  0  0  0  0  0
    6.3276  -14.1354   26.8980 C   0  0  0  0  0  0  0  0  0  0  0  0
    6.4134  -14.1757   25.5221 C   0  0  0  0  0  0  0  0  0  0  0  0
    6.2385  -15.4431   24.7774 C   0  0  0  0  0  0  0  0  0  0  0  0
    7.2077  -16.5001   25.2777 C   0  0  2  0  0  0  0  0  0  0  0  0
    8.3303  -15.8913   25.9470 N   0  0  0  0  0  0  0  0  0  0  0  0
    7.7413  -17.1819   24.0415 C   0  0  0  0  0  0  0  0  0  0  0  0
    7.0401  -18.0045   23.4342 O   0  0  0  0  0  0  0  0  0  0  0  0
    6.6668  -12.9980   24.8607 C   0  0  0  0  0  0  0  0  0  0  0  0
    6.8344  -11.7932   25.5383 C   0  0  0  0  0  0  0  0  0  0  0  0
    9.4864  -13.4771   17.7480 N   0  0  0  0  0  0  0  0  0  0  0  0
    8.6442  -12.9398   18.7555 C   0  0  0  0  0  0  0  0  0  0  0  0
    8.7814  -11.7338   19.1632 N   0  0  0  0  0  0  0  0  0  0  0  0
    7.6324  -13.7531   19.3236 N   0  0  0  0  0  0  0  0  0  0  0  0
    7.8020  -15.2005   19.4533 C   0  0  0  0  0  0  0  0  0  0  0  0
    8.5678  -15.4035   20.7782 C   0  0  0  0  0  0  0  0  0  0  0  0
    8.7638  -16.8649   21.0514 C   0  0  0  0  0  0  0  0  0  0  0  0
    9.5260  -17.2193   22.2810 C   0  0  2  0  0  0  0  0  0  0  0  0
    9.0258  -16.9143   23.5451 N   0  0  0  0  0  0  0  0  0  0  0  0
   10.9167  -16.7609   22.1503 C   0  0  0  0  0  0  0  0  0  0  0  0
   11.0876  -15.4907   22.0725 O   0  0  0  0  0  0  0  0  0  0  0  0
    8.2460  -11.2753   19.9142 N   0  0  0  0  0  0  0  0  0  0  0  0
   12.0264  -17.6102   22.1081 C   0  0  1  0  0  0  0  0  0  0  0  0
   13.3412  -17.0051   22.4511 C   0  0  0  0  0  0  0  0  0  0  0  0
   14.3438  -18.1371   22.6293 C   0  0  0  0  0  0  0  0  0  0  0  0
   15.0128  -18.0041   23.9206 O   0  0  0  0  0  0  0  0  0  0  0  0
   14.8338  -17.0451   24.6753 C   0  0  0  0  0  0  0  0  0  0  0  0
   13.6881  -16.1629   21.2996 O   0  0  0  0  0  0  0  0  0  0  0  0
   12.9827  -16.2347   20.2370 O   0  0  0  0  0  0  0  0  0  0  0  0
   15.9044  -18.9974   24.3470 O   0  0  0  0  0  0  0  0  0  0  0  0
  2  1  1  0
  2 12  2  0
  3  2  1  0
  4  3  2  0
  4  5  1  0
  5 11  2  0
  6  5  1  0
  7  9  1  0
  7  6  1  0
  7  8  1  6
  9 10  2  0
 11 12  1  0
 14 15  2  0
 14 13  1  0
 16 14  1  0
 17 16  1  0
 18 17  1  0
 19 18  1  0
 20 19  1  6
 21 20  1  0
 21  9  1  0
 22 20  1  0
 23 22  2  0
 24 22  1  0
 25 26  1  6
 25 24  1  0
 26 27  1  0
 27 28  2  0
 27 31  1  0
 29 32  1  0
 29 25  1  0
 30 29  2  0
M  END
$$$$
