WLV.pdb
     RDKit          3D

 30 31  0  0  1  0  0  0  0  0999 V2000
    6.1250  -18.2564   24.6081 N   0  0  0  0  0  0  0  0  0  0  0  0
    6.6097  -16.9129   24.6191 C   0  0  1  0  0  0  0  0  0  0  0  0
    6.9371  -16.3442   25.9536 C   0  0  0  0  0  0  0  0  0  0  0  0
    6.1522  -15.1164   26.1865 C   0  0  0  0  0  0  0  0  0  0  0  0
    4.7775  -15.0242   26.3120 C   0  0  0  0  0  0  0  0  0  0  0  0
    4.4680  -13.7435   26.5443 N   0  0  0  0  0  0  0  0  0  0  0  0
    5.5851  -12.9908   26.5757 C   0  0  0  0  0  0  0  0  0  0  0  0
    5.7780  -11.6173   26.7758 C   0  0  0  0  0  0  0  0  0  0  0  0
    7.0570  -11.1341   26.7428 C   0  0  0  0  0  0  0  0  0  0  0  0
    8.1025  -11.9929   26.5179 C   0  0  0  0  0  0  0  0  0  0  0  0
    7.9391  -13.3406   26.3196 C   0  0  0  0  0  0  0  0  0  0  0  0
    6.6430  -13.8431   26.3520 C   0  0  0  0  0  0  0  0  0  0  0  0
    7.7927  -16.8662   23.6883 C   0  0  0  0  0  0  0  0  0  0  0  0
    8.4247  -17.9131   23.3603 O   0  0  0  0  0  0  0  0  0  0  0  0
    8.0206  -14.7334   19.7630 C   0  0  0  0  0  0  0  0  0  0  0  0
    8.1890  -13.8373   21.0145 C   0  0  2  0  0  0  0  0  0  0  0  0
    8.3404  -12.4097   20.5399 C   0  0  0  0  0  0  0  0  0  0  0  0
    9.4405  -14.2825   21.6589 C   0  0  0  0  0  0  0  0  0  0  0  0
    9.4618  -15.6484   22.2768 C   0  0  2  0  0  0  0  0  0  0  0  0
    8.2545  -15.6517   23.1367 N   0  0  0  0  0  0  0  0  0  0  0  0
   10.6652  -15.7520   23.1504 C   0  0  0  0  0  0  0  0  0  0  0  0
   11.8304  -15.8164   22.6181 O   0  0  0  0  0  0  0  0  0  0  0  0
   11.0690  -14.1364   26.7533 C   0  0  0  0  0  0  0  0  0  0  0  0
   11.6343  -15.5195   26.7514 C   0  0  1  0  0  0  0  0  0  0  0  0
   10.5882  -16.4535   27.3592 C   0  0  0  0  0  0  0  0  0  0  0  0
   11.8538  -16.0212   25.3325 C   0  0  2  0  0  0  0  0  0  0  0  0
   10.6502  -15.7835   24.5567 N   0  0  0  0  0  0  0  0  0  0  0  0
   12.2474  -17.4445   25.3241 C   0  0  0  0  0  0  0  0  0  0  0  0
   13.4639  -17.8238   25.8724 O   0  0  0  0  0  0  0  0  0  0  0  0
   11.5422  -18.3695   24.8423 O   0  0  0  0  0  0  0  0  0  0  0  0
  2  1  1  1
  2 13  1  0
  2  3  1  0
  4  3  1  0
  4  5  2  0
  6  5  1  0
  7  6  1  0
  8  7  2  0
  9  8  1  0
 10  9  2  0
 10 11  1  0
 11 12  2  0
 12  7  1  0
 12  4  1  0
 13 14  2  0
 16 15  1  6
 17 16  1  0
 18 16  1  0
 19 18  1  1
 20 19  1  0
 20 13  1  0
 21 22  2  0
 21 19  1  0
 24 23  1  6
 24 26  1  0
 25 24  1  0
 26 28  1  0
 26 27  1  6
 27 21  1  0
 28 29  1  0
 30 28  2  0
M  END
$$$$
