WLV.pdb
     RDKit          3D

 30 31  0  0  1  0  0  0  0  0999 V2000
    5.7629  -17.6433   23.8207 N   0  0  0  0  0  0  0  0  0  0  0  0
    6.6047  -16.4897   23.8434 C   0  0  1  0  0  0  0  0  0  0  0  0
    7.3142  -16.2201   25.1224 C   0  0  0  0  0  0  0  0  0  0  0  0
    6.6425  -15.1278   25.8528 C   0  0  0  0  0  0  0  0  0  0  0  0
    5.4145  -15.1888   26.4869 C   0  0  0  0  0  0  0  0  0  0  0  0
    5.1813  -13.9992   27.0531 N   0  0  0  0  0  0  0  0  0  0  0  0
    6.2074  -13.1590   26.8151 C   0  0  0  0  0  0  0  0  0  0  0  0
    6.4248  -11.8252   27.1857 C   0  0  0  0  0  0  0  0  0  0  0  0
    7.5839  -11.2236   26.7791 C   0  0  0  0  0  0  0  0  0  0  0  0
    8.4900  -11.9301   26.0303 C   0  0  0  0  0  0  0  0  0  0  0  0
    8.2999  -13.2361   25.6554 C   0  0  0  0  0  0  0  0  0  0  0  0
    7.1254  -13.8582   26.0640 C   0  0  0  0  0  0  0  0  0  0  0  0
    7.5652  -16.6252   22.6915 C   0  0  0  0  0  0  0  0  0  0  0  0
    8.0139  -17.7515   22.3265 O   0  0  0  0  0  0  0  0  0  0  0  0
    8.1995  -12.2888   19.3930 C   0  0  0  0  0  0  0  0  0  0  0  0
    8.0018  -13.8189   19.5240 C   0  0  2  0  0  0  0  0  0  0  0  0
    6.7227  -14.0522   20.2961 C   0  0  0  0  0  0  0  0  0  0  0  0
    9.1530  -14.3043   20.3107 C   0  0  0  0  0  0  0  0  0  0  0  0
    9.0559  -15.6692   20.9236 C   0  0  2  0  0  0  0  0  0  0  0  0
    8.0123  -15.5019   21.9630 N   0  0  0  0  0  0  0  0  0  0  0  0
   10.3496  -15.9766   21.5974 C   0  0  0  0  0  0  0  0  0  0  0  0
   11.4204  -16.0734   20.8979 O   0  0  0  0  0  0  0  0  0  0  0  0
   11.1644  -14.8422   25.3319 C   0  0  0  0  0  0  0  0  0  0  0  0
   11.7669  -16.1810   25.0536 C   0  0  1  0  0  0  0  0  0  0  0  0
   10.8348  -17.2437   25.6348 C   0  0  0  0  0  0  0  0  0  0  0  0
   11.8210  -16.4589   23.5593 C   0  0  2  0  0  0  0  0  0  0  0  0
   10.5209  -16.1753   22.9795 N   0  0  0  0  0  0  0  0  0  0  0  0
   12.2590  -17.8431   23.2891 C   0  0  0  0  0  0  0  0  0  0  0  0
   13.5416  -18.2383   23.6399 O   0  0  0  0  0  0  0  0  0  0  0  0
   11.5357  -18.7199   22.7475 O   0  0  0  0  0  0  0  0  0  0  0  0
  2  1  1  1
  2 13  1  0
  2  3  1  0
  4  3  1  0
  4  5  2  0
  6  5  1  0
  7  6  1  0
  8  7  2  0
  9  8  1  0
 10  9  2  0
 10 11  1  0
 11 12  2  0
 12  7  1  0
 12  4  1  0
 13 14  2  0
 16 15  1  1
 17 16  1  0
 18 16  1  0
 19 18  1  1
 20 19  1  0
 20 13  1  0
 21 22  2  0
 21 19  1  0
 24 23  1  6
 24 26  1  0
 25 24  1  0
 26 28  1  0
 26 27  1  1
 27 21  1  0
 28 29  1  0
 30 28  2  0
M  END
$$$$
