WLV.pdb
     RDKit          3D

 30 31  0  0  1  0  0  0  0  0999 V2000
    6.0622  -18.1676   24.5676 N   0  0  0  0  0  0  0  0  0  0  0  0
    6.6174  -16.8536   24.6395 C   0  0  1  0  0  0  0  0  0  0  0  0
    6.8899  -16.3300   26.0045 C   0  0  0  0  0  0  0  0  0  0  0  0
    6.1826  -15.0505   26.2059 C   0  0  0  0  0  0  0  0  0  0  0  0
    4.8158  -14.8433   26.1544 C   0  0  0  0  0  0  0  0  0  0  0  0
    4.5823  -13.5532   26.4211 N   0  0  0  0  0  0  0  0  0  0  0  0
    5.7420  -12.9048   26.6449 C   0  0  0  0  0  0  0  0  0  0  0  0
    6.0164  -11.5653   26.9516 C   0  0  0  0  0  0  0  0  0  0  0  0
    7.3229  -11.1961   27.1168 C   0  0  0  0  0  0  0  0  0  0  0  0
    8.3162  -12.1319   26.9801 C   0  0  0  0  0  0  0  0  0  0  0  0
    8.0727  -13.4484   26.6807 C   0  0  0  0  0  0  0  0  0  0  0  0
    6.7479  -13.8353   26.5115 C   0  0  0  0  0  0  0  0  0  0  0  0
    7.8579  -16.8546   23.7855 C   0  0  0  0  0  0  0  0  0  0  0  0
    8.5753  -17.8894   23.6532 O   0  0  0  0  0  0  0  0  0  0  0  0
    8.0193  -14.9341   19.8001 C   0  0  0  0  0  0  0  0  0  0  0  0
    8.2658  -13.9870   20.9999 C   0  0  2  0  0  0  0  0  0  0  0  0
    8.4098  -12.5838   20.4551 C   0  0  0  0  0  0  0  0  0  0  0  0
    9.5443  -14.4224   21.5962 C   0  0  0  0  0  0  0  0  0  0  0  0
    9.5608  -15.7219   22.3439 C   0  0  2  0  0  0  0  0  0  0  0  0
    8.2809  -15.7006   23.0913 N   0  0  0  0  0  0  0  0  0  0  0  0
   10.6823  -15.6869   23.3253 C   0  0  0  0  0  0  0  0  0  0  0  0
   11.8880  -15.8386   22.9148 O   0  0  0  0  0  0  0  0  0  0  0  0
   10.7442  -13.4039   26.5287 C   0  0  0  0  0  0  0  0  0  0  0  0
   11.3440  -14.7305   26.8651 C   0  0  1  0  0  0  0  0  0  0  0  0
   10.2780  -15.5575   27.5834 C   0  0  0  0  0  0  0  0  0  0  0  0
   11.6879  -15.5127   25.6069 C   0  0  2  0  0  0  0  0  0  0  0  0
   10.5453  -15.4924   24.7119 N   0  0  0  0  0  0  0  0  0  0  0  0
   12.1129  -16.8889   25.9330 C   0  0  0  0  0  0  0  0  0  0  0  0
   11.3791  -17.9653   25.4564 O   0  0  0  0  0  0  0  0  0  0  0  0
   13.1213  -17.1696   26.6326 O   0  0  0  0  0  0  0  0  0  0  0  0
  2  1  1  1
  2 13  1  0
  2  3  1  0
  4  3  1  0
  4  5  2  0
  6  5  1  0
  7  6  1  0
  8  7  2  0
  9  8  1  0
 10  9  2  0
 10 11  1  0
 11 12  2  0
 12  7  1  0
 12  4  1  0
 13 14  2  0
 16 15  1  6
 17 16  1  0
 18 16  1  0
 19 18  1  6
 20 19  1  0
 20 13  1  0
 21 22  2  0
 21 19  1  0
 24 23  1  6
 24 26  1  0
 25 24  1  0
 26 28  1  0
 26 27  1  6
 27 21  1  0
 28 29  1  0
 30 28  2  0
M  END
$$$$
