WLV.pdb
     RDKit          3D

 30 31  0  0  1  0  0  0  0  0999 V2000
    5.8399  -18.2191   24.3703 N   0  0  0  0  0  0  0  0  0  0  0  0
    6.4167  -16.9156   24.4603 C   0  0  1  0  0  0  0  0  0  0  0  0
    6.7082  -16.4202   25.8319 C   0  0  0  0  0  0  0  0  0  0  0  0
    6.0356  -15.1259   26.0557 C   0  0  0  0  0  0  0  0  0  0  0  0
    4.6725  -14.8896   26.0504 C   0  0  0  0  0  0  0  0  0  0  0  0
    4.4758  -13.5946   26.3233 N   0  0  0  0  0  0  0  0  0  0  0  0
    5.6560  -12.9710   26.5069 C   0  0  0  0  0  0  0  0  0  0  0  0
    5.9692  -11.6375   26.8024 C   0  0  0  0  0  0  0  0  0  0  0  0
    7.2881  -11.2962   26.9226 C   0  0  0  0  0  0  0  0  0  0  0  0
    8.2560  -12.2531   26.7534 C   0  0  0  0  0  0  0  0  0  0  0  0
    7.9745  -13.5643   26.4640 C   0  0  0  0  0  0  0  0  0  0  0  0
    6.6367  -13.9228   26.3404 C   0  0  0  0  0  0  0  0  0  0  0  0
    7.6504  -16.9216   23.5965 C   0  0  0  0  0  0  0  0  0  0  0  0
    8.3245  -17.9759   23.4042 O   0  0  0  0  0  0  0  0  0  0  0  0
    8.0399  -14.9348   19.7726 C   0  0  0  0  0  0  0  0  0  0  0  0
    8.2659  -13.9551   20.9501 C   0  0  2  0  0  0  0  0  0  0  0  0
    8.4927  -12.5792   20.3654 C   0  0  0  0  0  0  0  0  0  0  0  0
    9.4952  -14.4177   21.6241 C   0  0  0  0  0  0  0  0  0  0  0  0
    9.4534  -15.7438   22.3225 C   0  0  2  0  0  0  0  0  0  0  0  0
    8.1150  -15.7508   22.9595 N   0  0  0  0  0  0  0  0  0  0  0  0
   10.4881  -15.7444   23.3956 C   0  0  0  0  0  0  0  0  0  0  0  0
   11.7306  -15.7377   23.0772 O   0  0  0  0  0  0  0  0  0  0  0  0
   11.7708  -15.4009   28.1772 C   0  0  0  0  0  0  0  0  0  0  0  0
   10.7279  -15.3354   27.1092 C   0  0  1  0  0  0  0  0  0  0  0  0
   10.3155  -13.8726   26.9468 C   0  0  0  0  0  0  0  0  0  0  0  0
   11.2956  -15.7513   25.7609 C   0  0  2  0  0  0  0  0  0  0  0  0
   10.2275  -15.7477   24.7780 N   0  0  0  0  0  0  0  0  0  0  0  0
   11.9670  -17.0639   25.8460 C   0  0  0  0  0  0  0  0  0  0  0  0
   13.1584  -17.1816   26.5467 O   0  0  0  0  0  0  0  0  0  0  0  0
   11.5280  -18.1175   25.3148 O   0  0  0  0  0  0  0  0  0  0  0  0
  2  1  1  1
  2 13  1  0
  2  3  1  0
  4  3  1  0
  4  5  2  0
  6  5  1  0
  7  6  1  0
  8  7  2  0
  9  8  1  0
 10  9  2  0
 10 11  1  0
 11 12  2  0
 12  7  1  0
 12  4  1  0
 13 14  2  0
 16 15  1  6
 17 16  1  0
 18 16  1  0
 19 18  1  1
 20 19  1  0
 20 13  1  0
 21 22  2  0
 21 19  1  0
 24 23  1  1
 24 26  1  0
 25 24  1  0
 26 28  1  0
 26 27  1  6
 27 21  1  0
 28 29  1  0
 30 28  2  0
M  END
$$$$
