WLV.pdb
     RDKit          3D

 30 31  0  0  1  0  0  0  0  0999 V2000
    5.7313  -18.0427   24.1310 N   0  0  0  0  0  0  0  0  0  0  0  0
    6.4468  -16.8086   24.2020 C   0  0  1  0  0  0  0  0  0  0  0  0
    6.9093  -16.3950   25.5536 C   0  0  0  0  0  0  0  0  0  0  0  0
    6.2545  -15.1325   25.9477 C   0  0  0  0  0  0  0  0  0  0  0  0
    4.8940  -14.8998   26.0411 C   0  0  0  0  0  0  0  0  0  0  0  0
    4.7171  -13.6409   26.4582 N   0  0  0  0  0  0  0  0  0  0  0  0
    5.9077  -13.0375   26.6418 C   0  0  0  0  0  0  0  0  0  0  0  0
    6.2412  -11.7416   27.0578 C   0  0  0  0  0  0  0  0  0  0  0  0
    7.5660  -11.4121   27.1415 C   0  0  0  0  0  0  0  0  0  0  0  0
    8.5198  -12.3440   26.8208 C   0  0  0  0  0  0  0  0  0  0  0  0
    8.2183  -13.6182   26.4115 C   0  0  0  0  0  0  0  0  0  0  0  0
    6.8745  -13.9647   26.3237 C   0  0  0  0  0  0  0  0  0  0  0  0
    7.5914  -16.9090   23.2283 C   0  0  0  0  0  0  0  0  0  0  0  0
    8.1330  -18.0186   22.9482 O   0  0  0  0  0  0  0  0  0  0  0  0
    7.4915  -15.0687   19.5240 C   0  0  0  0  0  0  0  0  0  0  0  0
    8.0669  -14.0689   20.5570 C   0  0  2  0  0  0  0  0  0  0  0  0
    8.2809  -12.7499   19.8492 C   0  0  0  0  0  0  0  0  0  0  0  0
    9.3691  -14.6279   20.9711 C   0  0  0  0  0  0  0  0  0  0  0  0
    9.3627  -15.8855   21.7875 C   0  0  2  0  0  0  0  0  0  0  0  0
    8.1161  -15.7697   22.5810 N   0  0  0  0  0  0  0  0  0  0  0  0
   10.5235  -15.8468   22.7219 C   0  0  0  0  0  0  0  0  0  0  0  0
   11.7162  -15.8980   22.2526 O   0  0  0  0  0  0  0  0  0  0  0  0
   10.2322  -14.7218   26.7718 C   0  0  0  0  0  0  0  0  0  0  0  0
   11.4815  -14.5796   25.9646 C   0  0  1  0  0  0  0  0  0  0  0  0
   12.6709  -14.7213   26.9141 C   0  0  0  0  0  0  0  0  0  0  0  0
   11.6211  -15.7162   24.9636 C   0  0  2  0  0  0  0  0  0  0  0  0
   10.4383  -15.7521   24.1229 N   0  0  0  0  0  0  0  0  0  0  0  0
   11.8553  -17.0041   25.6472 C   0  0  0  0  0  0  0  0  0  0  0  0
   13.1087  -17.2857   26.1707 O   0  0  0  0  0  0  0  0  0  0  0  0
   10.9778  -17.8946   25.7960 O   0  0  0  0  0  0  0  0  0  0  0  0
  2  1  1  1
  2 13  1  0
  2  3  1  0
  4  3  1  0
  4  5  2  0
  6  5  1  0
  7  6  1  0
  8  7  2  0
  9  8  1  0
 10  9  2  0
 10 11  1  0
 11 12  2  0
 12  7  1  0
 12  4  1  0
 13 14  2  0
 16 15  1  6
 17 16  1  0
 18 16  1  0
 19 18  1  6
 20 19  1  0
 20 13  1  0
 21 22  2  0
 21 19  1  0
 24 23  1  1
 24 26  1  0
 25 24  1  0
 26 28  1  0
 26 27  1  1
 27 21  1  0
 28 29  1  0
 30 28  2  0
M  END
$$$$
