WLV.pdb
     RDKit          3D

 30 31  0  0  1  0  0  0  0  0999 V2000
   10.0867  -14.8224   22.7951 N   0  0  0  0  0  0  0  0  0  0  0  0
    9.0706  -15.3987   23.6169 C   0  0  1  0  0  0  0  0  0  0  0  0
    7.6968  -15.4151   23.0475 C   0  0  0  0  0  0  0  0  0  0  0  0
    7.2109  -14.0344   22.8591 C   0  0  0  0  0  0  0  0  0  0  0  0
    6.9858  -13.3934   21.6540 C   0  0  0  0  0  0  0  0  0  0  0  0
    6.5213  -12.1668   21.9181 N   0  0  0  0  0  0  0  0  0  0  0  0
    6.4331  -11.9767   23.2490 C   0  0  0  0  0  0  0  0  0  0  0  0
    6.0161  -10.8746   24.0073 C   0  0  0  0  0  0  0  0  0  0  0  0
    6.0470  -10.9808   25.3705 C   0  0  0  0  0  0  0  0  0  0  0  0
    6.4789  -12.1454   25.9519 C   0  0  0  0  0  0  0  0  0  0  0  0
    6.8916  -13.2375   25.2314 C   0  0  0  0  0  0  0  0  0  0  0  0
    6.8636  -13.1411   23.8445 C   0  0  0  0  0  0  0  0  0  0  0  0
    9.5373  -16.7823   23.9855 C   0  0  0  0  0  0  0  0  0  0  0  0
    8.7434  -17.6516   24.4515 O   0  0  0  0  0  0  0  0  0  0  0  0
   11.8364  -20.1777   22.1019 C   0  0  0  0  0  0  0  0  0  0  0  0
   12.6292  -18.8696   22.3424 C   0  0  2  0  0  0  0  0  0  0  0  0
   14.0323  -19.0803   21.8196 C   0  0  0  0  0  0  0  0  0  0  0  0
   12.6663  -18.6888   23.8072 C   0  0  0  0  0  0  0  0  0  0  0  0
   11.3737  -18.3992   24.5094 C   0  0  2  0  0  0  0  0  0  0  0  0
   10.8836  -17.1767   23.8293 N   0  0  0  0  0  0  0  0  0  0  0  0
   11.6741  -18.0621   25.9301 C   0  0  0  0  0  0  0  0  0  0  0  0
   12.2763  -18.9190   26.6705 O   0  0  0  0  0  0  0  0  0  0  0  0
    9.6124  -15.1866   28.2357 C   0  0  0  0  0  0  0  0  0  0  0  0
   11.1000  -15.2487   28.3622 C   0  0  1  0  0  0  0  0  0  0  0  0
   11.4515  -15.0801   29.8401 C   0  0  0  0  0  0  0  0  0  0  0  0
   11.6277  -16.6205   27.9713 C   0  0  2  0  0  0  0  0  0  0  0  0
   11.3536  -16.8478   26.5641 N   0  0  0  0  0  0  0  0  0  0  0  0
   11.0519  -17.6778   28.8266 C   0  0  0  0  0  0  0  0  0  0  0  0
   10.0186  -18.4662   28.3420 O   0  0  0  0  0  0  0  0  0  0  0  0
   11.4383  -17.9266   29.9987 O   0  0  0  0  0  0  0  0  0  0  0  0
  2  1  1  6
  2 13  1  0
  2  3  1  0
  4  3  1  0
  4  5  2  0
  6  5  1  0
  7  6  1  0
  8  7  2  0
  9  8  1  0
 10  9  2  0
 10 11  1  0
 11 12  2  0
 12  7  1  0
 12  4  1  0
 13 14  2  0
 16 15  1  1
 17 16  1  0
 18 16  1  0
 19 18  1  6
 20 19  1  0
 20 13  1  0
 21 22  2  0
 21 19  1  0
 24 23  1  1
 24 26  1  0
 25 24  1  0
 26 28  1  0
 26 27  1  6
 27 21  1  0
 28 29  1  0
 30 28  2  0
M  END
$$$$
