WLV.pdb
     RDKit          3D

 30 31  0  0  1  0  0  0  0  0999 V2000
    5.8861  -18.0891   24.3921 N   0  0  0  0  0  0  0  0  0  0  0  0
    6.4268  -16.7704   24.4845 C   0  0  1  0  0  0  0  0  0  0  0  0
    6.6657  -16.2538   25.8585 C   0  0  0  0  0  0  0  0  0  0  0  0
    5.8931  -15.0151   26.0744 C   0  0  0  0  0  0  0  0  0  0  0  0
    4.5287  -14.9160   26.2807 C   0  0  0  0  0  0  0  0  0  0  0  0
    4.2304  -13.6246   26.4635 N   0  0  0  0  0  0  0  0  0  0  0  0
    5.3450  -12.8716   26.3847 C   0  0  0  0  0  0  0  0  0  0  0  0
    5.5457  -11.4895   26.4989 C   0  0  0  0  0  0  0  0  0  0  0  0
    6.8187  -11.0091   26.3602 C   0  0  0  0  0  0  0  0  0  0  0  0
    7.8507  -11.8789   26.1163 C   0  0  0  0  0  0  0  0  0  0  0  0
    7.6795  -13.2352   26.0006 C   0  0  0  0  0  0  0  0  0  0  0  0
    6.3894  -13.7349   26.1409 C   0  0  0  0  0  0  0  0  0  0  0  0
    7.6848  -16.7535   23.6567 C   0  0  0  0  0  0  0  0  0  0  0  0
    8.3742  -17.7990   23.4701 O   0  0  0  0  0  0  0  0  0  0  0  0
    7.9458  -14.5751   20.0136 C   0  0  0  0  0  0  0  0  0  0  0  0
    8.3036  -13.6601   21.2103 C   0  0  2  0  0  0  0  0  0  0  0  0
    8.5493  -12.2701   20.6680 C   0  0  0  0  0  0  0  0  0  0  0  0
    9.5572  -14.2048   21.7685 C   0  0  0  0  0  0  0  0  0  0  0  0
    9.5026  -15.5498   22.4288 C   0  0  2  0  0  0  0  0  0  0  0  0
    8.1564  -15.5701   23.0488 N   0  0  0  0  0  0  0  0  0  0  0  0
   10.5239  -15.5839   23.5142 C   0  0  0  0  0  0  0  0  0  0  0  0
   11.7687  -15.5044   23.2151 O   0  0  0  0  0  0  0  0  0  0  0  0
   11.7650  -15.7065   28.3183 C   0  0  0  0  0  0  0  0  0  0  0  0
   10.7204  -15.5695   27.2587 C   0  0  1  0  0  0  0  0  0  0  0  0
   10.2535  -14.1142   27.2471 C   0  0  0  0  0  0  0  0  0  0  0  0
   11.3035  -15.8219   25.8769 C   0  0  2  0  0  0  0  0  0  0  0  0
   10.2475  -15.6951   24.8891 N   0  0  0  0  0  0  0  0  0  0  0  0
   11.9701  -17.1380   25.8107 C   0  0  0  0  0  0  0  0  0  0  0  0
   13.2275  -17.3000   26.3738 O   0  0  0  0  0  0  0  0  0  0  0  0
   11.4699  -18.1565   25.2652 O   0  0  0  0  0  0  0  0  0  0  0  0
  2  1  1  1
  2 13  1  0
  2  3  1  0
  4  3  1  0
  4  5  2  0
  6  5  1  0
  7  6  1  0
  8  7  2  0
  9  8  1  0
 10  9  2  0
 10 11  1  0
 11 12  2  0
 12  7  1  0
 12  4  1  0
 13 14  2  0
 16 15  1  6
 17 16  1  0
 18 16  1  0
 19 18  1  1
 20 19  1  0
 20 13  1  0
 21 22  2  0
 21 19  1  0
 24 23  1  1
 24 26  1  0
 25 24  1  0
 26 28  1  0
 26 27  1  6
 27 21  1  0
 28 29  1  0
 30 28  2  0
M  END
$$$$
