WLV.pdb
     RDKit          3D

 30 31  0  0  1  0  0  0  0  0999 V2000
    5.8891  -18.2938   24.5351 N   0  0  0  0  0  0  0  0  0  0  0  0
    6.3945  -16.9616   24.6328 C   0  0  1  0  0  0  0  0  0  0  0  0
    6.5716  -16.4262   26.0089 C   0  0  0  0  0  0  0  0  0  0  0  0
    5.8595  -15.1411   26.1471 C   0  0  0  0  0  0  0  0  0  0  0  0
    4.4893  -14.9504   26.1510 C   0  0  0  0  0  0  0  0  0  0  0  0
    4.2534  -13.6454   26.3287 N   0  0  0  0  0  0  0  0  0  0  0  0
    5.4147  -12.9715   26.4409 C   0  0  0  0  0  0  0  0  0  0  0  0
    5.6874  -11.6098   26.6281 C   0  0  0  0  0  0  0  0  0  0  0  0
    6.9959  -11.2175   26.6960 C   0  0  0  0  0  0  0  0  0  0  0  0
    7.9927  -12.1525   26.5806 C   0  0  0  0  0  0  0  0  0  0  0  0
    7.7509  -13.4905   26.3973 C   0  0  0  0  0  0  0  0  0  0  0  0
    6.4242  -13.9008   26.3277 C   0  0  0  0  0  0  0  0  0  0  0  0
    7.6805  -16.9222   23.8501 C   0  0  0  0  0  0  0  0  0  0  0  0
    8.4150  -17.9455   23.7225 O   0  0  0  0  0  0  0  0  0  0  0  0
    8.7288  -12.7049   20.2048 C   0  0  0  0  0  0  0  0  0  0  0  0
    8.6010  -14.2100   20.5454 C   0  0  2  0  0  0  0  0  0  0  0  0
    7.1432  -14.4943   20.8288 C   0  0  0  0  0  0  0  0  0  0  0  0
    9.3946  -14.4100   21.7742 C   0  0  0  0  0  0  0  0  0  0  0  0
    9.3698  -15.7677   22.4097 C   0  0  2  0  0  0  0  0  0  0  0  0
    8.1294  -15.7411   23.2208 N   0  0  0  0  0  0  0  0  0  0  0  0
   10.5358  -15.8780   23.3319 C   0  0  0  0  0  0  0  0  0  0  0  0
   11.7170  -16.0013   22.8473 O   0  0  0  0  0  0  0  0  0  0  0  0
   10.6789  -13.9294   26.6474 C   0  0  0  0  0  0  0  0  0  0  0  0
   11.4010  -15.2174   26.8762 C   0  0  1  0  0  0  0  0  0  0  0  0
   10.4794  -16.1342   27.6801 C   0  0  0  0  0  0  0  0  0  0  0  0
   11.6567  -15.9442   25.5649 C   0  0  2  0  0  0  0  0  0  0  0  0
   10.4678  -15.8554   24.7369 N   0  0  0  0  0  0  0  0  0  0  0  0
   12.0654  -17.3435   25.8007 C   0  0  0  0  0  0  0  0  0  0  0  0
   13.2225  -17.6093   26.5182 O   0  0  0  0  0  0  0  0  0  0  0  0
   11.4250  -18.3456   25.3876 O   0  0  0  0  0  0  0  0  0  0  0  0
  2  1  1  1
  2 13  1  0
  2  3  1  0
  4  3  1  0
  4  5  2  0
  6  5  1  0
  7  6  1  0
  8  7  2  0
  9  8  1  0
 10  9  2  0
 10 11  1  0
 11 12  2  0
 12  7  1  0
 12  4  1  0
 13 14  2  0
 16 15  1  1
 17 16  1  0
 18 16  1  0
 19 18  1  1
 20 19  1  0
 20 13  1  0
 21 22  2  0
 21 19  1  0
 24 23  1  6
 24 26  1  0
 25 24  1  0
 26 28  1  0
 26 27  1  6
 27 21  1  0
 28 29  1  0
 30 28  2  0
M  END
$$$$
