WLV.pdb
     RDKit          3D

 30 31  0  0  1  0  0  0  0  0999 V2000
    5.4897  -18.6026   24.3848 N   0  0  0  0  0  0  0  0  0  0  0  0
    6.1334  -17.3355   24.2435 C   0  0  1  0  0  0  0  0  0  0  0  0
    7.0235  -16.9233   25.3614 C   0  0  0  0  0  0  0  0  0  0  0  0
    6.6459  -15.5790   25.8391 C   0  0  0  0  0  0  0  0  0  0  0  0
    5.3751  -15.1458   26.1727 C   0  0  0  0  0  0  0  0  0  0  0  0
    5.4657  -13.8766   26.5863 N   0  0  0  0  0  0  0  0  0  0  0  0
    6.7457  -13.4590   26.5370 C   0  0  0  0  0  0  0  0  0  0  0  0
    7.3377  -12.2296   26.8560 C   0  0  0  0  0  0  0  0  0  0  0  0
    8.6893  -12.1023   26.6903 C   0  0  0  0  0  0  0  0  0  0  0  0
    9.4199  -13.1649   26.2230 C   0  0  0  0  0  0  0  0  0  0  0  0
    8.8635  -14.3778   25.9042 C   0  0  0  0  0  0  0  0  0  0  0  0
    7.4901  -14.5188   26.0698 C   0  0  0  0  0  0  0  0  0  0  0  0
    6.8665  -17.3605   22.9282 C   0  0  0  0  0  0  0  0  0  0  0  0
    7.2550  -18.4445   22.4020 O   0  0  0  0  0  0  0  0  0  0  0  0
    8.8863  -13.4380   21.1999 C   0  0  0  0  0  0  0  0  0  0  0  0
    8.4037  -14.0038   19.8418 C   0  0  2  0  0  0  0  0  0  0  0  0
    7.6847  -12.8923   19.1109 C   0  0  0  0  0  0  0  0  0  0  0  0
    7.4486  -15.0795   20.1742 C   0  0  0  0  0  0  0  0  0  0  0  0
    7.9556  -16.2433   20.9720 C   0  0  2  0  0  0  0  0  0  0  0  0
    7.1564  -16.1753   22.2184 N   0  0  0  0  0  0  0  0  0  0  0  0
    9.3854  -15.9943   21.3126 C   0  0  0  0  0  0  0  0  0  0  0  0
   10.2499  -15.8806   20.3719 O   0  0  0  0  0  0  0  0  0  0  0  0
   10.8821  -14.0191   24.3816 C   0  0  0  0  0  0  0  0  0  0  0  0
   11.6101  -15.3161   24.2383 C   0  0  1  0  0  0  0  0  0  0  0  0
   11.0537  -16.2830   25.2831 C   0  0  0  0  0  0  0  0  0  0  0  0
   11.3227  -15.9613   22.8914 C   0  0  2  0  0  0  0  0  0  0  0  0
    9.9012  -15.8625   22.6147 N   0  0  0  0  0  0  0  0  0  0  0  0
   11.7990  -17.3587   22.8561 C   0  0  0  0  0  0  0  0  0  0  0  0
   10.8804  -18.3957   22.7851 O   0  0  0  0  0  0  0  0  0  0  0  0
   13.0127  -17.6923   22.8867 O   0  0  0  0  0  0  0  0  0  0  0  0
  2  1  1  1
  2 13  1  0
  2  3  1  0
  4  3  1  0
  4  5  2  0
  6  5  1  0
  7  6  1  0
  8  7  2  0
  9  8  1  0
 10  9  2  0
 10 11  1  0
 11 12  2  0
 12  7  1  0
 12  4  1  0
 13 14  2  0
 16 15  1  1
 17 16  1  0
 18 16  1  0
 19 18  1  6
 20 19  1  0
 20 13  1  0
 21 22  2  0
 21 19  1  0
 24 23  1  6
 24 26  1  0
 25 24  1  0
 26 28  1  0
 26 27  1  1
 27 21  1  0
 28 29  1  0
 30 28  2  0
M  END
$$$$
