WLV.pdb
     RDKit          3D

 30 31  0  0  1  0  0  0  0  0999 V2000
    6.8715  -18.2187   25.5552 N   0  0  0  0  0  0  0  0  0  0  0  0
    6.4302  -17.4357   24.4452 C   0  0  1  0  0  0  0  0  0  0  0  0
    5.7351  -16.1629   24.7750 C   0  0  0  0  0  0  0  0  0  0  0  0
    6.5015  -15.4170   25.7919 C   0  0  0  0  0  0  0  0  0  0  0  0
    7.4582  -15.9309   26.6489 C   0  0  0  0  0  0  0  0  0  0  0  0
    7.9339  -14.9237   27.3901 N   0  0  0  0  0  0  0  0  0  0  0  0
    7.3268  -13.7687   27.0541 C   0  0  0  0  0  0  0  0  0  0  0  0
    7.4736  -12.4629   27.5409 C   0  0  0  0  0  0  0  0  0  0  0  0
    6.6943  -11.4800   26.9958 C   0  0  0  0  0  0  0  0  0  0  0  0
    5.8024  -11.7925   26.0018 C   0  0  0  0  0  0  0  0  0  0  0  0
    5.6408  -13.0625   25.5087 C   0  0  0  0  0  0  0  0  0  0  0  0
    6.4287  -14.0697   26.0549 C   0  0  0  0  0  0  0  0  0  0  0  0
    7.6317  -17.2030   23.5677 C   0  0  0  0  0  0  0  0  0  0  0  0
    8.3647  -18.1573   23.1740 O   0  0  0  0  0  0  0  0  0  0  0  0
    7.5287  -14.8110   19.9748 C   0  0  0  0  0  0  0  0  0  0  0  0
    7.7364  -13.9706   21.2586 C   0  0  2  0  0  0  0  0  0  0  0  0
    7.7373  -12.5126   20.8577 C   0  0  0  0  0  0  0  0  0  0  0  0
    9.0692  -14.3464   21.7705 C   0  0  0  0  0  0  0  0  0  0  0  0
    9.2356  -15.7208   22.3462 C   0  0  2  0  0  0  0  0  0  0  0  0
    7.9991  -15.9082   23.1419 N   0  0  0  0  0  0  0  0  0  0  0  0
   10.3995  -15.7042   23.2774 C   0  0  0  0  0  0  0  0  0  0  0  0
   11.5715  -15.4512   22.8216 O   0  0  0  0  0  0  0  0  0  0  0  0
   12.2477  -15.4360   27.8491 C   0  0  0  0  0  0  0  0  0  0  0  0
   11.0758  -15.5083   26.9250 C   0  0  1  0  0  0  0  0  0  0  0  0
   10.4644  -14.1104   26.8343 C   0  0  0  0  0  0  0  0  0  0  0  0
   11.5127  -15.8550   25.5101 C   0  0  2  0  0  0  0  0  0  0  0  0
   10.3379  -15.9440   24.6622 N   0  0  0  0  0  0  0  0  0  0  0  0
   12.3095  -17.0982   25.4866 C   0  0  0  0  0  0  0  0  0  0  0  0
   13.5390  -17.1379   26.1276 O   0  0  0  0  0  0  0  0  0  0  0  0
   11.9479  -18.1581   24.9114 O   0  0  0  0  0  0  0  0  0  0  0  0
  2  1  1  1
  2 13  1  0
  2  3  1  0
  4  3  1  0
  4  5  2  0
  6  5  1  0
  7  6  1  0
  8  7  2  0
  9  8  1  0
 10  9  2  0
 10 11  1  0
 11 12  2  0
 12  7  1  0
 12  4  1  0
 13 14  2  0
 16 15  1  6
 17 16  1  0
 18 16  1  0
 19 18  1  1
 20 19  1  0
 20 13  1  0
 21 22  2  0
 21 19  1  0
 24 23  1  1
 24 26  1  0
 25 24  1  0
 26 28  1  0
 26 27  1  6
 27 21  1  0
 28 29  1  0
 30 28  2  0
M  END
$$$$
