WLV.pdb
     RDKit          3D

 30 31  0  0  1  0  0  0  0  0999 V2000
   10.7854  -17.2570   21.8906 N   0  0  0  0  0  0  0  0  0  0  0  0
    9.6743  -16.3653   21.9914 C   0  0  1  0  0  0  0  0  0  0  0  0
    8.3442  -16.9321   21.6428 C   0  0  0  0  0  0  0  0  0  0  0  0
    7.7024  -16.1104   20.5985 C   0  0  0  0  0  0  0  0  0  0  0  0
    6.9725  -16.5692   19.5165 C   0  0  0  0  0  0  0  0  0  0  0  0
    6.5390  -15.5065   18.8290 N   0  0  0  0  0  0  0  0  0  0  0  0
    6.9559  -14.3678   19.4163 C   0  0  0  0  0  0  0  0  0  0  0  0
    6.7682  -13.0213   19.0767 C   0  0  0  0  0  0  0  0  0  0  0  0
    7.3332  -12.0689   19.8794 C   0  0  0  0  0  0  0  0  0  0  0  0
    8.0584  -12.4501   20.9793 C   0  0  0  0  0  0  0  0  0  0  0  0
    8.2558  -13.7610   21.3324 C   0  0  0  0  0  0  0  0  0  0  0  0
    7.6850  -14.7379   20.5240 C   0  0  0  0  0  0  0  0  0  0  0  0
    9.6905  -15.8009   23.3875 C   0  0  0  0  0  0  0  0  0  0  0  0
   10.7018  -15.9144   24.1408 O   0  0  0  0  0  0  0  0  0  0  0  0
    5.7669  -12.3313   26.4785 C   0  0  0  0  0  0  0  0  0  0  0  0
    7.1586  -12.9894   26.6446 C   0  0  2  0  0  0  0  0  0  0  0  0
    8.1721  -11.8814   26.8224 C   0  0  0  0  0  0  0  0  0  0  0  0
    7.4174  -13.7013   25.3773 C   0  0  0  0  0  0  0  0  0  0  0  0
    8.6616  -14.5326   25.2833 C   0  0  2  0  0  0  0  0  0  0  0  0
    8.5778  -15.1178   23.9240 N   0  0  0  0  0  0  0  0  0  0  0  0
    8.5674  -15.6367   26.2804 C   0  0  0  0  0  0  0  0  0  0  0  0
    8.7035  -15.3757   27.5289 O   0  0  0  0  0  0  0  0  0  0  0  0
    6.3467  -18.9066   25.8334 C   0  0  0  0  0  0  0  0  0  0  0  0
    7.6527  -19.2602   26.4674 C   0  0  1  0  0  0  0  0  0  0  0  0
    8.5666  -19.8182   25.3767 C   0  0  0  0  0  0  0  0  0  0  0  0
    8.3591  -18.0219   26.9973 C   0  0  2  0  0  0  0  0  0  0  0  0
    8.3307  -16.9898   25.9771 N   0  0  0  0  0  0  0  0  0  0  0  0
    9.7355  -18.3364   27.4303 C   0  0  0  0  0  0  0  0  0  0  0  0
    9.9411  -19.2393   28.4632 O   0  0  0  0  0  0  0  0  0  0  0  0
   10.7695  -17.8323   26.9186 O   0  0  0  0  0  0  0  0  0  0  0  0
  2  1  1  1
  2 13  1  0
  2  3  1  0
  4  3  1  0
  4  5  2  0
  6  5  1  0
  7  6  1  0
  8  7  2  0
  9  8  1  0
 10  9  2  0
 10 11  1  0
 11 12  2  0
 12  7  1  0
 12  4  1  0
 13 14  2  0
 16 15  1  6
 17 16  1  0
 18 16  1  0
 19 18  1  1
 20 19  1  0
 20 13  1  0
 21 22  2  0
 21 19  1  0
 24 23  1  6
 24 26  1  0
 25 24  1  0
 26 28  1  0
 26 27  1  6
 27 21  1  0
 28 29  1  0
 30 28  2  0
M  END
$$$$
