PLW.pdb
     RDKit          3D

 30 32  0  0  1  0  0  0  0  0999 V2000
   27.2463  -18.1783  -16.8142 N   0  0  0  0  0  0  0  0  0  0  0  0
   28.1824  -17.1883  -16.3960 C   0  0  0  0  0  0  0  0  0  0  0  0
   29.2392  -17.8993  -15.6154 C   0  0  0  0  0  0  0  0  0  0  0  0
   28.7878  -19.3307  -15.5059 C   0  0  0  0  0  0  0  0  0  0  0  0
   27.3192  -19.3183  -15.9547 C   0  0  1  0  0  0  0  0  0  0  0  0
   26.5121  -19.2271  -14.7209 C   0  0  0  0  0  0  0  0  0  0  0  0
   26.1523  -18.0547  -14.3715 O   0  0  0  0  0  0  0  0  0  0  0  0
   22.3925  -18.8963  -13.9800 C   0  0  0  0  0  0  0  0  0  0  0  0
   23.1559  -20.0524  -14.6673 C   0  0  2  0  0  0  0  0  0  0  0  0
   22.1219  -20.9559  -15.3122 C   0  0  0  0  0  0  0  0  0  0  0  0
   23.8425  -20.8307  -13.5834 C   0  0  0  0  0  0  0  0  0  0  0  0
   24.9940  -20.1536  -12.9173 C   0  0  2  0  0  0  0  0  0  0  0  0
   26.1038  -20.2773  -13.9020 N   0  0  0  0  0  0  0  0  0  0  0  0
   25.4167  -20.7398  -11.6349 C   0  0  0  0  0  0  0  0  0  0  0  0
   25.8261  -21.9483  -11.6520 O   0  0  0  0  0  0  0  0  0  0  0  0
   25.4161  -20.0961  -10.3920 N   0  0  0  0  0  0  0  0  0  0  0  0
   25.7755  -20.7801   -9.1397 C   0  0  1  0  0  0  0  0  0  0  0  0
   26.8419  -19.9657   -8.4959 C   0  0  0  0  0  0  0  0  0  0  0  0
   27.2396  -20.3332   -7.1329 C   0  0  0  0  0  0  0  0  0  0  0  0
   26.8017  -21.4955   -6.4907 C   0  0  0  0  0  0  0  0  0  0  0  0
   27.3208  -21.5083   -5.2656 N   0  0  0  0  0  0  0  0  0  0  0  0
   28.0809  -20.4270   -5.0455 C   0  0  0  0  0  0  0  0  0  0  0  0
   28.8261  -20.0123   -3.9487 C   0  0  0  0  0  0  0  0  0  0  0  0
   29.5183  -18.8298   -4.0754 C   0  0  0  0  0  0  0  0  0  0  0  0
   29.4909  -18.0713   -5.2279 C   0  0  0  0  0  0  0  0  0  0  0  0
   28.7493  -18.4991   -6.2969 C   0  0  0  0  0  0  0  0  0  0  0  0
   28.0380  -19.6844   -6.2069 C   0  0  0  0  0  0  0  0  0  0  0  0
   24.5907  -21.0209   -8.3119 C   0  0  0  0  0  0  0  0  0  0  0  0
   24.5093  -21.9763   -7.3120 O   0  0  0  0  0  0  0  0  0  0  0  0
   23.5114  -20.3429   -8.4676 O   0  0  0  0  0  0  0  0  0  0  0  0
  1  2  1  0
  3  2  1  0
  4  5  1  0
  4  3  1  0
  5  1  1  0
  5  6  1  1
  7  6  2  0
  9  8  1  1
  9 11  1  0
 10  9  1  0
 12 11  1  6
 12 14  1  0
 12 13  1  0
 13  6  1  0
 14 15  2  0
 16 14  1  0
 16 17  1  0
 17 18  1  1
 19 18  1  0
 20 19  2  0
 21 20  1  0
 22 21  1  0
 22 27  2  0
 23 22  1  0
 24 23  2  0
 24 25  1  0
 25 26  2  0
 26 27  1  0
 27 19  1  0
 28 29  1  0
 28 17  1  0
 30 28  2  0
M  END
$$$$
