PLW.pdb
     RDKit          3D

 30 32  0  0  1  0  0  0  0  0999 V2000
   28.5181  -19.3700  -13.2080 N   0  0  0  0  0  0  0  0  0  0  0  0
   29.7935  -19.5994  -12.6145 C   0  0  0  0  0  0  0  0  0  0  0  0
   30.2083  -20.9794  -13.0085 C   0  0  0  0  0  0  0  0  0  0  0  0
   29.0432  -21.5699  -13.7560 C   0  0  0  0  0  0  0  0  0  0  0  0
   27.8719  -20.6153  -13.4818 C   0  0  1  0  0  0  0  0  0  0  0  0
   27.1231  -21.1967  -12.3489 C   0  0  0  0  0  0  0  0  0  0  0  0
   26.6780  -22.3795  -12.5190 O   0  0  0  0  0  0  0  0  0  0  0  0
   26.9006  -21.7561   -7.7501 C   0  0  0  0  0  0  0  0  0  0  0  0
   27.0297  -20.3262   -8.3248 C   0  0  2  0  0  0  0  0  0  0  0  0
   27.0708  -19.3688   -7.1488 C   0  0  0  0  0  0  0  0  0  0  0  0
   25.7771  -20.0518   -9.1045 C   0  0  0  0  0  0  0  0  0  0  0  0
   25.5975  -20.8416  -10.3583 C   0  0  2  0  0  0  0  0  0  0  0  0
   26.8519  -20.5962  -11.1217 N   0  0  0  0  0  0  0  0  0  0  0  0
   24.4430  -20.4585  -11.1873 C   0  0  0  0  0  0  0  0  0  0  0  0
   24.2672  -19.2133  -11.4037 O   0  0  0  0  0  0  0  0  0  0  0  0
   23.5158  -21.3322  -11.7669 N   0  0  0  0  0  0  0  0  0  0  0  0
   22.3713  -20.8652  -12.5651 C   0  0  1  0  0  0  0  0  0  0  0  0
   22.4639  -21.5432  -13.8868 C   0  0  0  0  0  0  0  0  0  0  0  0
   21.3675  -21.3219  -14.8355 C   0  0  0  0  0  0  0  0  0  0  0  0
   20.8771  -20.0540  -15.1625 C   0  0  0  0  0  0  0  0  0  0  0  0
   19.8723  -20.2109  -16.0206 N   0  0  0  0  0  0  0  0  0  0  0  0
   19.6580  -21.5057  -16.2908 C   0  0  0  0  0  0  0  0  0  0  0  0
   18.7502  -22.1526  -17.1199 C   0  0  0  0  0  0  0  0  0  0  0  0
   18.8225  -23.5257  -17.1737 C   0  0  0  0  0  0  0  0  0  0  0  0
   19.7449  -24.2514  -16.4477 C   0  0  0  0  0  0  0  0  0  0  0  0
   20.6301  -23.5929  -15.6364 C   0  0  0  0  0  0  0  0  0  0  0  0
   20.5876  -22.2106  -15.5552 C   0  0  0  0  0  0  0  0  0  0  0  0
   21.1100  -21.0692  -11.8477 C   0  0  0  0  0  0  0  0  0  0  0  0
   20.8153  -22.1788  -11.0726 O   0  0  0  0  0  0  0  0  0  0  0  0
   20.1606  -20.2061  -11.8964 O   0  0  0  0  0  0  0  0  0  0  0  0
  1  2  1  0
  3  2  1  0
  4  5  1  0
  4  3  1  0
  5  1  1  0
  5  6  1  1
  7  6  2  0
  9  8  1  1
  9 11  1  0
 10  9  1  0
 12 11  1  1
 12 14  1  0
 12 13  1  0
 13  6  1  0
 14 15  2  0
 16 14  1  0
 16 17  1  0
 17 18  1  6
 19 18  1  0
 20 19  2  0
 21 20  1  0
 22 21  1  0
 22 27  2  0
 23 22  1  0
 24 23  2  0
 24 25  1  0
 25 26  2  0
 26 27  1  0
 27 19  1  0
 28 29  1  0
 28 17  1  0
 30 28  2  0
M  END
$$$$
