PLW.pdb
     RDKit          3D

 30 32  0  0  1  0  0  0  0  0999 V2000
   27.4879  -19.2325  -13.8512 N   0  0  0  0  0  0  0  0  0  0  0  0
   28.8447  -19.2006  -13.4160 C   0  0  0  0  0  0  0  0  0  0  0  0
   29.4365  -20.5289  -13.7578 C   0  0  0  0  0  0  0  0  0  0  0  0
   28.3075  -21.3640  -14.2990 C   0  0  0  0  0  0  0  0  0  0  0  0
   27.0329  -20.5845  -13.9441 C   0  0  1  0  0  0  0  0  0  0  0  0
   26.5319  -21.1666  -12.6823 C   0  0  0  0  0  0  0  0  0  0  0  0
   26.2679  -22.4140  -12.7061 O   0  0  0  0  0  0  0  0  0  0  0  0
   27.8937  -21.4083   -8.8900 C   0  0  0  0  0  0  0  0  0  0  0  0
   27.2162  -20.0280   -9.0554 C   0  0  2  0  0  0  0  0  0  0  0  0
   27.4317  -19.2614   -7.7642 C   0  0  0  0  0  0  0  0  0  0  0  0
   25.7442  -20.2770   -9.2085 C   0  0  0  0  0  0  0  0  0  0  0  0
   25.3208  -20.9583  -10.4674 C   0  0  2  0  0  0  0  0  0  0  0  0
   26.3175  -20.5043  -11.4758 N   0  0  0  0  0  0  0  0  0  0  0  0
   23.9670  -20.6272  -10.9411 C   0  0  0  0  0  0  0  0  0  0  0  0
   23.4300  -19.5659  -10.4790 O   0  0  0  0  0  0  0  0  0  0  0  0
   23.2083  -21.3658  -11.8564 N   0  0  0  0  0  0  0  0  0  0  0  0
   22.0888  -20.7862  -12.6154 C   0  0  1  0  0  0  0  0  0  0  0  0
   22.6720  -19.7690  -13.5320 C   0  0  0  0  0  0  0  0  0  0  0  0
   21.7568  -19.0926  -14.4572 C   0  0  0  0  0  0  0  0  0  0  0  0
   20.4784  -18.6578  -14.0943 C   0  0  0  0  0  0  0  0  0  0  0  0
   19.9079  -18.1178  -15.1683 N   0  0  0  0  0  0  0  0  0  0  0  0
   20.7243  -18.1623  -16.2299 C   0  0  0  0  0  0  0  0  0  0  0  0
   20.5842  -17.7204  -17.5396 C   0  0  0  0  0  0  0  0  0  0  0  0
   21.6544  -17.9156  -18.3821 C   0  0  0  0  0  0  0  0  0  0  0  0
   22.8250  -18.5198  -17.9707 C   0  0  0  0  0  0  0  0  0  0  0  0
   22.9411  -18.9481  -16.6751 C   0  0  0  0  0  0  0  0  0  0  0  0
   21.8843  -18.7698  -15.7971 C   0  0  0  0  0  0  0  0  0  0  0  0
   21.2973  -21.8320  -13.2686 C   0  0  0  0  0  0  0  0  0  0  0  0
   19.9382  -21.7481  -13.5231 O   0  0  0  0  0  0  0  0  0  0  0  0
   21.8284  -22.9348  -13.6565 O   0  0  0  0  0  0  0  0  0  0  0  0
  1  2  1  0
  3  2  1  0
  4  5  1  0
  4  3  1  0
  5  1  1  0
  5  6  1  1
  7  6  2  0
  9  8  1  1
  9 11  1  0
 10  9  1  0
 12 11  1  1
 12 14  1  0
 12 13  1  0
 13  6  1  0
 14 15  2  0
 16 14  1  0
 16 17  1  0
 17 18  1  6
 19 18  1  0
 20 19  2  0
 21 20  1  0
 22 21  1  0
 22 27  2  0
 23 22  1  0
 24 23  2  0
 24 25  1  0
 25 26  2  0
 26 27  1  0
 27 19  1  0
 28 29  1  0
 28 17  1  0
 30 28  2  0
M  END
$$$$
