PLW.pdb
     RDKit          3D

 30 32  0  0  1  0  0  0  0  0999 V2000
   27.4670  -19.2215  -14.3361 N   0  0  0  0  0  0  0  0  0  0  0  0
   28.6637  -19.1349  -13.5668 C   0  0  0  0  0  0  0  0  0  0  0  0
   29.3832  -20.4319  -13.7448 C   0  0  0  0  0  0  0  0  0  0  0  0
   28.4703  -21.3096  -14.5577 C   0  0  0  0  0  0  0  0  0  0  0  0
   27.1131  -20.5911  -14.5425 C   0  0  1  0  0  0  0  0  0  0  0  0
   26.3319  -21.2092  -13.4517 C   0  0  0  0  0  0  0  0  0  0  0  0
   25.9838  -22.4230  -13.6294 O   0  0  0  0  0  0  0  0  0  0  0  0
   27.2788  -21.5344   -9.4771 C   0  0  0  0  0  0  0  0  0  0  0  0
   26.5514  -20.1905   -9.7148 C   0  0  2  0  0  0  0  0  0  0  0  0
   26.5612  -19.4329   -8.4006 C   0  0  0  0  0  0  0  0  0  0  0  0
   25.1261  -20.5167  -10.0532 C   0  0  0  0  0  0  0  0  0  0  0  0
   24.9013  -21.1994  -11.3615 C   0  0  2  0  0  0  0  0  0  0  0  0
   25.9363  -20.6130  -12.2566 N   0  0  0  0  0  0  0  0  0  0  0  0
   23.5719  -20.9970  -11.9602 C   0  0  0  0  0  0  0  0  0  0  0  0
   22.7236  -20.3242  -11.2848 O   0  0  0  0  0  0  0  0  0  0  0  0
   23.1462  -21.4708  -13.2065 N   0  0  0  0  0  0  0  0  0  0  0  0
   21.8036  -21.2022  -13.7455 C   0  0  1  0  0  0  0  0  0  0  0  0
   21.7777  -19.7673  -14.1395 C   0  0  0  0  0  0  0  0  0  0  0  0
   20.7947  -19.3641  -15.1506 C   0  0  0  0  0  0  0  0  0  0  0  0
   21.1456  -18.8710  -16.4111 C   0  0  0  0  0  0  0  0  0  0  0  0
   20.0241  -18.5749  -17.0631 N   0  0  0  0  0  0  0  0  0  0  0  0
   18.9417  -18.8394  -16.3188 C   0  0  0  0  0  0  0  0  0  0  0  0
   17.5803  -18.7137  -16.5661 C   0  0  0  0  0  0  0  0  0  0  0  0
   16.7248  -19.1056  -15.5622 C   0  0  0  0  0  0  0  0  0  0  0  0
   17.1720  -19.6043  -14.3557 C   0  0  0  0  0  0  0  0  0  0  0  0
   18.5185  -19.7192  -14.1333 C   0  0  0  0  0  0  0  0  0  0  0  0
   19.4112  -19.3340  -15.1201 C   0  0  0  0  0  0  0  0  0  0  0  0
   21.4654  -22.1472  -14.8130 C   0  0  0  0  0  0  0  0  0  0  0  0
   20.1752  -22.5049  -15.1688 O   0  0  0  0  0  0  0  0  0  0  0  0
   22.3735  -22.7299  -15.5089 O   0  0  0  0  0  0  0  0  0  0  0  0
  1  2  1  0
  3  2  1  0
  4  5  1  0
  4  3  1  0
  5  1  1  0
  5  6  1  1
  7  6  2  0
  9  8  1  1
  9 11  1  0
 10  9  1  0
 12 11  1  1
 12 14  1  0
 12 13  1  0
 13  6  1  0
 14 15  2  0
 16 14  1  0
 16 17  1  0
 17 18  1  6
 19 18  1  0
 20 19  2  0
 21 20  1  0
 22 21  1  0
 22 27  2  0
 23 22  1  0
 24 23  2  0
 24 25  1  0
 25 26  2  0
 26 27  1  0
 27 19  1  0
 28 29  1  0
 28 17  1  0
 30 28  2  0
M  END
$$$$
