PLW.pdb
     RDKit          3D

 30 32  0  0  1  0  0  0  0  0999 V2000
   28.1993  -20.6280  -14.5486 N   0  0  0  0  0  0  0  0  0  0  0  0
   27.2295  -20.6878  -15.5913 C   0  0  0  0  0  0  0  0  0  0  0  0
   26.3819  -19.4647  -15.4599 C   0  0  0  0  0  0  0  0  0  0  0  0
   26.8436  -18.7672  -14.2088 C   0  0  0  0  0  0  0  0  0  0  0  0
   27.7295  -19.7934  -13.4873 C   0  0  1  0  0  0  0  0  0  0  0  0
   26.8613  -20.4642  -12.4982 C   0  0  0  0  0  0  0  0  0  0  0  0
   26.4179  -21.6131  -12.8291 O   0  0  0  0  0  0  0  0  0  0  0  0
   27.8567  -21.2712   -8.2364 C   0  0  0  0  0  0  0  0  0  0  0  0
   27.2780  -19.8743   -8.5607 C   0  0  2  0  0  0  0  0  0  0  0  0
   27.2740  -19.0764   -7.2705 C   0  0  0  0  0  0  0  0  0  0  0  0
   25.8533  -20.0773   -8.9866 C   0  0  0  0  0  0  0  0  0  0  0  0
   25.6508  -20.7684  -10.2941 C   0  0  2  0  0  0  0  0  0  0  0  0
   26.4764  -19.9804  -11.2501 N   0  0  0  0  0  0  0  0  0  0  0  0
   24.2610  -20.8134  -10.7770 C   0  0  0  0  0  0  0  0  0  0  0  0
   23.3799  -21.2759   -9.9781 O   0  0  0  0  0  0  0  0  0  0  0  0
   23.8087  -20.3932  -12.0331 N   0  0  0  0  0  0  0  0  0  0  0  0
   22.3935  -20.4526  -12.4319 C   0  0  1  0  0  0  0  0  0  0  0  0
   22.1188  -19.2243  -13.2261 C   0  0  0  0  0  0  0  0  0  0  0  0
   22.7006  -19.1472  -14.5702 C   0  0  0  0  0  0  0  0  0  0  0  0
   23.7706  -18.3092  -14.8985 C   0  0  0  0  0  0  0  0  0  0  0  0
   24.0282  -18.4605  -16.1951 N   0  0  0  0  0  0  0  0  0  0  0  0
   23.1978  -19.3490  -16.7579 C   0  0  0  0  0  0  0  0  0  0  0  0
   23.0881  -19.8402  -18.0528 C   0  0  0  0  0  0  0  0  0  0  0  0
   22.1108  -20.7811  -18.2828 C   0  0  0  0  0  0  0  0  0  0  0  0
   21.2650  -21.2335  -17.2906 C   0  0  0  0  0  0  0  0  0  0  0  0
   21.3908  -20.7352  -16.0211 C   0  0  0  0  0  0  0  0  0  0  0  0
   22.3627  -19.7857  -15.7509 C   0  0  0  0  0  0  0  0  0  0  0  0
   22.0901  -21.7146  -13.1119 C   0  0  0  0  0  0  0  0  0  0  0  0
   23.0396  -22.6335  -13.5277 O   0  0  0  0  0  0  0  0  0  0  0  0
   20.8833  -22.0611  -13.3810 O   0  0  0  0  0  0  0  0  0  0  0  0
  1  2  1  0
  3  2  1  0
  4  5  1  0
  4  3  1  0
  5  1  1  0
  5  6  1  1
  7  6  2  0
  9  8  1  1
  9 11  1  0
 10  9  1  0
 12 11  1  1
 12 14  1  0
 12 13  1  0
 13  6  1  0
 14 15  2  0
 16 14  1  0
 16 17  1  0
 17 18  1  6
 19 18  1  0
 20 19  2  0
 21 20  1  0
 22 21  1  0
 22 27  2  0
 23 22  1  0
 24 23  2  0
 24 25  1  0
 25 26  2  0
 26 27  1  0
 27 19  1  0
 28 29  1  0
 28 17  1  0
 30 28  2  0
M  END
$$$$
