PLW.pdb
     RDKit          3D

 30 32  0  0  1  0  0  0  0  0999 V2000
   28.6925  -20.2117  -14.4009 N   0  0  0  0  0  0  0  0  0  0  0  0
   27.8303  -19.9954  -15.5149 C   0  0  0  0  0  0  0  0  0  0  0  0
   27.0840  -18.7307  -15.2409 C   0  0  0  0  0  0  0  0  0  0  0  0
   27.4774  -18.3043  -13.8522 C   0  0  0  0  0  0  0  0  0  0  0  0
   28.1937  -19.5229  -13.2519 C   0  0  1  0  0  0  0  0  0  0  0  0
   27.1757  -20.2566  -12.4726 C   0  0  0  0  0  0  0  0  0  0  0  0
   26.7237  -21.3236  -13.0048 O   0  0  0  0  0  0  0  0  0  0  0  0
   27.9095  -21.2929   -8.5831 C   0  0  0  0  0  0  0  0  0  0  0  0
   27.1131  -19.9681   -8.6298 C   0  0  2  0  0  0  0  0  0  0  0  0
   27.0102  -19.4525   -7.2068 C   0  0  0  0  0  0  0  0  0  0  0  0
   25.7295  -20.3041   -9.1041 C   0  0  0  0  0  0  0  0  0  0  0  0
   25.6057  -20.7060  -10.5363 C   0  0  2  0  0  0  0  0  0  0  0  0
   26.6587  -19.9112  -11.2262 N   0  0  0  0  0  0  0  0  0  0  0  0
   24.3019  -20.4281  -11.1607 C   0  0  0  0  0  0  0  0  0  0  0  0
   23.6998  -19.3608  -10.8049 O   0  0  0  0  0  0  0  0  0  0  0  0
   23.6562  -21.2236  -12.1142 N   0  0  0  0  0  0  0  0  0  0  0  0
   22.4181  -20.8084  -12.7924 C   0  0  1  0  0  0  0  0  0  0  0  0
   22.6820  -20.8871  -14.2550 C   0  0  0  0  0  0  0  0  0  0  0  0
   21.5720  -20.5654  -15.1580 C   0  0  0  0  0  0  0  0  0  0  0  0
   21.1181  -19.2626  -15.3854 C   0  0  0  0  0  0  0  0  0  0  0  0
   20.0887  -19.3272  -16.2261 N   0  0  0  0  0  0  0  0  0  0  0  0
   19.8236  -20.5927  -16.5780 C   0  0  0  0  0  0  0  0  0  0  0  0
   18.8749  -21.1510  -17.4256 C   0  0  0  0  0  0  0  0  0  0  0  0
   18.8987  -22.5187  -17.5743 C   0  0  0  0  0  0  0  0  0  0  0  0
   19.8122  -23.3224  -16.9232 C   0  0  0  0  0  0  0  0  0  0  0  0
   20.7384  -22.7506  -16.0921 C   0  0  0  0  0  0  0  0  0  0  0  0
   20.7454  -21.3765  -15.9162 C   0  0  0  0  0  0  0  0  0  0  0  0
   21.2720  -21.5918  -12.3235 C   0  0  0  0  0  0  0  0  0  0  0  0
   19.9539  -21.1690  -12.3773 O   0  0  0  0  0  0  0  0  0  0  0  0
   21.4195  -22.7591  -11.8096 O   0  0  0  0  0  0  0  0  0  0  0  0
  1  2  1  0
  3  2  1  0
  4  5  1  0
  4  3  1  0
  5  1  1  0
  5  6  1  6
  7  6  2  0
  9  8  1  1
  9 11  1  0
 10  9  1  0
 12 11  1  1
 12 14  1  0
 12 13  1  0
 13  6  1  0
 14 15  2  0
 16 14  1  0
 16 17  1  0
 17 18  1  6
 19 18  1  0
 20 19  2  0
 21 20  1  0
 22 21  1  0
 22 27  2  0
 23 22  1  0
 24 23  2  0
 24 25  1  0
 25 26  2  0
 26 27  1  0
 27 19  1  0
 28 29  1  0
 28 17  1  0
 30 28  2  0
M  END
$$$$
