PLW.pdb
     RDKit          3D

 30 32  0  0  1  0  0  0  0  0999 V2000
   25.5603  -17.4048  -13.4696 N   0  0  0  0  0  0  0  0  0  0  0  0
   26.4326  -16.7789  -14.4070 C   0  0  0  0  0  0  0  0  0  0  0  0
   25.9239  -17.1294  -15.7671 C   0  0  0  0  0  0  0  0  0  0  0  0
   24.7868  -18.0920  -15.5541 C   0  0  0  0  0  0  0  0  0  0  0  0
   24.8943  -18.5121  -14.0810 C   0  0  1  0  0  0  0  0  0  0  0  0
   25.6478  -19.7827  -14.0689 C   0  0  0  0  0  0  0  0  0  0  0  0
   25.1837  -20.7168  -14.8024 O   0  0  0  0  0  0  0  0  0  0  0  0
   29.0837  -19.2771  -14.0271 C   0  0  0  0  0  0  0  0  0  0  0  0
   29.2822  -20.0308  -12.6913 C   0  0  2  0  0  0  0  0  0  0  0  0
   30.7759  -20.1963  -12.4838 C   0  0  0  0  0  0  0  0  0  0  0  0
   28.6825  -21.3956  -12.8639 C   0  0  0  0  0  0  0  0  0  0  0  0
   27.1936  -21.4520  -12.9554 C   0  0  2  0  0  0  0  0  0  0  0  0
   26.8039  -20.0695  -13.3468 N   0  0  0  0  0  0  0  0  0  0  0  0
   26.4970  -21.8180  -11.7115 C   0  0  0  0  0  0  0  0  0  0  0  0
   26.4231  -23.0598  -11.4272 O   0  0  0  0  0  0  0  0  0  0  0  0
   25.9068  -20.9313  -10.8034 N   0  0  0  0  0  0  0  0  0  0  0  0
   25.2576  -21.3776   -9.5606 C   0  0  1  0  0  0  0  0  0  0  0  0
   26.3376  -21.5589   -8.5527 C   0  0  0  0  0  0  0  0  0  0  0  0
   26.7027  -20.3940   -7.7398 C   0  0  0  0  0  0  0  0  0  0  0  0
   26.3187  -19.0865   -8.0530 C   0  0  0  0  0  0  0  0  0  0  0  0
   26.8377  -18.2749   -7.1351 N   0  0  0  0  0  0  0  0  0  0  0  0
   27.5459  -18.9565   -6.2243 C   0  0  0  0  0  0  0  0  0  0  0  0
   28.2467  -18.5592   -5.0925 C   0  0  0  0  0  0  0  0  0  0  0  0
   28.8572  -19.5488   -4.3569 C   0  0  0  0  0  0  0  0  0  0  0  0
   28.7920  -20.8826   -4.7051 C   0  0  0  0  0  0  0  0  0  0  0  0
   28.0959  -21.2517   -5.8252 C   0  0  0  0  0  0  0  0  0  0  0  0
   27.4684  -20.2835   -6.5921 C   0  0  0  0  0  0  0  0  0  0  0  0
   24.1860  -20.4592   -9.1665 C   0  0  0  0  0  0  0  0  0  0  0  0
   23.3103  -20.6754   -8.1151 O   0  0  0  0  0  0  0  0  0  0  0  0
   23.9776  -19.3588   -9.7945 O   0  0  0  0  0  0  0  0  0  0  0  0
  1  2  1  0
  3  2  1  0
  4  5  1  0
  4  3  1  0
  5  1  1  0
  5  6  1  6
  7  6  2  0
  9  8  1  6
  9 11  1  0
 10  9  1  0
 12 11  1  1
 12 14  1  0
 12 13  1  0
 13  6  1  0
 14 15  2  0
 16 14  1  0
 16 17  1  0
 17 18  1  1
 19 18  1  0
 20 19  2  0
 21 20  1  0
 22 21  1  0
 22 27  2  0
 23 22  1  0
 24 23  2  0
 24 25  1  0
 25 26  2  0
 26 27  1  0
 27 19  1  0
 28 29  1  0
 28 17  1  0
 30 28  2  0
M  END
$$$$
