PLW.pdb
     RDKit          3D

 30 32  0  0  1  0  0  0  0  0999 V2000
   27.0175  -19.3167  -16.0674 N   0  0  0  0  0  0  0  0  0  0  0  0
   27.0208  -17.9207  -16.3548 C   0  0  0  0  0  0  0  0  0  0  0  0
   28.0390  -17.2996  -15.4552 C   0  0  0  0  0  0  0  0  0  0  0  0
   28.5270  -18.3999  -14.5519 C   0  0  0  0  0  0  0  0  0  0  0  0
   27.5286  -19.5494  -14.7528 C   0  0  1  0  0  0  0  0  0  0  0  0
   26.5379  -19.4298  -13.6636 C   0  0  0  0  0  0  0  0  0  0  0  0
   26.1905  -18.2437  -13.3494 O   0  0  0  0  0  0  0  0  0  0  0  0
   22.7273  -19.2555  -13.8475 C   0  0  0  0  0  0  0  0  0  0  0  0
   23.3267  -20.6807  -13.8131 C   0  0  2  0  0  0  0  0  0  0  0  0
   22.2199  -21.6454  -14.1948 C   0  0  0  0  0  0  0  0  0  0  0  0
   23.7162  -20.9589  -12.3907 C   0  0  0  0  0  0  0  0  0  0  0  0
   24.9236  -20.2396  -11.8877 C   0  0  2  0  0  0  0  0  0  0  0  0
   25.9455  -20.4664  -12.9463 N   0  0  0  0  0  0  0  0  0  0  0  0
   25.4498  -20.7130  -10.5970 C   0  0  0  0  0  0  0  0  0  0  0  0
   26.2639  -21.6954  -10.6233 O   0  0  0  0  0  0  0  0  0  0  0  0
   25.1447  -20.1858   -9.3369 N   0  0  0  0  0  0  0  0  0  0  0  0
   25.6469  -20.7724   -8.0843 C   0  0  1  0  0  0  0  0  0  0  0  0
   25.7291  -19.6648   -7.0936 C   0  0  0  0  0  0  0  0  0  0  0  0
   27.0663  -19.1852   -6.7290 C   0  0  0  0  0  0  0  0  0  0  0  0
   27.7430  -18.1841   -7.4326 C   0  0  0  0  0  0  0  0  0  0  0  0
   28.9325  -18.0129   -6.8613 N   0  0  0  0  0  0  0  0  0  0  0  0
   29.0963  -18.8365   -5.8171 C   0  0  0  0  0  0  0  0  0  0  0  0
   30.1404  -19.0142   -4.9180 C   0  0  0  0  0  0  0  0  0  0  0  0
   29.9618  -19.9578   -3.9326 C   0  0  0  0  0  0  0  0  0  0  0  0
   28.8083  -20.7070   -3.8198 C   0  0  0  0  0  0  0  0  0  0  0  0
   27.7919  -20.5154   -4.7174 C   0  0  0  0  0  0  0  0  0  0  0  0
   27.9351  -19.5747   -5.7243 C   0  0  0  0  0  0  0  0  0  0  0  0
   24.8289  -21.9163   -7.6728 C   0  0  0  0  0  0  0  0  0  0  0  0
   25.2159  -22.8677   -6.7433 O   0  0  0  0  0  0  0  0  0  0  0  0
   23.6620  -22.1221   -8.1675 O   0  0  0  0  0  0  0  0  0  0  0  0
  1  2  1  0
  3  2  1  0
  4  5  1  0
  4  3  1  0
  5  1  1  0
  5  6  1  1
  7  6  2  0
  9  8  1  1
  9 11  1  0
 10  9  1  0
 12 11  1  6
 12 14  1  0
 12 13  1  0
 13  6  1  0
 14 15  2  0
 16 14  1  0
 16 17  1  0
 17 18  1  1
 19 18  1  0
 20 19  2  0
 21 20  1  0
 22 21  1  0
 22 27  2  0
 23 22  1  0
 24 23  2  0
 24 25  1  0
 25 26  2  0
 26 27  1  0
 27 19  1  0
 28 29  1  0
 28 17  1  0
 30 28  2  0
M  END
$$$$
