PLW.pdb
     RDKit          3D

 30 32  0  0  1  0  0  0  0  0999 V2000
   28.7382  -20.6927  -14.3460 N   0  0  0  0  0  0  0  0  0  0  0  0
   27.9138  -20.5235  -15.4962 C   0  0  0  0  0  0  0  0  0  0  0  0
   27.2890  -19.1715  -15.3814 C   0  0  0  0  0  0  0  0  0  0  0  0
   27.7053  -18.6299  -14.0404 C   0  0  0  0  0  0  0  0  0  0  0  0
   28.2945  -19.8347  -13.2923 C   0  0  1  0  0  0  0  0  0  0  0  0
   27.2018  -20.3768  -12.4591 C   0  0  0  0  0  0  0  0  0  0  0  0
   26.5844  -21.3874  -12.9321 O   0  0  0  0  0  0  0  0  0  0  0  0
   27.5285  -21.5450   -8.2344 C   0  0  0  0  0  0  0  0  0  0  0  0
   27.2131  -20.0535   -8.4946 C   0  0  2  0  0  0  0  0  0  0  0  0
   27.1943  -19.3544   -7.1484 C   0  0  0  0  0  0  0  0  0  0  0  0
   25.8287  -19.9915   -9.0705 C   0  0  0  0  0  0  0  0  0  0  0  0
   25.6665  -20.5362  -10.4508 C   0  0  2  0  0  0  0  0  0  0  0  0
   26.7749  -19.9062  -11.2195 N   0  0  0  0  0  0  0  0  0  0  0  0
   24.3853  -20.2268  -11.1062 C   0  0  0  0  0  0  0  0  0  0  0  0
   24.1262  -18.9976  -11.3308 O   0  0  0  0  0  0  0  0  0  0  0  0
   23.4194  -21.1549  -11.5120 N   0  0  0  0  0  0  0  0  0  0  0  0
   22.1981  -20.7695  -12.2366 C   0  0  1  0  0  0  0  0  0  0  0  0
   22.3064  -21.3523  -13.6018 C   0  0  0  0  0  0  0  0  0  0  0  0
   21.1791  -21.1405  -14.5158 C   0  0  0  0  0  0  0  0  0  0  0  0
   20.6951  -19.8747  -14.8602 C   0  0  0  0  0  0  0  0  0  0  0  0
   19.6573  -20.0398  -15.6764 N   0  0  0  0  0  0  0  0  0  0  0  0
   19.4147  -21.3381  -15.9022 C   0  0  0  0  0  0  0  0  0  0  0  0
   18.4679  -21.9937  -16.6792 C   0  0  0  0  0  0  0  0  0  0  0  0
   18.5186  -23.3686  -16.6971 C   0  0  0  0  0  0  0  0  0  0  0  0
   19.4566  -24.0881  -15.9851 C   0  0  0  0  0  0  0  0  0  0  0  0
   20.3805  -23.4211  -15.2253 C   0  0  0  0  0  0  0  0  0  0  0  0
   20.3606  -22.0366  -15.1815 C   0  0  0  0  0  0  0  0  0  0  0  0
   20.9981  -21.1540  -11.4889 C   0  0  0  0  0  0  0  0  0  0  0  0
   19.7868  -20.4841  -11.5449 O   0  0  0  0  0  0  0  0  0  0  0  0
   20.9915  -22.1683  -10.7017 O   0  0  0  0  0  0  0  0  0  0  0  0
  1  2  1  0
  3  2  1  0
  4  5  1  0
  4  3  1  0
  5  1  1  0
  5  6  1  6
  7  6  2  0
  9  8  1  1
  9 11  1  0
 10  9  1  0
 12 11  1  1
 12 14  1  0
 12 13  1  0
 13  6  1  0
 14 15  2  0
 16 14  1  0
 16 17  1  0
 17 18  1  6
 19 18  1  0
 20 19  2  0
 21 20  1  0
 22 21  1  0
 22 27  2  0
 23 22  1  0
 24 23  2  0
 24 25  1  0
 25 26  2  0
 26 27  1  0
 27 19  1  0
 28 29  1  0
 28 17  1  0
 30 28  2  0
M  END
$$$$
