PLW.pdb
     RDKit          3D

 30 32  0  0  1  0  0  0  0  0999 V2000
   28.1843  -20.3792   -7.7208 N   0  0  0  0  0  0  0  0  0  0  0  0
   28.1945  -19.0325   -7.2541 C   0  0  0  0  0  0  0  0  0  0  0  0
   26.8171  -18.7407   -6.7551 C   0  0  0  0  0  0  0  0  0  0  0  0
   25.9883  -19.9547   -7.0779 C   0  0  0  0  0  0  0  0  0  0  0  0
   26.8505  -20.7763   -8.0474 C   0  0  1  0  0  0  0  0  0  0  0  0
   26.4021  -20.4125   -9.4071 C   0  0  0  0  0  0  0  0  0  0  0  0
   26.6405  -19.2149   -9.7745 O   0  0  0  0  0  0  0  0  0  0  0  0
   24.4881  -22.0668  -14.2904 C   0  0  0  0  0  0  0  0  0  0  0  0
   25.9456  -21.6061  -14.0556 C   0  0  2  0  0  0  0  0  0  0  0  0
   26.8516  -22.5957  -14.7636 C   0  0  0  0  0  0  0  0  0  0  0  0
   26.2064  -21.7090  -12.5813 C   0  0  0  0  0  0  0  0  0  0  0  0
   25.4151  -20.7921  -11.7087 C   0  0  2  0  0  0  0  0  0  0  0  0
   25.7504  -21.2313  -10.3263 N   0  0  0  0  0  0  0  0  0  0  0  0
   23.9557  -20.8461  -11.8936 C   0  0  0  0  0  0  0  0  0  0  0  0
   23.3191  -21.7482  -11.2539 O   0  0  0  0  0  0  0  0  0  0  0  0
   23.1937  -19.9977  -12.7051 N   0  0  0  0  0  0  0  0  0  0  0  0
   21.7225  -19.9803  -12.6808 C   0  0  1  0  0  0  0  0  0  0  0  0
   21.3008  -18.6310  -13.1460 C   0  0  0  0  0  0  0  0  0  0  0  0
   20.9537  -18.4854  -14.5635 C   0  0  0  0  0  0  0  0  0  0  0  0
   19.6406  -18.5259  -15.0422 C   0  0  0  0  0  0  0  0  0  0  0  0
   19.6815  -18.3938  -16.3656 N   0  0  0  0  0  0  0  0  0  0  0  0
   20.9408  -18.2662  -16.8053 C   0  0  0  0  0  0  0  0  0  0  0  0
   21.4774  -18.0915  -18.0749 C   0  0  0  0  0  0  0  0  0  0  0  0
   22.8456  -17.9757  -18.1637 C   0  0  0  0  0  0  0  0  0  0  0  0
   23.6702  -18.0270  -17.0584 C   0  0  0  0  0  0  0  0  0  0  0  0
   23.1197  -18.2003  -15.8164 C   0  0  0  0  0  0  0  0  0  0  0  0
   21.7457  -18.3218  -15.6868 C   0  0  0  0  0  0  0  0  0  0  0  0
   21.1695  -21.1028  -13.4432 C   0  0  0  0  0  0  0  0  0  0  0  0
   19.8746  -21.5786  -13.3174 O   0  0  0  0  0  0  0  0  0  0  0  0
   21.8744  -21.7446  -14.3034 O   0  0  0  0  0  0  0  0  0  0  0  0
  1  2  1  0
  3  2  1  0
  4  5  1  0
  4  3  1  0
  5  1  1  0
  5  6  1  6
  7  6  2  0
  9  8  1  1
  9 11  1  0
 10  9  1  0
 12 11  1  6
 12 14  1  0
 12 13  1  0
 13  6  1  0
 14 15  2  0
 16 14  1  0
 16 17  1  0
 17 18  1  6
 19 18  1  0
 20 19  2  0
 21 20  1  0
 22 21  1  0
 22 27  2  0
 23 22  1  0
 24 23  2  0
 24 25  1  0
 25 26  2  0
 26 27  1  0
 27 19  1  0
 28 29  1  0
 28 17  1  0
 30 28  2  0
M  END
$$$$
