PLW.pdb
     RDKit          3D

 30 32  0  0  1  0  0  0  0  0999 V2000
   26.9406  -19.5774  -15.3092 N   0  0  0  0  0  0  0  0  0  0  0  0
   28.1239  -19.3767  -14.5405 C   0  0  0  0  0  0  0  0  0  0  0  0
   28.8874  -20.6600  -14.5846 C   0  0  0  0  0  0  0  0  0  0  0  0
   28.0138  -21.6424  -15.3172 C   0  0  0  0  0  0  0  0  0  0  0  0
   26.6340  -20.9716  -15.3848 C   0  0  1  0  0  0  0  0  0  0  0  0
   25.8594  -21.5070  -14.2467 C   0  0  0  0  0  0  0  0  0  0  0  0
   25.5242  -22.7349  -14.3245 O   0  0  0  0  0  0  0  0  0  0  0  0
   26.8573  -21.6017  -10.5541 C   0  0  0  0  0  0  0  0  0  0  0  0
   26.0402  -20.2943  -10.6752 C   0  0  2  0  0  0  0  0  0  0  0  0
   26.1140  -19.5897   -9.3337 C   0  0  0  0  0  0  0  0  0  0  0  0
   24.6125  -20.6894  -10.9152 C   0  0  0  0  0  0  0  0  0  0  0  0
   24.3028  -21.2450  -12.2656 C   0  0  2  0  0  0  0  0  0  0  0  0
   25.4574  -20.8196  -13.1038 N   0  0  0  0  0  0  0  0  0  0  0  0
   23.0551  -20.7604  -12.8779 C   0  0  0  0  0  0  0  0  0  0  0  0
   21.9795  -20.9092  -12.2076 O   0  0  0  0  0  0  0  0  0  0  0  0
   22.9331  -20.1463  -14.1297 N   0  0  0  0  0  0  0  0  0  0  0  0
   21.6370  -19.7402  -14.6957 C   0  0  1  0  0  0  0  0  0  0  0  0
   21.9088  -18.6091  -15.6241 C   0  0  0  0  0  0  0  0  0  0  0  0
   20.7750  -18.0765  -16.3868 C   0  0  0  0  0  0  0  0  0  0  0  0
   19.8911  -17.1174  -15.8826 C   0  0  0  0  0  0  0  0  0  0  0  0
   18.9690  -16.8797  -16.8120 N   0  0  0  0  0  0  0  0  0  0  0  0
   19.1793  -17.6191  -17.9095 C   0  0  0  0  0  0  0  0  0  0  0  0
   18.5087  -17.7076  -19.1230 C   0  0  0  0  0  0  0  0  0  0  0  0
   19.0212  -18.5780  -20.0574 C   0  0  0  0  0  0  0  0  0  0  0  0
   20.1482  -19.3399  -19.8255 C   0  0  0  0  0  0  0  0  0  0  0  0
   20.7933  -19.2369  -18.6218 C   0  0  0  0  0  0  0  0  0  0  0  0
   20.3067  -18.3718  -17.6554 C   0  0  0  0  0  0  0  0  0  0  0  0
   20.9417  -20.8830  -15.2936 C   0  0  0  0  0  0  0  0  0  0  0  0
   19.5666  -21.0504  -15.3049 O   0  0  0  0  0  0  0  0  0  0  0  0
   21.5832  -21.8397  -15.8610 O   0  0  0  0  0  0  0  0  0  0  0  0
  1  2  1  0
  3  2  1  0
  4  5  1  0
  4  3  1  0
  5  1  1  0
  5  6  1  1
  7  6  2  0
  9  8  1  1
  9 11  1  0
 10  9  1  0
 12 11  1  1
 12 14  1  0
 12 13  1  0
 13  6  1  0
 14 15  2  0
 16 14  1  0
 16 17  1  0
 17 18  1  6
 19 18  1  0
 20 19  2  0
 21 20  1  0
 22 21  1  0
 22 27  2  0
 23 22  1  0
 24 23  2  0
 24 25  1  0
 25 26  2  0
 26 27  1  0
 27 19  1  0
 28 29  1  0
 28 17  1  0
 30 28  2  0
M  END
$$$$
