PLW.pdb
     RDKit          3D

 30 32  0  0  1  0  0  0  0  0999 V2000
   28.3034  -20.8095  -14.6709 N   0  0  0  0  0  0  0  0  0  0  0  0
   27.4346  -20.5268  -15.7648 C   0  0  0  0  0  0  0  0  0  0  0  0
   26.8907  -19.1542  -15.5374 C   0  0  0  0  0  0  0  0  0  0  0  0
   27.4003  -18.7193  -14.1898 C   0  0  0  0  0  0  0  0  0  0  0  0
   27.9585  -19.9971  -13.5463 C   0  0  1  0  0  0  0  0  0  0  0  0
   26.8796  -20.5332  -12.6916 C   0  0  0  0  0  0  0  0  0  0  0  0
   26.2206  -21.5145  -13.1699 O   0  0  0  0  0  0  0  0  0  0  0  0
   27.5278  -21.5895   -8.6530 C   0  0  0  0  0  0  0  0  0  0  0  0
   27.0334  -20.1315   -8.7986 C   0  0  2  0  0  0  0  0  0  0  0  0
   27.0540  -19.5074   -7.4161 C   0  0  0  0  0  0  0  0  0  0  0  0
   25.6064  -20.1956   -9.2589 C   0  0  0  0  0  0  0  0  0  0  0  0
   25.3867  -20.6871  -10.6511 C   0  0  2  0  0  0  0  0  0  0  0  0
   26.5060  -20.0853  -11.4267 N   0  0  0  0  0  0  0  0  0  0  0  0
   24.1070  -20.2970  -11.2650 C   0  0  0  0  0  0  0  0  0  0  0  0
   23.8895  -19.0489  -11.4184 O   0  0  0  0  0  0  0  0  0  0  0  0
   23.1012  -21.1666  -11.7020 N   0  0  0  0  0  0  0  0  0  0  0  0
   22.0593  -20.7634  -12.6597 C   0  0  1  0  0  0  0  0  0  0  0  0
   22.6815  -20.7972  -14.0113 C   0  0  0  0  0  0  0  0  0  0  0  0
   21.8230  -20.4760  -15.1562 C   0  0  0  0  0  0  0  0  0  0  0  0
   21.5954  -19.1715  -15.6051 C   0  0  0  0  0  0  0  0  0  0  0  0
   20.7530  -19.2320  -16.6333 N   0  0  0  0  0  0  0  0  0  0  0  0
   20.4012  -20.4965  -16.9032 C   0  0  0  0  0  0  0  0  0  0  0  0
   19.5746  -21.0535  -17.8710 C   0  0  0  0  0  0  0  0  0  0  0  0
   19.4500  -22.4238  -17.8721 C   0  0  0  0  0  0  0  0  0  0  0  0
   20.1050  -23.2313  -16.9648 C   0  0  0  0  0  0  0  0  0  0  0  0
   20.9147  -22.6608  -16.0190 C   0  0  0  0  0  0  0  0  0  0  0  0
   21.0646  -21.2839  -15.9857 C   0  0  0  0  0  0  0  0  0  0  0  0
   20.8564  -21.5861  -12.5073 C   0  0  0  0  0  0  0  0  0  0  0  0
   20.8574  -22.9239  -12.1478 O   0  0  0  0  0  0  0  0  0  0  0  0
   19.6826  -21.1062  -12.7089 O   0  0  0  0  0  0  0  0  0  0  0  0
  1  2  1  0
  3  2  1  0
  4  5  1  0
  4  3  1  0
  5  1  1  0
  5  6  1  1
  7  6  2  0
  9  8  1  1
  9 11  1  0
 10  9  1  0
 12 11  1  1
 12 14  1  0
 12 13  1  0
 13  6  1  0
 14 15  2  0
 16 14  1  0
 16 17  1  0
 17 18  1  6
 19 18  1  0
 20 19  2  0
 21 20  1  0
 22 21  1  0
 22 27  2  0
 23 22  1  0
 24 23  2  0
 24 25  1  0
 25 26  2  0
 26 27  1  0
 27 19  1  0
 28 29  1  0
 28 17  1  0
 30 28  2  0
M  END
$$$$
