PLW.pdb
     RDKit          3D

 30 32  0  0  1  0  0  0  0  0999 V2000
   27.0688  -17.8158  -16.4064 N   0  0  0  0  0  0  0  0  0  0  0  0
   26.1047  -17.0051  -17.0731 C   0  0  0  0  0  0  0  0  0  0  0  0
   25.5771  -16.0437  -16.0587 C   0  0  0  0  0  0  0  0  0  0  0  0
   26.2030  -16.4332  -14.7467 C   0  0  0  0  0  0  0  0  0  0  0  0
   26.8221  -17.8159  -14.9984 C   0  0  1  0  0  0  0  0  0  0  0  0
   25.8261  -18.8037  -14.5354 C   0  0  0  0  0  0  0  0  0  0  0  0
   25.3706  -19.5986  -15.4224 O   0  0  0  0  0  0  0  0  0  0  0  0
   26.7747  -21.8834  -11.9293 C   0  0  0  0  0  0  0  0  0  0  0  0
   26.3595  -20.5706  -11.2253 C   0  0  2  0  0  0  0  0  0  0  0  0
   26.5969  -20.7604   -9.7391 C   0  0  0  0  0  0  0  0  0  0  0  0
   24.8840  -20.4033  -11.4431 C   0  0  0  0  0  0  0  0  0  0  0  0
   24.4571  -20.0946  -12.8397 C   0  0  2  0  0  0  0  0  0  0  0  0
   25.3332  -18.9601  -13.2421 N   0  0  0  0  0  0  0  0  0  0  0  0
   23.0482  -19.6983  -12.9973 C   0  0  0  0  0  0  0  0  0  0  0  0
   22.6924  -18.5880  -12.4786 O   0  0  0  0  0  0  0  0  0  0  0  0
   22.0559  -20.4235  -13.6670 N   0  0  0  0  0  0  0  0  0  0  0  0
   20.6667  -19.9528  -13.7847 C   0  0  1  0  0  0  0  0  0  0  0  0
   20.6828  -18.7952  -14.7201 C   0  0  0  0  0  0  0  0  0  0  0  0
   20.8802  -19.0831  -16.1445 C   0  0  0  0  0  0  0  0  0  0  0  0
   20.0063  -19.8727  -16.8982 C   0  0  0  0  0  0  0  0  0  0  0  0
   20.4909  -19.9565  -18.1346 N   0  0  0  0  0  0  0  0  0  0  0  0
   21.6359  -19.2713  -18.2582 C   0  0  0  0  0  0  0  0  0  0  0  0
   22.4873  -19.0548  -19.3344 C   0  0  0  0  0  0  0  0  0  0  0  0
   23.5917  -18.2660  -19.1077 C   0  0  0  0  0  0  0  0  0  0  0  0
   23.8647  -17.7035  -17.8775 C   0  0  0  0  0  0  0  0  0  0  0  0
   23.0118  -17.9306  -16.8303 C   0  0  0  0  0  0  0  0  0  0  0  0
   21.8894  -18.7203  -17.0196 C   0  0  0  0  0  0  0  0  0  0  0  0
   19.7697  -21.0474  -14.1641 C   0  0  0  0  0  0  0  0  0  0  0  0
   18.3883  -21.0023  -14.0703 O   0  0  0  0  0  0  0  0  0  0  0  0
   20.2205  -22.1603  -14.6190 O   0  0  0  0  0  0  0  0  0  0  0  0
  1  2  1  0
  3  2  1  0
  4  5  1  0
  4  3  1  0
  5  1  1  0
  5  6  1  6
  7  6  2  0
  9  8  1  6
  9 11  1  0
 10  9  1  0
 12 11  1  1
 12 14  1  0
 12 13  1  0
 13  6  1  0
 14 15  2  0
 16 14  1  0
 16 17  1  0
 17 18  1  6
 19 18  1  0
 20 19  2  0
 21 20  1  0
 22 21  1  0
 22 27  2  0
 23 22  1  0
 24 23  2  0
 24 25  1  0
 25 26  2  0
 26 27  1  0
 27 19  1  0
 28 29  1  0
 28 17  1  0
 30 28  2  0
M  END
$$$$
