PLW.pdb
     RDKit          3D

 30 32  0  0  1  0  0  0  0  0999 V2000
   28.5161  -20.3653  -15.3457 N   0  0  0  0  0  0  0  0  0  0  0  0
   27.7328  -19.7858  -16.3859 C   0  0  0  0  0  0  0  0  0  0  0  0
   27.1785  -18.5083  -15.8450 C   0  0  0  0  0  0  0  0  0  0  0  0
   27.5874  -18.4536  -14.3977 C   0  0  0  0  0  0  0  0  0  0  0  0
   28.0910  -19.8679  -14.0747 C   0  0  1  0  0  0  0  0  0  0  0  0
   26.9491  -20.5838  -13.4701 C   0  0  0  0  0  0  0  0  0  0  0  0
   26.2997  -21.3601  -14.2459 O   0  0  0  0  0  0  0  0  0  0  0  0
   27.2463  -20.8198   -8.4411 C   0  0  0  0  0  0  0  0  0  0  0  0
   26.3604  -20.2245   -9.5602 C   0  0  2  0  0  0  0  0  0  0  0  0
   25.3675  -19.2868   -8.8996 C   0  0  0  0  0  0  0  0  0  0  0  0
   25.5930  -21.3634  -10.1653 C   0  0  0  0  0  0  0  0  0  0  0  0
   25.3484  -21.2829  -11.6357 C   0  0  2  0  0  0  0  0  0  0  0  0
   26.5070  -20.5033  -12.1517 N   0  0  0  0  0  0  0  0  0  0  0  0
   24.0988  -20.6142  -12.0332 C   0  0  0  0  0  0  0  0  0  0  0  0
   23.9746  -19.3809  -11.7302 O   0  0  0  0  0  0  0  0  0  0  0  0
   23.0287  -21.2020  -12.7176 N   0  0  0  0  0  0  0  0  0  0  0  0
   21.9661  -20.4148  -13.3629 C   0  0  1  0  0  0  0  0  0  0  0  0
   22.3796  -20.2134  -14.7784 C   0  0  0  0  0  0  0  0  0  0  0  0
   21.4529  -19.4887  -15.6541 C   0  0  0  0  0  0  0  0  0  0  0  0
   21.0493  -18.1698  -15.4242 C   0  0  0  0  0  0  0  0  0  0  0  0
   20.1901  -17.8303  -16.3817 N   0  0  0  0  0  0  0  0  0  0  0  0
   19.9922  -18.8392  -17.2411 C   0  0  0  0  0  0  0  0  0  0  0  0
   19.2130  -18.9570  -18.3853 C   0  0  0  0  0  0  0  0  0  0  0  0
   19.2620  -20.1592  -19.0528 C   0  0  0  0  0  0  0  0  0  0  0  0
   20.0409  -21.2157  -18.6269 C   0  0  0  0  0  0  0  0  0  0  0  0
   20.8009  -21.0777  -17.4960 C   0  0  0  0  0  0  0  0  0  0  0  0
   20.7772  -19.8822  -16.7963 C   0  0  0  0  0  0  0  0  0  0  0  0
   20.6570  -21.0472  -13.1806 C   0  0  0  0  0  0  0  0  0  0  0  0
   20.4580  -22.4042  -12.9862 O   0  0  0  0  0  0  0  0  0  0  0  0
   19.5708  -20.3626  -13.1950 O   0  0  0  0  0  0  0  0  0  0  0  0
  1  2  1  0
  3  2  1  0
  4  5  1  0
  4  3  1  0
  5  1  1  0
  5  6  1  6
  7  6  2  0
  9  8  1  1
  9 11  1  0
 10  9  1  0
 12 11  1  1
 12 14  1  0
 12 13  1  0
 13  6  1  0
 14 15  2  0
 16 14  1  0
 16 17  1  0
 17 18  1  6
 19 18  1  0
 20 19  2  0
 21 20  1  0
 22 21  1  0
 22 27  2  0
 23 22  1  0
 24 23  2  0
 24 25  1  0
 25 26  2  0
 26 27  1  0
 27 19  1  0
 28 29  1  0
 28 17  1  0
 30 28  2  0
M  END
$$$$
