PLW.pdb
     RDKit          3D

 30 32  0  0  1  0  0  0  0  0999 V2000
   27.9559  -19.0581  -17.8031 N   0  0  0  0  0  0  0  0  0  0  0  0
   26.5854  -18.7889  -18.0868 C   0  0  0  0  0  0  0  0  0  0  0  0
   26.1914  -17.6257  -17.2362 C   0  0  0  0  0  0  0  0  0  0  0  0
   27.3780  -17.3260  -16.3603 C   0  0  0  0  0  0  0  0  0  0  0  0
   28.3021  -18.5427  -16.5154 C   0  0  1  0  0  0  0  0  0  0  0  0
   28.0001  -19.4369  -15.3791 C   0  0  0  0  0  0  0  0  0  0  0  0
   27.0381  -20.2562  -15.5506 O   0  0  0  0  0  0  0  0  0  0  0  0
   30.7145  -21.2250  -10.2309 C   0  0  0  0  0  0  0  0  0  0  0  0
   29.3507  -21.3175  -10.9540 C   0  0  2  0  0  0  0  0  0  0  0  0
   29.0929  -22.7837  -11.2462 C   0  0  0  0  0  0  0  0  0  0  0  0
   29.4990  -20.6011  -12.2643 C   0  0  0  0  0  0  0  0  0  0  0  0
   28.2460  -20.4065  -13.0520 C   0  0  2  0  0  0  0  0  0  0  0  0
   28.6486  -19.4819  -14.1472 N   0  0  0  0  0  0  0  0  0  0  0  0
   27.1183  -19.8180  -12.3112 C   0  0  0  0  0  0  0  0  0  0  0  0
   27.1680  -18.5659  -12.0699 O   0  0  0  0  0  0  0  0  0  0  0  0
   25.9891  -20.5014  -11.8456 N   0  0  0  0  0  0  0  0  0  0  0  0
   24.9653  -19.8669  -11.0003 C   0  0  1  0  0  0  0  0  0  0  0  0
   24.0174  -19.1775  -11.9174 C   0  0  0  0  0  0  0  0  0  0  0  0
   23.0434  -20.0110  -12.6300 C   0  0  0  0  0  0  0  0  0  0  0  0
   21.9779  -20.6597  -11.9984 C   0  0  0  0  0  0  0  0  0  0  0  0
   21.3117  -21.3493  -12.9210 N   0  0  0  0  0  0  0  0  0  0  0  0
   21.8634  -21.2033  -14.1334 C   0  0  0  0  0  0  0  0  0  0  0  0
   21.5244  -21.7040  -15.3842 C   0  0  0  0  0  0  0  0  0  0  0  0
   22.3180  -21.3275  -16.4433 C   0  0  0  0  0  0  0  0  0  0  0  0
   23.4065  -20.4919  -16.2975 C   0  0  0  0  0  0  0  0  0  0  0  0
   23.7227  -20.0102  -15.0551 C   0  0  0  0  0  0  0  0  0  0  0  0
   22.9476  -20.3678  -13.9639 C   0  0  0  0  0  0  0  0  0  0  0  0
   24.3551  -20.8404  -10.0910 C   0  0  0  0  0  0  0  0  0  0  0  0
   23.4694  -20.5216   -9.0746 O   0  0  0  0  0  0  0  0  0  0  0  0
   24.6141  -22.0952  -10.1758 O   0  0  0  0  0  0  0  0  0  0  0  0
  1  2  1  0
  3  2  1  0
  4  5  1  0
  4  3  1  0
  5  1  1  0
  5  6  1  1
  7  6  2  0
  9  8  1  1
  9 11  1  0
 10  9  1  0
 12 11  1  1
 12 14  1  0
 12 13  1  0
 13  6  1  0
 14 15  2  0
 16 14  1  0
 16 17  1  0
 17 18  1  6
 19 18  1  0
 20 19  2  0
 21 20  1  0
 22 21  1  0
 22 27  2  0
 23 22  1  0
 24 23  2  0
 24 25  1  0
 25 26  2  0
 26 27  1  0
 27 19  1  0
 28 29  1  0
 28 17  1  0
 30 28  2  0
M  END
$$$$
