PLW.pdb
     RDKit          3D

 30 32  0  0  1  0  0  0  0  0999 V2000
   28.5327  -19.1414  -16.0588 N   0  0  0  0  0  0  0  0  0  0  0  0
   27.3722  -18.6230  -16.7036 C   0  0  0  0  0  0  0  0  0  0  0  0
   26.9079  -17.4631  -15.8845 C   0  0  0  0  0  0  0  0  0  0  0  0
   27.7950  -17.4264  -14.6694 C   0  0  0  0  0  0  0  0  0  0  0  0
   28.5339  -18.7726  -14.6776 C   0  0  1  0  0  0  0  0  0  0  0  0
   27.7677  -19.6686  -13.7876 C   0  0  0  0  0  0  0  0  0  0  0  0
   27.0747  -20.5715  -14.3627 O   0  0  0  0  0  0  0  0  0  0  0  0
   29.1748  -22.5535  -10.4982 C   0  0  0  0  0  0  0  0  0  0  0  0
   29.1296  -21.0234  -10.2783 C   0  0  2  0  0  0  0  0  0  0  0  0
   29.7059  -20.7477   -8.9023 C   0  0  0  0  0  0  0  0  0  0  0  0
   27.6829  -20.6242  -10.2653 C   0  0  0  0  0  0  0  0  0  0  0  0
   26.9847  -20.6427  -11.5845 C   0  0  2  0  0  0  0  0  0  0  0  0
   27.7203  -19.6344  -12.3960 N   0  0  0  0  0  0  0  0  0  0  0  0
   25.5565  -20.2877  -11.5491 C   0  0  0  0  0  0  0  0  0  0  0  0
   25.2491  -19.1528  -11.0533 O   0  0  0  0  0  0  0  0  0  0  0  0
   24.4973  -21.0770  -12.0117 N   0  0  0  0  0  0  0  0  0  0  0  0
   23.1290  -20.5602  -12.1727 C   0  0  1  0  0  0  0  0  0  0  0  0
   22.7009  -20.9008  -13.5568 C   0  0  0  0  0  0  0  0  0  0  0  0
   21.3498  -20.4992  -13.9620 C   0  0  0  0  0  0  0  0  0  0  0  0
   20.9234  -19.1683  -14.0059 C   0  0  0  0  0  0  0  0  0  0  0  0
   19.6471  -19.1580  -14.3819 N   0  0  0  0  0  0  0  0  0  0  0  0
   19.1900  -20.3997  -14.5940 C   0  0  0  0  0  0  0  0  0  0  0  0
   17.9552  -20.8869  -15.0038 C   0  0  0  0  0  0  0  0  0  0  0  0
   17.8362  -22.2510  -15.1396 C   0  0  0  0  0  0  0  0  0  0  0  0
   18.8798  -23.1179  -14.8870 C   0  0  0  0  0  0  0  0  0  0  0  0
   20.0884  -22.6156  -14.4836 C   0  0  0  0  0  0  0  0  0  0  0  0
   20.2465  -21.2474  -14.3347 C   0  0  0  0  0  0  0  0  0  0  0  0
   22.2502  -21.0548  -11.1097 C   0  0  0  0  0  0  0  0  0  0  0  0
   22.5949  -22.0376  -10.1963 O   0  0  0  0  0  0  0  0  0  0  0  0
   21.0604  -20.5982  -10.9529 O   0  0  0  0  0  0  0  0  0  0  0  0
  1  2  1  0
  3  2  1  0
  4  5  1  0
  4  3  1  0
  5  1  1  0
  5  6  1  1
  7  6  2  0
  9  8  1  1
  9 11  1  0
 10  9  1  0
 12 11  1  1
 12 14  1  0
 12 13  1  0
 13  6  1  0
 14 15  2  0
 16 14  1  0
 16 17  1  0
 17 18  1  6
 19 18  1  0
 20 19  2  0
 21 20  1  0
 22 21  1  0
 22 27  2  0
 23 22  1  0
 24 23  2  0
 24 25  1  0
 25 26  2  0
 26 27  1  0
 27 19  1  0
 28 29  1  0
 28 17  1  0
 30 28  2  0
M  END
$$$$
