PLW.pdb
     RDKit          3D

 30 32  0  0  1  0  0  0  0  0999 V2000
   28.0943  -23.0878  -17.9814 N   0  0  0  0  0  0  0  0  0  0  0  0
   28.6328  -22.1454  -18.9052 C   0  0  0  0  0  0  0  0  0  0  0  0
   30.0876  -22.0187  -18.5903 C   0  0  0  0  0  0  0  0  0  0  0  0
   30.3229  -22.8470  -17.3560 C   0  0  0  0  0  0  0  0  0  0  0  0
   28.9199  -23.1616  -16.8167 C   0  0  1  0  0  0  0  0  0  0  0  0
   28.6387  -22.1453  -15.7823 C   0  0  0  0  0  0  0  0  0  0  0  0
   29.4391  -22.1189  -14.7899 O   0  0  0  0  0  0  0  0  0  0  0  0
   25.6584  -16.8815  -15.4080 C   0  0  0  0  0  0  0  0  0  0  0  0
   26.4676  -17.8609  -14.5262 C   0  0  2  0  0  0  0  0  0  0  0  0
   27.7425  -17.1495  -14.1140 C   0  0  0  0  0  0  0  0  0  0  0  0
   26.8445  -19.0251  -15.3951 C   0  0  0  0  0  0  0  0  0  0  0  0
   27.4225  -20.2087  -14.6929 C   0  0  2  0  0  0  0  0  0  0  0  0
   27.5996  -21.2178  -15.7732 N   0  0  0  0  0  0  0  0  0  0  0  0
   26.5854  -20.7824  -13.6266 C   0  0  0  0  0  0  0  0  0  0  0  0
   25.5424  -21.4245  -13.9848 O   0  0  0  0  0  0  0  0  0  0  0  0
   26.8250  -20.6942  -12.2505 N   0  0  0  0  0  0  0  0  0  0  0  0
   26.0289  -21.4279  -11.2539 C   0  0  1  0  0  0  0  0  0  0  0  0
   26.9193  -21.6699  -10.0861 C   0  0  0  0  0  0  0  0  0  0  0  0
   26.8793  -20.6912   -8.9945 C   0  0  0  0  0  0  0  0  0  0  0  0
   25.9597  -19.6395   -8.9374 C   0  0  0  0  0  0  0  0  0  0  0  0
   26.2162  -18.9285   -7.8423 N   0  0  0  0  0  0  0  0  0  0  0  0
   27.2508  -19.4380   -7.1600 C   0  0  0  0  0  0  0  0  0  0  0  0
   27.8678  -19.0618   -5.9734 C   0  0  0  0  0  0  0  0  0  0  0  0
   28.9170  -19.8400   -5.5414 C   0  0  0  0  0  0  0  0  0  0  0  0
   29.3564  -20.9488   -6.2356 C   0  0  0  0  0  0  0  0  0  0  0  0
   28.7337  -21.3011   -7.4034 C   0  0  0  0  0  0  0  0  0  0  0  0
   27.6738  -20.5414   -7.8710 C   0  0  0  0  0  0  0  0  0  0  0  0
   24.7824  -20.7201  -10.9503 C   0  0  0  0  0  0  0  0  0  0  0  0
   23.7101  -21.2706  -10.2676 O   0  0  0  0  0  0  0  0  0  0  0  0
   24.5933  -19.5033  -11.3142 O   0  0  0  0  0  0  0  0  0  0  0  0
  1  2  1  0
  3  2  1  0
  4  5  1  0
  4  3  1  0
  5  1  1  0
  5  6  1  1
  7  6  2  0
  9  8  1  6
  9 11  1  0
 10  9  1  0
 12 11  1  6
 12 14  1  0
 12 13  1  0
 13  6  1  0
 14 15  2  0
 16 14  1  0
 16 17  1  0
 17 18  1  1
 19 18  1  0
 20 19  2  0
 21 20  1  0
 22 21  1  0
 22 27  2  0
 23 22  1  0
 24 23  2  0
 24 25  1  0
 25 26  2  0
 26 27  1  0
 27 19  1  0
 28 29  1  0
 28 17  1  0
 30 28  2  0
M  END
$$$$
