PLW.pdb
     RDKit          3D

 30 32  0  0  1  0  0  0  0  0999 V2000
   29.9976  -22.1580  -12.0995 N   0  0  0  0  0  0  0  0  0  0  0  0
   31.0748  -21.2353  -11.9592 C   0  0  0  0  0  0  0  0  0  0  0  0
   30.9028  -20.5732  -10.6313 C   0  0  0  0  0  0  0  0  0  0  0  0
   29.5985  -21.0791  -10.0765 C   0  0  0  0  0  0  0  0  0  0  0  0
   28.9070  -21.7719  -11.2598 C   0  0  1  0  0  0  0  0  0  0  0  0
   27.9886  -20.7727  -11.8429 C   0  0  0  0  0  0  0  0  0  0  0  0
   27.4857  -19.9304  -11.0281 O   0  0  0  0  0  0  0  0  0  0  0  0
   28.2190  -17.4151  -14.9809 C   0  0  0  0  0  0  0  0  0  0  0  0
   28.2640  -18.8991  -15.4139 C   0  0  2  0  0  0  0  0  0  0  0  0
   28.4485  -18.9249  -16.9194 C   0  0  0  0  0  0  0  0  0  0  0  0
   26.9203  -19.4890  -15.0996 C   0  0  0  0  0  0  0  0  0  0  0  0
   26.6031  -19.6661  -13.6518 C   0  0  2  0  0  0  0  0  0  0  0  0
   27.6141  -20.6514  -13.1791 N   0  0  0  0  0  0  0  0  0  0  0  0
   25.2543  -20.1770  -13.3578 C   0  0  0  0  0  0  0  0  0  0  0  0
   25.0487  -21.4228  -13.5427 O   0  0  0  0  0  0  0  0  0  0  0  0
   24.1700  -19.4258  -12.8898 N   0  0  0  0  0  0  0  0  0  0  0  0
   22.8629  -20.0234  -12.5742 C   0  0  1  0  0  0  0  0  0  0  0  0
   22.4353  -19.4561  -11.2664 C   0  0  0  0  0  0  0  0  0  0  0  0
   21.1379  -19.8886  -10.7366 C   0  0  0  0  0  0  0  0  0  0  0  0
   20.9964  -20.8898   -9.7708 C   0  0  0  0  0  0  0  0  0  0  0  0
   19.6968  -21.0550   -9.5378 N   0  0  0  0  0  0  0  0  0  0  0  0
   18.9567  -20.2262  -10.2868 C   0  0  0  0  0  0  0  0  0  0  0  0
   17.5860  -20.0215  -10.3831 C   0  0  0  0  0  0  0  0  0  0  0  0
   17.1598  -19.0530  -11.2627 C   0  0  0  0  0  0  0  0  0  0  0  0
   18.0327  -18.3049  -12.0261 C   0  0  0  0  0  0  0  0  0  0  0  0
   19.3800  -18.5238  -11.9154 C   0  0  0  0  0  0  0  0  0  0  0  0
   19.8474  -19.4913  -11.0408 C   0  0  0  0  0  0  0  0  0  0  0  0
   21.9159  -19.8315  -13.6757 C   0  0  0  0  0  0  0  0  0  0  0  0
   21.8809  -18.7183  -14.4996 O   0  0  0  0  0  0  0  0  0  0  0  0
   21.0222  -20.7098  -13.9560 O   0  0  0  0  0  0  0  0  0  0  0  0
  1  2  1  0
  3  2  1  0
  4  5  1  0
  4  3  1  0
  5  1  1  0
  5  6  1  6
  7  6  2  0
  9  8  1  6
  9 11  1  0
 10  9  1  0
 12 11  1  6
 12 14  1  0
 12 13  1  0
 13  6  1  0
 14 15  2  0
 16 14  1  0
 16 17  1  0
 17 18  1  1
 19 18  1  0
 20 19  2  0
 21 20  1  0
 22 21  1  0
 22 27  2  0
 23 22  1  0
 24 23  2  0
 24 25  1  0
 25 26  2  0
 26 27  1  0
 27 19  1  0
 28 29  1  0
 28 17  1  0
 30 28  2  0
M  END
$$$$
