FFM.pdb
     RDKit          3D

 31 32  0  0  1  0  0  0  0  0999 V2000
    8.8812  -16.3378   19.2663 N   0  0  0  0  0  0  0  0  0  0  0  0
    9.8560  -15.3741   19.7199 C   0  0  1  0  0  0  0  0  0  0  0  0
    9.7903  -14.1258   18.8916 C   0  0  0  0  0  0  0  0  0  0  0  0
    9.1442  -14.2862   17.5840 C   0  0  0  0  0  0  0  0  0  0  0  0
    8.7957  -13.2108   16.7984 C   0  0  0  0  0  0  0  0  0  0  0  0
    8.1900  -13.3746   15.5728 C   0  0  0  0  0  0  0  0  0  0  0  0
    7.9231  -14.6467   15.1152 C   0  0  0  0  0  0  0  0  0  0  0  0
    8.2702  -15.7284   15.8983 C   0  0  0  0  0  0  0  0  0  0  0  0
    8.8713  -15.5658   17.1145 C   0  0  0  0  0  0  0  0  0  0  0  0
    9.8548  -15.1752   21.1645 C   0  0  0  0  0  0  0  0  0  0  0  0
   10.7956  -14.4863   21.6852 O   0  0  0  0  0  0  0  0  0  0  0  0
    8.8890  -15.6813   22.0718 N   0  0  0  0  0  0  0  0  0  0  0  0
    8.8834  -15.3809   23.4802 C   0  0  1  0  0  0  0  0  0  0  0  0
    7.4836  -15.3986   24.0585 C   0  0  0  0  0  0  0  0  0  0  0  0
    7.2277  -14.2503   24.9624 C   0  0  0  0  0  0  0  0  0  0  0  0
    6.3638  -14.2641   26.0316 C   0  0  0  0  0  0  0  0  0  0  0  0
    6.1608  -13.1682   26.8420 C   0  0  0  0  0  0  0  0  0  0  0  0
    6.8264  -11.9921   26.6111 C   0  0  0  0  0  0  0  0  0  0  0  0
    7.6974  -11.9628   25.5411 C   0  0  0  0  0  0  0  0  0  0  0  0
    7.9086  -13.0515   24.7242 C   0  0  0  0  0  0  0  0  0  0  0  0
    9.6848  -16.3686   24.2217 C   0  0  0  0  0  0  0  0  0  0  0  0
   10.8897  -16.5249   23.9065 O   0  0  0  0  0  0  0  0  0  0  0  0
    9.4746  -12.8578   28.6750 C   0  0  0  0  0  0  0  0  0  0  0  0
   10.0901  -14.4619   29.3076 S   0  0  0  0  0  0  0  0  0  0  0  0
   10.5841  -15.4417   27.8638 C   0  0  0  0  0  0  0  0  0  0  0  0
    9.6114  -16.5475   27.6109 C   0  0  0  0  0  0  0  0  0  0  0  0
    9.9949  -17.4233   26.4234 C   0  0  2  0  0  0  0  0  0  0  0  0
    9.1708  -17.1606   25.2848 N   0  0  0  0  0  0  0  0  0  0  0  0
    9.8842  -18.8139   26.8522 C   0  0  0  0  0  0  0  0  0  0  0  0
   10.6171  -19.3425   27.7190 O   0  0  0  0  0  0  0  0  0  0  0  0
    8.8967  -19.6252   26.2641 O   0  0  0  0  0  0  0  0  0  0  0  0
  2  1  1  1
  2 10  1  0
  2  3  1  0
  3  4  1  0
  4  9  2  0
  5  6  2  0
  5  4  1  0
  6  7  1  0
  7  8  2  0
  9  8  1  0
 10 11  2  0
 12 13  1  0
 12 10  1  0
 13 21  1  0
 13 14  1  1
 15 14  1  0
 15 16  2  0
 17 16  1  0
 18 17  2  0
 19 20  2  0
 19 18  1  0
 20 15  1  0
 21 22  2  0
 21 28  1  0
 23 24  1  0
 24 25  1  0
 26 25  1  0
 27 26  1  1
 28 27  1  0
 29 31  1  0
 29 27  1  0
 30 29  2  0
M  END
$$$$
