FFM.pdb
     RDKit          3D

 31 32  0  0  1  0  0  0  0  0999 V2000
    8.6663  -21.2924   22.1024 N   0  0  0  0  0  0  0  0  0  0  0  0
    7.8837  -20.5582   23.0684 C   0  0  1  0  0  0  0  0  0  0  0  0
    7.9332  -21.2292   24.4085 C   0  0  0  0  0  0  0  0  0  0  0  0
    9.2744  -21.6299   24.8488 C   0  0  0  0  0  0  0  0  0  0  0  0
   10.0348  -22.5433   24.1542 C   0  0  0  0  0  0  0  0  0  0  0  0
   11.2923  -22.9109   24.5777 C   0  0  0  0  0  0  0  0  0  0  0  0
   11.8086  -22.3528   25.7270 C   0  0  0  0  0  0  0  0  0  0  0  0
   11.0510  -21.4367   26.4274 C   0  0  0  0  0  0  0  0  0  0  0  0
    9.8031  -21.0719   26.0070 C   0  0  0  0  0  0  0  0  0  0  0  0
    8.1489  -19.1242   23.0691 C   0  0  0  0  0  0  0  0  0  0  0  0
    9.1171  -18.6837   22.3624 O   0  0  0  0  0  0  0  0  0  0  0  0
    7.4207  -18.1452   23.7925 N   0  0  0  0  0  0  0  0  0  0  0  0
    7.5864  -16.7272   23.6039 C   0  0  1  0  0  0  0  0  0  0  0  0
    6.5103  -15.9310   24.3126 C   0  0  0  0  0  0  0  0  0  0  0  0
    6.5469  -14.4895   23.9633 C   0  0  0  0  0  0  0  0  0  0  0  0
    6.7780  -13.9877   22.7045 C   0  0  0  0  0  0  0  0  0  0  0  0
    6.8024  -12.6372   22.4318 C   0  0  0  0  0  0  0  0  0  0  0  0
    6.5927  -11.7169   23.4261 C   0  0  0  0  0  0  0  0  0  0  0  0
    6.3594  -12.2056   24.6953 C   0  0  0  0  0  0  0  0  0  0  0  0
    6.3326  -13.5529   24.9802 C   0  0  0  0  0  0  0  0  0  0  0  0
    8.8881  -16.2851   24.1306 C   0  0  0  0  0  0  0  0  0  0  0  0
    9.3231  -15.1573   23.7920 O   0  0  0  0  0  0  0  0  0  0  0  0
    8.7678  -13.1966   28.7495 C   0  0  0  0  0  0  0  0  0  0  0  0
   10.1168  -14.4106   28.9918 S   0  0  0  0  0  0  0  0  0  0  0  0
    9.9022  -15.6939   27.7285 C   0  0  0  0  0  0  0  0  0  0  0  0
   10.5870  -15.3109   26.4568 C   0  0  0  0  0  0  0  0  0  0  0  0
   10.8841  -16.5027   25.5536 C   0  0  2  0  0  0  0  0  0  0  0  0
    9.6872  -17.0657   25.0103 N   0  0  0  0  0  0  0  0  0  0  0  0
   11.6202  -17.4806   26.3483 C   0  0  0  0  0  0  0  0  0  0  0  0
   11.1411  -18.5673   26.7452 O   0  0  0  0  0  0  0  0  0  0  0  0
   12.9533  -17.1998   26.6991 O   0  0  0  0  0  0  0  0  0  0  0  0
  2  1  1  6
  2 10  1  0
  2  3  1  0
  3  4  1  0
  4  9  2  0
  5  6  2  0
  5  4  1  0
  6  7  1  0
  7  8  2  0
  9  8  1  0
 10 11  2  0
 12 13  1  0
 12 10  1  0
 13 21  1  0
 13 14  1  1
 15 14  1  0
 15 16  2  0
 17 16  1  0
 18 17  2  0
 19 20  2  0
 19 18  1  0
 20 15  1  0
 21 22  2  0
 21 28  1  0
 23 24  1  0
 24 25  1  0
 26 25  1  0
 27 26  1  1
 28 27  1  0
 29 31  1  0
 29 27  1  0
 30 29  2  0
M  END
$$$$
