FFM.pdb
     RDKit          3D

 31 32  0  0  1  0  0  0  0  0999 V2000
    9.5832  -18.7682   19.1114 N   0  0  0  0  0  0  0  0  0  0  0  0
    9.1537  -18.9015   20.4834 C   0  0  1  0  0  0  0  0  0  0  0  0
    9.8199  -20.0769   21.1339 C   0  0  0  0  0  0  0  0  0  0  0  0
    9.0853  -21.3422   21.0224 C   0  0  0  0  0  0  0  0  0  0  0  0
    8.1441  -21.7310   21.9487 C   0  0  0  0  0  0  0  0  0  0  0  0
    7.4612  -22.9209   21.8326 C   0  0  0  0  0  0  0  0  0  0  0  0
    7.7227  -23.7489   20.7626 C   0  0  0  0  0  0  0  0  0  0  0  0
    8.6650  -23.3644   19.8309 C   0  0  0  0  0  0  0  0  0  0  0  0
    9.3426  -22.1835   19.9462 C   0  0  0  0  0  0  0  0  0  0  0  0
    9.1993  -17.6529   21.2355 C   0  0  0  0  0  0  0  0  0  0  0  0
   10.1483  -16.8324   20.9967 O   0  0  0  0  0  0  0  0  0  0  0  0
    8.2717  -17.2474   22.2290 N   0  0  0  0  0  0  0  0  0  0  0  0
    8.3800  -16.0147   22.9656 C   0  0  1  0  0  0  0  0  0  0  0  0
    7.0229  -15.4594   23.3451 C   0  0  0  0  0  0  0  0  0  0  0  0
    7.1222  -14.2597   24.2125 C   0  0  0  0  0  0  0  0  0  0  0  0
    7.8751  -13.1438   23.9337 C   0  0  0  0  0  0  0  0  0  0  0  0
    7.9341  -12.0536   24.7744 C   0  0  0  0  0  0  0  0  0  0  0  0
    7.2291  -12.0354   25.9501 C   0  0  0  0  0  0  0  0  0  0  0  0
    6.4685  -13.1487   26.2437 C   0  0  0  0  0  0  0  0  0  0  0  0
    6.4015  -14.2442   25.4115 C   0  0  0  0  0  0  0  0  0  0  0  0
    9.1407  -16.2217   24.2090 C   0  0  0  0  0  0  0  0  0  0  0  0
    8.6427  -16.9446   25.1062 O   0  0  0  0  0  0  0  0  0  0  0  0
    8.4687  -14.0258   28.9695 C   0  0  0  0  0  0  0  0  0  0  0  0
   10.2127  -14.3179   29.4443 S   0  0  0  0  0  0  0  0  0  0  0  0
   10.9205  -15.4223   28.1921 C   0  0  0  0  0  0  0  0  0  0  0  0
   10.3209  -15.1601   26.8488 C   0  0  0  0  0  0  0  0  0  0  0  0
   11.0541  -15.8699   25.7161 C   0  0  2  0  0  0  0  0  0  0  0  0
   10.4185  -15.6485   24.4544 N   0  0  0  0  0  0  0  0  0  0  0  0
   11.1003  -17.2903   26.0478 C   0  0  0  0  0  0  0  0  0  0  0  0
   10.1824  -18.1022   25.7904 O   0  0  0  0  0  0  0  0  0  0  0  0
   12.2412  -17.7951   26.6979 O   0  0  0  0  0  0  0  0  0  0  0  0
  2  1  1  6
  2 10  1  0
  2  3  1  0
  3  4  1  0
  4  9  2  0
  5  6  2  0
  5  4  1  0
  6  7  1  0
  7  8  2  0
  9  8  1  0
 10 11  2  0
 12 13  1  0
 12 10  1  0
 13 21  1  0
 13 14  1  1
 15 14  1  0
 15 16  2  0
 17 16  1  0
 18 17  2  0
 19 20  2  0
 19 18  1  0
 20 15  1  0
 21 22  2  0
 21 28  1  0
 23 24  1  0
 24 25  1  0
 26 25  1  0
 27 26  1  1
 28 27  1  0
 29 31  1  0
 29 27  1  0
 30 29  2  0
M  END
$$$$
