FFM.pdb
     RDKit          3D

 31 32  0  0  1  0  0  0  0  0999 V2000
    8.4038  -17.5114   20.3625 N   0  0  0  0  0  0  0  0  0  0  0  0
    9.4876  -16.5780   20.5596 C   0  0  1  0  0  0  0  0  0  0  0  0
    9.6068  -15.6512   19.3868 C   0  0  0  0  0  0  0  0  0  0  0  0
    8.6395  -14.5479   19.3713 C   0  0  0  0  0  0  0  0  0  0  0  0
    7.3289  -14.7235   18.9886 C   0  0  0  0  0  0  0  0  0  0  0  0
    6.4307  -13.6799   18.9785 C   0  0  0  0  0  0  0  0  0  0  0  0
    6.8493  -12.4240   19.3609 C   0  0  0  0  0  0  0  0  0  0  0  0
    8.1619  -12.2420   19.7456 C   0  0  0  0  0  0  0  0  0  0  0  0
    9.0531  -13.2776   19.7554 C   0  0  0  0  0  0  0  0  0  0  0  0
    9.4805  -15.9405   21.8711 C   0  0  0  0  0  0  0  0  0  0  0  0
   10.5692  -15.4368   22.3093 O   0  0  0  0  0  0  0  0  0  0  0  0
    8.3579  -15.8192   22.7295 N   0  0  0  0  0  0  0  0  0  0  0  0
    8.3928  -15.1351   23.9963 C   0  0  1  0  0  0  0  0  0  0  0  0
    7.0423  -14.5581   24.3669 C   0  0  0  0  0  0  0  0  0  0  0  0
    7.0681  -13.8401   25.6651 C   0  0  0  0  0  0  0  0  0  0  0  0
    6.6272  -14.3549   26.8611 C   0  0  0  0  0  0  0  0  0  0  0  0
    6.6724  -13.6453   28.0415 C   0  0  0  0  0  0  0  0  0  0  0  0
    7.1698  -12.3682   28.0737 C   0  0  0  0  0  0  0  0  0  0  0  0
    7.6163  -11.8377   26.8805 C   0  0  0  0  0  0  0  0  0  0  0  0
    7.5763  -12.5370   25.6946 C   0  0  0  0  0  0  0  0  0  0  0  0
    8.7932  -16.0586   25.0707 C   0  0  0  0  0  0  0  0  0  0  0  0
    8.1351  -17.1151   25.2330 O   0  0  0  0  0  0  0  0  0  0  0  0
   15.1682  -16.8014   26.9761 C   0  0  0  0  0  0  0  0  0  0  0  0
   14.2395  -16.6530   25.4052 S   0  0  0  0  0  0  0  0  0  0  0  0
   12.5590  -16.1247   25.8360 C   0  0  0  0  0  0  0  0  0  0  0  0
   11.8127  -17.2240   26.5197 C   0  0  0  0  0  0  0  0  0  0  0  0
   10.3521  -16.8797   26.7889 C   0  0  2  0  0  0  0  0  0  0  0  0
    9.8928  -15.8238   25.9410 N   0  0  0  0  0  0  0  0  0  0  0  0
   10.2409  -16.5181   28.1984 C   0  0  0  0  0  0  0  0  0  0  0  0
   10.5070  -17.2926   29.1456 O   0  0  0  0  0  0  0  0  0  0  0  0
    9.8089  -15.2211   28.5307 O   0  0  0  0  0  0  0  0  0  0  0  0
  2  1  1  6
  2 10  1  0
  2  3  1  0
  3  4  1  0
  4  9  2  0
  5  6  2  0
  5  4  1  0
  6  7  1  0
  7  8  2  0
  9  8  1  0
 10 11  2  0
 12 13  1  0
 12 10  1  0
 13 21  1  0
 13 14  1  1
 15 14  1  0
 15 16  2  0
 17 16  1  0
 18 17  2  0
 19 20  2  0
 19 18  1  0
 20 15  1  0
 21 22  2  0
 21 28  1  0
 23 24  1  0
 24 25  1  0
 26 25  1  0
 27 26  1  6
 28 27  1  0
 29 31  1  0
 29 27  1  0
 30 29  2  0
M  END
$$$$
