FFM.pdb
     RDKit          3D

 31 32  0  0  1  0  0  0  0  0999 V2000
   10.5871  -15.7070   20.2350 N   0  0  0  0  0  0  0  0  0  0  0  0
    9.6451  -15.2251   21.2173 C   0  0  1  0  0  0  0  0  0  0  0  0
    8.2418  -15.5727   20.8189 C   0  0  0  0  0  0  0  0  0  0  0  0
    7.6543  -14.6953   19.8000 C   0  0  0  0  0  0  0  0  0  0  0  0
    7.3656  -13.3720   20.0461 C   0  0  0  0  0  0  0  0  0  0  0  0
    6.8145  -12.5588   19.0814 C   0  0  0  0  0  0  0  0  0  0  0  0
    6.5425  -13.0780   17.8343 C   0  0  0  0  0  0  0  0  0  0  0  0
    6.8298  -14.4037   17.5818 C   0  0  0  0  0  0  0  0  0  0  0  0
    7.3767  -15.2106   18.5392 C   0  0  0  0  0  0  0  0  0  0  0  0
   10.0118  -15.5518   22.5904 C   0  0  0  0  0  0  0  0  0  0  0  0
   11.0370  -16.2871   22.7884 O   0  0  0  0  0  0  0  0  0  0  0  0
    9.3282  -15.1232   23.7570 N   0  0  0  0  0  0  0  0  0  0  0  0
    9.8554  -15.2693   25.0892 C   0  0  1  0  0  0  0  0  0  0  0  0
    8.9365  -14.6675   26.1321 C   0  0  0  0  0  0  0  0  0  0  0  0
    9.4642  -14.8202   27.5103 C   0  0  0  0  0  0  0  0  0  0  0  0
    9.2918  -15.9295   28.3036 C   0  0  0  0  0  0  0  0  0  0  0  0
    9.8028  -16.0217   29.5800 C   0  0  0  0  0  0  0  0  0  0  0  0
   10.5205  -14.9883   30.1246 C   0  0  0  0  0  0  0  0  0  0  0  0
   10.7021  -13.8676   29.3401 C   0  0  0  0  0  0  0  0  0  0  0  0
   10.1963  -13.7638   28.0632 C   0  0  0  0  0  0  0  0  0  0  0  0
   10.0340  -16.6927   25.4202 C   0  0  0  0  0  0  0  0  0  0  0  0
    9.0227  -17.4357   25.4487 O   0  0  0  0  0  0  0  0  0  0  0  0
   14.2607  -20.9959   23.4758 C   0  0  0  0  0  0  0  0  0  0  0  0
   14.1954  -21.5368   25.2237 S   0  0  0  0  0  0  0  0  0  0  0  0
   12.7245  -20.7701   25.9567 C   0  0  0  0  0  0  0  0  0  0  0  0
   12.6123  -19.3361   25.5523 C   0  0  0  0  0  0  0  0  0  0  0  0
   11.3552  -18.6590   26.0867 C   0  0  2  0  0  0  0  0  0  0  0  0
   11.2957  -17.2810   25.7093 N   0  0  0  0  0  0  0  0  0  0  0  0
   11.3583  -18.8145   27.5378 C   0  0  0  0  0  0  0  0  0  0  0  0
   10.5679  -19.5545   28.1669 O   0  0  0  0  0  0  0  0  0  0  0  0
   12.3027  -18.0945   28.2920 O   0  0  0  0  0  0  0  0  0  0  0  0
  2  1  1  6
  2 10  1  0
  2  3  1  0
  3  4  1  0
  4  9  2  0
  5  6  2  0
  5  4  1  0
  6  7  1  0
  7  8  2  0
  9  8  1  0
 10 11  2  0
 12 13  1  0
 12 10  1  0
 13 21  1  0
 13 14  1  1
 15 14  1  0
 15 16  2  0
 17 16  1  0
 18 17  2  0
 19 20  2  0
 19 18  1  0
 20 15  1  0
 21 22  2  0
 21 28  1  0
 23 24  1  0
 24 25  1  0
 26 25  1  0
 27 26  1  1
 28 27  1  0
 29 31  1  0
 29 27  1  0
 30 29  2  0
M  END
$$$$
