FFM.pdb
     RDKit          3D

 31 32  0  0  1  0  0  0  0  0999 V2000
    8.3108  -18.0091   21.1551 N   0  0  0  0  0  0  0  0  0  0  0  0
    8.5077  -16.6038   20.8883 C   0  0  1  0  0  0  0  0  0  0  0  0
    7.6119  -16.1464   19.7762 C   0  0  0  0  0  0  0  0  0  0  0  0
    7.6677  -14.7081   19.4908 C   0  0  0  0  0  0  0  0  0  0  0  0
    8.5917  -13.8759   20.0813 C   0  0  0  0  0  0  0  0  0  0  0  0
    8.6339  -12.5277   19.8049 C   0  0  0  0  0  0  0  0  0  0  0  0
    7.7295  -11.9916   18.9141 C   0  0  0  0  0  0  0  0  0  0  0  0
    6.8010  -12.8209   18.3191 C   0  0  0  0  0  0  0  0  0  0  0  0
    6.7592  -14.1588   18.5935 C   0  0  0  0  0  0  0  0  0  0  0  0
    8.5017  -15.7735   22.0872 C   0  0  0  0  0  0  0  0  0  0  0  0
    7.9000  -14.6479   22.0453 O   0  0  0  0  0  0  0  0  0  0  0  0
    9.1108  -16.0993   23.3261 N   0  0  0  0  0  0  0  0  0  0  0  0
    8.9647  -15.3064   24.5194 C   0  0  1  0  0  0  0  0  0  0  0  0
    7.5187  -15.2019   24.9577 C   0  0  0  0  0  0  0  0  0  0  0  0
    7.2335  -13.9369   25.6785 C   0  0  0  0  0  0  0  0  0  0  0  0
    8.1111  -13.2898   26.5155 C   0  0  0  0  0  0  0  0  0  0  0  0
    7.7969  -12.1147   27.1632 C   0  0  0  0  0  0  0  0  0  0  0  0
    6.5688  -11.5286   26.9964 C   0  0  0  0  0  0  0  0  0  0  0  0
    5.6768  -12.1666   26.1589 C   0  0  0  0  0  0  0  0  0  0  0  0
    5.9793  -13.3412   25.5062 C   0  0  0  0  0  0  0  0  0  0  0  0
    9.7256  -15.9013   25.6306 C   0  0  0  0  0  0  0  0  0  0  0  0
    9.7917  -15.2768   26.7174 O   0  0  0  0  0  0  0  0  0  0  0  0
   10.2955  -13.6328   28.9111 C   0  0  0  0  0  0  0  0  0  0  0  0
   10.4900  -15.3441   29.5322 S   0  0  0  0  0  0  0  0  0  0  0  0
   10.1796  -16.4509   28.1296 C   0  0  0  0  0  0  0  0  0  0  0  0
   11.4130  -17.2128   27.7676 C   0  0  0  0  0  0  0  0  0  0  0  0
   11.6157  -17.3452   26.2624 C   0  0  2  0  0  0  0  0  0  0  0  0
   10.3933  -17.1538   25.5455 N   0  0  0  0  0  0  0  0  0  0  0  0
   12.1789  -18.6680   26.0119 C   0  0  0  0  0  0  0  0  0  0  0  0
   13.2777  -19.0613   26.4657 O   0  0  0  0  0  0  0  0  0  0  0  0
   11.4539  -19.5702   25.2122 O   0  0  0  0  0  0  0  0  0  0  0  0
  2  1  1  1
  2 10  1  0
  2  3  1  0
  3  4  1  0
  4  9  2  0
  5  6  2  0
  5  4  1  0
  6  7  1  0
  7  8  2  0
  9  8  1  0
 10 11  2  0
 12 13  1  0
 12 10  1  0
 13 21  1  0
 13 14  1  1
 15 14  1  0
 15 16  2  0
 17 16  1  0
 18 17  2  0
 19 20  2  0
 19 18  1  0
 20 15  1  0
 21 22  2  0
 21 28  1  0
 23 24  1  0
 24 25  1  0
 26 25  1  0
 27 26  1  1
 28 27  1  0
 29 31  1  0
 29 27  1  0
 30 29  2  0
M  END
$$$$
