FFM.pdb
     RDKit          3D

 31 32  0  0  1  0  0  0  0  0999 V2000
    7.9705  -15.7897   21.2145 N   0  0  0  0  0  0  0  0  0  0  0  0
    9.2228  -15.0758   21.2976 C   0  0  1  0  0  0  0  0  0  0  0  0
    9.1076  -13.7291   20.6481 C   0  0  0  0  0  0  0  0  0  0  0  0
    8.3648  -13.7158   19.3827 C   0  0  0  0  0  0  0  0  0  0  0  0
    7.2119  -12.9830   19.2137 C   0  0  0  0  0  0  0  0  0  0  0  0
    6.5240  -12.9787   18.0209 C   0  0  0  0  0  0  0  0  0  0  0  0
    6.9978  -13.7261   16.9647 C   0  0  0  0  0  0  0  0  0  0  0  0
    8.1530  -14.4627   17.1282 C   0  0  0  0  0  0  0  0  0  0  0  0
    8.8355  -14.4669   18.3119 C   0  0  0  0  0  0  0  0  0  0  0  0
    9.8159  -15.0866   22.6298 C   0  0  0  0  0  0  0  0  0  0  0  0
   10.9782  -14.5802   22.7831 O   0  0  0  0  0  0  0  0  0  0  0  0
    9.2161  -15.6147   23.8017 N   0  0  0  0  0  0  0  0  0  0  0  0
    9.6698  -15.3134   25.1349 C   0  0  1  0  0  0  0  0  0  0  0  0
    8.5271  -15.2774   26.1284 C   0  0  0  0  0  0  0  0  0  0  0  0
    7.7297  -14.0299   26.0323 C   0  0  0  0  0  0  0  0  0  0  0  0
    6.3728  -13.9745   25.8186 C   0  0  0  0  0  0  0  0  0  0  0  0
    5.6776  -12.7876   25.7366 C   0  0  0  0  0  0  0  0  0  0  0  0
    6.3238  -11.5856   25.8676 C   0  0  0  0  0  0  0  0  0  0  0  0
    7.6864  -11.6251   26.0825 C   0  0  0  0  0  0  0  0  0  0  0  0
    8.3921  -12.8049   26.1663 C   0  0  0  0  0  0  0  0  0  0  0  0
   10.6294  -16.3304   25.5957 C   0  0  0  0  0  0  0  0  0  0  0  0
   11.8183  -15.9858   25.8042 O   0  0  0  0  0  0  0  0  0  0  0  0
   11.3038  -14.1683   29.6799 C   0  0  0  0  0  0  0  0  0  0  0  0
   11.2115  -15.9784   29.9392 S   0  0  0  0  0  0  0  0  0  0  0  0
   11.7666  -16.7590   28.3993 C   0  0  0  0  0  0  0  0  0  0  0  0
   11.0084  -18.0194   28.1363 C   0  0  0  0  0  0  0  0  0  0  0  0
   11.1029  -18.4845   26.6875 C   0  0  2  0  0  0  0  0  0  0  0  0
   10.2854  -17.6911   25.8231 N   0  0  0  0  0  0  0  0  0  0  0  0
   10.7086  -19.8892   26.6528 C   0  0  0  0  0  0  0  0  0  0  0  0
   11.2888  -20.7978   27.2899 O   0  0  0  0  0  0  0  0  0  0  0  0
    9.6093  -20.2626   25.8583 O   0  0  0  0  0  0  0  0  0  0  0  0
  2  1  1  1
  2 10  1  0
  2  3  1  0
  3  4  1  0
  4  9  2  0
  5  6  2  0
  5  4  1  0
  6  7  1  0
  7  8  2  0
  9  8  1  0
 10 11  2  0
 12 13  1  0
 12 10  1  0
 13 21  1  0
 13 14  1  1
 15 14  1  0
 15 16  2  0
 17 16  1  0
 18 17  2  0
 19 20  2  0
 19 18  1  0
 20 15  1  0
 21 22  2  0
 21 28  1  0
 23 24  1  0
 24 25  1  0
 26 25  1  0
 27 26  1  1
 28 27  1  0
 29 31  1  0
 29 27  1  0
 30 29  2  0
M  END
$$$$
