FFM.pdb
     RDKit          3D

 31 32  0  0  1  0  0  0  0  0999 V2000
    5.5884  -18.1709   24.2945 N   0  0  0  0  0  0  0  0  0  0  0  0
    6.3136  -16.9262   24.3917 C   0  0  1  0  0  0  0  0  0  0  0  0
    6.2205  -16.3674   25.7801 C   0  0  0  0  0  0  0  0  0  0  0  0
    6.5428  -14.9404   25.8938 C   0  0  0  0  0  0  0  0  0  0  0  0
    5.5763  -13.9613   25.8438 C   0  0  0  0  0  0  0  0  0  0  0  0
    5.8916  -12.6254   25.9519 C   0  0  0  0  0  0  0  0  0  0  0  0
    7.2081  -12.2525   26.1148 C   0  0  0  0  0  0  0  0  0  0  0  0
    8.1812  -13.2295   26.1657 C   0  0  0  0  0  0  0  0  0  0  0  0
    7.8682  -14.5552   26.0584 C   0  0  0  0  0  0  0  0  0  0  0  0
    7.6547  -16.9835   23.8218 C   0  0  0  0  0  0  0  0  0  0  0  0
    8.2945  -18.0871   23.8800 O   0  0  0  0  0  0  0  0  0  0  0  0
    8.3362  -15.9104   23.1924 N   0  0  0  0  0  0  0  0  0  0  0  0
    9.6476  -16.0309   22.6096 C   0  0  1  0  0  0  0  0  0  0  0  0
    9.9962  -14.8370   21.7452 C   0  0  0  0  0  0  0  0  0  0  0  0
    8.8251  -14.3146   20.9989 C   0  0  0  0  0  0  0  0  0  0  0  0
    7.8838  -15.0894   20.3637 C   0  0  0  0  0  0  0  0  0  0  0  0
    6.8125  -14.5541   19.6820 C   0  0  0  0  0  0  0  0  0  0  0  0
    6.6363  -13.1966   19.6069 C   0  0  0  0  0  0  0  0  0  0  0  0
    7.5733  -12.4056   20.2398 C   0  0  0  0  0  0  0  0  0  0  0  0
    8.6480  -12.9288   20.9241 C   0  0  0  0  0  0  0  0  0  0  0  0
   10.6723  -16.1341   23.6616 C   0  0  0  0  0  0  0  0  0  0  0  0
   11.4465  -15.1632   23.8455 O   0  0  0  0  0  0  0  0  0  0  0  0
   10.1118  -13.0780   28.7560 C   0  0  0  0  0  0  0  0  0  0  0  0
   10.4002  -14.8859   28.7338 S   0  0  0  0  0  0  0  0  0  0  0  0
   10.8884  -15.3196   27.0419 C   0  0  0  0  0  0  0  0  0  0  0  0
   11.0067  -16.8007   26.8835 C   0  0  0  0  0  0  0  0  0  0  0  0
   11.7297  -17.2110   25.6055 C   0  0  2  0  0  0  0  0  0  0  0  0
   10.8364  -17.2774   24.4908 N   0  0  0  0  0  0  0  0  0  0  0  0
   12.3645  -18.5007   25.8574 C   0  0  0  0  0  0  0  0  0  0  0  0
   13.4173  -18.6484   26.5192 O   0  0  0  0  0  0  0  0  0  0  0  0
   11.7687  -19.6610   25.3303 O   0  0  0  0  0  0  0  0  0  0  0  0
  2  1  1  1
  2 10  1  0
  2  3  1  0
  3  4  1  0
  4  9  2  0
  5  6  2  0
  5  4  1  0
  6  7  1  0
  7  8  2  0
  9  8  1  0
 10 11  2  0
 12 13  1  0
 12 10  1  0
 13 21  1  0
 13 14  1  1
 15 14  1  0
 15 16  2  0
 17 16  1  0
 18 17  2  0
 19 20  2  0
 19 18  1  0
 20 15  1  0
 21 22  2  0
 21 28  1  0
 23 24  1  0
 24 25  1  0
 26 25  1  0
 27 26  1  1
 28 27  1  0
 29 31  1  0
 29 27  1  0
 30 29  2  0
M  END
$$$$
