FFM.pdb
     RDKit          3D

 31 32  0  0  1  0  0  0  0  0999 V2000
   11.4500  -17.0234   19.3196 N   0  0  0  0  0  0  0  0  0  0  0  0
   10.3343  -17.3882   20.1603 C   0  0  1  0  0  0  0  0  0  0  0  0
   10.3864  -18.8468   20.5042 C   0  0  0  0  0  0  0  0  0  0  0  0
    9.6222  -19.7202   19.6063 C   0  0  0  0  0  0  0  0  0  0  0  0
    9.5000  -21.0739   19.8243 C   0  0  0  0  0  0  0  0  0  0  0  0
    8.7797  -21.8829   18.9743 C   0  0  0  0  0  0  0  0  0  0  0  0
    8.1625  -21.3281   17.8743 C   0  0  0  0  0  0  0  0  0  0  0  0
    8.2814  -19.9717   17.6507 C   0  0  0  0  0  0  0  0  0  0  0  0
    8.9962  -19.1690   18.4943 C   0  0  0  0  0  0  0  0  0  0  0  0
   10.1254  -16.4810   21.2828 C   0  0  0  0  0  0  0  0  0  0  0  0
   11.1473  -15.9534   21.8378 O   0  0  0  0  0  0  0  0  0  0  0  0
    8.8700  -16.1154   21.8327 N   0  0  0  0  0  0  0  0  0  0  0  0
    8.7222  -15.2994   23.0101 C   0  0  1  0  0  0  0  0  0  0  0  0
    7.3661  -14.6275   23.0682 C   0  0  0  0  0  0  0  0  0  0  0  0
    7.1931  -13.8013   24.2884 C   0  0  0  0  0  0  0  0  0  0  0  0
    7.7424  -12.5563   24.4835 C   0  0  0  0  0  0  0  0  0  0  0  0
    7.5516  -11.8285   25.6379 C   0  0  0  0  0  0  0  0  0  0  0  0
    6.7892  -12.3260   26.6630 C   0  0  0  0  0  0  0  0  0  0  0  0
    6.2310  -13.5750   26.4817 C   0  0  0  0  0  0  0  0  0  0  0  0
    6.4146  -14.3119   25.3326 C   0  0  0  0  0  0  0  0  0  0  0  0
    8.8673  -16.1168   24.2259 C   0  0  0  0  0  0  0  0  0  0  0  0
    8.3663  -17.2677   24.2411 O   0  0  0  0  0  0  0  0  0  0  0  0
    9.9942  -13.9208   30.1454 C   0  0  0  0  0  0  0  0  0  0  0  0
    9.5824  -13.6165   28.3876 S   0  0  0  0  0  0  0  0  0  0  0  0
   10.8161  -14.5033   27.3975 C   0  0  0  0  0  0  0  0  0  0  0  0
   10.6609  -15.9816   27.5504 C   0  0  0  0  0  0  0  0  0  0  0  0
   10.0045  -16.6434   26.3440 C   0  0  2  0  0  0  0  0  0  0  0  0
    9.5499  -15.6769   25.3931 N   0  0  0  0  0  0  0  0  0  0  0  0
    8.9029  -17.4619   26.8402 C   0  0  0  0  0  0  0  0  0  0  0  0
    7.7060  -17.3060   26.5069 O   0  0  0  0  0  0  0  0  0  0  0  0
    9.1868  -18.4957   27.7511 O   0  0  0  0  0  0  0  0  0  0  0  0
  2  1  1  1
  2 10  1  0
  2  3  1  0
  3  4  1  0
  4  9  2  0
  5  6  2  0
  5  4  1  0
  6  7  1  0
  7  8  2  0
  9  8  1  0
 10 11  2  0
 12 13  1  0
 12 10  1  0
 13 21  1  0
 13 14  1  6
 15 14  1  0
 15 16  2  0
 17 16  1  0
 18 17  2  0
 19 20  2  0
 19 18  1  0
 20 15  1  0
 21 22  2  0
 21 28  1  0
 23 24  1  0
 24 25  1  0
 26 25  1  0
 27 26  1  1
 28 27  1  0
 29 31  1  0
 29 27  1  0
 30 29  2  0
M  END
$$$$
