FFM.pdb
     RDKit          3D

 31 32  0  0  1  0  0  0  0  0999 V2000
    5.8466  -20.1740   24.2146 N   0  0  0  0  0  0  0  0  0  0  0  0
    6.2203  -18.7798   24.2484 C   0  0  1  0  0  0  0  0  0  0  0  0
    6.3122  -18.2915   25.6633 C   0  0  0  0  0  0  0  0  0  0  0  0
    6.6407  -16.8684   25.8048 C   0  0  0  0  0  0  0  0  0  0  0  0
    7.8811  -16.4369   26.2173 C   0  0  0  0  0  0  0  0  0  0  0  0
    8.1771  -15.0984   26.3459 C   0  0  0  0  0  0  0  0  0  0  0  0
    7.2097  -14.1611   26.0554 C   0  0  0  0  0  0  0  0  0  0  0  0
    5.9645  -14.5877   25.6415 C   0  0  0  0  0  0  0  0  0  0  0  0
    5.6709  -15.9160   25.5138 C   0  0  0  0  0  0  0  0  0  0  0  0
    7.3563  -18.4568   23.3930 C   0  0  0  0  0  0  0  0  0  0  0  0
    8.4207  -19.1534   23.5053 O   0  0  0  0  0  0  0  0  0  0  0  0
    7.3984  -17.4219   22.4238 N   0  0  0  0  0  0  0  0  0  0  0  0
    8.5217  -17.1901   21.5529 C   0  0  1  0  0  0  0  0  0  0  0  0
    8.1656  -16.2763   20.3987 C   0  0  0  0  0  0  0  0  0  0  0  0
    7.8951  -14.8852   20.8380 C   0  0  0  0  0  0  0  0  0  0  0  0
    6.8015  -14.4866   21.5693 C   0  0  0  0  0  0  0  0  0  0  0  0
    6.5957  -13.1791   21.9527 C   0  0  0  0  0  0  0  0  0  0  0  0
    7.4925  -12.1992   21.6134 C   0  0  0  0  0  0  0  0  0  0  0  0
    8.5956  -12.5841   20.8791 C   0  0  0  0  0  0  0  0  0  0  0  0
    8.8122  -13.8875   20.4902 C   0  0  0  0  0  0  0  0  0  0  0  0
    9.6282  -16.5623   22.2939 C   0  0  0  0  0  0  0  0  0  0  0  0
   10.7202  -16.3776   21.7030 O   0  0  0  0  0  0  0  0  0  0  0  0
   11.2540  -13.8480   29.0819 C   0  0  0  0  0  0  0  0  0  0  0  0
   10.8903  -12.9918   27.5049 S   0  0  0  0  0  0  0  0  0  0  0  0
   11.4434  -14.0891   26.1712 C   0  0  0  0  0  0  0  0  0  0  0  0
   10.2848  -14.5649   25.3564 C   0  0  0  0  0  0  0  0  0  0  0  0
   10.6779  -15.5849   24.2936 C   0  0  2  0  0  0  0  0  0  0  0  0
    9.5311  -16.1467   23.6502 N   0  0  0  0  0  0  0  0  0  0  0  0
   11.4783  -16.6136   24.9500 C   0  0  0  0  0  0  0  0  0  0  0  0
   11.0245  -17.7125   25.3433 O   0  0  0  0  0  0  0  0  0  0  0  0
   12.8477  -16.3710   25.1618 O   0  0  0  0  0  0  0  0  0  0  0  0
  2  1  1  1
  2 10  1  0
  2  3  1  0
  3  4  1  0
  4  9  2  0
  5  6  2  0
  5  4  1  0
  6  7  1  0
  7  8  2  0
  9  8  1  0
 10 11  2  0
 12 13  1  0
 12 10  1  0
 13 21  1  0
 13 14  1  6
 15 14  1  0
 15 16  2  0
 17 16  1  0
 18 17  2  0
 19 20  2  0
 19 18  1  0
 20 15  1  0
 21 22  2  0
 21 28  1  0
 23 24  1  0
 24 25  1  0
 26 25  1  0
 27 26  1  1
 28 27  1  0
 29 31  1  0
 29 27  1  0
 30 29  2  0
M  END
$$$$
