FFM.pdb
     RDKit          3D

 31 32  0  0  1  0  0  0  0  0999 V2000
   10.4935  -16.5707   19.2483 N   0  0  0  0  0  0  0  0  0  0  0  0
    9.5095  -16.9596   20.2308 C   0  0  1  0  0  0  0  0  0  0  0  0
    9.5613  -18.4384   20.4740 C   0  0  0  0  0  0  0  0  0  0  0  0
    8.6575  -19.2338   19.6352 C   0  0  0  0  0  0  0  0  0  0  0  0
    8.7650  -19.2667   18.2632 C   0  0  0  0  0  0  0  0  0  0  0  0
    7.9107  -20.0174   17.4870 C   0  0  0  0  0  0  0  0  0  0  0  0
    6.9197  -20.7575   18.0943 C   0  0  0  0  0  0  0  0  0  0  0  0
    6.8071  -20.7284   19.4692 C   0  0  0  0  0  0  0  0  0  0  0  0
    7.6549  -19.9834   20.2394 C   0  0  0  0  0  0  0  0  0  0  0  0
    9.5107  -16.1220   21.4245 C   0  0  0  0  0  0  0  0  0  0  0  0
   10.6336  -15.7839   21.9301 O   0  0  0  0  0  0  0  0  0  0  0  0
    8.3616  -15.6317   22.0962 N   0  0  0  0  0  0  0  0  0  0  0  0
    8.4171  -14.8468   23.3024 C   0  0  1  0  0  0  0  0  0  0  0  0
    7.0744  -14.2344   23.6431 C   0  0  0  0  0  0  0  0  0  0  0  0
    7.0861  -13.5300   24.9488 C   0  0  0  0  0  0  0  0  0  0  0  0
    7.7559  -12.3578   25.2078 C   0  0  0  0  0  0  0  0  0  0  0  0
    7.7353  -11.7426   26.4406 C   0  0  0  0  0  0  0  0  0  0  0  0
    7.0306  -12.2854   27.4838 C   0  0  0  0  0  0  0  0  0  0  0  0
    6.3529  -13.4624   27.2392 C   0  0  0  0  0  0  0  0  0  0  0  0
    6.3659  -14.0865   26.0114 C   0  0  0  0  0  0  0  0  0  0  0  0
    8.8287  -15.6819   24.4429 C   0  0  0  0  0  0  0  0  0  0  0  0
    8.0824  -16.6268   24.7976 O   0  0  0  0  0  0  0  0  0  0  0  0
   14.8288  -16.1711   25.5409 C   0  0  0  0  0  0  0  0  0  0  0  0
   14.0814  -17.6460   24.7545 S   0  0  0  0  0  0  0  0  0  0  0  0
   12.2824  -17.4361   24.8468 C   0  0  0  0  0  0  0  0  0  0  0  0
   11.8884  -16.7613   26.1204 C   0  0  0  0  0  0  0  0  0  0  0  0
   10.4038  -16.4203   26.1837 C   0  0  2  0  0  0  0  0  0  0  0  0
   10.0335  -15.4812   25.1708 N   0  0  0  0  0  0  0  0  0  0  0  0
   10.1317  -15.8988   27.5192 C   0  0  0  0  0  0  0  0  0  0  0  0
   10.1283  -16.5967   28.5589 O   0  0  0  0  0  0  0  0  0  0  0  0
    9.8537  -14.5274   27.6649 O   0  0  0  0  0  0  0  0  0  0  0  0
  2  1  1  6
  2 10  1  0
  2  3  1  0
  3  4  1  0
  4  9  2  0
  5  6  2  0
  5  4  1  0
  6  7  1  0
  7  8  2  0
  9  8  1  0
 10 11  2  0
 12 13  1  0
 12 10  1  0
 13 21  1  0
 13 14  1  1
 15 14  1  0
 15 16  2  0
 17 16  1  0
 18 17  2  0
 19 20  2  0
 19 18  1  0
 20 15  1  0
 21 22  2  0
 21 28  1  0
 23 24  1  0
 24 25  1  0
 26 25  1  0
 27 26  1  1
 28 27  1  0
 29 31  1  0
 29 27  1  0
 30 29  2  0
M  END
$$$$
