FFM.pdb
     RDKit          3D

 31 32  0  0  1  0  0  0  0  0999 V2000
   11.0199  -16.9562   20.0965 N   0  0  0  0  0  0  0  0  0  0  0  0
   10.0493  -17.3005   21.1085 C   0  0  1  0  0  0  0  0  0  0  0  0
   10.2644  -18.7038   21.5914 C   0  0  0  0  0  0  0  0  0  0  0  0
   10.1704  -19.7353   20.5520 C   0  0  0  0  0  0  0  0  0  0  0  0
    8.9647  -20.1479   20.0315 C   0  0  0  0  0  0  0  0  0  0  0  0
    8.8898  -21.1168   19.0561 C   0  0  0  0  0  0  0  0  0  0  0  0
   10.0496  -21.6924   18.5845 C   0  0  0  0  0  0  0  0  0  0  0  0
   11.2611  -21.2828   19.1025 C   0  0  0  0  0  0  0  0  0  0  0  0
   11.3353  -20.3213   20.0704 C   0  0  0  0  0  0  0  0  0  0  0  0
    9.9039  -16.2891   22.1490 C   0  0  0  0  0  0  0  0  0  0  0  0
   10.9360  -15.6246   22.5008 O   0  0  0  0  0  0  0  0  0  0  0  0
    8.7011  -15.9602   22.8251 N   0  0  0  0  0  0  0  0  0  0  0  0
    8.6241  -14.9961   23.8921 C   0  0  1  0  0  0  0  0  0  0  0  0
    7.2322  -14.4159   24.0332 C   0  0  0  0  0  0  0  0  0  0  0  0
    7.0956  -13.5514   25.2313 C   0  0  0  0  0  0  0  0  0  0  0  0
    6.4221  -13.8940   26.3796 C   0  0  0  0  0  0  0  0  0  0  0  0
    6.3237  -13.0531   27.4668 C   0  0  0  0  0  0  0  0  0  0  0  0
    6.9061  -11.8121   27.4488 C   0  0  0  0  0  0  0  0  0  0  0  0
    7.5860  -11.4539   26.3025 C   0  0  0  0  0  0  0  0  0  0  0  0
    7.6912  -12.2856   25.2097 C   0  0  0  0  0  0  0  0  0  0  0  0
    8.9798  -15.6195   25.1776 C   0  0  0  0  0  0  0  0  0  0  0  0
    8.2964  -16.5902   25.5854 O   0  0  0  0  0  0  0  0  0  0  0  0
   14.4487  -16.2363   23.6636 C   0  0  0  0  0  0  0  0  0  0  0  0
   13.8679  -15.4864   25.2297 S   0  0  0  0  0  0  0  0  0  0  0  0
   12.6746  -16.6431   25.9555 C   0  0  0  0  0  0  0  0  0  0  0  0
   12.0252  -16.0515   27.1643 C   0  0  0  0  0  0  0  0  0  0  0  0
   10.5041  -16.0128   27.0692 C   0  0  2  0  0  0  0  0  0  0  0  0
   10.0628  -15.1849   25.9899 N   0  0  0  0  0  0  0  0  0  0  0  0
    9.9981  -15.5324   28.3509 C   0  0  0  0  0  0  0  0  0  0  0  0
   10.2658  -16.0602   29.4545 O   0  0  0  0  0  0  0  0  0  0  0  0
    9.1552  -14.4061   28.3648 O   0  0  0  0  0  0  0  0  0  0  0  0
  2  1  1  6
  2 10  1  0
  2  3  1  0
  3  4  1  0
  4  9  2  0
  5  6  2  0
  5  4  1  0
  6  7  1  0
  7  8  2  0
  9  8  1  0
 10 11  2  0
 12 13  1  0
 12 10  1  0
 13 21  1  0
 13 14  1  1
 15 14  1  0
 15 16  2  0
 17 16  1  0
 18 17  2  0
 19 20  2  0
 19 18  1  0
 20 15  1  0
 21 22  2  0
 21 28  1  0
 23 24  1  0
 24 25  1  0
 26 25  1  0
 27 26  1  1
 28 27  1  0
 29 31  1  0
 29 27  1  0
 30 29  2  0
M  END
$$$$
