GCN.pdb
     RDKit          3D

 19 18  0  0  1  0  0  0  0  0999 V2000
   21.6387  -14.8062  -16.9273 N   0  0  0  0  0  0  0  0  0  0  0  0
   20.2959  -14.7215  -16.3911 C   0  0  0  0  0  0  0  0  0  0  0  0
   19.7610  -13.3753  -16.6983 C   0  0  0  0  0  0  0  0  0  0  0  0
   19.7840  -12.9721  -17.8886 O   0  0  0  0  0  0  0  0  0  0  0  0
   19.2220  -12.5075  -15.7247 N   0  0  0  0  0  0  0  0  0  0  0  0
   18.6019  -11.2436  -16.0931 C   0  0  1  0  0  0  0  0  0  0  0  0
   17.1459  -11.1731  -15.7324 C   0  0  0  0  0  0  0  0  0  0  0  0
   16.4778   -9.5139  -15.6480 S   0  0  0  0  0  0  0  0  0  0  0  0
   19.4071  -10.1074  -15.6037 C   0  0  0  0  0  0  0  0  0  0  0  0
   19.7082  -10.0285  -14.3704 O   0  0  0  0  0  0  0  0  0  0  0  0
   22.4066   -5.2788  -18.1268 N   0  0  0  0  0  0  0  0  0  0  0  0
   21.8966   -6.0426  -17.0494 C   0  0  0  0  0  0  0  0  0  0  0  0
   22.1543   -5.6603  -15.8871 O   0  0  0  0  0  0  0  0  0  0  0  0
   21.0929   -7.2408  -17.2626 C   0  0  0  0  0  0  0  0  0  0  0  0
   20.6610   -7.9532  -16.0036 C   0  0  2  0  0  0  0  0  0  0  0  0
   19.8594   -9.0972  -16.4648 N   0  0  0  0  0  0  0  0  0  0  0  0
   19.8564   -7.0942  -15.1031 C   0  0  0  0  0  0  0  0  0  0  0  0
   18.7093   -6.7428  -15.4393 O   0  0  0  0  0  0  0  0  0  0  0  0
   20.4221   -6.7044  -13.8916 O   0  0  0  0  0  0  0  0  0  0  0  0
  2  1  1  0
  3  2  1  0
  4  3  2  0
  5  3  1  0
  6  9  1  0
  6  5  1  0
  7  8  1  0
  6  7  1  1
  9 10  2  0
 11 12  1  0
 12 13  2  0
 14 12  1  0
 15 14  1  6
 16 15  1  0
 16  9  1  0
 17 19  1  0
 17 15  1  0
 18 17  2  0
M  END
$$$$
