GCN.pdb
     RDKit          3D

 19 18  0  0  1  0  0  0  0  0999 V2000
   28.0883  -19.0154  -14.4315 N   0  0  0  0  0  0  0  0  0  0  0  0
   28.3197  -20.3710  -13.9771 C   0  0  0  0  0  0  0  0  0  0  0  0
   27.0463  -20.8996  -13.4368 C   0  0  0  0  0  0  0  0  0  0  0  0
   26.2801  -21.5342  -14.2050 O   0  0  0  0  0  0  0  0  0  0  0  0
   26.6359  -20.7313  -12.0972 N   0  0  0  0  0  0  0  0  0  0  0  0
   25.2944  -21.0908  -11.6625 C   0  0  1  0  0  0  0  0  0  0  0  0
   25.1475  -21.1258  -10.1685 C   0  0  0  0  0  0  0  0  0  0  0  0
   26.4816  -20.3399   -9.2692 S   0  0  0  0  0  0  0  0  0  0  0  0
   24.2851  -20.2662  -12.3555 C   0  0  0  0  0  0  0  0  0  0  0  0
   24.6547  -19.2908  -13.0833 O   0  0  0  0  0  0  0  0  0  0  0  0
   23.8871  -19.1894  -15.4361 N   0  0  0  0  0  0  0  0  0  0  0  0
   23.1235  -20.3678  -15.6167 C   0  0  0  0  0  0  0  0  0  0  0  0
   22.7880  -20.6753  -16.7814 O   0  0  0  0  0  0  0  0  0  0  0  0
   22.7287  -21.2134  -14.4959 C   0  0  0  0  0  0  0  0  0  0  0  0
   21.9928  -20.5017  -13.3864 C   0  0  2  0  0  0  0  0  0  0  0  0
   22.9119  -20.5258  -12.2381 N   0  0  0  0  0  0  0  0  0  0  0  0
   20.7125  -21.1578  -13.0311 C   0  0  0  0  0  0  0  0  0  0  0  0
   20.7079  -22.3384  -12.6327 O   0  0  0  0  0  0  0  0  0  0  0  0
   19.5398  -20.4172  -13.1575 O   0  0  0  0  0  0  0  0  0  0  0  0
  2  1  1  0
  3  2  1  0
  4  3  2  0
  5  3  1  0
  6  9  1  0
  6  5  1  0
  7  8  1  0
  6  7  1  1
  9 10  2  0
 11 12  1  0
 12 13  2  0
 14 12  1  0
 15 14  1  6
 16 15  1  0
 16  9  1  0
 17 19  1  0
 17 15  1  0
 18 17  2  0
M  END
$$$$
