GCN.pdb
     RDKit          3D

 19 18  0  0  1  0  0  0  0  0999 V2000
   27.3299  -14.3866  -18.9470 N   0  0  0  0  0  0  0  0  0  0  0  0
   26.3263  -13.4402  -19.3884 C   0  0  0  0  0  0  0  0  0  0  0  0
   26.3614  -12.2729  -18.4780 C   0  0  0  0  0  0  0  0  0  0  0  0
   25.5527  -12.2306  -17.5167 O   0  0  0  0  0  0  0  0  0  0  0  0
   27.2570  -11.1925  -18.6265 N   0  0  0  0  0  0  0  0  0  0  0  0
   27.2723  -10.0831  -17.6847 C   0  0  1  0  0  0  0  0  0  0  0  0
   28.6488   -9.5344  -17.4413 C   0  0  0  0  0  0  0  0  0  0  0  0
   29.7704  -10.6679  -16.6269 S   0  0  0  0  0  0  0  0  0  0  0  0
   26.2687   -9.0682  -18.0607 C   0  0  0  0  0  0  0  0  0  0  0  0
   26.2020   -8.6577  -19.2628 O   0  0  0  0  0  0  0  0  0  0  0  0
   21.9540   -5.9959  -17.7202 N   0  0  0  0  0  0  0  0  0  0  0  0
   21.9086   -7.1916  -16.9635 C   0  0  0  0  0  0  0  0  0  0  0  0
   20.8167   -7.5175  -16.4486 O   0  0  0  0  0  0  0  0  0  0  0  0
   23.0844   -8.0340  -16.7764 C   0  0  0  0  0  0  0  0  0  0  0  0
   24.3312   -7.5572  -17.4815 C   0  0  2  0  0  0  0  0  0  0  0  0
   25.3720   -8.5334  -17.1245 N   0  0  0  0  0  0  0  0  0  0  0  0
   24.7424   -6.1954  -17.0664 C   0  0  0  0  0  0  0  0  0  0  0  0
   25.2369   -6.0118  -15.9375 O   0  0  0  0  0  0  0  0  0  0  0  0
   24.5582   -5.1516  -17.9697 O   0  0  0  0  0  0  0  0  0  0  0  0
  2  1  1  0
  3  2  1  0
  4  3  2  0
  5  3  1  0
  6  9  1  0
  6  5  1  0
  7  8  1  0
  6  7  1  6
  9 10  2  0
 11 12  1  0
 12 13  2  0
 14 12  1  0
 15 14  1  1
 16 15  1  0
 16  9  1  0
 17 19  1  0
 17 15  1  0
 18 17  2  0
M  END
$$$$
