GCN.pdb
     RDKit          3D

 19 18  0  0  1  0  0  0  0  0999 V2000
   27.5841  -35.1217   -6.1789 N   0  0  0  0  0  0  0  0  0  0  0  0
   28.7433  -34.2576   -6.0930 C   0  0  0  0  0  0  0  0  0  0  0  0
   29.8387  -35.0185   -5.4497 C   0  0  0  0  0  0  0  0  0  0  0  0
   29.6274  -36.2086   -5.1045 O   0  0  0  0  0  0  0  0  0  0  0  0
   31.1192  -34.4823   -5.1967 N   0  0  0  0  0  0  0  0  0  0  0  0
   32.1396  -35.2489   -4.4973 C   0  0  1  0  0  0  0  0  0  0  0  0
   33.5370  -34.8037   -4.8197 C   0  0  0  0  0  0  0  0  0  0  0  0
   33.8834  -34.6416   -6.5690 S   0  0  0  0  0  0  0  0  0  0  0  0
   31.8393  -35.3183   -3.0538 C   0  0  0  0  0  0  0  0  0  0  0  0
   31.1965  -34.3743   -2.4940 O   0  0  0  0  0  0  0  0  0  0  0  0
   28.4297  -36.4661    0.7472 N   0  0  0  0  0  0  0  0  0  0  0  0
   29.7484  -36.1106    0.3741 C   0  0  0  0  0  0  0  0  0  0  0  0
   30.3642  -35.3007    1.1010 O   0  0  0  0  0  0  0  0  0  0  0  0
   30.3903  -36.6585   -0.8153 C   0  0  0  0  0  0  0  0  0  0  0  0
   31.8948  -36.5364   -0.8434 C   0  0  2  0  0  0  0  0  0  0  0  0
   32.2435  -36.4062   -2.2665 N   0  0  0  0  0  0  0  0  0  0  0  0
   32.5790  -37.7113   -0.2541 C   0  0  0  0  0  0  0  0  0  0  0  0
   33.1527  -38.5333   -0.9943 O   0  0  0  0  0  0  0  0  0  0  0  0
   32.5557  -37.8564    1.1308 O   0  0  0  0  0  0  0  0  0  0  0  0
  2  1  1  0
  3  2  1  0
  4  3  2  0
  5  3  1  0
  6  9  1  0
  6  5  1  0
  7  8  1  0
  6  7  1  1
  9 10  2  0
 11 12  1  0
 12 13  2  0
 14 12  1  0
 15 14  1  6
 16 15  1  0
 16  9  1  0
 17 19  1  0
 17 15  1  0
 18 17  2  0
M  END
$$$$
