GCN.pdb
     RDKit          3D

 19 18  0  0  1  0  0  0  0  0999 V2000
   28.2336  -21.8283  -15.6207 N   0  0  0  0  0  0  0  0  0  0  0  0
   27.7276  -20.6882  -14.8847 C   0  0  0  0  0  0  0  0  0  0  0  0
   26.7419  -21.1792  -13.8947 C   0  0  0  0  0  0  0  0  0  0  0  0
   26.1702  -22.2788  -14.1042 O   0  0  0  0  0  0  0  0  0  0  0  0
   26.4009  -20.4791  -12.7179 N   0  0  0  0  0  0  0  0  0  0  0  0
   25.3118  -20.9207  -11.8595 C   0  0  1  0  0  0  0  0  0  0  0  0
   25.4602  -20.4655  -10.4362 C   0  0  0  0  0  0  0  0  0  0  0  0
   25.2577  -21.7589   -9.2146 S   0  0  0  0  0  0  0  0  0  0  0  0
   24.0065  -20.6000  -12.4695 C   0  0  0  0  0  0  0  0  0  0  0  0
   23.7802  -19.4253  -12.9016 O   0  0  0  0  0  0  0  0  0  0  0  0
   23.2102  -23.4017  -15.7204 N   0  0  0  0  0  0  0  0  0  0  0  0
   22.3770  -22.3113  -15.3722 C   0  0  0  0  0  0  0  0  0  0  0  0
   22.4294  -21.2841  -16.0833 O   0  0  0  0  0  0  0  0  0  0  0  0
   21.4771  -22.3605  -14.2256 C   0  0  0  0  0  0  0  0  0  0  0  0
   21.6856  -21.2703  -13.2022 C   0  0  2  0  0  0  0  0  0  0  0  0
   22.9921  -21.5606  -12.5919 N   0  0  0  0  0  0  0  0  0  0  0  0
   20.6292  -21.2462  -12.1632 C   0  0  0  0  0  0  0  0  0  0  0  0
   20.8883  -21.6216  -11.0036 O   0  0  0  0  0  0  0  0  0  0  0  0
   19.3625  -20.7963  -12.5273 O   0  0  0  0  0  0  0  0  0  0  0  0
  2  1  1  0
  3  2  1  0
  4  3  2  0
  5  3  1  0
  6  9  1  0
  6  5  1  0
  7  8  1  0
  6  7  1  1
  9 10  2  0
 11 12  1  0
 12 13  2  0
 14 12  1  0
 15 14  1  6
 16 15  1  0
 16  9  1  0
 17 19  1  0
 17 15  1  0
 18 17  2  0
M  END
$$$$
