GCN.pdb
     RDKit          3D

 19 18  0  0  1  0  0  0  0  0999 V2000
   28.4953  -21.4055  -15.8440 N   0  0  0  0  0  0  0  0  0  0  0  0
   28.1368  -20.4056  -14.8594 C   0  0  0  0  0  0  0  0  0  0  0  0
   27.0671  -20.9656  -14.0022 C   0  0  0  0  0  0  0  0  0  0  0  0
   26.4040  -21.9462  -14.4249 O   0  0  0  0  0  0  0  0  0  0  0  0
   26.7427  -20.4589  -12.7258 N   0  0  0  0  0  0  0  0  0  0  0  0
   25.6283  -20.9926  -11.9569 C   0  0  1  0  0  0  0  0  0  0  0  0
   25.7752  -20.7784  -10.4779 C   0  0  0  0  0  0  0  0  0  0  0  0
   24.2348  -20.7961   -9.5651 S   0  0  0  0  0  0  0  0  0  0  0  0
   24.3427  -20.5300  -12.5155 C   0  0  0  0  0  0  0  0  0  0  0  0
   24.2009  -19.3127  -12.8559 O   0  0  0  0  0  0  0  0  0  0  0  0
   19.5324  -20.6440  -14.6992 N   0  0  0  0  0  0  0  0  0  0  0  0
   20.4334  -21.6628  -15.0925 C   0  0  0  0  0  0  0  0  0  0  0  0
   20.1343  -22.3562  -16.0892 O   0  0  0  0  0  0  0  0  0  0  0  0
   21.6777  -21.9147  -14.3747 C   0  0  0  0  0  0  0  0  0  0  0  0
   21.9629  -20.9645  -13.2367 C   0  0  2  0  0  0  0  0  0  0  0  0
   23.2561  -21.3997  -12.6872 N   0  0  0  0  0  0  0  0  0  0  0  0
   20.9213  -20.9987  -12.1832 C   0  0  0  0  0  0  0  0  0  0  0  0
   20.7002  -22.0554  -11.5610 O   0  0  0  0  0  0  0  0  0  0  0  0
   20.2150  -19.8272  -11.9220 O   0  0  0  0  0  0  0  0  0  0  0  0
  2  1  1  0
  3  2  1  0
  4  3  2  0
  5  3  1  0
  6  9  1  0
  6  5  1  0
  7  8  1  0
  6  7  1  1
  9 10  2  0
 11 12  1  0
 12 13  2  0
 14 12  1  0
 15 14  1  6
 16 15  1  0
 16  9  1  0
 17 19  1  0
 17 15  1  0
 18 17  2  0
M  END
$$$$
