GCN.pdb
     RDKit          3D

 19 18  0  0  1  0  0  0  0  0999 V2000
   26.1880  -13.7358  -19.8367 N   0  0  0  0  0  0  0  0  0  0  0  0
   26.2933  -12.2949  -19.9400 C   0  0  0  0  0  0  0  0  0  0  0  0
   25.8439  -11.7068  -18.6574 C   0  0  0  0  0  0  0  0  0  0  0  0
   24.6206  -11.7432  -18.3707 O   0  0  0  0  0  0  0  0  0  0  0  0
   26.7152  -11.1002  -17.7279 N   0  0  0  0  0  0  0  0  0  0  0  0
   26.2162  -10.4908  -16.5042 C   0  0  1  0  0  0  0  0  0  0  0  0
   27.2829  -10.2920  -15.4661 C   0  0  0  0  0  0  0  0  0  0  0  0
   28.2774  -11.7429  -15.1313 S   0  0  0  0  0  0  0  0  0  0  0  0
   25.4295   -9.2798  -16.8100 C   0  0  0  0  0  0  0  0  0  0  0  0
   25.7864   -8.5159  -17.7623 O   0  0  0  0  0  0  0  0  0  0  0  0
   22.1095   -6.0738  -18.9722 N   0  0  0  0  0  0  0  0  0  0  0  0
   21.8211   -7.2946  -18.3158 C   0  0  0  0  0  0  0  0  0  0  0  0
   20.6203   -7.6119  -18.1709 O   0  0  0  0  0  0  0  0  0  0  0  0
   22.8735   -8.1720  -17.8162 C   0  0  0  0  0  0  0  0  0  0  0  0
   23.4020   -7.8205  -16.4463 C   0  0  2  0  0  0  0  0  0  0  0  0
   24.2843   -8.9378  -16.0763 N   0  0  0  0  0  0  0  0  0  0  0  0
   22.3277   -7.6610  -15.4381 C   0  0  0  0  0  0  0  0  0  0  0  0
   21.7969   -6.5469  -15.2656 O   0  0  0  0  0  0  0  0  0  0  0  0
   21.9435   -8.7825  -14.7073 O   0  0  0  0  0  0  0  0  0  0  0  0
  2  1  1  0
  3  2  1  0
  4  3  2  0
  5  3  1  0
  6  9  1  0
  6  5  1  0
  7  8  1  0
  6  7  1  1
  9 10  2  0
 11 12  1  0
 12 13  2  0
 14 12  1  0
 15 14  1  6
 16 15  1  0
 16  9  1  0
 17 19  1  0
 17 15  1  0
 18 17  2  0
M  END
$$$$
