GCN.pdb
     RDKit          3D

 19 18  0  0  1  0  0  0  0  0999 V2000
   25.9147  -11.6965  -16.1624 N   0  0  0  0  0  0  0  0  0  0  0  0
   24.9739  -11.4787  -15.0829 C   0  0  0  0  0  0  0  0  0  0  0  0
   23.8751  -10.6278  -15.5939 C   0  0  0  0  0  0  0  0  0  0  0  0
   24.0219  -10.0494  -16.7003 O   0  0  0  0  0  0  0  0  0  0  0  0
   22.6601  -10.4235  -14.9059 N   0  0  0  0  0  0  0  0  0  0  0  0
   21.6070   -9.5833  -15.4564 C   0  0  1  0  0  0  0  0  0  0  0  0
   20.2273  -10.1028  -15.1706 C   0  0  0  0  0  0  0  0  0  0  0  0
   19.9327  -11.7804  -15.7231 S   0  0  0  0  0  0  0  0  0  0  0  0
   21.8176   -8.1719  -15.0790 C   0  0  0  0  0  0  0  0  0  0  0  0
   22.1772   -7.8793  -13.8946 O   0  0  0  0  0  0  0  0  0  0  0  0
   24.0875   -3.1698  -16.9891 N   0  0  0  0  0  0  0  0  0  0  0  0
   22.7811   -3.7022  -16.8695 C   0  0  0  0  0  0  0  0  0  0  0  0
   21.8337   -2.9004  -16.7181 O   0  0  0  0  0  0  0  0  0  0  0  0
   22.5227   -5.1367  -16.9189 C   0  0  0  0  0  0  0  0  0  0  0  0
   21.9083   -5.7190  -15.6689 C   0  0  2  0  0  0  0  0  0  0  0  0
   21.6329   -7.1266  -15.9955 N   0  0  0  0  0  0  0  0  0  0  0  0
   20.6578   -5.0323  -15.2681 C   0  0  0  0  0  0  0  0  0  0  0  0
   19.5599   -5.4410  -15.6929 O   0  0  0  0  0  0  0  0  0  0  0  0
   20.7570   -3.9355  -14.4157 O   0  0  0  0  0  0  0  0  0  0  0  0
  2  1  1  0
  3  2  1  0
  4  3  2  0
  5  3  1  0
  6  9  1  0
  6  5  1  0
  7  8  1  0
  6  7  1  1
  9 10  2  0
 11 12  1  0
 12 13  2  0
 14 12  1  0
 15 14  1  6
 16 15  1  0
 16  9  1  0
 17 19  1  0
 17 15  1  0
 18 17  2  0
M  END
$$$$
