GCN.pdb
     RDKit          3D

 19 18  0  0  1  0  0  0  0  0999 V2000
   14.9950  -14.6473  -14.0596 N   0  0  0  0  0  0  0  0  0  0  0  0
   15.0338  -13.7356  -15.1844 C   0  0  0  0  0  0  0  0  0  0  0  0
   16.2537  -12.9052  -15.0627 C   0  0  0  0  0  0  0  0  0  0  0  0
   16.8893  -12.9187  -13.9783 O   0  0  0  0  0  0  0  0  0  0  0  0
   16.7508  -12.0895  -16.1014 N   0  0  0  0  0  0  0  0  0  0  0  0
   17.8800  -11.1956  -15.8915 C   0  0  1  0  0  0  0  0  0  0  0  0
   19.1366  -11.6632  -16.5676 C   0  0  0  0  0  0  0  0  0  0  0  0
   20.5320  -10.5539  -16.3978 S   0  0  0  0  0  0  0  0  0  0  0  0
   17.5038   -9.8020  -16.1997 C   0  0  0  0  0  0  0  0  0  0  0  0
   16.9391   -9.5277  -17.3059 O   0  0  0  0  0  0  0  0  0  0  0  0
   16.7411   -4.5870  -15.4987 N   0  0  0  0  0  0  0  0  0  0  0  0
   16.1199   -5.4902  -14.6027 C   0  0  0  0  0  0  0  0  0  0  0  0
   15.2599   -5.0364  -13.8165 O   0  0  0  0  0  0  0  0  0  0  0  0
   16.4548   -6.9094  -14.5785 C   0  0  0  0  0  0  0  0  0  0  0  0
   17.4613   -7.3465  -15.6153 C   0  0  2  0  0  0  0  0  0  0  0  0
   17.7506   -8.7541  -15.3010 N   0  0  0  0  0  0  0  0  0  0  0  0
   18.7086   -6.5472  -15.5799 C   0  0  0  0  0  0  0  0  0  0  0  0
   18.6716   -5.3253  -15.8212 O   0  0  0  0  0  0  0  0  0  0  0  0
   19.8982   -7.2028  -15.2724 O   0  0  0  0  0  0  0  0  0  0  0  0
  2  1  1  0
  3  2  1  0
  4  3  2  0
  5  3  1  0
  6  9  1  0
  6  5  1  0
  7  8  1  0
  6  7  1  6
  9 10  2  0
 11 12  1  0
 12 13  2  0
 14 12  1  0
 15 14  1  1
 16 15  1  0
 16  9  1  0
 17 19  1  0
 17 15  1  0
 18 17  2  0
M  END
$$$$
