GCN.pdb
     RDKit          3D

 19 18  0  0  1  0  0  0  0  0999 V2000
   21.4006  -21.8867  -16.9835 N   0  0  0  0  0  0  0  0  0  0  0  0
   22.3017  -20.7833  -16.7224 C   0  0  0  0  0  0  0  0  0  0  0  0
   21.4972  -19.6328  -16.2515 C   0  0  0  0  0  0  0  0  0  0  0  0
   20.9331  -18.8999  -17.1029 O   0  0  0  0  0  0  0  0  0  0  0  0
   21.3245  -19.3048  -14.8899 N   0  0  0  0  0  0  0  0  0  0  0  0
   20.5207  -18.1633  -14.4792 C   0  0  1  0  0  0  0  0  0  0  0  0
   19.6419  -18.4548  -13.2970 C   0  0  0  0  0  0  0  0  0  0  0  0
   18.8241  -17.0205  -12.6039 S   0  0  0  0  0  0  0  0  0  0  0  0
   21.3636  -16.9606  -14.3309 C   0  0  0  0  0  0  0  0  0  0  0  0
   22.4760  -17.0377  -13.7190 O   0  0  0  0  0  0  0  0  0  0  0  0
   25.3499  -13.7661  -14.6614 N   0  0  0  0  0  0  0  0  0  0  0  0
   24.0443  -13.6501  -15.1965 C   0  0  0  0  0  0  0  0  0  0  0  0
   23.6980  -12.5417  -15.6602 O   0  0  0  0  0  0  0  0  0  0  0  0
   23.1143  -14.7733  -15.2183 C   0  0  0  0  0  0  0  0  0  0  0  0
   21.7501  -14.4851  -14.6394 C   0  0  2  0  0  0  0  0  0  0  0  0
   20.9748  -15.7173  -14.8502 N   0  0  0  0  0  0  0  0  0  0  0  0
   21.0773  -13.3385  -15.2941 C   0  0  0  0  0  0  0  0  0  0  0  0
   20.5005  -13.4970  -16.3872 O   0  0  0  0  0  0  0  0  0  0  0  0
   21.1145  -12.1033  -14.6518 O   0  0  0  0  0  0  0  0  0  0  0  0
  2  1  1  0
  3  2  1  0
  4  3  2  0
  5  3  1  0
  6  9  1  0
  6  5  1  0
  7  8  1  0
  6  7  1  1
  9 10  2  0
 11 12  1  0
 12 13  2  0
 14 12  1  0
 15 14  1  6
 16 15  1  0
 16  9  1  0
 17 19  1  0
 17 15  1  0
 18 17  2  0
M  END
$$$$
