GCN.pdb
     RDKit          3D

 19 18  0  0  1  0  0  0  0  0999 V2000
   12.6826  -12.8954  -10.7529 N   0  0  0  0  0  0  0  0  0  0  0  0
   12.5971  -11.5435  -11.2656 C   0  0  0  0  0  0  0  0  0  0  0  0
   13.7499  -10.7774  -10.7394 C   0  0  0  0  0  0  0  0  0  0  0  0
   13.7303  -10.4021   -9.5399 O   0  0  0  0  0  0  0  0  0  0  0  0
   14.8811  -10.4382  -11.5119 N   0  0  0  0  0  0  0  0  0  0  0  0
   15.9733   -9.6534  -10.9562 C   0  0  1  0  0  0  0  0  0  0  0  0
   17.2606   -9.8147  -11.7124 C   0  0  0  0  0  0  0  0  0  0  0  0
   17.9865  -11.4483  -11.6093 S   0  0  0  0  0  0  0  0  0  0  0  0
   15.5561   -8.2520  -10.7542 C   0  0  0  0  0  0  0  0  0  0  0  0
   14.7987   -7.6871  -11.6057 O   0  0  0  0  0  0  0  0  0  0  0  0
   14.1143   -4.1099   -7.0826 N   0  0  0  0  0  0  0  0  0  0  0  0
   15.4041   -4.5452   -7.4718 C   0  0  0  0  0  0  0  0  0  0  0  0
   16.3417   -3.7197   -7.4174 O   0  0  0  0  0  0  0  0  0  0  0  0
   15.6567   -5.9083   -7.9247 C   0  0  0  0  0  0  0  0  0  0  0  0
   15.5812   -6.1097   -9.4190 C   0  0  2  0  0  0  0  0  0  0  0  0
   15.9714   -7.5109   -9.6384 N   0  0  0  0  0  0  0  0  0  0  0  0
   16.4831   -5.2037  -10.1685 C   0  0  0  0  0  0  0  0  0  0  0  0
   17.6495   -5.5592  -10.4248 O   0  0  0  0  0  0  0  0  0  0  0  0
   15.9848   -3.9656  -10.5666 O   0  0  0  0  0  0  0  0  0  0  0  0
  2  1  1  0
  3  2  1  0
  4  3  2  0
  5  3  1  0
  6  9  1  0
  6  5  1  0
  7  8  1  0
  6  7  1  6
  9 10  2  0
 11 12  1  0
 12 13  2  0
 14 12  1  0
 15 14  1  1
 16 15  1  0
 16  9  1  0
 17 19  1  0
 17 15  1  0
 18 17  2  0
M  END
$$$$
