GCN.pdb
     RDKit          3D

 19 18  0  0  1  0  0  0  0  0999 V2000
   28.6459   -5.7997  -17.9163 N   0  0  0  0  0  0  0  0  0  0  0  0
   28.2835   -6.4735  -19.1461 C   0  0  0  0  0  0  0  0  0  0  0  0
   27.4954   -7.6775  -18.7969 C   0  0  0  0  0  0  0  0  0  0  0  0
   26.9094   -8.3045  -19.7153 O   0  0  0  0  0  0  0  0  0  0  0  0
   27.3598   -8.1684  -17.4809 N   0  0  0  0  0  0  0  0  0  0  0  0
   26.5953   -9.3731  -17.1941 C   0  0  1  0  0  0  0  0  0  0  0  0
   26.9969  -10.0348  -15.9074 C   0  0  0  0  0  0  0  0  0  0  0  0
   27.9172  -11.5577  -16.1074 S   0  0  0  0  0  0  0  0  0  0  0  0
   25.1479   -9.1124  -17.3201 C   0  0  0  0  0  0  0  0  0  0  0  0
   24.6032   -8.2060  -16.6133 O   0  0  0  0  0  0  0  0  0  0  0  0
   21.0321   -7.4074  -20.6419 N   0  0  0  0  0  0  0  0  0  0  0  0
   21.3815   -8.6832  -20.1374 C   0  0  0  0  0  0  0  0  0  0  0  0
   20.4750   -9.5375  -20.0273 O   0  0  0  0  0  0  0  0  0  0  0  0
   22.7483   -9.0151  -19.7520 C   0  0  0  0  0  0  0  0  0  0  0  0
   22.8996   -9.5896  -18.3641 C   0  0  2  0  0  0  0  0  0  0  0  0
   24.3405   -9.8398  -18.2064 N   0  0  0  0  0  0  0  0  0  0  0  0
   22.1379  -10.8467  -18.1750 C   0  0  0  0  0  0  0  0  0  0  0  0
   22.6867  -11.9448  -18.3887 O   0  0  0  0  0  0  0  0  0  0  0  0
   20.8126  -10.7530  -17.7573 O   0  0  0  0  0  0  0  0  0  0  0  0
  2  1  1  0
  3  2  1  0
  4  3  2  0
  5  3  1  0
  6  9  1  0
  6  5  1  0
  7  8  1  0
  6  7  1  1
  9 10  2  0
 11 12  1  0
 12 13  2  0
 14 12  1  0
 15 14  1  6
 16 15  1  0
 16  9  1  0
 17 19  1  0
 17 15  1  0
 18 17  2  0
M  END
$$$$
