GCN.pdb
     RDKit          3D

 19 18  0  0  1  0  0  0  0  0999 V2000
   15.2819  -65.3120  -18.1582 N   0  0  0  0  0  0  0  0  0  0  0  0
   14.4831  -66.1087  -19.0665 C   0  0  0  0  0  0  0  0  0  0  0  0
   15.3378  -67.1926  -19.6026 C   0  0  0  0  0  0  0  0  0  0  0  0
   15.8534  -67.0502  -20.7400 O   0  0  0  0  0  0  0  0  0  0  0  0
   15.6106  -68.3895  -18.9066 N   0  0  0  0  0  0  0  0  0  0  0  0
   16.4244  -68.3985  -17.7001 C   0  0  1  0  0  0  0  0  0  0  0  0
   16.1019  -69.5397  -16.7790 C   0  0  0  0  0  0  0  0  0  0  0  0
   16.6277  -71.1463  -17.3695 S   0  0  0  0  0  0  0  0  0  0  0  0
   17.8558  -68.2729  -18.0378 C   0  0  0  0  0  0  0  0  0  0  0  0
   18.6538  -67.7159  -17.2187 O   0  0  0  0  0  0  0  0  0  0  0  0
   18.9532  -68.4648  -22.3386 N   0  0  0  0  0  0  0  0  0  0  0  0
   19.3321  -67.2995  -21.6294 C   0  0  0  0  0  0  0  0  0  0  0  0
   19.1082  -66.1909  -22.1628 O   0  0  0  0  0  0  0  0  0  0  0  0
   19.9644  -67.3638  -20.3168 C   0  0  0  0  0  0  0  0  0  0  0  0
   19.8024  -68.6787  -19.5930 C   0  0  2  0  0  0  0  0  0  0  0  0
   18.3744  -68.7546  -19.2484 N   0  0  0  0  0  0  0  0  0  0  0  0
   20.6303  -68.7670  -18.3670 C   0  0  0  0  0  0  0  0  0  0  0  0
   21.8348  -68.4505  -18.4055 O   0  0  0  0  0  0  0  0  0  0  0  0
   20.0205  -69.2084  -17.1953 O   0  0  0  0  0  0  0  0  0  0  0  0
  2  1  1  0
  3  2  1  0
  4  3  2  0
  5  3  1  0
  6  9  1  0
  6  5  1  0
  7  8  1  0
  6  7  1  6
  9 10  2  0
 11 12  1  0
 12 13  2  0
 14 12  1  0
 15 14  1  1
 16 15  1  0
 16  9  1  0
 17 19  1  0
 17 15  1  0
 18 17  2  0
M  END
$$$$
