GCN.pdb
     RDKit          3D

 19 18  0  0  1  0  0  0  0  0999 V2000
   25.1637  -12.1934  -20.1225 N   0  0  0  0  0  0  0  0  0  0  0  0
   24.5512  -12.1825  -18.8101 C   0  0  0  0  0  0  0  0  0  0  0  0
   23.6091  -11.0416  -18.7506 C   0  0  0  0  0  0  0  0  0  0  0  0
   23.5493  -10.2545  -19.7288 O   0  0  0  0  0  0  0  0  0  0  0  0
   22.7659  -10.7809  -17.6496 N   0  0  0  0  0  0  0  0  0  0  0  0
   21.7646   -9.7256  -17.6923 C   0  0  1  0  0  0  0  0  0  0  0  0
   20.3576  -10.2482  -17.7385 C   0  0  0  0  0  0  0  0  0  0  0  0
   19.0941   -9.0168  -17.4329 S   0  0  0  0  0  0  0  0  0  0  0  0
   22.0114   -8.7317  -16.6292 C   0  0  0  0  0  0  0  0  0  0  0  0
   22.2133   -9.1184  -15.4344 O   0  0  0  0  0  0  0  0  0  0  0  0
   23.9092   -3.9582  -14.6956 N   0  0  0  0  0  0  0  0  0  0  0  0
   22.9948   -3.9437  -15.7764 C   0  0  0  0  0  0  0  0  0  0  0  0
   22.3826   -2.8790  -16.0110 O   0  0  0  0  0  0  0  0  0  0  0  0
   22.7574   -5.1203  -16.6049 C   0  0  0  0  0  0  0  0  0  0  0  0
   22.2851   -6.3438  -15.8573 C   0  0  2  0  0  0  0  0  0  0  0  0
   22.0323   -7.3549  -16.8953 N   0  0  0  0  0  0  0  0  0  0  0  0
   21.0532   -6.0983  -15.0709 C   0  0  0  0  0  0  0  0  0  0  0  0
   21.1352   -5.7895  -13.8665 O   0  0  0  0  0  0  0  0  0  0  0  0
   19.8267   -6.2237  -15.7186 O   0  0  0  0  0  0  0  0  0  0  0  0
  2  1  1  0
  3  2  1  0
  4  3  2  0
  5  3  1  0
  6  9  1  0
  6  5  1  0
  7  8  1  0
  6  7  1  1
  9 10  2  0
 11 12  1  0
 12 13  2  0
 14 12  1  0
 15 14  1  6
 16 15  1  0
 16  9  1  0
 17 19  1  0
 17 15  1  0
 18 17  2  0
M  END
$$$$
