ADN.pdb
     RDKit          3D

 22 21  0  0  1  0  0  0  0  0999 V2000
   19.2108  -12.1728  -18.6961 C   0  0  0  0  0  0  0  0  0  0  0  0
   20.0316  -11.5527  -17.5885 C   0  0  2  0  0  0  0  0  0  0  0  0
   20.3572  -12.5172  -16.5577 N   0  0  0  0  0  0  0  0  0  0  0  0
   19.2915  -10.3895  -17.0321 C   0  0  0  0  0  0  0  0  0  0  0  0
   19.0288   -9.3525  -17.6930 O   0  0  0  0  0  0  0  0  0  0  0  0
   18.8192  -10.3825  -15.6645 N   0  0  0  0  0  0  0  0  0  0  0  0
   18.1132   -9.2664  -15.0963 C   0  0  1  0  0  0  0  0  0  0  0  0
   17.0537   -9.6889  -14.1119 C   0  0  0  0  0  0  0  0  0  0  0  0
   15.9034  -10.3504  -14.7542 C   0  0  0  0  0  0  0  0  0  0  0  0
   15.2339   -9.8559  -15.6933 O   0  0  0  0  0  0  0  0  0  0  0  0
   19.0720   -8.2894  -14.5251 C   0  0  0  0  0  0  0  0  0  0  0  0
   20.0889   -8.6451  -13.8653 O   0  0  0  0  0  0  0  0  0  0  0  0
   15.5415  -11.6049  -14.2834 O   0  0  0  0  0  0  0  0  0  0  0  0
   21.8153   -4.1355  -13.5838 N   0  0  0  0  0  0  0  0  0  0  0  0
   22.2583   -5.2458  -14.3856 C   0  0  0  0  0  0  0  0  0  0  0  0
   23.4942   -5.3017  -14.6768 O   0  0  0  0  0  0  0  0  0  0  0  0
   21.2881   -6.2657  -14.8392 C   0  0  0  0  0  0  0  0  0  0  0  0
   19.9279   -5.9204  -14.3094 C   0  0  2  0  0  0  0  0  0  0  0  0
   18.9113   -6.8731  -14.6828 N   0  0  0  0  0  0  0  0  0  0  0  0
   19.5168   -4.5196  -14.5522 C   0  0  0  0  0  0  0  0  0  0  0  0
   19.6712   -3.4960  -13.6253 O   0  0  0  0  0  0  0  0  0  0  0  0
   18.9934   -4.1887  -15.6450 O   0  0  0  0  0  0  0  0  0  0  0  0
  2  1  1  6
  3  2  1  0
  4  6  1  0
  4  2  1  0
  5  4  2  0
  7  6  1  0
  7 11  1  0
  7  8  1  1
  9  8  1  0
 10  9  2  0
 11 19  1  0
 12 11  2  0
 13  9  1  0
 15 14  1  0
 16 15  2  0
 17 15  1  0
 18 20  1  0
 18 17  1  6
 19 18  1  0
 20 21  1  0
 22 20  2  0
M  END
$$$$
