ADN.pdb
     RDKit          3D

 22 21  0  0  1  0  0  0  0  0999 V2000
   17.0634  -15.6602  -17.8134 C   0  0  0  0  0  0  0  0  0  0  0  0
   18.1954  -14.7413  -17.4142 C   0  0  2  0  0  0  0  0  0  0  0  0
   18.7353  -15.0884  -16.1154 N   0  0  0  0  0  0  0  0  0  0  0  0
   17.7105  -13.3362  -17.4449 C   0  0  0  0  0  0  0  0  0  0  0  0
   17.3654  -12.7431  -18.4986 O   0  0  0  0  0  0  0  0  0  0  0  0
   17.6051  -12.5500  -16.2348 N   0  0  0  0  0  0  0  0  0  0  0  0
   17.1030  -11.2029  -16.2295 C   0  0  1  0  0  0  0  0  0  0  0  0
   15.6619  -11.1212  -15.7980 C   0  0  0  0  0  0  0  0  0  0  0  0
   15.1279   -9.7475  -15.8346 C   0  0  0  0  0  0  0  0  0  0  0  0
   15.3462   -8.9257  -16.7574 O   0  0  0  0  0  0  0  0  0  0  0  0
   17.9933  -10.3264  -15.4298 C   0  0  0  0  0  0  0  0  0  0  0  0
   18.7520  -10.7763  -14.5255 O   0  0  0  0  0  0  0  0  0  0  0  0
   14.3307   -9.3421  -14.7733 O   0  0  0  0  0  0  0  0  0  0  0  0
   21.8731   -7.8318  -13.4066 N   0  0  0  0  0  0  0  0  0  0  0  0
   21.4896   -7.7098  -14.7886 C   0  0  0  0  0  0  0  0  0  0  0  0
   22.0465   -6.7945  -15.4723 O   0  0  0  0  0  0  0  0  0  0  0  0
   20.4823   -8.6284  -15.3617 C   0  0  0  0  0  0  0  0  0  0  0  0
   19.1108   -8.0840  -15.0926 C   0  0  2  0  0  0  0  0  0  0  0  0
   18.0546   -8.9074  -15.6282 N   0  0  0  0  0  0  0  0  0  0  0  0
   18.9467   -6.6520  -15.4286 C   0  0  0  0  0  0  0  0  0  0  0  0
   19.1822   -5.6152  -14.5340 O   0  0  0  0  0  0  0  0  0  0  0  0
   18.5749   -6.3048  -16.5771 O   0  0  0  0  0  0  0  0  0  0  0  0
  2  1  1  1
  3  2  1  0
  4  6  1  0
  4  2  1  0
  5  4  2  0
  7  6  1  0
  7 11  1  0
  7  8  1  1
  9  8  1  0
 10  9  2  0
 11 19  1  0
 12 11  2  0
 13  9  1  0
 15 14  1  0
 16 15  2  0
 17 15  1  0
 18 20  1  0
 18 17  1  6
 19 18  1  0
 20 21  1  0
 22 20  2  0
M  END
$$$$
