ADN.pdb
     RDKit          3D

 22 21  0  0  1  0  0  0  0  0999 V2000
   18.6087  -12.5137  -18.1336 C   0  0  0  0  0  0  0  0  0  0  0  0
   19.3790  -11.3351  -18.6837 C   0  0  2  0  0  0  0  0  0  0  0  0
   20.7822  -11.6480  -18.8629 N   0  0  0  0  0  0  0  0  0  0  0  0
   19.1917  -10.1706  -17.7785 C   0  0  0  0  0  0  0  0  0  0  0  0
   18.0715   -9.6553  -17.5322 O   0  0  0  0  0  0  0  0  0  0  0  0
   20.3146   -9.5472  -17.1124 N   0  0  0  0  0  0  0  0  0  0  0  0
   20.1560   -8.4661  -16.1780 C   0  0  1  0  0  0  0  0  0  0  0  0
   21.1816   -8.4960  -15.0748 C   0  0  0  0  0  0  0  0  0  0  0  0
   20.9586   -7.4555  -14.0544 C   0  0  0  0  0  0  0  0  0  0  0  0
   21.3331   -6.2629  -14.1634 O   0  0  0  0  0  0  0  0  0  0  0  0
   20.1210   -7.1684  -16.8956 C   0  0  0  0  0  0  0  0  0  0  0  0
   20.9070   -6.8996  -17.8474 O   0  0  0  0  0  0  0  0  0  0  0  0
   20.2885   -7.8272  -12.8971 O   0  0  0  0  0  0  0  0  0  0  0  0
   19.0515   -2.4532  -18.4575 N   0  0  0  0  0  0  0  0  0  0  0  0
   18.1711   -3.4695  -18.9712 C   0  0  0  0  0  0  0  0  0  0  0  0
   17.4028   -3.1481  -19.9313 O   0  0  0  0  0  0  0  0  0  0  0  0
   18.1824   -4.8262  -18.3825 C   0  0  0  0  0  0  0  0  0  0  0  0
   19.1538   -4.8582  -17.2400 C   0  0  2  0  0  0  0  0  0  0  0  0
   19.1920   -6.1290  -16.5589 N   0  0  0  0  0  0  0  0  0  0  0  0
   19.0384   -3.7132  -16.3096 C   0  0  0  0  0  0  0  0  0  0  0  0
   18.8943   -3.8452  -14.9339 O   0  0  0  0  0  0  0  0  0  0  0  0
   19.0673   -2.5342  -16.7421 O   0  0  0  0  0  0  0  0  0  0  0  0
  2  1  1  1
  3  2  1  0
  4  6  1  0
  4  2  1  0
  5  4  2  0
  7  6  1  0
  7 11  1  0
  7  8  1  1
  9  8  1  0
 10  9  2  0
 11 19  1  0
 12 11  2  0
 13  9  1  0
 15 14  1  0
 16 15  2  0
 17 15  1  0
 18 20  1  0
 18 17  1  6
 19 18  1  0
 20 21  1  0
 22 20  2  0
M  END
$$$$
