ADN.pdb
     RDKit          3D

 22 21  0  0  1  0  0  0  0  0999 V2000
   20.8787  -12.3699  -20.4172 C   0  0  0  0  0  0  0  0  0  0  0  0
   21.7804  -11.6354  -19.4516 C   0  0  2  0  0  0  0  0  0  0  0  0
   22.5477  -12.5509  -18.6319 N   0  0  0  0  0  0  0  0  0  0  0  0
   20.9544  -10.7208  -18.6199 C   0  0  0  0  0  0  0  0  0  0  0  0
   20.2714   -9.7773  -19.0937 O   0  0  0  0  0  0  0  0  0  0  0  0
   20.8868  -10.8664  -17.1820 N   0  0  0  0  0  0  0  0  0  0  0  0
   20.0572  -10.0294  -16.3585 C   0  0  1  0  0  0  0  0  0  0  0  0
   19.3461  -10.7999  -15.2766 C   0  0  0  0  0  0  0  0  0  0  0  0
   18.2029  -11.5805  -15.7836 C   0  0  0  0  0  0  0  0  0  0  0  0
   17.3378  -11.1380  -16.5777 O   0  0  0  0  0  0  0  0  0  0  0  0
   20.8438   -8.8884  -15.8296 C   0  0  0  0  0  0  0  0  0  0  0  0
   22.1040   -8.9163  -15.7449 O   0  0  0  0  0  0  0  0  0  0  0  0
   18.0808  -12.8930  -15.3491 O   0  0  0  0  0  0  0  0  0  0  0  0
   23.4644   -4.0819  -16.3163 N   0  0  0  0  0  0  0  0  0  0  0  0
   22.8221   -4.9894  -15.4019 C   0  0  0  0  0  0  0  0  0  0  0  0
   22.9103   -4.7302  -14.1608 O   0  0  0  0  0  0  0  0  0  0  0  0
   22.0961   -6.1702  -15.9175 C   0  0  0  0  0  0  0  0  0  0  0  0
   20.9831   -6.5142  -14.9726 C   0  0  2  0  0  0  0  0  0  0  0  0
   20.2283   -7.6744  -15.3781 N   0  0  0  0  0  0  0  0  0  0  0  0
   20.1202   -5.3695  -14.6047 C   0  0  0  0  0  0  0  0  0  0  0  0
   20.3581   -4.5393  -13.5163 O   0  0  0  0  0  0  0  0  0  0  0  0
   19.1020   -5.0932  -15.2865 O   0  0  0  0  0  0  0  0  0  0  0  0
  2  1  1  6
  3  2  1  0
  4  6  1  0
  4  2  1  0
  5  4  2  0
  7  6  1  0
  7 11  1  0
  7  8  1  1
  9  8  1  0
 10  9  2  0
 11 19  1  0
 12 11  2  0
 13  9  1  0
 15 14  1  0
 16 15  2  0
 17 15  1  0
 18 20  1  0
 18 17  1  6
 19 18  1  0
 20 21  1  0
 22 20  2  0
M  END
$$$$
