ADN.pdb
     RDKit          3D

 22 21  0  0  1  0  0  0  0  0999 V2000
   21.7127  -12.6315  -19.2550 C   0  0  0  0  0  0  0  0  0  0  0  0
   22.2518  -11.9075  -18.0425 C   0  0  2  0  0  0  0  0  0  0  0  0
   22.6736  -12.8315  -17.0095 N   0  0  0  0  0  0  0  0  0  0  0  0
   21.2156  -10.9663  -17.5417 C   0  0  0  0  0  0  0  0  0  0  0  0
   20.9023   -9.9004  -18.1305 O   0  0  0  0  0  0  0  0  0  0  0  0
   20.4897  -11.2283  -16.3178 N   0  0  0  0  0  0  0  0  0  0  0  0
   19.4510  -10.3598  -15.8342 C   0  0  1  0  0  0  0  0  0  0  0  0
   18.3998  -11.0948  -15.0438 C   0  0  0  0  0  0  0  0  0  0  0  0
   17.1022  -11.1655  -15.7398 C   0  0  0  0  0  0  0  0  0  0  0  0
   16.8407  -10.5745  -16.8155 O   0  0  0  0  0  0  0  0  0  0  0  0
   20.0399   -9.2211  -15.0881 C   0  0  0  0  0  0  0  0  0  0  0  0
   20.9245   -9.3784  -14.2000 O   0  0  0  0  0  0  0  0  0  0  0  0
   16.1065  -11.9397  -15.1606 O   0  0  0  0  0  0  0  0  0  0  0  0
   22.5667   -5.3055  -13.0420 N   0  0  0  0  0  0  0  0  0  0  0  0
   21.9967   -5.1296  -14.3520 C   0  0  0  0  0  0  0  0  0  0  0  0
   21.9100   -3.9428  -14.7984 O   0  0  0  0  0  0  0  0  0  0  0  0
   21.5373   -6.3045  -15.1238 C   0  0  0  0  0  0  0  0  0  0  0  0
   20.2030   -6.7460  -14.5996 C   0  0  2  0  0  0  0  0  0  0  0  0
   19.6463   -7.8623  -15.3237 N   0  0  0  0  0  0  0  0  0  0  0  0
   19.2307   -5.6474  -14.4052 C   0  0  0  0  0  0  0  0  0  0  0  0
   19.2184   -4.8122  -13.2948 O   0  0  0  0  0  0  0  0  0  0  0  0
   18.3463   -5.4182  -15.2672 O   0  0  0  0  0  0  0  0  0  0  0  0
  2  1  1  6
  3  2  1  0
  4  6  1  0
  4  2  1  0
  5  4  2  0
  7  6  1  0
  7 11  1  0
  7  8  1  1
  9  8  1  0
 10  9  2  0
 11 19  1  0
 12 11  2  0
 13  9  1  0
 15 14  1  0
 16 15  2  0
 17 15  1  0
 18 20  1  0
 18 17  1  6
 19 18  1  0
 20 21  1  0
 22 20  2  0
M  END
$$$$
