ADN.pdb
     RDKit          3D

 22 21  0  0  1  0  0  0  0  0999 V2000
   22.5451  -10.8339  -16.1879 C   0  0  0  0  0  0  0  0  0  0  0  0
   21.4512   -9.8602  -16.5626 C   0  0  2  0  0  0  0  0  0  0  0  0
   21.7525   -9.1641  -17.7969 N   0  0  0  0  0  0  0  0  0  0  0  0
   21.2440   -8.9102  -15.4379 C   0  0  0  0  0  0  0  0  0  0  0  0
   20.8739   -9.2635  -14.2893 O   0  0  0  0  0  0  0  0  0  0  0  0
   21.4611   -7.4894  -15.6035 N   0  0  0  0  0  0  0  0  0  0  0  0
   21.3294   -6.5557  -14.5182 C   0  0  1  0  0  0  0  0  0  0  0  0
   22.4567   -5.5573  -14.4701 C   0  0  0  0  0  0  0  0  0  0  0  0
   22.3369   -4.6089  -13.3477 C   0  0  0  0  0  0  0  0  0  0  0  0
   22.3147   -4.9405  -12.1377 O   0  0  0  0  0  0  0  0  0  0  0  0
   19.9931   -5.9128  -14.5536 C   0  0  0  0  0  0  0  0  0  0  0  0
   19.5653   -5.1881  -13.6114 O   0  0  0  0  0  0  0  0  0  0  0  0
   22.2425   -3.2593  -13.6574 O   0  0  0  0  0  0  0  0  0  0  0  0
   15.4257   -4.1579  -15.8495 N   0  0  0  0  0  0  0  0  0  0  0  0
   16.4840   -3.5868  -16.6405 C   0  0  0  0  0  0  0  0  0  0  0  0
   16.2227   -2.5261  -17.2901 O   0  0  0  0  0  0  0  0  0  0  0  0
   17.8136   -4.2335  -16.6766 C   0  0  0  0  0  0  0  0  0  0  0  0
   17.8177   -5.4019  -15.7359 C   0  0  2  0  0  0  0  0  0  0  0  0
   19.0943   -6.0690  -15.6601 N   0  0  0  0  0  0  0  0  0  0  0  0
   16.6908   -6.3420  -15.9266 C   0  0  0  0  0  0  0  0  0  0  0  0
   15.3565   -5.9968  -15.7495 O   0  0  0  0  0  0  0  0  0  0  0  0
   16.9034   -7.5318  -16.2686 O   0  0  0  0  0  0  0  0  0  0  0  0
  2  1  1  1
  3  2  1  0
  4  6  1  0
  4  2  1  0
  5  4  2  0
  7  6  1  0
  7 11  1  0
  7  8  1  6
  9  8  1  0
 10  9  2  0
 11 19  1  0
 12 11  2  0
 13  9  1  0
 15 14  1  0
 16 15  2  0
 17 15  1  0
 18 20  1  0
 18 17  1  6
 19 18  1  0
 20 21  1  0
 22 20  2  0
M  END
$$$$
