ADN.pdb
     RDKit          3D

 22 21  0  0  1  0  0  0  0  0999 V2000
   16.7882  -13.5709  -14.6671 C   0  0  0  0  0  0  0  0  0  0  0  0
   15.8051  -12.6262  -14.0143 C   0  0  2  0  0  0  0  0  0  0  0  0
   14.8390  -12.1160  -14.9657 N   0  0  0  0  0  0  0  0  0  0  0  0
   16.5569  -11.5247  -13.3574 C   0  0  0  0  0  0  0  0  0  0  0  0
   17.4067  -11.7087  -12.4490 O   0  0  0  0  0  0  0  0  0  0  0  0
   16.3496  -10.1432  -13.7339 N   0  0  0  0  0  0  0  0  0  0  0  0
   16.9663   -9.0500  -13.0327 C   0  0  1  0  0  0  0  0  0  0  0  0
   17.5856   -8.0386  -13.9619 C   0  0  0  0  0  0  0  0  0  0  0  0
   18.6822   -7.2782  -13.3352 C   0  0  0  0  0  0  0  0  0  0  0  0
   18.5616   -6.1261  -12.8528 O   0  0  0  0  0  0  0  0  0  0  0  0
   16.0043   -8.4428  -12.0807 C   0  0  0  0  0  0  0  0  0  0  0  0
   14.8160   -8.1625  -12.4054 O   0  0  0  0  0  0  0  0  0  0  0  0
   19.9299   -7.8834  -13.2783 O   0  0  0  0  0  0  0  0  0  0  0  0
   13.7118   -6.3024   -8.1206 N   0  0  0  0  0  0  0  0  0  0  0  0
   14.8830   -6.8936   -7.5283 C   0  0  0  0  0  0  0  0  0  0  0  0
   14.9857   -6.8477   -6.2623 O   0  0  0  0  0  0  0  0  0  0  0  0
   15.9106   -7.5216   -8.3867 C   0  0  0  0  0  0  0  0  0  0  0  0
   15.4637   -7.4558   -9.8170 C   0  0  2  0  0  0  0  0  0  0  0  0
   16.3564   -8.1324  -10.7256 N   0  0  0  0  0  0  0  0  0  0  0  0
   15.0970   -6.0985  -10.2791 C   0  0  0  0  0  0  0  0  0  0  0  0
   16.0230   -5.1273  -10.6400 O   0  0  0  0  0  0  0  0  0  0  0  0
   13.8910   -5.7585  -10.3667 O   0  0  0  0  0  0  0  0  0  0  0  0
  2  1  1  6
  3  2  1  0
  4  6  1  0
  4  2  1  0
  5  4  2  0
  7  6  1  0
  7 11  1  0
  7  8  1  6
  9  8  1  0
 10  9  2  0
 11 19  1  0
 12 11  2  0
 13  9  1  0
 15 14  1  0
 16 15  2  0
 17 15  1  0
 18 20  1  0
 18 17  1  1
 19 18  1  0
 20 21  1  0
 22 20  2  0
M  END
$$$$
