ADN.pdb
     RDKit          3D

 22 21  0  0  1  0  0  0  0  0999 V2000
   18.5356  -13.4078  -17.7249 C   0  0  0  0  0  0  0  0  0  0  0  0
   19.5253  -12.6428  -16.8762 C   0  0  2  0  0  0  0  0  0  0  0  0
   19.6899  -13.2457  -15.5692 N   0  0  0  0  0  0  0  0  0  0  0  0
   19.0799  -11.2282  -16.7715 C   0  0  0  0  0  0  0  0  0  0  0  0
   19.4037  -10.3350  -17.5951 O   0  0  0  0  0  0  0  0  0  0  0  0
   18.2273  -10.7861  -15.6894 N   0  0  0  0  0  0  0  0  0  0  0  0
   17.7797   -9.4255  -15.5644 C   0  0  1  0  0  0  0  0  0  0  0  0
   16.4659   -9.3102  -14.8361 C   0  0  0  0  0  0  0  0  0  0  0  0
   15.3535   -9.9622  -15.5508 C   0  0  0  0  0  0  0  0  0  0  0  0
   14.9935   -9.6734  -16.7177 O   0  0  0  0  0  0  0  0  0  0  0  0
   18.8459   -8.5876  -14.9632 C   0  0  0  0  0  0  0  0  0  0  0  0
   19.8369   -9.0846  -14.3575 O   0  0  0  0  0  0  0  0  0  0  0  0
   14.6615  -10.9621  -14.8818 O   0  0  0  0  0  0  0  0  0  0  0  0
   23.3180   -5.4266  -15.7615 N   0  0  0  0  0  0  0  0  0  0  0  0
   22.3163   -5.8479  -14.8176 C   0  0  0  0  0  0  0  0  0  0  0  0
   22.3985   -5.3923  -13.6339 O   0  0  0  0  0  0  0  0  0  0  0  0
   21.2456   -6.7771  -15.2388 C   0  0  0  0  0  0  0  0  0  0  0  0
   19.9454   -6.3348  -14.6357 C   0  0  2  0  0  0  0  0  0  0  0  0
   18.8258   -7.1551  -15.0283 N   0  0  0  0  0  0  0  0  0  0  0  0
   19.6707   -4.8872  -14.7735 C   0  0  0  0  0  0  0  0  0  0  0  0
   20.1512   -3.9214  -13.8977 O   0  0  0  0  0  0  0  0  0  0  0  0
   18.9671   -4.4588  -15.7218 O   0  0  0  0  0  0  0  0  0  0  0  0
  2  1  1  6
  3  2  1  0
  4  6  1  0
  4  2  1  0
  5  4  2  0
  7  6  1  0
  7 11  1  0
  7  8  1  1
  9  8  1  0
 10  9  2  0
 11 19  1  0
 12 11  2  0
 13  9  1  0
 15 14  1  0
 16 15  2  0
 17 15  1  0
 18 20  1  0
 18 17  1  6
 19 18  1  0
 20 21  1  0
 22 20  2  0
M  END
$$$$
