ADN.pdb
     RDKit          3D

 22 21  0  0  1  0  0  0  0  0999 V2000
   16.1910  -12.2975  -17.1477 C   0  0  0  0  0  0  0  0  0  0  0  0
   16.7633  -11.5947  -15.9380 C   0  0  2  0  0  0  0  0  0  0  0  0
   15.9072  -11.7401  -14.7783 N   0  0  0  0  0  0  0  0  0  0  0  0
   16.9892  -10.1638  -16.2725 C   0  0  0  0  0  0  0  0  0  0  0  0
   17.7593   -9.7776  -17.1884 O   0  0  0  0  0  0  0  0  0  0  0  0
   16.3200   -9.1066  -15.5460 N   0  0  0  0  0  0  0  0  0  0  0  0
   16.5242   -7.7149  -15.8436 C   0  0  1  0  0  0  0  0  0  0  0  0
   15.2597   -6.9040  -15.7285 C   0  0  0  0  0  0  0  0  0  0  0  0
   14.2748   -7.2231  -16.7780 C   0  0  0  0  0  0  0  0  0  0  0  0
   14.4750   -7.0745  -18.0078 O   0  0  0  0  0  0  0  0  0  0  0  0
   17.6327   -7.1715  -15.0213 C   0  0  0  0  0  0  0  0  0  0  0  0
   17.5744   -7.1120  -13.7608 O   0  0  0  0  0  0  0  0  0  0  0  0
   13.0447   -7.7211  -16.3714 O   0  0  0  0  0  0  0  0  0  0  0  0
   21.8524   -5.0925  -13.2301 N   0  0  0  0  0  0  0  0  0  0  0  0
   22.0597   -6.4326  -13.7130 C   0  0  0  0  0  0  0  0  0  0  0  0
   23.1587   -6.9983  -13.4170 O   0  0  0  0  0  0  0  0  0  0  0  0
   21.0157   -7.0985  -14.5216 C   0  0  0  0  0  0  0  0  0  0  0  0
   19.9209   -6.1164  -14.8161 C   0  0  2  0  0  0  0  0  0  0  0  0
   18.8477   -6.6763  -15.6004 N   0  0  0  0  0  0  0  0  0  0  0  0
   20.3937   -4.8152  -15.3390 C   0  0  0  0  0  0  0  0  0  0  0  0
   20.5783   -4.5447  -16.6894 O   0  0  0  0  0  0  0  0  0  0  0  0
   20.6562   -3.8698  -14.5547 O   0  0  0  0  0  0  0  0  0  0  0  0
  2  1  1  6
  3  2  1  0
  4  6  1  0
  4  2  1  0
  5  4  2  0
  7  6  1  0
  7 11  1  0
  7  8  1  1
  9  8  1  0
 10  9  2  0
 11 19  1  0
 12 11  2  0
 13  9  1  0
 15 14  1  0
 16 15  2  0
 17 15  1  0
 18 20  1  0
 18 17  1  6
 19 18  1  0
 20 21  1  0
 22 20  2  0
M  END
$$$$
