RCD.pdb
     RDKit          3D

 26 25  0  0  1  0  0  0  0  0999 V2000
   25.9233  -20.4380   -8.7350 N   0  0  0  0  0  0  0  0  0  0  0  0
   24.7079  -20.6533   -9.4483 C   0  0  0  0  0  0  0  0  0  0  0  0
   23.8727  -21.5548   -9.0670 N   0  0  0  0  0  0  0  0  0  0  0  0
   24.4050  -19.8713  -10.5912 N   0  0  0  0  0  0  0  0  0  0  0  0
   25.0626  -20.1718  -11.8454 C   0  0  0  0  0  0  0  0  0  0  0  0
   26.0737  -19.0833  -12.2342 C   0  0  0  0  0  0  0  0  0  0  0  0
   26.4686  -19.3793  -13.6533 C   0  0  0  0  0  0  0  0  0  0  0  0
   26.9994  -20.7755  -13.8583 C   0  0  2  0  0  0  0  0  0  0  0  0
   28.2554  -20.8448  -13.1344 N   0  0  0  0  0  0  0  0  0  0  0  0
   27.2327  -21.1409  -15.2529 C   0  0  0  0  0  0  0  0  0  0  0  0
   27.9407  -20.4572  -16.0584 O   0  0  0  0  0  0  0  0  0  0  0  0
   22.9739  -21.7533   -9.5337 N   0  0  0  0  0  0  0  0  0  0  0  0
   26.6601  -22.3185  -15.7962 C   0  0  2  0  0  0  0  0  0  0  0  0
   26.3253  -22.3861  -17.2367 C   0  0  0  0  0  0  0  0  0  0  0  0
   26.8605  -23.7299  -17.7520 S   0  0  0  0  0  0  0  0  0  0  0  0
   28.3443  -24.2031  -16.8473 C   0  0  0  0  0  0  0  0  0  0  0  0
   24.8430  -22.4611  -17.3206 O   0  0  0  0  0  0  0  0  0  0  0  0
   24.1846  -22.9206  -16.3315 N   0  0  0  0  0  0  0  0  0  0  0  0
   24.0799  -22.0533  -18.4298 C   0  0  1  0  0  0  0  0  0  0  0  0
   22.9171  -21.2162  -18.2342 C   0  0  0  0  0  0  0  0  0  0  0  0
   23.2040  -19.9894  -17.3904 C   0  0  0  0  0  0  0  0  0  0  0  0
   21.9939  -19.1684  -17.3136 O   0  0  0  0  0  0  0  0  0  0  0  0
   20.8527  -19.7283  -17.3575 C   0  0  0  0  0  0  0  0  0  0  0  0
   22.3678  -20.8652  -19.5538 O   0  0  0  0  0  0  0  0  0  0  0  0
   23.0990  -20.3697  -20.4358 O   0  0  0  0  0  0  0  0  0  0  0  0
   22.0254  -17.7778  -17.1949 O   0  0  0  0  0  0  0  0  0  0  0  0
  2  1  1  0
  2  3  2  0
  4  2  1  0
  5  4  1  0
  6  5  1  0
  7  8  1  0
  7  6  1  0
  8 10  1  0
  8  9  1  1
 10 11  2  0
 12 13  1  0
 12 10  1  0
 13 16  1  0
 14 15  1  0
 13 14  1  1
 16 17  2  0
 18 19  1  0
 18 16  1  0
 19 23  1  0
 20 21  1  0
 19 20  1  6
 21 22  2  0
 23 24  2  0
 23 26  1  0
 25 21  1  0
M  END
$$$$
