RCD.pdb
     RDKit          3D

 26 25  0  0  1  0  0  0  0  0999 V2000
   21.3476  -18.8167  -15.6623 N   0  0  0  0  0  0  0  0  0  0  0  0
   21.3606  -17.9142  -14.5588 C   0  0  0  0  0  0  0  0  0  0  0  0
   20.6641  -18.1554  -13.5042 N   0  0  0  0  0  0  0  0  0  0  0  0
   22.1462  -16.7354  -14.6123 N   0  0  0  0  0  0  0  0  0  0  0  0
   21.5475  -15.5109  -15.0999 C   0  0  0  0  0  0  0  0  0  0  0  0
   21.8013  -15.3106  -16.6012 C   0  0  0  0  0  0  0  0  0  0  0  0
   21.1155  -14.0240  -16.9643 C   0  0  0  0  0  0  0  0  0  0  0  0
   19.6305  -14.0319  -16.7041 C   0  0  2  0  0  0  0  0  0  0  0  0
   19.0680  -15.0423  -17.5810 N   0  0  0  0  0  0  0  0  0  0  0  0
   18.9606  -12.7584  -16.9536 C   0  0  0  0  0  0  0  0  0  0  0  0
   18.7035  -12.3053  -18.1140 O   0  0  0  0  0  0  0  0  0  0  0  0
   20.6941  -17.5889  -12.6420 N   0  0  0  0  0  0  0  0  0  0  0  0
   18.5496  -11.9352  -15.8751 C   0  0  2  0  0  0  0  0  0  0  0  0
   17.8758  -10.6440  -16.1402 C   0  0  0  0  0  0  0  0  0  0  0  0
   16.5054  -10.7110  -15.4508 S   0  0  0  0  0  0  0  0  0  0  0  0
   15.4170   -9.4269  -16.0917 C   0  0  0  0  0  0  0  0  0  0  0  0
   18.6601   -9.6054  -15.4217 O   0  0  0  0  0  0  0  0  0  0  0  0
   19.3956   -9.9474  -14.4394 N   0  0  0  0  0  0  0  0  0  0  0  0
   18.6639   -8.2360  -15.7438 C   0  0  1  0  0  0  0  0  0  0  0  0
   19.5178   -7.3273  -15.0117 C   0  0  0  0  0  0  0  0  0  0  0  0
   20.9842   -7.4723  -15.3696 C   0  0  0  0  0  0  0  0  0  0  0  0
   21.7552   -6.4588  -14.6466 O   0  0  0  0  0  0  0  0  0  0  0  0
   21.4757   -6.2073  -13.4315 C   0  0  0  0  0  0  0  0  0  0  0  0
   19.0288   -5.9553  -15.2230 O   0  0  0  0  0  0  0  0  0  0  0  0
   19.5887   -4.9878  -14.6672 O   0  0  0  0  0  0  0  0  0  0  0  0
   22.7989   -5.7384  -15.2303 O   0  0  0  0  0  0  0  0  0  0  0  0
  2  1  1  0
  2  3  2  0
  4  2  1  0
  5  4  1  0
  6  5  1  0
  7  8  1  0
  7  6  1  0
  8 10  1  0
  8  9  1  6
 10 11  2  0
 12 13  1  0
 12 10  1  0
 13 16  1  0
 14 15  1  0
 13 14  1  6
 16 17  2  0
 18 19  1  0
 18 16  1  0
 19 23  1  0
 20 21  1  0
 19 20  1  1
 21 22  2  0
 23 24  2  0
 23 26  1  0
 25 21  1  0
M  END
$$$$
