RCD.pdb
     RDKit          3D

 26 25  0  0  1  0  0  0  0  0999 V2000
   25.3208  -25.5897  -16.3854 N   0  0  0  0  0  0  0  0  0  0  0  0
   26.6259  -25.0217  -16.3047 C   0  0  0  0  0  0  0  0  0  0  0  0
   27.6336  -25.6101  -16.8466 N   0  0  0  0  0  0  0  0  0  0  0  0
   26.8276  -23.7951  -15.6233 N   0  0  0  0  0  0  0  0  0  0  0  0
   25.6771  -23.0487  -15.1598 C   0  0  0  0  0  0  0  0  0  0  0  0
   26.0835  -21.7116  -14.5232 C   0  0  0  0  0  0  0  0  0  0  0  0
   24.7979  -21.0182  -14.1709 C   0  0  0  0  0  0  0  0  0  0  0  0
   24.2167  -20.2046  -15.2994 C   0  0  2  0  0  0  0  0  0  0  0  0
   25.0079  -20.5150  -16.4758 N   0  0  0  0  0  0  0  0  0  0  0  0
   24.2330  -18.7606  -15.0818 C   0  0  0  0  0  0  0  0  0  0  0  0
   23.5706  -18.1712  -14.1699 O   0  0  0  0  0  0  0  0  0  0  0  0
   28.5957  -25.2367  -16.8502 N   0  0  0  0  0  0  0  0  0  0  0  0
   25.0166  -17.9149  -15.9067 C   0  0  1  0  0  0  0  0  0  0  0  0
   25.0640  -16.4584  -15.6461 C   0  0  0  0  0  0  0  0  0  0  0  0
   26.5456  -16.0847  -15.4944 S   0  0  0  0  0  0  0  0  0  0  0  0
   26.7259  -14.3044  -15.2886 C   0  0  0  0  0  0  0  0  0  0  0  0
   24.5851  -15.7937  -16.8866 O   0  0  0  0  0  0  0  0  0  0  0  0
   24.5168  -16.4646  -17.9674 N   0  0  0  0  0  0  0  0  0  0  0  0
   24.1852  -14.4478  -16.9733 C   0  0  1  0  0  0  0  0  0  0  0  0
   23.4989  -13.9761  -18.1556 C   0  0  0  0  0  0  0  0  0  0  0  0
   22.2117  -14.7277  -18.4341 C   0  0  0  0  0  0  0  0  0  0  0  0
   21.6010  -14.1942  -19.6535 O   0  0  0  0  0  0  0  0  0  0  0  0
   21.4349  -12.9389  -19.7739 C   0  0  0  0  0  0  0  0  0  0  0  0
   23.2765  -12.5276  -18.0191 O   0  0  0  0  0  0  0  0  0  0  0  0
   23.6079  -11.9288  -16.9751 O   0  0  0  0  0  0  0  0  0  0  0  0
   21.1813  -15.0042  -20.7103 O   0  0  0  0  0  0  0  0  0  0  0  0
  2  1  1  0
  2  3  2  0
  4  2  1  0
  5  4  1  0
  6  5  1  0
  7  8  1  0
  7  6  1  0
  8 10  1  0
  8  9  1  6
 10 11  2  0
 12 13  1  0
 12 10  1  0
 13 16  1  0
 14 15  1  0
 13 14  1  1
 16 17  2  0
 18 19  1  0
 18 16  1  0
 19 23  1  0
 20 21  1  0
 19 20  1  6
 21 22  2  0
 23 24  2  0
 23 26  1  0
 25 21  1  0
M  END
$$$$
