RCD.pdb
     RDKit          3D

 26 25  0  0  1  0  0  0  0  0999 V2000
   22.2657  -15.5431  -20.0345 N   0  0  0  0  0  0  0  0  0  0  0  0
   21.0490  -15.4456  -20.7709 C   0  0  0  0  0  0  0  0  0  0  0  0
   20.6611  -16.4093  -21.5301 N   0  0  0  0  0  0  0  0  0  0  0  0
   20.2491  -14.2793  -20.6732 N   0  0  0  0  0  0  0  0  0  0  0  0
   20.6427  -13.2293  -19.7579 C   0  0  0  0  0  0  0  0  0  0  0  0
   20.6099  -13.7038  -18.2977 C   0  0  0  0  0  0  0  0  0  0  0  0
   21.0070  -12.5135  -17.4713 C   0  0  0  0  0  0  0  0  0  0  0  0
   22.4912  -12.2484  -17.4604 C   0  0  2  0  0  0  0  0  0  0  0  0
   23.1283  -13.5090  -17.1267 N   0  0  0  0  0  0  0  0  0  0  0  0
   22.9221  -11.2298  -16.5067 C   0  0  0  0  0  0  0  0  0  0  0  0
   22.5484  -11.1898  -15.2915 O   0  0  0  0  0  0  0  0  0  0  0  0
   19.8164  -16.3827  -22.1224 N   0  0  0  0  0  0  0  0  0  0  0  0
   23.8101  -10.1985  -16.9036 C   0  0  1  0  0  0  0  0  0  0  0  0
   24.2905   -9.2089  -15.9129 C   0  0  0  0  0  0  0  0  0  0  0  0
   25.7188   -8.8268  -16.3271 S   0  0  0  0  0  0  0  0  0  0  0  0
   26.8845  -10.0971  -15.8060 C   0  0  0  0  0  0  0  0  0  0  0  0
   23.4570   -7.9917  -16.0965 O   0  0  0  0  0  0  0  0  0  0  0  0
   22.8917   -7.7863  -17.2196 N   0  0  0  0  0  0  0  0  0  0  0  0
   23.2280   -7.0185  -15.1070 C   0  0  1  0  0  0  0  0  0  0  0  0
   22.2974   -5.9409  -15.3596 C   0  0  0  0  0  0  0  0  0  0  0  0
   20.9209   -6.4289  -15.7675 C   0  0  0  0  0  0  0  0  0  0  0  0
   20.0505   -5.2726  -15.9905 O   0  0  0  0  0  0  0  0  0  0  0  0
   20.0954   -4.6596  -17.1041 C   0  0  0  0  0  0  0  0  0  0  0  0
   22.2489   -5.0776  -14.1686 O   0  0  0  0  0  0  0  0  0  0  0  0
   22.8500   -5.4013  -13.1235 O   0  0  0  0  0  0  0  0  0  0  0  0
   19.1585   -4.7961  -15.0281 O   0  0  0  0  0  0  0  0  0  0  0  0
  2  1  1  0
  2  3  2  0
  4  2  1  0
  5  4  1  0
  6  5  1  0
  7  8  1  0
  7  6  1  0
  8 10  1  0
  8  9  1  1
 10 11  2  0
 12 13  1  0
 12 10  1  0
 13 16  1  0
 14 15  1  0
 13 14  1  1
 16 17  2  0
 18 19  1  0
 18 16  1  0
 19 23  1  0
 20 21  1  0
 19 20  1  6
 21 22  2  0
 23 24  2  0
 23 26  1  0
 25 21  1  0
M  END
$$$$
