RCD.pdb
     RDKit          3D

 26 25  0  0  1  0  0  0  0  0999 V2000
   25.8049  -23.8881  -15.7633 N   0  0  0  0  0  0  0  0  0  0  0  0
   24.8999  -24.9397  -15.4353 C   0  0  0  0  0  0  0  0  0  0  0  0
   25.3023  -26.1606  -15.3822 N   0  0  0  0  0  0  0  0  0  0  0  0
   23.5396  -24.6490  -15.1621 N   0  0  0  0  0  0  0  0  0  0  0  0
   23.1065  -23.2680  -15.1304 C   0  0  0  0  0  0  0  0  0  0  0  0
   22.7175  -22.8248  -13.7125 C   0  0  0  0  0  0  0  0  0  0  0  0
   22.7836  -21.3238  -13.7200 C   0  0  0  0  0  0  0  0  0  0  0  0
   23.9630  -20.7707  -14.4792 C   0  0  2  0  0  0  0  0  0  0  0  0
   25.1223  -21.5235  -14.0368 N   0  0  0  0  0  0  0  0  0  0  0  0
   24.2108  -19.3470  -14.2687 C   0  0  0  0  0  0  0  0  0  0  0  0
   23.3257  -18.5210  -13.8789 O   0  0  0  0  0  0  0  0  0  0  0  0
   24.6926  -26.9684  -15.1799 N   0  0  0  0  0  0  0  0  0  0  0  0
   25.4971  -18.7965  -14.4969 C   0  0  2  0  0  0  0  0  0  0  0  0
   25.6957  -17.3300  -14.4586 C   0  0  0  0  0  0  0  0  0  0  0  0
   27.2098  -17.0869  -14.5365 S   0  0  0  0  0  0  0  0  0  0  0  0
   28.0793  -18.6352  -14.8384 C   0  0  0  0  0  0  0  0  0  0  0  0
   25.1161  -16.7943  -15.7184 O   0  0  0  0  0  0  0  0  0  0  0  0
   24.7697  -17.6036  -16.6393 N   0  0  0  0  0  0  0  0  0  0  0  0
   24.9072  -15.4299  -15.9897 C   0  0  1  0  0  0  0  0  0  0  0  0
   23.6532  -14.9944  -16.5635 C   0  0  0  0  0  0  0  0  0  0  0  0
   22.4479  -15.4179  -15.7466 C   0  0  0  0  0  0  0  0  0  0  0  0
   21.2296  -14.9730  -16.4265 O   0  0  0  0  0  0  0  0  0  0  0  0
   21.3055  -14.5063  -17.6072 C   0  0  0  0  0  0  0  0  0  0  0  0
   23.7090  -13.5361  -16.7541 O   0  0  0  0  0  0  0  0  0  0  0  0
   24.1464  -12.7929  -15.8514 O   0  0  0  0  0  0  0  0  0  0  0  0
   19.9655  -15.0324  -15.8369 O   0  0  0  0  0  0  0  0  0  0  0  0
  2  1  1  0
  2  3  2  0
  4  2  1  0
  5  4  1  0
  6  5  1  0
  7  8  1  0
  7  6  1  0
  8 10  1  0
  8  9  1  1
 10 11  2  0
 12 13  1  0
 12 10  1  0
 13 16  1  0
 14 15  1  0
 13 14  1  1
 16 17  2  0
 18 19  1  0
 18 16  1  0
 19 23  1  0
 20 21  1  0
 19 20  1  6
 21 22  2  0
 23 24  2  0
 23 26  1  0
 25 21  1  0
M  END
$$$$
