RCD.pdb
     RDKit          3D

 26 25  0  0  1  0  0  0  0  0999 V2000
   29.5152  -22.6429  -10.1282 N   0  0  0  0  0  0  0  0  0  0  0  0
   30.4027  -21.7093  -10.7390 C   0  0  0  0  0  0  0  0  0  0  0  0
   31.6499  -21.9884  -10.8879 N   0  0  0  0  0  0  0  0  0  0  0  0
   29.9171  -20.4568  -11.1918 N   0  0  0  0  0  0  0  0  0  0  0  0
   28.5568  -20.3620  -11.6777 C   0  0  0  0  0  0  0  0  0  0  0  0
   28.5075  -20.1670  -13.2002 C   0  0  0  0  0  0  0  0  0  0  0  0
   27.0566  -19.9786  -13.5421 C   0  0  0  0  0  0  0  0  0  0  0  0
   26.2551  -21.2555  -13.5172 C   0  0  2  0  0  0  0  0  0  0  0  0
   26.9518  -22.1914  -14.3802 N   0  0  0  0  0  0  0  0  0  0  0  0
   24.8759  -21.1191  -13.9776 C   0  0  0  0  0  0  0  0  0  0  0  0
   24.5170  -21.2331  -15.1925 O   0  0  0  0  0  0  0  0  0  0  0  0
   32.3639  -21.3178  -11.2128 N   0  0  0  0  0  0  0  0  0  0  0  0
   23.8320  -20.8429  -13.0590 C   0  0  1  0  0  0  0  0  0  0  0  0
   22.4450  -20.6596  -13.5430 C   0  0  0  0  0  0  0  0  0  0  0  0
   21.5286  -20.7907  -12.3179 S   0  0  0  0  0  0  0  0  0  0  0  0
   21.7258  -22.4115  -11.5574 C   0  0  0  0  0  0  0  0  0  0  0  0
   22.3420  -19.2484  -13.9989 O   0  0  0  0  0  0  0  0  0  0  0  0
   23.3892  -18.5234  -14.0259 N   0  0  0  0  0  0  0  0  0  0  0  0
   21.1530  -18.6251  -14.4194 C   0  0  2  0  0  0  0  0  0  0  0  0
   21.1850  -17.6770  -15.5108 C   0  0  0  0  0  0  0  0  0  0  0  0
   22.1846  -18.0470  -16.5893 C   0  0  0  0  0  0  0  0  0  0  0  0
   22.1628  -17.0207  -17.6336 O   0  0  0  0  0  0  0  0  0  0  0  0
   21.9042  -15.8149  -17.3222 C   0  0  0  0  0  0  0  0  0  0  0  0
   19.8209  -17.5343  -16.0448 O   0  0  0  0  0  0  0  0  0  0  0  0
   19.4213  -16.4361  -16.4836 O   0  0  0  0  0  0  0  0  0  0  0  0
   22.4131  -17.2995  -18.9785 O   0  0  0  0  0  0  0  0  0  0  0  0
  2  1  1  0
  2  3  2  0
  4  2  1  0
  5  4  1  0
  6  5  1  0
  7  8  1  0
  7  6  1  0
  8 10  1  0
  8  9  1  6
 10 11  2  0
 12 13  1  0
 12 10  1  0
 13 16  1  0
 14 15  1  0
 13 14  1  6
 16 17  2  0
 18 19  1  0
 18 16  1  0
 19 23  1  0
 20 21  1  0
 19 20  1  1
 21 22  2  0
 23 24  2  0
 23 26  1  0
 25 21  1  0
M  END
$$$$
