RCD.pdb
     RDKit          3D

 26 25  0  0  1  0  0  0  0  0999 V2000
   19.0765  -24.3691   -9.6662 N   0  0  0  0  0  0  0  0  0  0  0  0
   18.2027  -23.3614  -10.1696 C   0  0  0  0  0  0  0  0  0  0  0  0
   17.1108  -23.0707   -9.5542 N   0  0  0  0  0  0  0  0  0  0  0  0
   18.5303  -22.6650  -11.3601 N   0  0  0  0  0  0  0  0  0  0  0  0
   19.5604  -23.1967  -12.2271 C   0  0  0  0  0  0  0  0  0  0  0  0
   20.9390  -22.6006  -11.9067 C   0  0  0  0  0  0  0  0  0  0  0  0
   21.0443  -21.3472  -12.7284 C   0  0  0  0  0  0  0  0  0  0  0  0
   22.0005  -21.4592  -13.8888 C   0  0  2  0  0  0  0  0  0  0  0  0
   22.3527  -22.8632  -13.9931 N   0  0  0  0  0  0  0  0  0  0  0  0
   23.2219  -20.6706  -13.7510 C   0  0  0  0  0  0  0  0  0  0  0  0
   23.2735  -19.5318  -13.1870 O   0  0  0  0  0  0  0  0  0  0  0  0
   16.4102  -22.3940   -9.8954 N   0  0  0  0  0  0  0  0  0  0  0  0
   24.4545  -21.1541  -14.2578 C   0  0  1  0  0  0  0  0  0  0  0  0
   25.6742  -20.3200  -14.1669 C   0  0  0  0  0  0  0  0  0  0  0  0
   26.6062  -21.0084  -13.1594 S   0  0  0  0  0  0  0  0  0  0  0  0
   28.0612  -19.9915  -12.8541 C   0  0  0  0  0  0  0  0  0  0  0  0
   26.3436  -20.4087  -15.4913 O   0  0  0  0  0  0  0  0  0  0  0  0
   26.4802  -21.5473  -16.0462 N   0  0  0  0  0  0  0  0  0  0  0  0
   26.8524  -19.3110  -16.2090 C   0  0  2  0  0  0  0  0  0  0  0  0
   27.2999  -19.4883  -17.5726 C   0  0  0  0  0  0  0  0  0  0  0  0
   27.4657  -20.9454  -17.9582 C   0  0  0  0  0  0  0  0  0  0  0  0
   28.8506  -21.1749  -18.3751 O   0  0  0  0  0  0  0  0  0  0  0  0
   29.6734  -20.2049  -18.3777 C   0  0  0  0  0  0  0  0  0  0  0  0
   26.3673  -18.7815  -18.4652 O   0  0  0  0  0  0  0  0  0  0  0  0
   25.1592  -18.6768  -18.1688 O   0  0  0  0  0  0  0  0  0  0  0  0
   29.3254  -22.4238  -18.7796 O   0  0  0  0  0  0  0  0  0  0  0  0
  2  1  1  0
  2  3  2  0
  4  2  1  0
  5  4  1  0
  6  5  1  0
  7  8  1  0
  7  6  1  0
  8 10  1  0
  8  9  1  1
 10 11  2  0
 12 13  1  0
 12 10  1  0
 13 16  1  0
 14 15  1  0
 13 14  1  6
 16 17  2  0
 18 19  1  0
 18 16  1  0
 19 23  1  0
 20 21  1  0
 19 20  1  1
 21 22  2  0
 23 24  2  0
 23 26  1  0
 25 21  1  0
M  END
$$$$
