RCD.pdb
     RDKit          3D

 26 25  0  0  1  0  0  0  0  0999 V2000
   29.2099  -24.5632  -18.4418 N   0  0  0  0  0  0  0  0  0  0  0  0
   29.5627  -24.9018  -17.1028 C   0  0  0  0  0  0  0  0  0  0  0  0
   30.2141  -25.9816  -16.8476 N   0  0  0  0  0  0  0  0  0  0  0  0
   29.1979  -24.0468  -16.0325 N   0  0  0  0  0  0  0  0  0  0  0  0
   28.4276  -22.8540  -16.3142 C   0  0  0  0  0  0  0  0  0  0  0  0
   29.2589  -21.8020  -17.0630 C   0  0  0  0  0  0  0  0  0  0  0  0
   28.3617  -20.6071  -17.2202 C   0  0  0  0  0  0  0  0  0  0  0  0
   27.0154  -20.9315  -17.8162 C   0  0  2  0  0  0  0  0  0  0  0  0
   27.0115  -20.3605  -19.1504 N   0  0  0  0  0  0  0  0  0  0  0  0
   25.8752  -20.4061  -17.0700 C   0  0  0  0  0  0  0  0  0  0  0  0
   25.5420  -19.1788  -17.0512 O   0  0  0  0  0  0  0  0  0  0  0  0
   30.5062  -26.2784  -15.9033 N   0  0  0  0  0  0  0  0  0  0  0  0
   25.0547  -21.2703  -16.3021 C   0  0  2  0  0  0  0  0  0  0  0  0
   24.0449  -20.7088  -15.3766 C   0  0  0  0  0  0  0  0  0  0  0  0
   22.6726  -21.1741  -15.8848 S   0  0  0  0  0  0  0  0  0  0  0  0
   21.3956  -20.8073  -14.6687 C   0  0  0  0  0  0  0  0  0  0  0  0
   24.2590  -21.3763  -14.0657 O   0  0  0  0  0  0  0  0  0  0  0  0
   25.1659  -22.2646  -13.9587 N   0  0  0  0  0  0  0  0  0  0  0  0
   23.5273  -21.1021  -12.8959 C   0  0  1  0  0  0  0  0  0  0  0  0
   24.1173  -21.3605  -11.6013 C   0  0  0  0  0  0  0  0  0  0  0  0
   25.4587  -20.6788  -11.4136 C   0  0  0  0  0  0  0  0  0  0  0  0
   25.9793  -21.0059  -10.0846 O   0  0  0  0  0  0  0  0  0  0  0  0
   25.7932  -22.1702   -9.6075 C   0  0  0  0  0  0  0  0  0  0  0  0
   23.1492  -20.9746  -10.5620 O   0  0  0  0  0  0  0  0  0  0  0  0
   23.4033  -21.1632   -9.3545 O   0  0  0  0  0  0  0  0  0  0  0  0
   26.6803  -20.0911   -9.2967 O   0  0  0  0  0  0  0  0  0  0  0  0
  2  1  1  0
  2  3  2  0
  4  2  1  0
  5  4  1  0
  6  5  1  0
  7  8  1  0
  7  6  1  0
  8 10  1  0
  8  9  1  6
 10 11  2  0
 12 13  1  0
 12 10  1  0
 13 16  1  0
 14 15  1  0
 13 14  1  6
 16 17  2  0
 18 19  1  0
 18 16  1  0
 19 23  1  0
 20 21  1  0
 19 20  1  1
 21 22  2  0
 23 24  2  0
 23 26  1  0
 25 21  1  0
M  END
$$$$
