RCD.pdb
     RDKit          3D

 26 25  0  0  1  0  0  0  0  0999 V2000
   17.5218  -18.1369  -14.9090 N   0  0  0  0  0  0  0  0  0  0  0  0
   17.3927  -17.9512  -16.3165 C   0  0  0  0  0  0  0  0  0  0  0  0
   16.9007  -18.8793  -17.0597 N   0  0  0  0  0  0  0  0  0  0  0  0
   17.8068  -16.7348  -16.9151 N   0  0  0  0  0  0  0  0  0  0  0  0
   18.3121  -15.6711  -16.0733 C   0  0  0  0  0  0  0  0  0  0  0  0
   18.6443  -14.4105  -16.8850 C   0  0  0  0  0  0  0  0  0  0  0  0
   19.0970  -13.3860  -15.8835 C   0  0  0  0  0  0  0  0  0  0  0  0
   19.4645  -12.0580  -16.4955 C   0  0  2  0  0  0  0  0  0  0  0  0
   20.1047  -12.3564  -17.7633 N   0  0  0  0  0  0  0  0  0  0  0  0
   20.3663  -11.2422  -15.6869 C   0  0  0  0  0  0  0  0  0  0  0  0
   20.1230  -10.8860  -14.4904 O   0  0  0  0  0  0  0  0  0  0  0  0
   16.7214  -18.7840  -18.0715 N   0  0  0  0  0  0  0  0  0  0  0  0
   21.6019  -10.7913  -16.2157 C   0  0  1  0  0  0  0  0  0  0  0  0
   22.5161   -9.9797  -15.3807 C   0  0  0  0  0  0  0  0  0  0  0  0
   23.9104  -10.0933  -16.0138 S   0  0  0  0  0  0  0  0  0  0  0  0
   24.8855  -11.3466  -15.1637 C   0  0  0  0  0  0  0  0  0  0  0  0
   22.0910   -8.5648  -15.5453 O   0  0  0  0  0  0  0  0  0  0  0  0
   21.8152   -8.1276  -16.7097 N   0  0  0  0  0  0  0  0  0  0  0  0
   21.9592   -7.6386  -14.4947 C   0  0  1  0  0  0  0  0  0  0  0  0
   21.5370   -6.2848  -14.7780 C   0  0  0  0  0  0  0  0  0  0  0  0
   20.1020   -6.1993  -15.2604 C   0  0  0  0  0  0  0  0  0  0  0  0
   19.7562   -4.7942  -15.4853 O   0  0  0  0  0  0  0  0  0  0  0  0
   20.6832   -3.9396  -15.6526 C   0  0  0  0  0  0  0  0  0  0  0  0
   21.7686   -5.4634  -13.5789 O   0  0  0  0  0  0  0  0  0  0  0  0
   22.1905   -5.9818  -12.5246 O   0  0  0  0  0  0  0  0  0  0  0  0
   18.4393   -4.3326  -15.5245 O   0  0  0  0  0  0  0  0  0  0  0  0
  2  1  1  0
  2  3  2  0
  4  2  1  0
  5  4  1  0
  6  5  1  0
  7  8  1  0
  7  6  1  0
  8 10  1  0
  8  9  1  6
 10 11  2  0
 12 13  1  0
 12 10  1  0
 13 16  1  0
 14 15  1  0
 13 14  1  1
 16 17  2  0
 18 19  1  0
 18 16  1  0
 19 23  1  0
 20 21  1  0
 19 20  1  6
 21 22  2  0
 23 24  2  0
 23 26  1  0
 25 21  1  0
M  END
$$$$
