RCD.pdb
     RDKit          3D

 26 25  0  0  1  0  0  0  0  0999 V2000
   29.6755  -19.9630  -17.6539 N   0  0  0  0  0  0  0  0  0  0  0  0
   29.4685  -18.7228  -18.3257 C   0  0  0  0  0  0  0  0  0  0  0  0
   30.0413  -18.4819  -19.4524 N   0  0  0  0  0  0  0  0  0  0  0  0
   28.6238  -17.7370  -17.7564 N   0  0  0  0  0  0  0  0  0  0  0  0
   27.7128  -18.1157  -16.6971 C   0  0  0  0  0  0  0  0  0  0  0  0
   26.8428  -19.3168  -17.0956 C   0  0  0  0  0  0  0  0  0  0  0  0
   25.8907  -19.5299  -15.9530 C   0  0  0  0  0  0  0  0  0  0  0  0
   26.4647  -20.3541  -14.8285 C   0  0  2  0  0  0  0  0  0  0  0  0
   27.3291  -21.3422  -15.4471 N   0  0  0  0  0  0  0  0  0  0  0  0
   25.4715  -21.0387  -14.0053 C   0  0  0  0  0  0  0  0  0  0  0  0
   24.4686  -21.6648  -14.4742 O   0  0  0  0  0  0  0  0  0  0  0  0
   29.9569  -17.5947  -19.9728 N   0  0  0  0  0  0  0  0  0  0  0  0
   25.5812  -21.0385  -12.5919 C   0  0  2  0  0  0  0  0  0  0  0  0
   24.5267  -21.6667  -11.7643 C   0  0  0  0  0  0  0  0  0  0  0  0
   24.9274  -21.4488  -10.2981 S   0  0  0  0  0  0  0  0  0  0  0  0
   24.9759  -19.6894   -9.9156 C   0  0  0  0  0  0  0  0  0  0  0  0
   23.2893  -20.8735  -11.9869 O   0  0  0  0  0  0  0  0  0  0  0  0
   23.3585  -19.7779  -12.6334 N   0  0  0  0  0  0  0  0  0  0  0  0
   22.0085  -21.2398  -11.5350 C   0  0  1  0  0  0  0  0  0  0  0  0
   20.8380  -20.6059  -12.1000 C   0  0  0  0  0  0  0  0  0  0  0  0
   20.7964  -20.6782  -13.6140 C   0  0  0  0  0  0  0  0  0  0  0  0
   19.5640  -20.0458  -14.0891 O   0  0  0  0  0  0  0  0  0  0  0  0
   19.2529  -18.8858  -13.6701 C   0  0  0  0  0  0  0  0  0  0  0  0
   19.6416  -21.2018  -11.4836 O   0  0  0  0  0  0  0  0  0  0  0  0
   19.7258  -22.2561  -10.8206 O   0  0  0  0  0  0  0  0  0  0  0  0
   18.6943  -20.6595  -14.9924 O   0  0  0  0  0  0  0  0  0  0  0  0
  2  1  1  0
  2  3  2  0
  4  2  1  0
  5  4  1  0
  6  5  1  0
  7  8  1  0
  7  6  1  0
  8 10  1  0
  8  9  1  6
 10 11  2  0
 12 13  1  0
 12 10  1  0
 13 16  1  0
 14 15  1  0
 13 14  1  1
 16 17  2  0
 18 19  1  0
 18 16  1  0
 19 23  1  0
 20 21  1  0
 19 20  1  1
 21 22  2  0
 23 24  2  0
 23 26  1  0
 25 21  1  0
M  END
$$$$
