RCD.pdb
     RDKit          3D

 26 25  0  0  1  0  0  0  0  0999 V2000
   15.6330  -15.0370  -17.6232 N   0  0  0  0  0  0  0  0  0  0  0  0
   14.8167  -13.9163  -17.2915 C   0  0  0  0  0  0  0  0  0  0  0  0
   13.5555  -13.9233  -17.5462 N   0  0  0  0  0  0  0  0  0  0  0  0
   15.3895  -12.7763  -16.6735 N   0  0  0  0  0  0  0  0  0  0  0  0
   16.6346  -12.2465  -17.1878 C   0  0  0  0  0  0  0  0  0  0  0  0
   17.7977  -13.2295  -16.9895 C   0  0  0  0  0  0  0  0  0  0  0  0
   18.7494  -12.5525  -16.0444 C   0  0  0  0  0  0  0  0  0  0  0  0
   19.3389  -11.2749  -16.5862 C   0  0  2  0  0  0  0  0  0  0  0  0
   20.1244  -11.6486  -17.7479 N   0  0  0  0  0  0  0  0  0  0  0  0
   20.1915  -10.5503  -15.6477 C   0  0  0  0  0  0  0  0  0  0  0  0
   19.8515  -10.2583  -14.4574 O   0  0  0  0  0  0  0  0  0  0  0  0
   12.9010  -13.1721  -17.2771 N   0  0  0  0  0  0  0  0  0  0  0  0
   21.4870  -10.1215  -16.0321 C   0  0  1  0  0  0  0  0  0  0  0  0
   22.3066   -9.3087  -15.1052 C   0  0  0  0  0  0  0  0  0  0  0  0
   23.7728   -9.5244  -15.5069 S   0  0  0  0  0  0  0  0  0  0  0  0
   24.5047  -10.8454  -14.5254 C   0  0  0  0  0  0  0  0  0  0  0  0
   21.9915   -7.8866  -15.4023 O   0  0  0  0  0  0  0  0  0  0  0  0
   21.5786   -7.5689  -16.5649 N   0  0  0  0  0  0  0  0  0  0  0  0
   22.1099   -6.8288  -14.4826 C   0  0  1  0  0  0  0  0  0  0  0  0
   21.6101   -5.5164  -14.8275 C   0  0  0  0  0  0  0  0  0  0  0  0
   20.1483   -5.5251  -15.2303 C   0  0  0  0  0  0  0  0  0  0  0  0
   19.7236   -4.1534  -15.5176 O   0  0  0  0  0  0  0  0  0  0  0  0
   20.5054   -3.3745  -16.1498 C   0  0  0  0  0  0  0  0  0  0  0  0
   21.8688   -4.6074  -13.6993 O   0  0  0  0  0  0  0  0  0  0  0  0
   22.3455   -5.0405  -12.6299 O   0  0  0  0  0  0  0  0  0  0  0  0
   18.4843   -3.6438  -15.1258 O   0  0  0  0  0  0  0  0  0  0  0  0
  2  1  1  0
  2  3  2  0
  4  2  1  0
  5  4  1  0
  6  5  1  0
  7  8  1  0
  7  6  1  0
  8 10  1  0
  8  9  1  6
 10 11  2  0
 12 13  1  0
 12 10  1  0
 13 16  1  0
 14 15  1  0
 13 14  1  1
 16 17  2  0
 18 19  1  0
 18 16  1  0
 19 23  1  0
 20 21  1  0
 19 20  1  6
 21 22  2  0
 23 24  2  0
 23 26  1  0
 25 21  1  0
M  END
$$$$
