RCD.pdb
     RDKit          3D

 26 25  0  0  1  0  0  0  0  0999 V2000
   28.5832  -13.8817  -20.8419 N   0  0  0  0  0  0  0  0  0  0  0  0
   27.5448  -14.4427  -21.6414 C   0  0  0  0  0  0  0  0  0  0  0  0
   27.7470  -15.5143  -22.3242 N   0  0  0  0  0  0  0  0  0  0  0  0
   26.2711  -13.8224  -21.6919 N   0  0  0  0  0  0  0  0  0  0  0  0
   25.9668  -12.7602  -20.7567 C   0  0  0  0  0  0  0  0  0  0  0  0
   25.0224  -13.2347  -19.6426 C   0  0  0  0  0  0  0  0  0  0  0  0
   24.7816  -12.0347  -18.7712 C   0  0  0  0  0  0  0  0  0  0  0  0
   23.8242  -12.2904  -17.6348 C   0  0  2  0  0  0  0  0  0  0  0  0
   23.3143  -13.6356  -17.8259 N   0  0  0  0  0  0  0  0  0  0  0  0
   22.7003  -11.3607  -17.5630 C   0  0  0  0  0  0  0  0  0  0  0  0
   21.7012  -11.3905  -18.3496 O   0  0  0  0  0  0  0  0  0  0  0  0
   27.0674  -15.9234  -22.9844 N   0  0  0  0  0  0  0  0  0  0  0  0
   22.6672  -10.3426  -16.5770 C   0  0  1  0  0  0  0  0  0  0  0  0
   21.4893   -9.4527  -16.4664 C   0  0  0  0  0  0  0  0  0  0  0  0
   20.5097  -10.1345  -15.5004 S   0  0  0  0  0  0  0  0  0  0  0  0
   21.3888  -10.7802  -14.0671 C   0  0  0  0  0  0  0  0  0  0  0  0
   21.9593   -8.2157  -15.7890 O   0  0  0  0  0  0  0  0  0  0  0  0
   23.0277   -8.2513  -15.0960 N   0  0  0  0  0  0  0  0  0  0  0  0
   21.3090   -6.9698  -15.8509 C   0  0  1  0  0  0  0  0  0  0  0  0
   21.9187   -5.8092  -15.2406 C   0  0  0  0  0  0  0  0  0  0  0  0
   21.6106   -4.5203  -15.9775 C   0  0  0  0  0  0  0  0  0  0  0  0
   22.2534   -3.4051  -15.2793 O   0  0  0  0  0  0  0  0  0  0  0  0
   23.0590   -3.6441  -14.3245 C   0  0  0  0  0  0  0  0  0  0  0  0
   21.5054   -5.7531  -13.8292 O   0  0  0  0  0  0  0  0  0  0  0  0
   21.9656   -4.8791  -13.0659 O   0  0  0  0  0  0  0  0  0  0  0  0
   22.0241   -2.0682  -15.6097 O   0  0  0  0  0  0  0  0  0  0  0  0
  2  1  1  0
  2  3  2  0
  4  2  1  0
  5  4  1  0
  6  5  1  0
  7  8  1  0
  7  6  1  0
  8 10  1  0
  8  9  1  6
 10 11  2  0
 12 13  1  0
 12 10  1  0
 13 16  1  0
 14 15  1  0
 13 14  1  6
 16 17  2  0
 18 19  1  0
 18 16  1  0
 19 23  1  0
 20 21  1  0
 19 20  1  1
 21 22  2  0
 23 24  2  0
 23 26  1  0
 25 21  1  0
M  END
$$$$
