QER.pdb
     RDKit          3D

 30 29  0  0  1  0  0  0  0  0999 V2000
   30.5491  -16.1692  -19.5646 N   0  0  0  0  0  0  0  0  0  0  0  0
   29.4741  -16.2434  -20.4747 C   0  0  0  0  0  0  0  0  0  0  0  0
   29.6990  -15.8911  -21.6715 O   0  0  0  0  0  0  0  0  0  0  0  0
   28.1089  -16.7250  -20.0355 C   0  0  0  0  0  0  0  0  0  0  0  0
   28.1975  -16.9736  -18.5723 C   0  0  0  0  0  0  0  0  0  0  0  0
   27.3740  -18.0889  -18.0290 C   0  0  2  0  0  0  0  0  0  0  0  0
   26.9786  -18.9001  -19.2023 N   0  0  0  0  0  0  0  0  0  0  0  0
   26.1697  -17.7281  -17.2993 C   0  0  0  0  0  0  0  0  0  0  0  0
   26.2499  -16.9925  -16.2510 O   0  0  0  0  0  0  0  0  0  0  0  0
   24.8358  -18.1052  -17.6159 N   0  0  0  0  0  0  0  0  0  0  0  0
   23.6968  -17.7421  -16.8030 C   0  0  1  0  0  0  0  0  0  0  0  0
   22.6922  -16.9928  -17.6368 C   0  0  0  0  0  0  0  0  0  0  0  0
   21.5342  -16.5760  -16.7808 C   0  0  0  0  0  0  0  0  0  0  0  0
   20.4613  -15.8757  -17.5038 C   0  0  0  0  0  0  0  0  0  0  0  0
   20.6416  -15.3738  -18.6290 O   0  0  0  0  0  0  0  0  0  0  0  0
   23.0600  -18.9670  -16.1924 C   0  0  0  0  0  0  0  0  0  0  0  0
   22.8018  -19.9188  -16.9615 O   0  0  0  0  0  0  0  0  0  0  0  0
   19.1910  -15.7558  -16.9329 O   0  0  0  0  0  0  0  0  0  0  0  0
   24.0534  -19.6195   -8.6417 N   0  0  0  0  0  0  0  0  0  0  0  0
   23.7105  -20.9163   -9.1070 C   0  0  0  0  0  0  0  0  0  0  0  0
   23.0590  -21.6884   -8.2954 N   0  0  0  0  0  0  0  0  0  0  0  0
   24.0500  -21.3826  -10.4050 N   0  0  0  0  0  0  0  0  0  0  0  0
   24.6980  -20.5173  -11.3718 C   0  0  0  0  0  0  0  0  0  0  0  0
   23.6923  -19.8221  -12.2607 C   0  0  0  0  0  0  0  0  0  0  0  0
   23.1528  -20.8248  -13.2345 C   0  0  0  0  0  0  0  0  0  0  0  0
   22.1520  -20.2352  -14.2039 C   0  0  2  0  0  0  0  0  0  0  0  0
   22.7526  -19.0817  -14.8308 N   0  0  0  0  0  0  0  0  0  0  0  0
   20.8579  -19.9020  -13.5521 C   0  0  0  0  0  0  0  0  0  0  0  0
   20.4716  -18.7093  -13.3613 O   0  0  0  0  0  0  0  0  0  0  0  0
   19.9904  -20.8913  -13.1108 O   0  0  0  0  0  0  0  0  0  0  0  0
  2  1  1  0
  2  3  2  0
  4  5  1  0
  4  2  1  0
  6  7  1  6
  6  5  1  0
  8  6  1  0
  9  8  2  0
 10  8  1  0
 11 10  1  0
 11 12  1  6
 13 12  1  0
 14 15  2  0
 14 13  1  0
 16 11  1  0
 16 17  2  0
 18 14  1  0
 20 19  1  0
 21 20  2  0
 22 20  1  0
 23 22  1  0
 24 25  1  0
 24 23  1  0
 26 25  1  1
 26 27  1  0
 27 16  1  0
 28 26  1  0
 29 28  2  0
 30 28  1  0
M  END
$$$$
