QER.pdb
     RDKit          3D

 30 29  0  0  1  0  0  0  0  0999 V2000
   29.4073  -26.9172  -15.6270 N   0  0  0  0  0  0  0  0  0  0  0  0
   30.1915  -27.1005  -16.7850 C   0  0  0  0  0  0  0  0  0  0  0  0
   30.4906  -28.2906  -17.1033 O   0  0  0  0  0  0  0  0  0  0  0  0
   30.6548  -25.9208  -17.6110 C   0  0  0  0  0  0  0  0  0  0  0  0
   30.1367  -24.7013  -16.9365 C   0  0  0  0  0  0  0  0  0  0  0  0
   28.6714  -24.4535  -17.0288 C   0  0  2  0  0  0  0  0  0  0  0  0
   28.3157  -24.6916  -18.4459 N   0  0  0  0  0  0  0  0  0  0  0  0
   28.1991  -23.1296  -16.6581 C   0  0  0  0  0  0  0  0  0  0  0  0
   28.4284  -22.6719  -15.4815 O   0  0  0  0  0  0  0  0  0  0  0  0
   27.4750  -22.2219  -17.4788 N   0  0  0  0  0  0  0  0  0  0  0  0
   26.9420  -20.9688  -16.9934 C   0  0  1  0  0  0  0  0  0  0  0  0
   26.9029  -19.9627  -18.1122 C   0  0  0  0  0  0  0  0  0  0  0  0
   28.2760  -19.4061  -18.3406 C   0  0  0  0  0  0  0  0  0  0  0  0
   28.3675  -17.9419  -18.2312 C   0  0  0  0  0  0  0  0  0  0  0  0
   27.3735  -17.2350  -17.9803 O   0  0  0  0  0  0  0  0  0  0  0  0
   25.5612  -21.1607  -16.4141 C   0  0  0  0  0  0  0  0  0  0  0  0
   24.8427  -22.0428  -16.9332 O   0  0  0  0  0  0  0  0  0  0  0  0
   29.5958  -17.2990  -18.4097 O   0  0  0  0  0  0  0  0  0  0  0  0
   23.7937  -20.9810   -8.2947 N   0  0  0  0  0  0  0  0  0  0  0  0
   24.6051  -20.5487   -9.3766 C   0  0  0  0  0  0  0  0  0  0  0  0
   25.8167  -20.1793   -9.1030 N   0  0  0  0  0  0  0  0  0  0  0  0
   24.1417  -20.5111  -10.7187 N   0  0  0  0  0  0  0  0  0  0  0  0
   22.8621  -21.0831  -11.0912 C   0  0  0  0  0  0  0  0  0  0  0  0
   22.5850  -20.9165  -12.5677 C   0  0  0  0  0  0  0  0  0  0  0  0
   23.8949  -20.7556  -13.2770 C   0  0  0  0  0  0  0  0  0  0  0  0
   23.7436  -20.5491  -14.7682 C   0  0  2  0  0  0  0  0  0  0  0  0
   25.0606  -20.4098  -15.3430 N   0  0  0  0  0  0  0  0  0  0  0  0
   22.8696  -19.3919  -15.0958 C   0  0  0  0  0  0  0  0  0  0  0  0
   23.3277  -18.2498  -15.4020 O   0  0  0  0  0  0  0  0  0  0  0  0
   21.4860  -19.4998  -15.0841 O   0  0  0  0  0  0  0  0  0  0  0  0
  2  1  1  0
  2  3  2  0
  4  5  1  0
  4  2  1  0
  6  7  1  6
  6  5  1  0
  8  6  1  0
  9  8  2  0
 10  8  1  0
 11 10  1  0
 11 12  1  6
 13 12  1  0
 14 15  2  0
 14 13  1  0
 16 11  1  0
 16 17  2  0
 18 14  1  0
 20 19  1  0
 21 20  2  0
 22 20  1  0
 23 22  1  0
 24 25  1  0
 24 23  1  0
 26 25  1  1
 26 27  1  0
 27 16  1  0
 28 26  1  0
 29 28  2  0
 30 28  1  0
M  END
$$$$
