QER.pdb
     RDKit          3D

 30 29  0  0  1  0  0  0  0  0999 V2000
   21.9257  -18.7418  -20.3716 N   0  0  0  0  0  0  0  0  0  0  0  0
   23.0263  -17.8824  -20.1726 C   0  0  0  0  0  0  0  0  0  0  0  0
   23.9835  -17.9610  -21.0000 O   0  0  0  0  0  0  0  0  0  0  0  0
   23.0586  -16.9072  -19.0165 C   0  0  0  0  0  0  0  0  0  0  0  0
   21.8408  -17.1709  -18.2053 C   0  0  0  0  0  0  0  0  0  0  0  0
   22.0287  -17.3025  -16.7341 C   0  0  2  0  0  0  0  0  0  0  0  0
   22.5344  -15.9882  -16.2782 N   0  0  0  0  0  0  0  0  0  0  0  0
   22.9497  -18.3285  -16.2734 C   0  0  0  0  0  0  0  0  0  0  0  0
   22.5650  -19.5503  -16.1984 O   0  0  0  0  0  0  0  0  0  0  0  0
   24.3015  -18.1433  -15.8734 N   0  0  0  0  0  0  0  0  0  0  0  0
   25.1393  -19.2195  -15.3938 C   0  0  1  0  0  0  0  0  0  0  0  0
   26.5350  -19.0603  -15.9345 C   0  0  0  0  0  0  0  0  0  0  0  0
   26.5362  -19.3067  -17.4133 C   0  0  0  0  0  0  0  0  0  0  0  0
   27.8635  -19.2343  -18.0434 C   0  0  0  0  0  0  0  0  0  0  0  0
   28.0377  -19.4949  -19.2485 O   0  0  0  0  0  0  0  0  0  0  0  0
   25.1633  -19.2501  -13.8848 C   0  0  0  0  0  0  0  0  0  0  0  0
   24.7175  -18.2462  -13.2870 O   0  0  0  0  0  0  0  0  0  0  0  0
   28.9806  -18.8642  -17.2889 O   0  0  0  0  0  0  0  0  0  0  0  0
   20.6683  -21.8793   -7.5496 N   0  0  0  0  0  0  0  0  0  0  0  0
   20.6704  -20.9099   -8.5869 C   0  0  0  0  0  0  0  0  0  0  0  0
   19.5253  -20.5745   -9.0922 N   0  0  0  0  0  0  0  0  0  0  0  0
   21.8609  -20.3088   -9.0756 N   0  0  0  0  0  0  0  0  0  0  0  0
   23.0698  -21.0843   -9.2771 C   0  0  0  0  0  0  0  0  0  0  0  0
   24.2373  -20.2069   -9.6666 C   0  0  0  0  0  0  0  0  0  0  0  0
   24.3099  -20.1571  -11.1623 C   0  0  0  0  0  0  0  0  0  0  0  0
   25.7035  -20.3988  -11.6995 C   0  0  2  0  0  0  0  0  0  0  0  0
   25.6525  -20.3312  -13.1407 N   0  0  0  0  0  0  0  0  0  0  0  0
   26.2808  -21.6838  -11.2241 C   0  0  0  0  0  0  0  0  0  0  0  0
   26.1177  -22.7801  -11.8404 O   0  0  0  0  0  0  0  0  0  0  0  0
   27.0397  -21.7549  -10.0643 O   0  0  0  0  0  0  0  0  0  0  0  0
  2  1  1  0
  2  3  2  0
  4  5  1  0
  4  2  1  0
  6  7  1  6
  6  5  1  0
  8  6  1  0
  9  8  2  0
 10  8  1  0
 11 10  1  0
 11 12  1  6
 13 12  1  0
 14 15  2  0
 14 13  1  0
 16 11  1  0
 16 17  2  0
 18 14  1  0
 20 19  1  0
 21 20  2  0
 22 20  1  0
 23 22  1  0
 24 25  1  0
 24 23  1  0
 26 25  1  1
 26 27  1  0
 27 16  1  0
 28 26  1  0
 29 28  2  0
 30 28  1  0
M  END
$$$$
