QER.pdb
     RDKit          3D

 30 29  0  0  1  0  0  0  0  0999 V2000
   20.2172  -26.1724  -10.0436 N   0  0  0  0  0  0  0  0  0  0  0  0
   19.2299  -25.4887   -9.3039 C   0  0  0  0  0  0  0  0  0  0  0  0
   18.9430  -25.9437   -8.1560 O   0  0  0  0  0  0  0  0  0  0  0  0
   18.5433  -24.2618   -9.8624 C   0  0  0  0  0  0  0  0  0  0  0  0
   19.1528  -24.0042  -11.1939 C   0  0  0  0  0  0  0  0  0  0  0  0
   18.7034  -22.7803  -11.9132 C   0  0  2  0  0  0  0  0  0  0  0  0
   17.3607  -23.1023  -12.4466 N   0  0  0  0  0  0  0  0  0  0  0  0
   19.5314  -22.3185  -13.0152 C   0  0  0  0  0  0  0  0  0  0  0  0
   19.4863  -22.9190  -14.1482 O   0  0  0  0  0  0  0  0  0  0  0  0
   20.4366  -21.2221  -13.0002 N   0  0  0  0  0  0  0  0  0  0  0  0
   21.2732  -20.8713  -14.1259 C   0  0  1  0  0  0  0  0  0  0  0  0
   21.3712  -19.3738  -14.2425 C   0  0  0  0  0  0  0  0  0  0  0  0
   21.9810  -19.0076  -15.5622 C   0  0  0  0  0  0  0  0  0  0  0  0
   22.1673  -17.5631  -15.7690 C   0  0  0  0  0  0  0  0  0  0  0  0
   21.2722  -16.7377  -15.5082 O   0  0  0  0  0  0  0  0  0  0  0  0
   22.6489  -21.4759  -13.9820 C   0  0  0  0  0  0  0  0  0  0  0  0
   23.3101  -21.1541  -12.9705 O   0  0  0  0  0  0  0  0  0  0  0  0
   23.3767  -17.0753  -16.2724 O   0  0  0  0  0  0  0  0  0  0  0  0
   26.0550  -28.7944  -17.7104 N   0  0  0  0  0  0  0  0  0  0  0  0
   27.1562  -28.1434  -17.0947 C   0  0  0  0  0  0  0  0  0  0  0  0
   28.2977  -28.7565  -17.1126 N   0  0  0  0  0  0  0  0  0  0  0  0
   27.0489  -26.8696  -16.4754 N   0  0  0  0  0  0  0  0  0  0  0  0
   25.7856  -26.1590  -16.4261 C   0  0  0  0  0  0  0  0  0  0  0  0
   25.8962  -24.8788  -15.6302 C   0  0  0  0  0  0  0  0  0  0  0  0
   24.5629  -24.1955  -15.6505 C   0  0  0  0  0  0  0  0  0  0  0  0
   24.5387  -22.9123  -14.8493 C   0  0  2  0  0  0  0  0  0  0  0  0
   23.2051  -22.3629  -14.9123 N   0  0  0  0  0  0  0  0  0  0  0  0
   25.5631  -21.9370  -15.3072 C   0  0  0  0  0  0  0  0  0  0  0  0
   26.7668  -21.9668  -14.9091 O   0  0  0  0  0  0  0  0  0  0  0  0
   25.2540  -20.9270  -16.2074 O   0  0  0  0  0  0  0  0  0  0  0  0
  2  1  1  0
  2  3  2  0
  4  5  1  0
  4  2  1  0
  6  7  1  6
  6  5  1  0
  8  6  1  0
  9  8  2  0
 10  8  1  0
 11 10  1  0
 11 12  1  1
 13 12  1  0
 14 15  2  0
 14 13  1  0
 16 11  1  0
 16 17  2  0
 18 14  1  0
 20 19  1  0
 21 20  2  0
 22 20  1  0
 23 22  1  0
 24 25  1  0
 24 23  1  0
 26 25  1  6
 26 27  1  0
 27 16  1  0
 28 26  1  0
 29 28  2  0
 30 28  1  0
M  END
$$$$
