QER.pdb
     RDKit          3D

 30 29  0  0  1  0  0  0  0  0999 V2000
   29.4192  -17.9092  -22.0430 N   0  0  0  0  0  0  0  0  0  0  0  0
   29.5439  -16.5653  -21.6331 C   0  0  0  0  0  0  0  0  0  0  0  0
   29.6221  -15.6844  -22.5413 O   0  0  0  0  0  0  0  0  0  0  0  0
   29.5823  -16.1949  -20.1668 C   0  0  0  0  0  0  0  0  0  0  0  0
   28.5459  -15.1478  -19.9668 C   0  0  0  0  0  0  0  0  0  0  0  0
   27.1260  -15.5960  -19.9822 C   0  0  2  0  0  0  0  0  0  0  0  0
   26.3290  -14.3838  -20.2762 N   0  0  0  0  0  0  0  0  0  0  0  0
   26.6079  -16.1960  -18.7638 C   0  0  0  0  0  0  0  0  0  0  0  0
   26.5343  -15.5022  -17.6869 O   0  0  0  0  0  0  0  0  0  0  0  0
   26.1430  -17.5299  -18.6012 N   0  0  0  0  0  0  0  0  0  0  0  0
   25.6942  -18.0626  -17.3344 C   0  0  1  0  0  0  0  0  0  0  0  0
   24.2798  -18.5615  -17.4623 C   0  0  0  0  0  0  0  0  0  0  0  0
   23.8094  -19.0935  -16.1420 C   0  0  0  0  0  0  0  0  0  0  0  0
   22.4727  -19.7071  -16.1721 C   0  0  0  0  0  0  0  0  0  0  0  0
   22.2790  -20.8859  -15.8209 O   0  0  0  0  0  0  0  0  0  0  0  0
   26.6012  -19.1754  -16.8678 C   0  0  0  0  0  0  0  0  0  0  0  0
   26.6704  -20.1948  -17.5889 O   0  0  0  0  0  0  0  0  0  0  0  0
   21.3687  -18.9662  -16.6039 O   0  0  0  0  0  0  0  0  0  0  0  0
   25.7521  -19.3863   -8.1775 N   0  0  0  0  0  0  0  0  0  0  0  0
   25.4277  -20.6317   -8.7771 C   0  0  0  0  0  0  0  0  0  0  0  0
   24.6416  -21.4240   -8.1188 N   0  0  0  0  0  0  0  0  0  0  0  0
   25.9250  -21.0265  -10.0477 N   0  0  0  0  0  0  0  0  0  0  0  0
   26.0246  -20.0835  -11.1450 C   0  0  0  0  0  0  0  0  0  0  0  0
   26.7126  -20.6938  -12.3446 C   0  0  0  0  0  0  0  0  0  0  0  0
   26.8068  -19.6493  -13.4147 C   0  0  0  0  0  0  0  0  0  0  0  0
   27.4312  -20.1617  -14.6941 C   0  0  2  0  0  0  0  0  0  0  0  0
   27.3529  -19.1171  -15.6874 N   0  0  0  0  0  0  0  0  0  0  0  0
   26.8048  -21.4247  -15.1660 C   0  0  0  0  0  0  0  0  0  0  0  0
   27.4169  -22.5353  -15.1712 O   0  0  0  0  0  0  0  0  0  0  0  0
   25.4983  -21.4577  -15.6331 O   0  0  0  0  0  0  0  0  0  0  0  0
  2  1  1  0
  2  3  2  0
  4  5  1  0
  4  2  1  0
  6  7  1  1
  6  5  1  0
  8  6  1  0
  9  8  2  0
 10  8  1  0
 11 10  1  0
 11 12  1  6
 13 12  1  0
 14 15  2  0
 14 13  1  0
 16 11  1  0
 16 17  2  0
 18 14  1  0
 20 19  1  0
 21 20  2  0
 22 20  1  0
 23 22  1  0
 24 25  1  0
 24 23  1  0
 26 25  1  1
 26 27  1  0
 27 16  1  0
 28 26  1  0
 29 28  2  0
 30 28  1  0
M  END
$$$$
