QER.pdb
     RDKit          3D

 30 29  0  0  1  0  0  0  0  0999 V2000
   24.5739  -32.2023   -2.6551 N   0  0  0  0  0  0  0  0  0  0  0  0
   25.0664  -32.7888   -3.8396 C   0  0  0  0  0  0  0  0  0  0  0  0
   26.2840  -32.5849   -4.1276 O   0  0  0  0  0  0  0  0  0  0  0  0
   24.1734  -33.6270   -4.7276 C   0  0  0  0  0  0  0  0  0  0  0  0
   23.2380  -32.6855   -5.3978 C   0  0  0  0  0  0  0  0  0  0  0  0
   21.9164  -33.2322   -5.8121 C   0  0  2  0  0  0  0  0  0  0  0  0
   21.9348  -33.2397   -7.2922 N   0  0  0  0  0  0  0  0  0  0  0  0
   20.7340  -32.5078   -5.3760 C   0  0  0  0  0  0  0  0  0  0  0  0
   20.1472  -31.6946   -6.1764 O   0  0  0  0  0  0  0  0  0  0  0  0
   20.1052  -32.5894   -4.1033 N   0  0  0  0  0  0  0  0  0  0  0  0
   18.8755  -31.9002   -3.7826 C   0  0  1  0  0  0  0  0  0  0  0  0
   18.0837  -32.7047   -2.7869 C   0  0  0  0  0  0  0  0  0  0  0  0
   16.7987  -31.9989   -2.4733 C   0  0  0  0  0  0  0  0  0  0  0  0
   15.9605  -32.6736   -1.4701 C   0  0  0  0  0  0  0  0  0  0  0  0
   14.8019  -33.0522   -1.7244 O   0  0  0  0  0  0  0  0  0  0  0  0
   19.1590  -30.5224   -3.2346 C   0  0  0  0  0  0  0  0  0  0  0  0
   20.1022  -30.4156   -2.4204 O   0  0  0  0  0  0  0  0  0  0  0  0
   16.4555  -32.9094   -0.1843 O   0  0  0  0  0  0  0  0  0  0  0  0
   16.9733  -23.8715   -7.8926 N   0  0  0  0  0  0  0  0  0  0  0  0
   17.8136  -24.9863   -8.1513 C   0  0  0  0  0  0  0  0  0  0  0  0
   18.0500  -25.2802   -9.3910 N   0  0  0  0  0  0  0  0  0  0  0  0
   18.3913  -25.7704   -7.1174 N   0  0  0  0  0  0  0  0  0  0  0  0
   18.4098  -25.3101   -5.7422 C   0  0  0  0  0  0  0  0  0  0  0  0
   19.1140  -26.2922   -4.8344 C   0  0  0  0  0  0  0  0  0  0  0  0
   18.0749  -27.0619   -4.0777 C   0  0  0  0  0  0  0  0  0  0  0  0
   18.6635  -28.0483   -3.0930 C   0  0  2  0  0  0  0  0  0  0  0  0
   18.4272  -29.3826   -3.5909 N   0  0  0  0  0  0  0  0  0  0  0  0
   18.1287  -27.8661   -1.7178 C   0  0  0  0  0  0  0  0  0  0  0  0
   17.2979  -28.6669   -1.1918 O   0  0  0  0  0  0  0  0  0  0  0  0
   18.5146  -26.7952   -0.9238 O   0  0  0  0  0  0  0  0  0  0  0  0
  2  1  1  0
  2  3  2  0
  4  5  1  0
  4  2  1  0
  6  7  1  6
  6  5  1  0
  8  6  1  0
  9  8  2  0
 10  8  1  0
 11 10  1  0
 11 12  1  1
 13 12  1  0
 14 15  2  0
 14 13  1  0
 16 11  1  0
 16 17  2  0
 18 14  1  0
 20 19  1  0
 21 20  2  0
 22 20  1  0
 23 22  1  0
 24 25  1  0
 24 23  1  0
 26 25  1  6
 26 27  1  0
 27 16  1  0
 28 26  1  0
 29 28  2  0
 30 28  1  0
M  END
$$$$
