QER.pdb
     RDKit          3D

 30 29  0  0  1  0  0  0  0  0999 V2000
   26.4030  -19.2026  -16.2516 N   0  0  0  0  0  0  0  0  0  0  0  0
   27.5816  -19.7145  -15.6700 C   0  0  0  0  0  0  0  0  0  0  0  0
   28.6012  -19.8190  -16.4161 O   0  0  0  0  0  0  0  0  0  0  0  0
   27.6226  -20.1214  -14.2135 C   0  0  0  0  0  0  0  0  0  0  0  0
   26.2697  -19.8507  -13.6595 C   0  0  0  0  0  0  0  0  0  0  0  0
   25.4420  -21.0346  -13.2987 C   0  0  2  0  0  0  0  0  0  0  0  0
   25.6134  -21.9947  -14.4122 N   0  0  0  0  0  0  0  0  0  0  0  0
   24.0184  -20.8130  -13.1048 C   0  0  0  0  0  0  0  0  0  0  0  0
   23.6098  -20.0584  -12.1509 O   0  0  0  0  0  0  0  0  0  0  0  0
   22.9578  -21.3542  -13.8818 N   0  0  0  0  0  0  0  0  0  0  0  0
   21.5617  -21.1366  -13.5757 C   0  0  1  0  0  0  0  0  0  0  0  0
   20.8848  -20.4552  -14.7346 C   0  0  0  0  0  0  0  0  0  0  0  0
   19.4346  -20.2421  -14.4197 C   0  0  0  0  0  0  0  0  0  0  0  0
   18.6436  -19.6887  -15.5298 C   0  0  0  0  0  0  0  0  0  0  0  0
   17.4559  -20.0113  -15.7195 O   0  0  0  0  0  0  0  0  0  0  0  0
   20.8711  -22.4413  -13.2601 C   0  0  0  0  0  0  0  0  0  0  0  0
   21.1781  -23.4323  -13.9583 O   0  0  0  0  0  0  0  0  0  0  0  0
   19.2184  -18.7707  -16.4134 O   0  0  0  0  0  0  0  0  0  0  0  0
   17.3198  -24.9751   -5.6647 N   0  0  0  0  0  0  0  0  0  0  0  0
   17.8925  -26.0508   -6.3931 C   0  0  0  0  0  0  0  0  0  0  0  0
   18.2278  -27.1106   -5.7271 N   0  0  0  0  0  0  0  0  0  0  0  0
   18.1030  -26.0034   -7.7970 N   0  0  0  0  0  0  0  0  0  0  0  0
   17.7169  -24.8446   -8.5790 C   0  0  0  0  0  0  0  0  0  0  0  0
   18.0855  -25.0065  -10.0359 C   0  0  0  0  0  0  0  0  0  0  0  0
   18.8148  -23.7741  -10.4764 C   0  0  0  0  0  0  0  0  0  0  0  0
   19.1982  -23.7997  -11.9399 C   0  0  2  0  0  0  0  0  0  0  0  0
   19.9217  -22.5872  -12.2408 N   0  0  0  0  0  0  0  0  0  0  0  0
   18.0229  -23.9809  -12.8321 C   0  0  0  0  0  0  0  0  0  0  0  0
   17.2929  -23.0159  -13.2115 O   0  0  0  0  0  0  0  0  0  0  0  0
   17.6553  -25.2329  -13.3047 O   0  0  0  0  0  0  0  0  0  0  0  0
  2  1  1  0
  2  3  2  0
  4  5  1  0
  4  2  1  0
  6  7  1  6
  6  5  1  0
  8  6  1  0
  9  8  2  0
 10  8  1  0
 11 10  1  0
 11 12  1  6
 13 12  1  0
 14 15  2  0
 14 13  1  0
 16 11  1  0
 16 17  2  0
 18 14  1  0
 20 19  1  0
 21 20  2  0
 22 20  1  0
 23 22  1  0
 24 25  1  0
 24 23  1  0
 26 25  1  1
 26 27  1  0
 27 16  1  0
 28 26  1  0
 29 28  2  0
 30 28  1  0
M  END
$$$$
