QER.pdb
     RDKit          3D

 30 29  0  0  1  0  0  0  0  0999 V2000
   17.8888  -10.6679  -11.4334 N   0  0  0  0  0  0  0  0  0  0  0  0
   17.2962   -9.7786  -10.5129 C   0  0  0  0  0  0  0  0  0  0  0  0
   17.7159   -9.8131   -9.3172 O   0  0  0  0  0  0  0  0  0  0  0  0
   16.2038   -8.8233  -10.9401 C   0  0  0  0  0  0  0  0  0  0  0  0
   15.9848   -9.0520  -12.3928 C   0  0  0  0  0  0  0  0  0  0  0  0
   14.9449   -8.2173  -13.0553 C   0  0  2  0  0  0  0  0  0  0  0  0
   14.3435   -9.0818  -14.0956 N   0  0  0  0  0  0  0  0  0  0  0  0
   15.3884   -6.9861  -13.6883 C   0  0  0  0  0  0  0  0  0  0  0  0
   15.6642   -6.9711  -14.9413 O   0  0  0  0  0  0  0  0  0  0  0  0
   15.5650   -5.7215  -13.0627 N   0  0  0  0  0  0  0  0  0  0  0  0
   15.9340   -4.5255  -13.7862 C   0  0  1  0  0  0  0  0  0  0  0  0
   15.2244   -3.3345  -13.2001 C   0  0  0  0  0  0  0  0  0  0  0  0
   15.5900   -2.0994  -13.9672 C   0  0  0  0  0  0  0  0  0  0  0  0
   14.9239   -0.8726  -13.5030 C   0  0  0  0  0  0  0  0  0  0  0  0
   13.7775   -0.5617  -13.8767 O   0  0  0  0  0  0  0  0  0  0  0  0
   17.4283   -4.3146  -13.7489 C   0  0  0  0  0  0  0  0  0  0  0  0
   18.0580   -4.8600  -12.8162 O   0  0  0  0  0  0  0  0  0  0  0  0
   15.5754   -0.0120  -12.6147 O   0  0  0  0  0  0  0  0  0  0  0  0
   22.2774   -9.2226  -15.6618 N   0  0  0  0  0  0  0  0  0  0  0  0
   21.8328   -8.5815  -14.4757 C   0  0  0  0  0  0  0  0  0  0  0  0
   21.5157   -9.3374  -13.4720 N   0  0  0  0  0  0  0  0  0  0  0  0
   21.7287   -7.1700  -14.3568 N   0  0  0  0  0  0  0  0  0  0  0  0
   22.0170   -6.2954  -15.4772 C   0  0  0  0  0  0  0  0  0  0  0  0
   21.6011   -4.8700  -15.1939 C   0  0  0  0  0  0  0  0  0  0  0  0
   20.1233   -4.8514  -14.9475 C   0  0  0  0  0  0  0  0  0  0  0  0
   19.5624   -3.4545  -14.7942 C   0  0  2  0  0  0  0  0  0  0  0  0
   18.1255   -3.5509  -14.6936 N   0  0  0  0  0  0  0  0  0  0  0  0
   19.9823   -2.5495  -15.8965 C   0  0  0  0  0  0  0  0  0  0  0  0
   19.2518   -2.3101  -16.9051 O   0  0  0  0  0  0  0  0  0  0  0  0
   21.2133   -1.9088  -15.8819 O   0  0  0  0  0  0  0  0  0  0  0  0
  2  1  1  0
  2  3  2  0
  4  5  1  0
  4  2  1  0
  6  7  1  6
  6  5  1  0
  8  6  1  0
  9  8  2  0
 10  8  1  0
 11 10  1  0
 11 12  1  1
 13 12  1  0
 14 15  2  0
 14 13  1  0
 16 11  1  0
 16 17  2  0
 18 14  1  0
 20 19  1  0
 21 20  2  0
 22 20  1  0
 23 22  1  0
 24 25  1  0
 24 23  1  0
 26 25  1  6
 26 27  1  0
 27 16  1  0
 28 26  1  0
 29 28  2  0
 30 28  1  0
M  END
$$$$
