QER.pdb
     RDKit          3D

 30 29  0  0  1  0  0  0  0  0999 V2000
   29.7352  -22.2505  -11.2596 N   0  0  0  0  0  0  0  0  0  0  0  0
   29.9169  -21.0709  -10.5079 C   0  0  0  0  0  0  0  0  0  0  0  0
   30.9718  -20.9816   -9.8106 O   0  0  0  0  0  0  0  0  0  0  0  0
   28.8910  -19.9595  -10.5357 C   0  0  0  0  0  0  0  0  0  0  0  0
   27.8458  -20.3716  -11.5095 C   0  0  0  0  0  0  0  0  0  0  0  0
   26.5194  -20.7529  -10.9505 C   0  0  2  0  0  0  0  0  0  0  0  0
   26.7343  -22.0449  -10.2608 N   0  0  0  0  0  0  0  0  0  0  0  0
   25.4259  -20.9178  -11.8940 C   0  0  0  0  0  0  0  0  0  0  0  0
   25.5950  -21.6148  -12.9579 O   0  0  0  0  0  0  0  0  0  0  0  0
   24.1156  -20.3767  -11.7837 N   0  0  0  0  0  0  0  0  0  0  0  0
   23.0875  -20.5841  -12.7786 C   0  0  1  0  0  0  0  0  0  0  0  0
   21.7904  -20.9446  -12.1055 C   0  0  0  0  0  0  0  0  0  0  0  0
   20.7080  -21.0832  -13.1335 C   0  0  0  0  0  0  0  0  0  0  0  0
   19.3870  -21.4295  -12.5865 C   0  0  0  0  0  0  0  0  0  0  0  0
   18.7627  -20.6609  -11.8315 O   0  0  0  0  0  0  0  0  0  0  0  0
   22.9092  -19.3516  -13.6319 C   0  0  0  0  0  0  0  0  0  0  0  0
   22.1642  -18.4519  -13.1852 O   0  0  0  0  0  0  0  0  0  0  0  0
   18.7915  -22.6525  -12.9083 O   0  0  0  0  0  0  0  0  0  0  0  0
   24.3146  -17.4070  -20.8900 N   0  0  0  0  0  0  0  0  0  0  0  0
   23.5584  -18.4301  -21.5202 C   0  0  0  0  0  0  0  0  0  0  0  0
   22.9940  -18.1441  -22.6511 N   0  0  0  0  0  0  0  0  0  0  0  0
   23.4060  -19.7279  -20.9636 N   0  0  0  0  0  0  0  0  0  0  0  0
   23.8376  -20.0240  -19.6111 C   0  0  0  0  0  0  0  0  0  0  0  0
   23.0463  -19.2408  -18.5887 C   0  0  0  0  0  0  0  0  0  0  0  0
   23.4961  -19.6614  -17.2228 C   0  0  0  0  0  0  0  0  0  0  0  0
   22.8496  -18.8645  -16.1110 C   0  0  2  0  0  0  0  0  0  0  0  0
   23.5287  -19.1755  -14.8756 N   0  0  0  0  0  0  0  0  0  0  0  0
   21.3857  -19.1059  -16.0158 C   0  0  0  0  0  0  0  0  0  0  0  0
   20.8914  -20.2518  -15.7905 O   0  0  0  0  0  0  0  0  0  0  0  0
   20.4677  -18.0766  -16.1706 O   0  0  0  0  0  0  0  0  0  0  0  0
  2  1  1  0
  2  3  2  0
  4  5  1  0
  4  2  1  0
  6  7  1  6
  6  5  1  0
  8  6  1  0
  9  8  2  0
 10  8  1  0
 11 10  1  0
 11 12  1  1
 13 12  1  0
 14 15  2  0
 14 13  1  0
 16 11  1  0
 16 17  2  0
 18 14  1  0
 20 19  1  0
 21 20  2  0
 22 20  1  0
 23 22  1  0
 24 25  1  0
 24 23  1  0
 26 25  1  6
 26 27  1  0
 27 16  1  0
 28 26  1  0
 29 28  2  0
 30 28  1  0
M  END
$$$$
