QER.pdb
     RDKit          3D

 30 29  0  0  1  0  0  0  0  0999 V2000
   30.3147  -21.2069  -20.8743 N   0  0  0  0  0  0  0  0  0  0  0  0
   28.9818  -20.7821  -21.0543 C   0  0  0  0  0  0  0  0  0  0  0  0
   28.1740  -21.6061  -21.5794 O   0  0  0  0  0  0  0  0  0  0  0  0
   28.5385  -19.3976  -20.6357 C   0  0  0  0  0  0  0  0  0  0  0  0
   28.0638  -19.5110  -19.2313 C   0  0  0  0  0  0  0  0  0  0  0  0
   26.8945  -20.3998  -18.9867 C   0  0  2  0  0  0  0  0  0  0  0  0
   26.3032  -20.6557  -20.3194 N   0  0  0  0  0  0  0  0  0  0  0  0
   25.8479  -19.8922  -18.1150 C   0  0  0  0  0  0  0  0  0  0  0  0
   26.1138  -19.6011  -16.8939 O   0  0  0  0  0  0  0  0  0  0  0  0
   24.4881  -19.6611  -18.4605 N   0  0  0  0  0  0  0  0  0  0  0  0
   23.4826  -19.2705  -17.4980 C   0  0  1  0  0  0  0  0  0  0  0  0
   22.2178  -18.8756  -18.2122 C   0  0  0  0  0  0  0  0  0  0  0  0
   21.1680  -18.4975  -17.2110 C   0  0  0  0  0  0  0  0  0  0  0  0
   19.8592  -18.1647  -17.7946 C   0  0  0  0  0  0  0  0  0  0  0  0
   19.0341  -19.0425  -18.1094 O   0  0  0  0  0  0  0  0  0  0  0  0
   23.2058  -20.3913  -16.5253 C   0  0  0  0  0  0  0  0  0  0  0  0
   23.5918  -21.5358  -16.8494 O   0  0  0  0  0  0  0  0  0  0  0  0
   19.5058  -16.8300  -18.0128 O   0  0  0  0  0  0  0  0  0  0  0  0
   23.8687  -20.5399   -9.4058 N   0  0  0  0  0  0  0  0  0  0  0  0
   25.1696  -21.1052   -9.3448 C   0  0  0  0  0  0  0  0  0  0  0  0
   25.5937  -21.5026   -8.1866 N   0  0  0  0  0  0  0  0  0  0  0  0
   26.0011  -21.2470  -10.4877 N   0  0  0  0  0  0  0  0  0  0  0  0
   25.6143  -20.7008  -11.7743 C   0  0  0  0  0  0  0  0  0  0  0  0
   24.5861  -21.5689  -12.4627 C   0  0  0  0  0  0  0  0  0  0  0  0
   24.2531  -20.9457  -13.7840 C   0  0  0  0  0  0  0  0  0  0  0  0
   22.7757  -20.9888  -14.1077 C   0  0  2  0  0  0  0  0  0  0  0  0
   22.5497  -20.2090  -15.3014 N   0  0  0  0  0  0  0  0  0  0  0  0
   21.9320  -20.5262  -12.9743 C   0  0  0  0  0  0  0  0  0  0  0  0
   21.7828  -21.1987  -11.9096 O   0  0  0  0  0  0  0  0  0  0  0  0
   21.2523  -19.3171  -13.0203 O   0  0  0  0  0  0  0  0  0  0  0  0
  2  1  1  0
  2  3  2  0
  4  5  1  0
  4  2  1  0
  6  7  1  6
  6  5  1  0
  8  6  1  0
  9  8  2  0
 10  8  1  0
 11 10  1  0
 11 12  1  6
 13 12  1  0
 14 15  2  0
 14 13  1  0
 16 11  1  0
 16 17  2  0
 18 14  1  0
 20 19  1  0
 21 20  2  0
 22 20  1  0
 23 22  1  0
 24 25  1  0
 24 23  1  0
 26 25  1  1
 26 27  1  0
 27 16  1  0
 28 26  1  0
 29 28  2  0
 30 28  1  0
M  END
$$$$
