QER.pdb
     RDKit          3D

 30 29  0  0  1  0  0  0  0  0999 V2000
   31.3183  -24.5217  -17.9466 N   0  0  0  0  0  0  0  0  0  0  0  0
   30.7333  -25.7506  -17.5766 C   0  0  0  0  0  0  0  0  0  0  0  0
   31.3616  -26.8092  -17.8794 O   0  0  0  0  0  0  0  0  0  0  0  0
   29.4086  -25.7985  -16.8474 C   0  0  0  0  0  0  0  0  0  0  0  0
   29.0244  -24.3886  -16.5731 C   0  0  0  0  0  0  0  0  0  0  0  0
   27.6546  -23.9734  -16.9833 C   0  0  2  0  0  0  0  0  0  0  0  0
   27.7598  -23.6125  -18.4150 N   0  0  0  0  0  0  0  0  0  0  0  0
   27.0628  -22.8510  -16.2739 C   0  0  0  0  0  0  0  0  0  0  0  0
   27.7797  -22.1431  -15.4794 O   0  0  0  0  0  0  0  0  0  0  0  0
   25.7137  -22.4087  -16.3522 N   0  0  0  0  0  0  0  0  0  0  0  0
   25.1953  -21.3080  -15.5714 C   0  0  1  0  0  0  0  0  0  0  0  0
   23.9578  -20.7554  -16.2261 C   0  0  0  0  0  0  0  0  0  0  0  0
   23.4415  -19.5928  -15.4327 C   0  0  0  0  0  0  0  0  0  0  0  0
   23.8154  -18.2743  -15.9674 C   0  0  0  0  0  0  0  0  0  0  0  0
   22.9752  -17.4996  -16.4618 O   0  0  0  0  0  0  0  0  0  0  0  0
   24.8886  -21.7478  -14.1602 C   0  0  0  0  0  0  0  0  0  0  0  0
   24.1791  -22.7684  -14.0227 O   0  0  0  0  0  0  0  0  0  0  0  0
   25.1480  -17.8534  -15.9318 O   0  0  0  0  0  0  0  0  0  0  0  0
   28.1456  -18.8110   -6.3653 N   0  0  0  0  0  0  0  0  0  0  0  0
   26.9801  -19.5559   -6.0453 C   0  0  0  0  0  0  0  0  0  0  0  0
   26.7361  -19.7723   -4.7911 N   0  0  0  0  0  0  0  0  0  0  0  0
   26.0926  -20.0582   -7.0339 N   0  0  0  0  0  0  0  0  0  0  0  0
   26.4073  -19.9665   -8.4467 C   0  0  0  0  0  0  0  0  0  0  0  0
   25.3287  -20.5931   -9.3005 C   0  0  0  0  0  0  0  0  0  0  0  0
   25.7245  -20.4498  -10.7384 C   0  0  0  0  0  0  0  0  0  0  0  0
   24.8916  -21.2994  -11.6731 C   0  0  2  0  0  0  0  0  0  0  0  0
   25.3544  -21.0770  -13.0224 N   0  0  0  0  0  0  0  0  0  0  0  0
   23.4351  -21.0351  -11.5352 C   0  0  0  0  0  0  0  0  0  0  0  0
   22.6763  -21.7353  -10.7988 O   0  0  0  0  0  0  0  0  0  0  0  0
   22.8178  -19.9938  -12.2139 O   0  0  0  0  0  0  0  0  0  0  0  0
  2  1  1  0
  2  3  2  0
  4  5  1  0
  4  2  1  0
  6  7  1  6
  6  5  1  0
  8  6  1  0
  9  8  2  0
 10  8  1  0
 11 10  1  0
 11 12  1  6
 13 12  1  0
 14 15  2  0
 14 13  1  0
 16 11  1  0
 16 17  2  0
 18 14  1  0
 20 19  1  0
 21 20  2  0
 22 20  1  0
 23 22  1  0
 24 25  1  0
 24 23  1  0
 26 25  1  1
 26 27  1  0
 27 16  1  0
 28 26  1  0
 29 28  2  0
 30 28  1  0
M  END
$$$$
