QER.pdb
     RDKit          3D

 30 29  0  0  1  0  0  0  0  0999 V2000
   17.6485  -14.7818  -16.6636 N   0  0  0  0  0  0  0  0  0  0  0  0
   18.4810  -14.4489  -17.7525 C   0  0  0  0  0  0  0  0  0  0  0  0
   19.1584  -15.3845  -18.2749 O   0  0  0  0  0  0  0  0  0  0  0  0
   18.5590  -13.0306  -18.2728 C   0  0  0  0  0  0  0  0  0  0  0  0
   18.4983  -12.1391  -17.0844 C   0  0  0  0  0  0  0  0  0  0  0  0
   19.7376  -11.3870  -16.7445 C   0  0  2  0  0  0  0  0  0  0  0  0
   20.6435  -12.3750  -16.1165 N   0  0  0  0  0  0  0  0  0  0  0  0
   19.5996  -10.2577  -15.8397 C   0  0  0  0  0  0  0  0  0  0  0  0
   18.8746  -10.3634  -14.7863 O   0  0  0  0  0  0  0  0  0  0  0  0
   20.2003   -8.9763  -15.9776 N   0  0  0  0  0  0  0  0  0  0  0  0
   19.9181   -7.8705  -15.0902 C   0  0  1  0  0  0  0  0  0  0  0  0
   21.1304   -6.9858  -14.9749 C   0  0  0  0  0  0  0  0  0  0  0  0
   20.8706   -5.8988  -13.9756 C   0  0  0  0  0  0  0  0  0  0  0  0
   21.9584   -4.9170  -13.8446 C   0  0  0  0  0  0  0  0  0  0  0  0
   21.7673   -3.6957  -13.9946 O   0  0  0  0  0  0  0  0  0  0  0  0
   18.7345   -7.0741  -15.5838 C   0  0  0  0  0  0  0  0  0  0  0  0
   18.6646   -6.8597  -16.8139 O   0  0  0  0  0  0  0  0  0  0  0  0
   23.2557   -5.3413  -13.5430 O   0  0  0  0  0  0  0  0  0  0  0  0
   10.7096   -8.1812  -13.4130 N   0  0  0  0  0  0  0  0  0  0  0  0
   11.4899   -8.4534  -14.5674 C   0  0  0  0  0  0  0  0  0  0  0  0
   11.1917   -9.5117  -15.2531 N   0  0  0  0  0  0  0  0  0  0  0  0
   12.5613   -7.6201  -14.9857 N   0  0  0  0  0  0  0  0  0  0  0  0
   12.9270   -6.4306  -14.2408 C   0  0  0  0  0  0  0  0  0  0  0  0
   14.0852   -5.7032  -14.8844 C   0  0  0  0  0  0  0  0  0  0  0  0
   15.3448   -6.4496  -14.5661 C   0  0  0  0  0  0  0  0  0  0  0  0
   16.5800   -5.8192  -15.1712 C   0  0  2  0  0  0  0  0  0  0  0  0
   17.7323   -6.5756  -14.7419 N   0  0  0  0  0  0  0  0  0  0  0  0
   16.7054   -4.3768  -14.8333 C   0  0  0  0  0  0  0  0  0  0  0  0
   17.6432   -3.9188  -14.1129 O   0  0  0  0  0  0  0  0  0  0  0  0
   15.7907   -3.4402  -15.2939 O   0  0  0  0  0  0  0  0  0  0  0  0
  2  1  1  0
  2  3  2  0
  4  5  1  0
  4  2  1  0
  6  7  1  1
  6  5  1  0
  8  6  1  0
  9  8  2  0
 10  8  1  0
 11 10  1  0
 11 12  1  6
 13 12  1  0
 14 15  2  0
 14 13  1  0
 16 11  1  0
 16 17  2  0
 18 14  1  0
 20 19  1  0
 21 20  2  0
 22 20  1  0
 23 22  1  0
 24 25  1  0
 24 23  1  0
 26 25  1  1
 26 27  1  0
 27 16  1  0
 28 26  1  0
 29 28  2  0
 30 28  1  0
M  END
$$$$
