QER.pdb
     RDKit          3D

 30 29  0  0  1  0  0  0  0  0999 V2000
   19.1657  -24.4263  -10.5206 N   0  0  0  0  0  0  0  0  0  0  0  0
   17.9958  -23.6422  -10.5991 C   0  0  0  0  0  0  0  0  0  0  0  0
   16.9077  -24.1820  -10.2362 O   0  0  0  0  0  0  0  0  0  0  0  0
   18.0428  -22.2146  -11.0972 C   0  0  0  0  0  0  0  0  0  0  0  0
   19.4631  -21.9284  -11.4309 C   0  0  0  0  0  0  0  0  0  0  0  0
   19.7685  -21.6112  -12.8533 C   0  0  2  0  0  0  0  0  0  0  0  0
   19.4852  -22.8527  -13.6079 N   0  0  0  0  0  0  0  0  0  0  0  0
   21.1259  -21.1919  -13.1614 C   0  0  0  0  0  0  0  0  0  0  0  0
   21.5937  -20.1088  -12.6571 O   0  0  0  0  0  0  0  0  0  0  0  0
   22.0578  -21.8667  -13.9968 N   0  0  0  0  0  0  0  0  0  0  0  0
   23.3831  -21.3602  -14.2743 C   0  0  1  0  0  0  0  0  0  0  0  0
   24.2555  -22.4704  -14.7957 C   0  0  0  0  0  0  0  0  0  0  0  0
   25.6535  -21.9658  -14.9924 C   0  0  0  0  0  0  0  0  0  0  0  0
   26.6230  -22.9954  -15.3974 C   0  0  0  0  0  0  0  0  0  0  0  0
   27.8198  -22.7273  -15.6128 O   0  0  0  0  0  0  0  0  0  0  0  0
   23.3275  -20.2271  -15.2702 C   0  0  0  0  0  0  0  0  0  0  0  0
   22.5451  -20.3558  -16.2373 O   0  0  0  0  0  0  0  0  0  0  0  0
   26.2148  -24.3233  -15.5524 O   0  0  0  0  0  0  0  0  0  0  0  0
   24.5285  -12.8779  -17.7658 N   0  0  0  0  0  0  0  0  0  0  0  0
   24.2984  -12.5680  -16.3995 C   0  0  0  0  0  0  0  0  0  0  0  0
   23.5183  -11.5669  -16.1381 N   0  0  0  0  0  0  0  0  0  0  0  0
   24.8818  -13.3051  -15.3348 N   0  0  0  0  0  0  0  0  0  0  0  0
   25.6552  -14.5065  -15.5839 C   0  0  0  0  0  0  0  0  0  0  0  0
   24.8358  -15.5608  -16.2922 C   0  0  0  0  0  0  0  0  0  0  0  0
   24.8531  -16.8071  -15.4608 C   0  0  0  0  0  0  0  0  0  0  0  0
   24.0369  -17.9328  -16.0574 C   0  0  2  0  0  0  0  0  0  0  0  0
   24.0976  -19.0623  -15.1605 N   0  0  0  0  0  0  0  0  0  0  0  0
   24.4802  -18.2900  -17.4308 C   0  0  0  0  0  0  0  0  0  0  0  0
   25.5108  -18.9927  -17.6593 O   0  0  0  0  0  0  0  0  0  0  0  0
   23.7810  -17.8682  -18.5531 O   0  0  0  0  0  0  0  0  0  0  0  0
  2  1  1  0
  2  3  2  0
  4  5  1  0
  4  2  1  0
  6  7  1  6
  6  5  1  0
  8  6  1  0
  9  8  2  0
 10  8  1  0
 11 10  1  0
 11 12  1  6
 13 12  1  0
 14 15  2  0
 14 13  1  0
 16 11  1  0
 16 17  2  0
 18 14  1  0
 20 19  1  0
 21 20  2  0
 22 20  1  0
 23 22  1  0
 24 25  1  0
 24 23  1  0
 26 25  1  1
 26 27  1  0
 27 16  1  0
 28 26  1  0
 29 28  2  0
 30 28  1  0
M  END
$$$$
