NSS.pdb
     RDKit          3D

 21 20  0  0  1  0  0  0  0  0999 V2000
    8.9986  -17.7239   14.2092 N   0  0  0  0  0  0  0  0  0  0  0  0
    8.5232  -17.6584   15.5535 C   0  0  0  0  0  0  0  0  0  0  0  0
    7.3915  -18.1250   15.8037 O   0  0  0  0  0  0  0  0  0  0  0  0
    9.3523  -17.0516   16.6263 C   0  0  0  0  0  0  0  0  0  0  0  0
    8.9707  -17.6519   17.9395 C   0  0  2  0  0  0  0  0  0  0  0  0
    7.5466  -17.8874   17.9422 N   0  0  0  0  0  0  0  0  0  0  0  0
    9.3866  -16.8182   19.0921 C   0  0  0  0  0  0  0  0  0  0  0  0
   10.5736  -16.4501   19.2764 O   0  0  0  0  0  0  0  0  0  0  0  0
    6.6694  -16.0622   22.2985 O   0  0  0  0  0  0  0  0  0  0  0  0
    7.5105  -15.0689   21.7954 C   0  0  0  0  0  0  0  0  0  0  0  0
    8.7490  -15.6619   21.2274 C   0  0  2  0  0  0  0  0  0  0  0  0
    8.4030  -16.4129   20.0359 N   0  0  0  0  0  0  0  0  0  0  0  0
    9.5755  -16.4419   22.1254 C   0  0  0  0  0  0  0  0  0  0  0  0
    9.4220  -17.6917   22.1366 O   0  0  0  0  0  0  0  0  0  0  0  0
   13.2318  -16.1591   22.6788 O   0  0  0  0  0  0  0  0  0  0  0  0
   12.7397  -16.0753   23.9707 C   0  0  0  0  0  0  0  0  0  0  0  0
   11.3289  -16.6765   23.9339 C   0  0  2  0  0  0  0  0  0  0  0  0
   10.5564  -15.9208   23.0062 N   0  0  0  0  0  0  0  0  0  0  0  0
   10.8220  -16.6892   25.2982 C   0  0  0  0  0  0  0  0  0  0  0  0
   11.3874  -17.3640   26.1832 O   0  0  0  0  0  0  0  0  0  0  0  0
    9.7068  -15.9566   25.6432 O   0  0  0  0  0  0  0  0  0  0  0  0
  2  3  2  0
  2  1  1  0
  4  2  1  0
  5  7  1  0
  5  4  1  0
  5  6  1  6
  7  8  2  0
 10  9  1  0
 11 10  1  1
 11 13  1  0
 12 11  1  0
 12  7  1  0
 13 14  2  0
 13 18  1  0
 15 16  1  0
 17 16  1  1
 17 19  1  0
 18 17  1  0
 19 20  2  0
 19 21  1  0
M  END
$$$$
