NSS.pdb
     RDKit          3D

 21 20  0  0  1  0  0  0  0  0999 V2000
    0.2826  -26.5170   25.0414 N   0  0  0  0  0  0  0  0  0  0  0  0
   -0.8358  -26.7252   25.9035 C   0  0  0  0  0  0  0  0  0  0  0  0
   -0.6983  -27.5004   26.8736 O   0  0  0  0  0  0  0  0  0  0  0  0
   -2.1290  -26.0381   25.6536 C   0  0  0  0  0  0  0  0  0  0  0  0
   -3.1852  -26.6543   26.5111 C   0  0  2  0  0  0  0  0  0  0  0  0
   -3.5107  -27.9555   25.9779 N   0  0  0  0  0  0  0  0  0  0  0  0
   -4.3901  -25.8005   26.6365 C   0  0  0  0  0  0  0  0  0  0  0  0
   -4.3368  -24.5840   26.9458 O   0  0  0  0  0  0  0  0  0  0  0  0
   -9.2141  -25.7040   26.0284 O   0  0  0  0  0  0  0  0  0  0  0  0
   -8.0113  -26.4066   25.9444 C   0  0  0  0  0  0  0  0  0  0  0  0
   -6.8885  -25.6002   26.4893 C   0  0  2  0  0  0  0  0  0  0  0  0
   -5.6677  -26.3779   26.3974 N   0  0  0  0  0  0  0  0  0  0  0  0
   -7.0634  -25.0410   27.8140 C   0  0  0  0  0  0  0  0  0  0  0  0
   -6.8237  -25.7797   28.8052 O   0  0  0  0  0  0  0  0  0  0  0  0
   -6.8363  -21.1928   28.5888 O   0  0  0  0  0  0  0  0  0  0  0  0
   -6.7269  -22.0674   29.6572 C   0  0  0  0  0  0  0  0  0  0  0  0
   -7.7403  -23.1900   29.4000 C   0  0  2  0  0  0  0  0  0  0  0  0
   -7.4859  -23.7189   28.1023 N   0  0  0  0  0  0  0  0  0  0  0  0
   -9.0708  -22.6321   29.5927 C   0  0  0  0  0  0  0  0  0  0  0  0
   -9.8714  -22.5460   28.6388 O   0  0  0  0  0  0  0  0  0  0  0  0
   -9.4760  -22.1865   30.8323 O   0  0  0  0  0  0  0  0  0  0  0  0
  2  3  2  0
  2  1  1  0
  4  2  1  0
  5  7  1  0
  5  4  1  0
  5  6  1  6
  7  8  2  0
 10  9  1  0
 11 10  1  1
 11 13  1  0
 12 11  1  0
 12  7  1  0
 13 14  2  0
 13 18  1  0
 15 16  1  0
 17 16  1  6
 17 19  1  0
 18 17  1  0
 19 20  2  0
 19 21  1  0
M  END
$$$$
