NSS.pdb
     RDKit          3D

 21 20  0  0  1  0  0  0  0  0999 V2000
    7.4862  -18.0437   14.7297 N   0  0  0  0  0  0  0  0  0  0  0  0
    7.9038  -16.6838   14.6128 C   0  0  0  0  0  0  0  0  0  0  0  0
    7.9187  -16.1655   13.4761 O   0  0  0  0  0  0  0  0  0  0  0  0
    8.3098  -15.9056   15.8113 C   0  0  0  0  0  0  0  0  0  0  0  0
    8.3433  -16.8134   16.9968 C   0  0  2  0  0  0  0  0  0  0  0  0
    7.0016  -17.2747   17.2622 N   0  0  0  0  0  0  0  0  0  0  0  0
    8.9448  -16.1732   18.1905 C   0  0  0  0  0  0  0  0  0  0  0  0
   10.1510  -15.8261   18.2453 O   0  0  0  0  0  0  0  0  0  0  0  0
    6.7462  -15.7751   21.8992 O   0  0  0  0  0  0  0  0  0  0  0  0
    7.5448  -14.7800   21.3340 C   0  0  0  0  0  0  0  0  0  0  0  0
    8.6604  -15.3762   20.5543 C   0  0  2  0  0  0  0  0  0  0  0  0
    8.1254  -15.9382   19.3289 N   0  0  0  0  0  0  0  0  0  0  0  0
    9.5123  -16.3225   21.2448 C   0  0  0  0  0  0  0  0  0  0  0  0
    9.2378  -17.5476   21.1474 O   0  0  0  0  0  0  0  0  0  0  0  0
   12.9590  -15.1424   22.9448 O   0  0  0  0  0  0  0  0  0  0  0  0
   12.9081  -16.4885   22.6223 C   0  0  0  0  0  0  0  0  0  0  0  0
   11.4412  -16.9117   22.7719 C   0  0  2  0  0  0  0  0  0  0  0  0
   10.6439  -15.9922   22.0321 N   0  0  0  0  0  0  0  0  0  0  0  0
   11.1481  -16.9813   24.1959 C   0  0  0  0  0  0  0  0  0  0  0  0
   10.2812  -16.2421   24.7062 O   0  0  0  0  0  0  0  0  0  0  0  0
   11.8210  -17.8645   25.0123 O   0  0  0  0  0  0  0  0  0  0  0  0
  2  3  2  0
  2  1  1  0
  4  2  1  0
  5  7  1  0
  5  4  1  0
  5  6  1  1
  7  8  2  0
 10  9  1  0
 11 10  1  1
 11 13  1  0
 12 11  1  0
 12  7  1  0
 13 14  2  0
 13 18  1  0
 15 16  1  0
 17 16  1  1
 17 19  1  0
 18 17  1  0
 19 20  2  0
 19 21  1  0
M  END
$$$$
