NSS.pdb
     RDKit          3D

 21 20  0  0  1  0  0  0  0  0999 V2000
   10.8551  -18.2070   16.2677 N   0  0  0  0  0  0  0  0  0  0  0  0
   10.9558  -16.7971   16.0690 C   0  0  0  0  0  0  0  0  0  0  0  0
   11.3101  -16.3823   14.9450 O   0  0  0  0  0  0  0  0  0  0  0  0
   10.6475  -15.8484   17.1698 C   0  0  0  0  0  0  0  0  0  0  0  0
    9.1657  -15.7167   17.3026 C   0  0  2  0  0  0  0  0  0  0  0  0
    8.6584  -15.0264   16.1409 N   0  0  0  0  0  0  0  0  0  0  0  0
    8.7620  -15.0395   18.5576 C   0  0  0  0  0  0  0  0  0  0  0  0
    9.0324  -13.8375   18.8033 O   0  0  0  0  0  0  0  0  0  0  0  0
    6.1680  -16.9888   21.3790 O   0  0  0  0  0  0  0  0  0  0  0  0
    6.1654  -15.6430   21.0100 C   0  0  0  0  0  0  0  0  0  0  0  0
    7.5476  -15.1626   20.7516 C   0  0  2  0  0  0  0  0  0  0  0  0
    8.0353  -15.7778   19.5321 N   0  0  0  0  0  0  0  0  0  0  0  0
    8.5025  -15.2965   21.8325 C   0  0  0  0  0  0  0  0  0  0  0  0
    9.4905  -16.0578   21.6592 O   0  0  0  0  0  0  0  0  0  0  0  0
    7.4531  -14.0910   25.4007 O   0  0  0  0  0  0  0  0  0  0  0  0
    8.8298  -13.9511   25.3414 C   0  0  0  0  0  0  0  0  0  0  0  0
    9.3041  -14.8462   24.1893 C   0  0  2  0  0  0  0  0  0  0  0  0
    8.4267  -14.6399   23.0866 N   0  0  0  0  0  0  0  0  0  0  0  0
    9.3611  -16.2117   24.6900 C   0  0  0  0  0  0  0  0  0  0  0  0
   10.2022  -16.5413   25.5514 O   0  0  0  0  0  0  0  0  0  0  0  0
    8.4879  -17.1707   24.2241 O   0  0  0  0  0  0  0  0  0  0  0  0
  2  3  2  0
  2  1  1  0
  4  2  1  0
  5  7  1  0
  5  4  1  0
  5  6  1  6
  7  8  2  0
 10  9  1  0
 11 10  1  1
 11 13  1  0
 12 11  1  0
 12  7  1  0
 13 14  2  0
 13 18  1  0
 15 16  1  0
 17 16  1  1
 17 19  1  0
 18 17  1  0
 19 20  2  0
 19 21  1  0
M  END
$$$$
