NSS.pdb
     RDKit          3D

 21 20  0  0  1  0  0  0  0  0999 V2000
    9.1698  -20.7930   14.5323 N   0  0  0  0  0  0  0  0  0  0  0  0
    8.4293  -19.7758   15.2063 C   0  0  0  0  0  0  0  0  0  0  0  0
    7.3487  -19.4002   14.7042 O   0  0  0  0  0  0  0  0  0  0  0  0
    8.9306  -19.1797   16.4712 C   0  0  0  0  0  0  0  0  0  0  0  0
    8.4356  -17.7749   16.5810 C   0  0  2  0  0  0  0  0  0  0  0  0
    8.9282  -17.0230   15.4517 N   0  0  0  0  0  0  0  0  0  0  0  0
    8.8087  -17.1357   17.8650 C   0  0  0  0  0  0  0  0  0  0  0  0
    9.9971  -16.8767   18.1797 O   0  0  0  0  0  0  0  0  0  0  0  0
    7.0367  -15.1935   21.9562 O   0  0  0  0  0  0  0  0  0  0  0  0
    6.8038  -15.7564   20.7007 C   0  0  0  0  0  0  0  0  0  0  0  0
    8.0747  -16.2156   20.0827 C   0  0  2  0  0  0  0  0  0  0  0  0
    7.7802  -16.7976   18.7872 N   0  0  0  0  0  0  0  0  0  0  0  0
    8.9145  -17.0876   20.8780 C   0  0  0  0  0  0  0  0  0  0  0  0
    8.5963  -18.3032   20.9601 O   0  0  0  0  0  0  0  0  0  0  0  0
   12.3096  -15.6912   22.4582 O   0  0  0  0  0  0  0  0  0  0  0  0
   12.3254  -17.0687   22.3146 C   0  0  0  0  0  0  0  0  0  0  0  0
   10.8664  -17.5298   22.4254 C   0  0  2  0  0  0  0  0  0  0  0  0
   10.0792  -16.6933   21.5833 N   0  0  0  0  0  0  0  0  0  0  0  0
   10.5053  -17.5069   23.8352 C   0  0  0  0  0  0  0  0  0  0  0  0
   11.0831  -18.2508   24.6544 O   0  0  0  0  0  0  0  0  0  0  0  0
    9.5177  -16.6638   24.2967 O   0  0  0  0  0  0  0  0  0  0  0  0
  2  3  2  0
  2  1  1  0
  4  2  1  0
  5  7  1  0
  5  4  1  0
  5  6  1  6
  7  8  2  0
 10  9  1  0
 11 10  1  1
 11 13  1  0
 12 11  1  0
 12  7  1  0
 13 14  2  0
 13 18  1  0
 15 16  1  0
 17 16  1  1
 17 19  1  0
 18 17  1  0
 19 20  2  0
 19 21  1  0
M  END
$$$$
