NSS.pdb
     RDKit          3D

 21 20  0  0  1  0  0  0  0  0999 V2000
   10.8536  -18.2001   15.5549 N   0  0  0  0  0  0  0  0  0  0  0  0
    9.9581  -17.4385   16.3645 C   0  0  0  0  0  0  0  0  0  0  0  0
    8.7356  -17.5028   16.1151 O   0  0  0  0  0  0  0  0  0  0  0  0
   10.4667  -16.5920   17.4742 C   0  0  0  0  0  0  0  0  0  0  0  0
   10.4079  -17.3678   18.7491 C   0  0  2  0  0  0  0  0  0  0  0  0
    9.0366  -17.7441   18.9968 N   0  0  0  0  0  0  0  0  0  0  0  0
   10.9848  -16.6275   19.8962 C   0  0  0  0  0  0  0  0  0  0  0  0
   12.1683  -16.2062   19.9122 O   0  0  0  0  0  0  0  0  0  0  0  0
    8.7620  -16.0697   23.5760 O   0  0  0  0  0  0  0  0  0  0  0  0
    9.5753  -15.1125   22.9680 C   0  0  0  0  0  0  0  0  0  0  0  0
   10.6940  -15.7583   22.2336 C   0  0  2  0  0  0  0  0  0  0  0  0
   10.1675  -16.3796   21.0334 N   0  0  0  0  0  0  0  0  0  0  0  0
   11.5298  -16.6740   22.9826 C   0  0  0  0  0  0  0  0  0  0  0  0
   11.1937  -17.8869   23.0203 O   0  0  0  0  0  0  0  0  0  0  0  0
   15.1136  -15.4941   24.3971 O   0  0  0  0  0  0  0  0  0  0  0  0
   15.0019  -16.8478   24.1258 C   0  0  0  0  0  0  0  0  0  0  0  0
   13.5428  -17.2251   24.4122 C   0  0  2  0  0  0  0  0  0  0  0  0
   12.7091  -16.3258   23.6880 N   0  0  0  0  0  0  0  0  0  0  0  0
   13.3621  -17.2123   25.8564 C   0  0  0  0  0  0  0  0  0  0  0  0
   14.0070  -17.9919   26.5875 O   0  0  0  0  0  0  0  0  0  0  0  0
   12.4752  -16.3393   26.4485 O   0  0  0  0  0  0  0  0  0  0  0  0
  2  3  2  0
  2  1  1  0
  4  2  1  0
  5  7  1  0
  5  4  1  0
  5  6  1  1
  7  8  2  0
 10  9  1  0
 11 10  1  1
 11 13  1  0
 12 11  1  0
 12  7  1  0
 13 14  2  0
 13 18  1  0
 15 16  1  0
 17 16  1  1
 17 19  1  0
 18 17  1  0
 19 20  2  0
 19 21  1  0
M  END
$$$$
