NSS.pdb
     RDKit          3D

 21 20  0  0  1  0  0  0  0  0999 V2000
   10.3270  -15.3455   12.5040 N   0  0  0  0  0  0  0  0  0  0  0  0
   10.6054  -16.2008   13.6123 C   0  0  0  0  0  0  0  0  0  0  0  0
   11.2790  -17.2330   13.4081 O   0  0  0  0  0  0  0  0  0  0  0  0
   10.1071  -15.8720   14.9726 C   0  0  0  0  0  0  0  0  0  0  0  0
   10.5539  -16.9301   15.9273 C   0  0  2  0  0  0  0  0  0  0  0  0
    9.9983  -18.1943   15.5072 N   0  0  0  0  0  0  0  0  0  0  0  0
   10.1990  -16.6196   17.3323 C   0  0  0  0  0  0  0  0  0  0  0  0
   10.4974  -15.5334   17.8886 O   0  0  0  0  0  0  0  0  0  0  0  0
    8.3589  -19.5976   19.7748 O   0  0  0  0  0  0  0  0  0  0  0  0
    8.0176  -18.2468   19.8527 C   0  0  0  0  0  0  0  0  0  0  0  0
    9.1747  -17.3871   19.4922 C   0  0  2  0  0  0  0  0  0  0  0  0
    9.4887  -17.5904   18.0909 N   0  0  0  0  0  0  0  0  0  0  0  0
   10.3569  -17.4946   20.3223 C   0  0  0  0  0  0  0  0  0  0  0  0
   11.3918  -18.0030   19.8162 O   0  0  0  0  0  0  0  0  0  0  0  0
   10.4315  -15.5380   23.5756 O   0  0  0  0  0  0  0  0  0  0  0  0
   11.2827  -16.5916   23.8651 C   0  0  0  0  0  0  0  0  0  0  0  0
   11.5749  -17.2883   22.5299 C   0  0  2  0  0  0  0  0  0  0  0  0
   10.4582  -17.0741   21.6723 N   0  0  0  0  0  0  0  0  0  0  0  0
   11.8763  -18.6825   22.8197 C   0  0  0  0  0  0  0  0  0  0  0  0
   11.1048  -19.5923   22.4519 O   0  0  0  0  0  0  0  0  0  0  0  0
   13.0198  -19.0289   23.5064 O   0  0  0  0  0  0  0  0  0  0  0  0
  2  3  2  0
  2  1  1  0
  4  2  1  0
  5  7  1  0
  5  4  1  0
  5  6  1  6
  7  8  2  0
 10  9  1  0
 11 10  1  1
 11 13  1  0
 12 11  1  0
 12  7  1  0
 13 14  2  0
 13 18  1  0
 15 16  1  0
 17 16  1  1
 17 19  1  0
 18 17  1  0
 19 20  2  0
 19 21  1  0
M  END
$$$$
