NSS.pdb
     RDKit          3D

 21 20  0  0  1  0  0  0  0  0999 V2000
   12.9710  -20.6895   19.3016 N   0  0  0  0  0  0  0  0  0  0  0  0
   11.7402  -20.0542   18.9568 C   0  0  0  0  0  0  0  0  0  0  0  0
   11.2133  -20.3413   17.8610 O   0  0  0  0  0  0  0  0  0  0  0  0
   11.1028  -19.0775   19.8770 C   0  0  0  0  0  0  0  0  0  0  0  0
   10.0906  -18.2807   19.1213 C   0  0  2  0  0  0  0  0  0  0  0  0
   10.6806  -17.8470   17.8774 N   0  0  0  0  0  0  0  0  0  0  0  0
    9.5646  -17.1363   19.9024 C   0  0  0  0  0  0  0  0  0  0  0  0
   10.1842  -16.0504   20.0257 O   0  0  0  0  0  0  0  0  0  0  0  0
    5.7901  -17.4125   21.9444 O   0  0  0  0  0  0  0  0  0  0  0  0
    6.2320  -16.2967   21.2323 C   0  0  0  0  0  0  0  0  0  0  0  0
    7.7116  -16.1781   21.2996 C   0  0  2  0  0  0  0  0  0  0  0  0
    8.3020  -17.2663   20.5439 N   0  0  0  0  0  0  0  0  0  0  0  0
    8.3024  -16.0649   22.6172 C   0  0  0  0  0  0  0  0  0  0  0  0
    9.0636  -16.9894   23.0065 O   0  0  0  0  0  0  0  0  0  0  0  0
    6.6417  -13.6478   25.1618 O   0  0  0  0  0  0  0  0  0  0  0  0
    7.9795  -13.6812   25.5191 C   0  0  0  0  0  0  0  0  0  0  0  0
    8.5678  -14.9390   24.8670 C   0  0  2  0  0  0  0  0  0  0  0  0
    8.1000  -14.9933   23.5229 N   0  0  0  0  0  0  0  0  0  0  0  0
    8.2010  -16.0762   25.6982 C   0  0  0  0  0  0  0  0  0  0  0  0
    7.3650  -16.9138   25.3012 O   0  0  0  0  0  0  0  0  0  0  0  0
    8.7684  -16.2532   26.9416 O   0  0  0  0  0  0  0  0  0  0  0  0
  2  3  2  0
  2  1  1  0
  4  2  1  0
  5  7  1  0
  5  4  1  0
  5  6  1  6
  7  8  2  0
 10  9  1  0
 11 10  1  1
 11 13  1  0
 12 11  1  0
 12  7  1  0
 13 14  2  0
 13 18  1  0
 15 16  1  0
 17 16  1  1
 17 19  1  0
 18 17  1  0
 19 20  2  0
 19 21  1  0
M  END
$$$$
