NSS.pdb
     RDKit          3D

 21 20  0  0  1  0  0  0  0  0999 V2000
    8.3655  -20.6998   19.3465 N   0  0  0  0  0  0  0  0  0  0  0  0
    8.5398  -19.8731   18.1960 C   0  0  0  0  0  0  0  0  0  0  0  0
    9.5931  -19.9942   17.5350 O   0  0  0  0  0  0  0  0  0  0  0  0
    7.4963  -18.8947   17.7955 C   0  0  0  0  0  0  0  0  0  0  0  0
    8.1514  -17.6075   17.4151 C   0  0  2  0  0  0  0  0  0  0  0  0
    9.1086  -17.8696   16.3671 N   0  0  0  0  0  0  0  0  0  0  0  0
    8.7815  -16.9236   18.5691 C   0  0  0  0  0  0  0  0  0  0  0  0
   10.0242  -16.7784   18.6824 O   0  0  0  0  0  0  0  0  0  0  0  0
    6.3998  -15.6370   21.8270 O   0  0  0  0  0  0  0  0  0  0  0  0
    7.3758  -14.8060   21.2755 C   0  0  0  0  0  0  0  0  0  0  0  0
    8.4799  -15.6063   20.6851 C   0  0  2  0  0  0  0  0  0  0  0  0
    7.9476  -16.4058   19.5983 N   0  0  0  0  0  0  0  0  0  0  0  0
    9.2703  -16.4081   21.5965 C   0  0  0  0  0  0  0  0  0  0  0  0
    8.9456  -17.6138   21.7588 O   0  0  0  0  0  0  0  0  0  0  0  0
   13.0823  -16.0452   22.3020 O   0  0  0  0  0  0  0  0  0  0  0  0
   12.4577  -16.0352   23.5382 C   0  0  0  0  0  0  0  0  0  0  0  0
   11.0874  -16.6938   23.3333 C   0  0  2  0  0  0  0  0  0  0  0  0
   10.3926  -15.9542   22.3339 N   0  0  0  0  0  0  0  0  0  0  0  0
   10.4306  -16.7521   24.6309 C   0  0  0  0  0  0  0  0  0  0  0  0
    9.4235  -16.0540   24.8687 O   0  0  0  0  0  0  0  0  0  0  0  0
   10.9060  -17.5792   25.6255 O   0  0  0  0  0  0  0  0  0  0  0  0
  2  3  2  0
  2  1  1  0
  4  2  1  0
  5  7  1  0
  5  4  1  0
  5  6  1  6
  7  8  2  0
 10  9  1  0
 11 10  1  1
 11 13  1  0
 12 11  1  0
 12  7  1  0
 13 14  2  0
 13 18  1  0
 15 16  1  0
 17 16  1  1
 17 19  1  0
 18 17  1  0
 19 20  2  0
 19 21  1  0
M  END
$$$$
