NSS.pdb
     RDKit          3D

 21 20  0  0  1  0  0  0  0  0999 V2000
   12.7758  -20.4061   19.6582 N   0  0  0  0  0  0  0  0  0  0  0  0
   11.5299  -20.1427   19.0134 C   0  0  0  0  0  0  0  0  0  0  0  0
   11.5230  -20.0137   17.7708 O   0  0  0  0  0  0  0  0  0  0  0  0
   10.2749  -20.0254   19.7994 C   0  0  0  0  0  0  0  0  0  0  0  0
    9.7578  -18.6285   19.6915 C   0  0  2  0  0  0  0  0  0  0  0  0
    9.4513  -18.3561   18.3075 N   0  0  0  0  0  0  0  0  0  0  0  0
   10.6970  -17.6263   20.2483 C   0  0  0  0  0  0  0  0  0  0  0  0
   11.4351  -16.9076   19.5293 O   0  0  0  0  0  0  0  0  0  0  0  0
   10.6090  -16.6741   24.4044 O   0  0  0  0  0  0  0  0  0  0  0  0
   10.8794  -15.7915   23.3578 C   0  0  0  0  0  0  0  0  0  0  0  0
   11.6321  -16.4725   22.2726 C   0  0  2  0  0  0  0  0  0  0  0  0
   10.7712  -17.4657   21.6595 N   0  0  0  0  0  0  0  0  0  0  0  0
   12.9235  -17.0301   22.6186 C   0  0  0  0  0  0  0  0  0  0  0  0
   12.9811  -18.2532   22.9123 O   0  0  0  0  0  0  0  0  0  0  0  0
   17.5930  -17.1216   22.2352 O   0  0  0  0  0  0  0  0  0  0  0  0
   16.4461  -16.3812   22.0009 C   0  0  0  0  0  0  0  0  0  0  0  0
   15.4126  -16.8504   23.0330 C   0  0  2  0  0  0  0  0  0  0  0  0
   14.1471  -16.3155   22.6577 N   0  0  0  0  0  0  0  0  0  0  0  0
   15.8914  -16.4476   24.3472 C   0  0  0  0  0  0  0  0  0  0  0  0
   15.5703  -15.3434   24.8329 O   0  0  0  0  0  0  0  0  0  0  0  0
   16.7096  -17.2762   25.0842 O   0  0  0  0  0  0  0  0  0  0  0  0
  2  3  2  0
  2  1  1  0
  4  2  1  0
  5  7  1  0
  5  4  1  0
  5  6  1  6
  7  8  2  0
 10  9  1  0
 11 10  1  1
 11 13  1  0
 12 11  1  0
 12  7  1  0
 13 14  2  0
 13 18  1  0
 15 16  1  0
 17 16  1  6
 17 19  1  0
 18 17  1  0
 19 20  2  0
 19 21  1  0
M  END
$$$$
