NSS.pdb
     RDKit          3D

 21 20  0  0  1  0  0  0  0  0999 V2000
   14.3362  -18.0149   17.5357 N   0  0  0  0  0  0  0  0  0  0  0  0
   13.2462  -18.3174   18.4061 C   0  0  0  0  0  0  0  0  0  0  0  0
   13.0292  -19.5152   18.6875 O   0  0  0  0  0  0  0  0  0  0  0  0
   12.3926  -17.2365   18.9626 C   0  0  0  0  0  0  0  0  0  0  0  0
   10.9683  -17.5005   18.5989 C   0  0  2  0  0  0  0  0  0  0  0  0
   10.8233  -17.3574   17.1699 N   0  0  0  0  0  0  0  0  0  0  0  0
   10.0198  -16.6291   19.3321 C   0  0  0  0  0  0  0  0  0  0  0  0
    9.6756  -15.4936   18.9190 O   0  0  0  0  0  0  0  0  0  0  0  0
    7.2483  -18.1835   22.1001 O   0  0  0  0  0  0  0  0  0  0  0  0
    7.1936  -17.0594   21.2752 C   0  0  0  0  0  0  0  0  0  0  0  0
    8.4851  -16.3248   21.2956 C   0  0  2  0  0  0  0  0  0  0  0  0
    9.4708  -17.0928   20.5593 N   0  0  0  0  0  0  0  0  0  0  0  0
    8.9889  -15.9176   22.5912 C   0  0  0  0  0  0  0  0  0  0  0  0
    9.9752  -16.5402   23.0656 O   0  0  0  0  0  0  0  0  0  0  0  0
    6.6962  -13.7442   24.9625 O   0  0  0  0  0  0  0  0  0  0  0  0
    8.0098  -13.3741   25.1988 C   0  0  0  0  0  0  0  0  0  0  0  0
    8.8799  -14.5389   24.7095 C   0  0  2  0  0  0  0  0  0  0  0  0
    8.4664  -14.8670   23.3867 N   0  0  0  0  0  0  0  0  0  0  0  0
    8.7591  -15.6150   25.6822 C   0  0  0  0  0  0  0  0  0  0  0  0
    9.1872  -15.4743   26.8463 O   0  0  0  0  0  0  0  0  0  0  0  0
    8.1697  -16.8126   25.3396 O   0  0  0  0  0  0  0  0  0  0  0  0
  2  3  2  0
  2  1  1  0
  4  2  1  0
  5  7  1  0
  5  4  1  0
  5  6  1  6
  7  8  2  0
 10  9  1  0
 11 10  1  1
 11 13  1  0
 12 11  1  0
 12  7  1  0
 13 14  2  0
 13 18  1  0
 15 16  1  0
 17 16  1  1
 17 19  1  0
 18 17  1  0
 19 20  2  0
 19 21  1  0
M  END
$$$$
