NSS.pdb
     RDKit          3D

 21 20  0  0  1  0  0  0  0  0999 V2000
    8.2488  -18.1094   14.0339 N   0  0  0  0  0  0  0  0  0  0  0  0
    8.0481  -17.2121   15.1257 C   0  0  0  0  0  0  0  0  0  0  0  0
    8.5656  -17.4958   16.2269 O   0  0  0  0  0  0  0  0  0  0  0  0
    7.2450  -15.9739   14.9568 C   0  0  0  0  0  0  0  0  0  0  0  0
    8.1644  -14.8233   14.7094 C   0  0  2  0  0  0  0  0  0  0  0  0
    8.9461  -15.1034   13.5287 N   0  0  0  0  0  0  0  0  0  0  0  0
    9.0285  -14.5207   15.8749 C   0  0  0  0  0  0  0  0  0  0  0  0
   10.2717  -14.7019   15.8695 O   0  0  0  0  0  0  0  0  0  0  0  0
    7.4428  -13.6676   19.7133 O   0  0  0  0  0  0  0  0  0  0  0  0
    8.3290  -12.7786   19.1036 C   0  0  0  0  0  0  0  0  0  0  0  0
    9.2251  -13.4911   18.1563 C   0  0  2  0  0  0  0  0  0  0  0  0
    8.4299  -14.0018   17.0560 N   0  0  0  0  0  0  0  0  0  0  0  0
   10.0852  -14.5163   18.7104 C   0  0  0  0  0  0  0  0  0  0  0  0
    9.6890  -15.7106   18.6643 O   0  0  0  0  0  0  0  0  0  0  0  0
   13.8794  -13.6823   19.8110 O   0  0  0  0  0  0  0  0  0  0  0  0
   13.6342  -14.9962   19.4476 C   0  0  0  0  0  0  0  0  0  0  0  0
   12.1916  -15.2984   19.8729 C   0  0  2  0  0  0  0  0  0  0  0  0
   11.3513  -14.2963   19.3090 N   0  0  0  0  0  0  0  0  0  0  0  0
   12.1709  -15.3800   21.3260 C   0  0  0  0  0  0  0  0  0  0  0  0
   11.4580  -14.6071   21.9988 O   0  0  0  0  0  0  0  0  0  0  0  0
   12.9378  -16.3120   21.9911 O   0  0  0  0  0  0  0  0  0  0  0  0
  2  3  2  0
  2  1  1  0
  4  2  1  0
  5  7  1  0
  5  4  1  0
  5  6  1  6
  7  8  2  0
 10  9  1  0
 11 10  1  1
 11 13  1  0
 12 11  1  0
 12  7  1  0
 13 14  2  0
 13 18  1  0
 15 16  1  0
 17 16  1  1
 17 19  1  0
 18 17  1  0
 19 20  2  0
 19 21  1  0
M  END
$$$$
