NSS.pdb
     RDKit          3D

 21 20  0  0  1  0  0  0  0  0999 V2000
    9.2075  -11.5437   19.4719 N   0  0  0  0  0  0  0  0  0  0  0  0
    8.9578  -12.8624   18.9861 C   0  0  0  0  0  0  0  0  0  0  0  0
    8.8771  -13.0321   17.7509 O   0  0  0  0  0  0  0  0  0  0  0  0
    8.7981  -14.0028   19.9246 C   0  0  0  0  0  0  0  0  0  0  0  0
    9.5145  -15.1930   19.3762 C   0  0  2  0  0  0  0  0  0  0  0  0
    8.8043  -15.6616   18.2102 N   0  0  0  0  0  0  0  0  0  0  0  0
    9.6845  -16.2705   20.3795 C   0  0  0  0  0  0  0  0  0  0  0  0
    8.7284  -16.7440   21.0428 O   0  0  0  0  0  0  0  0  0  0  0  0
   13.4417  -18.2059   20.7292 O   0  0  0  0  0  0  0  0  0  0  0  0
   12.2031  -18.8345   20.8636 C   0  0  0  0  0  0  0  0  0  0  0  0
   11.2125  -17.9228   21.4925 C   0  0  2  0  0  0  0  0  0  0  0  0
   10.9860  -16.7969   20.6066 N   0  0  0  0  0  0  0  0  0  0  0  0
   11.4879  -17.4864   22.8460 C   0  0  0  0  0  0  0  0  0  0  0  0
   11.9456  -16.3251   23.0124 O   0  0  0  0  0  0  0  0  0  0  0  0
   10.8834  -17.2130   27.4110 O   0  0  0  0  0  0  0  0  0  0  0  0
   10.4450  -17.6669   26.1781 C   0  0  0  0  0  0  0  0  0  0  0  0
   11.7037  -17.8993   25.3325 C   0  0  2  0  0  0  0  0  0  0  0  0
   11.2869  -18.2573   24.0185 N   0  0  0  0  0  0  0  0  0  0  0  0
   12.5152  -18.8940   26.0186 C   0  0  0  0  0  0  0  0  0  0  0  0
   12.6245  -20.0518   25.5651 O   0  0  0  0  0  0  0  0  0  0  0  0
   13.1806  -18.5795   27.1838 O   0  0  0  0  0  0  0  0  0  0  0  0
  2  3  2  0
  2  1  1  0
  4  2  1  0
  5  7  1  0
  5  4  1  0
  5  6  1  6
  7  8  2  0
 10  9  1  0
 11 10  1  6
 11 13  1  0
 12 11  1  0
 12  7  1  0
 13 14  2  0
 13 18  1  0
 15 16  1  0
 17 16  1  1
 17 19  1  0
 18 17  1  0
 19 20  2  0
 19 21  1  0
M  END
$$$$
