FLI.pdb
     RDKit          3D

 28 28  0  0  1  0  0  0  0  0999 V2000
   28.5608  -23.0590  -14.0042 N   0  0  0  0  0  0  0  0  0  0  0  0
   28.5411  -22.2250  -12.8210 C   0  0  1  0  0  0  0  0  0  0  0  0
   29.5431  -21.1158  -13.0397 C   0  0  0  0  0  0  0  0  0  0  0  0
   30.7897  -21.5086  -12.3282 C   0  0  0  0  0  0  0  0  0  0  0  0
   31.7922  -22.2409  -12.9335 C   0  0  0  0  0  0  0  0  0  0  0  0
   32.9496  -22.5947  -12.2423 C   0  0  0  0  0  0  0  0  0  0  0  0
   33.1165  -22.2131  -10.9194 C   0  0  0  0  0  0  0  0  0  0  0  0
   32.1368  -21.4926  -10.3142 C   0  0  0  0  0  0  0  0  0  0  0  0
   31.0026  -21.1518  -11.0085 C   0  0  0  0  0  0  0  0  0  0  0  0
   27.1875  -21.7426  -12.5542 C   0  0  0  0  0  0  0  0  0  0  0  0
   26.2589  -22.1425  -13.3062 O   0  0  0  0  0  0  0  0  0  0  0  0
   25.3979  -21.5675   -8.0388 C   0  0  0  0  0  0  0  0  0  0  0  0
   26.1691  -20.3560   -8.6259 C   0  0  2  0  0  0  0  0  0  0  0  0
   26.1903  -19.3498   -7.5173 C   0  0  0  0  0  0  0  0  0  0  0  0
   25.4015  -19.9548   -9.8178 C   0  0  0  0  0  0  0  0  0  0  0  0
   25.4859  -20.8128  -11.0351 C   0  0  2  0  0  0  0  0  0  0  0  0
   26.8333  -20.8597  -11.5160 N   0  0  0  0  0  0  0  0  0  0  0  0
   24.6737  -20.2000  -12.1453 C   0  0  0  0  0  0  0  0  0  0  0  0
   24.9976  -19.1208  -12.7128 O   0  0  0  0  0  0  0  0  0  0  0  0
   23.8173  -21.6647  -16.9157 C   0  0  0  0  0  0  0  0  0  0  0  0
   23.9050  -20.9416  -15.5888 C   0  0  0  0  0  0  0  0  0  0  0  0
   22.5535  -20.8946  -14.9081 C   0  0  2  0  0  0  0  0  0  0  0  0
   21.4983  -20.3519  -15.8296 C   0  0  0  0  0  0  0  0  0  0  0  0
   22.6423  -20.1541  -13.6083 C   0  0  2  0  0  0  0  0  0  0  0  0
   23.4803  -20.8083  -12.6250 N   0  0  0  0  0  0  0  0  0  0  0  0
   21.2831  -20.0540  -13.0134 C   0  0  0  0  0  0  0  0  0  0  0  0
   20.8183  -20.9768  -12.2731 O   0  0  0  0  0  0  0  0  0  0  0  0
   20.4441  -18.9658  -13.2221 O   0  0  0  0  0  0  0  0  0  0  0  0
  2  1  1  6
  3  4  1  0
  3  2  1  0
  4  9  2  0
  5  4  1  0
  5  6  2  0
  6  7  1  0
  7  8  2  0
  9  8  1  0
 10 17  1  0
 10  2  1  0
 11 10  2  0
 13 12  1  1
 13 15  1  0
 14 13  1  0
 16 15  1  1
 16 17  1  0
 18 16  1  0
 19 18  2  0
 20 21  1  0
 21 22  1  0
 22 24  1  0
 22 23  1  6
 24 26  1  0
 24 25  1  1
 25 18  1  0
 26 28  1  0
 27 26  2  0
M  END
$$$$
