FLI.pdb
     RDKit          3D

 28 28  0  0  1  0  0  0  0  0999 V2000
   27.1394  -19.3642  -15.9623 N   0  0  0  0  0  0  0  0  0  0  0  0
   26.3819  -18.7783  -14.8767 C   0  0  1  0  0  0  0  0  0  0  0  0
   25.5078  -17.7001  -15.4730 C   0  0  0  0  0  0  0  0  0  0  0  0
   26.3765  -16.5147  -15.7064 C   0  0  0  0  0  0  0  0  0  0  0  0
   26.6841  -16.0558  -16.9723 C   0  0  0  0  0  0  0  0  0  0  0  0
   27.5008  -14.9423  -17.1609 C   0  0  0  0  0  0  0  0  0  0  0  0
   28.0249  -14.2682  -16.0681 C   0  0  0  0  0  0  0  0  0  0  0  0
   27.7289  -14.7108  -14.8184 C   0  0  0  0  0  0  0  0  0  0  0  0
   26.9229  -15.8091  -14.6491 C   0  0  0  0  0  0  0  0  0  0  0  0
   25.6306  -19.8068  -14.1599 C   0  0  0  0  0  0  0  0  0  0  0  0
   25.1576  -20.7656  -14.8269 O   0  0  0  0  0  0  0  0  0  0  0  0
   26.9504  -22.4172  -10.8752 C   0  0  0  0  0  0  0  0  0  0  0  0
   26.4367  -21.0462  -10.3619 C   0  0  2  0  0  0  0  0  0  0  0  0
   26.7125  -21.0674   -8.8904 C   0  0  0  0  0  0  0  0  0  0  0  0
   25.0101  -21.0103  -10.7288 C   0  0  0  0  0  0  0  0  0  0  0  0
   24.6539  -20.8844  -12.1718 C   0  0  2  0  0  0  0  0  0  0  0  0
   25.3900  -19.8138  -12.7725 N   0  0  0  0  0  0  0  0  0  0  0  0
   23.2012  -20.5109  -12.3053 C   0  0  0  0  0  0  0  0  0  0  0  0
   22.7222  -19.4482  -11.8225 O   0  0  0  0  0  0  0  0  0  0  0  0
   19.2787  -19.3743  -16.4062 C   0  0  0  0  0  0  0  0  0  0  0  0
   19.3735  -20.0322  -15.0463 C   0  0  0  0  0  0  0  0  0  0  0  0
   20.7875  -20.4956  -14.7670 C   0  0  2  0  0  0  0  0  0  0  0  0
   21.2011  -21.5845  -15.7159 C   0  0  0  0  0  0  0  0  0  0  0  0
   20.9440  -20.8752  -13.3258 C   0  0  2  0  0  0  0  0  0  0  0  0
   22.2730  -21.3430  -12.9911 N   0  0  0  0  0  0  0  0  0  0  0  0
   20.0075  -21.9871  -13.0127 C   0  0  0  0  0  0  0  0  0  0  0  0
   18.7698  -21.7715  -12.8199 O   0  0  0  0  0  0  0  0  0  0  0  0
   20.4136  -23.3125  -12.9113 O   0  0  0  0  0  0  0  0  0  0  0  0
  2  1  1  6
  3  4  1  0
  3  2  1  0
  4  9  2  0
  5  4  1  0
  5  6  2  0
  6  7  1  0
  7  8  2  0
  9  8  1  0
 10 17  1  0
 10  2  1  0
 11 10  2  0
 13 12  1  6
 13 15  1  0
 14 13  1  0
 16 15  1  1
 16 17  1  0
 18 16  1  0
 19 18  2  0
 20 21  1  0
 21 22  1  0
 22 24  1  0
 22 23  1  6
 24 26  1  0
 24 25  1  6
 25 18  1  0
 26 28  1  0
 27 26  2  0
M  END
$$$$
