FLI.pdb
     RDKit          3D

 28 28  0  0  1  0  0  0  0  0999 V2000
   25.9018  -21.7724  -12.0288 N   0  0  0  0  0  0  0  0  0  0  0  0
   25.6336  -20.6341  -11.1754 C   0  0  1  0  0  0  0  0  0  0  0  0
   24.1421  -20.3960  -11.2038 C   0  0  0  0  0  0  0  0  0  0  0  0
   23.8049  -19.9086  -12.5687 C   0  0  0  0  0  0  0  0  0  0  0  0
   23.0337  -20.6405  -13.4504 C   0  0  0  0  0  0  0  0  0  0  0  0
   22.7336  -20.1585  -14.7233 C   0  0  0  0  0  0  0  0  0  0  0  0
   23.2097  -18.9215  -15.1313 C   0  0  0  0  0  0  0  0  0  0  0  0
   23.9692  -18.1931  -14.2722 C   0  0  0  0  0  0  0  0  0  0  0  0
   24.2561  -18.6815  -13.0217 C   0  0  0  0  0  0  0  0  0  0  0  0
   26.1612  -20.8630   -9.8317 C   0  0  0  0  0  0  0  0  0  0  0  0
   25.9306  -21.9763   -9.2882 O   0  0  0  0  0  0  0  0  0  0  0  0
   30.0045  -18.1939   -5.9566 C   0  0  0  0  0  0  0  0  0  0  0  0
   29.2091  -19.5134   -6.1399 C   0  0  2  0  0  0  0  0  0  0  0  0
   30.2272  -20.5957   -5.9553 C   0  0  0  0  0  0  0  0  0  0  0  0
   28.6294  -19.4262   -7.4917 C   0  0  0  0  0  0  0  0  0  0  0  0
   27.4646  -20.2985   -7.8192 C   0  0  2  0  0  0  0  0  0  0  0  0
   26.9128  -19.9328   -9.0884 N   0  0  0  0  0  0  0  0  0  0  0  0
   26.3659  -20.0770   -6.8134 C   0  0  0  0  0  0  0  0  0  0  0  0
   25.6092  -19.0679   -6.8399 O   0  0  0  0  0  0  0  0  0  0  0  0
   22.7904  -23.7363   -5.3470 C   0  0  0  0  0  0  0  0  0  0  0  0
   23.4809  -22.4188   -5.6270 C   0  0  0  0  0  0  0  0  0  0  0  0
   24.2772  -21.9591   -4.4242 C   0  0  2  0  0  0  0  0  0  0  0  0
   23.3903  -21.7585   -3.2283 C   0  0  0  0  0  0  0  0  0  0  0  0
   25.0962  -20.7508   -4.7634 C   0  0  2  0  0  0  0  0  0  0  0  0
   26.1136  -21.0025   -5.7627 N   0  0  0  0  0  0  0  0  0  0  0  0
   25.8032  -20.2854   -3.5407 C   0  0  0  0  0  0  0  0  0  0  0  0
   26.8702  -20.8494   -3.1417 O   0  0  0  0  0  0  0  0  0  0  0  0
   25.3546  -19.2225   -2.7656 O   0  0  0  0  0  0  0  0  0  0  0  0
  2  1  1  6
  3  4  1  0
  3  2  1  0
  4  9  2  0
  5  4  1  0
  5  6  2  0
  6  7  1  0
  7  8  2  0
  9  8  1  0
 10 17  1  0
 10  2  1  0
 11 10  2  0
 13 12  1  6
 13 15  1  0
 14 13  1  0
 16 15  1  1
 16 17  1  0
 18 16  1  0
 19 18  2  0
 20 21  1  0
 21 22  1  0
 22 24  1  0
 22 23  1  1
 24 26  1  0
 24 25  1  6
 25 18  1  0
 26 28  1  0
 27 26  2  0
M  END
$$$$
