FLI.pdb
     RDKit          3D

 28 28  0  0  1  0  0  0  0  0999 V2000
   27.2695  -21.1793  -12.9191 N   0  0  0  0  0  0  0  0  0  0  0  0
   26.4825  -20.2006  -12.1989 C   0  0  1  0  0  0  0  0  0  0  0  0
   25.3926  -19.7290  -13.1326 C   0  0  0  0  0  0  0  0  0  0  0  0
   26.0494  -18.9216  -14.1961 C   0  0  0  0  0  0  0  0  0  0  0  0
   25.9828  -19.2587  -15.5339 C   0  0  0  0  0  0  0  0  0  0  0  0
   26.6081  -18.4834  -16.5086 C   0  0  0  0  0  0  0  0  0  0  0  0
   27.3162  -17.3467  -16.1480 C   0  0  0  0  0  0  0  0  0  0  0  0
   27.3882  -17.0057  -14.8351 C   0  0  0  0  0  0  0  0  0  0  0  0
   26.7669  -17.7797  -13.8867 C   0  0  0  0  0  0  0  0  0  0  0  0
   25.9753  -20.7664  -10.9504 C   0  0  0  0  0  0  0  0  0  0  0  0
   25.6424  -21.9817  -10.9448 O   0  0  0  0  0  0  0  0  0  0  0  0
   28.0948  -21.1232   -7.1828 C   0  0  0  0  0  0  0  0  0  0  0  0
   27.3708  -19.7603   -7.3425 C   0  0  2  0  0  0  0  0  0  0  0  0
   27.8325  -18.9489   -6.1719 C   0  0  0  0  0  0  0  0  0  0  0  0
   25.9343  -20.0882   -7.3467 C   0  0  0  0  0  0  0  0  0  0  0  0
   25.3579  -20.7251   -8.5661 C   0  0  2  0  0  0  0  0  0  0  0  0
   25.8268  -20.0580   -9.7426 N   0  0  0  0  0  0  0  0  0  0  0  0
   23.8613  -20.5577   -8.5669 C   0  0  0  0  0  0  0  0  0  0  0  0
   23.2877  -19.5447   -9.0532 O   0  0  0  0  0  0  0  0  0  0  0  0
   18.7781  -22.1293  -10.5488 C   0  0  0  0  0  0  0  0  0  0  0  0
   19.4178  -21.7027   -9.2450 C   0  0  0  0  0  0  0  0  0  0  0  0
   20.9154  -21.9214   -9.2803 C   0  0  2  0  0  0  0  0  0  0  0  0
   21.2494  -23.3622   -9.5441 C   0  0  0  0  0  0  0  0  0  0  0  0
   21.5573  -21.3828   -8.0378 C   0  0  2  0  0  0  0  0  0  0  0  0
   22.9964  -21.5425   -8.0134 N   0  0  0  0  0  0  0  0  0  0  0  0
   21.0252  -22.1175   -6.8595 C   0  0  0  0  0  0  0  0  0  0  0  0
   19.8281  -21.9520   -6.4655 O   0  0  0  0  0  0  0  0  0  0  0  0
   21.7856  -23.0178   -6.1227 O   0  0  0  0  0  0  0  0  0  0  0  0
  2  1  1  6
  3  4  1  0
  3  2  1  0
  4  9  2  0
  5  4  1  0
  5  6  2  0
  6  7  1  0
  7  8  2  0
  9  8  1  0
 10 17  1  0
 10  2  1  0
 11 10  2  0
 13 12  1  1
 13 15  1  0
 14 13  1  0
 16 15  1  1
 16 17  1  0
 18 16  1  0
 19 18  2  0
 20 21  1  0
 21 22  1  0
 22 24  1  0
 22 23  1  1
 24 26  1  0
 24 25  1  6
 25 18  1  0
 26 28  1  0
 27 26  2  0
M  END
$$$$
