FLI.pdb
     RDKit          3D

 28 28  0  0  1  0  0  0  0  0999 V2000
   23.2562  -18.6522  -16.7064 N   0  0  0  0  0  0  0  0  0  0  0  0
   24.3008  -18.2480  -15.7892 C   0  0  1  0  0  0  0  0  0  0  0  0
   24.5683  -16.7816  -16.0350 C   0  0  0  0  0  0  0  0  0  0  0  0
   25.2365  -16.6770  -17.3605 C   0  0  0  0  0  0  0  0  0  0  0  0
   24.5724  -16.2590  -18.4972 C   0  0  0  0  0  0  0  0  0  0  0  0
   25.2241  -16.1706  -19.7259 C   0  0  0  0  0  0  0  0  0  0  0  0
   26.5661  -16.5047  -19.8297 C   0  0  0  0  0  0  0  0  0  0  0  0
   27.2291  -16.9171  -18.7182 C   0  0  0  0  0  0  0  0  0  0  0  0
   26.5732  -16.9989  -17.5150 C   0  0  0  0  0  0  0  0  0  0  0  0
   23.9190  -18.5471  -14.4105 C   0  0  0  0  0  0  0  0  0  0  0  0
   23.2683  -17.6748  -13.7752 O   0  0  0  0  0  0  0  0  0  0  0  0
   20.7488  -20.0408  -13.0267 C   0  0  0  0  0  0  0  0  0  0  0  0
   21.7941  -21.1424  -13.3444 C   0  0  2  0  0  0  0  0  0  0  0  0
   21.0104  -22.4182  -13.3386 C   0  0  0  0  0  0  0  0  0  0  0  0
   22.8067  -21.0275  -12.2802 C   0  0  0  0  0  0  0  0  0  0  0  0
   23.8054  -19.9233  -12.3707 C   0  0  2  0  0  0  0  0  0  0  0  0
   24.2214  -19.7411  -13.7282 N   0  0  0  0  0  0  0  0  0  0  0  0
   25.0475  -20.2985  -11.6063 C   0  0  0  0  0  0  0  0  0  0  0  0
   25.9675  -21.0049  -12.1027 O   0  0  0  0  0  0  0  0  0  0  0  0
   26.8130  -17.2702   -7.2850 C   0  0  0  0  0  0  0  0  0  0  0  0
   26.8384  -18.1029   -8.5487 C   0  0  0  0  0  0  0  0  0  0  0  0
   26.6250  -19.5686   -8.2351 C   0  0  2  0  0  0  0  0  0  0  0  0
   27.7471  -20.1157   -7.3993 C   0  0  0  0  0  0  0  0  0  0  0  0
   26.3884  -20.3488   -9.4925 C   0  0  2  0  0  0  0  0  0  0  0  0
   25.2593  -19.8741  -10.2650 N   0  0  0  0  0  0  0  0  0  0  0  0
   26.0997  -21.7639   -9.1381 C   0  0  0  0  0  0  0  0  0  0  0  0
   24.9087  -22.1665   -8.9515 O   0  0  0  0  0  0  0  0  0  0  0  0
   27.0932  -22.7245   -8.9894 O   0  0  0  0  0  0  0  0  0  0  0  0
  2  1  1  6
  3  4  1  0
  3  2  1  0
  4  9  2  0
  5  4  1  0
  5  6  2  0
  6  7  1  0
  7  8  2  0
  9  8  1  0
 10 17  1  0
 10  2  1  0
 11 10  2  0
 13 12  1  1
 13 15  1  0
 14 13  1  0
 16 15  1  6
 16 17  1  0
 18 16  1  0
 19 18  2  0
 20 21  1  0
 21 22  1  0
 22 24  1  0
 22 23  1  6
 24 26  1  0
 24 25  1  1
 25 18  1  0
 26 28  1  0
 27 26  2  0
M  END
$$$$
