FLI.pdb
     RDKit          3D

 28 28  0  0  1  0  0  0  0  0999 V2000
   25.1361  -19.3141  -20.5323 N   0  0  0  0  0  0  0  0  0  0  0  0
   24.1720  -18.4150  -19.9340 C   0  0  1  0  0  0  0  0  0  0  0  0
   22.8188  -18.7657  -20.5067 C   0  0  0  0  0  0  0  0  0  0  0  0
   22.7866  -18.2428  -21.8995 C   0  0  0  0  0  0  0  0  0  0  0  0
   22.7723  -19.0711  -23.0047 C   0  0  0  0  0  0  0  0  0  0  0  0
   22.7421  -18.5530  -24.2982 C   0  0  0  0  0  0  0  0  0  0  0  0
   22.7258  -17.1811  -24.5003 C   0  0  0  0  0  0  0  0  0  0  0  0
   22.7397  -16.3570  -23.4204 C   0  0  0  0  0  0  0  0  0  0  0  0
   22.7694  -16.8826  -22.1526 C   0  0  0  0  0  0  0  0  0  0  0  0
   24.2266  -18.4987  -18.4758 C   0  0  0  0  0  0  0  0  0  0  0  0
   24.5654  -19.5970  -17.9593 O   0  0  0  0  0  0  0  0  0  0  0  0
   26.9964  -17.0059  -15.8074 C   0  0  0  0  0  0  0  0  0  0  0  0
   25.9349  -15.9214  -16.1301 C   0  0  2  0  0  0  0  0  0  0  0  0
   26.4652  -14.6740  -15.4941 C   0  0  0  0  0  0  0  0  0  0  0  0
   24.6791  -16.4311  -15.5520 C   0  0  0  0  0  0  0  0  0  0  0  0
   24.0465  -17.6278  -16.1787 C   0  0  2  0  0  0  0  0  0  0  0  0
   23.9288  -17.4427  -17.5932 N   0  0  0  0  0  0  0  0  0  0  0  0
   22.6395  -17.7854  -15.6656 C   0  0  0  0  0  0  0  0  0  0  0  0
   22.3684  -17.8948  -14.4383 O   0  0  0  0  0  0  0  0  0  0  0  0
   16.6796  -16.9003  -17.0862 C   0  0  0  0  0  0  0  0  0  0  0  0
   17.7431  -17.6555  -16.3183 C   0  0  0  0  0  0  0  0  0  0  0  0
   19.1196  -17.3755  -16.8830 C   0  0  2  0  0  0  0  0  0  0  0  0
   19.1979  -17.7480  -18.3364 C   0  0  0  0  0  0  0  0  0  0  0  0
   20.1769  -18.0296  -16.0464 C   0  0  2  0  0  0  0  0  0  0  0  0
   21.5208  -17.8207  -16.5439 N   0  0  0  0  0  0  0  0  0  0  0  0
   19.9478  -19.4989  -16.0367 C   0  0  0  0  0  0  0  0  0  0  0  0
   20.5703  -20.2680  -16.8346 O   0  0  0  0  0  0  0  0  0  0  0  0
   19.0546  -20.1197  -15.1715 O   0  0  0  0  0  0  0  0  0  0  0  0
  2  1  1  6
  3  4  1  0
  3  2  1  0
  4  9  2  0
  5  4  1  0
  5  6  2  0
  6  7  1  0
  7  8  2  0
  9  8  1  0
 10 17  1  0
 10  2  1  0
 11 10  2  0
 13 12  1  1
 13 15  1  0
 14 13  1  0
 16 15  1  1
 16 17  1  0
 18 16  1  0
 19 18  2  0
 20 21  1  0
 21 22  1  0
 22 24  1  0
 22 23  1  6
 24 26  1  0
 24 25  1  6
 25 18  1  0
 26 28  1  0
 27 26  2  0
M  END
$$$$
