FLI.pdb
     RDKit          3D

 28 28  0  0  1  0  0  0  0  0999 V2000
   27.7307  -18.9911  -17.0934 N   0  0  0  0  0  0  0  0  0  0  0  0
   27.0780  -18.3149  -15.9922 C   0  0  1  0  0  0  0  0  0  0  0  0
   26.1403  -17.2918  -16.5891 C   0  0  0  0  0  0  0  0  0  0  0  0
   26.9750  -16.1423  -17.0321 C   0  0  0  0  0  0  0  0  0  0  0  0
   27.6211  -15.3059  -16.1428 C   0  0  0  0  0  0  0  0  0  0  0  0
   28.3966  -14.2363  -16.5866 C   0  0  0  0  0  0  0  0  0  0  0  0
   28.5346  -13.9905  -17.9445 C   0  0  0  0  0  0  0  0  0  0  0  0
   27.9036  -14.8068  -18.8281 C   0  0  0  0  0  0  0  0  0  0  0  0
   27.1432  -15.8562  -18.3753 C   0  0  0  0  0  0  0  0  0  0  0  0
   26.4095  -19.2787  -15.1203 C   0  0  0  0  0  0  0  0  0  0  0  0
   25.9219  -20.3139  -15.6481 O   0  0  0  0  0  0  0  0  0  0  0  0
   25.8362  -20.5318   -9.1834 C   0  0  0  0  0  0  0  0  0  0  0  0
   25.3258  -20.9820  -10.5777 C   0  0  2  0  0  0  0  0  0  0  0  0
   25.7161  -22.4243  -10.6740 C   0  0  0  0  0  0  0  0  0  0  0  0
   25.9971  -20.0886  -11.5379 C   0  0  0  0  0  0  0  0  0  0  0  0
   25.5827  -20.1495  -12.9695 C   0  0  2  0  0  0  0  0  0  0  0  0
   26.2645  -19.1437  -13.7262 N   0  0  0  0  0  0  0  0  0  0  0  0
   24.1158  -19.8295  -13.0872 C   0  0  0  0  0  0  0  0  0  0  0  0
   23.6409  -18.6928  -12.8152 O   0  0  0  0  0  0  0  0  0  0  0  0
   21.7756  -20.0568  -17.4957 C   0  0  0  0  0  0  0  0  0  0  0  0
   22.1655  -19.8073  -16.0546 C   0  0  0  0  0  0  0  0  0  0  0  0
   21.2982  -20.6145  -15.1121 C   0  0  2  0  0  0  0  0  0  0  0  0
   19.8441  -20.2807  -15.2895 C   0  0  0  0  0  0  0  0  0  0  0  0
   21.7721  -20.4638  -13.6984 C   0  0  2  0  0  0  0  0  0  0  0  0
   23.1688  -20.8005  -13.5168 N   0  0  0  0  0  0  0  0  0  0  0  0
   20.9935  -21.3821  -12.8255 C   0  0  0  0  0  0  0  0  0  0  0  0
   21.2138  -22.6339  -12.8235 O   0  0  0  0  0  0  0  0  0  0  0  0
   19.9912  -20.9429  -11.9687 O   0  0  0  0  0  0  0  0  0  0  0  0
  2  1  1  6
  3  4  1  0
  3  2  1  0
  4  9  2  0
  5  4  1  0
  5  6  2  0
  6  7  1  0
  7  8  2  0
  9  8  1  0
 10 17  1  0
 10  2  1  0
 11 10  2  0
 13 12  1  1
 13 15  1  0
 14 13  1  0
 16 15  1  1
 16 17  1  0
 18 16  1  0
 19 18  2  0
 20 21  1  0
 21 22  1  0
 22 24  1  0
 22 23  1  1
 24 26  1  0
 24 25  1  6
 25 18  1  0
 26 28  1  0
 27 26  2  0
M  END
$$$$
