FLI.pdb
     RDKit          3D

 28 28  0  0  1  0  0  0  0  0999 V2000
   27.1069  -18.3714   -7.7061 N   0  0  0  0  0  0  0  0  0  0  0  0
   27.2308  -19.7340   -8.1793 C   0  0  1  0  0  0  0  0  0  0  0  0
   26.8791  -20.6417   -7.0241 C   0  0  0  0  0  0  0  0  0  0  0  0
   27.8852  -20.3965   -5.9555 C   0  0  0  0  0  0  0  0  0  0  0  0
   27.5761  -19.7426   -4.7788 C   0  0  0  0  0  0  0  0  0  0  0  0
   28.5394  -19.5269   -3.7950 C   0  0  0  0  0  0  0  0  0  0  0  0
   29.8400  -19.9701   -3.9827 C   0  0  0  0  0  0  0  0  0  0  0  0
   30.1552  -20.6143   -5.1364 C   0  0  0  0  0  0  0  0  0  0  0  0
   29.1952  -20.8192   -6.0960 C   0  0  0  0  0  0  0  0  0  0  0  0
   26.3974  -19.9459   -9.3611 C   0  0  0  0  0  0  0  0  0  0  0  0
   25.3197  -19.2987   -9.4478 O   0  0  0  0  0  0  0  0  0  0  0  0
   27.9464  -18.9981  -13.6821 C   0  0  0  0  0  0  0  0  0  0  0  0
   28.4161  -20.3140  -13.0075 C   0  0  2  0  0  0  0  0  0  0  0  0
   29.3530  -20.9318  -13.9987 C   0  0  0  0  0  0  0  0  0  0  0  0
   27.1811  -21.0774  -12.7566 C   0  0  0  0  0  0  0  0  0  0  0  0
   26.2211  -20.5554  -11.7412 C   0  0  2  0  0  0  0  0  0  0  0  0
   26.7031  -20.8222  -10.4201 N   0  0  0  0  0  0  0  0  0  0  0  0
   24.9110  -21.2888  -11.8573 C   0  0  0  0  0  0  0  0  0  0  0  0
   24.7712  -22.4953  -11.5159 O   0  0  0  0  0  0  0  0  0  0  0  0
   20.5205  -19.5634   -9.7939 C   0  0  0  0  0  0  0  0  0  0  0  0
   21.6233  -20.3986  -10.4082 C   0  0  0  0  0  0  0  0  0  0  0  0
   21.3274  -20.7003  -11.8620 C   0  0  2  0  0  0  0  0  0  0  0  0
   20.0401  -21.4608  -12.0092 C   0  0  0  0  0  0  0  0  0  0  0  0
   22.4951  -21.3820  -12.5082 C   0  0  2  0  0  0  0  0  0  0  0  0
   23.7409  -20.6578  -12.3642 N   0  0  0  0  0  0  0  0  0  0  0  0
   22.2379  -21.5050  -13.9677 C   0  0  0  0  0  0  0  0  0  0  0  0
   22.4500  -20.5326  -14.7583 O   0  0  0  0  0  0  0  0  0  0  0  0
   21.7573  -22.6690  -14.5558 O   0  0  0  0  0  0  0  0  0  0  0  0
  2  1  1  1
  3  4  1  0
  3  2  1  0
  4  9  2  0
  5  4  1  0
  5  6  2  0
  6  7  1  0
  7  8  2  0
  9  8  1  0
 10 17  1  0
 10  2  1  0
 11 10  2  0
 13 12  1  6
 13 15  1  0
 14 13  1  0
 16 15  1  6
 16 17  1  0
 18 16  1  0
 19 18  2  0
 20 21  1  0
 21 22  1  0
 22 24  1  0
 22 23  1  1
 24 26  1  0
 24 25  1  6
 25 18  1  0
 26 28  1  0
 27 26  2  0
M  END
$$$$
