FLI.pdb
     RDKit          3D

 28 28  0  0  1  0  0  0  0  0999 V2000
   23.6335  -22.0688  -12.3508 N   0  0  0  0  0  0  0  0  0  0  0  0
   24.4704  -20.9273  -12.0469 C   0  0  1  0  0  0  0  0  0  0  0  0
   23.5512  -19.7733  -11.7222 C   0  0  0  0  0  0  0  0  0  0  0  0
   23.0414  -19.2450  -13.0165 C   0  0  0  0  0  0  0  0  0  0  0  0
   23.8498  -18.5830  -13.9198 C   0  0  0  0  0  0  0  0  0  0  0  0
   23.3448  -18.0988  -15.1251 C   0  0  0  0  0  0  0  0  0  0  0  0
   22.0062  -18.2754  -15.4421 C   0  0  0  0  0  0  0  0  0  0  0  0
   21.2019  -18.9251  -14.5610 C   0  0  0  0  0  0  0  0  0  0  0  0
   21.7144  -19.3963  -13.3778 C   0  0  0  0  0  0  0  0  0  0  0  0
   25.4058  -21.2473  -10.9705 C   0  0  0  0  0  0  0  0  0  0  0  0
   25.0512  -22.1009  -10.1140 O   0  0  0  0  0  0  0  0  0  0  0  0
   31.3697  -20.9274   -9.9682 C   0  0  0  0  0  0  0  0  0  0  0  0
   30.0524  -21.3909   -9.2921 C   0  0  2  0  0  0  0  0  0  0  0  0
   30.2331  -22.8626   -9.0845 C   0  0  0  0  0  0  0  0  0  0  0  0
   28.9856  -21.0207  -10.2386 C   0  0  0  0  0  0  0  0  0  0  0  0
   27.5680  -21.1545   -9.7941 C   0  0  2  0  0  0  0  0  0  0  0  0
   26.6822  -20.6745  -10.8109 N   0  0  0  0  0  0  0  0  0  0  0  0
   27.3282  -20.2791   -8.5924 C   0  0  0  0  0  0  0  0  0  0  0  0
   26.8104  -19.1317   -8.6759 O   0  0  0  0  0  0  0  0  0  0  0  0
   29.8526  -21.2480   -3.4604 C   0  0  0  0  0  0  0  0  0  0  0  0
   29.4355  -20.6688   -4.7952 C   0  0  0  0  0  0  0  0  0  0  0  0
   27.9401  -20.4370   -4.8407 C   0  0  2  0  0  0  0  0  0  0  0  0
   27.1839  -21.6983   -4.5337 C   0  0  0  0  0  0  0  0  0  0  0  0
   27.5421  -19.8100   -6.1423 C   0  0  2  0  0  0  0  0  0  0  0  0
   27.6751  -20.6987   -7.2780 N   0  0  0  0  0  0  0  0  0  0  0  0
   28.4235  -18.6420   -6.4075 C   0  0  0  0  0  0  0  0  0  0  0  0
   29.3909  -18.7195   -7.2283 O   0  0  0  0  0  0  0  0  0  0  0  0
   28.2532  -17.4095   -5.7880 O   0  0  0  0  0  0  0  0  0  0  0  0
  2  1  1  1
  3  4  1  0
  3  2  1  0
  4  9  2  0
  5  4  1  0
  5  6  2  0
  6  7  1  0
  7  8  2  0
  9  8  1  0
 10 17  1  0
 10  2  1  0
 11 10  2  0
 13 12  1  6
 13 15  1  0
 14 13  1  0
 16 15  1  6
 16 17  1  0
 18 16  1  0
 19 18  2  0
 20 21  1  0
 21 22  1  0
 22 24  1  0
 22 23  1  6
 24 26  1  0
 24 25  1  6
 25 18  1  0
 26 28  1  0
 27 26  2  0
M  END
$$$$
