FLI.pdb
     RDKit          3D

 28 28  0  0  1  0  0  0  0  0999 V2000
   20.5808  -19.8450  -12.8962 N   0  0  0  0  0  0  0  0  0  0  0  0
   21.4702  -20.5165  -13.8203 C   0  0  1  0  0  0  0  0  0  0  0  0
   21.0112  -20.1664  -15.2163 C   0  0  0  0  0  0  0  0  0  0  0  0
   19.7922  -20.9750  -15.4895 C   0  0  0  0  0  0  0  0  0  0  0  0
   19.8312  -22.3453  -15.6587 C   0  0  0  0  0  0  0  0  0  0  0  0
   18.6729  -23.0772  -15.9137 C   0  0  0  0  0  0  0  0  0  0  0  0
   17.4470  -22.4348  -16.0030 C   0  0  0  0  0  0  0  0  0  0  0  0
   17.3970  -21.0874  -15.8383 C   0  0  0  0  0  0  0  0  0  0  0  0
   18.5468  -20.3804  -15.5877 C   0  0  0  0  0  0  0  0  0  0  0  0
   22.8599  -20.1497  -13.5551 C   0  0  0  0  0  0  0  0  0  0  0  0
   23.1286  -18.9288  -13.3959 O   0  0  0  0  0  0  0  0  0  0  0  0
   25.3221  -19.6503  -10.3127 C   0  0  0  0  0  0  0  0  0  0  0  0
   25.1222  -21.1420  -10.6894 C   0  0  2  0  0  0  0  0  0  0  0  0
   25.7303  -21.9025   -9.5520 C   0  0  0  0  0  0  0  0  0  0  0  0
   25.8057  -21.3045  -11.9846 C   0  0  0  0  0  0  0  0  0  0  0  0
   25.2531  -20.5881  -13.1705 C   0  0  2  0  0  0  0  0  0  0  0  0
   23.9326  -21.0571  -13.4621 N   0  0  0  0  0  0  0  0  0  0  0  0
   26.0812  -20.9068  -14.3873 C   0  0  0  0  0  0  0  0  0  0  0  0
   25.9583  -21.9830  -15.0341 O   0  0  0  0  0  0  0  0  0  0  0  0
   28.7352  -16.7416  -17.0665 C   0  0  0  0  0  0  0  0  0  0  0  0
   27.8635  -17.9312  -16.7258 C   0  0  0  0  0  0  0  0  0  0  0  0
   28.7009  -19.1772  -16.5304 C   0  0  2  0  0  0  0  0  0  0  0  0
   29.4934  -19.4999  -17.7653 C   0  0  0  0  0  0  0  0  0  0  0  0
   27.8500  -20.3169  -16.0583 C   0  0  2  0  0  0  0  0  0  0  0  0
   27.0615  -20.0036  -14.8847 N   0  0  0  0  0  0  0  0  0  0  0  0
   28.7290  -21.4587  -15.6909 C   0  0  0  0  0  0  0  0  0  0  0  0
   29.2477  -21.5451  -14.5337 O   0  0  0  0  0  0  0  0  0  0  0  0
   29.0377  -22.4895  -16.5706 O   0  0  0  0  0  0  0  0  0  0  0  0
  2  1  1  1
  3  4  1  0
  3  2  1  0
  4  9  2  0
  5  4  1  0
  5  6  2  0
  6  7  1  0
  7  8  2  0
  9  8  1  0
 10 17  1  0
 10  2  1  0
 11 10  2  0
 13 12  1  1
 13 15  1  0
 14 13  1  0
 16 15  1  1
 16 17  1  0
 18 16  1  0
 19 18  2  0
 20 21  1  0
 21 22  1  0
 22 24  1  0
 22 23  1  6
 24 26  1  0
 24 25  1  1
 25 18  1  0
 26 28  1  0
 27 26  2  0
M  END
$$$$
