FLI.pdb
     RDKit          3D

 28 28  0  0  1  0  0  0  0  0999 V2000
   22.1784  -21.7477  -15.1333 N   0  0  0  0  0  0  0  0  0  0  0  0
   22.6388  -20.5700  -14.4284 C   0  0  1  0  0  0  0  0  0  0  0  0
   21.4948  -20.0892  -13.5669 C   0  0  0  0  0  0  0  0  0  0  0  0
   20.4466  -19.5686  -14.4858 C   0  0  0  0  0  0  0  0  0  0  0  0
   19.2083  -20.1665  -14.6164 C   0  0  0  0  0  0  0  0  0  0  0  0
   18.2454  -19.6566  -15.4854 C   0  0  0  0  0  0  0  0  0  0  0  0
   18.5170  -18.5271  -16.2428 C   0  0  0  0  0  0  0  0  0  0  0  0
   19.7316  -17.9309  -16.1223 C   0  0  0  0  0  0  0  0  0  0  0  0
   20.6697  -18.4451  -15.2620 C   0  0  0  0  0  0  0  0  0  0  0  0
   23.8536  -20.8657  -13.6714 C   0  0  0  0  0  0  0  0  0  0  0  0
   23.8249  -21.8311  -12.8619 O   0  0  0  0  0  0  0  0  0  0  0  0
   27.9869  -21.7219  -15.0809 C   0  0  0  0  0  0  0  0  0  0  0  0
   27.7389  -20.1940  -14.9756 C   0  0  2  0  0  0  0  0  0  0  0  0
   29.0055  -19.5714  -15.4754 C   0  0  0  0  0  0  0  0  0  0  0  0
   27.4438  -19.9514  -13.5525 C   0  0  0  0  0  0  0  0  0  0  0  0
   26.1943  -20.5315  -12.9806 C   0  0  2  0  0  0  0  0  0  0  0  0
   25.0641  -20.1537  -13.7736 N   0  0  0  0  0  0  0  0  0  0  0  0
   25.9475  -19.9552  -11.6114 C   0  0  0  0  0  0  0  0  0  0  0  0
   25.4713  -18.8008  -11.4321 O   0  0  0  0  0  0  0  0  0  0  0  0
   22.6079  -21.5739   -8.1972 C   0  0  0  0  0  0  0  0  0  0  0  0
   23.6527  -20.8419   -9.0118 C   0  0  0  0  0  0  0  0  0  0  0  0
   24.9922  -20.8500   -8.3062 C   0  0  2  0  0  0  0  0  0  0  0  0
   24.8690  -20.3406   -6.8982 C   0  0  0  0  0  0  0  0  0  0  0  0
   26.0191  -20.1158   -9.1137 C   0  0  2  0  0  0  0  0  0  0  0  0
   26.2400  -20.6863  -10.4263 N   0  0  0  0  0  0  0  0  0  0  0  0
   27.3231  -20.1655   -8.4006 C   0  0  0  0  0  0  0  0  0  0  0  0
   28.2290  -20.9897   -8.7408 O   0  0  0  0  0  0  0  0  0  0  0  0
   27.6345  -19.3305   -7.3341 O   0  0  0  0  0  0  0  0  0  0  0  0
  2  1  1  1
  3  4  1  0
  3  2  1  0
  4  9  2  0
  5  4  1  0
  5  6  2  0
  6  7  1  0
  7  8  2  0
  9  8  1  0
 10 17  1  0
 10  2  1  0
 11 10  2  0
 13 12  1  1
 13 15  1  0
 14 13  1  0
 16 15  1  6
 16 17  1  0
 18 16  1  0
 19 18  2  0
 20 21  1  0
 21 22  1  0
 22 24  1  0
 22 23  1  1
 24 26  1  0
 24 25  1  6
 25 18  1  0
 26 28  1  0
 27 26  2  0
M  END
$$$$
