RKH.pdb
     RDKit          3D

 31 31  0  0  1  0  0  0  0  0999 V2000
    9.5536  -12.6363   18.2645 N   0  0  0  0  0  0  0  0  0  0  0  0
    8.3011  -13.1433   17.7973 C   0  0  0  0  0  0  0  0  0  0  0  0
    7.8677  -12.7756   16.6542 N   0  0  0  0  0  0  0  0  0  0  0  0
    7.5318  -14.0410   18.5699 N   0  0  0  0  0  0  0  0  0  0  0  0
    7.9807  -14.6023   19.8226 C   0  0  0  0  0  0  0  0  0  0  0  0
    8.6522  -15.9154   19.5412 C   0  0  0  0  0  0  0  0  0  0  0  0
    7.7122  -17.0480   19.5640 C   0  0  0  0  0  0  0  0  0  0  0  0
    8.3487  -18.3628   19.3300 C   0  0  2  0  0  0  0  0  0  0  0  0
    7.4649  -19.4908   19.1998 N   0  0  0  0  0  0  0  0  0  0  0  0
    9.3215  -18.6829   20.4239 C   0  0  0  0  0  0  0  0  0  0  0  0
    8.9052  -19.2089   21.4933 O   0  0  0  0  0  0  0  0  0  0  0  0
    6.9376  -13.0105   16.2643 N   0  0  0  0  0  0  0  0  0  0  0  0
   10.6954  -18.4257   20.3186 C   0  0  2  0  0  0  0  0  0  0  0  0
   11.5940  -18.7361   21.4633 C   0  0  0  0  0  0  0  0  0  0  0  0
   12.5826  -19.6700   20.8457 C   0  0  0  0  0  0  0  0  0  0  0  0
   12.4456  -21.1185   20.9071 C   0  0  0  0  0  0  0  0  0  0  0  0
   12.9655  -21.8392   19.7167 C   0  0  0  0  0  0  0  0  0  0  0  0
   12.7873  -23.3567   19.8920 N   0  0  0  0  0  0  0  0  0  0  0  0
   13.3641  -23.9871   18.7286 C   0  0  0  0  0  0  0  0  0  0  0  0
   12.0681  -17.5593   22.1222 O   0  0  0  0  0  0  0  0  0  0  0  0
   13.3374  -17.3516   22.2363 N   0  0  0  0  0  0  0  0  0  0  0  0
   11.1564  -16.6168   22.6512 C   0  0  1  0  0  0  0  0  0  0  0  0
   11.1892  -16.4252   24.1189 C   0  0  0  0  0  0  0  0  0  0  0  0
    9.7727  -16.5382   24.5940 C   0  0  0  0  0  0  0  0  0  0  0  0
    8.9001  -15.4639   24.1345 C   0  0  0  0  0  0  0  0  0  0  0  0
    7.8827  -15.6677   23.2060 N   0  0  0  0  0  0  0  0  0  0  0  0
    7.2782  -14.4879   23.0053 C   0  0  0  0  0  0  0  0  0  0  0  0
    7.8893  -13.5771   23.7757 N   0  0  0  0  0  0  0  0  0  0  0  0
    8.8847  -14.1652   24.4718 C   0  0  0  0  0  0  0  0  0  0  0  0
   12.0812  -17.4870   24.6602 O   0  0  0  0  0  0  0  0  0  0  0  0
   13.1514  -17.1442   25.5175 O   0  0  0  0  0  0  0  0  0  0  0  0
  2  1  1  0
  3  2  2  0
  4  2  1  0
  5  4  1  0
  6  5  1  0
  7  6  1  0
  8  9  1  1
  8  7  1  0
 10  8  1  0
 11 10  2  0
 12 10  1  0
 13 12  1  0
 13 19  1  0
 13 14  1  1
 15 14  1  0
 16 15  1  0
 17 16  1  0
 18 17  1  0
 19 21  1  0
 20 19  2  0
 21 22  1  0
 22 23  1  1
 22 29  1  0
 24 23  1  0
 25 24  2  0
 26 25  1  0
 27 26  1  0
 27 28  2  0
 28 24  1  0
 29 31  2  0
 29 30  1  0
M  END
$$$$
