RKH.pdb
     RDKit          3D

 31 31  0  0  1  0  0  0  0  0999 V2000
    8.9734  -13.7891   17.6282 N   0  0  0  0  0  0  0  0  0  0  0  0
    9.6358  -13.1718   18.7346 C   0  0  0  0  0  0  0  0  0  0  0  0
   10.9119  -13.1591   18.7683 N   0  0  0  0  0  0  0  0  0  0  0  0
    8.9125  -12.5759   19.7912 N   0  0  0  0  0  0  0  0  0  0  0  0
    7.4942  -12.7616   19.9910 C   0  0  0  0  0  0  0  0  0  0  0  0
    7.2258  -14.2297   20.1552 C   0  0  0  0  0  0  0  0  0  0  0  0
    7.5734  -14.7218   21.4983 C   0  0  0  0  0  0  0  0  0  0  0  0
    7.4309  -16.1856   21.6583 C   0  0  2  0  0  0  0  0  0  0  0  0
    6.1212  -16.7334   21.4240 N   0  0  0  0  0  0  0  0  0  0  0  0
    7.8534  -16.6123   23.0312 C   0  0  0  0  0  0  0  0  0  0  0  0
    7.0000  -16.6542   23.9605 O   0  0  0  0  0  0  0  0  0  0  0  0
   11.4853  -12.7383   19.5210 N   0  0  0  0  0  0  0  0  0  0  0  0
    9.1709  -16.9760   23.3424 C   0  0  2  0  0  0  0  0  0  0  0  0
    9.5236  -17.3467   24.7396 C   0  0  0  0  0  0  0  0  0  0  0  0
   10.5136  -18.4462   24.5353 C   0  0  0  0  0  0  0  0  0  0  0  0
   10.1210  -19.8216   24.2620 C   0  0  0  0  0  0  0  0  0  0  0  0
   11.2502  -20.7372   23.9560 C   0  0  0  0  0  0  0  0  0  0  0  0
   10.7406  -22.1804   23.8046 N   0  0  0  0  0  0  0  0  0  0  0  0
   11.8918  -23.0091   23.5369 C   0  0  0  0  0  0  0  0  0  0  0  0
    9.8959  -16.2146   25.5293 O   0  0  0  0  0  0  0  0  0  0  0  0
    9.8602  -15.0306   25.0153 N   0  0  0  0  0  0  0  0  0  0  0  0
   10.3035  -16.3801   26.8730 C   0  0  1  0  0  0  0  0  0  0  0  0
    9.9704  -15.2748   27.8001 C   0  0  0  0  0  0  0  0  0  0  0  0
    8.4750  -15.1854   27.8348 C   0  0  0  0  0  0  0  0  0  0  0  0
    7.9245  -14.0723   27.0702 C   0  0  0  0  0  0  0  0  0  0  0  0
    8.7206  -13.2052   26.3265 N   0  0  0  0  0  0  0  0  0  0  0  0
    7.9090  -12.3055   25.7525 C   0  0  0  0  0  0  0  0  0  0  0  0
    6.6523  -12.5934   26.1190 N   0  0  0  0  0  0  0  0  0  0  0  0
    6.6510  -13.6746   26.9267 C   0  0  0  0  0  0  0  0  0  0  0  0
   10.5722  -15.6339   29.1135 O   0  0  0  0  0  0  0  0  0  0  0  0
   10.6429  -16.9876   29.5140 O   0  0  0  0  0  0  0  0  0  0  0  0
  2  1  1  0
  3  2  2  0
  4  2  1  0
  5  4  1  0
  6  5  1  0
  7  6  1  0
  8  9  1  1
  8  7  1  0
 10  8  1  0
 11 10  2  0
 12 10  1  0
 13 12  1  0
 13 19  1  0
 13 14  1  6
 15 14  1  0
 16 15  1  0
 17 16  1  0
 18 17  1  0
 19 21  1  0
 20 19  2  0
 21 22  1  0
 22 23  1  1
 22 29  1  0
 24 23  1  0
 25 24  2  0
 26 25  1  0
 27 26  1  0
 27 28  2  0
 28 24  1  0
 29 31  2  0
 29 30  1  0
M  END
$$$$
