RKH.pdb
     RDKit          3D

 31 31  0  0  1  0  0  0  0  0999 V2000
    8.6371  -18.5970   18.5149 N   0  0  0  0  0  0  0  0  0  0  0  0
    7.5074  -19.2837   19.0592 C   0  0  0  0  0  0  0  0  0  0  0  0
    6.3324  -18.8876   18.7557 N   0  0  0  0  0  0  0  0  0  0  0  0
    7.6600  -20.3893   19.9245 N   0  0  0  0  0  0  0  0  0  0  0  0
    8.9386  -20.8465   20.4165 C   0  0  0  0  0  0  0  0  0  0  0  0
    9.2355  -20.1320   21.7032 C   0  0  0  0  0  0  0  0  0  0  0  0
   10.6445  -19.7191   21.8093 C   0  0  0  0  0  0  0  0  0  0  0  0
   11.0353  -18.6615   20.8516 C   0  0  2  0  0  0  0  0  0  0  0  0
   12.3055  -18.8254   20.1959 N   0  0  0  0  0  0  0  0  0  0  0  0
   11.0484  -17.3202   21.5197 C   0  0  0  0  0  0  0  0  0  0  0  0
   12.1447  -16.8274   21.9055 O   0  0  0  0  0  0  0  0  0  0  0  0
    5.4521  -19.3378   19.0638 N   0  0  0  0  0  0  0  0  0  0  0  0
    9.8853  -16.5696   21.7406 C   0  0  2  0  0  0  0  0  0  0  0  0
    9.9805  -15.2371   22.3959 C   0  0  0  0  0  0  0  0  0  0  0  0
    9.0013  -14.4274   21.6108 C   0  0  0  0  0  0  0  0  0  0  0  0
    9.1046  -14.2428   20.1700 C   0  0  0  0  0  0  0  0  0  0  0  0
    8.0299  -13.4068   19.5757 C   0  0  0  0  0  0  0  0  0  0  0  0
    8.2265  -13.2875   18.0550 N   0  0  0  0  0  0  0  0  0  0  0  0
    7.1205  -12.5124   17.5455 C   0  0  0  0  0  0  0  0  0  0  0  0
    9.8377  -15.3138   23.8163 O   0  0  0  0  0  0  0  0  0  0  0  0
   10.0732  -14.2739   24.5448 N   0  0  0  0  0  0  0  0  0  0  0  0
    9.4385  -16.5220   24.4328 C   0  0  1  0  0  0  0  0  0  0  0  0
    9.1946  -16.4641   25.8920 C   0  0  0  0  0  0  0  0  0  0  0  0
    7.7076  -16.4837   26.0753 C   0  0  0  0  0  0  0  0  0  0  0  0
    7.0678  -15.1831   25.9141 C   0  0  0  0  0  0  0  0  0  0  0  0
    7.7916  -14.0060   25.7428 N   0  0  0  0  0  0  0  0  0  0  0  0
    6.9088  -13.0037   25.6259 C   0  0  0  0  0  0  0  0  0  0  0  0
    5.6784  -13.5271   25.7196 N   0  0  0  0  0  0  0  0  0  0  0  0
    5.7650  -14.8623   25.8962 C   0  0  0  0  0  0  0  0  0  0  0  0
    9.8786  -17.6492   26.4785 O   0  0  0  0  0  0  0  0  0  0  0  0
   10.0109  -17.7689   27.8805 O   0  0  0  0  0  0  0  0  0  0  0  0
  2  1  1  0
  3  2  2  0
  4  2  1  0
  5  4  1  0
  6  5  1  0
  7  6  1  0
  8  9  1  1
  8  7  1  0
 10  8  1  0
 11 10  2  0
 12 10  1  0
 13 12  1  0
 13 19  1  0
 13 14  1  6
 15 14  1  0
 16 15  1  0
 17 16  1  0
 18 17  1  0
 19 21  1  0
 20 19  2  0
 21 22  1  0
 22 23  1  1
 22 29  1  0
 24 23  1  0
 25 24  2  0
 26 25  1  0
 27 26  1  0
 27 28  2  0
 28 24  1  0
 29 31  2  0
 29 30  1  0
M  END
$$$$
