RKH.pdb
     RDKit          3D

 31 31  0  0  1  0  0  0  0  0999 V2000
    7.7519  -21.6281   15.4427 N   0  0  0  0  0  0  0  0  0  0  0  0
    6.9186  -20.5482   15.0141 C   0  0  0  0  0  0  0  0  0  0  0  0
    5.8355  -20.8071   14.3901 N   0  0  0  0  0  0  0  0  0  0  0  0
    7.2650  -19.2021   15.2642 N   0  0  0  0  0  0  0  0  0  0  0  0
    8.4993  -18.8007   15.8978 C   0  0  0  0  0  0  0  0  0  0  0  0
    8.5467  -19.4055   17.2713 C   0  0  0  0  0  0  0  0  0  0  0  0
    9.7738  -19.0517   18.0034 C   0  0  0  0  0  0  0  0  0  0  0  0
   10.1978  -17.6458   17.8232 C   0  0  2  0  0  0  0  0  0  0  0  0
   11.4237  -17.4316   17.1011 N   0  0  0  0  0  0  0  0  0  0  0  0
   10.3354  -16.9598   19.1483 C   0  0  0  0  0  0  0  0  0  0  0  0
   11.4603  -16.9302   19.7203 O   0  0  0  0  0  0  0  0  0  0  0  0
    5.1810  -20.0999   14.0108 N   0  0  0  0  0  0  0  0  0  0  0  0
    9.2604  -16.3359   19.7965 C   0  0  2  0  0  0  0  0  0  0  0  0
    9.4561  -15.7453   21.1481 C   0  0  0  0  0  0  0  0  0  0  0  0
    8.6247  -14.5066   21.0759 C   0  0  0  0  0  0  0  0  0  0  0  0
    8.7264  -13.5499   19.9828 C   0  0  0  0  0  0  0  0  0  0  0  0
    7.7509  -12.4313   20.0479 C   0  0  0  0  0  0  0  0  0  0  0  0
    7.9007  -11.5207   18.8177 N   0  0  0  0  0  0  0  0  0  0  0  0
    6.8540  -10.5298   18.8955 C   0  0  0  0  0  0  0  0  0  0  0  0
    9.2122  -16.6854   22.1972 O   0  0  0  0  0  0  0  0  0  0  0  0
    8.3039  -17.5916   22.0521 N   0  0  0  0  0  0  0  0  0  0  0  0
    9.9599  -16.6322   23.3961 C   0  0  1  0  0  0  0  0  0  0  0  0
   10.8027  -17.8119   23.6960 C   0  0  0  0  0  0  0  0  0  0  0  0
   11.6338  -18.0620   22.4746 C   0  0  0  0  0  0  0  0  0  0  0  0
   12.5350  -19.2030   22.5876 C   0  0  0  0  0  0  0  0  0  0  0  0
   12.4362  -20.1395   23.6133 N   0  0  0  0  0  0  0  0  0  0  0  0
   13.4042  -21.0478   23.4240 C   0  0  0  0  0  0  0  0  0  0  0  0
   14.0856  -20.6985   22.3239 N   0  0  0  0  0  0  0  0  0  0  0  0
   13.5606  -19.5692   21.8038 C   0  0  0  0  0  0  0  0  0  0  0  0
   11.6078  -17.4572   24.8969 O   0  0  0  0  0  0  0  0  0  0  0  0
   12.2225  -18.4734   25.6632 O   0  0  0  0  0  0  0  0  0  0  0  0
  2  1  1  0
  3  2  2  0
  4  2  1  0
  5  4  1  0
  6  5  1  0
  7  6  1  0
  8  9  1  1
  8  7  1  0
 10  8  1  0
 11 10  2  0
 12 10  1  0
 13 12  1  0
 13 19  1  0
 13 14  1  6
 15 14  1  0
 16 15  1  0
 17 16  1  0
 18 17  1  0
 19 21  1  0
 20 19  2  0
 21 22  1  0
 22 23  1  1
 22 29  1  0
 24 23  1  0
 25 24  2  0
 26 25  1  0
 27 26  1  0
 27 28  2  0
 28 24  1  0
 29 31  2  0
 29 30  1  0
M  END
$$$$
