RKH.pdb
     RDKit          3D

 31 31  0  0  1  0  0  0  0  0999 V2000
    7.7350  -13.5535   18.0404 N   0  0  0  0  0  0  0  0  0  0  0  0
    8.7282  -13.1803   18.9987 C   0  0  0  0  0  0  0  0  0  0  0  0
    9.7200  -12.4697   18.6230 N   0  0  0  0  0  0  0  0  0  0  0  0
    8.6388  -13.5790   20.3505 N   0  0  0  0  0  0  0  0  0  0  0  0
    7.9762  -14.7871   20.7836 C   0  0  0  0  0  0  0  0  0  0  0  0
    6.4978  -14.5284   20.8274 C   0  0  0  0  0  0  0  0  0  0  0  0
    5.7496  -15.6265   21.4609 C   0  0  0  0  0  0  0  0  0  0  0  0
    6.5159  -16.8863   21.5803 C   0  0  2  0  0  0  0  0  0  0  0  0
    6.0324  -18.0074   20.8189 N   0  0  0  0  0  0  0  0  0  0  0  0
    6.5994  -17.3223   23.0115 C   0  0  0  0  0  0  0  0  0  0  0  0
    5.5967  -17.8603   23.5580 O   0  0  0  0  0  0  0  0  0  0  0  0
   10.4754  -12.1242   19.2414 N   0  0  0  0  0  0  0  0  0  0  0  0
    7.7551  -17.1626   23.7886 C   0  0  2  0  0  0  0  0  0  0  0  0
    7.7645  -17.6297   25.2014 C   0  0  0  0  0  0  0  0  0  0  0  0
    7.7355  -19.1147   25.0442 C   0  0  0  0  0  0  0  0  0  0  0  0
    7.3359  -20.0147   26.1170 C   0  0  0  0  0  0  0  0  0  0  0  0
    7.4385  -21.4585   25.7826 C   0  0  0  0  0  0  0  0  0  0  0  0
    7.0592  -22.3164   27.0013 N   0  0  0  0  0  0  0  0  0  0  0  0
    7.1987  -23.6976   26.6057 C   0  0  0  0  0  0  0  0  0  0  0  0
    8.8128  -17.0327   25.9686 O   0  0  0  0  0  0  0  0  0  0  0  0
   10.0299  -17.0751   25.5394 N   0  0  0  0  0  0  0  0  0  0  0  0
    8.5278  -16.3932   27.1970 C   0  0  1  0  0  0  0  0  0  0  0  0
    9.6336  -15.6190   27.8051 C   0  0  0  0  0  0  0  0  0  0  0  0
    9.0142  -14.3948   28.4075 C   0  0  0  0  0  0  0  0  0  0  0  0
    8.2035  -13.6158   27.4786 C   0  0  0  0  0  0  0  0  0  0  0  0
    8.3987  -13.6497   26.1004 N   0  0  0  0  0  0  0  0  0  0  0  0
    7.4959  -12.8284   25.5454 C   0  0  0  0  0  0  0  0  0  0  0  0
    6.7612  -12.2982   26.5331 N   0  0  0  0  0  0  0  0  0  0  0  0
    7.1869  -12.7744   27.7219 C   0  0  0  0  0  0  0  0  0  0  0  0
   10.2698  -16.5152   28.8092 O   0  0  0  0  0  0  0  0  0  0  0  0
   11.3908  -16.0704   29.5463 O   0  0  0  0  0  0  0  0  0  0  0  0
  2  1  1  0
  3  2  2  0
  4  2  1  0
  5  4  1  0
  6  5  1  0
  7  6  1  0
  8  9  1  6
  8  7  1  0
 10  8  1  0
 11 10  2  0
 12 10  1  0
 13 12  1  0
 13 19  1  0
 13 14  1  6
 15 14  1  0
 16 15  1  0
 17 16  1  0
 18 17  1  0
 19 21  1  0
 20 19  2  0
 21 22  1  0
 22 23  1  1
 22 29  1  0
 24 23  1  0
 25 24  2  0
 26 25  1  0
 27 26  1  0
 27 28  2  0
 28 24  1  0
 29 31  2  0
 29 30  1  0
M  END
$$$$
