RKH.pdb
     RDKit          3D

 31 31  0  0  1  0  0  0  0  0999 V2000
    8.5594  -12.9623   19.0291 N   0  0  0  0  0  0  0  0  0  0  0  0
    8.6029  -13.5409   17.7224 C   0  0  0  0  0  0  0  0  0  0  0  0
    8.9076  -12.8047   16.7251 N   0  0  0  0  0  0  0  0  0  0  0  0
    8.3165  -14.9072   17.5085 N   0  0  0  0  0  0  0  0  0  0  0  0
    7.5913  -15.7271   18.4508 C   0  0  0  0  0  0  0  0  0  0  0  0
    7.3674  -17.0768   17.8321 C   0  0  0  0  0  0  0  0  0  0  0  0
    8.5772  -17.9153   17.8500 C   0  0  0  0  0  0  0  0  0  0  0  0
    8.4031  -19.2075   18.5489 C   0  0  2  0  0  0  0  0  0  0  0  0
    7.0553  -19.6964   18.6701 N   0  0  0  0  0  0  0  0  0  0  0  0
    8.9803  -19.1449   19.9304 C   0  0  0  0  0  0  0  0  0  0  0  0
    8.2069  -19.0942   20.9267 O   0  0  0  0  0  0  0  0  0  0  0  0
    8.9520  -13.1217   15.7402 N   0  0  0  0  0  0  0  0  0  0  0  0
   10.3600  -19.1415   20.1783 C   0  0  2  0  0  0  0  0  0  0  0  0
   10.8581  -19.2045   21.5790 C   0  0  0  0  0  0  0  0  0  0  0  0
   12.0776  -20.0561   21.4435 C   0  0  0  0  0  0  0  0  0  0  0  0
   12.0703  -21.4910   21.6916 C   0  0  0  0  0  0  0  0  0  0  0  0
   13.3687  -22.1680   21.4407 C   0  0  0  0  0  0  0  0  0  0  0  0
   13.2125  -23.6912   21.5845 N   0  0  0  0  0  0  0  0  0  0  0  0
   14.5131  -24.2730   21.3531 C   0  0  0  0  0  0  0  0  0  0  0  0
   10.9769  -17.9113   22.1768 O   0  0  0  0  0  0  0  0  0  0  0  0
   11.5421  -16.9499   21.5259 N   0  0  0  0  0  0  0  0  0  0  0  0
   10.4784  -17.6743   23.4786 C   0  0  1  0  0  0  0  0  0  0  0  0
   10.7284  -16.3279   24.0413 C   0  0  0  0  0  0  0  0  0  0  0  0
    9.4080  -15.8233   24.5384 C   0  0  0  0  0  0  0  0  0  0  0  0
    8.5473  -15.2737   23.4973 C   0  0  0  0  0  0  0  0  0  0  0  0
    8.9799  -15.0844   22.1874 N   0  0  0  0  0  0  0  0  0  0  0  0
    7.9540  -14.5688   21.4949 C   0  0  0  0  0  0  0  0  0  0  0  0
    6.9167  -14.4383   22.3337 N   0  0  0  0  0  0  0  0  0  0  0  0
    7.2701  -14.8677   23.5634 C   0  0  0  0  0  0  0  0  0  0  0  0
   11.7381  -16.5059   25.1208 O   0  0  0  0  0  0  0  0  0  0  0  0
   12.0490  -17.8011   25.5934 O   0  0  0  0  0  0  0  0  0  0  0  0
  2  1  1  0
  3  2  2  0
  4  2  1  0
  5  4  1  0
  6  5  1  0
  7  6  1  0
  8  9  1  1
  8  7  1  0
 10  8  1  0
 11 10  2  0
 12 10  1  0
 13 12  1  0
 13 19  1  0
 13 14  1  6
 15 14  1  0
 16 15  1  0
 17 16  1  0
 18 17  1  0
 19 21  1  0
 20 19  2  0
 21 22  1  0
 22 23  1  1
 22 29  1  0
 24 23  1  0
 25 24  2  0
 26 25  1  0
 27 26  1  0
 27 28  2  0
 28 24  1  0
 29 31  2  0
 29 30  1  0
M  END
$$$$
