RKH.pdb
     RDKit          3D

 31 31  0  0  1  0  0  0  0  0999 V2000
    5.9944  -12.5036   14.6915 N   0  0  0  0  0  0  0  0  0  0  0  0
    7.1589  -13.3237   14.5675 C   0  0  0  0  0  0  0  0  0  0  0  0
    7.9978  -13.0775   13.6372 N   0  0  0  0  0  0  0  0  0  0  0  0
    7.4034  -14.3998   15.4489 N   0  0  0  0  0  0  0  0  0  0  0  0
    6.9347  -14.4342   16.8146 C   0  0  0  0  0  0  0  0  0  0  0  0
    8.0294  -13.9223   17.7055 C   0  0  0  0  0  0  0  0  0  0  0  0
    7.7917  -14.2263   19.1261 C   0  0  0  0  0  0  0  0  0  0  0  0
    8.8650  -15.0243   19.7583 C   0  0  2  0  0  0  0  0  0  0  0  0
    9.5276  -15.9886   18.9207 N   0  0  0  0  0  0  0  0  0  0  0  0
    8.3441  -15.7582   20.9565 C   0  0  0  0  0  0  0  0  0  0  0  0
    7.7647  -15.1165   21.8764 O   0  0  0  0  0  0  0  0  0  0  0  0
    8.8750  -13.6018   13.4699 N   0  0  0  0  0  0  0  0  0  0  0  0
    8.4674  -17.1460   21.1108 C   0  0  1  0  0  0  0  0  0  0  0  0
    8.0118  -17.7915   22.3717 C   0  0  0  0  0  0  0  0  0  0  0  0
    7.2299  -18.9590   21.8652 C   0  0  0  0  0  0  0  0  0  0  0  0
    6.7656  -20.0339   22.7310 C   0  0  0  0  0  0  0  0  0  0  0  0
    5.3783  -20.4905   22.4592 C   0  0  0  0  0  0  0  0  0  0  0  0
    5.0305  -21.6972   23.3469 N   0  0  0  0  0  0  0  0  0  0  0  0
    3.6366  -21.9985   23.1233 C   0  0  0  0  0  0  0  0  0  0  0  0
    9.0844  -18.0192   23.2890 O   0  0  0  0  0  0  0  0  0  0  0  0
    9.3276  -19.2146   23.7123 N   0  0  0  0  0  0  0  0  0  0  0  0
    9.8850  -16.9436   23.7377 C   0  0  1  0  0  0  0  0  0  0  0  0
   10.9917  -17.2895   24.6583 C   0  0  0  0  0  0  0  0  0  0  0  0
   12.0106  -16.1987   24.5267 C   0  0  0  0  0  0  0  0  0  0  0  0
   12.7104  -16.1851   23.2473 C   0  0  0  0  0  0  0  0  0  0  0  0
   12.4392  -17.0996   22.2330 N   0  0  0  0  0  0  0  0  0  0  0  0
   13.2490  -16.8116   21.2039 C   0  0  0  0  0  0  0  0  0  0  0  0
   14.0003  -15.7585   21.5548 N   0  0  0  0  0  0  0  0  0  0  0  0
   13.6778  -15.3669   22.8054 C   0  0  0  0  0  0  0  0  0  0  0  0
   10.3929  -17.3787   26.0184 O   0  0  0  0  0  0  0  0  0  0  0  0
   11.0556  -18.0986   27.0384 O   0  0  0  0  0  0  0  0  0  0  0  0
  2  1  1  0
  3  2  2  0
  4  2  1  0
  5  4  1  0
  6  5  1  0
  7  6  1  0
  8  9  1  6
  8  7  1  0
 10  8  1  0
 11 10  2  0
 12 10  1  0
 13 12  1  0
 13 19  1  0
 13 14  1  1
 15 14  1  0
 16 15  1  0
 17 16  1  0
 18 17  1  0
 19 21  1  0
 20 19  2  0
 21 22  1  0
 22 23  1  1
 22 29  1  0
 24 23  1  0
 25 24  2  0
 26 25  1  0
 27 26  1  0
 27 28  2  0
 28 24  1  0
 29 31  2  0
 29 30  1  0
M  END
$$$$
