RKH.pdb
     RDKit          3D

 31 31  0  0  1  0  0  0  0  0999 V2000
   10.6224  -13.5984   18.4529 N   0  0  0  0  0  0  0  0  0  0  0  0
    9.5028  -12.8770   17.9329 C   0  0  0  0  0  0  0  0  0  0  0  0
    9.6913  -12.0160   17.0094 N   0  0  0  0  0  0  0  0  0  0  0  0
    8.1937  -13.0938   18.4163 N   0  0  0  0  0  0  0  0  0  0  0  0
    7.8546  -14.1308   19.3627 C   0  0  0  0  0  0  0  0  0  0  0  0
    8.3378  -15.4450   18.8208 C   0  0  0  0  0  0  0  0  0  0  0  0
    8.0186  -16.5750   19.7085 C   0  0  0  0  0  0  0  0  0  0  0  0
    8.4057  -17.8953   19.1648 C   0  0  2  0  0  0  0  0  0  0  0  0
    7.3498  -18.6922   18.5990 N   0  0  0  0  0  0  0  0  0  0  0  0
    9.0761  -18.7258   20.2166 C   0  0  0  0  0  0  0  0  0  0  0  0
    8.3933  -19.5449   20.8921 O   0  0  0  0  0  0  0  0  0  0  0  0
    8.9565  -11.4173   16.5920 N   0  0  0  0  0  0  0  0  0  0  0  0
   10.4477  -18.6400   20.4931 C   0  0  2  0  0  0  0  0  0  0  0  0
   11.0459  -19.5153   21.5372 C   0  0  0  0  0  0  0  0  0  0  0  0
   11.8608  -20.4668   20.7240 C   0  0  0  0  0  0  0  0  0  0  0  0
   12.6598  -21.5296   21.3178 C   0  0  0  0  0  0  0  0  0  0  0  0
   13.4184  -22.3519   20.3405 C   0  0  0  0  0  0  0  0  0  0  0  0
   14.2691  -23.4024   21.0739 N   0  0  0  0  0  0  0  0  0  0  0  0
   15.0364  -24.1005   20.0702 C   0  0  0  0  0  0  0  0  0  0  0  0
   11.6821  -18.7698   22.5781 O   0  0  0  0  0  0  0  0  0  0  0  0
   12.4224  -19.3763   23.4451 N   0  0  0  0  0  0  0  0  0  0  0  0
   11.5083  -17.3694   22.6665 C   0  0  2  0  0  0  0  0  0  0  0  0
   11.3751  -16.8101   24.0309 C   0  0  0  0  0  0  0  0  0  0  0  0
    9.9277  -16.9295   24.3996 C   0  0  0  0  0  0  0  0  0  0  0  0
    9.0522  -16.0007   23.6941 C   0  0  0  0  0  0  0  0  0  0  0  0
    9.5324  -15.0493   22.7980 N   0  0  0  0  0  0  0  0  0  0  0  0
    8.4769  -14.3668   22.3312 C   0  0  0  0  0  0  0  0  0  0  0  0
    7.3760  -14.8674   22.9092 N   0  0  0  0  0  0  0  0  0  0  0  0
    7.7179  -15.8693   23.7462 C   0  0  0  0  0  0  0  0  0  0  0  0
   12.2758  -17.6133   24.9027 O   0  0  0  0  0  0  0  0  0  0  0  0
   12.9183  -17.0078   26.0064 O   0  0  0  0  0  0  0  0  0  0  0  0
  2  1  1  0
  3  2  2  0
  4  2  1  0
  5  4  1  0
  6  5  1  0
  7  6  1  0
  8  9  1  1
  8  7  1  0
 10  8  1  0
 11 10  2  0
 12 10  1  0
 13 12  1  0
 13 19  1  0
 13 14  1  6
 15 14  1  0
 16 15  1  0
 17 16  1  0
 18 17  1  0
 19 21  1  0
 20 19  2  0
 21 22  1  0
 22 23  1  6
 22 29  1  0
 24 23  1  0
 25 24  2  0
 26 25  1  0
 27 26  1  0
 27 28  2  0
 28 24  1  0
 29 31  2  0
 29 30  1  0
M  END
$$$$
