RKH.pdb
     RDKit          3D

 31 31  0  0  1  0  0  0  0  0999 V2000
    8.6096  -12.9773   18.7766 N   0  0  0  0  0  0  0  0  0  0  0  0
    8.0413  -13.6981   17.6804 C   0  0  0  0  0  0  0  0  0  0  0  0
    7.5804  -13.0507   16.6814 N   0  0  0  0  0  0  0  0  0  0  0  0
    7.9775  -15.1089   17.6763 N   0  0  0  0  0  0  0  0  0  0  0  0
    8.3092  -15.9256   18.8204 C   0  0  0  0  0  0  0  0  0  0  0  0
    9.6918  -15.5615   19.2790 C   0  0  0  0  0  0  0  0  0  0  0  0
   10.1355  -16.3636   20.4308 C   0  0  0  0  0  0  0  0  0  0  0  0
    9.0556  -16.6924   21.3869 C   0  0  2  0  0  0  0  0  0  0  0  0
    7.7723  -16.0905   21.1390 N   0  0  0  0  0  0  0  0  0  0  0  0
    9.4559  -16.3285   22.7843 C   0  0  0  0  0  0  0  0  0  0  0  0
   10.6469  -15.9835   23.0211 O   0  0  0  0  0  0  0  0  0  0  0  0
    7.1054  -13.4730   15.8637 N   0  0  0  0  0  0  0  0  0  0  0  0
    8.5595  -16.3497   23.8618 C   0  0  1  0  0  0  0  0  0  0  0  0
    9.0405  -16.0112   25.2286 C   0  0  0  0  0  0  0  0  0  0  0  0
    7.9333  -15.1557   25.7511 C   0  0  0  0  0  0  0  0  0  0  0  0
    7.7527  -13.7669   25.3519 C   0  0  0  0  0  0  0  0  0  0  0  0
    6.6514  -13.0602   26.0552 C   0  0  0  0  0  0  0  0  0  0  0  0
    6.5513  -11.6063   25.5639 N   0  0  0  0  0  0  0  0  0  0  0  0
    5.3794  -11.0316   26.1805 C   0  0  0  0  0  0  0  0  0  0  0  0
    9.4356  -17.1666   25.9720 O   0  0  0  0  0  0  0  0  0  0  0  0
    8.6302  -18.1702   26.0795 N   0  0  0  0  0  0  0  0  0  0  0  0
   10.7052  -17.2210   26.5921 C   0  0  1  0  0  0  0  0  0  0  0  0
   10.9820  -18.4201   27.4152 C   0  0  0  0  0  0  0  0  0  0  0  0
   12.4211  -18.7693   27.1870 C   0  0  0  0  0  0  0  0  0  0  0  0
   12.7086  -19.2776   25.8506 C   0  0  0  0  0  0  0  0  0  0  0  0
   11.7173  -19.4763   24.8932 N   0  0  0  0  0  0  0  0  0  0  0  0
   12.3133  -19.9462   23.7879 C   0  0  0  0  0  0  0  0  0  0  0  0
   13.6268  -20.0400   24.0379 N   0  0  0  0  0  0  0  0  0  0  0  0
   13.8794  -19.6325   25.2994 C   0  0  0  0  0  0  0  0  0  0  0  0
   10.6815  -18.0404   28.8230 O   0  0  0  0  0  0  0  0  0  0  0  0
   10.7691  -19.0061   29.8513 O   0  0  0  0  0  0  0  0  0  0  0  0
  2  1  1  0
  3  2  2  0
  4  2  1  0
  5  4  1  0
  6  5  1  0
  7  6  1  0
  8  9  1  6
  8  7  1  0
 10  8  1  0
 11 10  2  0
 12 10  1  0
 13 12  1  0
 13 19  1  0
 13 14  1  1
 15 14  1  0
 16 15  1  0
 17 16  1  0
 18 17  1  0
 19 21  1  0
 20 19  2  0
 21 22  1  0
 22 23  1  1
 22 29  1  0
 24 23  1  0
 25 24  2  0
 26 25  1  0
 27 26  1  0
 27 28  2  0
 28 24  1  0
 29 31  2  0
 29 30  1  0
M  END
$$$$
