KAG.pdb
     RDKit          3D

 19 18  0  0  1  0  0  0  0  0999 V2000
    7.1339  -16.8109   20.4447 N   0  0  0  0  0  0  0  0  0  0  0  0
    7.8208  -15.6312   20.8679 C   0  0  1  0  0  0  0  0  0  0  0  0
    7.5343  -14.4394   19.9683 C   0  0  0  0  0  0  0  0  0  0  0  0
    7.8596  -14.7381   18.5293 C   0  0  0  0  0  0  0  0  0  0  0  0
    7.5429  -13.5469   17.6841 C   0  0  0  0  0  0  0  0  0  0  0  0
    7.8567  -13.7424   16.2276 C   0  0  0  0  0  0  0  0  0  0  0  0
    7.4239  -12.5699   15.4926 N   0  0  0  0  0  0  0  0  0  0  0  0
    7.6100  -15.3130   22.2936 C   0  0  0  0  0  0  0  0  0  0  0  0
    6.6390  -14.5917   22.6119 O   0  0  0  0  0  0  0  0  0  0  0  0
    6.9062  -16.3646   25.1569 C   0  0  0  0  0  0  0  0  0  0  0  0
    8.1658  -15.6465   24.7307 C   0  0  2  0  0  0  0  0  0  0  0  0
    8.4551  -15.7830   23.3418 N   0  0  0  0  0  0  0  0  0  0  0  0
    9.2737  -16.0639   25.6148 C   0  0  0  0  0  0  0  0  0  0  0  0
    9.1241  -15.9853   26.8609 O   0  0  0  0  0  0  0  0  0  0  0  0
   10.5249  -16.5591   25.1577 N   0  0  0  0  0  0  0  0  0  0  0  0
   11.4259  -15.7425   24.3531 C   0  0  0  0  0  0  0  0  0  0  0  0
   12.7092  -16.4303   24.1911 C   0  0  0  0  0  0  0  0  0  0  0  0
   13.7794  -15.8552   23.5406 O   0  0  0  0  0  0  0  0  0  0  0  0
   12.8513  -17.5938   24.6609 O   0  0  0  0  0  0  0  0  0  0  0  0
  2  1  1  6
  2  3  1  0
  4  3  1  0
  4  5  1  0
  6  5  1  0
  7  6  1  0
  8  2  1  0
  8 12  1  0
  9  8  2  0
 11 10  1  1
 11 12  1  0
 11 13  1  0
 13 15  1  0
 14 13  2  0
 15 16  1  0
 17 18  1  0
 17 16  1  0
 19 17  2  0
M  END
$$$$
