KAG.pdb
     RDKit          3D

 19 18  0  0  1  0  0  0  0  0999 V2000
    4.9574  -17.0557   21.5238 N   0  0  0  0  0  0  0  0  0  0  0  0
    6.2571  -16.7868   22.0541 C   0  0  1  0  0  0  0  0  0  0  0  0
    6.7333  -15.3786   21.7352 C   0  0  0  0  0  0  0  0  0  0  0  0
    7.0725  -15.2233   20.2769 C   0  0  0  0  0  0  0  0  0  0  0  0
    7.6422  -13.8630   20.0349 C   0  0  0  0  0  0  0  0  0  0  0  0
    7.9932  -13.6051   18.5967 C   0  0  0  0  0  0  0  0  0  0  0  0
    8.4488  -12.2351   18.4630 N   0  0  0  0  0  0  0  0  0  0  0  0
    6.3771  -17.1005   23.4913 C   0  0  0  0  0  0  0  0  0  0  0  0
    5.4987  -16.6779   24.2748 O   0  0  0  0  0  0  0  0  0  0  0  0
    7.8374  -19.2578   26.0313 C   0  0  0  0  0  0  0  0  0  0  0  0
    7.7948  -17.8725   25.4288 C   0  0  2  0  0  0  0  0  0  0  0  0
    7.4455  -17.8646   24.0471 N   0  0  0  0  0  0  0  0  0  0  0  0
    9.0685  -17.1850   25.7262 C   0  0  0  0  0  0  0  0  0  0  0  0
    9.4840  -17.1544   26.9127 O   0  0  0  0  0  0  0  0  0  0  0  0
    9.8808  -16.5402   24.7544 N   0  0  0  0  0  0  0  0  0  0  0  0
   11.1205  -15.8639   25.1170 C   0  0  0  0  0  0  0  0  0  0  0  0
   12.2683  -16.6470   24.6528 C   0  0  0  0  0  0  0  0  0  0  0  0
   13.4814  -16.0701   24.3453 O   0  0  0  0  0  0  0  0  0  0  0  0
   12.1531  -17.8982   24.5262 O   0  0  0  0  0  0  0  0  0  0  0  0
  2  1  1  1
  2  3  1  0
  4  3  1  0
  4  5  1  0
  6  5  1  0
  7  6  1  0
  8  2  1  0
  8 12  1  0
  9  8  2  0
 11 10  1  6
 11 12  1  0
 11 13  1  0
 13 15  1  0
 14 13  2  0
 15 16  1  0
 17 18  1  0
 17 16  1  0
 19 17  2  0
M  END
$$$$
