KAG.pdb
     RDKit          3D

 19 18  0  0  1  0  0  0  0  0999 V2000
    8.4746  -13.2000   18.4130 N   0  0  0  0  0  0  0  0  0  0  0  0
    9.2537  -14.0841   19.2218 C   0  0  1  0  0  0  0  0  0  0  0  0
   10.7377  -13.7567   19.1744 C   0  0  0  0  0  0  0  0  0  0  0  0
   11.4806  -14.6769   18.2432 C   0  0  0  0  0  0  0  0  0  0  0  0
   12.9336  -14.3274   18.2436 C   0  0  0  0  0  0  0  0  0  0  0  0
   13.7679  -15.2232   17.3721 C   0  0  0  0  0  0  0  0  0  0  0  0
   15.1616  -14.8485   17.5115 N   0  0  0  0  0  0  0  0  0  0  0  0
    8.7554  -14.1998   20.6062 C   0  0  0  0  0  0  0  0  0  0  0  0
    8.4997  -13.1541   21.2430 O   0  0  0  0  0  0  0  0  0  0  0  0
    7.1627  -16.6542   22.8996 C   0  0  0  0  0  0  0  0  0  0  0  0
    8.1884  -15.5743   22.6430 C   0  0  2  0  0  0  0  0  0  0  0  0
    8.5452  -15.4448   21.2693 N   0  0  0  0  0  0  0  0  0  0  0  0
    9.3416  -15.7906   23.5412 C   0  0  0  0  0  0  0  0  0  0  0  0
    9.1409  -15.9017   24.7776 O   0  0  0  0  0  0  0  0  0  0  0  0
   10.6919  -15.8853   23.1083 N   0  0  0  0  0  0  0  0  0  0  0  0
   11.7783  -16.1673   24.0390 C   0  0  0  0  0  0  0  0  0  0  0  0
   13.0576  -16.1658   23.3252 C   0  0  0  0  0  0  0  0  0  0  0  0
   14.2603  -16.3807   23.9627 O   0  0  0  0  0  0  0  0  0  0  0  0
   13.0706  -15.9611   22.0792 O   0  0  0  0  0  0  0  0  0  0  0  0
  2  1  1  1
  2  3  1  0
  4  3  1  0
  4  5  1  0
  6  5  1  0
  7  6  1  0
  8  2  1  0
  8 12  1  0
  9  8  2  0
 11 10  1  6
 11 12  1  0
 11 13  1  0
 13 15  1  0
 14 13  2  0
 15 16  1  0
 17 18  1  0
 17 16  1  0
 19 17  2  0
M  END
$$$$
