KAG.pdb
     RDKit          3D

 19 18  0  0  1  0  0  0  0  0999 V2000
   11.0167  -15.1907   15.8074 N   0  0  0  0  0  0  0  0  0  0  0  0
    9.9110  -15.4516   16.6747 C   0  0  1  0  0  0  0  0  0  0  0  0
    9.8294  -16.9130   17.0862 C   0  0  0  0  0  0  0  0  0  0  0  0
    8.4750  -17.4991   16.7902 C   0  0  0  0  0  0  0  0  0  0  0  0
    8.4373  -18.9268   17.2307 C   0  0  0  0  0  0  0  0  0  0  0  0
    7.0917  -19.5734   17.0603 C   0  0  0  0  0  0  0  0  0  0  0  0
    7.1643  -20.9411   17.5364 N   0  0  0  0  0  0  0  0  0  0  0  0
    9.8548  -14.5442   17.8374 C   0  0  0  0  0  0  0  0  0  0  0  0
   10.8813  -14.3984   18.5369 O   0  0  0  0  0  0  0  0  0  0  0  0
    7.3186  -12.1889   19.4441 C   0  0  0  0  0  0  0  0  0  0  0  0
    8.5937  -12.9976   19.3791 C   0  0  2  0  0  0  0  0  0  0  0  0
    8.6887  -13.8156   18.2159 N   0  0  0  0  0  0  0  0  0  0  0  0
    8.7502  -13.7415   20.6461 C   0  0  0  0  0  0  0  0  0  0  0  0
    8.7601  -13.1057   21.7310 O   0  0  0  0  0  0  0  0  0  0  0  0
    8.8940  -15.1525   20.7383 N   0  0  0  0  0  0  0  0  0  0  0  0
    8.8819  -15.8429   22.0224 C   0  0  0  0  0  0  0  0  0  0  0  0
   10.2519  -15.9927   22.5193 C   0  0  0  0  0  0  0  0  0  0  0  0
   10.5369  -16.5591   23.7429 O   0  0  0  0  0  0  0  0  0  0  0  0
   11.2152  -15.5913   21.8084 O   0  0  0  0  0  0  0  0  0  0  0  0
  2  1  1  1
  2  3  1  0
  4  3  1  0
  4  5  1  0
  6  5  1  0
  7  6  1  0
  8  2  1  0
  8 12  1  0
  9  8  2  0
 11 10  1  1
 11 12  1  0
 11 13  1  0
 13 15  1  0
 14 13  2  0
 15 16  1  0
 17 18  1  0
 17 16  1  0
 19 17  2  0
M  END
$$$$
