KAG.pdb
     RDKit          3D

 19 18  0  0  1  0  0  0  0  0999 V2000
    7.7153  -15.9945   20.3281 N   0  0  0  0  0  0  0  0  0  0  0  0
    8.3232  -14.7065   20.4468 C   0  0  1  0  0  0  0  0  0  0  0  0
    7.6990  -13.6826   19.5120 C   0  0  0  0  0  0  0  0  0  0  0  0
    7.4090  -14.2706   18.1572 C   0  0  0  0  0  0  0  0  0  0  0  0
    8.2147  -13.5609   17.1176 C   0  0  0  0  0  0  0  0  0  0  0  0
    7.9072  -14.0011   15.7141 C   0  0  0  0  0  0  0  0  0  0  0  0
    8.7116  -13.2240   14.7914 N   0  0  0  0  0  0  0  0  0  0  0  0
    8.3899  -14.2188   21.8382 C   0  0  0  0  0  0  0  0  0  0  0  0
    9.0200  -13.1651   22.0769 O   0  0  0  0  0  0  0  0  0  0  0  0
    6.7055  -14.6814   25.1418 C   0  0  0  0  0  0  0  0  0  0  0  0
    7.9522  -14.5144   24.3041 C   0  0  2  0  0  0  0  0  0  0  0  0
    7.7730  -14.8831   22.9392 N   0  0  0  0  0  0  0  0  0  0  0  0
    9.0699  -15.2153   24.9697 C   0  0  0  0  0  0  0  0  0  0  0  0
    9.2560  -15.0382   26.2007 O   0  0  0  0  0  0  0  0  0  0  0  0
    9.9729  -16.0948   24.3133 N   0  0  0  0  0  0  0  0  0  0  0  0
   10.9615  -16.8712   25.0520 C   0  0  0  0  0  0  0  0  0  0  0  0
   11.8025  -17.6233   24.1175 C   0  0  0  0  0  0  0  0  0  0  0  0
   12.7968  -18.4784   24.5411 O   0  0  0  0  0  0  0  0  0  0  0  0
   11.6183  -17.4908   22.8753 O   0  0  0  0  0  0  0  0  0  0  0  0
  2  1  1  1
  2  3  1  0
  4  3  1  0
  4  5  1  0
  6  5  1  0
  7  6  1  0
  8  2  1  0
  8 12  1  0
  9  8  2  0
 11 10  1  1
 11 12  1  0
 11 13  1  0
 13 15  1  0
 14 13  2  0
 15 16  1  0
 17 18  1  0
 17 16  1  0
 19 17  2  0
M  END
$$$$
