KAG.pdb
     RDKit          3D

 19 18  0  0  1  0  0  0  0  0999 V2000
    5.2603  -16.4922   21.3119 N   0  0  0  0  0  0  0  0  0  0  0  0
    6.5985  -16.2335   21.7418 C   0  0  1  0  0  0  0  0  0  0  0  0
    7.1409  -14.9237   21.1922 C   0  0  0  0  0  0  0  0  0  0  0  0
    7.2007  -14.9341   19.6882 C   0  0  0  0  0  0  0  0  0  0  0  0
    7.7792  -13.6459   19.1987 C   0  0  0  0  0  0  0  0  0  0  0  0
    7.8855  -13.5647   17.7021 C   0  0  0  0  0  0  0  0  0  0  0  0
    8.4592  -12.2829   17.3410 N   0  0  0  0  0  0  0  0  0  0  0  0
    6.7716  -16.3353   23.2040 C   0  0  0  0  0  0  0  0  0  0  0  0
    6.0077  -15.6807   23.9472 O   0  0  0  0  0  0  0  0  0  0  0  0
    8.2003  -18.1902   26.0069 C   0  0  0  0  0  0  0  0  0  0  0  0
    8.2506  -16.9438   25.1538 C   0  0  2  0  0  0  0  0  0  0  0  0
    7.7675  -17.1433   23.8278 N   0  0  0  0  0  0  0  0  0  0  0  0
    9.6157  -16.3814   25.2132 C   0  0  0  0  0  0  0  0  0  0  0  0
   10.1307  -16.1442   26.3357 O   0  0  0  0  0  0  0  0  0  0  0  0
   10.4120  -16.0801   24.0752 N   0  0  0  0  0  0  0  0  0  0  0  0
   11.7719  -15.5700   24.2034 C   0  0  0  0  0  0  0  0  0  0  0  0
   12.7220  -16.6850   24.2173 C   0  0  0  0  0  0  0  0  0  0  0  0
   12.3213  -17.9962   24.3566 O   0  0  0  0  0  0  0  0  0  0  0  0
   13.9565  -16.4475   24.0980 O   0  0  0  0  0  0  0  0  0  0  0  0
  2  1  1  1
  2  3  1  0
  4  3  1  0
  4  5  1  0
  6  5  1  0
  7  6  1  0
  8  2  1  0
  8 12  1  0
  9  8  2  0
 11 10  1  1
 11 12  1  0
 11 13  1  0
 13 15  1  0
 14 13  2  0
 15 16  1  0
 17 18  1  0
 17 16  1  0
 19 17  2  0
M  END
$$$$
