KAG.pdb
     RDKit          3D

 19 18  0  0  1  0  0  0  0  0999 V2000
    7.7023  -14.5470   21.4044 N   0  0  0  0  0  0  0  0  0  0  0  0
    7.0520  -14.8246   22.6465 C   0  0  1  0  0  0  0  0  0  0  0  0
    7.0517  -16.3075   22.9819 C   0  0  0  0  0  0  0  0  0  0  0  0
    6.1847  -17.0919   22.0339 C   0  0  0  0  0  0  0  0  0  0  0  0
    6.1571  -18.5276   22.4479 C   0  0  0  0  0  0  0  0  0  0  0  0
    5.2811  -19.3869   21.5807 C   0  0  0  0  0  0  0  0  0  0  0  0
    5.2687  -20.7347   22.1151 N   0  0  0  0  0  0  0  0  0  0  0  0
    7.5551  -14.0033   23.7648 C   0  0  0  0  0  0  0  0  0  0  0  0
    8.7822  -13.7721   23.8370 O   0  0  0  0  0  0  0  0  0  0  0  0
    6.0647  -11.8510   26.5238 C   0  0  0  0  0  0  0  0  0  0  0  0
    7.1771  -12.5965   25.8233 C   0  0  2  0  0  0  0  0  0  0  0  0
    6.7183  -13.4512   24.7792 N   0  0  0  0  0  0  0  0  0  0  0  0
    8.0016  -13.2842   26.8385 C   0  0  0  0  0  0  0  0  0  0  0  0
    8.4122  -12.6353   27.8343 O   0  0  0  0  0  0  0  0  0  0  0  0
    8.3764  -14.6538   26.7774 N   0  0  0  0  0  0  0  0  0  0  0  0
    9.1508  -15.2857   27.8390 C   0  0  0  0  0  0  0  0  0  0  0  0
    9.3896  -16.6931   27.5099 C   0  0  0  0  0  0  0  0  0  0  0  0
   10.1126  -17.5319   28.3302 O   0  0  0  0  0  0  0  0  0  0  0  0
    8.9202  -17.1660   26.4372 O   0  0  0  0  0  0  0  0  0  0  0  0
  2  1  1  6
  2  3  1  0
  4  3  1  0
  4  5  1  0
  6  5  1  0
  7  6  1  0
  8  2  1  0
  8 12  1  0
  9  8  2  0
 11 10  1  1
 11 12  1  0
 11 13  1  0
 13 15  1  0
 14 13  2  0
 15 16  1  0
 17 18  1  0
 17 16  1  0
 19 17  2  0
M  END
$$$$
