KAG.pdb
     RDKit          3D

 19 18  0  0  1  0  0  0  0  0999 V2000
    5.7226  -16.2309   21.4637 N   0  0  0  0  0  0  0  0  0  0  0  0
    6.7876  -15.6239   22.1986 C   0  0  1  0  0  0  0  0  0  0  0  0
    6.7861  -14.1084   22.0761 C   0  0  0  0  0  0  0  0  0  0  0  0
    6.8008  -13.6668   20.6372 C   0  0  0  0  0  0  0  0  0  0  0  0
    8.2069  -13.3990   20.2074 C   0  0  0  0  0  0  0  0  0  0  0  0
    8.3176  -12.8801   18.8016 C   0  0  0  0  0  0  0  0  0  0  0  0
    9.7120  -12.6118   18.5085 N   0  0  0  0  0  0  0  0  0  0  0  0
    6.8522  -16.0664   23.6051 C   0  0  0  0  0  0  0  0  0  0  0  0
    6.1101  -15.5115   24.4451 O   0  0  0  0  0  0  0  0  0  0  0  0
    7.5881  -18.7116   25.9179 C   0  0  0  0  0  0  0  0  0  0  0  0
    8.0166  -17.3427   25.4421 C   0  0  2  0  0  0  0  0  0  0  0  0
    7.7187  -17.0994   24.0698 N   0  0  0  0  0  0  0  0  0  0  0  0
    9.4391  -17.1426   25.7885 C   0  0  0  0  0  0  0  0  0  0  0  0
    9.7966  -17.2493   26.9894 O   0  0  0  0  0  0  0  0  0  0  0  0
   10.4597  -16.8316   24.8497 N   0  0  0  0  0  0  0  0  0  0  0  0
   11.8542  -16.6892   25.2510 C   0  0  0  0  0  0  0  0  0  0  0  0
   12.6809  -16.3904   24.0791 C   0  0  0  0  0  0  0  0  0  0  0  0
   12.1531  -16.2782   22.8110 O   0  0  0  0  0  0  0  0  0  0  0  0
   13.9247  -16.2277   24.2245 O   0  0  0  0  0  0  0  0  0  0  0  0
  2  1  1  1
  2  3  1  0
  4  3  1  0
  4  5  1  0
  6  5  1  0
  7  6  1  0
  8  2  1  0
  8 12  1  0
  9  8  2  0
 11 10  1  6
 11 12  1  0
 11 13  1  0
 13 15  1  0
 14 13  2  0
 15 16  1  0
 17 18  1  0
 17 16  1  0
 19 17  2  0
M  END
$$$$
