KAG.pdb
     RDKit          3D

 19 18  0  0  1  0  0  0  0  0999 V2000
    9.7743  -22.4097   27.2185 N   0  0  0  0  0  0  0  0  0  0  0  0
   10.5021  -21.3076   26.6721 C   0  0  1  0  0  0  0  0  0  0  0  0
   11.6940  -20.9170   27.5314 C   0  0  0  0  0  0  0  0  0  0  0  0
   11.6227  -21.5427   28.8986 C   0  0  0  0  0  0  0  0  0  0  0  0
   12.8391  -21.1740   29.6848 C   0  0  0  0  0  0  0  0  0  0  0  0
   12.8435  -21.7287   31.0812 C   0  0  0  0  0  0  0  0  0  0  0  0
   14.0964  -21.3785   31.7216 N   0  0  0  0  0  0  0  0  0  0  0  0
   10.8775  -21.5002   25.2578 C   0  0  0  0  0  0  0  0  0  0  0  0
   10.9677  -22.6654   24.8125 O   0  0  0  0  0  0  0  0  0  0  0  0
   11.0127  -19.4548   22.1067 C   0  0  0  0  0  0  0  0  0  0  0  0
   11.4797  -20.5944   22.9826 C   0  0  2  0  0  0  0  0  0  0  0  0
   11.1467  -20.4267   24.3582 N   0  0  0  0  0  0  0  0  0  0  0  0
   12.9196  -20.8212   22.7406 C   0  0  0  0  0  0  0  0  0  0  0  0
   13.3042  -21.1261   21.5829 O   0  0  0  0  0  0  0  0  0  0  0  0
   13.9286  -20.7196   23.7364 N   0  0  0  0  0  0  0  0  0  0  0  0
   15.3336  -20.9639   23.4329 C   0  0  0  0  0  0  0  0  0  0  0  0
   16.0394  -19.6887   23.2853 C   0  0  0  0  0  0  0  0  0  0  0  0
   17.4119  -19.5900   23.3610 O   0  0  0  0  0  0  0  0  0  0  0  0
   15.3755  -18.6341   23.0807 O   0  0  0  0  0  0  0  0  0  0  0  0
  2  1  1  1
  2  3  1  0
  4  3  1  0
  4  5  1  0
  6  5  1  0
  7  6  1  0
  8  2  1  0
  8 12  1  0
  9  8  2  0
 11 10  1  6
 11 12  1  0
 11 13  1  0
 13 15  1  0
 14 13  2  0
 15 16  1  0
 17 18  1  0
 17 16  1  0
 19 17  2  0
M  END
$$$$
