KAG.pdb
     RDKit          3D

 19 18  0  0  1  0  0  0  0  0999 V2000
    7.2641  -17.7063   20.2931 N   0  0  0  0  0  0  0  0  0  0  0  0
    8.3740  -16.9194   19.8555 C   0  0  1  0  0  0  0  0  0  0  0  0
    8.1895  -16.3929   18.4411 C   0  0  0  0  0  0  0  0  0  0  0  0
    7.8276  -17.4940   17.4807 C   0  0  0  0  0  0  0  0  0  0  0  0
    8.9971  -17.7997   16.6018 C   0  0  0  0  0  0  0  0  0  0  0  0
    8.6553  -18.6736   15.4282 C   0  0  0  0  0  0  0  0  0  0  0  0
    9.7974  -18.7307   14.5368 N   0  0  0  0  0  0  0  0  0  0  0  0
    8.7391  -15.8481   20.8027 C   0  0  0  0  0  0  0  0  0  0  0  0
    9.7637  -15.1677   20.5756 O   0  0  0  0  0  0  0  0  0  0  0  0
    7.2537  -14.0506   23.7856 C   0  0  0  0  0  0  0  0  0  0  0  0
    8.3989  -14.6081   22.9720 C   0  0  2  0  0  0  0  0  0  0  0  0
    7.9865  -15.5380   21.9738 N   0  0  0  0  0  0  0  0  0  0  0  0
    9.4238  -15.1386   23.8948 C   0  0  0  0  0  0  0  0  0  0  0  0
    9.8643  -14.3976   24.8102 O   0  0  0  0  0  0  0  0  0  0  0  0
    9.9642  -16.4514   23.8281 N   0  0  0  0  0  0  0  0  0  0  0  0
   10.8843  -16.9549   24.8409 C   0  0  0  0  0  0  0  0  0  0  0  0
   12.2433  -17.0068   24.2963 C   0  0  0  0  0  0  0  0  0  0  0  0
   13.2934  -17.5779   24.9821 O   0  0  0  0  0  0  0  0  0  0  0  0
   12.4725  -16.5129   23.1570 O   0  0  0  0  0  0  0  0  0  0  0  0
  2  1  1  1
  2  3  1  0
  4  3  1  0
  4  5  1  0
  6  5  1  0
  7  6  1  0
  8  2  1  0
  8 12  1  0
  9  8  2  0
 11 10  1  1
 11 12  1  0
 11 13  1  0
 13 15  1  0
 14 13  2  0
 15 16  1  0
 17 18  1  0
 17 16  1  0
 19 17  2  0
M  END
$$$$
