KAG.pdb
     RDKit          3D

 19 18  0  0  1  0  0  0  0  0999 V2000
    8.6347  -15.8345   19.6383 N   0  0  0  0  0  0  0  0  0  0  0  0
    8.1890  -14.7952   20.5122 C   0  0  1  0  0  0  0  0  0  0  0  0
    7.4416  -13.6969   19.7728 C   0  0  0  0  0  0  0  0  0  0  0  0
    8.2489  -13.1496   18.6263 C   0  0  0  0  0  0  0  0  0  0  0  0
    7.7122  -13.6781   17.3355 C   0  0  0  0  0  0  0  0  0  0  0  0
    8.3716  -13.0852   16.1224 C   0  0  0  0  0  0  0  0  0  0  0  0
    8.0222  -13.8812   14.9619 N   0  0  0  0  0  0  0  0  0  0  0  0
    7.4304  -15.2961   21.6750 C   0  0  0  0  0  0  0  0  0  0  0  0
    7.1034  -14.4892   22.5729 O   0  0  0  0  0  0  0  0  0  0  0  0
    5.3399  -18.1922   22.7215 C   0  0  0  0  0  0  0  0  0  0  0  0
    6.4285  -17.1850   23.0121 C   0  0  2  0  0  0  0  0  0  0  0  0
    7.0434  -16.6589   21.8389 N   0  0  0  0  0  0  0  0  0  0  0  0
    7.3830  -17.7794   23.9707 C   0  0  0  0  0  0  0  0  0  0  0  0
    6.9581  -18.1921   25.0799 O   0  0  0  0  0  0  0  0  0  0  0  0
    8.7765  -17.9252   23.7329 N   0  0  0  0  0  0  0  0  0  0  0  0
    9.6709  -18.4922   24.7351 C   0  0  0  0  0  0  0  0  0  0  0  0
   10.8795  -17.6714   24.8442 C   0  0  0  0  0  0  0  0  0  0  0  0
   12.0724  -18.1713   25.3200 O   0  0  0  0  0  0  0  0  0  0  0  0
   10.8382  -16.4594   24.4921 O   0  0  0  0  0  0  0  0  0  0  0  0
  2  1  1  6
  2  3  1  0
  4  3  1  0
  4  5  1  0
  6  5  1  0
  7  6  1  0
  8  2  1  0
  8 12  1  0
  9  8  2  0
 11 10  1  6
 11 12  1  0
 11 13  1  0
 13 15  1  0
 14 13  2  0
 15 16  1  0
 17 18  1  0
 17 16  1  0
 19 17  2  0
M  END
$$$$
