KAG.pdb
     RDKit          3D

 19 18  0  0  1  0  0  0  0  0999 V2000
    8.9165  -18.4920   20.5331 N   0  0  0  0  0  0  0  0  0  0  0  0
    9.8715  -17.5810   21.0815 C   0  0  1  0  0  0  0  0  0  0  0  0
    9.2651  -16.2210   21.3888 C   0  0  0  0  0  0  0  0  0  0  0  0
    8.8680  -15.4926   20.1329 C   0  0  0  0  0  0  0  0  0  0  0  0
    8.3667  -14.1281   20.4796 C   0  0  0  0  0  0  0  0  0  0  0  0
    7.9263  -13.3280   19.2863 C   0  0  0  0  0  0  0  0  0  0  0  0
    7.3841  -12.0632   19.7432 N   0  0  0  0  0  0  0  0  0  0  0  0
   10.6086  -18.1328   22.2350 C   0  0  0  0  0  0  0  0  0  0  0  0
   10.0378  -18.9687   22.9697 O   0  0  0  0  0  0  0  0  0  0  0  0
   14.1163  -17.8723   23.7124 C   0  0  0  0  0  0  0  0  0  0  0  0
   12.6521  -18.2464   23.7084 C   0  0  2  0  0  0  0  0  0  0  0  0
   11.9466  -17.7670   22.5665 N   0  0  0  0  0  0  0  0  0  0  0  0
   12.0529  -17.8366   24.9954 C   0  0  0  0  0  0  0  0  0  0  0  0
   11.5319  -16.6961   25.0913 O   0  0  0  0  0  0  0  0  0  0  0  0
   12.0179  -18.6484   26.1614 N   0  0  0  0  0  0  0  0  0  0  0  0
   11.3243  -18.2239   27.3716 C   0  0  0  0  0  0  0  0  0  0  0  0
   11.6105  -19.1588   28.4626 C   0  0  0  0  0  0  0  0  0  0  0  0
   11.1557  -18.9570   29.7477 O   0  0  0  0  0  0  0  0  0  0  0  0
   12.2985  -20.1914   28.2280 O   0  0  0  0  0  0  0  0  0  0  0  0
  2  1  1  1
  2  3  1  0
  4  3  1  0
  4  5  1  0
  6  5  1  0
  7  6  1  0
  8  2  1  0
  8 12  1  0
  9  8  2  0
 11 10  1  6
 11 12  1  0
 11 13  1  0
 13 15  1  0
 14 13  2  0
 15 16  1  0
 17 18  1  0
 17 16  1  0
 19 17  2  0
M  END
$$$$
