KAG.pdb
     RDKit          3D

 19 18  0  0  1  0  0  0  0  0999 V2000
    6.4242  -19.0104   19.9901 N   0  0  0  0  0  0  0  0  0  0  0  0
    6.2684  -18.2270   21.1754 C   0  0  1  0  0  0  0  0  0  0  0  0
    6.0555  -19.0842   22.4129 C   0  0  0  0  0  0  0  0  0  0  0  0
    5.0383  -20.1670   22.1711 C   0  0  0  0  0  0  0  0  0  0  0  0
    4.9696  -21.0679   23.3616 C   0  0  0  0  0  0  0  0  0  0  0  0
    4.0149  -22.2159   23.1927 C   0  0  0  0  0  0  0  0  0  0  0  0
    4.0342  -23.0236   24.3967 N   0  0  0  0  0  0  0  0  0  0  0  0
    7.3457  -17.2363   21.3657 C   0  0  0  0  0  0  0  0  0  0  0  0
    8.5267  -17.5811   21.1406 O   0  0  0  0  0  0  0  0  0  0  0  0
    7.6415  -13.5765   22.4139 C   0  0  0  0  0  0  0  0  0  0  0  0
    8.1539  -14.9632   22.1000 C   0  0  2  0  0  0  0  0  0  0  0  0
    7.1197  -15.8953   21.7953 N   0  0  0  0  0  0  0  0  0  0  0  0
    9.0468  -15.3992   23.1936 C   0  0  0  0  0  0  0  0  0  0  0  0
    8.5584  -15.6148   24.3322 O   0  0  0  0  0  0  0  0  0  0  0  0
   10.4473  -15.5989   23.0576 N   0  0  0  0  0  0  0  0  0  0  0  0
   11.2740  -16.0271   24.1797 C   0  0  0  0  0  0  0  0  0  0  0  0
   12.6656  -16.1719   23.7453 C   0  0  0  0  0  0  0  0  0  0  0  0
   13.6866  -16.4699   24.6215 O   0  0  0  0  0  0  0  0  0  0  0  0
   12.9517  -16.0202   22.5247 O   0  0  0  0  0  0  0  0  0  0  0  0
  2  1  1  6
  2  3  1  0
  4  3  1  0
  4  5  1  0
  6  5  1  0
  7  6  1  0
  8  2  1  0
  8 12  1  0
  9  8  2  0
 11 10  1  1
 11 12  1  0
 11 13  1  0
 13 15  1  0
 14 13  2  0
 15 16  1  0
 17 18  1  0
 17 16  1  0
 19 17  2  0
M  END
$$$$
