KAG.pdb
     RDKit          3D

 19 18  0  0  1  0  0  0  0  0999 V2000
    8.2184  -13.2475   15.8802 N   0  0  0  0  0  0  0  0  0  0  0  0
    8.0114  -14.3775   16.7305 C   0  0  1  0  0  0  0  0  0  0  0  0
    8.5621  -15.6620   16.1318 C   0  0  0  0  0  0  0  0  0  0  0  0
    8.0346  -15.8985   14.7421 C   0  0  0  0  0  0  0  0  0  0  0  0
    8.5639  -17.1936   14.2166 C   0  0  0  0  0  0  0  0  0  0  0  0
    8.1320  -17.4929   12.8088 C   0  0  0  0  0  0  0  0  0  0  0  0
    8.6765  -18.7773   12.4136 N   0  0  0  0  0  0  0  0  0  0  0  0
    8.4842  -14.1624   18.1120 C   0  0  0  0  0  0  0  0  0  0  0  0
    9.6346  -13.7050   18.2899 O   0  0  0  0  0  0  0  0  0  0  0  0
    7.0218  -14.1627   21.6121 C   0  0  0  0  0  0  0  0  0  0  0  0
    8.1482  -14.2613   20.6094 C   0  0  2  0  0  0  0  0  0  0  0  0
    7.7007  -14.4475   19.2691 N   0  0  0  0  0  0  0  0  0  0  0  0
    9.1043  -15.2905   21.0676 C   0  0  0  0  0  0  0  0  0  0  0  0
    8.8950  -16.4944   20.7709 O   0  0  0  0  0  0  0  0  0  0  0  0
   10.2696  -15.0213   21.8355 N   0  0  0  0  0  0  0  0  0  0  0  0
   11.1625  -16.0870   22.2744 C   0  0  0  0  0  0  0  0  0  0  0  0
   12.5564  -15.6659   22.1129 C   0  0  0  0  0  0  0  0  0  0  0  0
   13.6060  -16.3450   22.6928 O   0  0  0  0  0  0  0  0  0  0  0  0
   12.8174  -14.6439   21.4187 O   0  0  0  0  0  0  0  0  0  0  0  0
  2  1  1  6
  2  3  1  0
  4  3  1  0
  4  5  1  0
  6  5  1  0
  7  6  1  0
  8  2  1  0
  8 12  1  0
  9  8  2  0
 11 10  1  1
 11 12  1  0
 11 13  1  0
 13 15  1  0
 14 13  2  0
 15 16  1  0
 17 18  1  0
 17 16  1  0
 19 17  2  0
M  END
$$$$
