YDI.pdb
     RDKit          3D

 29 29  0  0  1  0  0  0  0  0999 V2000
   31.2214  -21.9936  -18.7480 O   0  0  0  0  0  0  0  0  0  0  0  0
   30.4363  -21.4410  -17.7274 C   0  0  0  0  0  0  0  0  0  0  0  0
   29.9652  -22.2126  -16.6854 C   0  0  0  0  0  0  0  0  0  0  0  0
   29.1925  -21.6558  -15.6860 C   0  0  0  0  0  0  0  0  0  0  0  0
   28.8541  -20.3195  -15.6736 C   0  0  0  0  0  0  0  0  0  0  0  0
   28.0224  -19.7069  -14.5987 C   0  0  0  0  0  0  0  0  0  0  0  0
   26.5877  -20.1877  -14.6761 C   0  0  2  0  0  0  0  0  0  0  0  0
   25.9659  -19.6875  -15.8806 N   0  0  0  0  0  0  0  0  0  0  0  0
   25.8085  -19.8175  -13.4578 C   0  0  0  0  0  0  0  0  0  0  0  0
   25.5852  -18.5974  -13.3012 O   0  0  0  0  0  0  0  0  0  0  0  0
   29.3289  -19.5453  -16.7219 C   0  0  0  0  0  0  0  0  0  0  0  0
   30.1046  -20.1018  -17.7265 C   0  0  0  0  0  0  0  0  0  0  0  0
   25.3409  -20.7423  -12.5291 N   0  0  0  0  0  0  0  0  0  0  0  0
   24.5975  -20.4493  -11.3012 C   0  0  1  0  0  0  0  0  0  0  0  0
   23.1589  -20.7516  -11.5278 C   0  0  0  0  0  0  0  0  0  0  0  0
   22.2892  -20.4157  -10.3918 C   0  0  0  0  0  0  0  0  0  0  0  0
   22.5808  -19.5159   -9.5888 O   0  0  0  0  0  0  0  0  0  0  0  0
   25.2197  -21.0195  -10.1491 C   0  0  0  0  0  0  0  0  0  0  0  0
   25.5515  -22.2574  -10.1825 O   0  0  0  0  0  0  0  0  0  0  0  0
   21.0834  -21.1138  -10.1752 O   0  0  0  0  0  0  0  0  0  0  0  0
   28.6396  -18.5065   -6.7698 C   0  0  0  0  0  0  0  0  0  0  0  0
   27.9663  -19.5870   -7.5880 C   0  0  0  0  0  0  0  0  0  0  0  0
   26.7244  -20.1072   -6.8949 C   0  0  2  0  0  0  0  0  0  0  0  0
   27.0408  -20.6351   -5.5278 C   0  0  0  0  0  0  0  0  0  0  0  0
   25.9390  -21.0631   -7.7495 C   0  0  2  0  0  0  0  0  0  0  0  0
   25.5199  -20.3464   -8.9558 N   0  0  0  0  0  0  0  0  0  0  0  0
   24.7501  -21.4630   -6.9879 C   0  0  0  0  0  0  0  0  0  0  0  0
   24.7955  -22.4204   -6.1750 O   0  0  0  0  0  0  0  0  0  0  0  0
   23.5560  -20.8071   -7.1386 O   0  0  0  0  0  0  0  0  0  0  0  0
  2  1  1  0
  3  2  2  0
  4  3  1  0
  5  4  2  0
  5 11  1  0
  6  5  1  0
  7  8  1  6
  7  6  1  0
  9  7  1  0
 10  9  2  0
 11 12  2  0
 12  2  1  0
 13  9  1  0
 14 18  1  0
 14 13  1  0
 14 15  1  6
 16 15  1  0
 17 16  2  0
 18 19  2  0
 20 16  1  0
 22 21  1  0
 23 24  1  1
 23 22  1  0
 25 23  1  0
 25 26  1  6
 26 18  1  0
 27 29  1  0
 27 25  1  0
 28 27  2  0
M  END
$$$$
