YDI.pdb
     RDKit          3D

 29 29  0  0  1  0  0  0  0  0999 V2000
   30.0537  -14.9330  -17.7316 O   0  0  0  0  0  0  0  0  0  0  0  0
   29.1156  -15.8291  -17.2021 C   0  0  0  0  0  0  0  0  0  0  0  0
   28.9089  -17.0703  -17.7674 C   0  0  0  0  0  0  0  0  0  0  0  0
   27.9814  -17.9440  -17.2360 C   0  0  0  0  0  0  0  0  0  0  0  0
   27.2225  -17.6300  -16.1287 C   0  0  0  0  0  0  0  0  0  0  0  0
   26.2199  -18.5660  -15.5449 C   0  0  0  0  0  0  0  0  0  0  0  0
   26.8819  -19.5756  -14.6296 C   0  0  2  0  0  0  0  0  0  0  0  0
   27.7788  -20.4149  -15.3905 N   0  0  0  0  0  0  0  0  0  0  0  0
   25.8806  -20.3826  -13.8715 C   0  0  0  0  0  0  0  0  0  0  0  0
   25.4214  -21.3824  -14.4651 O   0  0  0  0  0  0  0  0  0  0  0  0
   27.4321  -16.3817  -15.5616 C   0  0  0  0  0  0  0  0  0  0  0  0
   28.3624  -15.5028  -16.0932 C   0  0  0  0  0  0  0  0  0  0  0  0
   25.4576  -20.0754  -12.5819 N   0  0  0  0  0  0  0  0  0  0  0  0
   24.4463  -20.7905  -11.7995 C   0  0  1  0  0  0  0  0  0  0  0  0
   24.8084  -20.7093  -10.3592 C   0  0  0  0  0  0  0  0  0  0  0  0
   26.2075  -21.0551  -10.0719 C   0  0  0  0  0  0  0  0  0  0  0  0
   26.7950  -21.9624  -10.6811 O   0  0  0  0  0  0  0  0  0  0  0  0
   23.1187  -20.4163  -12.1701 C   0  0  0  0  0  0  0  0  0  0  0  0
   22.9136  -19.2214  -12.5867 O   0  0  0  0  0  0  0  0  0  0  0  0
   26.9341  -20.3602   -9.0831 O   0  0  0  0  0  0  0  0  0  0  0  0
   19.5983  -20.6097  -16.3527 C   0  0  0  0  0  0  0  0  0  0  0  0
   19.4479  -20.6087  -14.8469 C   0  0  0  0  0  0  0  0  0  0  0  0
   20.7367  -21.0190  -14.1659 C   0  0  2  0  0  0  0  0  0  0  0  0
   21.1597  -22.3968  -14.5791 C   0  0  0  0  0  0  0  0  0  0  0  0
   20.6978  -20.8155  -12.6766 C   0  0  2  0  0  0  0  0  0  0  0  0
   21.9874  -21.2443  -12.1311 N   0  0  0  0  0  0  0  0  0  0  0  0
   19.6367  -21.6756  -12.1402 C   0  0  0  0  0  0  0  0  0  0  0  0
   19.8624  -22.8788  -11.8556 O   0  0  0  0  0  0  0  0  0  0  0  0
   18.3696  -21.1956  -11.9334 O   0  0  0  0  0  0  0  0  0  0  0  0
  2  1  1  0
  3  2  2  0
  4  3  1  0
  5  4  2  0
  5 11  1  0
  6  5  1  0
  7  8  1  6
  7  6  1  0
  9  7  1  0
 10  9  2  0
 11 12  2  0
 12  2  1  0
 13  9  1  0
 14 18  1  0
 14 13  1  0
 14 15  1  1
 16 15  1  0
 17 16  2  0
 18 19  2  0
 20 16  1  0
 22 21  1  0
 23 24  1  1
 23 22  1  0
 25 23  1  0
 25 26  1  1
 26 18  1  0
 27 29  1  0
 27 25  1  0
 28 27  2  0
M  END
$$$$
