YDI.pdb
     RDKit          3D

 29 29  0  0  1  0  0  0  0  0999 V2000
   13.6076  -18.3675  -15.4676 O   0  0  0  0  0  0  0  0  0  0  0  0
   14.4808  -17.2734  -15.5296 C   0  0  0  0  0  0  0  0  0  0  0  0
   14.0288  -16.0107  -15.8526 C   0  0  0  0  0  0  0  0  0  0  0  0
   14.8996  -14.9411  -15.9103 C   0  0  0  0  0  0  0  0  0  0  0  0
   16.2476  -15.0728  -15.6526 C   0  0  0  0  0  0  0  0  0  0  0  0
   17.1968  -13.9247  -15.7098 C   0  0  0  0  0  0  0  0  0  0  0  0
   17.5629  -13.5883  -17.1409 C   0  0  2  0  0  0  0  0  0  0  0  0
   18.3785  -14.6417  -17.7003 N   0  0  0  0  0  0  0  0  0  0  0  0
   18.2304  -12.2574  -17.2482 C   0  0  0  0  0  0  0  0  0  0  0  0
   19.4788  -12.2751  -17.3118 O   0  0  0  0  0  0  0  0  0  0  0  0
   16.7000  -16.3430  -15.3278 C   0  0  0  0  0  0  0  0  0  0  0  0
   15.8279  -17.4185  -15.2693 C   0  0  0  0  0  0  0  0  0  0  0  0
   17.5423  -11.0482  -17.2789 N   0  0  0  0  0  0  0  0  0  0  0  0
   18.1311   -9.7082  -17.3414 C   0  0  1  0  0  0  0  0  0  0  0  0
   17.0808   -8.7419  -17.7601 C   0  0  0  0  0  0  0  0  0  0  0  0
   17.5627   -7.3623  -17.9160 C   0  0  0  0  0  0  0  0  0  0  0  0
   16.8750   -6.3872  -17.5758 O   0  0  0  0  0  0  0  0  0  0  0  0
   18.8850   -9.3989  -16.1686 C   0  0  0  0  0  0  0  0  0  0  0  0
   18.3904   -9.7025  -15.0255 O   0  0  0  0  0  0  0  0  0  0  0  0
   18.8351   -7.1001  -18.4644 O   0  0  0  0  0  0  0  0  0  0  0  0
   23.4253  -11.3071  -15.2395 C   0  0  0  0  0  0  0  0  0  0  0  0
   22.0587  -10.6680  -15.1204 C   0  0  0  0  0  0  0  0  0  0  0  0
   22.1684   -9.1733  -14.9039 C   0  0  2  0  0  0  0  0  0  0  0  0
   23.0377   -8.8532  -13.7251 C   0  0  0  0  0  0  0  0  0  0  0  0
   20.8292   -8.4902  -14.8756 C   0  0  2  0  0  0  0  0  0  0  0  0
   20.1469   -8.7875  -16.1368 N   0  0  0  0  0  0  0  0  0  0  0  0
   21.0713   -7.0456  -14.7865 C   0  0  0  0  0  0  0  0  0  0  0  0
   20.9761   -6.3108  -15.8016 O   0  0  0  0  0  0  0  0  0  0  0  0
   21.4080   -6.4537  -13.5970 O   0  0  0  0  0  0  0  0  0  0  0  0
  2  1  1  0
  3  2  2  0
  4  3  1  0
  5  4  2  0
  5 11  1  0
  6  5  1  0
  7  8  1  1
  7  6  1  0
  9  7  1  0
 10  9  2  0
 11 12  2  0
 12  2  1  0
 13  9  1  0
 14 18  1  0
 14 13  1  0
 14 15  1  1
 16 15  1  0
 17 16  2  0
 18 19  2  0
 20 16  1  0
 22 21  1  0
 23 24  1  1
 23 22  1  0
 25 23  1  0
 25 26  1  6
 26 18  1  0
 27 29  1  0
 27 25  1  0
 28 27  2  0
M  END
$$$$
