YDI.pdb
     RDKit          3D

 29 29  0  0  1  0  0  0  0  0999 V2000
   20.7470  -19.5385  -14.3651 O   0  0  0  0  0  0  0  0  0  0  0  0
   20.7747  -18.1639  -14.6360 C   0  0  0  0  0  0  0  0  0  0  0  0
   19.6781  -17.3621  -14.3966 C   0  0  0  0  0  0  0  0  0  0  0  0
   19.7184  -16.0091  -14.6679 C   0  0  0  0  0  0  0  0  0  0  0  0
   20.8386  -15.3937  -15.1848 C   0  0  0  0  0  0  0  0  0  0  0  0
   20.8944  -13.9335  -15.4796 C   0  0  0  0  0  0  0  0  0  0  0  0
   20.0867  -13.5937  -16.7155 C   0  0  2  0  0  0  0  0  0  0  0  0
   20.7195  -14.1560  -17.8864 N   0  0  0  0  0  0  0  0  0  0  0  0
   19.8735  -12.1228  -16.8560 C   0  0  0  0  0  0  0  0  0  0  0  0
   20.7458  -11.5029  -17.5022 O   0  0  0  0  0  0  0  0  0  0  0  0
   21.9402  -16.2016  -15.4245 C   0  0  0  0  0  0  0  0  0  0  0  0
   21.9023  -17.5601  -15.1532 C   0  0  0  0  0  0  0  0  0  0  0  0
   18.7844  -11.4450  -16.3165 N   0  0  0  0  0  0  0  0  0  0  0  0
   18.4747  -10.0219  -16.4740 C   0  0  1  0  0  0  0  0  0  0  0  0
   17.0285   -9.8122  -16.1965 C   0  0  0  0  0  0  0  0  0  0  0  0
   16.5877   -8.4169  -16.3328 C   0  0  0  0  0  0  0  0  0  0  0  0
   15.7737   -7.9087  -15.5463 O   0  0  0  0  0  0  0  0  0  0  0  0
   19.4082   -9.1906  -15.7831 C   0  0  0  0  0  0  0  0  0  0  0  0
   19.7744   -9.5317  -14.6028 O   0  0  0  0  0  0  0  0  0  0  0  0
   17.0799   -7.6032  -17.3738 O   0  0  0  0  0  0  0  0  0  0  0  0
   24.5479   -6.2686  -16.6376 C   0  0  0  0  0  0  0  0  0  0  0  0
   23.3275   -6.3440  -15.7460 C   0  0  0  0  0  0  0  0  0  0  0  0
   22.2075   -7.1153  -16.4122 C   0  0  2  0  0  0  0  0  0  0  0  0
   21.8903   -6.5589  -17.7677 C   0  0  0  0  0  0  0  0  0  0  0  0
   21.0048   -7.2772  -15.5243 C   0  0  2  0  0  0  0  0  0  0  0  0
   19.9865   -8.0124  -16.2774 N   0  0  0  0  0  0  0  0  0  0  0  0
   20.5002   -5.9347  -15.2138 C   0  0  0  0  0  0  0  0  0  0  0  0
   19.5057   -5.4622  -15.8198 O   0  0  0  0  0  0  0  0  0  0  0  0
   21.0958   -5.1557  -14.2561 O   0  0  0  0  0  0  0  0  0  0  0  0
  2  1  1  0
  3  2  2  0
  4  3  1  0
  5  4  2  0
  5 11  1  0
  6  5  1  0
  7  8  1  6
  7  6  1  0
  9  7  1  0
 10  9  2  0
 11 12  2  0
 12  2  1  0
 13  9  1  0
 14 18  1  0
 14 13  1  0
 14 15  1  1
 16 15  1  0
 17 16  2  0
 18 19  2  0
 20 16  1  0
 22 21  1  0
 23 24  1  6
 23 22  1  0
 25 23  1  0
 25 26  1  6
 26 18  1  0
 27 29  1  0
 27 25  1  0
 28 27  2  0
M  END
$$$$
