YDI.pdb
     RDKit          3D

 29 29  0  0  1  0  0  0  0  0999 V2000
   15.5557  -17.6107  -10.6678 O   0  0  0  0  0  0  0  0  0  0  0  0
   16.8073  -18.0850  -11.0827 C   0  0  0  0  0  0  0  0  0  0  0  0
   17.4462  -17.5573  -12.1855 C   0  0  0  0  0  0  0  0  0  0  0  0
   18.6791  -18.0336  -12.5838 C   0  0  0  0  0  0  0  0  0  0  0  0
   19.3303  -19.0466  -11.9127 C   0  0  0  0  0  0  0  0  0  0  0  0
   20.6625  -19.5675  -12.3322 C   0  0  0  0  0  0  0  0  0  0  0  0
   20.5371  -20.4936  -13.5246 C   0  0  2  0  0  0  0  0  0  0  0  0
   19.8153  -21.6868  -13.1465 N   0  0  0  0  0  0  0  0  0  0  0  0
   21.8664  -20.8184  -14.1214 C   0  0  0  0  0  0  0  0  0  0  0  0
   22.6872  -21.3737  -13.3592 O   0  0  0  0  0  0  0  0  0  0  0  0
   18.6864  -19.5757  -10.8040 C   0  0  0  0  0  0  0  0  0  0  0  0
   17.4485  -19.0994  -10.4021 C   0  0  0  0  0  0  0  0  0  0  0  0
   22.2106  -20.5376  -15.4401 N   0  0  0  0  0  0  0  0  0  0  0  0
   23.4790  -20.8570  -16.0999 C   0  0  1  0  0  0  0  0  0  0  0  0
   23.2614  -20.8819  -17.5711 C   0  0  0  0  0  0  0  0  0  0  0  0
   24.0155  -21.9310  -18.2714 C   0  0  0  0  0  0  0  0  0  0  0  0
   24.8292  -22.6569  -17.6795 O   0  0  0  0  0  0  0  0  0  0  0  0
   24.5563  -20.0614  -15.6039 C   0  0  0  0  0  0  0  0  0  0  0  0
   24.3581  -18.8078  -15.4223 O   0  0  0  0  0  0  0  0  0  0  0  0
   23.8374  -22.1473  -19.6533 O   0  0  0  0  0  0  0  0  0  0  0  0
   29.6599  -20.2127  -12.2334 C   0  0  0  0  0  0  0  0  0  0  0  0
   28.8615  -19.4693  -13.2822 C   0  0  0  0  0  0  0  0  0  0  0  0
   27.7597  -20.3381  -13.8517 C   0  0  2  0  0  0  0  0  0  0  0  0
   28.2966  -21.6453  -14.3522 C   0  0  0  0  0  0  0  0  0  0  0  0
   26.9027  -19.6101  -14.8501 C   0  0  2  0  0  0  0  0  0  0  0  0
   25.8406  -20.5224  -15.2796 N   0  0  0  0  0  0  0  0  0  0  0  0
   27.7495  -19.2788  -16.0018 C   0  0  0  0  0  0  0  0  0  0  0  0
   27.7645  -20.0096  -17.0241 O   0  0  0  0  0  0  0  0  0  0  0  0
   28.5488  -18.1653  -15.9990 O   0  0  0  0  0  0  0  0  0  0  0  0
  2  1  1  0
  3  2  2  0
  4  3  1  0
  5  4  2  0
  5 11  1  0
  6  5  1  0
  7  8  1  1
  7  6  1  0
  9  7  1  0
 10  9  2  0
 11 12  2  0
 12  2  1  0
 13  9  1  0
 14 18  1  0
 14 13  1  0
 14 15  1  6
 16 15  1  0
 17 16  2  0
 18 19  2  0
 20 16  1  0
 22 21  1  0
 23 24  1  6
 23 22  1  0
 25 23  1  0
 25 26  1  6
 26 18  1  0
 27 29  1  0
 27 25  1  0
 28 27  2  0
M  END
$$$$
