YDI.pdb
     RDKit          3D

 29 29  0  0  1  0  0  0  0  0999 V2000
   23.3185  -21.3503   -6.7306 O   0  0  0  0  0  0  0  0  0  0  0  0
   23.7591  -21.0725   -8.0314 C   0  0  0  0  0  0  0  0  0  0  0  0
   22.8844  -21.0551   -9.0980 C   0  0  0  0  0  0  0  0  0  0  0  0
   23.3314  -20.7800  -10.3748 C   0  0  0  0  0  0  0  0  0  0  0  0
   24.6551  -20.5115  -10.6509 C   0  0  0  0  0  0  0  0  0  0  0  0
   25.1488  -20.2109  -12.0250 C   0  0  0  0  0  0  0  0  0  0  0  0
   24.9096  -21.3789  -12.9599 C   0  0  2  0  0  0  0  0  0  0  0  0
   25.7924  -22.4706  -12.6185 N   0  0  0  0  0  0  0  0  0  0  0  0
   25.0482  -20.9843  -14.3929 C   0  0  0  0  0  0  0  0  0  0  0  0
   26.2021  -21.0506  -14.8693 O   0  0  0  0  0  0  0  0  0  0  0  0
   25.5329  -20.5291   -9.5771 C   0  0  0  0  0  0  0  0  0  0  0  0
   25.0868  -20.8052   -8.2944 C   0  0  0  0  0  0  0  0  0  0  0  0
   23.9842  -20.5632  -15.1847 N   0  0  0  0  0  0  0  0  0  0  0  0
   24.0169  -20.2995  -16.6254 C   0  0  1  0  0  0  0  0  0  0  0  0
   22.7545  -20.7988  -17.2331 C   0  0  0  0  0  0  0  0  0  0  0  0
   22.6900  -20.6454  -18.6933 C   0  0  0  0  0  0  0  0  0  0  0  0
   21.6382  -20.3315  -19.2718 O   0  0  0  0  0  0  0  0  0  0  0  0
   24.4047  -18.9560  -16.9156 C   0  0  0  0  0  0  0  0  0  0  0  0
   23.8913  -18.0076  -16.2222 O   0  0  0  0  0  0  0  0  0  0  0  0
   23.8333  -20.8538  -19.4919 O   0  0  0  0  0  0  0  0  0  0  0  0
   29.1848  -17.4948  -16.5168 C   0  0  0  0  0  0  0  0  0  0  0  0
   27.6749  -17.5502  -16.6013 C   0  0  0  0  0  0  0  0  0  0  0  0
   27.1808  -17.0446  -17.9405 C   0  0  2  0  0  0  0  0  0  0  0  0
   27.7244  -15.6810  -18.2453 C   0  0  0  0  0  0  0  0  0  0  0  0
   25.6882  -17.1514  -18.0875 C   0  0  2  0  0  0  0  0  0  0  0  0
   25.3182  -18.5561  -17.9019 N   0  0  0  0  0  0  0  0  0  0  0  0
   25.3476  -16.7390  -19.4540 C   0  0  0  0  0  0  0  0  0  0  0  0
   25.3014  -17.5773  -20.3892 O   0  0  0  0  0  0  0  0  0  0  0  0
   25.0702  -15.4304  -19.7529 O   0  0  0  0  0  0  0  0  0  0  0  0
  2  1  1  0
  3  2  2  0
  4  3  1  0
  5  4  2  0
  5 11  1  0
  6  5  1  0
  7  8  1  1
  7  6  1  0
  9  7  1  0
 10  9  2  0
 11 12  2  0
 12  2  1  0
 13  9  1  0
 14 18  1  0
 14 13  1  0
 14 15  1  1
 16 15  1  0
 17 16  2  0
 18 19  2  0
 20 16  1  0
 22 21  1  0
 23 24  1  1
 23 22  1  0
 25 23  1  0
 25 26  1  6
 26 18  1  0
 27 29  1  0
 27 25  1  0
 28 27  2  0
M  END
$$$$
