YDI.pdb
     RDKit          3D

 29 29  0  0  1  0  0  0  0  0999 V2000
   17.0318  -22.6991  -16.6240 O   0  0  0  0  0  0  0  0  0  0  0  0
   17.7163  -21.5072  -16.8969 C   0  0  0  0  0  0  0  0  0  0  0  0
   17.8343  -20.5129  -15.9481 C   0  0  0  0  0  0  0  0  0  0  0  0
   18.5113  -19.3432  -16.2298 C   0  0  0  0  0  0  0  0  0  0  0  0
   19.0980  -19.1075  -17.4550 C   0  0  0  0  0  0  0  0  0  0  0  0
   19.8333  -17.8495  -17.7697 C   0  0  0  0  0  0  0  0  0  0  0  0
   21.3259  -18.0950  -17.8546 C   0  0  2  0  0  0  0  0  0  0  0  0
   21.8428  -18.4377  -16.5496 N   0  0  0  0  0  0  0  0  0  0  0  0
   22.0501  -16.9318  -18.4471 C   0  0  0  0  0  0  0  0  0  0  0  0
   22.4678  -16.0768  -17.6363 O   0  0  0  0  0  0  0  0  0  0  0  0
   18.9786  -20.1086  -18.4074 C   0  0  0  0  0  0  0  0  0  0  0  0
   18.2992  -21.2836  -18.1273 C   0  0  0  0  0  0  0  0  0  0  0  0
   22.2682  -16.7713  -19.8121 N   0  0  0  0  0  0  0  0  0  0  0  0
   23.0175  -15.6901  -20.4569 C   0  0  1  0  0  0  0  0  0  0  0  0
   24.1845  -16.2745  -21.1703 C   0  0  0  0  0  0  0  0  0  0  0  0
   25.3357  -16.5614  -20.3030 C   0  0  0  0  0  0  0  0  0  0  0  0
   25.3875  -16.1583  -19.1307 O   0  0  0  0  0  0  0  0  0  0  0  0
   22.1649  -14.8115  -21.1921 C   0  0  0  0  0  0  0  0  0  0  0  0
   21.1502  -15.3085  -21.7979 O   0  0  0  0  0  0  0  0  0  0  0  0
   26.4303  -17.3107  -20.7812 O   0  0  0  0  0  0  0  0  0  0  0  0
   18.8586  -10.0305  -20.6647 C   0  0  0  0  0  0  0  0  0  0  0  0
   19.7020  -10.7383  -21.7029 C   0  0  0  0  0  0  0  0  0  0  0  0
   20.6917  -11.6837  -21.0550 C   0  0  2  0  0  0  0  0  0  0  0  0
   21.6533  -10.9480  -20.1707 C   0  0  0  0  0  0  0  0  0  0  0  0
   21.3551  -12.5996  -22.0460 C   0  0  2  0  0  0  0  0  0  0  0  0
   22.3225  -13.4235  -21.3180 N   0  0  0  0  0  0  0  0  0  0  0  0
   22.0687  -11.7602  -23.0153 C   0  0  0  0  0  0  0  0  0  0  0  0
   21.4485  -11.1538  -23.9248 O   0  0  0  0  0  0  0  0  0  0  0  0
   23.4302  -11.6113  -22.9597 O   0  0  0  0  0  0  0  0  0  0  0  0
  2  1  1  0
  3  2  2  0
  4  3  1  0
  5  4  2  0
  5 11  1  0
  6  5  1  0
  7  8  1  1
  7  6  1  0
  9  7  1  0
 10  9  2  0
 11 12  2  0
 12  2  1  0
 13  9  1  0
 14 18  1  0
 14 13  1  0
 14 15  1  6
 16 15  1  0
 17 16  2  0
 18 19  2  0
 20 16  1  0
 22 21  1  0
 23 24  1  6
 23 22  1  0
 25 23  1  0
 25 26  1  1
 26 18  1  0
 27 29  1  0
 27 25  1  0
 28 27  2  0
M  END
$$$$
