YDI.pdb
     RDKit          3D

 29 29  0  0  1  0  0  0  0  0999 V2000
   22.6976   -2.6605  -14.3260 O   0  0  0  0  0  0  0  0  0  0  0  0
   22.5360   -4.0510  -14.3869 C   0  0  0  0  0  0  0  0  0  0  0  0
   23.0651   -4.7912  -15.4237 C   0  0  0  0  0  0  0  0  0  0  0  0
   22.8986   -6.1608  -15.4720 C   0  0  0  0  0  0  0  0  0  0  0  0
   22.2057   -6.8540  -14.5025 C   0  0  0  0  0  0  0  0  0  0  0  0
   22.0214   -8.3327  -14.5429 C   0  0  0  0  0  0  0  0  0  0  0  0
   20.8304   -8.7125  -15.3988 C   0  0  2  0  0  0  0  0  0  0  0  0
   19.6063   -8.4926  -14.6632 N   0  0  0  0  0  0  0  0  0  0  0  0
   20.9283  -10.1149  -15.9010 C   0  0  0  0  0  0  0  0  0  0  0  0
   20.6743  -11.0128  -15.0690 O   0  0  0  0  0  0  0  0  0  0  0  0
   21.6747   -6.1080  -13.4606 C   0  0  0  0  0  0  0  0  0  0  0  0
   21.8403   -4.7330  -13.4099 C   0  0  0  0  0  0  0  0  0  0  0  0
   21.2771  -10.4453  -17.2070 N   0  0  0  0  0  0  0  0  0  0  0  0
   21.3504  -11.7921  -17.7785 C   0  0  1  0  0  0  0  0  0  0  0  0
   20.5929  -11.8119  -19.0585 C   0  0  0  0  0  0  0  0  0  0  0  0
   20.4652  -13.1470  -19.6593 C   0  0  0  0  0  0  0  0  0  0  0  0
   20.9790  -14.1497  -19.1396 O   0  0  0  0  0  0  0  0  0  0  0  0
   22.6866  -12.2963  -17.7927 C   0  0  0  0  0  0  0  0  0  0  0  0
   23.6395  -11.4953  -18.0994 O   0  0  0  0  0  0  0  0  0  0  0  0
   19.7484  -13.3325  -20.8593 O   0  0  0  0  0  0  0  0  0  0  0  0
   26.5720  -15.7214  -14.7924 C   0  0  0  0  0  0  0  0  0  0  0  0
   26.2248  -15.2153  -16.1757 C   0  0  0  0  0  0  0  0  0  0  0  0
   24.8048  -14.6919  -16.2287 C   0  0  2  0  0  0  0  0  0  0  0  0
   23.8181  -15.7431  -15.8175 C   0  0  0  0  0  0  0  0  0  0  0  0
   24.4778  -14.0294  -17.5383 C   0  0  2  0  0  0  0  0  0  0  0  0
   23.0756  -13.6096  -17.4913 N   0  0  0  0  0  0  0  0  0  0  0  0
   24.6461  -15.0329  -18.5958 C   0  0  0  0  0  0  0  0  0  0  0  0
   25.7873  -15.3242  -19.0342 O   0  0  0  0  0  0  0  0  0  0  0  0
   23.5673  -15.6821  -19.1373 O   0  0  0  0  0  0  0  0  0  0  0  0
  2  1  1  0
  3  2  2  0
  4  3  1  0
  5  4  2  0
  5 11  1  0
  6  5  1  0
  7  8  1  1
  7  6  1  0
  9  7  1  0
 10  9  2  0
 11 12  2  0
 12  2  1  0
 13  9  1  0
 14 18  1  0
 14 13  1  0
 14 15  1  6
 16 15  1  0
 17 16  2  0
 18 19  2  0
 20 16  1  0
 22 21  1  0
 23 24  1  6
 23 22  1  0
 25 23  1  0
 25 26  1  1
 26 18  1  0
 27 29  1  0
 27 25  1  0
 28 27  2  0
M  END
$$$$
