YDI.pdb
     RDKit          3D

 29 29  0  0  1  0  0  0  0  0999 V2000
    9.6748  -10.8681  -10.2694 O   0  0  0  0  0  0  0  0  0  0  0  0
   10.9704  -10.4869  -10.6432 C   0  0  0  0  0  0  0  0  0  0  0  0
   11.3467  -10.4244  -11.9689 C   0  0  0  0  0  0  0  0  0  0  0  0
   12.6264  -10.0474  -12.3238 C   0  0  0  0  0  0  0  0  0  0  0  0
   13.5841   -9.7175  -11.3886 C   0  0  0  0  0  0  0  0  0  0  0  0
   14.9681   -9.3068  -11.7601 C   0  0  0  0  0  0  0  0  0  0  0  0
   15.7471  -10.4701  -12.3392 C   0  0  2  0  0  0  0  0  0  0  0  0
   16.1409  -11.3729  -11.2821 N   0  0  0  0  0  0  0  0  0  0  0  0
   16.9208  -10.0125  -13.1401 C   0  0  0  0  0  0  0  0  0  0  0  0
   17.9360   -9.6881  -12.4865 O   0  0  0  0  0  0  0  0  0  0  0  0
   13.2037   -9.7806  -10.0563 C   0  0  0  0  0  0  0  0  0  0  0  0
   11.9197  -10.1590   -9.6973 C   0  0  0  0  0  0  0  0  0  0  0  0
   16.9260   -9.9371  -14.5296 N   0  0  0  0  0  0  0  0  0  0  0  0
   18.0641   -9.5849  -15.3821 C   0  0  1  0  0  0  0  0  0  0  0  0
   17.7257   -9.9120  -16.7931 C   0  0  0  0  0  0  0  0  0  0  0  0
   18.8335   -9.7113  -17.7377 C   0  0  0  0  0  0  0  0  0  0  0  0
   19.9559   -9.3415  -17.3598 O   0  0  0  0  0  0  0  0  0  0  0  0
   18.5540   -8.2720  -15.1066 C   0  0  0  0  0  0  0  0  0  0  0  0
   17.7150   -7.3653  -14.7638 O   0  0  0  0  0  0  0  0  0  0  0  0
   18.6536   -9.9336  -19.1185 O   0  0  0  0  0  0  0  0  0  0  0  0
   22.0430   -7.9606  -11.4748 C   0  0  0  0  0  0  0  0  0  0  0  0
   20.9065   -7.5836  -12.4002 C   0  0  0  0  0  0  0  0  0  0  0  0
   21.4134   -6.8392  -13.6176 C   0  0  2  0  0  0  0  0  0  0  0  0
   22.1933   -5.6195  -13.2282 C   0  0  0  0  0  0  0  0  0  0  0  0
   20.3322   -6.5731  -14.6282 C   0  0  2  0  0  0  0  0  0  0  0  0
   19.8940   -7.8625  -15.1669 N   0  0  0  0  0  0  0  0  0  0  0  0
   20.9230   -5.7743  -15.7081 C   0  0  0  0  0  0  0  0  0  0  0  0
   21.1684   -4.5522  -15.5478 O   0  0  0  0  0  0  0  0  0  0  0  0
   21.2249   -6.3339  -16.9224 O   0  0  0  0  0  0  0  0  0  0  0  0
  2  1  1  0
  3  2  2  0
  4  3  1  0
  5  4  2  0
  5 11  1  0
  6  5  1  0
  7  8  1  1
  7  6  1  0
  9  7  1  0
 10  9  2  0
 11 12  2  0
 12  2  1  0
 13  9  1  0
 14 18  1  0
 14 13  1  0
 14 15  1  6
 16 15  1  0
 17 16  2  0
 18 19  2  0
 20 16  1  0
 22 21  1  0
 23 24  1  1
 23 22  1  0
 25 23  1  0
 25 26  1  6
 26 18  1  0
 27 29  1  0
 27 25  1  0
 28 27  2  0
M  END
$$$$
