YDI.pdb
     RDKit          3D

 29 29  0  0  1  0  0  0  0  0999 V2000
   28.4160  -13.6176  -22.6464 O   0  0  0  0  0  0  0  0  0  0  0  0
   28.6850  -12.4683  -21.8913 C   0  0  0  0  0  0  0  0  0  0  0  0
   29.9588  -11.9454  -21.8076 C   0  0  0  0  0  0  0  0  0  0  0  0
   30.2106  -10.8124  -21.0601 C   0  0  0  0  0  0  0  0  0  0  0  0
   29.2193  -10.1509  -20.3670 C   0  0  0  0  0  0  0  0  0  0  0  0
   29.4788   -8.9257  -19.5585 C   0  0  0  0  0  0  0  0  0  0  0  0
   30.3224   -9.2424  -18.3406 C   0  0  2  0  0  0  0  0  0  0  0  0
   29.5849  -10.0996  -17.4411 N   0  0  0  0  0  0  0  0  0  0  0  0
   30.8009   -8.0051  -17.6559 C   0  0  0  0  0  0  0  0  0  0  0  0
   30.0871   -7.5882  -16.7180 O   0  0  0  0  0  0  0  0  0  0  0  0
   27.9392  -10.6781  -20.4527 C   0  0  0  0  0  0  0  0  0  0  0  0
   27.6838  -11.8154  -21.2022 C   0  0  0  0  0  0  0  0  0  0  0  0
   31.9639   -7.3275  -18.0087 N   0  0  0  0  0  0  0  0  0  0  0  0
   32.4843   -6.1042  -17.3931 C   0  0  1  0  0  0  0  0  0  0  0  0
   33.8161   -6.3956  -16.7983 C   0  0  0  0  0  0  0  0  0  0  0  0
   33.7565   -7.1006  -15.5103 C   0  0  0  0  0  0  0  0  0  0  0  0
   33.1297   -6.6423  -14.5425 O   0  0  0  0  0  0  0  0  0  0  0  0
   32.3819   -4.9791  -18.2669 C   0  0  0  0  0  0  0  0  0  0  0  0
   32.7523   -5.1160  -19.4866 O   0  0  0  0  0  0  0  0  0  0  0  0
   34.4181   -8.3328  -15.3309 O   0  0  0  0  0  0  0  0  0  0  0  0
   27.9961   -2.5559  -19.2155 C   0  0  0  0  0  0  0  0  0  0  0  0
   29.3947   -3.1337  -19.2279 C   0  0  0  0  0  0  0  0  0  0  0  0
   30.4276   -2.0792  -18.8897 C   0  0  2  0  0  0  0  0  0  0  0  0
   30.2460   -0.8473  -19.7248 C   0  0  0  0  0  0  0  0  0  0  0  0
   31.8316   -2.6174  -18.8966 C   0  0  2  0  0  0  0  0  0  0  0  0
   31.8989   -3.7084  -17.9220 N   0  0  0  0  0  0  0  0  0  0  0  0
   32.7232   -1.5329  -18.4696 C   0  0  0  0  0  0  0  0  0  0  0  0
   32.9629   -1.3354  -17.2518 O   0  0  0  0  0  0  0  0  0  0  0  0
   33.3209   -0.7034  -19.3825 O   0  0  0  0  0  0  0  0  0  0  0  0
  2  1  1  0
  3  2  2  0
  4  3  1  0
  5  4  2  0
  5 11  1  0
  6  5  1  0
  7  8  1  1
  7  6  1  0
  9  7  1  0
 10  9  2  0
 11 12  2  0
 12  2  1  0
 13  9  1  0
 14 18  1  0
 14 13  1  0
 14 15  1  6
 16 15  1  0
 17 16  2  0
 18 19  2  0
 20 16  1  0
 22 21  1  0
 23 24  1  6
 23 22  1  0
 25 23  1  0
 25 26  1  1
 26 18  1  0
 27 29  1  0
 27 25  1  0
 28 27  2  0
M  END
$$$$
