YDI.pdb
     RDKit          3D

 29 29  0  0  1  0  0  0  0  0999 V2000
   30.3708  -15.4821  -19.1671 O   0  0  0  0  0  0  0  0  0  0  0  0
   29.4466  -16.0767  -18.2977 C   0  0  0  0  0  0  0  0  0  0  0  0
   28.0876  -15.9434  -18.4931 C   0  0  0  0  0  0  0  0  0  0  0  0
   27.1875  -16.5343  -17.6290 C   0  0  0  0  0  0  0  0  0  0  0  0
   27.5900  -17.2785  -16.5405 C   0  0  0  0  0  0  0  0  0  0  0  0
   26.6274  -17.9229  -15.6022 C   0  0  0  0  0  0  0  0  0  0  0  0
   26.8264  -19.4242  -15.5598 C   0  0  2  0  0  0  0  0  0  0  0  0
   26.6846  -19.9766  -16.8874 N   0  0  0  0  0  0  0  0  0  0  0  0
   25.9051  -20.0822  -14.5869 C   0  0  0  0  0  0  0  0  0  0  0  0
   24.8563  -20.5644  -15.0669 O   0  0  0  0  0  0  0  0  0  0  0  0
   28.9568  -17.4116  -16.3460 C   0  0  0  0  0  0  0  0  0  0  0  0
   29.8624  -16.8193  -17.2118 C   0  0  0  0  0  0  0  0  0  0  0  0
   26.1605  -20.1747  -13.2221 N   0  0  0  0  0  0  0  0  0  0  0  0
   25.2456  -20.6744  -12.1929 C   0  0  1  0  0  0  0  0  0  0  0  0
   25.9043  -20.5518  -10.8650 C   0  0  0  0  0  0  0  0  0  0  0  0
   25.0929  -21.0483   -9.7448 C   0  0  0  0  0  0  0  0  0  0  0  0
   25.3901  -20.8065   -8.5647 O   0  0  0  0  0  0  0  0  0  0  0  0
   23.9326  -20.1300  -12.3329 C   0  0  0  0  0  0  0  0  0  0  0  0
   23.7675  -18.8735  -12.1393 O   0  0  0  0  0  0  0  0  0  0  0  0
   23.9393  -21.8249   -9.9780 O   0  0  0  0  0  0  0  0  0  0  0  0
   19.6900  -18.4766  -15.6476 C   0  0  0  0  0  0  0  0  0  0  0  0
   19.8524  -19.0665  -14.2635 C   0  0  0  0  0  0  0  0  0  0  0  0
   21.1990  -19.7417  -14.1087 C   0  0  2  0  0  0  0  0  0  0  0  0
   21.4026  -20.8020  -15.1488 C   0  0  0  0  0  0  0  0  0  0  0  0
   21.4561  -20.2107  -12.7033 C   0  0  2  0  0  0  0  0  0  0  0  0
   22.7758  -20.8448  -12.6761 N   0  0  0  0  0  0  0  0  0  0  0  0
   20.4331  -21.2107  -12.3766 C   0  0  0  0  0  0  0  0  0  0  0  0
   20.6593  -22.4382  -12.5237 O   0  0  0  0  0  0  0  0  0  0  0  0
   19.2020  -20.8389  -11.9021 O   0  0  0  0  0  0  0  0  0  0  0  0
  2  1  1  0
  3  2  2  0
  4  3  1  0
  5  4  2  0
  5 11  1  0
  6  5  1  0
  7  8  1  6
  7  6  1  0
  9  7  1  0
 10  9  2  0
 11 12  2  0
 12  2  1  0
 13  9  1  0
 14 18  1  0
 14 13  1  0
 14 15  1  1
 16 15  1  0
 17 16  2  0
 18 19  2  0
 20 16  1  0
 22 21  1  0
 23 24  1  6
 23 22  1  0
 25 23  1  0
 25 26  1  6
 26 18  1  0
 27 29  1  0
 27 25  1  0
 28 27  2  0
M  END
$$$$
