YDI.pdb
     RDKit          3D

 29 29  0  0  1  0  0  0  0  0999 V2000
   31.0299  -21.9489  -19.1896 O   0  0  0  0  0  0  0  0  0  0  0  0
   30.2607  -21.4079  -18.1509 C   0  0  0  0  0  0  0  0  0  0  0  0
   29.9349  -22.1514  -17.0355 C   0  0  0  0  0  0  0  0  0  0  0  0
   29.1762  -21.6064  -16.0190 C   0  0  0  0  0  0  0  0  0  0  0  0
   28.7094  -20.3099  -16.0610 C   0  0  0  0  0  0  0  0  0  0  0  0
   27.8914  -19.7102  -14.9686 C   0  0  0  0  0  0  0  0  0  0  0  0
   26.4775  -20.2544  -14.9820 C   0  0  2  0  0  0  0  0  0  0  0  0
   25.8083  -19.8544  -16.1985 N   0  0  0  0  0  0  0  0  0  0  0  0
   25.7099  -19.8441  -13.7692 C   0  0  0  0  0  0  0  0  0  0  0  0
   25.1808  -18.7123  -13.8137 O   0  0  0  0  0  0  0  0  0  0  0  0
   29.0382  -19.5639  -17.1831 C   0  0  0  0  0  0  0  0  0  0  0  0
   29.7996  -20.1086  -18.2050 C   0  0  0  0  0  0  0  0  0  0  0  0
   25.5677  -20.6423  -12.6382 N   0  0  0  0  0  0  0  0  0  0  0  0
   24.8194  -20.3117  -11.4229 C   0  0  1  0  0  0  0  0  0  0  0  0
   23.3738  -20.5633  -11.6664 C   0  0  0  0  0  0  0  0  0  0  0  0
   22.5155  -20.3047  -10.5018 C   0  0  0  0  0  0  0  0  0  0  0  0
   22.1707  -19.1553  -10.1863 O   0  0  0  0  0  0  0  0  0  0  0  0
   25.4052  -20.8940  -10.2578 C   0  0  0  0  0  0  0  0  0  0  0  0
   25.6500  -22.1525  -10.2599 O   0  0  0  0  0  0  0  0  0  0  0  0
   22.0528  -21.3658   -9.6967 O   0  0  0  0  0  0  0  0  0  0  0  0
   29.2687  -20.3335   -7.7623 C   0  0  0  0  0  0  0  0  0  0  0  0
   28.1371  -19.3326   -7.6733 C   0  0  0  0  0  0  0  0  0  0  0  0
   26.9207  -19.9370   -7.0038 C   0  0  2  0  0  0  0  0  0  0  0  0
   27.2527  -20.4679   -5.6416 C   0  0  0  0  0  0  0  0  0  0  0  0
   26.2031  -20.9234   -7.8830 C   0  0  2  0  0  0  0  0  0  0  0  0
   25.7563  -20.2129   -9.0831 N   0  0  0  0  0  0  0  0  0  0  0  0
   25.0311  -21.4050   -7.1427 C   0  0  0  0  0  0  0  0  0  0  0  0
   23.9252  -20.8143   -7.2287 O   0  0  0  0  0  0  0  0  0  0  0  0
   25.1053  -22.5109   -6.3363 O   0  0  0  0  0  0  0  0  0  0  0  0
  2  1  1  0
  3  2  2  0
  4  3  1  0
  5  4  2  0
  5 11  1  0
  6  5  1  0
  7  8  1  6
  7  6  1  0
  9  7  1  0
 10  9  2  0
 11 12  2  0
 12  2  1  0
 13  9  1  0
 14 18  1  0
 14 13  1  0
 14 15  1  6
 16 15  1  0
 17 16  2  0
 18 19  2  0
 20 16  1  0
 22 21  1  0
 23 24  1  1
 23 22  1  0
 25 23  1  0
 25 26  1  6
 26 18  1  0
 27 29  1  0
 27 25  1  0
 28 27  2  0
M  END
$$$$
