YDI.pdb
     RDKit          3D

 29 29  0  0  1  0  0  0  0  0999 V2000
   19.0213  -16.3807  -15.8379 O   0  0  0  0  0  0  0  0  0  0  0  0
   18.5810  -15.3641  -16.6959 C   0  0  0  0  0  0  0  0  0  0  0  0
   18.6854  -14.0337  -16.3468 C   0  0  0  0  0  0  0  0  0  0  0  0
   18.2477  -13.0417  -17.2014 C   0  0  0  0  0  0  0  0  0  0  0  0
   17.6911  -13.3207  -18.4314 C   0  0  0  0  0  0  0  0  0  0  0  0
   17.2172  -12.2581  -19.3633 C   0  0  0  0  0  0  0  0  0  0  0  0
   18.3485  -11.7484  -20.2326 C   0  0  2  0  0  0  0  0  0  0  0  0
   19.1196  -12.8608  -20.7380 N   0  0  0  0  0  0  0  0  0  0  0  0
   19.2076  -10.7641  -19.5103 C   0  0  0  0  0  0  0  0  0  0  0  0
   20.2698  -11.2146  -19.0292 O   0  0  0  0  0  0  0  0  0  0  0  0
   17.5874  -14.6590  -18.7808 C   0  0  0  0  0  0  0  0  0  0  0  0
   18.0258  -15.6567  -17.9246 C   0  0  0  0  0  0  0  0  0  0  0  0
   18.8828   -9.4194  -19.3596 N   0  0  0  0  0  0  0  0  0  0  0  0
   19.6855   -8.3960  -18.6855 C   0  0  1  0  0  0  0  0  0  0  0  0
   19.2446   -7.0549  -19.1541 C   0  0  0  0  0  0  0  0  0  0  0  0
   20.0422   -5.9413  -18.6218 C   0  0  0  0  0  0  0  0  0  0  0  0
   19.5229   -4.8627  -18.2954 O   0  0  0  0  0  0  0  0  0  0  0  0
   19.7571   -8.6135  -17.2758 C   0  0  0  0  0  0  0  0  0  0  0  0
   18.7172   -9.0575  -16.6716 O   0  0  0  0  0  0  0  0  0  0  0  0
   21.4381   -6.0640  -18.4647 O   0  0  0  0  0  0  0  0  0  0  0  0
   23.8453  -11.0601  -15.1630 C   0  0  0  0  0  0  0  0  0  0  0  0
   22.4720  -10.5123  -15.4855 C   0  0  0  0  0  0  0  0  0  0  0  0
   22.1546   -9.2948  -14.6428 C   0  0  2  0  0  0  0  0  0  0  0  0
   22.2806   -9.5939  -13.1792 C   0  0  0  0  0  0  0  0  0  0  0  0
   20.8505   -8.6493  -15.0218 C   0  0  2  0  0  0  0  0  0  0  0  0
   20.8788   -8.3928  -16.4634 N   0  0  0  0  0  0  0  0  0  0  0  0
   20.7648   -7.3714  -14.3057 C   0  0  0  0  0  0  0  0  0  0  0  0
   21.3018   -6.3338  -14.7690 O   0  0  0  0  0  0  0  0  0  0  0  0
   20.0985   -7.2690  -13.1122 O   0  0  0  0  0  0  0  0  0  0  0  0
  2  1  1  0
  3  2  2  0
  4  3  1  0
  5  4  2  0
  5 11  1  0
  6  5  1  0
  7  8  1  1
  7  6  1  0
  9  7  1  0
 10  9  2  0
 11 12  2  0
 12  2  1  0
 13  9  1  0
 14 18  1  0
 14 13  1  0
 14 15  1  1
 16 15  1  0
 17 16  2  0
 18 19  2  0
 20 16  1  0
 22 21  1  0
 23 24  1  1
 23 22  1  0
 25 23  1  0
 25 26  1  6
 26 18  1  0
 27 29  1  0
 27 25  1  0
 28 27  2  0
M  END
$$$$
