AND.pdb
     RDKit          3D

 22 21  0  0  1  0  0  0  0  0999 V2000
   16.3168  -14.3995  -16.8846 C   0  0  0  0  0  0  0  0  0  0  0  0
   17.0226  -13.4820  -15.9250 C   0  0  2  0  0  0  0  0  0  0  0  0
   16.5007  -13.7546  -14.5894 N   0  0  0  0  0  0  0  0  0  0  0  0
   16.8375  -12.0539  -16.2218 C   0  0  0  0  0  0  0  0  0  0  0  0
   17.2108  -11.6123  -17.3493 O   0  0  0  0  0  0  0  0  0  0  0  0
   12.7721   -8.5195  -16.1773 N   0  0  0  0  0  0  0  0  0  0  0  0
   13.6899   -9.4672  -15.6946 C   0  0  0  0  0  0  0  0  0  0  0  0
   13.4448  -10.6946  -15.9879 O   0  0  0  0  0  0  0  0  0  0  0  0
   14.8902   -9.2322  -14.9020 C   0  0  0  0  0  0  0  0  0  0  0  0
   16.1436   -9.7436  -15.5251 C   0  0  2  0  0  0  0  0  0  0  0  0
   16.2578  -11.1786  -15.2802 N   0  0  0  0  0  0  0  0  0  0  0  0
   17.3492   -9.1072  -14.8756 C   0  0  0  0  0  0  0  0  0  0  0  0
   17.9665   -9.7063  -13.9781 O   0  0  0  0  0  0  0  0  0  0  0  0
   17.7975   -7.8216  -15.2737 N   0  0  0  0  0  0  0  0  0  0  0  0
   19.0689   -7.3175  -14.8049 C   0  0  1  0  0  0  0  0  0  0  0  0
   20.1765   -8.2649  -15.2586 C   0  0  0  0  0  0  0  0  0  0  0  0
   21.5122   -7.7189  -14.9402 C   0  0  0  0  0  0  0  0  0  0  0  0
   22.2199   -7.1719  -15.8262 O   0  0  0  0  0  0  0  0  0  0  0  0
   19.3320   -5.9407  -15.2903 C   0  0  0  0  0  0  0  0  0  0  0  0
   20.2005   -5.2506  -14.7031 O   0  0  0  0  0  0  0  0  0  0  0  0
   22.0388   -7.7859  -13.6567 O   0  0  0  0  0  0  0  0  0  0  0  0
   18.6380   -5.4230  -16.3670 O   0  0  0  0  0  0  0  0  0  0  0  0
  2  1  1  6
  2  3  1  0
  4  2  1  0
  4 11  1  0
  5  4  2  0
  7  8  2  0
  7  6  1  0
  9  7  1  0
 10 11  1  0
 10  9  1  1
 10 12  1  0
 12 13  2  0
 12 14  1  0
 14 15  1  0
 15 16  1  6
 16 17  1  0
 17 21  1  0
 18 17  2  0
 19 22  1  0
 19 15  1  0
 20 19  2  0
M  END
$$$$
