AND.pdb
     RDKit          3D

 22 21  0  0  1  0  0  0  0  0999 V2000
   17.5960  -10.0266  -16.6207 C   0  0  0  0  0  0  0  0  0  0  0  0
   19.0453  -10.1349  -16.2348 C   0  0  2  0  0  0  0  0  0  0  0  0
   19.3752  -11.5544  -16.1537 N   0  0  0  0  0  0  0  0  0  0  0  0
   19.3674   -9.5010  -14.9479 C   0  0  0  0  0  0  0  0  0  0  0  0
   19.1327  -10.1388  -13.8784 O   0  0  0  0  0  0  0  0  0  0  0  0
   21.7721   -6.2714  -11.3414 N   0  0  0  0  0  0  0  0  0  0  0  0
   21.8003   -5.8494  -12.6810 C   0  0  0  0  0  0  0  0  0  0  0  0
   22.2383   -4.6592  -12.8917 O   0  0  0  0  0  0  0  0  0  0  0  0
   21.3958   -6.5951  -13.8661 C   0  0  0  0  0  0  0  0  0  0  0  0
   20.3135   -7.5901  -13.6221 C   0  0  2  0  0  0  0  0  0  0  0  0
   19.9267   -8.2078  -14.8874 N   0  0  0  0  0  0  0  0  0  0  0  0
   19.0779   -6.9014  -13.0934 C   0  0  0  0  0  0  0  0  0  0  0  0
   18.3143   -6.3021  -13.8699 O   0  0  0  0  0  0  0  0  0  0  0  0
   18.7671   -6.9240  -11.7096 N   0  0  0  0  0  0  0  0  0  0  0  0
   17.6155   -6.2059  -11.2112 C   0  0  1  0  0  0  0  0  0  0  0  0
   17.3546   -6.6268   -9.7673 C   0  0  0  0  0  0  0  0  0  0  0  0
   16.1695   -5.9384   -9.2145 C   0  0  0  0  0  0  0  0  0  0  0  0
   16.2803   -5.0974   -8.2842 O   0  0  0  0  0  0  0  0  0  0  0  0
   17.7983   -4.7364  -11.2988 C   0  0  0  0  0  0  0  0  0  0  0  0
   18.9604   -4.2683  -11.2238 O   0  0  0  0  0  0  0  0  0  0  0  0
   14.8913   -6.1893   -9.6966 O   0  0  0  0  0  0  0  0  0  0  0  0
   16.7144   -3.8948  -11.4599 O   0  0  0  0  0  0  0  0  0  0  0  0
  2  1  1  1
  2  3  1  0
  4  2  1  0
  4 11  1  0
  5  4  2  0
  7  8  2  0
  7  6  1  0
  9  7  1  0
 10 11  1  0
 10  9  1  6
 10 12  1  0
 12 13  2  0
 12 14  1  0
 14 15  1  0
 15 16  1  1
 16 17  1  0
 17 21  1  0
 18 17  2  0
 19 22  1  0
 19 15  1  0
 20 19  2  0
M  END
$$$$
