AND.pdb
     RDKit          3D

 22 21  0  0  1  0  0  0  0  0999 V2000
   21.3016  -14.2819  -20.0327 C   0  0  0  0  0  0  0  0  0  0  0  0
   21.5955  -13.3111  -18.9227 C   0  0  2  0  0  0  0  0  0  0  0  0
   22.2276  -14.0578  -17.8395 N   0  0  0  0  0  0  0  0  0  0  0  0
   20.4030  -12.6319  -18.3949 C   0  0  0  0  0  0  0  0  0  0  0  0
   19.7046  -11.9265  -19.1823 O   0  0  0  0  0  0  0  0  0  0  0  0
   17.2619  -15.3175  -16.1203 N   0  0  0  0  0  0  0  0  0  0  0  0
   17.2535  -13.9158  -16.2129 C   0  0  0  0  0  0  0  0  0  0  0  0
   16.3478  -13.4026  -16.9674 O   0  0  0  0  0  0  0  0  0  0  0  0
   18.1444  -12.9671  -15.5570 C   0  0  0  0  0  0  0  0  0  0  0  0
   18.8670  -12.0599  -16.4928 C   0  0  2  0  0  0  0  0  0  0  0  0
   20.0302  -12.7525  -17.0401 N   0  0  0  0  0  0  0  0  0  0  0  0
   19.4017  -10.8587  -15.7500 C   0  0  0  0  0  0  0  0  0  0  0  0
   20.2560  -11.0028  -14.8586 O   0  0  0  0  0  0  0  0  0  0  0  0
   18.9421   -9.5513  -16.0526 N   0  0  0  0  0  0  0  0  0  0  0  0
   19.4471   -8.4145  -15.3159 C   0  0  1  0  0  0  0  0  0  0  0  0
   20.2063   -7.4997  -16.2735 C   0  0  0  0  0  0  0  0  0  0  0  0
   20.6801   -6.2801  -15.5867 C   0  0  0  0  0  0  0  0  0  0  0  0
   21.5970   -6.3326  -14.7255 O   0  0  0  0  0  0  0  0  0  0  0  0
   18.3605   -7.6676  -14.6361 C   0  0  0  0  0  0  0  0  0  0  0  0
   17.2005   -7.7258  -15.1117 O   0  0  0  0  0  0  0  0  0  0  0  0
   20.1366   -5.0319  -15.8621 O   0  0  0  0  0  0  0  0  0  0  0  0
   18.6146   -6.9211  -13.5015 O   0  0  0  0  0  0  0  0  0  0  0  0
  2  1  1  6
  2  3  1  0
  4  2  1  0
  4 11  1  0
  5  4  2  0
  7  8  2  0
  7  6  1  0
  9  7  1  0
 10 11  1  0
 10  9  1  1
 10 12  1  0
 12 13  2  0
 12 14  1  0
 14 15  1  0
 15 16  1  6
 16 17  1  0
 17 21  1  0
 18 17  2  0
 19 22  1  0
 19 15  1  0
 20 19  2  0
M  END
$$$$
