AND.pdb
     RDKit          3D

 22 21  0  0  1  0  0  0  0  0999 V2000
   14.6681  -10.4675  -14.8414 C   0  0  0  0  0  0  0  0  0  0  0  0
   16.1255  -10.1376  -14.6744 C   0  0  2  0  0  0  0  0  0  0  0  0
   16.7326  -11.2073  -13.8886 N   0  0  0  0  0  0  0  0  0  0  0  0
   16.3717   -8.8560  -13.9970 C   0  0  0  0  0  0  0  0  0  0  0  0
   15.9575   -7.7894  -14.5413 O   0  0  0  0  0  0  0  0  0  0  0  0
   18.3119   -5.2874  -10.4499 N   0  0  0  0  0  0  0  0  0  0  0  0
   17.7539   -6.4680   -9.9319 C   0  0  0  0  0  0  0  0  0  0  0  0
   17.6005   -6.5106   -8.6562 O   0  0  0  0  0  0  0  0  0  0  0  0
   17.3235   -7.6535  -10.6621 C   0  0  0  0  0  0  0  0  0  0  0  0
   17.4242   -7.5286  -12.1437 C   0  0  2  0  0  0  0  0  0  0  0  0
   17.0551   -8.7976  -12.7647 N   0  0  0  0  0  0  0  0  0  0  0  0
   18.8532   -7.2592  -12.5510 C   0  0  0  0  0  0  0  0  0  0  0  0
   19.6943   -8.1743  -12.5278 O   0  0  0  0  0  0  0  0  0  0  0  0
   19.2612   -5.9651  -12.9646 N   0  0  0  0  0  0  0  0  0  0  0  0
   20.5408   -5.7781  -13.6109 C   0  0  1  0  0  0  0  0  0  0  0  0
   20.6270   -6.7065  -14.8196 C   0  0  0  0  0  0  0  0  0  0  0  0
   21.8890   -6.5043  -15.5614 C   0  0  0  0  0  0  0  0  0  0  0  0
   22.9871   -6.3846  -14.9573 O   0  0  0  0  0  0  0  0  0  0  0  0
   20.7530   -4.3688  -14.0224 C   0  0  0  0  0  0  0  0  0  0  0  0
   19.7496   -3.6405  -14.2174 O   0  0  0  0  0  0  0  0  0  0  0  0
   21.9155   -6.4391  -16.9485 O   0  0  0  0  0  0  0  0  0  0  0  0
   22.0277   -3.8624  -14.1891 O   0  0  0  0  0  0  0  0  0  0  0  0
  2  1  1  1
  2  3  1  0
  4  2  1  0
  4 11  1  0
  5  4  2  0
  7  8  2  0
  7  6  1  0
  9  7  1  0
 10 11  1  0
 10  9  1  1
 10 12  1  0
 12 13  2  0
 12 14  1  0
 14 15  1  0
 15 16  1  6
 16 17  1  0
 17 21  1  0
 18 17  2  0
 19 22  1  0
 19 15  1  0
 20 19  2  0
M  END
$$$$
