AND.pdb
     RDKit          3D

 22 21  0  0  1  0  0  0  0  0999 V2000
   22.4957  -13.2554  -19.5707 C   0  0  0  0  0  0  0  0  0  0  0  0
   23.8658  -13.4609  -18.9861 C   0  0  2  0  0  0  0  0  0  0  0  0
   23.9332  -14.8325  -18.4916 N   0  0  0  0  0  0  0  0  0  0  0  0
   24.1850  -12.5445  -17.8814 C   0  0  0  0  0  0  0  0  0  0  0  0
   23.7459  -12.8101  -16.7228 O   0  0  0  0  0  0  0  0  0  0  0  0
   27.0471  -12.1706  -15.3524 N   0  0  0  0  0  0  0  0  0  0  0  0
   27.5218  -11.0917  -16.1167 C   0  0  0  0  0  0  0  0  0  0  0  0
   28.7804  -10.8449  -16.0290 O   0  0  0  0  0  0  0  0  0  0  0  0
   26.7641  -10.2157  -17.0013 C   0  0  0  0  0  0  0  0  0  0  0  0
   25.2959  -10.4711  -17.0033 C   0  0  2  0  0  0  0  0  0  0  0  0
   24.9633  -11.3873  -18.0907 N   0  0  0  0  0  0  0  0  0  0  0  0
   24.5420   -9.1928  -17.2830 C   0  0  0  0  0  0  0  0  0  0  0  0
   24.6051   -8.6611  -18.4048 O   0  0  0  0  0  0  0  0  0  0  0  0
   23.7531   -8.5775  -16.2774 N   0  0  0  0  0  0  0  0  0  0  0  0
   22.9384   -7.4263  -16.5953 C   0  0  1  0  0  0  0  0  0  0  0  0
   21.9760   -7.7948  -17.7215 C   0  0  0  0  0  0  0  0  0  0  0  0
   21.0730   -6.6704  -18.0438 C   0  0  0  0  0  0  0  0  0  0  0  0
   21.4257   -5.4769  -17.8530 O   0  0  0  0  0  0  0  0  0  0  0  0
   22.1899   -6.9337  -15.4130 C   0  0  0  0  0  0  0  0  0  0  0  0
   22.0607   -7.6933  -14.4223 O   0  0  0  0  0  0  0  0  0  0  0  0
   19.8046   -6.8828  -18.5683 O   0  0  0  0  0  0  0  0  0  0  0  0
   21.6437   -5.6646  -15.3972 O   0  0  0  0  0  0  0  0  0  0  0  0
  2  1  1  1
  2  3  1  0
  4  2  1  0
  4 11  1  0
  5  4  2  0
  7  8  2  0
  7  6  1  0
  9  7  1  0
 10 11  1  0
 10  9  1  6
 10 12  1  0
 12 13  2  0
 12 14  1  0
 14 15  1  0
 15 16  1  6
 16 17  1  0
 17 21  1  0
 18 17  2  0
 19 22  1  0
 19 15  1  0
 20 19  2  0
M  END
$$$$
