AND.pdb
     RDKit          3D

 22 21  0  0  1  0  0  0  0  0999 V2000
   23.1457  -20.2906  -15.7260 C   0  0  0  0  0  0  0  0  0  0  0  0
   22.5943  -21.3582  -14.8222 C   0  0  2  0  0  0  0  0  0  0  0  0
   21.7753  -22.2482  -15.6392 N   0  0  0  0  0  0  0  0  0  0  0  0
   21.7714  -20.8384  -13.7201 C   0  0  0  0  0  0  0  0  0  0  0  0
   22.3126  -20.0823  -12.8593 O   0  0  0  0  0  0  0  0  0  0  0  0
   19.8261  -17.8425  -11.8988 N   0  0  0  0  0  0  0  0  0  0  0  0
   18.7450  -18.3975  -12.6035 C   0  0  0  0  0  0  0  0  0  0  0  0
   17.8289  -17.5759  -12.9757 O   0  0  0  0  0  0  0  0  0  0  0  0
   18.5320  -19.7923  -12.9685 C   0  0  0  0  0  0  0  0  0  0  0  0
   19.5911  -20.7201  -12.4804 C   0  0  2  0  0  0  0  0  0  0  0  0
   20.4042  -21.1661  -13.6084 N   0  0  0  0  0  0  0  0  0  0  0  0
   18.9679  -21.9634  -11.8917 C   0  0  0  0  0  0  0  0  0  0  0  0
   18.6215  -22.9007  -12.6311 O   0  0  0  0  0  0  0  0  0  0  0  0
   18.7664  -22.0847  -10.4928 N   0  0  0  0  0  0  0  0  0  0  0  0
   18.2194  -23.3035   -9.9401 C   0  0  1  0  0  0  0  0  0  0  0  0
   18.5143  -23.3459   -8.4430 C   0  0  0  0  0  0  0  0  0  0  0  0
   19.0965  -24.6455   -8.0483 C   0  0  0  0  0  0  0  0  0  0  0  0
   19.3256  -25.5422   -8.9019 O   0  0  0  0  0  0  0  0  0  0  0  0
   16.7608  -23.4173  -10.1855 C   0  0  0  0  0  0  0  0  0  0  0  0
   16.2650  -24.5584  -10.3511 O   0  0  0  0  0  0  0  0  0  0  0  0
   19.4141  -24.9294   -6.7263 O   0  0  0  0  0  0  0  0  0  0  0  0
   15.9591  -22.2930  -10.2316 O   0  0  0  0  0  0  0  0  0  0  0  0
  2  1  1  6
  2  3  1  0
  4  2  1  0
  4 11  1  0
  5  4  2  0
  7  8  2  0
  7  6  1  0
  9  7  1  0
 10 11  1  0
 10  9  1  6
 10 12  1  0
 12 13  2  0
 12 14  1  0
 14 15  1  0
 15 16  1  1
 16 17  1  0
 17 21  1  0
 18 17  2  0
 19 22  1  0
 19 15  1  0
 20 19  2  0
M  END
$$$$
