AND.pdb
     RDKit          3D

 22 21  0  0  1  0  0  0  0  0999 V2000
   19.8221  -11.0062  -19.9882 C   0  0  0  0  0  0  0  0  0  0  0  0
   20.7453  -10.2018  -19.1155 C   0  0  2  0  0  0  0  0  0  0  0  0
   21.6379  -11.1368  -18.4379 N   0  0  0  0  0  0  0  0  0  0  0  0
   20.0518   -9.3926  -18.1025 C   0  0  0  0  0  0  0  0  0  0  0  0
   19.2374   -8.5013  -18.4871 O   0  0  0  0  0  0  0  0  0  0  0  0
   17.0150  -10.1233  -15.7115 N   0  0  0  0  0  0  0  0  0  0  0  0
   17.9417  -10.2471  -14.6629 C   0  0  0  0  0  0  0  0  0  0  0  0
   17.5940  -11.0061  -13.6853 O   0  0  0  0  0  0  0  0  0  0  0  0
   19.2532   -9.6225  -14.5452 C   0  0  0  0  0  0  0  0  0  0  0  0
   19.6300   -8.7689  -15.7072 C   0  0  2  0  0  0  0  0  0  0  0  0
   20.2781   -9.5916  -16.7247 N   0  0  0  0  0  0  0  0  0  0  0  0
   20.6479   -7.7345  -15.2893 C   0  0  0  0  0  0  0  0  0  0  0  0
   21.8507   -8.0372  -15.2065 O   0  0  0  0  0  0  0  0  0  0  0  0
   20.2538   -6.4064  -14.9845 N   0  0  0  0  0  0  0  0  0  0  0  0
   21.2457   -5.4183  -14.6237 C   0  0  1  0  0  0  0  0  0  0  0  0
   20.7110   -4.0301  -14.9656 C   0  0  0  0  0  0  0  0  0  0  0  0
   21.6724   -2.9760  -14.5806 C   0  0  0  0  0  0  0  0  0  0  0  0
   22.7362   -2.7965  -15.2297 O   0  0  0  0  0  0  0  0  0  0  0  0
   21.6081   -5.4960  -13.1873 C   0  0  0  0  0  0  0  0  0  0  0  0
   20.8057   -6.0428  -12.3922 O   0  0  0  0  0  0  0  0  0  0  0  0
   21.4428   -2.1436  -13.4927 O   0  0  0  0  0  0  0  0  0  0  0  0
   22.8041   -4.9783  -12.7282 O   0  0  0  0  0  0  0  0  0  0  0  0
  2  1  1  1
  2  3  1  0
  4  2  1  0
  4 11  1  0
  5  4  2  0
  7  8  2  0
  7  6  1  0
  9  7  1  0
 10 11  1  0
 10  9  1  1
 10 12  1  0
 12 13  2  0
 12 14  1  0
 14 15  1  0
 15 16  1  1
 16 17  1  0
 17 21  1  0
 18 17  2  0
 19 22  1  0
 19 15  1  0
 20 19  2  0
M  END
$$$$
