AND.pdb
     RDKit          3D

 22 21  0  0  1  0  0  0  0  0999 V2000
   22.0461  -12.6219  -18.4603 C   0  0  0  0  0  0  0  0  0  0  0  0
   22.3165  -11.6537  -17.3421 C   0  0  2  0  0  0  0  0  0  0  0  0
   22.4638  -12.4283  -16.1139 N   0  0  0  0  0  0  0  0  0  0  0  0
   21.2529  -10.6574  -17.1473 C   0  0  0  0  0  0  0  0  0  0  0  0
   21.2129   -9.6502  -17.9151 O   0  0  0  0  0  0  0  0  0  0  0  0
   17.2532  -11.1739  -17.7567 N   0  0  0  0  0  0  0  0  0  0  0  0
   17.1471  -11.2060  -16.3563 C   0  0  0  0  0  0  0  0  0  0  0  0
   16.1669  -11.8861  -15.8772 O   0  0  0  0  0  0  0  0  0  0  0  0
   18.0130  -10.5645  -15.3751 C   0  0  0  0  0  0  0  0  0  0  0  0
   19.1868   -9.8601  -15.9640 C   0  0  2  0  0  0  0  0  0  0  0  0
   20.2880  -10.8048  -16.1294 N   0  0  0  0  0  0  0  0  0  0  0  0
   19.6850   -8.7922  -15.0196 C   0  0  0  0  0  0  0  0  0  0  0  0
   19.9114   -9.0656  -13.8283 O   0  0  0  0  0  0  0  0  0  0  0  0
   19.9023   -7.4649  -15.4704 N   0  0  0  0  0  0  0  0  0  0  0  0
   20.3653   -6.4509  -14.5497 C   0  0  1  0  0  0  0  0  0  0  0  0
   21.8244   -6.1272  -14.8601 C   0  0  0  0  0  0  0  0  0  0  0  0
   22.3299   -5.0452  -13.9898 C   0  0  0  0  0  0  0  0  0  0  0  0
   22.4441   -3.8663  -14.4167 O   0  0  0  0  0  0  0  0  0  0  0  0
   19.5357   -5.2228  -14.6149 C   0  0  0  0  0  0  0  0  0  0  0  0
   18.9679   -4.9362  -15.6968 O   0  0  0  0  0  0  0  0  0  0  0  0
   22.6973   -5.2830  -12.6716 O   0  0  0  0  0  0  0  0  0  0  0  0
   19.3874   -4.4071  -13.5096 O   0  0  0  0  0  0  0  0  0  0  0  0
  2  1  1  6
  2  3  1  0
  4  2  1  0
  4 11  1  0
  5  4  2  0
  7  8  2  0
  7  6  1  0
  9  7  1  0
 10 11  1  0
 10  9  1  1
 10 12  1  0
 12 13  2  0
 12 14  1  0
 14 15  1  0
 15 16  1  6
 16 17  1  0
 17 21  1  0
 18 17  2  0
 19 22  1  0
 19 15  1  0
 20 19  2  0
M  END
$$$$
