DIP.pdb
     RDKit          3D

 24 24  0  0  1  0  0  0  0  0999 V2000
    8.8075  -15.0397   20.4173 N   0  0  0  0  0  0  0  0  0  0  0  0
    8.7641  -15.8957   21.5820 C   0  0  1  0  0  0  0  0  0  0  0  0
    9.6437  -17.1128   21.4238 C   0  0  0  0  0  0  0  0  0  0  0  0
    9.1471  -17.9641   20.3133 C   0  0  0  0  0  0  0  0  0  0  0  0
    9.8181  -18.0718   19.2771 O   0  0  0  0  0  0  0  0  0  0  0  0
    9.0842  -15.1380   22.8203 C   0  0  0  0  0  0  0  0  0  0  0  0
   10.1158  -14.4070   22.8696 O   0  0  0  0  0  0  0  0  0  0  0  0
    7.9414  -18.6308   20.4406 O   0  0  0  0  0  0  0  0  0  0  0  0
    5.3507  -12.4788   25.5620 C   0  0  0  0  0  0  0  0  0  0  0  0
    6.7020  -12.8737   24.9473 C   0  0  0  0  0  0  0  0  0  0  0  0
    7.2081  -14.0549   25.7196 C   0  0  2  0  0  0  0  0  0  0  0  0
    7.4543  -13.5556   27.1628 C   0  0  0  0  0  0  0  0  0  0  0  0
    8.5304  -14.5831   25.2398 C   0  0  2  0  0  0  0  0  0  0  0  0
    8.2440  -15.2262   23.9484 N   0  0  0  0  0  0  0  0  0  0  0  0
    9.1977  -15.5247   26.1522 C   0  0  0  0  0  0  0  0  0  0  0  0
    9.0415  -16.7863   25.9125 O   0  0  0  0  0  0  0  0  0  0  0  0
   10.0001  -15.2200   27.2718 N   0  0  0  0  0  0  0  0  0  0  0  0
   10.1346  -13.8585   27.8015 C   0  0  0  0  0  0  0  0  0  0  0  0
   11.4879  -13.8645   28.5008 C   0  0  0  0  0  0  0  0  0  0  0  0
   11.5687  -15.2501   29.0806 C   0  0  0  0  0  0  0  0  0  0  0  0
   10.7914  -16.0795   28.0966 C   0  0  1  0  0  0  0  0  0  0  0  0
    9.9597  -17.0145   28.9086 C   0  0  0  0  0  0  0  0  0  0  0  0
   10.6537  -18.0211   29.5849 O   0  0  0  0  0  0  0  0  0  0  0  0
    8.7281  -16.9646   29.0242 O   0  0  0  0  0  0  0  0  0  0  0  0
  2  1  1  6
  2  3  1  0
  3  4  1  0
  4  8  1  0
  4  5  2  0
  6  7  2  0
  6  2  1  0
  9 10  1  0
 10 11  1  0
 11 13  1  0
 11 12  1  1
 13 14  1  6
 14  6  1  0
 15 13  1  0
 16 15  2  0
 17 18  1  0
 17 15  1  0
 19 18  1  0
 20 19  1  0
 21 20  1  0
 21 17  1  0
 21 22  1  1
 23 22  1  0
 24 22  2  0
M  END
$$$$
