DIP.pdb
     RDKit          3D

 24 24  0  0  1  0  0  0  0  0999 V2000
    8.0457  -14.8476   20.1213 N   0  0  0  0  0  0  0  0  0  0  0  0
    7.6482  -15.4206   21.3880 C   0  0  1  0  0  0  0  0  0  0  0  0
    7.8442  -16.9175   21.4193 C   0  0  0  0  0  0  0  0  0  0  0  0
    7.0369  -17.5631   20.3534 C   0  0  0  0  0  0  0  0  0  0  0  0
    6.6047  -16.8800   19.4141 O   0  0  0  0  0  0  0  0  0  0  0  0
    8.3340  -14.7483   22.5229 C   0  0  0  0  0  0  0  0  0  0  0  0
    9.3770  -14.0617   22.3188 O   0  0  0  0  0  0  0  0  0  0  0  0
    6.7722  -18.9198   20.4139 O   0  0  0  0  0  0  0  0  0  0  0  0
    6.2539  -11.6319   26.9732 C   0  0  0  0  0  0  0  0  0  0  0  0
    7.5087  -12.4722   26.6916 C   0  0  0  0  0  0  0  0  0  0  0  0
    7.1718  -13.4016   25.5645 C   0  0  2  0  0  0  0  0  0  0  0  0
    6.2611  -14.4983   26.1649 C   0  0  0  0  0  0  0  0  0  0  0  0
    8.3560  -14.1252   24.9886 C   0  0  2  0  0  0  0  0  0  0  0  0
    7.8303  -14.8688   23.8336 N   0  0  0  0  0  0  0  0  0  0  0  0
    9.0497  -15.0310   25.9175 C   0  0  0  0  0  0  0  0  0  0  0  0
    9.1232  -14.6609   27.1548 O   0  0  0  0  0  0  0  0  0  0  0  0
    9.6525  -16.2723   25.6242 N   0  0  0  0  0  0  0  0  0  0  0  0
   10.5814  -16.4554   24.5035 C   0  0  0  0  0  0  0  0  0  0  0  0
   10.4649  -17.9355   24.1630 C   0  0  0  0  0  0  0  0  0  0  0  0
   10.2701  -18.5826   25.5068 C   0  0  0  0  0  0  0  0  0  0  0  0
    9.5321  -17.5325   26.2895 C   0  0  1  0  0  0  0  0  0  0  0  0
   10.1465  -17.5204   27.6488 C   0  0  0  0  0  0  0  0  0  0  0  0
   10.1043  -18.7281   28.3503 O   0  0  0  0  0  0  0  0  0  0  0  0
   10.6786  -16.5413   28.1879 O   0  0  0  0  0  0  0  0  0  0  0  0
  2  1  1  6
  2  3  1  0
  3  4  1  0
  4  8  1  0
  4  5  2  0
  6  7  2  0
  6  2  1  0
  9 10  1  0
 10 11  1  0
 11 13  1  0
 11 12  1  1
 13 14  1  6
 14  6  1  0
 15 13  1  0
 16 15  2  0
 17 18  1  0
 17 15  1  0
 19 18  1  0
 20 19  1  0
 21 20  1  0
 21 17  1  0
 21 22  1  1
 23 22  1  0
 24 22  2  0
M  END
$$$$
