DIP.pdb
     RDKit          3D

 24 24  0  0  1  0  0  0  0  0999 V2000
    9.3055  -15.3412   20.5591 N   0  0  0  0  0  0  0  0  0  0  0  0
    8.9657  -16.0977   21.7437 C   0  0  1  0  0  0  0  0  0  0  0  0
    9.5713  -17.4807   21.7261 C   0  0  0  0  0  0  0  0  0  0  0  0
    9.1010  -18.2318   20.5347 C   0  0  0  0  0  0  0  0  0  0  0  0
    7.8853  -18.3795   20.3447 O   0  0  0  0  0  0  0  0  0  0  0  0
    9.3219  -15.3526   22.9800 C   0  0  0  0  0  0  0  0  0  0  0  0
   10.4526  -14.7938   23.0819 O   0  0  0  0  0  0  0  0  0  0  0  0
   10.0193  -18.7612   19.6455 O   0  0  0  0  0  0  0  0  0  0  0  0
    5.7035  -12.2763   25.4623 C   0  0  0  0  0  0  0  0  0  0  0  0
    7.0225  -12.8225   24.8948 C   0  0  0  0  0  0  0  0  0  0  0  0
    7.4373  -13.9669   25.7699 C   0  0  2  0  0  0  0  0  0  0  0  0
    7.7265  -13.3633   27.1644 C   0  0  0  0  0  0  0  0  0  0  0  0
    8.7126  -14.6371   25.3433 C   0  0  2  0  0  0  0  0  0  0  0  0
    8.4062  -15.2617   24.0474 N   0  0  0  0  0  0  0  0  0  0  0  0
    9.2439  -15.6327   26.2871 C   0  0  0  0  0  0  0  0  0  0  0  0
    8.8026  -16.8435   26.1747 O   0  0  0  0  0  0  0  0  0  0  0  0
   10.1898  -15.4302   27.3140 N   0  0  0  0  0  0  0  0  0  0  0  0
   10.6059  -14.0939   27.7538 C   0  0  0  0  0  0  0  0  0  0  0  0
   11.9985  -14.3105   28.3319 C   0  0  0  0  0  0  0  0  0  0  0  0
   11.8952  -15.6648   28.9782 C   0  0  0  0  0  0  0  0  0  0  0  0
   10.8968  -16.3824   28.1131 C   0  0  1  0  0  0  0  0  0  0  0  0
    9.9983  -17.1238   29.0449 C   0  0  0  0  0  0  0  0  0  0  0  0
   10.5775  -18.1934   29.7324 O   0  0  0  0  0  0  0  0  0  0  0  0
    8.8046  -16.8663   29.2486 O   0  0  0  0  0  0  0  0  0  0  0  0
  2  1  1  6
  2  3  1  0
  3  4  1  0
  4  8  1  0
  4  5  2  0
  6  7  2  0
  6  2  1  0
  9 10  1  0
 10 11  1  0
 11 13  1  0
 11 12  1  1
 13 14  1  6
 14  6  1  0
 15 13  1  0
 16 15  2  0
 17 18  1  0
 17 15  1  0
 19 18  1  0
 20 19  1  0
 21 20  1  0
 21 17  1  0
 21 22  1  1
 23 22  1  0
 24 22  2  0
M  END
$$$$
