DIP.pdb
     RDKit          3D

 24 24  0  0  1  0  0  0  0  0999 V2000
    9.0820  -15.1643   20.4224 N   0  0  0  0  0  0  0  0  0  0  0  0
    8.9343  -15.9898   21.6004 C   0  0  1  0  0  0  0  0  0  0  0  0
    9.7546  -17.2545   21.5127 C   0  0  0  0  0  0  0  0  0  0  0  0
    9.3474  -18.0490   20.3262 C   0  0  0  0  0  0  0  0  0  0  0  0
    8.1666  -18.4043   20.2032 O   0  0  0  0  0  0  0  0  0  0  0  0
    9.2315  -15.2215   22.8380 C   0  0  0  0  0  0  0  0  0  0  0  0
   10.2539  -14.4783   22.8949 O   0  0  0  0  0  0  0  0  0  0  0  0
   10.2853  -18.3875   19.3670 O   0  0  0  0  0  0  0  0  0  0  0  0
    5.5443  -12.3662   25.2841 C   0  0  0  0  0  0  0  0  0  0  0  0
    6.9021  -12.8585   24.7607 C   0  0  0  0  0  0  0  0  0  0  0  0
    7.3099  -14.0183   25.6186 C   0  0  2  0  0  0  0  0  0  0  0  0
    7.5077  -13.4536   27.0450 C   0  0  0  0  0  0  0  0  0  0  0  0
    8.6269  -14.6329   25.2373 C   0  0  2  0  0  0  0  0  0  0  0  0
    8.3795  -15.3133   23.9569 N   0  0  0  0  0  0  0  0  0  0  0  0
    9.1906  -15.5689   26.2224 C   0  0  0  0  0  0  0  0  0  0  0  0
    8.8996  -16.8209   26.0774 O   0  0  0  0  0  0  0  0  0  0  0  0
   10.0228  -15.2682   27.3211 N   0  0  0  0  0  0  0  0  0  0  0  0
   10.2174  -13.9005   27.8150 C   0  0  0  0  0  0  0  0  0  0  0  0
   11.5811  -13.9412   28.4925 C   0  0  0  0  0  0  0  0  0  0  0  0
   11.6196  -15.3145   29.1047 C   0  0  0  0  0  0  0  0  0  0  0  0
   10.7950  -16.1371   28.1541 C   0  0  1  0  0  0  0  0  0  0  0  0
    9.9427  -17.0201   29.0020 C   0  0  0  0  0  0  0  0  0  0  0  0
   10.6137  -18.0158   29.7165 O   0  0  0  0  0  0  0  0  0  0  0  0
    8.7128  -16.9368   29.1160 O   0  0  0  0  0  0  0  0  0  0  0  0
  2  1  1  6
  2  3  1  0
  3  4  1  0
  4  8  1  0
  4  5  2  0
  6  7  2  0
  6  2  1  0
  9 10  1  0
 10 11  1  0
 11 13  1  0
 11 12  1  1
 13 14  1  6
 14  6  1  0
 15 13  1  0
 16 15  2  0
 17 18  1  0
 17 15  1  0
 19 18  1  0
 20 19  1  0
 21 20  1  0
 21 17  1  0
 21 22  1  1
 23 22  1  0
 24 22  2  0
M  END
$$$$
