DIP.pdb
     RDKit          3D

 24 24  0  0  1  0  0  0  0  0999 V2000
    9.6531  -15.3706   20.4848 N   0  0  0  0  0  0  0  0  0  0  0  0
    9.2781  -16.1386   21.6512 C   0  0  1  0  0  0  0  0  0  0  0  0
    9.9924  -17.4677   21.7083 C   0  0  0  0  0  0  0  0  0  0  0  0
    9.7137  -18.2533   20.4795 C   0  0  0  0  0  0  0  0  0  0  0  0
    8.7689  -19.0551   20.4665 O   0  0  0  0  0  0  0  0  0  0  0  0
    9.4695  -15.3528   22.8987 C   0  0  0  0  0  0  0  0  0  0  0  0
   10.4971  -14.6286   23.0425 O   0  0  0  0  0  0  0  0  0  0  0  0
   10.5077  -18.0866   19.3587 O   0  0  0  0  0  0  0  0  0  0  0  0
    5.4268  -12.6451   25.1691 C   0  0  0  0  0  0  0  0  0  0  0  0
    6.8293  -13.0478   24.6886 C   0  0  0  0  0  0  0  0  0  0  0  0
    7.2719  -14.1998   25.5399 C   0  0  2  0  0  0  0  0  0  0  0  0
    7.3513  -13.6628   26.9883 C   0  0  0  0  0  0  0  0  0  0  0  0
    8.6482  -14.7096   25.2182 C   0  0  2  0  0  0  0  0  0  0  0  0
    8.5109  -15.4066   23.9303 N   0  0  0  0  0  0  0  0  0  0  0  0
    9.2395  -15.5992   26.2298 C   0  0  0  0  0  0  0  0  0  0  0  0
    9.0872  -16.8718   26.0547 O   0  0  0  0  0  0  0  0  0  0  0  0
    9.9644  -15.2333   27.3834 N   0  0  0  0  0  0  0  0  0  0  0  0
    9.9920  -13.8596   27.8976 C   0  0  0  0  0  0  0  0  0  0  0  0
   11.3056  -13.7767   28.6642 C   0  0  0  0  0  0  0  0  0  0  0  0
   11.4372  -15.1475   29.2692 C   0  0  0  0  0  0  0  0  0  0  0  0
   10.7610  -16.0339   28.2606 C   0  0  1  0  0  0  0  0  0  0  0  0
    9.9447  -17.0058   29.0443 C   0  0  0  0  0  0  0  0  0  0  0  0
   10.6610  -17.9409   29.7959 O   0  0  0  0  0  0  0  0  0  0  0  0
    8.7077  -17.0434   29.0765 O   0  0  0  0  0  0  0  0  0  0  0  0
  2  1  1  6
  2  3  1  0
  3  4  1  0
  4  8  1  0
  4  5  2  0
  6  7  2  0
  6  2  1  0
  9 10  1  0
 10 11  1  0
 11 13  1  0
 11 12  1  1
 13 14  1  6
 14  6  1  0
 15 13  1  0
 16 15  2  0
 17 18  1  0
 17 15  1  0
 19 18  1  0
 20 19  1  0
 21 20  1  0
 21 17  1  0
 21 22  1  1
 23 22  1  0
 24 22  2  0
M  END
$$$$
