DIP.pdb
     RDKit          3D

 24 24  0  0  1  0  0  0  0  0999 V2000
    6.2372  -19.3999   26.5154 N   0  0  0  0  0  0  0  0  0  0  0  0
    7.3147  -18.4501   26.3488 C   0  0  1  0  0  0  0  0  0  0  0  0
    8.5706  -19.1041   25.8244 C   0  0  0  0  0  0  0  0  0  0  0  0
    9.2143  -19.9095   26.8929 C   0  0  0  0  0  0  0  0  0  0  0  0
    9.7914  -20.9662   26.5995 O   0  0  0  0  0  0  0  0  0  0  0  0
    6.8946  -17.3007   25.5046 C   0  0  0  0  0  0  0  0  0  0  0  0
    6.1485  -17.4888   24.5001 O   0  0  0  0  0  0  0  0  0  0  0  0
    9.1668  -19.4776   28.2065 O   0  0  0  0  0  0  0  0  0  0  0  0
    6.9434  -12.1251   27.5013 C   0  0  0  0  0  0  0  0  0  0  0  0
    6.4597  -13.3188   26.6639 C   0  0  0  0  0  0  0  0  0  0  0  0
    7.5531  -13.6458   25.6916 C   0  0  2  0  0  0  0  0  0  0  0  0
    7.6096  -12.4676   24.6909 C   0  0  0  0  0  0  0  0  0  0  0  0
    7.2936  -14.8721   24.8632 C   0  0  2  0  0  0  0  0  0  0  0  0
    7.3222  -15.9940   25.8141 N   0  0  0  0  0  0  0  0  0  0  0  0
    8.2445  -15.0988   23.7638 C   0  0  0  0  0  0  0  0  0  0  0  0
    9.3516  -15.6996   24.0584 O   0  0  0  0  0  0  0  0  0  0  0  0
    8.0977  -14.7394   22.4075 N   0  0  0  0  0  0  0  0  0  0  0  0
    6.9540  -13.9643   21.9140 C   0  0  0  0  0  0  0  0  0  0  0  0
    6.8472  -14.3547   20.4455 C   0  0  0  0  0  0  0  0  0  0  0  0
    8.2828  -14.5245   20.0300 C   0  0  0  0  0  0  0  0  0  0  0  0
    8.9503  -15.0017   21.2898 C   0  0  1  0  0  0  0  0  0  0  0  0
   10.2457  -14.2670   21.3761 C   0  0  0  0  0  0  0  0  0  0  0  0
   11.2170  -14.6266   20.4383 O   0  0  0  0  0  0  0  0  0  0  0  0
   10.5165  -13.3827   22.1990 O   0  0  0  0  0  0  0  0  0  0  0  0
  2  1  1  6
  2  3  1  0
  3  4  1  0
  4  8  1  0
  4  5  2  0
  6  7  2  0
  6  2  1  0
  9 10  1  0
 10 11  1  0
 11 13  1  0
 11 12  1  6
 13 14  1  1
 14  6  1  0
 15 13  1  0
 16 15  2  0
 17 18  1  0
 17 15  1  0
 19 18  1  0
 20 19  1  0
 21 20  1  0
 21 17  1  0
 21 22  1  1
 23 22  1  0
 24 22  2  0
M  END
$$$$
