DIP.pdb
     RDKit          3D

 24 24  0  0  1  0  0  0  0  0999 V2000
    9.4650  -15.3245   20.4679 N   0  0  0  0  0  0  0  0  0  0  0  0
    9.0594  -16.0959   21.6217 C   0  0  1  0  0  0  0  0  0  0  0  0
    9.6966  -17.4647   21.6408 C   0  0  0  0  0  0  0  0  0  0  0  0
    9.3048  -18.2301   20.4303 C   0  0  0  0  0  0  0  0  0  0  0  0
   10.1824  -18.6892   19.6855 O   0  0  0  0  0  0  0  0  0  0  0  0
    9.3096  -15.3507   22.8837 C   0  0  0  0  0  0  0  0  0  0  0  0
   10.3637  -14.6639   23.0181 O   0  0  0  0  0  0  0  0  0  0  0  0
    7.9661  -18.4261   20.1408 O   0  0  0  0  0  0  0  0  0  0  0  0
    5.3299  -12.6842   25.3231 C   0  0  0  0  0  0  0  0  0  0  0  0
    6.7118  -13.0801   24.7812 C   0  0  0  0  0  0  0  0  0  0  0  0
    7.2000  -14.2256   25.6163 C   0  0  2  0  0  0  0  0  0  0  0  0
    7.3424  -13.6814   27.0572 C   0  0  0  0  0  0  0  0  0  0  0  0
    8.5631  -14.7288   25.2341 C   0  0  2  0  0  0  0  0  0  0  0  0
    8.3776  -15.4020   23.9396 N   0  0  0  0  0  0  0  0  0  0  0  0
    9.1916  -15.6367   26.2062 C   0  0  0  0  0  0  0  0  0  0  0  0
    9.0691  -16.9061   25.9897 O   0  0  0  0  0  0  0  0  0  0  0  0
    9.9238  -15.2915   27.3616 N   0  0  0  0  0  0  0  0  0  0  0  0
    9.9151  -13.9386   27.9288 C   0  0  0  0  0  0  0  0  0  0  0  0
   11.2383  -13.8413   28.6771 C   0  0  0  0  0  0  0  0  0  0  0  0
   11.4253  -15.2294   29.2256 C   0  0  0  0  0  0  0  0  0  0  0  0
   10.7614  -16.0983   28.1939 C   0  0  1  0  0  0  0  0  0  0  0  0
    9.9912  -17.1266   28.9518 C   0  0  0  0  0  0  0  0  0  0  0  0
   10.7506  -18.0565   29.6667 O   0  0  0  0  0  0  0  0  0  0  0  0
    8.7570  -17.2141   28.9926 O   0  0  0  0  0  0  0  0  0  0  0  0
  2  1  1  6
  2  3  1  0
  3  4  1  0
  4  8  1  0
  4  5  2  0
  6  7  2  0
  6  2  1  0
  9 10  1  0
 10 11  1  0
 11 13  1  0
 11 12  1  1
 13 14  1  6
 14  6  1  0
 15 13  1  0
 16 15  2  0
 17 18  1  0
 17 15  1  0
 19 18  1  0
 20 19  1  0
 21 20  1  0
 21 17  1  0
 21 22  1  1
 23 22  1  0
 24 22  2  0
M  END
$$$$
