DIP.pdb
     RDKit          3D

 24 24  0  0  1  0  0  0  0  0999 V2000
    8.4957  -15.0256   20.6578 N   0  0  0  0  0  0  0  0  0  0  0  0
    8.3681  -15.9604   21.7536 C   0  0  1  0  0  0  0  0  0  0  0  0
    8.9484  -17.3128   21.4153 C   0  0  0  0  0  0  0  0  0  0  0  0
    7.9316  -18.1508   20.7308 C   0  0  0  0  0  0  0  0  0  0  0  0
    8.2848  -18.9368   19.8402 O   0  0  0  0  0  0  0  0  0  0  0  0
    8.9478  -15.4063   23.0055 C   0  0  0  0  0  0  0  0  0  0  0  0
   10.1660  -15.0666   23.0460 O   0  0  0  0  0  0  0  0  0  0  0  0
    6.5991  -18.0503   21.0896 O   0  0  0  0  0  0  0  0  0  0  0  0
    5.7928  -12.2165   25.9279 C   0  0  0  0  0  0  0  0  0  0  0  0
    7.0468  -12.7798   25.2423 C   0  0  0  0  0  0  0  0  0  0  0  0
    7.4763  -13.9813   26.0295 C   0  0  2  0  0  0  0  0  0  0  0  0
    7.9694  -13.4502   27.3961 C   0  0  0  0  0  0  0  0  0  0  0  0
    8.6409  -14.7220   25.4357 C   0  0  2  0  0  0  0  0  0  0  0  0
    8.1483  -15.2544   24.1561 N   0  0  0  0  0  0  0  0  0  0  0  0
    9.1888  -15.8019   26.2711 C   0  0  0  0  0  0  0  0  0  0  0  0
    8.5088  -16.9007   26.3322 O   0  0  0  0  0  0  0  0  0  0  0  0
   10.3818  -15.7903   27.0239 N   0  0  0  0  0  0  0  0  0  0  0  0
   11.2268  -14.5975   27.1487 C   0  0  0  0  0  0  0  0  0  0  0  0
   12.6147  -15.1545   27.4377 C   0  0  0  0  0  0  0  0  0  0  0  0
   12.3303  -16.3576   28.2945 C   0  0  0  0  0  0  0  0  0  0  0  0
   10.9956  -16.8307   27.7895 C   0  0  1  0  0  0  0  0  0  0  0  0
   10.2003  -17.1942   28.9980 C   0  0  0  0  0  0  0  0  0  0  0  0
   10.6561  -18.2996   29.7209 O   0  0  0  0  0  0  0  0  0  0  0  0
    9.1896  -16.6016   29.3977 O   0  0  0  0  0  0  0  0  0  0  0  0
  2  1  1  6
  2  3  1  0
  3  4  1  0
  4  8  1  0
  4  5  2  0
  6  7  2  0
  6  2  1  0
  9 10  1  0
 10 11  1  0
 11 13  1  0
 11 12  1  1
 13 14  1  6
 14  6  1  0
 15 13  1  0
 16 15  2  0
 17 18  1  0
 17 15  1  0
 19 18  1  0
 20 19  1  0
 21 20  1  0
 21 17  1  0
 21 22  1  1
 23 22  1  0
 24 22  2  0
M  END
$$$$
