DIP.pdb
     RDKit          3D

 24 24  0  0  1  0  0  0  0  0999 V2000
    9.3347  -15.2434   20.4930 N   0  0  0  0  0  0  0  0  0  0  0  0
    8.9399  -15.9741   21.6768 C   0  0  1  0  0  0  0  0  0  0  0  0
    9.5086  -17.3727   21.6956 C   0  0  0  0  0  0  0  0  0  0  0  0
    9.0429  -18.1320   20.5077 C   0  0  0  0  0  0  0  0  0  0  0  0
    9.8648  -18.5049   19.6585 O   0  0  0  0  0  0  0  0  0  0  0  0
    9.2791  -15.2214   22.9132 C   0  0  0  0  0  0  0  0  0  0  0  0
   10.3861  -14.6154   23.0050 O   0  0  0  0  0  0  0  0  0  0  0  0
    7.6978  -18.4186   20.3553 O   0  0  0  0  0  0  0  0  0  0  0  0
    5.6151  -12.2362   25.4789 C   0  0  0  0  0  0  0  0  0  0  0  0
    6.9480  -12.7348   24.9003 C   0  0  0  0  0  0  0  0  0  0  0  0
    7.3689  -13.9169   25.7207 C   0  0  2  0  0  0  0  0  0  0  0  0
    7.6185  -13.3844   27.1514 C   0  0  0  0  0  0  0  0  0  0  0  0
    8.6657  -14.5381   25.2850 C   0  0  2  0  0  0  0  0  0  0  0  0
    8.3735  -15.1757   23.9921 N   0  0  0  0  0  0  0  0  0  0  0  0
    9.2419  -15.5115   26.2257 C   0  0  0  0  0  0  0  0  0  0  0  0
    8.9344  -16.7552   26.0466 O   0  0  0  0  0  0  0  0  0  0  0  0
   10.1022  -15.2553   27.3140 N   0  0  0  0  0  0  0  0  0  0  0  0
   10.3486  -13.9028   27.8261 C   0  0  0  0  0  0  0  0  0  0  0  0
   11.7219  -13.9974   28.4783 C   0  0  0  0  0  0  0  0  0  0  0  0
   11.7275  -15.3813   29.0676 C   0  0  0  0  0  0  0  0  0  0  0  0
   10.8610  -16.1617   28.1188 C   0  0  1  0  0  0  0  0  0  0  0  0
    9.9960  -17.0315   28.9676 C   0  0  0  0  0  0  0  0  0  0  0  0
   10.6495  -18.0512   29.6645 O   0  0  0  0  0  0  0  0  0  0  0  0
    8.7700  -16.9184   29.0966 O   0  0  0  0  0  0  0  0  0  0  0  0
  2  1  1  6
  2  3  1  0
  3  4  1  0
  4  8  1  0
  4  5  2  0
  6  7  2  0
  6  2  1  0
  9 10  1  0
 10 11  1  0
 11 13  1  0
 11 12  1  1
 13 14  1  6
 14  6  1  0
 15 13  1  0
 16 15  2  0
 17 18  1  0
 17 15  1  0
 19 18  1  0
 20 19  1  0
 21 20  1  0
 21 17  1  0
 21 22  1  1
 23 22  1  0
 24 22  2  0
M  END
$$$$
