DIP.pdb
     RDKit          3D

 24 24  0  0  1  0  0  0  0  0999 V2000
    5.7892  -19.6638   26.1488 N   0  0  0  0  0  0  0  0  0  0  0  0
    6.7933  -18.6459   26.3649 C   0  0  1  0  0  0  0  0  0  0  0  0
    8.1932  -19.1858   26.1955 C   0  0  0  0  0  0  0  0  0  0  0  0
    8.6791  -19.7624   27.4747 C   0  0  0  0  0  0  0  0  0  0  0  0
    9.0560  -20.9424   27.5103 O   0  0  0  0  0  0  0  0  0  0  0  0
    6.5501  -17.4575   25.5054 C   0  0  0  0  0  0  0  0  0  0  0  0
    5.9475  -17.5849   24.4001 O   0  0  0  0  0  0  0  0  0  0  0  0
    8.7085  -18.9818   28.6167 O   0  0  0  0  0  0  0  0  0  0  0  0
    6.7378  -12.3311   27.6676 C   0  0  0  0  0  0  0  0  0  0  0  0
    6.2601  -13.4731   26.7579 C   0  0  0  0  0  0  0  0  0  0  0  0
    7.4200  -13.8584   25.8897 C   0  0  2  0  0  0  0  0  0  0  0  0
    7.6652  -12.6631   24.9389 C   0  0  0  0  0  0  0  0  0  0  0  0
    7.1569  -15.0399   24.9997 C   0  0  2  0  0  0  0  0  0  0  0  0
    6.9871  -16.1809   25.9122 N   0  0  0  0  0  0  0  0  0  0  0  0
    8.2040  -15.3215   24.0054 C   0  0  0  0  0  0  0  0  0  0  0  0
    9.2531  -15.9549   24.4196 O   0  0  0  0  0  0  0  0  0  0  0  0
    8.2071  -14.9838   22.6356 N   0  0  0  0  0  0  0  0  0  0  0  0
    7.1914  -14.1131   22.0333 C   0  0  0  0  0  0  0  0  0  0  0  0
    7.1686  -14.5283   20.5679 C   0  0  0  0  0  0  0  0  0  0  0  0
    8.6097  -14.8484   20.2793 C   0  0  0  0  0  0  0  0  0  0  0  0
    9.1193  -15.3565   21.5993 C   0  0  1  0  0  0  0  0  0  0  0  0
   10.4698  -14.7504   21.7833 C   0  0  0  0  0  0  0  0  0  0  0  0
   11.4626  -15.1888   20.9033 O   0  0  0  0  0  0  0  0  0  0  0  0
   10.7680  -13.9069   22.6389 O   0  0  0  0  0  0  0  0  0  0  0  0
  2  1  1  6
  2  3  1  0
  3  4  1  0
  4  8  1  0
  4  5  2  0
  6  7  2  0
  6  2  1  0
  9 10  1  0
 10 11  1  0
 11 13  1  0
 11 12  1  6
 13 14  1  1
 14  6  1  0
 15 13  1  0
 16 15  2  0
 17 18  1  0
 17 15  1  0
 19 18  1  0
 20 19  1  0
 21 20  1  0
 21 17  1  0
 21 22  1  1
 23 22  1  0
 24 22  2  0
M  END
$$$$
