SPP.pdb
     RDKit          3D

 21 22  0  0  1  0  0  0  0  0999 V2000
   10.7197  -18.2598   23.3227 O   0  0  0  0  0  0  0  0  0  0  0  0
   10.2583  -18.0980   22.0367 C   0  0  0  0  0  0  0  0  0  0  0  0
   10.7117  -16.7432   21.5264 C   0  0  2  0  0  0  0  0  0  0  0  0
   12.1325  -16.6635   21.5694 N   0  0  0  0  0  0  0  0  0  0  0  0
   10.0793  -15.6671   22.2990 C   0  0  0  0  0  0  0  0  0  0  0  0
   10.7789  -15.1501   23.2273 O   0  0  0  0  0  0  0  0  0  0  0  0
    8.7471  -15.2008   22.0476 N   0  0  0  0  0  0  0  0  0  0  0  0
    8.0107  -15.5395   20.8818 C   0  0  0  0  0  0  0  0  0  0  0  0
    6.7975  -14.6325   20.9127 C   0  0  0  0  0  0  0  0  0  0  0  0
    6.6175  -14.2734   22.3537 C   0  0  0  0  0  0  0  0  0  0  0  0
    8.0043  -14.3699   22.9039 C   0  0  1  0  0  0  0  0  0  0  0  0
    7.9927  -14.8120   24.3251 C   0  0  0  0  0  0  0  0  0  0  0  0
    8.3890  -15.9560   24.5975 O   0  0  0  0  0  0  0  0  0  0  0  0
    7.5284  -13.9000   25.2950 N   0  0  0  0  0  0  0  0  0  0  0  0
    7.1179  -12.5211   25.1100 C   0  0  0  0  0  0  0  0  0  0  0  0
    7.2496  -11.9007   26.5078 C   0  0  0  0  0  0  0  0  0  0  0  0
    6.7304  -13.0430   27.3558 C   0  0  0  0  0  0  0  0  0  0  0  0
    7.3867  -14.2317   26.7014 C   0  0  1  0  0  0  0  0  0  0  0  0
    6.5967  -15.4721   26.8974 C   0  0  0  0  0  0  0  0  0  0  0  0
    6.9292  -16.2617   27.9892 O   0  0  0  0  0  0  0  0  0  0  0  0
    5.6698  -15.8550   26.1670 O   0  0  0  0  0  0  0  0  0  0  0  0
  2  1  1  0
  3  2  1  0
  3  4  1  1
  5  3  1  0
  6  5  2  0
  7  5  1  0
  7  8  1  0
  9  8  1  0
 10 11  1  0
 10  9  1  0
 11  7  1  0
 11 12  1  1
 12 14  1  0
 13 12  2  0
 14 15  1  0
 14 18  1  0
 15 16  1  0
 17 16  1  0
 18 17  1  0
 18 19  1  6
 19 20  1  0
 21 19  2  0
M  END
$$$$
