SPP.pdb
     RDKit          3D

 21 22  0  0  1  0  0  0  0  0999 V2000
    9.1618  -18.3516   25.1262 O   0  0  0  0  0  0  0  0  0  0  0  0
    8.3978  -17.8689   26.1636 C   0  0  0  0  0  0  0  0  0  0  0  0
    6.9544  -17.7855   25.7039 C   0  0  2  0  0  0  0  0  0  0  0  0
    6.5088  -19.0699   25.2813 N   0  0  0  0  0  0  0  0  0  0  0  0
    6.8119  -16.7803   24.6438 C   0  0  0  0  0  0  0  0  0  0  0  0
    6.5253  -17.2174   23.4839 O   0  0  0  0  0  0  0  0  0  0  0  0
    6.9808  -15.3745   24.8692 N   0  0  0  0  0  0  0  0  0  0  0  0
    7.0307  -14.7942   26.1642 C   0  0  0  0  0  0  0  0  0  0  0  0
    6.9497  -13.3006   25.9228 C   0  0  0  0  0  0  0  0  0  0  0  0
    7.4507  -13.1049   24.5269 C   0  0  0  0  0  0  0  0  0  0  0  0
    7.1230  -14.4037   23.8629 C   0  0  1  0  0  0  0  0  0  0  0  0
    8.1287  -14.7473   22.8207 C   0  0  0  0  0  0  0  0  0  0  0  0
    8.9638  -15.6319   23.0659 O   0  0  0  0  0  0  0  0  0  0  0  0
    8.0790  -14.0438   21.5998 N   0  0  0  0  0  0  0  0  0  0  0  0
    7.1977  -12.9546   21.2241 C   0  0  0  0  0  0  0  0  0  0  0  0
    7.2138  -12.9725   19.6894 C   0  0  0  0  0  0  0  0  0  0  0  0
    8.6787  -13.2670   19.4423 C   0  0  0  0  0  0  0  0  0  0  0  0
    8.9559  -14.3266   20.4777 C   0  0  1  0  0  0  0  0  0  0  0  0
   10.3828  -14.3379   20.8836 C   0  0  0  0  0  0  0  0  0  0  0  0
   11.2637  -15.0259   20.0609 O   0  0  0  0  0  0  0  0  0  0  0  0
   10.8457  -13.7847   21.8930 O   0  0  0  0  0  0  0  0  0  0  0  0
  2  1  1  0
  3  2  1  0
  3  4  1  6
  5  3  1  0
  6  5  2  0
  7  5  1  0
  7  8  1  0
  9  8  1  0
 10 11  1  0
 10  9  1  0
 11  7  1  0
 11 12  1  6
 12 14  1  0
 13 12  2  0
 14 15  1  0
 14 18  1  0
 15 16  1  0
 17 16  1  0
 18 17  1  0
 18 19  1  1
 19 20  1  0
 21 19  2  0
M  END
$$$$
