SPP.pdb
     RDKit          3D

 21 22  0  0  1  0  0  0  0  0999 V2000
    8.7975  -17.1806   22.2597 O   0  0  0  0  0  0  0  0  0  0  0  0
    7.6978  -16.3748   22.0746 C   0  0  0  0  0  0  0  0  0  0  0  0
    8.1596  -14.9308   22.0175 C   0  0  2  0  0  0  0  0  0  0  0  0
    9.1669  -14.7866   21.0218 N   0  0  0  0  0  0  0  0  0  0  0  0
    8.6273  -14.4902   23.3372 C   0  0  0  0  0  0  0  0  0  0  0  0
    9.8871  -14.4676   23.5131 O   0  0  0  0  0  0  0  0  0  0  0  0
    7.7392  -14.1005   24.3933 N   0  0  0  0  0  0  0  0  0  0  0  0
    6.3525  -13.8665   24.1976 C   0  0  0  0  0  0  0  0  0  0  0  0
    5.8801  -13.2340   25.4908 C   0  0  0  0  0  0  0  0  0  0  0  0
    6.8614  -13.6858   26.5255 C   0  0  0  0  0  0  0  0  0  0  0  0
    8.1108  -13.9081   25.7350 C   0  0  1  0  0  0  0  0  0  0  0  0
    8.9238  -15.0153   26.3083 C   0  0  0  0  0  0  0  0  0  0  0  0
    8.8916  -16.1266   25.7570 O   0  0  0  0  0  0  0  0  0  0  0  0
    9.6941  -14.7406   27.4569 N   0  0  0  0  0  0  0  0  0  0  0  0
    9.8489  -13.4792   28.1560 C   0  0  0  0  0  0  0  0  0  0  0  0
   11.1625  -13.6410   28.9335 C   0  0  0  0  0  0  0  0  0  0  0  0
   11.0276  -15.0797   29.3868 C   0  0  0  0  0  0  0  0  0  0  0  0
   10.4894  -15.7420   28.1444 C   0  0  1  0  0  0  0  0  0  0  0  0
    9.6925  -16.9509   28.4678 C   0  0  0  0  0  0  0  0  0  0  0  0
   10.3921  -18.0612   28.9194 O   0  0  0  0  0  0  0  0  0  0  0  0
    8.4596  -17.0454   28.3666 O   0  0  0  0  0  0  0  0  0  0  0  0
  2  1  1  0
  3  2  1  0
  3  4  1  6
  5  3  1  0
  6  5  2  0
  7  5  1  0
  7  8  1  0
  9  8  1  0
 10 11  1  0
 10  9  1  0
 11  7  1  0
 11 12  1  1
 12 14  1  0
 13 12  2  0
 14 15  1  0
 14 18  1  0
 15 16  1  0
 17 16  1  0
 18 17  1  0
 18 19  1  1
 19 20  1  0
 21 19  2  0
M  END
$$$$
