SPP.pdb
     RDKit          3D

 21 22  0  0  1  0  0  0  0  0999 V2000
   10.9333  -18.2557   23.1723 O   0  0  0  0  0  0  0  0  0  0  0  0
   10.3035  -18.0198   21.9720 C   0  0  0  0  0  0  0  0  0  0  0  0
   10.7350  -16.6593   21.4578 C   0  0  2  0  0  0  0  0  0  0  0  0
   12.1553  -16.5649   21.4795 N   0  0  0  0  0  0  0  0  0  0  0  0
   10.1033  -15.5915   22.2423 C   0  0  0  0  0  0  0  0  0  0  0  0
   10.8112  -15.0697   23.1616 O   0  0  0  0  0  0  0  0  0  0  0  0
    8.7629  -15.1379   22.0115 N   0  0  0  0  0  0  0  0  0  0  0  0
    8.0229  -15.4585   20.8428 C   0  0  0  0  0  0  0  0  0  0  0  0
    6.7975  -14.5696   20.9042 C   0  0  0  0  0  0  0  0  0  0  0  0
    6.6230  -14.2481   22.3547 C   0  0  0  0  0  0  0  0  0  0  0  0
    8.0149  -14.3385   22.8928 C   0  0  1  0  0  0  0  0  0  0  0  0
    8.0197  -14.8151   24.3029 C   0  0  0  0  0  0  0  0  0  0  0  0
    8.3962  -15.9736   24.5401 O   0  0  0  0  0  0  0  0  0  0  0  0
    7.5927  -13.9177   25.3032 N   0  0  0  0  0  0  0  0  0  0  0  0
    7.2263  -12.5214   25.1623 C   0  0  0  0  0  0  0  0  0  0  0  0
    7.3885  -11.9474   26.5767 C   0  0  0  0  0  0  0  0  0  0  0  0
    6.8383  -13.0970   27.3948 C   0  0  0  0  0  0  0  0  0  0  0  0
    7.4505  -14.2864   26.7002 C   0  0  1  0  0  0  0  0  0  0  0  0
    6.6217  -15.5057   26.8661 C   0  0  0  0  0  0  0  0  0  0  0  0
    6.8630  -16.2799   27.9923 O   0  0  0  0  0  0  0  0  0  0  0  0
    5.7371  -15.8836   26.0826 O   0  0  0  0  0  0  0  0  0  0  0  0
  2  1  1  0
  3  2  1  0
  3  4  1  1
  5  3  1  0
  6  5  2  0
  7  5  1  0
  7  8  1  0
  9  8  1  0
 10 11  1  0
 10  9  1  0
 11  7  1  0
 11 12  1  1
 12 14  1  0
 13 12  2  0
 14 15  1  0
 14 18  1  0
 15 16  1  0
 17 16  1  0
 18 17  1  0
 18 19  1  6
 19 20  1  0
 21 19  2  0
M  END
$$$$
