SPP.pdb
     RDKit          3D

 21 22  0  0  1  0  0  0  0  0999 V2000
    9.1026  -17.6811   15.3885 O   0  0  0  0  0  0  0  0  0  0  0  0
    8.2719  -16.5879   15.3003 C   0  0  0  0  0  0  0  0  0  0  0  0
    9.1203  -15.3308   15.3368 C   0  0  2  0  0  0  0  0  0  0  0  0
   10.2016  -15.4530   14.4188 N   0  0  0  0  0  0  0  0  0  0  0  0
    9.5889  -15.0688   16.7030 C   0  0  0  0  0  0  0  0  0  0  0  0
   10.7216  -15.5561   17.0163 O   0  0  0  0  0  0  0  0  0  0  0  0
    8.8354  -14.3096   17.6577 N   0  0  0  0  0  0  0  0  0  0  0  0
    7.7107  -13.5163   17.3083 C   0  0  0  0  0  0  0  0  0  0  0  0
    7.4066  -12.7063   18.5520 C   0  0  0  0  0  0  0  0  0  0  0  0
    7.9788  -13.5010   19.6828 C   0  0  0  0  0  0  0  0  0  0  0  0
    9.0975  -14.2539   19.0373 C   0  0  1  0  0  0  0  0  0  0  0  0
    9.2935  -15.5841   19.6758 C   0  0  0  0  0  0  0  0  0  0  0  0
    8.7360  -16.5739   19.1762 O   0  0  0  0  0  0  0  0  0  0  0  0
   10.1091  -15.6501   20.8240 N   0  0  0  0  0  0  0  0  0  0  0  0
   10.9072  -14.5970   21.4226 C   0  0  0  0  0  0  0  0  0  0  0  0
   11.9545  -15.3487   22.2557 C   0  0  0  0  0  0  0  0  0  0  0  0
   11.0963  -16.4615   22.8202 C   0  0  0  0  0  0  0  0  0  0  0  0
   10.2759  -16.8539   21.6183 C   0  0  1  0  0  0  0  0  0  0  0  0
    8.9704  -17.4389   22.0117 C   0  0  0  0  0  0  0  0  0  0  0  0
    8.9809  -18.7528   22.4585 O   0  0  0  0  0  0  0  0  0  0  0  0
    7.8794  -16.8495   21.9725 O   0  0  0  0  0  0  0  0  0  0  0  0
  2  1  1  0
  3  2  1  0
  3  4  1  6
  5  3  1  0
  6  5  2  0
  7  5  1  0
  7  8  1  0
  9  8  1  0
 10 11  1  0
 10  9  1  0
 11  7  1  0
 11 12  1  1
 12 14  1  0
 13 12  2  0
 14 15  1  0
 14 18  1  0
 15 16  1  0
 17 16  1  0
 18 17  1  0
 18 19  1  1
 19 20  1  0
 21 19  2  0
M  END
$$$$
