SPP.pdb
     RDKit          3D

 21 22  0  0  1  0  0  0  0  0999 V2000
   11.7406  -18.8133   21.0241 O   0  0  0  0  0  0  0  0  0  0  0  0
   11.5705  -17.8492   21.9908 C   0  0  0  0  0  0  0  0  0  0  0  0
   10.4660  -16.9084   21.5476 C   0  0  2  0  0  0  0  0  0  0  0  0
   10.9606  -16.0219   20.5494 N   0  0  0  0  0  0  0  0  0  0  0  0
    9.9174  -16.1838   22.7002 C   0  0  0  0  0  0  0  0  0  0  0  0
   10.5332  -15.1269   23.0500 O   0  0  0  0  0  0  0  0  0  0  0  0
    8.7529  -16.6167   23.4159 N   0  0  0  0  0  0  0  0  0  0  0  0
    7.8933  -17.6477   22.9531 C   0  0  0  0  0  0  0  0  0  0  0  0
    6.6849  -17.5829   23.8647 C   0  0  0  0  0  0  0  0  0  0  0  0
    7.1807  -16.9418   25.1221 C   0  0  0  0  0  0  0  0  0  0  0  0
    8.3181  -16.0960   24.6468 C   0  0  1  0  0  0  0  0  0  0  0  0
    9.3860  -15.9959   25.6789 C   0  0  0  0  0  0  0  0  0  0  0  0
   10.3024  -16.8327   25.6725 O   0  0  0  0  0  0  0  0  0  0  0  0
    9.2992  -14.9471   26.6172 N   0  0  0  0  0  0  0  0  0  0  0  0
    8.3778  -13.8269   26.6319 C   0  0  0  0  0  0  0  0  0  0  0  0
    9.0780  -12.7779   27.5067 C   0  0  0  0  0  0  0  0  0  0  0  0
    9.6560  -13.6724   28.5833 C   0  0  0  0  0  0  0  0  0  0  0  0
   10.1725  -14.8326   27.7714 C   0  0  1  0  0  0  0  0  0  0  0  0
   10.2045  -16.0864   28.5639 C   0  0  0  0  0  0  0  0  0  0  0  0
   11.2830  -16.2603   29.4197 O   0  0  0  0  0  0  0  0  0  0  0  0
    9.3490  -16.9839   28.5210 O   0  0  0  0  0  0  0  0  0  0  0  0
  2  1  1  0
  3  2  1  0
  3  4  1  6
  5  3  1  0
  6  5  2  0
  7  5  1  0
  7  8  1  0
  9  8  1  0
 10 11  1  0
 10  9  1  0
 11  7  1  0
 11 12  1  1
 12 14  1  0
 13 12  2  0
 14 15  1  0
 14 18  1  0
 15 16  1  0
 17 16  1  0
 18 17  1  0
 18 19  1  1
 19 20  1  0
 21 19  2  0
M  END
$$$$
