SPP.pdb
     RDKit          3D

 21 22  0  0  1  0  0  0  0  0999 V2000
    8.9208  -18.6882   18.9422 O   0  0  0  0  0  0  0  0  0  0  0  0
    8.6740  -17.7070   18.0098 C   0  0  0  0  0  0  0  0  0  0  0  0
    9.6841  -16.5914   18.2018 C   0  0  2  0  0  0  0  0  0  0  0  0
   10.9986  -17.0874   17.9716 N   0  0  0  0  0  0  0  0  0  0  0  0
    9.5478  -16.0018   19.5391 C   0  0  0  0  0  0  0  0  0  0  0  0
   10.3300  -16.4488   20.4374 O   0  0  0  0  0  0  0  0  0  0  0  0
    8.5947  -14.9769   19.8501 N   0  0  0  0  0  0  0  0  0  0  0  0
    7.8616  -14.2696   18.8609 C   0  0  0  0  0  0  0  0  0  0  0  0
    7.1971  -13.1326   19.6103 C   0  0  0  0  0  0  0  0  0  0  0  0
    7.1087  -13.6011   21.0282 C   0  0  0  0  0  0  0  0  0  0  0  0
    8.2598  -14.5478   21.1459 C   0  0  1  0  0  0  0  0  0  0  0  0
    7.9564  -15.6529   22.0957 C   0  0  0  0  0  0  0  0  0  0  0  0
    7.4748  -16.7066   21.6510 O   0  0  0  0  0  0  0  0  0  0  0  0
    8.2344  -15.4424   23.4619 N   0  0  0  0  0  0  0  0  0  0  0  0
    8.8571  -14.2908   24.0864 C   0  0  0  0  0  0  0  0  0  0  0  0
    9.3832  -14.8293   25.4240 C   0  0  0  0  0  0  0  0  0  0  0  0
    8.2373  -15.7396   25.8134 C   0  0  0  0  0  0  0  0  0  0  0  0
    7.9176  -16.4066   24.5001 C   0  0  1  0  0  0  0  0  0  0  0  0
    6.5001  -16.8399   24.4348 C   0  0  0  0  0  0  0  0  0  0  0  0
    6.1733  -18.0179   25.0917 O   0  0  0  0  0  0  0  0  0  0  0  0
    5.5921  -16.2357   23.8436 O   0  0  0  0  0  0  0  0  0  0  0  0
  2  1  1  0
  3  2  1  0
  3  4  1  1
  5  3  1  0
  6  5  2  0
  7  5  1  0
  7  8  1  0
  9  8  1  0
 10 11  1  0
 10  9  1  0
 11  7  1  0
 11 12  1  1
 12 14  1  0
 13 12  2  0
 14 15  1  0
 14 18  1  0
 15 16  1  0
 17 16  1  0
 18 17  1  0
 18 19  1  1
 19 20  1  0
 21 19  2  0
M  END
$$$$
