SPP.pdb
     RDKit          3D

 21 22  0  0  1  0  0  0  0  0999 V2000
   10.8601  -18.2983   23.1912 O   0  0  0  0  0  0  0  0  0  0  0  0
   10.2398  -18.0879   21.9813 C   0  0  0  0  0  0  0  0  0  0  0  0
   10.6845  -16.7438   21.4363 C   0  0  2  0  0  0  0  0  0  0  0  0
   12.1066  -16.6784   21.4182 N   0  0  0  0  0  0  0  0  0  0  0  0
   10.0962  -15.6526   22.2222 C   0  0  0  0  0  0  0  0  0  0  0  0
   10.8357  -15.1399   23.1216 O   0  0  0  0  0  0  0  0  0  0  0  0
    8.7632  -15.1673   22.0140 N   0  0  0  0  0  0  0  0  0  0  0  0
    7.9864  -15.4918   20.8705 C   0  0  0  0  0  0  0  0  0  0  0  0
    6.7872  -14.5686   20.9421 C   0  0  0  0  0  0  0  0  0  0  0  0
    6.6570  -14.2124   22.3892 C   0  0  0  0  0  0  0  0  0  0  0  0
    8.0587  -14.3297   22.8956 C   0  0  1  0  0  0  0  0  0  0  0  0
    8.0853  -14.7768   24.3151 C   0  0  0  0  0  0  0  0  0  0  0  0
    8.4367  -15.9399   24.5679 O   0  0  0  0  0  0  0  0  0  0  0  0
    7.7068  -13.8477   25.3058 N   0  0  0  0  0  0  0  0  0  0  0  0
    7.4016  -12.4385   25.1481 C   0  0  0  0  0  0  0  0  0  0  0  0
    7.6007  -11.8529   26.5529 C   0  0  0  0  0  0  0  0  0  0  0  0
    7.0067  -12.9655   27.3913 C   0  0  0  0  0  0  0  0  0  0  0  0
    7.5598  -14.1904   26.7089 C   0  0  1  0  0  0  0  0  0  0  0  0
    6.6791  -15.3692   26.8982 C   0  0  0  0  0  0  0  0  0  0  0  0
    6.9457  -16.1826   27.9907 O   0  0  0  0  0  0  0  0  0  0  0  0
    5.7307  -15.6816   26.1618 O   0  0  0  0  0  0  0  0  0  0  0  0
  2  1  1  0
  3  2  1  0
  3  4  1  1
  5  3  1  0
  6  5  2  0
  7  5  1  0
  7  8  1  0
  9  8  1  0
 10 11  1  0
 10  9  1  0
 11  7  1  0
 11 12  1  1
 12 14  1  0
 13 12  2  0
 14 15  1  0
 14 18  1  0
 15 16  1  0
 17 16  1  0
 18 17  1  0
 18 19  1  6
 19 20  1  0
 21 19  2  0
M  END
$$$$
