SPP.pdb
     RDKit          3D

 21 22  0  0  1  0  0  0  0  0999 V2000
    9.1935  -17.3040   22.3285 O   0  0  0  0  0  0  0  0  0  0  0  0
    8.0588  -16.6024   21.9924 C   0  0  0  0  0  0  0  0  0  0  0  0
    8.4020  -15.1259   21.9331 C   0  0  2  0  0  0  0  0  0  0  0  0
    9.3904  -14.9013   20.9333 N   0  0  0  0  0  0  0  0  0  0  0  0
    8.8378  -14.6482   23.2508 C   0  0  0  0  0  0  0  0  0  0  0  0
   10.0929  -14.6233   23.4575 O   0  0  0  0  0  0  0  0  0  0  0  0
    7.9248  -14.2259   24.2724 N   0  0  0  0  0  0  0  0  0  0  0  0
    6.5349  -14.0428   24.0470 C   0  0  0  0  0  0  0  0  0  0  0  0
    6.0273  -13.3530   25.2969 C   0  0  0  0  0  0  0  0  0  0  0  0
    7.0065  -13.7184   26.3672 C   0  0  0  0  0  0  0  0  0  0  0  0
    8.2723  -13.9485   25.6057 C   0  0  1  0  0  0  0  0  0  0  0  0
    9.1078  -14.9985   26.2500 C   0  0  0  0  0  0  0  0  0  0  0  0
    9.1796  -16.1158   25.7147 O   0  0  0  0  0  0  0  0  0  0  0  0
    9.7793  -14.6654   27.4442 N   0  0  0  0  0  0  0  0  0  0  0  0
    9.7912  -13.3958   28.1457 C   0  0  0  0  0  0  0  0  0  0  0  0
   11.0606  -13.4559   29.0066 C   0  0  0  0  0  0  0  0  0  0  0  0
   11.0080  -14.9007   29.4573 C   0  0  0  0  0  0  0  0  0  0  0  0
   10.6034  -15.6024   28.1862 C   0  0  1  0  0  0  0  0  0  0  0  0
    9.8828  -16.8693   28.4637 C   0  0  0  0  0  0  0  0  0  0  0  0
   10.6601  -17.9891   28.7240 O   0  0  0  0  0  0  0  0  0  0  0  0
    8.6496  -17.0039   28.4809 O   0  0  0  0  0  0  0  0  0  0  0  0
  2  1  1  0
  3  2  1  0
  3  4  1  6
  5  3  1  0
  6  5  2  0
  7  5  1  0
  7  8  1  0
  9  8  1  0
 10 11  1  0
 10  9  1  0
 11  7  1  0
 11 12  1  1
 12 14  1  0
 13 12  2  0
 14 15  1  0
 14 18  1  0
 15 16  1  0
 17 16  1  0
 18 17  1  0
 18 19  1  1
 19 20  1  0
 21 19  2  0
M  END
$$$$
