SPP.pdb
     RDKit          3D

 21 22  0  0  1  0  0  0  0  0999 V2000
   10.3108  -18.3510   22.8874 O   0  0  0  0  0  0  0  0  0  0  0  0
   11.4223  -17.6540   22.4732 C   0  0  0  0  0  0  0  0  0  0  0  0
   10.9768  -16.5370   21.5485 C   0  0  2  0  0  0  0  0  0  0  0  0
   12.1115  -15.9533   20.9172 N   0  0  0  0  0  0  0  0  0  0  0  0
   10.1901  -15.5428   22.2883 C   0  0  0  0  0  0  0  0  0  0  0  0
   10.8258  -14.8280   23.1271 O   0  0  0  0  0  0  0  0  0  0  0  0
    8.7803  -15.3619   22.1006 N   0  0  0  0  0  0  0  0  0  0  0  0
    8.0453  -15.9955   21.0641 C   0  0  0  0  0  0  0  0  0  0  0  0
    6.6879  -15.3228   21.0846 C   0  0  0  0  0  0  0  0  0  0  0  0
    6.5393  -14.7900   22.4745 C   0  0  0  0  0  0  0  0  0  0  0  0
    7.9528  -14.5569   22.9022 C   0  0  1  0  0  0  0  0  0  0  0  0
    8.1186  -14.7768   24.3649 C   0  0  0  0  0  0  0  0  0  0  0  0
    8.6826  -15.8120   24.7526 O   0  0  0  0  0  0  0  0  0  0  0  0
    7.6220  -13.7892   25.2401 N   0  0  0  0  0  0  0  0  0  0  0  0
    7.0300  -12.5074   24.9074 C   0  0  0  0  0  0  0  0  0  0  0  0
    7.1927  -11.6765   26.1877 C   0  0  0  0  0  0  0  0  0  0  0  0
    6.8876  -12.7317   27.2302 C   0  0  0  0  0  0  0  0  0  0  0  0
    7.6333  -13.9231   26.6858 C   0  0  1  0  0  0  0  0  0  0  0  0
    7.0214  -15.2014   27.1248 C   0  0  0  0  0  0  0  0  0  0  0  0
    7.4706  -15.7319   28.3260 O   0  0  0  0  0  0  0  0  0  0  0  0
    6.1469  -15.8275   26.5066 O   0  0  0  0  0  0  0  0  0  0  0  0
  2  1  1  0
  3  2  1  0
  3  4  1  1
  5  3  1  0
  6  5  2  0
  7  5  1  0
  7  8  1  0
  9  8  1  0
 10 11  1  0
 10  9  1  0
 11  7  1  0
 11 12  1  1
 12 14  1  0
 13 12  2  0
 14 15  1  0
 14 18  1  0
 15 16  1  0
 17 16  1  0
 18 17  1  0
 18 19  1  6
 19 20  1  0
 21 19  2  0
M  END
$$$$
