SPP.pdb
     RDKit          3D

 21 22  0  0  1  0  0  0  0  0999 V2000
    8.5413  -17.0759   22.2494 O   0  0  0  0  0  0  0  0  0  0  0  0
    7.4935  -16.1953   22.1095 C   0  0  0  0  0  0  0  0  0  0  0  0
    8.0499  -14.7849   22.0562 C   0  0  2  0  0  0  0  0  0  0  0  0
    9.0525  -14.7008   21.0489 N   0  0  0  0  0  0  0  0  0  0  0  0
    8.5619  -14.3864   23.3729 C   0  0  0  0  0  0  0  0  0  0  0  0
    9.8243  -14.4275   23.5257 O   0  0  0  0  0  0  0  0  0  0  0  0
    7.7128  -13.9691   24.4502 N   0  0  0  0  0  0  0  0  0  0  0  0
    6.3336  -13.6747   24.2851 C   0  0  0  0  0  0  0  0  0  0  0  0
    5.9149  -13.0345   25.5930 C   0  0  0  0  0  0  0  0  0  0  0  0
    6.8969  -13.5371   26.6034 C   0  0  0  0  0  0  0  0  0  0  0  0
    8.1194  -13.8049   25.7855 C   0  0  1  0  0  0  0  0  0  0  0  0
    8.8959  -14.9508   26.3327 C   0  0  0  0  0  0  0  0  0  0  0  0
    8.8089  -16.0536   25.7701 O   0  0  0  0  0  0  0  0  0  0  0  0
    9.6960  -14.7210   27.4707 N   0  0  0  0  0  0  0  0  0  0  0  0
    9.8608  -13.4908   28.2212 C   0  0  0  0  0  0  0  0  0  0  0  0
   11.1969  -13.6756   28.9540 C   0  0  0  0  0  0  0  0  0  0  0  0
   11.0857  -15.1342   29.3457 C   0  0  0  0  0  0  0  0  0  0  0  0
   10.5179  -15.7450   28.0902 C   0  0  1  0  0  0  0  0  0  0  0  0
    9.7396  -16.9742   28.3809 C   0  0  0  0  0  0  0  0  0  0  0  0
   10.4593  -18.0947   28.7717 O   0  0  0  0  0  0  0  0  0  0  0  0
    8.5058  -17.0772   28.3023 O   0  0  0  0  0  0  0  0  0  0  0  0
  2  1  1  0
  3  2  1  0
  3  4  1  6
  5  3  1  0
  6  5  2  0
  7  5  1  0
  7  8  1  0
  9  8  1  0
 10 11  1  0
 10  9  1  0
 11  7  1  0
 11 12  1  1
 12 14  1  0
 13 12  2  0
 14 15  1  0
 14 18  1  0
 15 16  1  0
 17 16  1  0
 18 17  1  0
 18 19  1  1
 19 20  1  0
 21 19  2  0
M  END
$$$$
