SPP.pdb
     RDKit          3D

 21 22  0  0  1  0  0  0  0  0999 V2000
    8.2307  -16.8429   21.9033 O   0  0  0  0  0  0  0  0  0  0  0  0
    7.1787  -15.9712   22.0655 C   0  0  0  0  0  0  0  0  0  0  0  0
    7.7133  -14.5524   22.0161 C   0  0  2  0  0  0  0  0  0  0  0  0
    8.6413  -14.4248   20.9439 N   0  0  0  0  0  0  0  0  0  0  0  0
    8.3122  -14.1856   23.3050 C   0  0  0  0  0  0  0  0  0  0  0  0
    9.5816  -14.2347   23.3741 O   0  0  0  0  0  0  0  0  0  0  0  0
    7.5374  -13.7898   24.4447 N   0  0  0  0  0  0  0  0  0  0  0  0
    6.1454  -13.5168   24.3828 C   0  0  0  0  0  0  0  0  0  0  0  0
    5.8130  -12.8928   25.7229 C   0  0  0  0  0  0  0  0  0  0  0  0
    6.8738  -13.3864   26.6550 C   0  0  0  0  0  0  0  0  0  0  0  0
    8.0375  -13.6284   25.7481 C   0  0  1  0  0  0  0  0  0  0  0  0
    8.8699  -14.7653   26.2279 C   0  0  0  0  0  0  0  0  0  0  0  0
    8.8269  -15.8396   25.6082 O   0  0  0  0  0  0  0  0  0  0  0  0
    9.6698  -14.5599   27.3707 N   0  0  0  0  0  0  0  0  0  0  0  0
    9.8181  -13.3521   28.1601 C   0  0  0  0  0  0  0  0  0  0  0  0
   11.1590  -13.5398   28.8831 C   0  0  0  0  0  0  0  0  0  0  0  0
   11.0714  -15.0118   29.2280 C   0  0  0  0  0  0  0  0  0  0  0  0
   10.5092  -15.5906   27.9549 C   0  0  1  0  0  0  0  0  0  0  0  0
    9.7507  -16.8403   28.2078 C   0  0  0  0  0  0  0  0  0  0  0  0
   10.4800  -18.0205   28.2436 O   0  0  0  0  0  0  0  0  0  0  0  0
    8.5253  -16.9114   28.3882 O   0  0  0  0  0  0  0  0  0  0  0  0
  2  1  1  0
  3  2  1  0
  3  4  1  6
  5  3  1  0
  6  5  2  0
  7  5  1  0
  7  8  1  0
  9  8  1  0
 10 11  1  0
 10  9  1  0
 11  7  1  0
 11 12  1  1
 12 14  1  0
 13 12  2  0
 14 15  1  0
 14 18  1  0
 15 16  1  0
 17 16  1  0
 18 17  1  0
 18 19  1  1
 19 20  1  0
 21 19  2  0
M  END
$$$$
