SPP.pdb
     RDKit          3D

 21 22  0  0  1  0  0  0  0  0999 V2000
    8.5414  -16.9470   22.2453 O   0  0  0  0  0  0  0  0  0  0  0  0
    7.4793  -16.0836   22.1060 C   0  0  0  0  0  0  0  0  0  0  0  0
    8.0116  -14.6635   22.0661 C   0  0  2  0  0  0  0  0  0  0  0  0
    8.9858  -14.5435   21.0349 N   0  0  0  0  0  0  0  0  0  0  0  0
    8.5516  -14.2821   23.3766 C   0  0  0  0  0  0  0  0  0  0  0  0
    9.8151  -14.3487   23.5096 O   0  0  0  0  0  0  0  0  0  0  0  0
    7.7277  -13.8541   24.4691 N   0  0  0  0  0  0  0  0  0  0  0  0
    6.3483  -13.5473   24.3302 C   0  0  0  0  0  0  0  0  0  0  0  0
    5.9612  -12.8998   25.6442 C   0  0  0  0  0  0  0  0  0  0  0  0
    6.9581  -13.4088   26.6366 C   0  0  0  0  0  0  0  0  0  0  0  0
    8.1618  -13.6901   25.7958 C   0  0  1  0  0  0  0  0  0  0  0  0
    8.9383  -14.8418   26.3309 C   0  0  0  0  0  0  0  0  0  0  0  0
    8.8521  -15.9383   25.7562 O   0  0  0  0  0  0  0  0  0  0  0  0
    9.7374  -14.6242   27.4720 N   0  0  0  0  0  0  0  0  0  0  0  0
    9.9134  -13.3982   28.2268 C   0  0  0  0  0  0  0  0  0  0  0  0
   11.2451  -13.5999   28.9629 C   0  0  0  0  0  0  0  0  0  0  0  0
   11.1168  -15.0584   29.3499 C   0  0  0  0  0  0  0  0  0  0  0  0
   10.5462  -15.6591   28.0908 C   0  0  1  0  0  0  0  0  0  0  0  0
    9.7535  -16.8805   28.3753 C   0  0  0  0  0  0  0  0  0  0  0  0
   10.4638  -18.0280   28.6993 O   0  0  0  0  0  0  0  0  0  0  0  0
    8.5155  -16.9550   28.3464 O   0  0  0  0  0  0  0  0  0  0  0  0
  2  1  1  0
  3  2  1  0
  3  4  1  6
  5  3  1  0
  6  5  2  0
  7  5  1  0
  7  8  1  0
  9  8  1  0
 10 11  1  0
 10  9  1  0
 11  7  1  0
 11 12  1  1
 12 14  1  0
 13 12  2  0
 14 15  1  0
 14 18  1  0
 15 16  1  0
 17 16  1  0
 18 17  1  0
 18 19  1  1
 19 20  1  0
 21 19  2  0
M  END
$$$$
