SPP.pdb
     RDKit          3D

 21 22  0  0  1  0  0  0  0  0999 V2000
    9.1309  -17.3027   22.1494 O   0  0  0  0  0  0  0  0  0  0  0  0
    7.9588  -16.5880   22.0591 C   0  0  0  0  0  0  0  0  0  0  0  0
    8.2968  -15.1111   21.9810 C   0  0  2  0  0  0  0  0  0  0  0  0
    9.2826  -14.8954   20.9768 N   0  0  0  0  0  0  0  0  0  0  0  0
    8.7332  -14.6157   23.2920 C   0  0  0  0  0  0  0  0  0  0  0  0
    9.9892  -14.5277   23.4747 O   0  0  0  0  0  0  0  0  0  0  0  0
    7.8199  -14.2434   24.3326 N   0  0  0  0  0  0  0  0  0  0  0  0
    6.4227  -14.0966   24.1264 C   0  0  0  0  0  0  0  0  0  0  0  0
    5.9094  -13.4501   25.3969 C   0  0  0  0  0  0  0  0  0  0  0  0
    6.9110  -13.8100   26.4480 C   0  0  0  0  0  0  0  0  0  0  0  0
    8.1743  -13.9856   25.6680 C   0  0  1  0  0  0  0  0  0  0  0  0
    9.0476  -15.0243   26.2794 C   0  0  0  0  0  0  0  0  0  0  0  0
    9.1153  -16.1400   25.7402 O   0  0  0  0  0  0  0  0  0  0  0  0
    9.7578  -14.6831   27.4487 N   0  0  0  0  0  0  0  0  0  0  0  0
    9.7593  -13.4215   28.1647 C   0  0  0  0  0  0  0  0  0  0  0  0
   11.0649  -13.4505   28.9712 C   0  0  0  0  0  0  0  0  0  0  0  0
   11.0767  -14.9012   29.4059 C   0  0  0  0  0  0  0  0  0  0  0  0
   10.6414  -15.6014   28.1442 C   0  0  1  0  0  0  0  0  0  0  0  0
    9.9733  -16.8936   28.4359 C   0  0  0  0  0  0  0  0  0  0  0  0
    8.5861  -16.8872   28.4777 O   0  0  0  0  0  0  0  0  0  0  0  0
   10.5536  -17.9703   28.6435 O   0  0  0  0  0  0  0  0  0  0  0  0
  2  1  1  0
  3  2  1  0
  3  4  1  6
  5  3  1  0
  6  5  2  0
  7  5  1  0
  7  8  1  0
  9  8  1  0
 10 11  1  0
 10  9  1  0
 11  7  1  0
 11 12  1  1
 12 14  1  0
 13 12  2  0
 14 15  1  0
 14 18  1  0
 15 16  1  0
 17 16  1  0
 18 17  1  0
 18 19  1  1
 19 20  1  0
 21 19  2  0
M  END
$$$$
