HST.pdb
     RDKit          3D

 24 24  0  0  1  0  0  0  0  0999 V2000
    9.3526  -16.2531   20.2314 N   0  0  0  0  0  0  0  0  0  0  0  0
    8.9683  -15.2093   21.1285 C   0  0  1  0  0  0  0  0  0  0  0  0
    7.6385  -14.6167   20.7141 C   0  0  0  0  0  0  0  0  0  0  0  0
    7.6021  -14.2556   19.2839 C   0  0  0  0  0  0  0  0  0  0  0  0
    7.7536  -13.0084   18.7548 C   0  0  0  0  0  0  0  0  0  0  0  0
    7.6527  -13.1159   17.4030 N   0  0  0  0  0  0  0  0  0  0  0  0
    7.4407  -14.4235   17.1112 C   0  0  0  0  0  0  0  0  0  0  0  0
    7.4115  -15.1136   18.2733 N   0  0  0  0  0  0  0  0  0  0  0  0
    8.8472  -15.6437   22.5264 C   0  0  0  0  0  0  0  0  0  0  0  0
    7.9517  -15.0941   23.2488 O   0  0  0  0  0  0  0  0  0  0  0  0
   10.8279  -18.9157   24.1596 O   0  0  0  0  0  0  0  0  0  0  0  0
    9.5883  -18.5326   24.7022 C   0  0  0  0  0  0  0  0  0  0  0  0
    9.4490  -17.0322   24.5410 C   0  0  2  0  0  0  0  0  0  0  0  0
    9.6361  -16.6257   23.1631 N   0  0  0  0  0  0  0  0  0  0  0  0
   10.3876  -16.3315   25.4538 C   0  0  0  0  0  0  0  0  0  0  0  0
   11.5551  -16.0269   25.0838 O   0  0  0  0  0  0  0  0  0  0  0  0
    9.8937  -13.0334   27.4522 C   0  0  0  0  0  0  0  0  0  0  0  0
   10.1003  -14.1842   28.4091 C   0  0  1  0  0  0  0  0  0  0  0  0
    8.8261  -14.6200   28.7926 O   0  0  0  0  0  0  0  0  0  0  0  0
   10.7990  -15.3481   27.7357 C   0  0  2  0  0  0  0  0  0  0  0  0
    9.9624  -15.9987   26.7664 N   0  0  0  0  0  0  0  0  0  0  0  0
   11.1654  -16.3262   28.7819 C   0  0  0  0  0  0  0  0  0  0  0  0
   12.0617  -16.0656   29.8091 O   0  0  0  0  0  0  0  0  0  0  0  0
   10.6414  -17.4633   28.7500 O   0  0  0  0  0  0  0  0  0  0  0  0
  2  1  1  6
  3  2  1  0
  4  5  2  0
  4  3  1  0
  6  5  1  0
  7  8  2  0
  7  6  1  0
  8  4  1  0
  9  2  1  0
 10  9  2  0
 11 12  1  0
 13 12  1  6
 13 15  1  0
 13 14  1  0
 14  9  1  0
 15 21  1  0
 16 15  2  0
 18 19  1  0
 18 17  1  6
 20 18  1  0
 20 22  1  0
 20 21  1  6
 22 24  2  0
 22 23  1  0
M  END
$$$$
