HST.pdb
     RDKit          3D

 24 24  0  0  1  0  0  0  0  0999 V2000
   10.3162  -17.7500   17.1402 N   0  0  0  0  0  0  0  0  0  0  0  0
    9.1288  -17.3005   17.7961 C   0  0  1  0  0  0  0  0  0  0  0  0
    8.1862  -18.4595   18.0394 C   0  0  0  0  0  0  0  0  0  0  0  0
    7.4153  -18.8231   16.8348 C   0  0  0  0  0  0  0  0  0  0  0  0
    7.4991  -18.2372   15.6069 C   0  0  0  0  0  0  0  0  0  0  0  0
    6.6218  -18.8710   14.7837 N   0  0  0  0  0  0  0  0  0  0  0  0
    6.0068  -19.8387   15.5084 C   0  0  0  0  0  0  0  0  0  0  0  0
    6.5017  -19.8001   16.7658 N   0  0  0  0  0  0  0  0  0  0  0  0
    9.3764  -16.6477   19.0884 C   0  0  0  0  0  0  0  0  0  0  0  0
   10.4650  -16.9158   19.6959 O   0  0  0  0  0  0  0  0  0  0  0  0
    6.5880  -14.6925   21.6169 O   0  0  0  0  0  0  0  0  0  0  0  0
    7.8072  -14.0406   21.3592 C   0  0  0  0  0  0  0  0  0  0  0  0
    8.8349  -15.0937   20.9964 C   0  0  2  0  0  0  0  0  0  0  0  0
    8.5159  -15.7370   19.7382 N   0  0  0  0  0  0  0  0  0  0  0  0
    8.9678  -16.0785   22.0999 C   0  0  0  0  0  0  0  0  0  0  0  0
    8.1056  -16.9830   22.2769 O   0  0  0  0  0  0  0  0  0  0  0  0
   11.5329  -18.5707   22.6180 C   0  0  0  0  0  0  0  0  0  0  0  0
   11.5965  -17.7135   23.8605 C   0  0  1  0  0  0  0  0  0  0  0  0
   12.6408  -16.8014   23.6649 O   0  0  0  0  0  0  0  0  0  0  0  0
   10.3220  -16.9163   24.0513 C   0  0  2  0  0  0  0  0  0  0  0  0
   10.0857  -15.9999   22.9708 N   0  0  0  0  0  0  0  0  0  0  0  0
   10.4491  -16.1483   25.3081 C   0  0  0  0  0  0  0  0  0  0  0  0
   10.5115  -14.7631   25.3688 O   0  0  0  0  0  0  0  0  0  0  0  0
   10.5048  -16.7749   26.3910 O   0  0  0  0  0  0  0  0  0  0  0  0
  2  1  1  1
  3  2  1  0
  4  5  2  0
  4  3  1  0
  6  5  1  0
  7  8  2  0
  7  6  1  0
  8  4  1  0
  9  2  1  0
 10  9  2  0
 11 12  1  0
 13 12  1  1
 13 15  1  0
 13 14  1  0
 14  9  1  0
 15 21  1  0
 16 15  2  0
 18 19  1  0
 18 17  1  6
 20 18  1  0
 20 22  1  0
 20 21  1  6
 22 24  2  0
 22 23  1  0
M  END
$$$$
