HST.pdb
     RDKit          3D

 24 24  0  0  1  0  0  0  0  0999 V2000
    6.3722  -16.1699   18.7528 N   0  0  0  0  0  0  0  0  0  0  0  0
    7.3952  -15.7092   19.6379 C   0  0  1  0  0  0  0  0  0  0  0  0
    7.8895  -14.3434   19.2120 C   0  0  0  0  0  0  0  0  0  0  0  0
    8.5011  -14.3575   17.8692 C   0  0  0  0  0  0  0  0  0  0  0  0
    8.0139  -13.7577   16.7462 C   0  0  0  0  0  0  0  0  0  0  0  0
    8.8795  -14.0148   15.7294 N   0  0  0  0  0  0  0  0  0  0  0  0
    9.8892  -14.7680   16.2323 C   0  0  0  0  0  0  0  0  0  0  0  0
    9.6465  -14.9722   17.5464 N   0  0  0  0  0  0  0  0  0  0  0  0
    6.9667  -15.6118   21.0395 C   0  0  0  0  0  0  0  0  0  0  0  0
    5.8814  -14.9918   21.2921 O   0  0  0  0  0  0  0  0  0  0  0  0
    7.7010  -18.3333   23.9273 O   0  0  0  0  0  0  0  0  0  0  0  0
    6.6320  -17.4212   23.9853 C   0  0  0  0  0  0  0  0  0  0  0  0
    7.1383  -16.0740   23.5104 C   0  0  2  0  0  0  0  0  0  0  0  0
    7.6468  -16.1443   22.1556 N   0  0  0  0  0  0  0  0  0  0  0  0
    8.1579  -15.5504   24.4545 C   0  0  0  0  0  0  0  0  0  0  0  0
    9.3911  -15.6399   24.2014 O   0  0  0  0  0  0  0  0  0  0  0  0
    8.0064  -12.0396   26.4977 C   0  0  0  0  0  0  0  0  0  0  0  0
    8.0891  -13.2466   27.4027 C   0  0  1  0  0  0  0  0  0  0  0  0
    6.7775  -13.5477   27.7896 O   0  0  0  0  0  0  0  0  0  0  0  0
    8.6391  -14.4536   26.6702 C   0  0  2  0  0  0  0  0  0  0  0  0
    7.7364  -14.9379   25.6634 N   0  0  0  0  0  0  0  0  0  0  0  0
    8.8643  -15.5253   27.6633 C   0  0  0  0  0  0  0  0  0  0  0  0
    9.7398  -15.4194   28.7351 O   0  0  0  0  0  0  0  0  0  0  0  0
    8.2321  -16.5994   27.5406 O   0  0  0  0  0  0  0  0  0  0  0  0
  2  1  1  6
  3  2  1  0
  4  5  2  0
  4  3  1  0
  6  5  1  0
  7  8  2  0
  7  6  1  0
  8  4  1  0
  9  2  1  0
 10  9  2  0
 11 12  1  0
 13 12  1  1
 13 15  1  0
 13 14  1  0
 14  9  1  0
 15 21  1  0
 16 15  2  0
 18 19  1  0
 18 17  1  6
 20 18  1  0
 20 22  1  0
 20 21  1  6
 22 24  2  0
 22 23  1  0
M  END
$$$$
