HST.pdb
     RDKit          3D

 24 24  0  0  1  0  0  0  0  0999 V2000
   11.0029  -13.7632   20.0269 N   0  0  0  0  0  0  0  0  0  0  0  0
    9.7370  -14.0067   20.6435 C   0  0  1  0  0  0  0  0  0  0  0  0
    8.9699  -15.0647   19.8798 C   0  0  0  0  0  0  0  0  0  0  0  0
    8.5112  -14.5881   18.5607 C   0  0  0  0  0  0  0  0  0  0  0  0
    8.7372  -13.3595   18.0152 C   0  0  0  0  0  0  0  0  0  0  0  0
    8.1442  -13.3331   16.7917 N   0  0  0  0  0  0  0  0  0  0  0  0
    7.5598  -14.5411   16.5942 C   0  0  0  0  0  0  0  0  0  0  0  0
    7.7915  -15.3033   17.6864 N   0  0  0  0  0  0  0  0  0  0  0  0
    9.8334  -14.4472   22.0415 C   0  0  0  0  0  0  0  0  0  0  0  0
   10.9196  -14.9954   22.4229 O   0  0  0  0  0  0  0  0  0  0  0  0
    6.7252  -14.2958   24.8314 O   0  0  0  0  0  0  0  0  0  0  0  0
    8.0084  -13.9712   25.3067 C   0  0  0  0  0  0  0  0  0  0  0  0
    9.0257  -14.6591   24.4187 C   0  0  2  0  0  0  0  0  0  0  0  0
    8.8274  -14.3231   23.0235 N   0  0  0  0  0  0  0  0  0  0  0  0
    8.9884  -16.1267   24.6420 C   0  0  0  0  0  0  0  0  0  0  0  0
    8.0744  -16.8411   24.1450 O   0  0  0  0  0  0  0  0  0  0  0  0
   11.0438  -18.9241   23.6272 C   0  0  0  0  0  0  0  0  0  0  0  0
   11.1824  -18.8628   25.1304 C   0  0  1  0  0  0  0  0  0  0  0  0
   12.3414  -18.1233   25.3960 O   0  0  0  0  0  0  0  0  0  0  0  0
   10.0171  -18.1321   25.7663 C   0  0  2  0  0  0  0  0  0  0  0  0
   10.0001  -16.7360   25.4291 N   0  0  0  0  0  0  0  0  0  0  0  0
   10.1413  -18.2663   27.2333 C   0  0  0  0  0  0  0  0  0  0  0  0
   10.0629  -19.4745   27.9120 O   0  0  0  0  0  0  0  0  0  0  0  0
   10.3290  -17.2336   27.9165 O   0  0  0  0  0  0  0  0  0  0  0  0
  2  1  1  6
  3  2  1  0
  4  5  2  0
  4  3  1  0
  6  5  1  0
  7  8  2  0
  7  6  1  0
  8  4  1  0
  9  2  1  0
 10  9  2  0
 11 12  1  0
 13 12  1  1
 13 15  1  0
 13 14  1  0
 14  9  1  0
 15 21  1  0
 16 15  2  0
 18 19  1  0
 18 17  1  6
 20 18  1  0
 20 22  1  0
 20 21  1  1
 22 24  2  0
 22 23  1  0
M  END
$$$$
