HST.pdb
     RDKit          3D

 24 24  0  0  1  0  0  0  0  0999 V2000
    7.2925  -17.5251   20.0565 N   0  0  0  0  0  0  0  0  0  0  0  0
    7.7303  -16.3562   20.7523 C   0  0  1  0  0  0  0  0  0  0  0  0
    6.9209  -15.1505   20.3252 C   0  0  0  0  0  0  0  0  0  0  0  0
    7.6465  -14.2935   19.3678 C   0  0  0  0  0  0  0  0  0  0  0  0
    8.8850  -14.5224   18.8466 C   0  0  0  0  0  0  0  0  0  0  0  0
    9.1798  -13.4924   18.0091 N   0  0  0  0  0  0  0  0  0  0  0  0
    8.1244  -12.6405   18.0211 C   0  0  0  0  0  0  0  0  0  0  0  0
    7.1892  -13.1423   18.8585 N   0  0  0  0  0  0  0  0  0  0  0  0
    7.6322  -16.4647   22.2138 C   0  0  0  0  0  0  0  0  0  0  0  0
    6.4750  -16.6206   22.7263 O   0  0  0  0  0  0  0  0  0  0  0  0
   10.6563  -17.6328   24.7607 O   0  0  0  0  0  0  0  0  0  0  0  0
    9.2926  -17.7921   25.0655 C   0  0  0  0  0  0  0  0  0  0  0  0
    8.5524  -16.5713   24.5570 C   0  0  2  0  0  0  0  0  0  0  0  0
    8.7084  -16.4128   23.1254 N   0  0  0  0  0  0  0  0  0  0  0  0
    8.9948  -15.3617   25.2961 C   0  0  0  0  0  0  0  0  0  0  0  0
   10.0189  -14.7157   24.9404 O   0  0  0  0  0  0  0  0  0  0  0  0
    6.7817  -12.2570   26.4788 C   0  0  0  0  0  0  0  0  0  0  0  0
    7.4032  -12.9798   27.6510 C   0  0  1  0  0  0  0  0  0  0  0  0
    6.4380  -13.8758   28.1265 O   0  0  0  0  0  0  0  0  0  0  0  0
    8.6112  -13.7904   27.2268 C   0  0  2  0  0  0  0  0  0  0  0  0
    8.2509  -14.9251   26.4233 N   0  0  0  0  0  0  0  0  0  0  0  0
    9.2906  -14.2689   28.4494 C   0  0  0  0  0  0  0  0  0  0  0  0
    9.8541  -13.4322   29.4028 O   0  0  0  0  0  0  0  0  0  0  0  0
    9.3690  -15.5029   28.6482 O   0  0  0  0  0  0  0  0  0  0  0  0
  2  1  1  6
  3  2  1  0
  4  5  2  0
  4  3  1  0
  6  5  1  0
  7  8  2  0
  7  6  1  0
  8  4  1  0
  9  2  1  0
 10  9  2  0
 11 12  1  0
 13 12  1  1
 13 15  1  0
 13 14  1  0
 14  9  1  0
 15 21  1  0
 16 15  2  0
 18 19  1  0
 18 17  1  6
 20 18  1  0
 20 22  1  0
 20 21  1  6
 22 24  2  0
 22 23  1  0
M  END
$$$$
