HST.pdb
     RDKit          3D

 24 24  0  0  1  0  0  0  0  0999 V2000
    7.6788  -16.0133   18.8055 N   0  0  0  0  0  0  0  0  0  0  0  0
    8.4474  -16.4539   19.9267 C   0  0  1  0  0  0  0  0  0  0  0  0
    9.8514  -15.8921   19.8609 C   0  0  0  0  0  0  0  0  0  0  0  0
   10.6669  -16.5311   18.8102 C   0  0  0  0  0  0  0  0  0  0  0  0
   11.3760  -17.6900   18.9219 C   0  0  0  0  0  0  0  0  0  0  0  0
   11.9825  -17.9223   17.7272 N   0  0  0  0  0  0  0  0  0  0  0  0
   11.6435  -16.9085   16.8923 C   0  0  0  0  0  0  0  0  0  0  0  0
   10.8358  -16.0606   17.5677 N   0  0  0  0  0  0  0  0  0  0  0  0
    7.8746  -16.0732   21.2246 C   0  0  0  0  0  0  0  0  0  0  0  0
    7.2593  -14.9592   21.3039 O   0  0  0  0  0  0  0  0  0  0  0  0
    5.9421  -17.2518   25.4486 O   0  0  0  0  0  0  0  0  0  0  0  0
    6.6860  -17.6901   24.3384 C   0  0  0  0  0  0  0  0  0  0  0  0
    7.2349  -16.4683   23.6294 C   0  0  2  0  0  0  0  0  0  0  0  0
    7.9374  -16.8291   22.4148 N   0  0  0  0  0  0  0  0  0  0  0  0
    8.0968  -15.6870   24.5523 C   0  0  0  0  0  0  0  0  0  0  0  0
    9.3517  -15.8208   24.5464 O   0  0  0  0  0  0  0  0  0  0  0  0
    7.1794  -11.8205   25.8543 C   0  0  0  0  0  0  0  0  0  0  0  0
    7.4451  -12.8278   26.9486 C   0  0  1  0  0  0  0  0  0  0  0  0
    6.1961  -13.2990   27.3711 O   0  0  0  0  0  0  0  0  0  0  0  0
    8.2316  -14.0153   26.4314 C   0  0  2  0  0  0  0  0  0  0  0  0
    7.4967  -14.7729   25.4572 N   0  0  0  0  0  0  0  0  0  0  0  0
    8.5418  -14.8914   27.5810 C   0  0  0  0  0  0  0  0  0  0  0  0
    9.3215  -14.5063   28.6628 O   0  0  0  0  0  0  0  0  0  0  0  0
    8.0784  -16.0549   27.5909 O   0  0  0  0  0  0  0  0  0  0  0  0
  2  1  1  6
  3  2  1  0
  4  5  2  0
  4  3  1  0
  6  5  1  0
  7  8  2  0
  7  6  1  0
  8  4  1  0
  9  2  1  0
 10  9  2  0
 11 12  1  0
 13 12  1  1
 13 15  1  0
 13 14  1  0
 14  9  1  0
 15 21  1  0
 16 15  2  0
 18 19  1  0
 18 17  1  6
 20 18  1  0
 20 22  1  0
 20 21  1  6
 22 24  2  0
 22 23  1  0
M  END
$$$$
