HST.pdb
     RDKit          3D

 24 24  0  0  1  0  0  0  0  0999 V2000
    8.6983  -15.9986   20.2388 N   0  0  0  0  0  0  0  0  0  0  0  0
    8.4892  -14.7285   20.8594 C   0  0  1  0  0  0  0  0  0  0  0  0
    7.3853  -13.9693   20.1551 C   0  0  0  0  0  0  0  0  0  0  0  0
    7.6046  -13.8753   18.6989 C   0  0  0  0  0  0  0  0  0  0  0  0
    8.0538  -12.7871   18.0117 C   0  0  0  0  0  0  0  0  0  0  0  0
    8.1127  -13.1228   16.6952 N   0  0  0  0  0  0  0  0  0  0  0  0
    7.7010  -14.4102   16.5825 C   0  0  0  0  0  0  0  0  0  0  0  0
    7.3917  -14.8619   17.8185 N   0  0  0  0  0  0  0  0  0  0  0  0
    8.1339  -14.8152   22.2820 C   0  0  0  0  0  0  0  0  0  0  0  0
    7.8401  -13.7350   22.8927 O   0  0  0  0  0  0  0  0  0  0  0  0
    7.4727  -18.3541   24.4854 O   0  0  0  0  0  0  0  0  0  0  0  0
    6.8423  -17.1448   24.8289 C   0  0  0  0  0  0  0  0  0  0  0  0
    7.7803  -16.0090   24.4726 C   0  0  2  0  0  0  0  0  0  0  0  0
    8.0839  -15.9943   23.0561 N   0  0  0  0  0  0  0  0  0  0  0  0
    9.0119  -16.0860   25.2987 C   0  0  0  0  0  0  0  0  0  0  0  0
   10.0388  -16.6931   24.8870 O   0  0  0  0  0  0  0  0  0  0  0  0
    8.9644  -14.1407   29.1858 C   0  0  0  0  0  0  0  0  0  0  0  0
   10.2255  -14.2929   28.3677 C   0  0  1  0  0  0  0  0  0  0  0  0
   11.2705  -14.4975   29.2769 O   0  0  0  0  0  0  0  0  0  0  0  0
   10.1589  -15.5084   27.4653 C   0  0  2  0  0  0  0  0  0  0  0  0
    9.0330  -15.4647   26.5746 N   0  0  0  0  0  0  0  0  0  0  0  0
   10.0414  -16.7065   28.3233 C   0  0  0  0  0  0  0  0  0  0  0  0
   11.0887  -17.2378   29.0631 O   0  0  0  0  0  0  0  0  0  0  0  0
    8.9338  -17.2866   28.3952 O   0  0  0  0  0  0  0  0  0  0  0  0
  2  1  1  6
  3  2  1  0
  4  5  2  0
  4  3  1  0
  6  5  1  0
  7  8  2  0
  7  6  1  0
  8  4  1  0
  9  2  1  0
 10  9  2  0
 11 12  1  0
 13 12  1  6
 13 15  1  0
 13 14  1  0
 14  9  1  0
 15 21  1  0
 16 15  2  0
 18 19  1  0
 18 17  1  1
 20 18  1  0
 20 22  1  0
 20 21  1  6
 22 24  2  0
 22 23  1  0
M  END
$$$$
