HST.pdb
     RDKit          3D

 24 24  0  0  1  0  0  0  0  0999 V2000
    5.1779  -19.6347   20.7423 N   0  0  0  0  0  0  0  0  0  0  0  0
    5.0277  -18.4054   21.4552 C   0  0  1  0  0  0  0  0  0  0  0  0
    3.8012  -18.4524   22.3409 C   0  0  0  0  0  0  0  0  0  0  0  0
    2.5768  -18.7962   21.5925 C   0  0  0  0  0  0  0  0  0  0  0  0
    2.1713  -18.2627   20.4054 C   0  0  0  0  0  0  0  0  0  0  0  0
    0.9950  -18.8539   20.0648 N   0  0  0  0  0  0  0  0  0  0  0  0
    0.6865  -19.7435   21.0412 C   0  0  0  0  0  0  0  0  0  0  0  0
    1.6644  -19.6995   21.9736 N   0  0  0  0  0  0  0  0  0  0  0  0
    6.1783  -18.0677   22.3035 C   0  0  0  0  0  0  0  0  0  0  0  0
    6.8817  -19.0249   22.7672 O   0  0  0  0  0  0  0  0  0  0  0  0
    7.1820  -14.2164   23.2284 O   0  0  0  0  0  0  0  0  0  0  0  0
    8.2923  -15.0780   23.1763 C   0  0  0  0  0  0  0  0  0  0  0  0
    7.8008  -16.4918   23.4137 C   0  0  2  0  0  0  0  0  0  0  0  0
    6.5919  -16.7675   22.6644 N   0  0  0  0  0  0  0  0  0  0  0  0
    7.6135  -16.7295   24.8675 C   0  0  0  0  0  0  0  0  0  0  0  0
    6.6233  -16.2508   25.4865 O   0  0  0  0  0  0  0  0  0  0  0  0
    6.6565  -19.3927   26.9268 C   0  0  0  0  0  0  0  0  0  0  0  0
    8.0870  -19.1385   27.3413 C   0  0  1  0  0  0  0  0  0  0  0  0
    8.8813  -20.0247   26.6034 O   0  0  0  0  0  0  0  0  0  0  0  0
    8.5250  -17.7307   26.9913 C   0  0  2  0  0  0  0  0  0  0  0  0
    8.5665  -17.5099   25.5727 N   0  0  0  0  0  0  0  0  0  0  0  0
    9.8800  -17.5245   27.5453 C   0  0  0  0  0  0  0  0  0  0  0  0
   10.1798  -17.5657   28.8998 O   0  0  0  0  0  0  0  0  0  0  0  0
   10.8236  -17.2978   26.7537 O   0  0  0  0  0  0  0  0  0  0  0  0
  2  1  1  1
  3  2  1  0
  4  5  2  0
  4  3  1  0
  6  5  1  0
  7  8  2  0
  7  6  1  0
  8  4  1  0
  9  2  1  0
 10  9  2  0
 11 12  1  0
 13 12  1  1
 13 15  1  0
 13 14  1  0
 14  9  1  0
 15 21  1  0
 16 15  2  0
 18 19  1  0
 18 17  1  6
 20 18  1  0
 20 22  1  0
 20 21  1  6
 22 24  2  0
 22 23  1  0
M  END
$$$$
