HST.pdb
     RDKit          3D

 24 24  0  0  1  0  0  0  0  0999 V2000
    9.2421  -17.5173   17.9500 N   0  0  0  0  0  0  0  0  0  0  0  0
    9.3671  -18.0604   19.2658 C   0  0  1  0  0  0  0  0  0  0  0  0
   10.8167  -18.0672   19.7013 C   0  0  0  0  0  0  0  0  0  0  0  0
   11.5980  -19.1347   19.0474 C   0  0  0  0  0  0  0  0  0  0  0  0
   11.1043  -20.1724   18.3142 C   0  0  0  0  0  0  0  0  0  0  0  0
   12.1581  -20.9222   17.8940 N   0  0  0  0  0  0  0  0  0  0  0  0
   13.2882  -20.3425   18.3700 C   0  0  0  0  0  0  0  0  0  0  0  0
   12.9323  -19.2462   19.0764 N   0  0  0  0  0  0  0  0  0  0  0  0
    8.5987  -17.3313   20.2835 C   0  0  0  0  0  0  0  0  0  0  0  0
    8.7048  -16.0611   20.3178 O   0  0  0  0  0  0  0  0  0  0  0  0
    6.2017  -19.0350   23.3584 O   0  0  0  0  0  0  0  0  0  0  0  0
    5.7453  -17.8963   22.6707 C   0  0  0  0  0  0  0  0  0  0  0  0
    6.9560  -17.1261   22.1829 C   0  0  2  0  0  0  0  0  0  0  0  0
    7.7391  -17.9045   21.2450 N   0  0  0  0  0  0  0  0  0  0  0  0
    7.7717  -16.6728   23.3380 C   0  0  0  0  0  0  0  0  0  0  0  0
    8.9271  -17.1365   23.5450 O   0  0  0  0  0  0  0  0  0  0  0  0
    7.4233  -12.8303   25.2141 C   0  0  0  0  0  0  0  0  0  0  0  0
    7.2268  -14.0697   26.0556 C   0  0  1  0  0  0  0  0  0  0  0  0
    5.8492  -14.3183   26.0869 O   0  0  0  0  0  0  0  0  0  0  0  0
    7.8961  -15.2771   25.4309 C   0  0  2  0  0  0  0  0  0  0  0  0
    7.2410  -15.6998   24.2246 N   0  0  0  0  0  0  0  0  0  0  0  0
    7.8480  -16.3825   26.4114 C   0  0  0  0  0  0  0  0  0  0  0  0
    8.5116  -16.3687   27.6304 O   0  0  0  0  0  0  0  0  0  0  0  0
    7.1702  -17.3991   26.1366 O   0  0  0  0  0  0  0  0  0  0  0  0
  2  1  1  6
  3  2  1  0
  4  5  2  0
  4  3  1  0
  6  5  1  0
  7  8  2  0
  7  6  1  0
  8  4  1  0
  9  2  1  0
 10  9  2  0
 11 12  1  0
 13 12  1  1
 13 15  1  0
 13 14  1  0
 14  9  1  0
 15 21  1  0
 16 15  2  0
 18 19  1  0
 18 17  1  6
 20 18  1  0
 20 22  1  0
 20 21  1  6
 22 24  2  0
 22 23  1  0
M  END
$$$$
