HST.pdb
     RDKit          3D

 24 24  0  0  1  0  0  0  0  0999 V2000
   12.2114  -15.9861   14.4975 N   0  0  0  0  0  0  0  0  0  0  0  0
   11.4179  -16.1876   15.6688 C   0  0  1  0  0  0  0  0  0  0  0  0
   11.2533  -17.6658   15.9500 C   0  0  0  0  0  0  0  0  0  0  0  0
   10.2262  -18.2924   15.0956 C   0  0  0  0  0  0  0  0  0  0  0  0
    9.1112  -18.9546   15.5155 C   0  0  0  0  0  0  0  0  0  0  0  0
    8.4367  -19.3734   14.4114 N   0  0  0  0  0  0  0  0  0  0  0  0
    9.1390  -18.9673   13.3244 C   0  0  0  0  0  0  0  0  0  0  0  0
   10.2354  -18.3048   13.7564 N   0  0  0  0  0  0  0  0  0  0  0  0
   11.9739  -15.5627   16.8762 C   0  0  0  0  0  0  0  0  0  0  0  0
   13.2418  -15.4659   16.9707 O   0  0  0  0  0  0  0  0  0  0  0  0
    9.8843  -14.5453   20.4456 O   0  0  0  0  0  0  0  0  0  0  0  0
   10.8266  -13.6397   19.9261 C   0  0  0  0  0  0  0  0  0  0  0  0
   11.8410  -14.4277   19.1218 C   0  0  2  0  0  0  0  0  0  0  0  0
   11.2336  -15.0492   17.9626 N   0  0  0  0  0  0  0  0  0  0  0  0
   12.5172  -15.4248   19.9900 C   0  0  0  0  0  0  0  0  0  0  0  0
   11.9123  -16.4547   20.3973 O   0  0  0  0  0  0  0  0  0  0  0  0
   15.8237  -17.0752   19.1435 C   0  0  0  0  0  0  0  0  0  0  0  0
   15.9810  -16.4510   20.5104 C   0  0  1  0  0  0  0  0  0  0  0  0
   16.6420  -15.2314   20.3200 O   0  0  0  0  0  0  0  0  0  0  0  0
   14.6367  -16.1496   21.1415 C   0  0  2  0  0  0  0  0  0  0  0  0
   13.8690  -15.2142   20.3678 N   0  0  0  0  0  0  0  0  0  0  0  0
   14.8814  -15.5727   22.4804 C   0  0  0  0  0  0  0  0  0  0  0  0
   15.3881  -16.2908   23.5547 O   0  0  0  0  0  0  0  0  0  0  0  0
   14.6192  -14.3628   22.6693 O   0  0  0  0  0  0  0  0  0  0  0  0
  2  1  1  6
  3  2  1  0
  4  5  2  0
  4  3  1  0
  6  5  1  0
  7  8  2  0
  7  6  1  0
  8  4  1  0
  9  2  1  0
 10  9  2  0
 11 12  1  0
 13 12  1  1
 13 15  1  0
 13 14  1  0
 14  9  1  0
 15 21  1  0
 16 15  2  0
 18 19  1  0
 18 17  1  6
 20 18  1  0
 20 22  1  0
 20 21  1  6
 22 24  2  0
 22 23  1  0
M  END
$$$$
