HST.pdb
     RDKit          3D

 24 24  0  0  1  0  0  0  0  0999 V2000
   10.5154  -16.3154   16.8761 N   0  0  0  0  0  0  0  0  0  0  0  0
   10.3440  -16.8900   18.1733 C   0  0  1  0  0  0  0  0  0  0  0  0
   10.6651  -18.3689   18.1449 C   0  0  0  0  0  0  0  0  0  0  0  0
    9.6770  -19.1467   17.3729 C   0  0  0  0  0  0  0  0  0  0  0  0
    8.3849  -19.4002   17.7257 C   0  0  0  0  0  0  0  0  0  0  0  0
    7.8243  -20.1491   16.7388 N   0  0  0  0  0  0  0  0  0  0  0  0
    8.7721  -20.3503   15.7895 C   0  0  0  0  0  0  0  0  0  0  0  0
    9.9050  -19.7306   16.1893 N   0  0  0  0  0  0  0  0  0  0  0  0
   11.1799  -16.2715   19.2107 C   0  0  0  0  0  0  0  0  0  0  0  0
   12.3245  -15.8245   18.8698 O   0  0  0  0  0  0  0  0  0  0  0  0
   10.2451  -16.0430   23.3159 O   0  0  0  0  0  0  0  0  0  0  0  0
   10.8717  -14.9351   22.7176 C   0  0  0  0  0  0  0  0  0  0  0  0
   11.6768  -15.4337   21.5345 C   0  0  2  0  0  0  0  0  0  0  0  0
   10.8388  -16.1190   20.5717 N   0  0  0  0  0  0  0  0  0  0  0  0
   12.7933  -16.2935   22.0029 C   0  0  0  0  0  0  0  0  0  0  0  0
   12.6967  -17.5518   21.9975 O   0  0  0  0  0  0  0  0  0  0  0  0
   17.5984  -16.4025   23.3475 C   0  0  0  0  0  0  0  0  0  0  0  0
   16.4199  -15.6380   22.7913 C   0  0  1  0  0  0  0  0  0  0  0  0
   16.6663  -15.4613   21.4243 O   0  0  0  0  0  0  0  0  0  0  0  0
   15.1327  -16.4261   22.9266 C   0  0  2  0  0  0  0  0  0  0  0  0
   13.9906  -15.6874   22.4650 N   0  0  0  0  0  0  0  0  0  0  0  0
   14.9447  -16.7491   24.3569 C   0  0  0  0  0  0  0  0  0  0  0  0
   15.5939  -17.7874   25.0104 O   0  0  0  0  0  0  0  0  0  0  0  0
   14.1538  -16.0501   25.0308 O   0  0  0  0  0  0  0  0  0  0  0  0
  2  1  1  6
  3  2  1  0
  4  5  2  0
  4  3  1  0
  6  5  1  0
  7  8  2  0
  7  6  1  0
  8  4  1  0
  9  2  1  0
 10  9  2  0
 11 12  1  0
 13 12  1  1
 13 15  1  0
 13 14  1  0
 14  9  1  0
 15 21  1  0
 16 15  2  0
 18 19  1  0
 18 17  1  6
 20 18  1  0
 20 22  1  0
 20 21  1  1
 22 24  2  0
 22 23  1  0
M  END
$$$$
