HST.pdb
     RDKit          3D

 24 24  0  0  1  0  0  0  0  0999 V2000
   14.6994  -13.7539   18.4767 N   0  0  0  0  0  0  0  0  0  0  0  0
   13.3968  -14.3359   18.5578 C   0  0  1  0  0  0  0  0  0  0  0  0
   13.3096  -15.5654   17.6792 C   0  0  0  0  0  0  0  0  0  0  0  0
   14.5145  -16.4122   17.7714 C   0  0  0  0  0  0  0  0  0  0  0  0
   15.7639  -16.0129   18.1425 C   0  0  0  0  0  0  0  0  0  0  0  0
   16.5788  -17.1004   18.0939 N   0  0  0  0  0  0  0  0  0  0  0  0
   15.8277  -18.1570   17.6948 C   0  0  0  0  0  0  0  0  0  0  0  0
   14.5624  -17.7228   17.4998 N   0  0  0  0  0  0  0  0  0  0  0  0
   13.0076  -14.7308   19.9179 C   0  0  0  0  0  0  0  0  0  0  0  0
   13.9142  -14.7657   20.8139 O   0  0  0  0  0  0  0  0  0  0  0  0
    9.1027  -15.6598   21.0956 O   0  0  0  0  0  0  0  0  0  0  0  0
    9.9206  -14.9802   22.0160 C   0  0  0  0  0  0  0  0  0  0  0  0
   11.3616  -15.3472   21.7233 C   0  0  2  0  0  0  0  0  0  0  0  0
   11.7080  -15.0820   20.3419 N   0  0  0  0  0  0  0  0  0  0  0  0
   11.6123  -16.7639   22.0914 C   0  0  0  0  0  0  0  0  0  0  0  0
   11.4669  -17.6938   21.2507 O   0  0  0  0  0  0  0  0  0  0  0  0
   14.7437  -18.3338   23.8192 C   0  0  0  0  0  0  0  0  0  0  0  0
   13.5242  -18.5370   24.6876 C   0  0  1  0  0  0  0  0  0  0  0  0
   13.5304  -17.5054   25.6345 O   0  0  0  0  0  0  0  0  0  0  0  0
   12.2444  -18.4147   23.8856 C   0  0  2  0  0  0  0  0  0  0  0  0
   12.0231  -17.0763   23.4136 N   0  0  0  0  0  0  0  0  0  0  0  0
   11.1189  -18.8028   24.7620 C   0  0  0  0  0  0  0  0  0  0  0  0
   10.9510  -20.0740   25.2933 O   0  0  0  0  0  0  0  0  0  0  0  0
   10.2576  -17.9404   25.0499 O   0  0  0  0  0  0  0  0  0  0  0  0
  2  1  1  1
  3  2  1  0
  4  5  2  0
  4  3  1  0
  6  5  1  0
  7  8  2  0
  7  6  1  0
  8  4  1  0
  9  2  1  0
 10  9  2  0
 11 12  1  0
 13 12  1  6
 13 15  1  0
 13 14  1  0
 14  9  1  0
 15 21  1  0
 16 15  2  0
 18 19  1  0
 18 17  1  6
 20 18  1  0
 20 22  1  0
 20 21  1  1
 22 24  2  0
 22 23  1  0
M  END
$$$$
