HST.pdb
     RDKit          3D

 24 24  0  0  1  0  0  0  0  0999 V2000
    6.8334  -16.6643   20.2077 N   0  0  0  0  0  0  0  0  0  0  0  0
    7.8757  -15.9378   20.8618 C   0  0  1  0  0  0  0  0  0  0  0  0
    7.7721  -14.4612   20.5455 C   0  0  0  0  0  0  0  0  0  0  0  0
    7.9140  -14.1810   19.1038 C   0  0  0  0  0  0  0  0  0  0  0  0
    7.0874  -13.4136   18.3382 C   0  0  0  0  0  0  0  0  0  0  0  0
    7.5758  -13.4162   17.0691 N   0  0  0  0  0  0  0  0  0  0  0  0
    8.6951  -14.1823   17.0631 C   0  0  0  0  0  0  0  0  0  0  0  0
    8.8930  -14.6465   18.3172 N   0  0  0  0  0  0  0  0  0  0  0  0
    7.8720  -16.0826   22.3235 C   0  0  0  0  0  0  0  0  0  0  0  0
    6.7625  -15.9431   22.9362 O   0  0  0  0  0  0  0  0  0  0  0  0
   10.7061  -18.1106   24.4195 O   0  0  0  0  0  0  0  0  0  0  0  0
    9.4150  -17.9517   24.9539 C   0  0  0  0  0  0  0  0  0  0  0  0
    8.9121  -16.5760   24.5648 C   0  0  2  0  0  0  0  0  0  0  0  0
    8.9925  -16.3655   23.1337 N   0  0  0  0  0  0  0  0  0  0  0  0
    9.6512  -15.5308   25.3173 C   0  0  0  0  0  0  0  0  0  0  0  0
   10.7240  -15.0384   24.8707 O   0  0  0  0  0  0  0  0  0  0  0  0
    8.5080  -12.0732   26.6629 C   0  0  0  0  0  0  0  0  0  0  0  0
    8.8498  -12.9904   27.8139 C   0  0  1  0  0  0  0  0  0  0  0  0
    7.6507  -13.5902   28.2177 O   0  0  0  0  0  0  0  0  0  0  0  0
    9.7922  -14.0957   27.3824 C   0  0  2  0  0  0  0  0  0  0  0  0
    9.1404  -15.0779   26.5617 N   0  0  0  0  0  0  0  0  0  0  0  0
   10.3056  -14.7577   28.6005 C   0  0  0  0  0  0  0  0  0  0  0  0
   11.0380  -14.1106   29.5860 O   0  0  0  0  0  0  0  0  0  0  0  0
   10.0717  -15.9770   28.7645 O   0  0  0  0  0  0  0  0  0  0  0  0
  2  1  1  6
  3  2  1  0
  4  5  2  0
  4  3  1  0
  6  5  1  0
  7  8  2  0
  7  6  1  0
  8  4  1  0
  9  2  1  0
 10  9  2  0
 11 12  1  0
 13 12  1  6
 13 15  1  0
 13 14  1  0
 14  9  1  0
 15 21  1  0
 16 15  2  0
 18 19  1  0
 18 17  1  6
 20 18  1  0
 20 22  1  0
 20 21  1  6
 22 24  2  0
 22 23  1  0
M  END
$$$$
