SDD.pdb
     RDKit          3D

 23 22  0  0  1  0  0  0  0  0999 V2000
   16.1444   -8.9337  -17.8031 O   0  0  0  0  0  0  0  0  0  0  0  0
   15.8228   -8.9548  -16.4547 C   0  0  0  0  0  0  0  0  0  0  0  0
   16.7285   -9.9962  -15.8096 C   0  0  2  0  0  0  0  0  0  0  0  0
   15.9151  -10.8587  -15.0298 N   0  0  0  0  0  0  0  0  0  0  0  0
   17.8162   -9.3142  -15.0296 C   0  0  0  0  0  0  0  0  0  0  0  0
   17.6926   -9.3135  -13.8101 O   0  0  0  0  0  0  0  0  0  0  0  0
   18.9147   -8.7112  -15.6609 N   0  0  0  0  0  0  0  0  0  0  0  0
   20.0435   -8.0430  -15.1260 C   0  0  1  0  0  0  0  0  0  0  0  0
   21.3187   -8.7949  -14.9494 C   0  0  0  0  0  0  0  0  0  0  0  0
   22.4155   -8.0365  -14.3042 C   0  0  0  0  0  0  0  0  0  0  0  0
   23.5586   -7.9770  -14.8889 O   0  0  0  0  0  0  0  0  0  0  0  0
   20.1742   -6.6437  -15.5564 C   0  0  0  0  0  0  0  0  0  0  0  0
   20.4141   -6.3994  -16.7952 O   0  0  0  0  0  0  0  0  0  0  0  0
   22.2535   -7.3936  -13.0972 O   0  0  0  0  0  0  0  0  0  0  0  0
   20.0567   -5.5217  -14.7097 N   0  0  0  0  0  0  0  0  0  0  0  0
   20.2258   -4.1462  -15.2489 C   0  0  1  0  0  0  0  0  0  0  0  0
   19.1527   -3.3325  -14.5754 C   0  0  0  0  0  0  0  0  0  0  0  0
   17.7830   -3.6615  -14.9767 C   0  0  0  0  0  0  0  0  0  0  0  0
   17.4623   -3.8236  -16.1627 O   0  0  0  0  0  0  0  0  0  0  0  0
   21.5961   -3.6911  -14.9451 C   0  0  0  0  0  0  0  0  0  0  0  0
   22.1059   -2.4937  -15.4659 O   0  0  0  0  0  0  0  0  0  0  0  0
   16.7881   -3.8031  -14.0184 O   0  0  0  0  0  0  0  0  0  0  0  0
   22.3425   -4.3626  -14.2124 O   0  0  0  0  0  0  0  0  0  0  0  0
  2  1  1  0
  3  4  1  1
  3  2  1  0
  5  3  1  0
  6  5  2  0
  7  5  1  0
  8 12  1  0
  8  7  1  0
  8  9  1  6
 10  9  1  0
 11 10  2  0
 12 15  1  0
 13 12  2  0
 14 10  1  0
 15 16  1  0
 16 17  1  1
 16 20  1  0
 17 18  1  0
 18 22  1  0
 19 18  2  0
 20 23  2  0
 20 21  1  0
M  END
$$$$
