SDD.pdb
     RDKit          3D

 23 22  0  0  1  0  0  0  0  0999 V2000
   14.6067   -8.3759  -15.4156 O   0  0  0  0  0  0  0  0  0  0  0  0
   15.0359   -8.7734  -16.6725 C   0  0  0  0  0  0  0  0  0  0  0  0
   15.8409  -10.0511  -16.4713 C   0  0  2  0  0  0  0  0  0  0  0  0
   15.0088  -10.9911  -15.8096 N   0  0  0  0  0  0  0  0  0  0  0  0
   17.1147   -9.7421  -15.7373 C   0  0  0  0  0  0  0  0  0  0  0  0
   17.0449   -9.7155  -14.5139 O   0  0  0  0  0  0  0  0  0  0  0  0
   18.3195   -9.4978  -16.4138 N   0  0  0  0  0  0  0  0  0  0  0  0
   19.6156   -9.1986  -15.9267 C   0  0  1  0  0  0  0  0  0  0  0  0
   20.7437  -10.1198  -16.2452 C   0  0  0  0  0  0  0  0  0  0  0  0
   22.0431   -9.7643  -15.6290 C   0  0  0  0  0  0  0  0  0  0  0  0
   22.9889   -9.3258  -16.3809 O   0  0  0  0  0  0  0  0  0  0  0  0
   19.9377   -7.7645  -15.9150 C   0  0  0  0  0  0  0  0  0  0  0  0
   19.9856   -7.1341  -17.0339 O   0  0  0  0  0  0  0  0  0  0  0  0
   22.2742   -9.8892  -14.2773 O   0  0  0  0  0  0  0  0  0  0  0  0
   20.2044   -7.0039  -14.7574 N   0  0  0  0  0  0  0  0  0  0  0  0
   20.6592   -5.5924  -14.8680 C   0  0  1  0  0  0  0  0  0  0  0  0
   19.6575   -4.8000  -14.0706 C   0  0  0  0  0  0  0  0  0  0  0  0
   18.4221   -4.4679  -14.7840 C   0  0  0  0  0  0  0  0  0  0  0  0
   18.4187   -4.1182  -15.9729 O   0  0  0  0  0  0  0  0  0  0  0  0
   22.0372   -5.5041  -14.3477 C   0  0  0  0  0  0  0  0  0  0  0  0
   22.7415   -4.2921  -14.3329 O   0  0  0  0  0  0  0  0  0  0  0  0
   17.1977   -4.5380  -14.1327 O   0  0  0  0  0  0  0  0  0  0  0  0
   22.6163   -6.5104  -13.9042 O   0  0  0  0  0  0  0  0  0  0  0  0
  2  1  1  0
  3  4  1  1
  3  2  1  0
  5  3  1  0
  6  5  2  0
  7  5  1  0
  8 12  1  0
  8  7  1  0
  8  9  1  6
 10  9  1  0
 11 10  2  0
 12 15  1  0
 13 12  2  0
 14 10  1  0
 15 16  1  0
 16 17  1  1
 16 20  1  0
 17 18  1  0
 18 22  1  0
 19 18  2  0
 20 23  2  0
 20 21  1  0
M  END
$$$$
