SDD.pdb
     RDKit          3D

 23 22  0  0  1  0  0  0  0  0999 V2000
   12.9506   -6.0440   -8.6560 O   0  0  0  0  0  0  0  0  0  0  0  0
   13.9934   -6.4728   -9.4626 C   0  0  0  0  0  0  0  0  0  0  0  0
   14.7856   -7.4851   -8.6448 C   0  0  2  0  0  0  0  0  0  0  0  0
   15.3101   -6.8140   -7.5098 N   0  0  0  0  0  0  0  0  0  0  0  0
   15.8315   -8.1322   -9.5073 C   0  0  0  0  0  0  0  0  0  0  0  0
   16.9982   -7.9398   -9.1845 O   0  0  0  0  0  0  0  0  0  0  0  0
   15.4931   -8.9150  -10.6216 N   0  0  0  0  0  0  0  0  0  0  0  0
   16.3037   -9.5285  -11.6082 C   0  0  1  0  0  0  0  0  0  0  0  0
   15.7765  -10.7068  -12.3540 C   0  0  0  0  0  0  0  0  0  0  0  0
   15.2597  -11.8093  -11.5103 C   0  0  0  0  0  0  0  0  0  0  0  0
   16.0851  -12.4792  -10.7878 O   0  0  0  0  0  0  0  0  0  0  0  0
   17.1221   -8.5868  -12.3852 C   0  0  0  0  0  0  0  0  0  0  0  0
   16.5633   -7.5323  -12.8622 O   0  0  0  0  0  0  0  0  0  0  0  0
   13.9242  -12.1433  -11.4745 O   0  0  0  0  0  0  0  0  0  0  0  0
   18.4970   -8.7434  -12.6586 N   0  0  0  0  0  0  0  0  0  0  0  0
   19.2146   -7.7616  -13.5145 C   0  0  1  0  0  0  0  0  0  0  0  0
   20.4571   -7.4096  -12.7403 C   0  0  0  0  0  0  0  0  0  0  0  0
   21.3442   -6.4475  -13.3980 C   0  0  0  0  0  0  0  0  0  0  0  0
   21.1225   -6.0159  -14.5383 O   0  0  0  0  0  0  0  0  0  0  0  0
   19.4863   -8.3921  -14.8206 C   0  0  0  0  0  0  0  0  0  0  0  0
   19.3864   -7.6726  -16.0196 O   0  0  0  0  0  0  0  0  0  0  0  0
   22.4801   -5.9847  -12.7469 O   0  0  0  0  0  0  0  0  0  0  0  0
   19.8143   -9.5886  -14.8944 O   0  0  0  0  0  0  0  0  0  0  0  0
  2  1  1  0
  3  4  1  1
  3  2  1  0
  5  3  1  0
  6  5  2  0
  7  5  1  0
  8 12  1  0
  8  7  1  0
  8  9  1  6
 10  9  1  0
 11 10  2  0
 12 15  1  0
 13 12  2  0
 14 10  1  0
 15 16  1  0
 16 17  1  1
 16 20  1  0
 17 18  1  0
 18 22  1  0
 19 18  2  0
 20 23  2  0
 20 21  1  0
M  END
$$$$
