SDD.pdb
     RDKit          3D

 23 22  0  0  1  0  0  0  0  0999 V2000
   14.7794  -10.3380  -17.2023 O   0  0  0  0  0  0  0  0  0  0  0  0
   15.8511   -9.7216  -16.5750 C   0  0  0  0  0  0  0  0  0  0  0  0
   17.0886  -10.5351  -16.9327 C   0  0  2  0  0  0  0  0  0  0  0  0
   16.7688  -11.9084  -16.7734 N   0  0  0  0  0  0  0  0  0  0  0  0
   18.2557  -10.0810  -16.1031 C   0  0  0  0  0  0  0  0  0  0  0  0
   18.1703  -10.2691  -14.8949 O   0  0  0  0  0  0  0  0  0  0  0  0
   19.3832   -9.4753  -16.6783 N   0  0  0  0  0  0  0  0  0  0  0  0
   20.5386   -8.9086  -16.0861 C   0  0  1  0  0  0  0  0  0  0  0  0
   21.8737   -9.5031  -16.3805 C   0  0  0  0  0  0  0  0  0  0  0  0
   23.0145   -8.8756  -15.6740 C   0  0  0  0  0  0  0  0  0  0  0  0
   23.6391   -7.9053  -16.2400 O   0  0  0  0  0  0  0  0  0  0  0  0
   20.4967   -7.4442  -15.9667 C   0  0  0  0  0  0  0  0  0  0  0  0
   20.6065   -6.7352  -17.0330 O   0  0  0  0  0  0  0  0  0  0  0  0
   23.4312   -9.2976  -14.4311 O   0  0  0  0  0  0  0  0  0  0  0  0
   20.3434   -6.7345  -14.7574 N   0  0  0  0  0  0  0  0  0  0  0  0
   20.4633   -5.2525  -14.7298 C   0  0  1  0  0  0  0  0  0  0  0  0
   19.3198   -4.7883  -13.8673 C   0  0  0  0  0  0  0  0  0  0  0  0
   18.0414   -4.6332  -14.5652 C   0  0  0  0  0  0  0  0  0  0  0  0
   16.9855   -4.3883  -13.9646 O   0  0  0  0  0  0  0  0  0  0  0  0
   21.7928   -4.9018  -14.1943 C   0  0  0  0  0  0  0  0  0  0  0  0
   22.6683   -5.8793  -13.7012 O   0  0  0  0  0  0  0  0  0  0  0  0
   17.9789   -4.7593  -15.9467 O   0  0  0  0  0  0  0  0  0  0  0  0
   22.1766   -3.7201  -14.1658 O   0  0  0  0  0  0  0  0  0  0  0  0
  2  1  1  0
  3  4  1  1
  3  2  1  0
  5  3  1  0
  6  5  2  0
  7  5  1  0
  8 12  1  0
  8  7  1  0
  8  9  1  6
 10  9  1  0
 11 10  2  0
 12 15  1  0
 13 12  2  0
 14 10  1  0
 15 16  1  0
 16 17  1  1
 16 20  1  0
 17 18  1  0
 18 22  1  0
 19 18  2  0
 20 23  2  0
 20 21  1  0
M  END
$$$$
