SDD.pdb
     RDKit          3D

 23 22  0  0  1  0  0  0  0  0999 V2000
   21.4393  -12.2501  -19.8222 O   0  0  0  0  0  0  0  0  0  0  0  0
   20.2865  -12.0071  -19.0914 C   0  0  0  0  0  0  0  0  0  0  0  0
   20.5538  -12.5137  -17.6797 C   0  0  2  0  0  0  0  0  0  0  0  0
   20.1080  -13.8590  -17.6074 N   0  0  0  0  0  0  0  0  0  0  0  0
   19.9040  -11.6018  -16.6782 C   0  0  0  0  0  0  0  0  0  0  0  0
   18.8494  -11.9924  -16.1907 O   0  0  0  0  0  0  0  0  0  0  0  0
   20.4723  -10.3703  -16.3188 N   0  0  0  0  0  0  0  0  0  0  0  0
   20.0201   -9.3596  -15.4352 C   0  0  1  0  0  0  0  0  0  0  0  0
   19.3088   -9.7506  -14.1846 C   0  0  0  0  0  0  0  0  0  0  0  0
   18.8819   -8.6246  -13.3220 C   0  0  0  0  0  0  0  0  0  0  0  0
   19.4670   -8.4510  -12.1907 O   0  0  0  0  0  0  0  0  0  0  0  0
   20.9233   -8.2048  -15.3293 C   0  0  0  0  0  0  0  0  0  0  0  0
   22.1192   -8.3948  -14.8988 O   0  0  0  0  0  0  0  0  0  0  0  0
   17.8773   -7.7573  -13.6892 O   0  0  0  0  0  0  0  0  0  0  0  0
   20.5839   -6.8778  -15.6663 N   0  0  0  0  0  0  0  0  0  0  0  0
   21.6067   -5.7995  -15.6159 C   0  0  1  0  0  0  0  0  0  0  0  0
   21.3636   -4.9781  -16.8542 C   0  0  0  0  0  0  0  0  0  0  0  0
   22.2245   -3.8015  -16.9952 C   0  0  0  0  0  0  0  0  0  0  0  0
   21.8313   -2.7545  -17.5288 O   0  0  0  0  0  0  0  0  0  0  0  0
   21.4298   -5.0472  -14.3589 C   0  0  0  0  0  0  0  0  0  0  0  0
   22.3963   -4.1403  -13.9023 O   0  0  0  0  0  0  0  0  0  0  0  0
   23.5307   -3.8300  -16.5246 O   0  0  0  0  0  0  0  0  0  0  0  0
   20.4101   -5.1978  -13.6645 O   0  0  0  0  0  0  0  0  0  0  0  0
  2  1  1  0
  3  4  1  6
  3  2  1  0
  5  3  1  0
  6  5  2  0
  7  5  1  0
  8 12  1  0
  8  7  1  0
  8  9  1  1
 10  9  1  0
 11 10  2  0
 12 15  1  0
 13 12  2  0
 14 10  1  0
 15 16  1  0
 16 17  1  6
 16 20  1  0
 17 18  1  0
 18 22  1  0
 19 18  2  0
 20 23  2  0
 20 21  1  0
M  END
$$$$
