SDD.pdb
     RDKit          3D

 23 22  0  0  1  0  0  0  0  0999 V2000
   15.3461  -27.5459   -4.5206 O   0  0  0  0  0  0  0  0  0  0  0  0
   16.4256  -27.0199   -5.2136 C   0  0  0  0  0  0  0  0  0  0  0  0
   16.9059  -25.8138   -4.4163 C   0  0  2  0  0  0  0  0  0  0  0  0
   17.9293  -25.1760   -5.1644 N   0  0  0  0  0  0  0  0  0  0  0  0
   17.3347  -26.2470   -3.0433 C   0  0  0  0  0  0  0  0  0  0  0  0
   18.5285  -26.1395   -2.7870 O   0  0  0  0  0  0  0  0  0  0  0  0
   16.4198  -26.7468   -2.1041 N   0  0  0  0  0  0  0  0  0  0  0  0
   16.5876  -27.1138   -0.7462 C   0  0  1  0  0  0  0  0  0  0  0  0
   15.8618  -26.3510    0.3092 C   0  0  0  0  0  0  0  0  0  0  0  0
   16.7236  -25.6047    1.2551 C   0  0  0  0  0  0  0  0  0  0  0  0
   16.9219  -24.3500    1.0586 O   0  0  0  0  0  0  0  0  0  0  0  0
   16.7119  -28.5617   -0.5254 C   0  0  0  0  0  0  0  0  0  0  0  0
   15.7860  -29.3349   -0.9689 O   0  0  0  0  0  0  0  0  0  0  0  0
   17.3222  -26.2094    2.3378 O   0  0  0  0  0  0  0  0  0  0  0  0
   17.7820  -29.1895    0.1456 N   0  0  0  0  0  0  0  0  0  0  0  0
   17.7971  -30.6649    0.3311 C   0  0  1  0  0  0  0  0  0  0  0  0
   19.2470  -31.0542    0.2145 C   0  0  0  0  0  0  0  0  0  0  0  0
   19.6760  -31.4474   -1.1296 C   0  0  0  0  0  0  0  0  0  0  0  0
   18.9118  -31.4120   -2.1045 O   0  0  0  0  0  0  0  0  0  0  0  0
   17.2014  -30.9761    1.6447 C   0  0  0  0  0  0  0  0  0  0  0  0
   17.2654  -30.0721    2.7141 O   0  0  0  0  0  0  0  0  0  0  0  0
   20.9774  -31.8788   -1.3503 O   0  0  0  0  0  0  0  0  0  0  0  0
   16.6211  -32.0576    1.8408 O   0  0  0  0  0  0  0  0  0  0  0  0
  2  1  1  0
  3  4  1  6
  3  2  1  0
  5  3  1  0
  6  5  2  0
  7  5  1  0
  8 12  1  0
  8  7  1  0
  8  9  1  1
 10  9  1  0
 11 10  2  0
 12 15  1  0
 13 12  2  0
 14 10  1  0
 15 16  1  0
 16 17  1  1
 16 20  1  0
 17 18  1  0
 18 22  1  0
 19 18  2  0
 20 23  2  0
 20 21  1  0
M  END
$$$$
