SDD.pdb
     RDKit          3D

 23 22  0  0  1  0  0  0  0  0999 V2000
   10.6743  -12.6485  -11.5968 O   0  0  0  0  0  0  0  0  0  0  0  0
   11.5610  -11.6739  -11.1655 C   0  0  0  0  0  0  0  0  0  0  0  0
   12.9257  -12.3436  -11.0654 C   0  0  2  0  0  0  0  0  0  0  0  0
   12.8037  -13.4535  -10.1896 N   0  0  0  0  0  0  0  0  0  0  0  0
   13.9572  -11.3393  -10.6362 C   0  0  0  0  0  0  0  0  0  0  0  0
   13.9355  -11.0073   -9.4566 O   0  0  0  0  0  0  0  0  0  0  0  0
   14.8956  -10.8100  -11.5352 N   0  0  0  0  0  0  0  0  0  0  0  0
   15.9445   -9.8775  -11.3432 C   0  0  1  0  0  0  0  0  0  0  0  0
   17.1371   -9.9289  -12.2364 C   0  0  0  0  0  0  0  0  0  0  0  0
   18.2010   -8.9455  -11.9273 C   0  0  0  0  0  0  0  0  0  0  0  0
   18.6301   -8.1780  -12.8648 O   0  0  0  0  0  0  0  0  0  0  0  0
   15.4919   -8.5360  -10.9482 C   0  0  0  0  0  0  0  0  0  0  0  0
   14.7693   -7.8621  -11.7699 O   0  0  0  0  0  0  0  0  0  0  0  0
   18.7485   -8.8261  -10.6695 O   0  0  0  0  0  0  0  0  0  0  0  0
   15.7885   -7.9107   -9.7190 N   0  0  0  0  0  0  0  0  0  0  0  0
   15.2348   -6.5678   -9.4006 C   0  0  1  0  0  0  0  0  0  0  0  0
   14.8956   -6.6272   -7.9348 C   0  0  0  0  0  0  0  0  0  0  0  0
   14.2792   -5.4142   -7.3926 C   0  0  0  0  0  0  0  0  0  0  0  0
   14.0268   -4.4281   -8.0993 O   0  0  0  0  0  0  0  0  0  0  0  0
   16.2520   -5.5525   -9.7350 C   0  0  0  0  0  0  0  0  0  0  0  0
   15.9265   -4.1933   -9.8440 O   0  0  0  0  0  0  0  0  0  0  0  0
   13.9550   -5.3369   -6.0445 O   0  0  0  0  0  0  0  0  0  0  0  0
   17.4357   -5.8770   -9.9307 O   0  0  0  0  0  0  0  0  0  0  0  0
  2  1  1  0
  3  4  1  1
  3  2  1  0
  5  3  1  0
  6  5  2  0
  7  5  1  0
  8 12  1  0
  8  7  1  0
  8  9  1  6
 10  9  1  0
 11 10  2  0
 12 15  1  0
 13 12  2  0
 14 10  1  0
 15 16  1  0
 16 17  1  1
 16 20  1  0
 17 18  1  0
 18 22  1  0
 19 18  2  0
 20 23  2  0
 20 21  1  0
M  END
$$$$
