SDD.pdb
     RDKit          3D

 23 22  0  0  1  0  0  0  0  0999 V2000
   13.1176  -13.3687  -13.7343 O   0  0  0  0  0  0  0  0  0  0  0  0
   13.7686  -12.1879  -14.0567 C   0  0  0  0  0  0  0  0  0  0  0  0
   14.9103  -12.5644  -14.9925 C   0  0  2  0  0  0  0  0  0  0  0  0
   15.7053  -13.5418  -14.3395 N   0  0  0  0  0  0  0  0  0  0  0  0
   15.6687  -11.3316  -15.3947 C   0  0  0  0  0  0  0  0  0  0  0  0
   16.6734  -11.5084  -16.0741 O   0  0  0  0  0  0  0  0  0  0  0  0
   15.2508  -10.0472  -15.0148 N   0  0  0  0  0  0  0  0  0  0  0  0
   15.6950   -8.7656  -15.4234 C   0  0  1  0  0  0  0  0  0  0  0  0
   14.6960   -7.6758  -15.6159 C   0  0  0  0  0  0  0  0  0  0  0  0
   15.2358   -6.4156  -16.1771 C   0  0  0  0  0  0  0  0  0  0  0  0
   15.3231   -5.3831  -15.4166 O   0  0  0  0  0  0  0  0  0  0  0  0
   16.9849   -8.3632  -14.8447 C   0  0  0  0  0  0  0  0  0  0  0  0
   17.0771   -8.2417  -13.5686 O   0  0  0  0  0  0  0  0  0  0  0  0
   15.6459   -6.3109  -17.4875 O   0  0  0  0  0  0  0  0  0  0  0  0
   18.1552   -8.0931  -15.5843 N   0  0  0  0  0  0  0  0  0  0  0  0
   19.4225   -7.7384  -14.8919 C   0  0  1  0  0  0  0  0  0  0  0  0
   20.3312   -8.9169  -15.1213 C   0  0  0  0  0  0  0  0  0  0  0  0
   21.6987   -8.7499  -14.6240 C   0  0  0  0  0  0  0  0  0  0  0  0
   22.6828   -9.1906  -15.2347 O   0  0  0  0  0  0  0  0  0  0  0  0
   19.9293   -6.4763  -15.4641 C   0  0  0  0  0  0  0  0  0  0  0  0
   20.7444   -5.6083  -14.7243 O   0  0  0  0  0  0  0  0  0  0  0  0
   21.9321   -8.0795  -13.4305 O   0  0  0  0  0  0  0  0  0  0  0  0
   19.6454   -6.1452  -16.6279 O   0  0  0  0  0  0  0  0  0  0  0  0
  2  1  1  0
  3  4  1  1
  3  2  1  0
  5  3  1  0
  6  5  2  0
  7  5  1  0
  8 12  1  0
  8  7  1  0
  8  9  1  1
 10  9  1  0
 11 10  2  0
 12 15  1  0
 13 12  2  0
 14 10  1  0
 15 16  1  0
 16 17  1  6
 16 20  1  0
 17 18  1  0
 18 22  1  0
 19 18  2  0
 20 23  2  0
 20 21  1  0
M  END
$$$$
