SDD.pdb
     RDKit          3D

 23 22  0  0  1  0  0  0  0  0999 V2000
   25.4292  -13.0768  -15.6259 O   0  0  0  0  0  0  0  0  0  0  0  0
   24.7311  -11.9189  -15.9325 C   0  0  0  0  0  0  0  0  0  0  0  0
   23.3946  -12.3605  -16.5155 C   0  0  2  0  0  0  0  0  0  0  0  0
   23.6416  -12.9246  -17.7940 N   0  0  0  0  0  0  0  0  0  0  0  0
   22.4382  -11.2022  -16.5351 C   0  0  0  0  0  0  0  0  0  0  0  0
   22.6876  -10.3041  -17.3311 O   0  0  0  0  0  0  0  0  0  0  0  0
   21.3196  -11.1501  -15.6896 N   0  0  0  0  0  0  0  0  0  0  0  0
   20.3130  -10.1649  -15.5382 C   0  0  1  0  0  0  0  0  0  0  0  0
   18.9357  -10.5846  -15.1516 C   0  0  0  0  0  0  0  0  0  0  0  0
   17.9313   -9.4965  -15.1116 C   0  0  0  0  0  0  0  0  0  0  0  0
   17.7241   -8.8018  -16.1731 O   0  0  0  0  0  0  0  0  0  0  0  0
   20.7898   -8.9022  -14.9562 C   0  0  0  0  0  0  0  0  0  0  0  0
   21.3878   -8.9344  -13.8191 O   0  0  0  0  0  0  0  0  0  0  0  0
   17.2123   -9.2014  -13.9749 O   0  0  0  0  0  0  0  0  0  0  0  0
   20.6446   -7.6311  -15.5501 N   0  0  0  0  0  0  0  0  0  0  0  0
   21.2379   -6.4260  -14.9121 C   0  0  1  0  0  0  0  0  0  0  0  0
   22.0902   -5.8009  -15.9845 C   0  0  0  0  0  0  0  0  0  0  0  0
   22.7544   -4.5538  -15.5987 C   0  0  0  0  0  0  0  0  0  0  0  0
   22.6491   -4.0730  -14.4614 O   0  0  0  0  0  0  0  0  0  0  0  0
   20.1405   -5.5581  -14.4433 C   0  0  0  0  0  0  0  0  0  0  0  0
   18.7961   -5.9242  -14.5978 O   0  0  0  0  0  0  0  0  0  0  0  0
   23.5354   -3.8641  -16.5167 O   0  0  0  0  0  0  0  0  0  0  0  0
   20.3798   -4.4695  -13.8935 O   0  0  0  0  0  0  0  0  0  0  0  0
  2  1  1  0
  3  4  1  6
  3  2  1  0
  5  3  1  0
  6  5  2  0
  7  5  1  0
  8 12  1  0
  8  7  1  0
  8  9  1  1
 10  9  1  0
 11 10  2  0
 12 15  1  0
 13 12  2  0
 14 10  1  0
 15 16  1  0
 16 17  1  6
 16 20  1  0
 17 18  1  0
 18 22  1  0
 19 18  2  0
 20 23  2  0
 20 21  1  0
M  END
$$$$
