SDD.pdb
     RDKit          3D

 23 22  0  0  1  0  0  0  0  0999 V2000
   24.6629  -13.4422  -15.6031 O   0  0  0  0  0  0  0  0  0  0  0  0
   24.2890  -12.1476  -15.9293 C   0  0  0  0  0  0  0  0  0  0  0  0
   23.0278  -12.2614  -16.7762 C   0  0  2  0  0  0  0  0  0  0  0  0
   23.3873  -12.8482  -18.0173 N   0  0  0  0  0  0  0  0  0  0  0  0
   22.3759  -10.9142  -16.9053 C   0  0  0  0  0  0  0  0  0  0  0  0
   22.8038  -10.1856  -17.7932 O   0  0  0  0  0  0  0  0  0  0  0  0
   21.3334  -10.5107  -16.0571 N   0  0  0  0  0  0  0  0  0  0  0  0
   20.5830   -9.3100  -16.0117 C   0  0  1  0  0  0  0  0  0  0  0  0
   19.1550   -9.3595  -15.5863 C   0  0  0  0  0  0  0  0  0  0  0  0
   18.4155   -8.0815  -15.7055 C   0  0  0  0  0  0  0  0  0  0  0  0
   18.0708   -7.4601  -14.6345 O   0  0  0  0  0  0  0  0  0  0  0  0
   21.3492   -8.1384  -15.5637 C   0  0  0  0  0  0  0  0  0  0  0  0
   22.0901   -8.2486  -14.5194 O   0  0  0  0  0  0  0  0  0  0  0  0
   18.0821   -7.5364  -16.9253 O   0  0  0  0  0  0  0  0  0  0  0  0
   21.3415   -6.8765  -16.1939 N   0  0  0  0  0  0  0  0  0  0  0  0
   22.1242   -5.7447  -15.6302 C   0  0  1  0  0  0  0  0  0  0  0  0
   22.4504   -4.8730  -16.8138 C   0  0  0  0  0  0  0  0  0  0  0  0
   23.1373   -3.6207  -16.4894 C   0  0  0  0  0  0  0  0  0  0  0  0
   23.9581   -3.5370  -15.5648 O   0  0  0  0  0  0  0  0  0  0  0  0
   21.3017   -5.0731  -14.6056 C   0  0  0  0  0  0  0  0  0  0  0  0
   21.8822   -4.3520  -13.5530 O   0  0  0  0  0  0  0  0  0  0  0  0
   22.8808   -2.4712  -17.2252 O   0  0  0  0  0  0  0  0  0  0  0  0
   20.0608   -5.1285  -14.6482 O   0  0  0  0  0  0  0  0  0  0  0  0
  2  1  1  0
  3  4  1  6
  3  2  1  0
  5  3  1  0
  6  5  2  0
  7  5  1  0
  8 12  1  0
  8  7  1  0
  8  9  1  1
 10  9  1  0
 11 10  2  0
 12 15  1  0
 13 12  2  0
 14 10  1  0
 15 16  1  0
 16 17  1  6
 16 20  1  0
 17 18  1  0
 18 22  1  0
 19 18  2  0
 20 23  2  0
 20 21  1  0
M  END
$$$$
