SDD.pdb
     RDKit          3D

 23 22  0  0  1  0  0  0  0  0999 V2000
   14.0640   -8.7312  -16.9414 O   0  0  0  0  0  0  0  0  0  0  0  0
   15.2056   -8.3232  -16.2688 C   0  0  0  0  0  0  0  0  0  0  0  0
   15.8944   -9.5900  -15.7768 C   0  0  2  0  0  0  0  0  0  0  0  0
   15.0632  -10.1838  -14.7918 N   0  0  0  0  0  0  0  0  0  0  0  0
   17.2776   -9.2632  -15.2905 C   0  0  0  0  0  0  0  0  0  0  0  0
   17.3721   -8.8976  -14.1244 O   0  0  0  0  0  0  0  0  0  0  0  0
   18.4012   -9.3709  -16.1240 N   0  0  0  0  0  0  0  0  0  0  0  0
   19.7721   -9.1152  -15.8750 C   0  0  1  0  0  0  0  0  0  0  0  0
   20.7966  -10.0629  -16.3993 C   0  0  0  0  0  0  0  0  0  0  0  0
   22.1729   -9.8480  -15.8956 C   0  0  0  0  0  0  0  0  0  0  0  0
   23.1120  -10.6272  -16.2995 O   0  0  0  0  0  0  0  0  0  0  0  0
   20.1341   -7.6910  -15.9081 C   0  0  0  0  0  0  0  0  0  0  0  0
   20.1021   -7.0727  -17.0343 O   0  0  0  0  0  0  0  0  0  0  0  0
   22.4816   -8.8424  -15.0069 O   0  0  0  0  0  0  0  0  0  0  0  0
   20.5220   -6.9278  -14.7871 N   0  0  0  0  0  0  0  0  0  0  0  0
   20.9504   -5.5128  -14.9469 C   0  0  1  0  0  0  0  0  0  0  0  0
   19.7054   -4.7021  -14.7022 C   0  0  0  0  0  0  0  0  0  0  0  0
   19.8963   -3.2502  -14.7333 C   0  0  0  0  0  0  0  0  0  0  0  0
   20.0136   -2.5763  -13.7000 O   0  0  0  0  0  0  0  0  0  0  0  0
   22.0353   -5.2421  -13.9841 C   0  0  0  0  0  0  0  0  0  0  0  0
   22.4496   -6.2048  -13.0531 O   0  0  0  0  0  0  0  0  0  0  0  0
   19.9519   -2.5778  -15.9470 O   0  0  0  0  0  0  0  0  0  0  0  0
   22.6170   -4.1439  -13.9721 O   0  0  0  0  0  0  0  0  0  0  0  0
  2  1  1  0
  3  4  1  1
  3  2  1  0
  5  3  1  0
  6  5  2  0
  7  5  1  0
  8 12  1  0
  8  7  1  0
  8  9  1  6
 10  9  1  0
 11 10  2  0
 12 15  1  0
 13 12  2  0
 14 10  1  0
 15 16  1  0
 16 17  1  1
 16 20  1  0
 17 18  1  0
 18 22  1  0
 19 18  2  0
 20 23  2  0
 20 21  1  0
M  END
$$$$
