QHH.pdb
     RDKit          3D

 30 31  0  0  1  0  0  0  0  0999 V2000
   15.0414  -17.7748   18.5949 N   0  0  0  0  0  0  0  0  0  0  0  0
   14.2273  -18.3019   17.5570 C   0  0  0  0  0  0  0  0  0  0  0  0
   14.7989  -19.0476   16.7048 O   0  0  0  0  0  0  0  0  0  0  0  0
   12.7571  -17.9898   17.4731 C   0  0  0  0  0  0  0  0  0  0  0  0
   12.4406  -17.0405   18.5761 C   0  0  0  0  0  0  0  0  0  0  0  0
   11.4523  -17.5221   19.5778 C   0  0  2  0  0  0  0  0  0  0  0  0
   10.3072  -18.0538   18.8289 N   0  0  0  0  0  0  0  0  0  0  0  0
   11.0510  -16.5640   20.6009 C   0  0  0  0  0  0  0  0  0  0  0  0
   11.9378  -15.9737   21.2691 O   0  0  0  0  0  0  0  0  0  0  0  0
    9.7064  -16.2263   20.9213 N   0  0  0  0  0  0  0  0  0  0  0  0
    9.3219  -15.3199   21.9727 C   0  0  1  0  0  0  0  0  0  0  0  0
    8.0678  -14.5550   21.6429 C   0  0  0  0  0  0  0  0  0  0  0  0
    8.0991  -13.9512   20.3012 C   0  0  0  0  0  0  0  0  0  0  0  0
    9.1187  -13.1582   19.8354 C   0  0  0  0  0  0  0  0  0  0  0  0
    8.7895  -12.8012   18.5807 N   0  0  0  0  0  0  0  0  0  0  0  0
    7.6110  -13.3385   18.2504 C   0  0  0  0  0  0  0  0  0  0  0  0
    7.2023  -14.0384   19.3126 N   0  0  0  0  0  0  0  0  0  0  0  0
    9.2039  -15.9677   23.2889 C   0  0  0  0  0  0  0  0  0  0  0  0
    8.1175  -16.2256   23.8685 O   0  0  0  0  0  0  0  0  0  0  0  0
   10.4072  -16.3297   23.9558 N   0  0  0  0  0  0  0  0  0  0  0  0
   10.3161  -17.0027   25.2644 C   0  0  1  0  0  0  0  0  0  0  0  0
   11.0631  -18.3172   25.0970 C   0  0  0  0  0  0  0  0  0  0  0  0
   10.3381  -19.3232   24.3392 C   0  0  0  0  0  0  0  0  0  0  0  0
    9.1027  -19.1882   23.7640 C   0  0  0  0  0  0  0  0  0  0  0  0
    8.8002  -20.3577   23.1564 N   0  0  0  0  0  0  0  0  0  0  0  0
    9.8206  -21.2026   23.3469 C   0  0  0  0  0  0  0  0  0  0  0  0
   10.7603  -20.5625   24.0728 N   0  0  0  0  0  0  0  0  0  0  0  0
   11.1012  -16.1769   26.2182 C   0  0  0  0  0  0  0  0  0  0  0  0
   11.0566  -16.3538   27.5896 O   0  0  0  0  0  0  0  0  0  0  0  0
   11.8358  -15.2765   25.7120 O   0  0  0  0  0  0  0  0  0  0  0  0
  2  1  1  0
  2  3  2  0
  4  5  1  0
  4  2  1  0
  6  7  1  6
  6  5  1  0
  8  6  1  0
  9  8  2  0
 10  8  1  0
 11 10  1  0
 11 12  1  6
 12 13  1  0
 13 14  2  0
 14 15  1  0
 16 15  1  0
 17 13  1  0
 17 16  2  0
 18 20  1  0
 18 11  1  0
 19 18  2  0
 21 28  1  0
 21 20  1  0
 21 22  1  6
 23 22  1  0
 23 24  2  0
 25 24  1  0
 26 25  1  0
 27 26  2  0
 27 23  1  0
 28 29  1  0
 30 28  2  0
M  END
$$$$
