QHH.pdb
     RDKit          3D

 30 31  0  0  1  0  0  0  0  0999 V2000
   11.9626  -17.8667   15.1556 N   0  0  0  0  0  0  0  0  0  0  0  0
   11.0690  -18.9484   15.3773 C   0  0  0  0  0  0  0  0  0  0  0  0
   10.8582  -19.7259   14.3975 O   0  0  0  0  0  0  0  0  0  0  0  0
   10.4044  -19.1608   16.7111 C   0  0  0  0  0  0  0  0  0  0  0  0
   10.9238  -18.1172   17.6378 C   0  0  0  0  0  0  0  0  0  0  0  0
   10.3756  -18.1514   19.0201 C   0  0  2  0  0  0  0  0  0  0  0  0
    9.1268  -18.9212   18.9669 N   0  0  0  0  0  0  0  0  0  0  0  0
   10.2062  -16.8620   19.6793 C   0  0  0  0  0  0  0  0  0  0  0  0
   11.2125  -16.1301   19.8615 O   0  0  0  0  0  0  0  0  0  0  0  0
    8.9683  -16.3413   20.1492 N   0  0  0  0  0  0  0  0  0  0  0  0
    8.8280  -15.1103   20.8841 C   0  0  1  0  0  0  0  0  0  0  0  0
    7.7471  -14.2253   20.3231 C   0  0  0  0  0  0  0  0  0  0  0  0
    7.8491  -14.0467   18.8659 C   0  0  0  0  0  0  0  0  0  0  0  0
    8.8436  -14.5888   18.0898 C   0  0  0  0  0  0  0  0  0  0  0  0
    8.5979  -14.2074   16.8232 N   0  0  0  0  0  0  0  0  0  0  0  0
    7.4952  -13.4532   16.7822 C   0  0  0  0  0  0  0  0  0  0  0  0
    7.0495  -13.3645   18.0386 N   0  0  0  0  0  0  0  0  0  0  0  0
    8.6368  -15.3109   22.3295 C   0  0  0  0  0  0  0  0  0  0  0  0
    7.6009  -14.9929   22.9686 O   0  0  0  0  0  0  0  0  0  0  0  0
    9.7018  -15.9089   23.0587 N   0  0  0  0  0  0  0  0  0  0  0  0
    9.4568  -16.3332   24.4492 C   0  0  1  0  0  0  0  0  0  0  0  0
    8.8985  -17.7446   24.3499 C   0  0  0  0  0  0  0  0  0  0  0  0
    7.5084  -17.8083   23.9309 C   0  0  0  0  0  0  0  0  0  0  0  0
    6.5399  -16.8646   24.1467 C   0  0  0  0  0  0  0  0  0  0  0  0
    5.3918  -17.3174   23.5940 N   0  0  0  0  0  0  0  0  0  0  0  0
    5.6363  -18.5140   23.0465 C   0  0  0  0  0  0  0  0  0  0  0  0
    6.9357  -18.8094   23.2563 N   0  0  0  0  0  0  0  0  0  0  0  0
   10.7893  -16.4392   25.0982 C   0  0  0  0  0  0  0  0  0  0  0  0
   11.9786  -16.2056   24.4311 O   0  0  0  0  0  0  0  0  0  0  0  0
   10.7950  -16.7615   26.3241 O   0  0  0  0  0  0  0  0  0  0  0  0
  2  1  1  0
  2  3  2  0
  4  5  1  0
  4  2  1  0
  6  7  1  6
  6  5  1  0
  8  6  1  0
  9  8  2  0
 10  8  1  0
 11 10  1  0
 11 12  1  6
 12 13  1  0
 13 14  2  0
 14 15  1  0
 16 15  1  0
 17 13  1  0
 17 16  2  0
 18 20  1  0
 18 11  1  0
 19 18  2  0
 21 28  1  0
 21 20  1  0
 21 22  1  6
 23 22  1  0
 23 24  2  0
 25 24  1  0
 26 25  1  0
 27 26  2  0
 27 23  1  0
 28 29  1  0
 30 28  2  0
M  END
$$$$
