QHH.pdb
     RDKit          3D

 30 31  0  0  1  0  0  0  0  0999 V2000
   12.7804  -19.8897   16.1896 N   0  0  0  0  0  0  0  0  0  0  0  0
   12.2641  -20.3692   14.9562 C   0  0  0  0  0  0  0  0  0  0  0  0
   11.8141  -21.5551   14.9470 O   0  0  0  0  0  0  0  0  0  0  0  0
   12.2520  -19.5105   13.7199 C   0  0  0  0  0  0  0  0  0  0  0  0
   12.7408  -18.1596   14.1121 C   0  0  0  0  0  0  0  0  0  0  0  0
   11.7810  -17.0419   13.9075 C   0  0  2  0  0  0  0  0  0  0  0  0
   12.2545  -16.2773   12.7473 N   0  0  0  0  0  0  0  0  0  0  0  0
   11.5224  -16.1933   15.0645 C   0  0  0  0  0  0  0  0  0  0  0  0
   12.4010  -15.3710   15.4299 O   0  0  0  0  0  0  0  0  0  0  0  0
   10.3303  -16.2118   15.8410 N   0  0  0  0  0  0  0  0  0  0  0  0
   10.1052  -15.3992   17.0089 C   0  0  1  0  0  0  0  0  0  0  0  0
    8.6448  -15.2803   17.3545 C   0  0  0  0  0  0  0  0  0  0  0  0
    8.3922  -14.3577   18.4729 C   0  0  0  0  0  0  0  0  0  0  0  0
    7.7161  -14.6999   19.6179 C   0  0  0  0  0  0  0  0  0  0  0  0
    7.6892  -13.6019   20.3948 N   0  0  0  0  0  0  0  0  0  0  0  0
    8.3190  -12.5957   19.7802 C   0  0  0  0  0  0  0  0  0  0  0  0
    8.7428  -13.0739   18.6068 N   0  0  0  0  0  0  0  0  0  0  0  0
   10.8826  -15.8324   18.1811 C   0  0  0  0  0  0  0  0  0  0  0  0
   11.0932  -17.0306   18.5013 O   0  0  0  0  0  0  0  0  0  0  0  0
   11.4377  -14.8217   19.0142 N   0  0  0  0  0  0  0  0  0  0  0  0
   12.3288  -15.2245   20.1175 C   0  0  1  0  0  0  0  0  0  0  0  0
   13.2123  -14.0159   20.3868 C   0  0  0  0  0  0  0  0  0  0  0  0
   14.3581  -13.9049   19.4998 C   0  0  0  0  0  0  0  0  0  0  0  0
   15.0421  -14.9324   18.9068 C   0  0  0  0  0  0  0  0  0  0  0  0
   16.0344  -14.3928   18.1633 N   0  0  0  0  0  0  0  0  0  0  0  0
   15.9725  -13.0617   18.2884 C   0  0  0  0  0  0  0  0  0  0  0  0
   14.9427  -12.7688   19.1090 N   0  0  0  0  0  0  0  0  0  0  0  0
   11.4644  -15.4041   21.3129 C   0  0  0  0  0  0  0  0  0  0  0  0
   11.9529  -15.7739   22.5533 O   0  0  0  0  0  0  0  0  0  0  0  0
   10.2246  -15.1991   21.1477 O   0  0  0  0  0  0  0  0  0  0  0  0
  2  1  1  0
  2  3  2  0
  4  5  1  0
  4  2  1  0
  6  7  1  6
  6  5  1  0
  8  6  1  0
  9  8  2  0
 10  8  1  0
 11 10  1  0
 11 12  1  1
 12 13  1  0
 13 14  2  0
 14 15  1  0
 16 15  1  0
 17 13  1  0
 17 16  2  0
 18 20  1  0
 18 11  1  0
 19 18  2  0
 21 28  1  0
 21 20  1  0
 21 22  1  1
 23 22  1  0
 23 24  2  0
 25 24  1  0
 26 25  1  0
 27 26  2  0
 27 23  1  0
 28 29  1  0
 30 28  2  0
M  END
$$$$
