QHH.pdb
     RDKit          3D

 30 31  0  0  1  0  0  0  0  0999 V2000
   15.2726  -12.7013   18.3240 N   0  0  0  0  0  0  0  0  0  0  0  0
   15.3997  -13.9378   17.6364 C   0  0  0  0  0  0  0  0  0  0  0  0
   16.2399  -13.9803   16.6870 O   0  0  0  0  0  0  0  0  0  0  0  0
   14.5765  -15.1392   18.0167 C   0  0  0  0  0  0  0  0  0  0  0  0
   13.6458  -14.7158   19.0994 C   0  0  0  0  0  0  0  0  0  0  0  0
   13.0059  -15.8172   19.8672 C   0  0  2  0  0  0  0  0  0  0  0  0
   12.4097  -16.7330   18.8869 N   0  0  0  0  0  0  0  0  0  0  0  0
   12.0596  -15.4177   20.9019 C   0  0  0  0  0  0  0  0  0  0  0  0
   12.3985  -14.5401   21.7364 O   0  0  0  0  0  0  0  0  0  0  0  0
   10.7480  -15.9468   21.0577 N   0  0  0  0  0  0  0  0  0  0  0  0
    9.8253  -15.5483   22.0896 C   0  0  1  0  0  0  0  0  0  0  0  0
    8.4068  -15.4651   21.5924 C   0  0  0  0  0  0  0  0  0  0  0  0
    8.2728  -14.6571   20.3697 C   0  0  0  0  0  0  0  0  0  0  0  0
    8.2790  -13.2842   20.3475 C   0  0  0  0  0  0  0  0  0  0  0  0
    8.1353  -12.9169   19.0612 N   0  0  0  0  0  0  0  0  0  0  0  0
    8.0405  -14.0025   18.2872 C   0  0  0  0  0  0  0  0  0  0  0  0
    8.1263  -15.0579   19.1020 N   0  0  0  0  0  0  0  0  0  0  0  0
    9.9036  -16.3842   23.2984 C   0  0  0  0  0  0  0  0  0  0  0  0
   10.5035  -17.4875   23.3719 O   0  0  0  0  0  0  0  0  0  0  0  0
    9.2533  -15.9098   24.4713 N   0  0  0  0  0  0  0  0  0  0  0  0
    9.3711  -16.6959   25.7129 C   0  0  1  0  0  0  0  0  0  0  0  0
    8.6082  -15.9069   26.7661 C   0  0  0  0  0  0  0  0  0  0  0  0
    9.3810  -14.8491   27.3953 C   0  0  0  0  0  0  0  0  0  0  0  0
   10.6727  -14.9287   27.8428 C   0  0  0  0  0  0  0  0  0  0  0  0
   11.0060  -13.7237   28.3580 N   0  0  0  0  0  0  0  0  0  0  0  0
    9.9493  -12.9113   28.2358 C   0  0  0  0  0  0  0  0  0  0  0  0
    8.9562  -13.6072   27.6448 N   0  0  0  0  0  0  0  0  0  0  0  0
    8.6178  -17.9566   25.4862 C   0  0  0  0  0  0  0  0  0  0  0  0
    8.6723  -19.0380   26.3474 O   0  0  0  0  0  0  0  0  0  0  0  0
    7.9013  -18.0049   24.4417 O   0  0  0  0  0  0  0  0  0  0  0  0
  2  1  1  0
  2  3  2  0
  4  5  1  0
  4  2  1  0
  6  7  1  6
  6  5  1  0
  8  6  1  0
  9  8  2  0
 10  8  1  0
 11 10  1  0
 11 12  1  6
 12 13  1  0
 13 14  2  0
 14 15  1  0
 16 15  1  0
 17 13  1  0
 17 16  2  0
 18 20  1  0
 18 11  1  0
 19 18  2  0
 21 28  1  0
 21 20  1  0
 21 22  1  1
 23 22  1  0
 23 24  2  0
 25 24  1  0
 26 25  1  0
 27 26  2  0
 27 23  1  0
 28 29  1  0
 30 28  2  0
M  END
$$$$
