QHH.pdb
     RDKit          3D

 30 31  0  0  1  0  0  0  0  0999 V2000
   15.2341  -18.7795   20.3191 N   0  0  0  0  0  0  0  0  0  0  0  0
   14.5615  -18.7378   19.0686 C   0  0  0  0  0  0  0  0  0  0  0  0
   13.9629  -19.7956   18.7058 O   0  0  0  0  0  0  0  0  0  0  0  0
   14.5599  -17.4975   18.2157 C   0  0  0  0  0  0  0  0  0  0  0  0
   13.1441  -17.2061   17.8576 C   0  0  0  0  0  0  0  0  0  0  0  0
   12.6980  -15.8046   18.0793 C   0  0  2  0  0  0  0  0  0  0  0  0
   13.8867  -14.9520   17.9564 N   0  0  0  0  0  0  0  0  0  0  0  0
   11.9560  -15.5502   19.3082 C   0  0  0  0  0  0  0  0  0  0  0  0
   12.5554  -15.0473   20.2929 O   0  0  0  0  0  0  0  0  0  0  0  0
   10.5738  -15.8277   19.5003 N   0  0  0  0  0  0  0  0  0  0  0  0
    9.8368  -15.5092   20.6962 C   0  0  1  0  0  0  0  0  0  0  0  0
    8.3864  -15.2171   20.4177 C   0  0  0  0  0  0  0  0  0  0  0  0
    8.1959  -14.1813   19.3898 C   0  0  0  0  0  0  0  0  0  0  0  0
    8.0299  -12.8457   19.6617 C   0  0  0  0  0  0  0  0  0  0  0  0
    7.8876  -12.2240   18.4770 N   0  0  0  0  0  0  0  0  0  0  0  0
    7.9582  -13.1167   17.4847 C   0  0  0  0  0  0  0  0  0  0  0  0
    8.1468  -14.3082   18.0591 N   0  0  0  0  0  0  0  0  0  0  0  0
    9.9681  -16.5261   21.7520 C   0  0  0  0  0  0  0  0  0  0  0  0
   10.0837  -17.7623   21.5492 O   0  0  0  0  0  0  0  0  0  0  0  0
    9.9646  -16.0787   23.1024 N   0  0  0  0  0  0  0  0  0  0  0  0
   10.1761  -17.0668   24.1759 C   0  0  1  0  0  0  0  0  0  0  0  0
   11.5145  -16.7051   24.8018 C   0  0  0  0  0  0  0  0  0  0  0  0
   12.6677  -17.2260   24.0871 C   0  0  0  0  0  0  0  0  0  0  0  0
   13.6842  -17.9827   24.6059 C   0  0  0  0  0  0  0  0  0  0  0  0
   14.5500  -18.2540   23.6032 N   0  0  0  0  0  0  0  0  0  0  0  0
   14.0865  -17.6814   22.4858 C   0  0  0  0  0  0  0  0  0  0  0  0
   12.9322  -17.0526   22.7889 N   0  0  0  0  0  0  0  0  0  0  0  0
    9.1333  -16.8043   25.2015 C   0  0  0  0  0  0  0  0  0  0  0  0
    8.9018  -17.6406   26.2789 O   0  0  0  0  0  0  0  0  0  0  0  0
    8.4429  -15.7526   25.0468 O   0  0  0  0  0  0  0  0  0  0  0  0
  2  1  1  0
  2  3  2  0
  4  5  1  0
  4  2  1  0
  6  7  1  1
  6  5  1  0
  8  6  1  0
  9  8  2  0
 10  8  1  0
 11 10  1  0
 11 12  1  6
 12 13  1  0
 13 14  2  0
 14 15  1  0
 16 15  1  0
 17 13  1  0
 17 16  2  0
 18 20  1  0
 18 11  1  0
 19 18  2  0
 21 28  1  0
 21 20  1  0
 21 22  1  1
 23 22  1  0
 23 24  2  0
 25 24  1  0
 26 25  1  0
 27 26  2  0
 27 23  1  0
 28 29  1  0
 30 28  2  0
M  END
$$$$
