QHH.pdb
     RDKit          3D

 30 31  0  0  1  0  0  0  0  0999 V2000
   17.5352  -14.4090   20.0624 N   0  0  0  0  0  0  0  0  0  0  0  0
   17.4198  -14.7069   18.6783 C   0  0  0  0  0  0  0  0  0  0  0  0
   18.5018  -14.8534   18.0328 O   0  0  0  0  0  0  0  0  0  0  0  0
   16.0775  -14.8420   18.0105 C   0  0  0  0  0  0  0  0  0  0  0  0
   15.0411  -14.7722   19.0776 C   0  0  0  0  0  0  0  0  0  0  0  0
   13.6335  -14.9202   18.6203 C   0  0  2  0  0  0  0  0  0  0  0  0
   13.4973  -14.1308   17.3902 N   0  0  0  0  0  0  0  0  0  0  0  0
   12.6003  -14.6059   19.5998 C   0  0  0  0  0  0  0  0  0  0  0  0
   12.4269  -13.4091   19.9450 O   0  0  0  0  0  0  0  0  0  0  0  0
   11.7448  -15.5593   20.2192 N   0  0  0  0  0  0  0  0  0  0  0  0
   10.6913  -15.2296   21.1446 C   0  0  1  0  0  0  0  0  0  0  0  0
    9.3396  -15.6864   20.6643 C   0  0  0  0  0  0  0  0  0  0  0  0
    8.7685  -14.8058   19.6327 C   0  0  0  0  0  0  0  0  0  0  0  0
    8.8031  -15.0714   18.2860 C   0  0  0  0  0  0  0  0  0  0  0  0
    8.1861  -14.0451   17.6728 N   0  0  0  0  0  0  0  0  0  0  0  0
    7.7716  -13.1566   18.5813 C   0  0  0  0  0  0  0  0  0  0  0  0
    8.1352  -13.6361   19.7741 N   0  0  0  0  0  0  0  0  0  0  0  0
   10.9448  -15.7075   22.5133 C   0  0  0  0  0  0  0  0  0  0  0  0
   11.7144  -16.6566   22.8124 O   0  0  0  0  0  0  0  0  0  0  0  0
   10.2700  -15.0476   23.5776 N   0  0  0  0  0  0  0  0  0  0  0  0
   10.5284  -15.4882   24.9606 C   0  0  1  0  0  0  0  0  0  0  0  0
    9.7533  -14.5233   25.8449 C   0  0  0  0  0  0  0  0  0  0  0  0
    9.8617  -14.7995   27.2676 C   0  0  0  0  0  0  0  0  0  0  0  0
   10.5440  -15.8307   27.8559 C   0  0  0  0  0  0  0  0  0  0  0  0
   10.3882  -15.7183   29.1944 N   0  0  0  0  0  0  0  0  0  0  0  0
    9.6276  -14.6440   29.4368 C   0  0  0  0  0  0  0  0  0  0  0  0
    9.3080  -14.0850   28.2515 N   0  0  0  0  0  0  0  0  0  0  0  0
    9.8855  -16.8201   25.1053 C   0  0  0  0  0  0  0  0  0  0  0  0
   10.2515  -17.7376   26.0740 O   0  0  0  0  0  0  0  0  0  0  0  0
    8.9606  -17.0919   24.2824 O   0  0  0  0  0  0  0  0  0  0  0  0
  2  1  1  0
  2  3  2  0
  4  5  1  0
  4  2  1  0
  6  7  1  6
  6  5  1  0
  8  6  1  0
  9  8  2  0
 10  8  1  0
 11 10  1  0
 11 12  1  6
 12 13  1  0
 13 14  2  0
 14 15  1  0
 16 15  1  0
 17 13  1  0
 17 16  2  0
 18 20  1  0
 18 11  1  0
 19 18  2  0
 21 28  1  0
 21 20  1  0
 21 22  1  1
 23 22  1  0
 23 24  2  0
 25 24  1  0
 26 25  1  0
 27 26  2  0
 27 23  1  0
 28 29  1  0
 30 28  2  0
M  END
$$$$
