QHH.pdb
     RDKit          3D

 30 31  0  0  1  0  0  0  0  0999 V2000
   14.9497  -19.2693   17.3636 N   0  0  0  0  0  0  0  0  0  0  0  0
   15.4478  -18.1213   18.0357 C   0  0  0  0  0  0  0  0  0  0  0  0
   16.5651  -18.2430   18.6238 O   0  0  0  0  0  0  0  0  0  0  0  0
   14.6857  -16.8233   18.0490 C   0  0  0  0  0  0  0  0  0  0  0  0
   13.4059  -17.0517   17.3226 C   0  0  0  0  0  0  0  0  0  0  0  0
   12.4988  -15.8767   17.2290 C   0  0  2  0  0  0  0  0  0  0  0  0
   13.0785  -14.9659   16.2344 N   0  0  0  0  0  0  0  0  0  0  0  0
   12.1839  -15.2029   18.4830 C   0  0  0  0  0  0  0  0  0  0  0  0
   12.9541  -14.3028   18.9051 O   0  0  0  0  0  0  0  0  0  0  0  0
   11.0501  -15.4798   19.2968 N   0  0  0  0  0  0  0  0  0  0  0  0
   10.7229  -14.7712   20.5075 C   0  0  1  0  0  0  0  0  0  0  0  0
    9.2535  -14.4616   20.6138 C   0  0  0  0  0  0  0  0  0  0  0  0
    8.6674  -14.0118   19.3410 C   0  0  0  0  0  0  0  0  0  0  0  0
    8.4529  -12.6959   19.0126 C   0  0  0  0  0  0  0  0  0  0  0  0
    7.9090  -12.6876   17.7821 N   0  0  0  0  0  0  0  0  0  0  0  0
    7.7778  -13.9404   17.3354 C   0  0  0  0  0  0  0  0  0  0  0  0
    8.2458  -14.7379   18.2998 N   0  0  0  0  0  0  0  0  0  0  0  0
   11.2013  -15.4438   21.7260 C   0  0  0  0  0  0  0  0  0  0  0  0
   10.5321  -16.2662   22.4031 O   0  0  0  0  0  0  0  0  0  0  0  0
   12.5182  -15.1425   22.1716 N   0  0  0  0  0  0  0  0  0  0  0  0
   13.2578  -16.1637   22.9356 C   0  0  1  0  0  0  0  0  0  0  0  0
   13.4919  -17.3082   21.9614 C   0  0  0  0  0  0  0  0  0  0  0  0
   12.5616  -18.4152   22.1065 C   0  0  0  0  0  0  0  0  0  0  0  0
   11.4929  -18.4852   22.9598 C   0  0  0  0  0  0  0  0  0  0  0  0
   10.8944  -19.6835   22.7742 N   0  0  0  0  0  0  0  0  0  0  0  0
   11.5717  -20.3459   21.8287 C   0  0  0  0  0  0  0  0  0  0  0  0
   12.5927  -19.5630   21.4233 N   0  0  0  0  0  0  0  0  0  0  0  0
   14.5883  -15.5779   23.2435 C   0  0  0  0  0  0  0  0  0  0  0  0
   15.3349  -15.9328   24.3528 O   0  0  0  0  0  0  0  0  0  0  0  0
   15.0266  -14.7143   22.4258 O   0  0  0  0  0  0  0  0  0  0  0  0
  2  1  1  0
  2  3  2  0
  4  5  1  0
  4  2  1  0
  6  7  1  6
  6  5  1  0
  8  6  1  0
  9  8  2  0
 10  8  1  0
 11 10  1  0
 11 12  1  1
 12 13  1  0
 13 14  2  0
 14 15  1  0
 16 15  1  0
 17 13  1  0
 17 16  2  0
 18 20  1  0
 18 11  1  0
 19 18  2  0
 21 28  1  0
 21 20  1  0
 21 22  1  6
 23 22  1  0
 23 24  2  0
 25 24  1  0
 26 25  1  0
 27 26  2  0
 27 23  1  0
 28 29  1  0
 30 28  2  0
M  END
$$$$
