QHH.pdb
     RDKit          3D

 30 31  0  0  1  0  0  0  0  0999 V2000
   15.3630  -13.7803   17.8341 N   0  0  0  0  0  0  0  0  0  0  0  0
   14.8520  -14.8956   17.1179 C   0  0  0  0  0  0  0  0  0  0  0  0
   15.4387  -15.1968   16.0344 O   0  0  0  0  0  0  0  0  0  0  0  0
   13.6710  -15.6814   17.6214 C   0  0  0  0  0  0  0  0  0  0  0  0
   13.2768  -15.0994   18.9342 C   0  0  0  0  0  0  0  0  0  0  0  0
   12.4475  -15.9748   19.8050 C   0  0  2  0  0  0  0  0  0  0  0  0
   11.8308  -16.9838   18.9352 N   0  0  0  0  0  0  0  0  0  0  0  0
   11.4721  -15.3023   20.6546 C   0  0  0  0  0  0  0  0  0  0  0  0
   11.8578  -14.3828   21.4210 O   0  0  0  0  0  0  0  0  0  0  0  0
   10.0816  -15.6011   20.6966 N   0  0  0  0  0  0  0  0  0  0  0  0
    9.1408  -14.9799   21.5932 C   0  0  1  0  0  0  0  0  0  0  0  0
    7.7524  -14.9138   21.0150 C   0  0  0  0  0  0  0  0  0  0  0  0
    7.7051  -14.2363   19.7094 C   0  0  0  0  0  0  0  0  0  0  0  0
    7.6580  -12.8735   19.5485 C   0  0  0  0  0  0  0  0  0  0  0  0
    7.6250  -12.6408   18.2239 N   0  0  0  0  0  0  0  0  0  0  0  0
    7.6496  -13.7999   17.5587 C   0  0  0  0  0  0  0  0  0  0  0  0
    7.6985  -14.7654   18.4810 N   0  0  0  0  0  0  0  0  0  0  0  0
    9.1174  -15.5915   22.9316 C   0  0  0  0  0  0  0  0  0  0  0  0
    9.1168  -16.8293   23.1565 O   0  0  0  0  0  0  0  0  0  0  0  0
    9.0940  -14.7190   24.0549 N   0  0  0  0  0  0  0  0  0  0  0  0
    9.3532  -15.2809   25.3930 C   0  0  1  0  0  0  0  0  0  0  0  0
    9.5588  -14.0802   26.3040 C   0  0  0  0  0  0  0  0  0  0  0  0
    9.8811  -14.4227   27.6791 C   0  0  0  0  0  0  0  0  0  0  0  0
    9.5411  -13.7191   28.8036 C   0  0  0  0  0  0  0  0  0  0  0  0
   10.0355  -14.3844   29.8720 N   0  0  0  0  0  0  0  0  0  0  0  0
   10.6687  -15.4763   29.4267 C   0  0  0  0  0  0  0  0  0  0  0  0
   10.5706  -15.4942   28.0815 N   0  0  0  0  0  0  0  0  0  0  0  0
    8.0935  -15.9409   25.8239 C   0  0  0  0  0  0  0  0  0  0  0  0
    8.0500  -16.9441   26.7755 O   0  0  0  0  0  0  0  0  0  0  0  0
    7.0276  -15.5372   25.2694 O   0  0  0  0  0  0  0  0  0  0  0  0
  2  1  1  0
  2  3  2  0
  4  5  1  0
  4  2  1  0
  6  7  1  6
  6  5  1  0
  8  6  1  0
  9  8  2  0
 10  8  1  0
 11 10  1  0
 11 12  1  6
 12 13  1  0
 13 14  2  0
 14 15  1  0
 16 15  1  0
 17 13  1  0
 17 16  2  0
 18 20  1  0
 18 11  1  0
 19 18  2  0
 21 28  1  0
 21 20  1  0
 21 22  1  1
 23 22  1  0
 23 24  2  0
 25 24  1  0
 26 25  1  0
 27 26  2  0
 27 23  1  0
 28 29  1  0
 30 28  2  0
M  END
$$$$
