QHH.pdb
     RDKit          3D

 30 31  0  0  1  0  0  0  0  0999 V2000
   15.4222  -19.5489   17.7915 N   0  0  0  0  0  0  0  0  0  0  0  0
   15.4474  -18.6120   16.7241 C   0  0  0  0  0  0  0  0  0  0  0  0
   16.2237  -18.8704   15.7548 O   0  0  0  0  0  0  0  0  0  0  0  0
   14.5937  -17.3724   16.7433 C   0  0  0  0  0  0  0  0  0  0  0  0
   13.8075  -17.3936   18.0079 C   0  0  0  0  0  0  0  0  0  0  0  0
   12.5793  -16.5547   18.0179 C   0  0  2  0  0  0  0  0  0  0  0  0
   12.8658  -15.3656   17.2062 N   0  0  0  0  0  0  0  0  0  0  0  0
   12.0399  -16.2158   19.3293 C   0  0  0  0  0  0  0  0  0  0  0  0
   12.8303  -15.8877   20.2508 O   0  0  0  0  0  0  0  0  0  0  0  0
   10.6587  -16.2231   19.6712 N   0  0  0  0  0  0  0  0  0  0  0  0
   10.1465  -16.0036   20.9995 C   0  0  1  0  0  0  0  0  0  0  0  0
    8.7494  -15.4429   20.9921 C   0  0  0  0  0  0  0  0  0  0  0  0
    8.6324  -14.2018   20.2099 C   0  0  0  0  0  0  0  0  0  0  0  0
    9.6935  -13.5545   19.6264 C   0  0  0  0  0  0  0  0  0  0  0  0
    9.1924  -12.4712   19.0056 N   0  0  0  0  0  0  0  0  0  0  0  0
    7.8682  -12.4203   19.1798 C   0  0  0  0  0  0  0  0  0  0  0  0
    7.5415  -13.4849   19.9179 N   0  0  0  0  0  0  0  0  0  0  0  0
   10.2231  -17.1952   21.8599 C   0  0  0  0  0  0  0  0  0  0  0  0
   10.2071  -18.3831   21.4459 O   0  0  0  0  0  0  0  0  0  0  0  0
   10.3231  -16.9894   23.2639 N   0  0  0  0  0  0  0  0  0  0  0  0
   11.0304  -17.9947   24.0779 C   0  0  1  0  0  0  0  0  0  0  0  0
   12.4962  -17.8713   23.6909 C   0  0  0  0  0  0  0  0  0  0  0  0
   13.0770  -19.0914   23.1561 C   0  0  0  0  0  0  0  0  0  0  0  0
   12.4314  -20.2761   22.9221 C   0  0  0  0  0  0  0  0  0  0  0  0
   13.3366  -21.1480   22.4234 N   0  0  0  0  0  0  0  0  0  0  0  0
   14.5184  -20.5242   22.3474 C   0  0  0  0  0  0  0  0  0  0  0  0
   14.3527  -19.2636   22.7981 N   0  0  0  0  0  0  0  0  0  0  0  0
   10.9164  -17.5486   25.4908 C   0  0  0  0  0  0  0  0  0  0  0  0
   11.1668  -18.3769   26.5702 O   0  0  0  0  0  0  0  0  0  0  0  0
   10.5704  -16.3432   25.6749 O   0  0  0  0  0  0  0  0  0  0  0  0
  2  1  1  0
  2  3  2  0
  4  5  1  0
  4  2  1  0
  6  7  1  1
  6  5  1  0
  8  6  1  0
  9  8  2  0
 10  8  1  0
 11 10  1  0
 11 12  1  6
 12 13  1  0
 13 14  2  0
 14 15  1  0
 16 15  1  0
 17 13  1  0
 17 16  2  0
 18 20  1  0
 18 11  1  0
 19 18  2  0
 21 28  1  0
 21 20  1  0
 21 22  1  6
 23 22  1  0
 23 24  2  0
 25 24  1  0
 26 25  1  0
 27 26  2  0
 27 23  1  0
 28 29  1  0
 30 28  2  0
M  END
$$$$
