QHH.pdb
     RDKit          3D

 30 31  0  0  1  0  0  0  0  0999 V2000
   18.2130  -11.9450   17.3008 N   0  0  0  0  0  0  0  0  0  0  0  0
   17.3885  -11.7674   16.1578 C   0  0  0  0  0  0  0  0  0  0  0  0
   17.8734  -11.0876   15.2030 O   0  0  0  0  0  0  0  0  0  0  0  0
   16.0058  -12.3578   16.0842 C   0  0  0  0  0  0  0  0  0  0  0  0
   15.7976  -13.1581   17.3227 C   0  0  0  0  0  0  0  0  0  0  0  0
   15.8103  -14.6349   17.1461 C   0  0  2  0  0  0  0  0  0  0  0  0
   14.6043  -14.9861   16.3864 N   0  0  0  0  0  0  0  0  0  0  0  0
   15.9531  -15.4289   18.3606 C   0  0  0  0  0  0  0  0  0  0  0  0
   14.9219  -15.7686   18.9953 O   0  0  0  0  0  0  0  0  0  0  0  0
   17.1905  -15.8674   18.9091 N   0  0  0  0  0  0  0  0  0  0  0  0
   17.3176  -16.6512   20.1109 C   0  0  1  0  0  0  0  0  0  0  0  0
   18.6290  -17.3871   20.1821 C   0  0  0  0  0  0  0  0  0  0  0  0
   18.7924  -18.3757   19.1042 C   0  0  0  0  0  0  0  0  0  0  0  0
   17.7514  -19.0297   18.4926 C   0  0  0  0  0  0  0  0  0  0  0  0
   18.2944  -19.8434   17.5690 N   0  0  0  0  0  0  0  0  0  0  0  0
   19.6253  -19.7211   17.5827 C   0  0  0  0  0  0  0  0  0  0  0  0
   19.9138  -18.8204   18.5264 N   0  0  0  0  0  0  0  0  0  0  0  0
   17.0897  -15.8761   21.3411 C   0  0  0  0  0  0  0  0  0  0  0  0
   17.4490  -14.6833   21.5162 O   0  0  0  0  0  0  0  0  0  0  0  0
   16.4128  -16.5231   22.4121 N   0  0  0  0  0  0  0  0  0  0  0  0
   16.1503  -15.7609   23.6465 C   0  0  1  0  0  0  0  0  0  0  0  0
   15.0840  -16.5500   24.3909 C   0  0  0  0  0  0  0  0  0  0  0  0
   13.7534  -16.4447   23.8161 C   0  0  0  0  0  0  0  0  0  0  0  0
   13.3752  -15.6675   22.7539 C   0  0  0  0  0  0  0  0  0  0  0  0
   12.0538  -15.8663   22.5467 N   0  0  0  0  0  0  0  0  0  0  0  0
   11.6169  -16.7456   23.4564 C   0  0  0  0  0  0  0  0  0  0  0  0
   12.6636  -17.0964   24.2317 N   0  0  0  0  0  0  0  0  0  0  0  0
   17.3916  -15.8361   24.4599 C   0  0  0  0  0  0  0  0  0  0  0  0
   17.5855  -15.1031   25.6171 O   0  0  0  0  0  0  0  0  0  0  0  0
   18.2936  -16.6214   24.0403 O   0  0  0  0  0  0  0  0  0  0  0  0
  2  1  1  0
  2  3  2  0
  4  5  1  0
  4  2  1  0
  6  7  1  1
  6  5  1  0
  8  6  1  0
  9  8  2  0
 10  8  1  0
 11 10  1  0
 11 12  1  1
 12 13  1  0
 13 14  2  0
 14 15  1  0
 16 15  1  0
 17 13  1  0
 17 16  2  0
 18 20  1  0
 18 11  1  0
 19 18  2  0
 21 28  1  0
 21 20  1  0
 21 22  1  1
 23 22  1  0
 23 24  2  0
 25 24  1  0
 26 25  1  0
 27 26  2  0
 27 23  1  0
 28 29  1  0
 30 28  2  0
M  END
$$$$
