QHH.pdb
     RDKit          3D

 30 31  0  0  1  0  0  0  0  0999 V2000
   12.4456  -20.3289   15.9299 N   0  0  0  0  0  0  0  0  0  0  0  0
   11.3292  -20.3089   15.0519 C   0  0  0  0  0  0  0  0  0  0  0  0
   10.9157  -21.4303   14.6270 O   0  0  0  0  0  0  0  0  0  0  0  0
   10.6691  -19.0184   14.6457 C   0  0  0  0  0  0  0  0  0  0  0  0
   11.3668  -17.9167   15.3649 C   0  0  0  0  0  0  0  0  0  0  0  0
   10.5234  -16.7457   15.7248 C   0  0  2  0  0  0  0  0  0  0  0  0
   10.3217  -15.9688   14.4957 N   0  0  0  0  0  0  0  0  0  0  0  0
   10.9991  -15.9231   16.8306 C   0  0  0  0  0  0  0  0  0  0  0  0
   11.9463  -15.1198   16.6333 O   0  0  0  0  0  0  0  0  0  0  0  0
   10.4730  -15.9478   18.1523 N   0  0  0  0  0  0  0  0  0  0  0  0
   10.9843  -15.1651   19.2481 C   0  0  1  0  0  0  0  0  0  0  0  0
    9.9355  -14.8790   20.2896 C   0  0  0  0  0  0  0  0  0  0  0  0
    8.7730  -14.1550   19.7508 C   0  0  0  0  0  0  0  0  0  0  0  0
    8.8445  -13.2142   18.7531 C   0  0  0  0  0  0  0  0  0  0  0  0
    7.5887  -12.7825   18.5372 N   0  0  0  0  0  0  0  0  0  0  0  0
    6.7440  -13.4150   19.3576 C   0  0  0  0  0  0  0  0  0  0  0  0
    7.4834  -14.2504   20.0928 N   0  0  0  0  0  0  0  0  0  0  0  0
   12.1874  -15.7432   19.8680 C   0  0  0  0  0  0  0  0  0  0  0  0
   12.4148  -16.9750   19.9849 O   0  0  0  0  0  0  0  0  0  0  0  0
   13.1666  -14.8429   20.3724 N   0  0  0  0  0  0  0  0  0  0  0  0
   14.4511  -15.3882   20.8480 C   0  0  1  0  0  0  0  0  0  0  0  0
   15.4410  -14.2373   20.7503 C   0  0  0  0  0  0  0  0  0  0  0  0
   15.9283  -13.9819   19.4052 C   0  0  0  0  0  0  0  0  0  0  0  0
   15.6875  -14.7338   18.2863 C   0  0  0  0  0  0  0  0  0  0  0  0
   16.3246  -14.1454   17.2487 N   0  0  0  0  0  0  0  0  0  0  0  0
   16.9479  -13.0533   17.7073 C   0  0  0  0  0  0  0  0  0  0  0  0
   16.7011  -12.9585   19.0301 N   0  0  0  0  0  0  0  0  0  0  0  0
   14.2734  -15.6852   22.2931 C   0  0  0  0  0  0  0  0  0  0  0  0
   13.0647  -15.5494   22.9522 O   0  0  0  0  0  0  0  0  0  0  0  0
   15.3031  -16.0798   22.9181 O   0  0  0  0  0  0  0  0  0  0  0  0
  2  1  1  0
  2  3  2  0
  4  5  1  0
  4  2  1  0
  6  7  1  6
  6  5  1  0
  8  6  1  0
  9  8  2  0
 10  8  1  0
 11 10  1  0
 11 12  1  1
 12 13  1  0
 13 14  2  0
 14 15  1  0
 16 15  1  0
 17 13  1  0
 17 16  2  0
 18 20  1  0
 18 11  1  0
 19 18  2  0
 21 28  1  0
 21 20  1  0
 21 22  1  1
 23 22  1  0
 23 24  2  0
 25 24  1  0
 26 25  1  0
 27 26  2  0
 27 23  1  0
 28 29  1  0
 30 28  2  0
M  END
$$$$
