QHH.pdb
     RDKit          3D

 30 31  0  0  1  0  0  0  0  0999 V2000
    6.4250  -12.9410   17.2826 N   0  0  0  0  0  0  0  0  0  0  0  0
    7.5594  -13.4244   16.5775 C   0  0  0  0  0  0  0  0  0  0  0  0
    7.4660  -13.4805   15.3138 O   0  0  0  0  0  0  0  0  0  0  0  0
    8.8118  -13.8497   17.2963 C   0  0  0  0  0  0  0  0  0  0  0  0
    8.5031  -13.8700   18.7531 C   0  0  0  0  0  0  0  0  0  0  0  0
    9.6411  -14.2086   19.6489 C   0  0  2  0  0  0  0  0  0  0  0  0
   10.6912  -14.7928   18.8057 N   0  0  0  0  0  0  0  0  0  0  0  0
    9.3278  -15.0417   20.8036 C   0  0  0  0  0  0  0  0  0  0  0  0
    8.3689  -14.7185   21.5503 O   0  0  0  0  0  0  0  0  0  0  0  0
   10.0299  -16.2228   21.1734 N   0  0  0  0  0  0  0  0  0  0  0  0
    9.6280  -17.1122   22.2328 C   0  0  1  0  0  0  0  0  0  0  0  0
   10.2139  -18.4906   22.0802 C   0  0  0  0  0  0  0  0  0  0  0  0
    9.5575  -19.2806   21.0262 C   0  0  0  0  0  0  0  0  0  0  0  0
    8.2382  -19.1466   20.6699 C   0  0  0  0  0  0  0  0  0  0  0  0
    8.0126  -20.0302   19.6807 N   0  0  0  0  0  0  0  0  0  0  0  0
    9.1344  -20.7045   19.4099 C   0  0  0  0  0  0  0  0  0  0  0  0
   10.0693  -20.2346   20.2407 N   0  0  0  0  0  0  0  0  0  0  0  0
    9.8983  -16.5791   23.5777 C   0  0  0  0  0  0  0  0  0  0  0  0
   10.9333  -15.9428   23.9042 O   0  0  0  0  0  0  0  0  0  0  0  0
    8.9167  -16.7990   24.5836 N   0  0  0  0  0  0  0  0  0  0  0  0
    9.1777  -16.3036   25.9474 C   0  0  1  0  0  0  0  0  0  0  0  0
    7.8410  -15.7815   26.4518 C   0  0  0  0  0  0  0  0  0  0  0  0
    7.5450  -14.4157   26.0533 C   0  0  0  0  0  0  0  0  0  0  0  0
    8.3609  -13.5679   25.3527 C   0  0  0  0  0  0  0  0  0  0  0  0
    7.7018  -12.3978   25.1942 N   0  0  0  0  0  0  0  0  0  0  0  0
    6.5041  -12.5112   25.7808 C   0  0  0  0  0  0  0  0  0  0  0  0
    6.4140  -13.7506   26.3057 N   0  0  0  0  0  0  0  0  0  0  0  0
    9.5162  -17.4938   26.7702 C   0  0  0  0  0  0  0  0  0  0  0  0
    9.8869  -17.4153   28.1008 O   0  0  0  0  0  0  0  0  0  0  0  0
    9.4504  -18.6181   26.1888 O   0  0  0  0  0  0  0  0  0  0  0  0
  2  1  1  0
  2  3  2  0
  4  5  1  0
  4  2  1  0
  6  7  1  6
  6  5  1  0
  8  6  1  0
  9  8  2  0
 10  8  1  0
 11 10  1  0
 11 12  1  6
 12 13  1  0
 13 14  2  0
 14 15  1  0
 16 15  1  0
 17 13  1  0
 17 16  2  0
 18 20  1  0
 18 11  1  0
 19 18  2  0
 21 28  1  0
 21 20  1  0
 21 22  1  1
 23 22  1  0
 23 24  2  0
 25 24  1  0
 26 25  1  0
 27 26  2  0
 27 23  1  0
 28 29  1  0
 30 28  2  0
M  END
$$$$
