QHH.pdb
     RDKit          3D

 30 31  0  0  1  0  0  0  0  0999 V2000
   11.3262  -18.9897   16.2739 N   0  0  0  0  0  0  0  0  0  0  0  0
   12.5869  -18.8185   15.6421 C   0  0  0  0  0  0  0  0  0  0  0  0
   13.6050  -19.2307   16.2765 O   0  0  0  0  0  0  0  0  0  0  0  0
   12.7078  -18.1785   14.2850 C   0  0  0  0  0  0  0  0  0  0  0  0
   11.3293  -17.8648   13.8170 C   0  0  0  0  0  0  0  0  0  0  0  0
   10.9922  -16.4190   13.7268 C   0  0  2  0  0  0  0  0  0  0  0  0
   11.9822  -15.8029   12.8349 N   0  0  0  0  0  0  0  0  0  0  0  0
   10.8640  -15.7059   14.9920 C   0  0  0  0  0  0  0  0  0  0  0  0
   11.9025  -15.3067   15.5783 O   0  0  0  0  0  0  0  0  0  0  0  0
    9.6335  -15.4120   15.6430 N   0  0  0  0  0  0  0  0  0  0  0  0
    9.5244  -14.8053   16.9449 C   0  0  1  0  0  0  0  0  0  0  0  0
    8.0945  -14.6490   17.3890 C   0  0  0  0  0  0  0  0  0  0  0  0
    7.9652  -13.9366   18.6702 C   0  0  0  0  0  0  0  0  0  0  0  0
    8.1651  -12.5871   18.8263 C   0  0  0  0  0  0  0  0  0  0  0  0
    7.9569  -12.3126   20.1269 N   0  0  0  0  0  0  0  0  0  0  0  0
    7.6373  -13.4331   20.7816 C   0  0  0  0  0  0  0  0  0  0  0  0
    7.6466  -14.4166   19.8773 N   0  0  0  0  0  0  0  0  0  0  0  0
   10.3168  -15.4917   17.9779 C   0  0  0  0  0  0  0  0  0  0  0  0
   10.5495  -16.7278   18.0024 O   0  0  0  0  0  0  0  0  0  0  0  0
   10.8606  -14.6992   19.0267 N   0  0  0  0  0  0  0  0  0  0  0  0
   11.7614  -15.3389   20.0029 C   0  0  1  0  0  0  0  0  0  0  0  0
   12.9793  -14.4314   20.0859 C   0  0  0  0  0  0  0  0  0  0  0  0
   14.0261  -14.9168   20.9694 C   0  0  0  0  0  0  0  0  0  0  0  0
   13.9910  -16.0453   21.7443 C   0  0  0  0  0  0  0  0  0  0  0  0
   15.1659  -16.1263   22.4089 N   0  0  0  0  0  0  0  0  0  0  0  0
   15.9166  -15.0752   22.0583 C   0  0  0  0  0  0  0  0  0  0  0  0
   15.2122  -14.3373   21.1755 N   0  0  0  0  0  0  0  0  0  0  0  0
   11.0761  -15.2656   21.3194 C   0  0  0  0  0  0  0  0  0  0  0  0
    9.8453  -14.6604   21.5010 O   0  0  0  0  0  0  0  0  0  0  0  0
   11.6806  -15.7948   22.2997 O   0  0  0  0  0  0  0  0  0  0  0  0
  2  1  1  0
  2  3  2  0
  4  5  1  0
  4  2  1  0
  6  7  1  6
  6  5  1  0
  8  6  1  0
  9  8  2  0
 10  8  1  0
 11 10  1  0
 11 12  1  1
 12 13  1  0
 13 14  2  0
 14 15  1  0
 16 15  1  0
 17 13  1  0
 17 16  2  0
 18 20  1  0
 18 11  1  0
 19 18  2  0
 21 28  1  0
 21 20  1  0
 21 22  1  1
 23 22  1  0
 23 24  2  0
 25 24  1  0
 26 25  1  0
 27 26  2  0
 27 23  1  0
 28 29  1  0
 30 28  2  0
M  END
$$$$
