QRS.pdb
     RDKit          3D

 27 26  0  0  1  0  0  0  0  0999 V2000
   23.3971  -34.1031   -5.9596 N   0  0  0  0  0  0  0  0  0  0  0  0
   23.2227  -32.7403   -6.4038 C   0  0  0  0  0  0  0  0  0  0  0  0
   22.6996  -31.9414   -5.6057 O   0  0  0  0  0  0  0  0  0  0  0  0
   23.6650  -32.3779   -7.7358 C   0  0  0  0  0  0  0  0  0  0  0  0
   24.2849  -33.4535   -8.5385 C   0  0  0  0  0  0  0  0  0  0  0  0
   25.6926  -33.1931   -8.9555 C   0  0  2  0  0  0  0  0  0  0  0  0
   25.8847  -33.4019  -10.3499 N   0  0  0  0  0  0  0  0  0  0  0  0
   26.6719  -33.9911   -8.1827 C   0  0  0  0  0  0  0  0  0  0  0  0
   26.9885  -35.1074   -8.6561 O   0  0  0  0  0  0  0  0  0  0  0  0
   34.2432  -36.2637   -6.1580 N   0  0  0  0  0  0  0  0  0  0  0  0
   33.8573  -35.7260   -4.8877 C   0  0  0  0  0  0  0  0  0  0  0  0
   34.7596  -35.4675   -4.0098 N   0  0  0  0  0  0  0  0  0  0  0  0
   32.4757  -35.4890   -4.6189 N   0  0  0  0  0  0  0  0  0  0  0  0
   31.6746  -34.5960   -5.4341 C   0  0  0  0  0  0  0  0  0  0  0  0
   30.2793  -34.4926   -4.8581 C   0  0  0  0  0  0  0  0  0  0  0  0
   29.3923  -33.6755   -5.7661 C   0  0  0  0  0  0  0  0  0  0  0  0
   28.1352  -34.3446   -6.1655 C   0  0  2  0  0  0  0  0  0  0  0  0
   27.2343  -33.5645   -6.9918 N   0  0  0  0  0  0  0  0  0  0  0  0
   27.3255  -34.6817   -4.9355 C   0  0  0  0  0  0  0  0  0  0  0  0
   26.7170  -33.8127   -4.2601 O   0  0  0  0  0  0  0  0  0  0  0  0
   34.4905  -35.0848   -3.0804 O   0  0  0  0  0  0  0  0  0  0  0  0
   27.5458  -38.3441   -2.7801 C   0  0  0  0  0  0  0  0  0  0  0  0
   26.3145  -37.8534   -3.1528 C   0  0  1  0  0  0  0  0  0  0  0  0
   26.3928  -36.3432   -3.2902 N   0  0  0  0  0  0  0  0  0  0  0  0
   27.2014  -36.0185   -4.4619 C   0  0  0  0  0  0  0  0  0  0  0  0
   26.8881  -35.6754   -2.0785 O   0  0  0  0  0  0  0  0  0  0  0  0
   26.2601  -35.6735   -0.9885 O   0  0  0  0  0  0  0  0  0  0  0  0
  1  2  1  0
  2  3  2  0
  4  5  1  0
  4  2  1  0
  5  6  1  0
  6  8  1  0
  6  7  1  6
  8  9  2  0
 11 10  1  0
 11 12  2  0
 13 14  1  0
 13 11  1  0
 14 15  1  0
 15 16  1  0
 17 16  1  1
 17 19  1  0
 18 17  1  0
 18  8  1  0
 19 20  2  0
 21 22  1  0
 23 22  1  6
 23 25  1  0
 24 19  1  0
 24 23  1  0
 25 26  2  0
 25 27  1  0
M  END
$$$$
