QRS.pdb
     RDKit          3D

 27 26  0  0  1  0  0  0  0  0999 V2000
   18.2701  -22.0924  -11.9438 N   0  0  0  0  0  0  0  0  0  0  0  0
   18.2099  -21.4350  -13.2280 C   0  0  0  0  0  0  0  0  0  0  0  0
   17.4956  -21.9560  -14.1039 O   0  0  0  0  0  0  0  0  0  0  0  0
   18.9699  -20.2166  -13.4251 C   0  0  0  0  0  0  0  0  0  0  0  0
   19.7685  -19.7458  -12.2736 C   0  0  0  0  0  0  0  0  0  0  0  0
   20.8714  -20.6599  -11.8595 C   0  0  2  0  0  0  0  0  0  0  0  0
   20.9156  -20.8399  -10.4486 N   0  0  0  0  0  0  0  0  0  0  0  0
   22.1943  -20.2174  -12.3569 C   0  0  0  0  0  0  0  0  0  0  0  0
   22.8025  -19.3692  -11.6634 O   0  0  0  0  0  0  0  0  0  0  0  0
   29.8876  -21.8290  -11.7194 N   0  0  0  0  0  0  0  0  0  0  0  0
   28.7019  -21.6592  -10.9339 C   0  0  0  0  0  0  0  0  0  0  0  0
   28.7902  -21.1481   -9.7579 N   0  0  0  0  0  0  0  0  0  0  0  0
   27.4429  -22.0633  -11.4712 N   0  0  0  0  0  0  0  0  0  0  0  0
   26.8727  -21.4397  -12.6501 C   0  0  0  0  0  0  0  0  0  0  0  0
   25.5967  -22.1539  -13.0388 C   0  0  0  0  0  0  0  0  0  0  0  0
   24.9892  -21.5192  -14.2665 C   0  0  0  0  0  0  0  0  0  0  0  0
   24.1027  -20.3678  -13.9910 C   0  0  2  0  0  0  0  0  0  0  0  0
   22.7679  -20.6902  -13.5248 N   0  0  0  0  0  0  0  0  0  0  0  0
   23.8810  -19.5814  -15.2616 C   0  0  0  0  0  0  0  0  0  0  0  0
   23.1432  -19.9879  -16.1955 O   0  0  0  0  0  0  0  0  0  0  0  0
   27.9324  -20.9920   -9.1899 O   0  0  0  0  0  0  0  0  0  0  0  0
   23.9499  -15.5175  -15.5576 C   0  0  0  0  0  0  0  0  0  0  0  0
   24.7521  -16.1325  -16.4926 C   0  0  2  0  0  0  0  0  0  0  0  0
   24.2767  -17.5585  -16.7069 N   0  0  0  0  0  0  0  0  0  0  0  0
   24.5008  -18.3186  -15.4804 C   0  0  0  0  0  0  0  0  0  0  0  0
   24.8913  -18.2056  -17.8745 O   0  0  0  0  0  0  0  0  0  0  0  0
   25.9763  -18.8396  -17.8178 O   0  0  0  0  0  0  0  0  0  0  0  0
  1  2  1  0
  2  3  2  0
  4  5  1  0
  4  2  1  0
  5  6  1  0
  6  8  1  0
  6  7  1  1
  8  9  2  0
 11 10  1  0
 11 12  2  0
 13 14  1  0
 13 11  1  0
 14 15  1  0
 15 16  1  0
 17 16  1  6
 17 19  1  0
 18 17  1  0
 18  8  1  0
 19 20  2  0
 21 22  1  0
 23 22  1  1
 23 25  1  0
 24 19  1  0
 24 23  1  0
 25 26  2  0
 25 27  1  0
M  END
$$$$
