QRS.pdb
     RDKit          3D

 27 26  0  0  1  0  0  0  0  0999 V2000
   26.8043   -9.1374  -15.9085 N   0  0  0  0  0  0  0  0  0  0  0  0
   27.5631  -10.3658  -15.9224 C   0  0  0  0  0  0  0  0  0  0  0  0
   28.7638  -10.2925  -16.2413 O   0  0  0  0  0  0  0  0  0  0  0  0
   26.8969  -11.6023  -15.5638 C   0  0  0  0  0  0  0  0  0  0  0  0
   25.5147  -11.4809  -15.0537 C   0  0  0  0  0  0  0  0  0  0  0  0
   24.4824  -12.1877  -15.8650 C   0  0  2  0  0  0  0  0  0  0  0  0
   25.0417  -12.8148  -17.0134 N   0  0  0  0  0  0  0  0  0  0  0  0
   23.3661  -11.3000  -16.2639 C   0  0  0  0  0  0  0  0  0  0  0  0
   23.5125  -10.6531  -17.3272 O   0  0  0  0  0  0  0  0  0  0  0  0
   15.0996  -12.0947  -13.8230 N   0  0  0  0  0  0  0  0  0  0  0  0
   15.2443  -10.7411  -14.2687 C   0  0  0  0  0  0  0  0  0  0  0  0
   14.2489   -9.9338  -14.1724 N   0  0  0  0  0  0  0  0  0  0  0  0
   16.4921  -10.3138  -14.8141 N   0  0  0  0  0  0  0  0  0  0  0  0
   17.2438  -11.1292  -15.7489 C   0  0  0  0  0  0  0  0  0  0  0  0
   18.5021  -10.3996  -16.1655 C   0  0  0  0  0  0  0  0  0  0  0  0
   19.7194  -11.0621  -15.5669 C   0  0  0  0  0  0  0  0  0  0  0  0
   21.0097  -10.4646  -15.9739 C   0  0  2  0  0  0  0  0  0  0  0  0
   22.2014  -11.1605  -15.5287 N   0  0  0  0  0  0  0  0  0  0  0  0
   21.1370   -9.0794  -15.3846 C   0  0  0  0  0  0  0  0  0  0  0  0
   21.4844   -8.8742  -14.1935 O   0  0  0  0  0  0  0  0  0  0  0  0
   14.3409   -8.9493  -14.4965 O   0  0  0  0  0  0  0  0  0  0  0  0
   21.5769   -5.6912  -17.7096 C   0  0  0  0  0  0  0  0  0  0  0  0
   22.0361   -5.8048  -16.4165 C   0  0  1  0  0  0  0  0  0  0  0  0
   21.0230   -6.5726  -15.5861 N   0  0  0  0  0  0  0  0  0  0  0  0
   20.8684   -7.9101  -16.1511 C   0  0  0  0  0  0  0  0  0  0  0  0
   19.7342   -5.8786  -15.4559 O   0  0  0  0  0  0  0  0  0  0  0  0
   18.6639   -6.3167  -15.9510 O   0  0  0  0  0  0  0  0  0  0  0  0
  1  2  1  0
  2  3  2  0
  4  5  1  0
  4  2  1  0
  5  6  1  0
  6  8  1  0
  6  7  1  6
  8  9  2  0
 11 10  1  0
 11 12  2  0
 13 14  1  0
 13 11  1  0
 14 15  1  0
 15 16  1  0
 17 16  1  1
 17 19  1  0
 18 17  1  0
 18  8  1  0
 19 20  2  0
 21 22  1  0
 23 22  1  1
 23 25  1  0
 24 19  1  0
 24 23  1  0
 25 26  2  0
 25 27  1  0
M  END
$$$$
