QRS.pdb
     RDKit          3D

 27 26  0  0  1  0  0  0  0  0999 V2000
   17.4016  -19.6697  -14.0127 N   0  0  0  0  0  0  0  0  0  0  0  0
   17.0714  -20.7601  -13.1255 C   0  0  0  0  0  0  0  0  0  0  0  0
   15.9162  -21.2187  -13.1889 O   0  0  0  0  0  0  0  0  0  0  0  0
   18.0904  -21.2599  -12.2238 C   0  0  0  0  0  0  0  0  0  0  0  0
   19.4285  -20.6417  -12.3357 C   0  0  0  0  0  0  0  0  0  0  0  0
   20.1616  -20.9566  -13.5955 C   0  0  2  0  0  0  0  0  0  0  0  0
   20.1777  -22.3527  -13.8701 N   0  0  0  0  0  0  0  0  0  0  0  0
   21.5427  -20.4221  -13.5990 C   0  0  0  0  0  0  0  0  0  0  0  0
   21.6972  -19.2564  -13.1659 O   0  0  0  0  0  0  0  0  0  0  0  0
   29.8417  -21.7107  -12.4688 N   0  0  0  0  0  0  0  0  0  0  0  0
   29.1722  -21.4040  -11.2402 C   0  0  0  0  0  0  0  0  0  0  0  0
   29.8520  -20.9640  -10.2422 N   0  0  0  0  0  0  0  0  0  0  0  0
   27.7609  -21.5950  -11.1460 N   0  0  0  0  0  0  0  0  0  0  0  0
   26.9718  -22.0727  -12.2654 C   0  0  0  0  0  0  0  0  0  0  0  0
   25.8891  -21.0677  -12.5926 C   0  0  0  0  0  0  0  0  0  0  0  0
   25.0748  -21.5348  -13.7749 C   0  0  0  0  0  0  0  0  0  0  0  0
   23.9852  -20.6180  -14.1742 C   0  0  2  0  0  0  0  0  0  0  0  0
   22.6377  -21.1393  -14.0497 N   0  0  0  0  0  0  0  0  0  0  0  0
   24.1237  -20.2706  -15.6379 C   0  0  0  0  0  0  0  0  0  0  0  0
   23.3585  -20.7307  -16.5235 O   0  0  0  0  0  0  0  0  0  0  0  0
   29.3664  -20.6400   -9.3809 O   0  0  0  0  0  0  0  0  0  0  0  0
   22.5964  -17.5699  -17.1854 C   0  0  0  0  0  0  0  0  0  0  0  0
   23.7396  -17.4417  -16.4288 C   0  0  2  0  0  0  0  0  0  0  0  0
   24.8409  -18.2982  -17.0280 N   0  0  0  0  0  0  0  0  0  0  0  0
   25.1402  -19.3916  -16.1076 C   0  0  0  0  0  0  0  0  0  0  0  0
   26.0444  -17.5321  -17.3811 O   0  0  0  0  0  0  0  0  0  0  0  0
   26.9409  -17.2374  -16.5493 O   0  0  0  0  0  0  0  0  0  0  0  0
  1  2  1  0
  2  3  2  0
  4  5  1  0
  4  2  1  0
  5  6  1  0
  6  8  1  0
  6  7  1  1
  8  9  2  0
 11 10  1  0
 11 12  2  0
 13 14  1  0
 13 11  1  0
 14 15  1  0
 15 16  1  0
 17 16  1  6
 17 19  1  0
 18 17  1  0
 18  8  1  0
 19 20  2  0
 21 22  1  0
 23 22  1  6
 23 25  1  0
 24 19  1  0
 24 23  1  0
 25 26  2  0
 25 27  1  0
M  END
$$$$
