QRS.pdb
     RDKit          3D

 27 26  0  0  1  0  0  0  0  0999 V2000
   21.6558   -8.4583  -14.0823 N   0  0  0  0  0  0  0  0  0  0  0  0
   21.5936   -9.5095  -15.0703 C   0  0  0  0  0  0  0  0  0  0  0  0
   22.3433   -9.4101  -16.0587 O   0  0  0  0  0  0  0  0  0  0  0  0
   20.6777  -10.6130  -14.8592 C   0  0  0  0  0  0  0  0  0  0  0  0
   19.9636  -10.6369  -13.5650 C   0  0  0  0  0  0  0  0  0  0  0  0
   18.5110  -10.3097  -13.6441 C   0  0  2  0  0  0  0  0  0  0  0  0
   17.9371  -10.7187  -14.8802 N   0  0  0  0  0  0  0  0  0  0  0  0
   18.2375   -8.8736  -13.4075 C   0  0  0  0  0  0  0  0  0  0  0  0
   17.9289   -8.1860  -14.4086 O   0  0  0  0  0  0  0  0  0  0  0  0
   14.0530   -6.2544   -6.5229 N   0  0  0  0  0  0  0  0  0  0  0  0
   13.6120   -7.2708   -7.4307 C   0  0  0  0  0  0  0  0  0  0  0  0
   12.5172   -7.9004   -7.1920 N   0  0  0  0  0  0  0  0  0  0  0  0
   14.3985   -7.5677   -8.5841 N   0  0  0  0  0  0  0  0  0  0  0  0
   15.6293   -6.8597   -8.8804 C   0  0  0  0  0  0  0  0  0  0  0  0
   16.1665   -7.3088  -10.2217 C   0  0  0  0  0  0  0  0  0  0  0  0
   17.4613   -6.5993  -10.5364 C   0  0  0  0  0  0  0  0  0  0  0  0
   18.0118   -6.8870  -11.8786 C   0  0  2  0  0  0  0  0  0  0  0  0
   18.3082   -8.2784  -12.1596 N   0  0  0  0  0  0  0  0  0  0  0  0
   19.3336   -6.1757  -12.0492 C   0  0  0  0  0  0  0  0  0  0  0  0
   20.3079   -6.3515  -11.2737 O   0  0  0  0  0  0  0  0  0  0  0  0
   12.1527   -8.5936   -7.8770 O   0  0  0  0  0  0  0  0  0  0  0  0
   20.7375   -4.9293  -15.5840 C   0  0  0  0  0  0  0  0  0  0  0  0
   21.5475   -5.0727  -14.4799 C   0  0  1  0  0  0  0  0  0  0  0  0
   20.8267   -4.5445  -13.2523 N   0  0  0  0  0  0  0  0  0  0  0  0
   19.5580   -5.2533  -13.1102 C   0  0  0  0  0  0  0  0  0  0  0  0
   20.6426   -3.0866  -13.2701 O   0  0  0  0  0  0  0  0  0  0  0  0
   19.5123   -2.5364  -13.3163 O   0  0  0  0  0  0  0  0  0  0  0  0
  1  2  1  0
  2  3  2  0
  4  5  1  0
  4  2  1  0
  5  6  1  0
  6  8  1  0
  6  7  1  6
  8  9  2  0
 11 10  1  0
 11 12  2  0
 13 14  1  0
 13 11  1  0
 14 15  1  0
 15 16  1  0
 17 16  1  1
 17 19  1  0
 18 17  1  0
 18  8  1  0
 19 20  2  0
 21 22  1  0
 23 22  1  1
 23 25  1  0
 24 19  1  0
 24 23  1  0
 25 26  2  0
 25 27  1  0
M  END
$$$$
