QRS.pdb
     RDKit          3D

 27 26  0  0  1  0  0  0  0  0999 V2000
   26.9121  -21.5276  -11.4395 N   0  0  0  0  0  0  0  0  0  0  0  0
   28.1526  -21.1263  -12.0602 C   0  0  0  0  0  0  0  0  0  0  0  0
   29.2078  -21.4099  -11.4644 O   0  0  0  0  0  0  0  0  0  0  0  0
   28.1045  -20.4287  -13.3299 C   0  0  0  0  0  0  0  0  0  0  0  0
   26.7688  -20.2694  -13.9429 C   0  0  0  0  0  0  0  0  0  0  0  0
   26.4892  -18.9121  -14.4934 C   0  0  2  0  0  0  0  0  0  0  0  0
   27.3656  -17.9270  -13.9584 N   0  0  0  0  0  0  0  0  0  0  0  0
   25.0806  -18.4983  -14.2991 C   0  0  0  0  0  0  0  0  0  0  0  0
   24.8027  -17.9356  -13.2143 O   0  0  0  0  0  0  0  0  0  0  0  0
   17.8797  -15.1902  -16.2351 N   0  0  0  0  0  0  0  0  0  0  0  0
   19.1112  -14.6260  -16.7007 C   0  0  0  0  0  0  0  0  0  0  0  0
   19.3323  -13.3702  -16.5400 N   0  0  0  0  0  0  0  0  0  0  0  0
   20.0706  -15.4695  -17.3373 N   0  0  0  0  0  0  0  0  0  0  0  0
   19.9525  -16.9152  -17.3269 C   0  0  0  0  0  0  0  0  0  0  0  0
   20.5523  -17.4672  -16.0522 C   0  0  0  0  0  0  0  0  0  0  0  0
   22.0260  -17.7379  -16.2361 C   0  0  0  0  0  0  0  0  0  0  0  0
   22.6886  -18.3621  -15.0704 C   0  0  2  0  0  0  0  0  0  0  0  0
   24.0876  -18.7036  -15.2415 N   0  0  0  0  0  0  0  0  0  0  0  0
   22.0149  -19.6746  -14.7452 C   0  0  0  0  0  0  0  0  0  0  0  0
   22.5966  -20.7846  -14.8512 O   0  0  0  0  0  0  0  0  0  0  0  0
   18.6038  -12.7613  -16.1143 O   0  0  0  0  0  0  0  0  0  0  0  0
   20.6509  -21.4340  -11.0872 C   0  0  0  0  0  0  0  0  0  0  0  0
   21.0747  -20.5433  -12.0479 C   0  0  1  0  0  0  0  0  0  0  0  0
   20.2339  -20.7134  -13.3008 N   0  0  0  0  0  0  0  0  0  0  0  0
   20.6660  -19.7341  -14.2940 C   0  0  0  0  0  0  0  0  0  0  0  0
   18.7889  -20.6354  -13.0447 O   0  0  0  0  0  0  0  0  0  0  0  0
   18.1294  -19.5687  -13.1430 O   0  0  0  0  0  0  0  0  0  0  0  0
  1  2  1  0
  2  3  2  0
  4  5  1  0
  4  2  1  0
  5  6  1  0
  6  8  1  0
  6  7  1  1
  8  9  2  0
 11 10  1  0
 11 12  2  0
 13 14  1  0
 13 11  1  0
 14 15  1  0
 15 16  1  0
 17 16  1  6
 17 19  1  0
 18 17  1  0
 18  8  1  0
 19 20  2  0
 21 22  1  0
 23 22  1  6
 23 25  1  0
 24 19  1  0
 24 23  1  0
 25 26  2  0
 25 27  1  0
M  END
$$$$
