QRS.pdb
     RDKit          3D

 27 26  0  0  1  0  0  0  0  0999 V2000
   20.7784  -14.9901  -20.2979 N   0  0  0  0  0  0  0  0  0  0  0  0
   21.3598  -15.6767  -19.1685 C   0  0  0  0  0  0  0  0  0  0  0  0
   20.6864  -16.5801  -18.6402 O   0  0  0  0  0  0  0  0  0  0  0  0
   22.6815  -15.2866  -18.7190 C   0  0  0  0  0  0  0  0  0  0  0  0
   23.3477  -14.2136  -19.4873 C   0  0  0  0  0  0  0  0  0  0  0  0
   24.7194  -13.8650  -19.0179 C   0  0  2  0  0  0  0  0  0  0  0  0
   25.4572  -15.0151  -18.6207 N   0  0  0  0  0  0  0  0  0  0  0  0
   24.7101  -12.8651  -17.9255 C   0  0  0  0  0  0  0  0  0  0  0  0
   24.4015  -13.2800  -16.7840 O   0  0  0  0  0  0  0  0  0  0  0  0
   31.2263   -7.7556  -18.0799 N   0  0  0  0  0  0  0  0  0  0  0  0
   31.2911   -9.1695  -17.8595 C   0  0  0  0  0  0  0  0  0  0  0  0
   32.4354   -9.7542  -17.8361 N   0  0  0  0  0  0  0  0  0  0  0  0
   30.0820   -9.9043  -17.6718 N   0  0  0  0  0  0  0  0  0  0  0  0
   28.7897   -9.2516  -17.5829 C   0  0  0  0  0  0  0  0  0  0  0  0
   27.7020  -10.2918  -17.4278 C   0  0  0  0  0  0  0  0  0  0  0  0
   26.3596   -9.6278  -17.2379 C   0  0  0  0  0  0  0  0  0  0  0  0
   25.2298  -10.5635  -17.0495 C   0  0  2  0  0  0  0  0  0  0  0  0
   25.0195  -11.5286  -18.1112 N   0  0  0  0  0  0  0  0  0  0  0  0
   23.9346   -9.7891  -16.9788 C   0  0  0  0  0  0  0  0  0  0  0  0
   23.3118   -9.4067  -18.0023 O   0  0  0  0  0  0  0  0  0  0  0  0
   32.5016  -10.7642  -17.5950 O   0  0  0  0  0  0  0  0  0  0  0  0
   21.0619  -10.3956  -14.3139 C   0  0  0  0  0  0  0  0  0  0  0  0
   21.3854   -9.0577  -14.3498 C   0  0  2  0  0  0  0  0  0  0  0  0
   22.0582   -8.7357  -15.6724 N   0  0  0  0  0  0  0  0  0  0  0  0
   23.3346   -9.4420  -15.7353 C   0  0  0  0  0  0  0  0  0  0  0  0
   22.2160   -7.2936  -15.9070 O   0  0  0  0  0  0  0  0  0  0  0  0
   23.3322   -6.7136  -15.8999 O   0  0  0  0  0  0  0  0  0  0  0  0
  1  2  1  0
  2  3  2  0
  4  5  1  0
  4  2  1  0
  5  6  1  0
  6  8  1  0
  6  7  1  1
  8  9  2  0
 11 10  1  0
 11 12  2  0
 13 14  1  0
 13 11  1  0
 14 15  1  0
 15 16  1  0
 17 16  1  6
 17 19  1  0
 18 17  1  0
 18  8  1  0
 19 20  2  0
 21 22  1  0
 23 22  1  6
 23 25  1  0
 24 19  1  0
 24 23  1  0
 25 26  2  0
 25 27  1  0
M  END
$$$$
