QRS.pdb
     RDKit          3D

 27 26  0  0  1  0  0  0  0  0999 V2000
   28.1157  -19.8644  -17.0917 N   0  0  0  0  0  0  0  0  0  0  0  0
   28.5451  -20.6834  -18.2007 C   0  0  0  0  0  0  0  0  0  0  0  0
   29.5917  -20.3502  -18.7858 O   0  0  0  0  0  0  0  0  0  0  0  0
   27.7484  -21.8380  -18.5657 C   0  0  0  0  0  0  0  0  0  0  0  0
   26.6079  -22.1568  -17.6808 C   0  0  0  0  0  0  0  0  0  0  0  0
   26.9847  -22.6567  -16.3275 C   0  0  2  0  0  0  0  0  0  0  0  0
   27.5300  -23.9701  -16.3751 N   0  0  0  0  0  0  0  0  0  0  0  0
   25.8568  -22.6093  -15.3689 C   0  0  0  0  0  0  0  0  0  0  0  0
   25.0481  -23.5660  -15.4021 O   0  0  0  0  0  0  0  0  0  0  0  0
   22.2468  -19.8105   -9.4001 N   0  0  0  0  0  0  0  0  0  0  0  0
   22.7871  -20.8047   -8.5217 C   0  0  0  0  0  0  0  0  0  0  0  0
   22.0900  -21.2110   -7.5213 N   0  0  0  0  0  0  0  0  0  0  0  0
   24.0922  -21.3251   -8.7727 N   0  0  0  0  0  0  0  0  0  0  0  0
   24.8678  -20.9327   -9.9339 C   0  0  0  0  0  0  0  0  0  0  0  0
   23.9687  -20.8644  -11.1490 C   0  0  0  0  0  0  0  0  0  0  0  0
   24.7755  -20.5505  -12.3858 C   0  0  0  0  0  0  0  0  0  0  0  0
   24.5818  -21.4976  -13.5052 C   0  0  2  0  0  0  0  0  0  0  0  0
   25.6663  -21.5786  -14.4645 N   0  0  0  0  0  0  0  0  0  0  0  0
   23.3824  -21.0796  -14.3231 C   0  0  0  0  0  0  0  0  0  0  0  0
   23.4019  -20.0993  -15.1107 O   0  0  0  0  0  0  0  0  0  0  0  0
   22.4582  -21.9564   -6.8957 O   0  0  0  0  0  0  0  0  0  0  0  0
   18.8512  -22.0369  -15.7546 C   0  0  0  0  0  0  0  0  0  0  0  0
   19.9563  -22.4491  -15.0443 C   0  0  2  0  0  0  0  0  0  0  0  0
   20.9594  -21.3120  -14.9654 N   0  0  0  0  0  0  0  0  0  0  0  0
   22.1442  -21.7784  -14.2506 C   0  0  0  0  0  0  0  0  0  0  0  0
   20.4041  -20.0889  -14.3694 O   0  0  0  0  0  0  0  0  0  0  0  0
   20.4597  -19.8371  -13.1382 O   0  0  0  0  0  0  0  0  0  0  0  0
  1  2  1  0
  2  3  2  0
  4  5  1  0
  4  2  1  0
  5  6  1  0
  6  8  1  0
  6  7  1  6
  8  9  2  0
 11 10  1  0
 11 12  2  0
 13 14  1  0
 13 11  1  0
 14 15  1  0
 15 16  1  0
 17 16  1  1
 17 19  1  0
 18 17  1  0
 18  8  1  0
 19 20  2  0
 21 22  1  0
 23 22  1  6
 23 25  1  0
 24 19  1  0
 24 23  1  0
 25 26  2  0
 25 27  1  0
M  END
$$$$
