QRS.pdb
     RDKit          3D

 27 26  0  0  1  0  0  0  0  0999 V2000
   16.7125  -22.2489  -11.5799 N   0  0  0  0  0  0  0  0  0  0  0  0
   17.3289  -23.1405  -12.5339 C   0  0  0  0  0  0  0  0  0  0  0  0
   16.7465  -24.2142  -12.7720 O   0  0  0  0  0  0  0  0  0  0  0  0
   18.5738  -22.7410  -13.1598 C   0  0  0  0  0  0  0  0  0  0  0  0
   19.1280  -21.4341  -12.7472 C   0  0  0  0  0  0  0  0  0  0  0  0
   20.5892  -21.4380  -12.4501 C   0  0  2  0  0  0  0  0  0  0  0  0
   20.8520  -21.3230  -11.0564 N   0  0  0  0  0  0  0  0  0  0  0  0
   21.3240  -20.3891  -13.1939 C   0  0  0  0  0  0  0  0  0  0  0  0
   21.4437  -19.2767  -12.6295 O   0  0  0  0  0  0  0  0  0  0  0  0
   25.8289  -24.3639  -15.1030 N   0  0  0  0  0  0  0  0  0  0  0  0
   25.3338  -24.3517  -16.4470 C   0  0  0  0  0  0  0  0  0  0  0  0
   24.8035  -25.4159  -16.9353 N   0  0  0  0  0  0  0  0  0  0  0  0
   25.4403  -23.1573  -17.2210 N   0  0  0  0  0  0  0  0  0  0  0  0
   25.4448  -21.8416  -16.6105 C   0  0  0  0  0  0  0  0  0  0  0  0
   24.0473  -21.4869  -16.1517 C   0  0  0  0  0  0  0  0  0  0  0  0
   24.0137  -20.0828  -15.5982 C   0  0  0  0  0  0  0  0  0  0  0  0
   22.6751  -19.6193  -15.1730 C   0  0  2  0  0  0  0  0  0  0  0  0
   21.8673  -20.5841  -14.4522 N   0  0  0  0  0  0  0  0  0  0  0  0
   21.8497  -19.2659  -16.3880 C   0  0  0  0  0  0  0  0  0  0  0  0
   21.4353  -20.1274  -17.2052 O   0  0  0  0  0  0  0  0  0  0  0  0
   24.4747  -25.4306  -17.9224 O   0  0  0  0  0  0  0  0  0  0  0  0
   20.0161  -15.7097  -16.5925 C   0  0  0  0  0  0  0  0  0  0  0  0
   19.5469  -16.6861  -17.4424 C   0  0  1  0  0  0  0  0  0  0  0  0
   20.6964  -17.5841  -17.8640 N   0  0  0  0  0  0  0  0  0  0  0  0
   21.4875  -17.9213  -16.6839 C   0  0  0  0  0  0  0  0  0  0  0  0
   21.5229  -17.0053  -18.9326 O   0  0  0  0  0  0  0  0  0  0  0  0
   22.7449  -16.7424  -18.7911 O   0  0  0  0  0  0  0  0  0  0  0  0
  1  2  1  0
  2  3  2  0
  4  5  1  0
  4  2  1  0
  5  6  1  0
  6  8  1  0
  6  7  1  1
  8  9  2  0
 11 10  1  0
 11 12  2  0
 13 14  1  0
 13 11  1  0
 14 15  1  0
 15 16  1  0
 17 16  1  6
 17 19  1  0
 18 17  1  0
 18  8  1  0
 19 20  2  0
 21 22  1  0
 23 22  1  1
 23 25  1  0
 24 19  1  0
 24 23  1  0
 25 26  2  0
 25 27  1  0
M  END
$$$$
