QRS.pdb
     RDKit          3D

 27 26  0  0  1  0  0  0  0  0999 V2000
   23.0550   -6.9884  -13.5443 N   0  0  0  0  0  0  0  0  0  0  0  0
   22.0722   -6.0435  -14.0201 C   0  0  0  0  0  0  0  0  0  0  0  0
   22.1217   -4.8876  -13.5616 O   0  0  0  0  0  0  0  0  0  0  0  0
   21.0965   -6.4835  -14.9976 C   0  0  0  0  0  0  0  0  0  0  0  0
   21.1816   -7.8970  -15.4220 C   0  0  0  0  0  0  0  0  0  0  0  0
   20.6018   -8.8770  -14.4593 C   0  0  2  0  0  0  0  0  0  0  0  0
   20.6743  -10.2121  -14.9463 N   0  0  0  0  0  0  0  0  0  0  0  0
   19.2076   -8.5484  -14.0832 C   0  0  0  0  0  0  0  0  0  0  0  0
   18.3146   -8.8517  -14.9084 O   0  0  0  0  0  0  0  0  0  0  0  0
   14.2313   -7.2996   -6.4766 N   0  0  0  0  0  0  0  0  0  0  0  0
   13.5345   -7.7152   -7.6571 C   0  0  0  0  0  0  0  0  0  0  0  0
   12.4141   -8.3350   -7.5450 N   0  0  0  0  0  0  0  0  0  0  0  0
   14.0988   -7.4349   -8.9377 N   0  0  0  0  0  0  0  0  0  0  0  0
   15.4686   -7.7791   -9.2680 C   0  0  0  0  0  0  0  0  0  0  0  0
   15.7403   -7.4553  -10.7208 C   0  0  0  0  0  0  0  0  0  0  0  0
   17.1625   -7.8084  -11.0835 C   0  0  0  0  0  0  0  0  0  0  0  0
   17.5164   -7.5662  -12.4990 C   0  0  2  0  0  0  0  0  0  0  0  0
   18.8627   -7.9364  -12.8903 N   0  0  0  0  0  0  0  0  0  0  0  0
   17.4268   -6.0884  -12.7998 C   0  0  0  0  0  0  0  0  0  0  0  0
   18.2612   -5.2526  -12.3676 O   0  0  0  0  0  0  0  0  0  0  0  0
   11.8468   -8.5467   -8.3912 O   0  0  0  0  0  0  0  0  0  0  0  0
   14.3108   -4.5718  -15.0866 C   0  0  0  0  0  0  0  0  0  0  0  0
   15.5181   -3.9148  -15.1671 C   0  0  1  0  0  0  0  0  0  0  0  0
   16.2904   -4.1164  -13.8755 N   0  0  0  0  0  0  0  0  0  0  0  0
   16.3807   -5.5474  -13.5997 C   0  0  0  0  0  0  0  0  0  0  0  0
   15.7266   -3.3725  -12.7403 O   0  0  0  0  0  0  0  0  0  0  0  0
   15.0559   -3.9171  -11.8260 O   0  0  0  0  0  0  0  0  0  0  0  0
  1  2  1  0
  2  3  2  0
  4  5  1  0
  4  2  1  0
  5  6  1  0
  6  8  1  0
  6  7  1  6
  8  9  2  0
 11 10  1  0
 11 12  2  0
 13 14  1  0
 13 11  1  0
 14 15  1  0
 15 16  1  0
 17 16  1  1
 17 19  1  0
 18 17  1  0
 18  8  1  0
 19 20  2  0
 21 22  1  0
 23 22  1  6
 23 25  1  0
 24 19  1  0
 24 23  1  0
 25 26  2  0
 25 27  1  0
M  END
$$$$
