QVQ.pdb
     RDKit          3D

 26 25  0  0  1  0  0  0  0  0999 V2000
    8.6170  -15.5627   14.3542 N   0  0  0  0  0  0  0  0  0  0  0  0
    7.7001  -16.6195   14.4622 C   0  0  0  0  0  0  0  0  0  0  0  0
    6.7269  -16.6691   13.6804 O   0  0  0  0  0  0  0  0  0  0  0  0
    7.8878  -17.6458   15.4792 C   0  0  0  0  0  0  0  0  0  0  0  0
    9.1405  -17.4680   16.2988 C   0  0  0  0  0  0  0  0  0  0  0  0
    8.7165  -17.5635   17.7547 C   0  0  2  0  0  0  0  0  0  0  0  0
    7.2852  -17.6119   17.9105 N   0  0  0  0  0  0  0  0  0  0  0  0
    9.3356  -16.5163   18.5904 C   0  0  0  0  0  0  0  0  0  0  0  0
   10.5603  -16.2962   18.5830 O   0  0  0  0  0  0  0  0  0  0  0  0
    6.8177  -14.2301   21.3944 C   0  0  0  0  0  0  0  0  0  0  0  0
    8.0099  -13.7432   20.6086 C   0  0  2  0  0  0  0  0  0  0  0  0
    7.6141  -13.0412   19.3447 C   0  0  0  0  0  0  0  0  0  0  0  0
    9.0816  -14.7745   20.3996 C   0  0  2  0  0  0  0  0  0  0  0  0
    8.5157  -15.7308   19.4321 N   0  0  0  0  0  0  0  0  0  0  0  0
    9.4701  -15.5298   21.5889 C   0  0  0  0  0  0  0  0  0  0  0  0
    8.5655  -16.2499   22.1449 O   0  0  0  0  0  0  0  0  0  0  0  0
   10.8853  -20.2327   21.1585 N   0  0  0  0  0  0  0  0  0  0  0  0
   12.0822  -19.6163   21.6466 C   0  0  0  0  0  0  0  0  0  0  0  0
   13.1094  -20.3611   21.7286 O   0  0  0  0  0  0  0  0  0  0  0  0
   12.1084  -18.1925   22.0224 C   0  0  0  0  0  0  0  0  0  0  0  0
   11.0315  -17.7663   22.9439 C   0  0  0  0  0  0  0  0  0  0  0  0
   10.9778  -16.3517   23.3889 C   0  0  2  0  0  0  0  0  0  0  0  0
   10.7397  -15.5367   22.1726 N   0  0  0  0  0  0  0  0  0  0  0  0
   12.1890  -15.8770   24.0364 C   0  0  0  0  0  0  0  0  0  0  0  0
   12.6156  -16.3517   25.1386 O   0  0  0  0  0  0  0  0  0  0  0  0
   12.9878  -14.8612   23.5066 O   0  0  0  0  0  0  0  0  0  0  0  0
  2  1  1  0
  2  3  2  0
  4  5  1  0
  4  2  1  0
  6  7  1  6
  6  5  1  0
  8  6  1  0
  9  8  2  0
 11 10  1  6
 11 12  1  0
 11 13  1  0
 13 14  1  6
 14  8  1  0
 15 16  2  0
 15 13  1  0
 18 17  1  0
 19 18  2  0
 20 18  1  0
 22 21  1  6
 21 20  1  0
 22 23  1  0
 23 15  1  0
 24 22  1  0
 25 24  2  0
 26 24  1  0
M  END
$$$$
