QVQ.pdb
     RDKit          3D

 26 25  0  0  1  0  0  0  0  0999 V2000
    6.3985  -17.8084   18.4175 N   0  0  0  0  0  0  0  0  0  0  0  0
    7.2529  -18.0151   19.5114 C   0  0  0  0  0  0  0  0  0  0  0  0
    7.4341  -19.1756   19.9371 O   0  0  0  0  0  0  0  0  0  0  0  0
    7.9190  -16.8819   20.1398 C   0  0  0  0  0  0  0  0  0  0  0  0
    7.3593  -16.5208   21.4922 C   0  0  0  0  0  0  0  0  0  0  0  0
    7.4333  -15.0067   21.5955 C   0  0  2  0  0  0  0  0  0  0  0  0
    8.0202  -14.4019   20.4271 N   0  0  0  0  0  0  0  0  0  0  0  0
    8.0822  -14.5594   22.8434 C   0  0  0  0  0  0  0  0  0  0  0  0
    9.3188  -14.4867   22.9615 O   0  0  0  0  0  0  0  0  0  0  0  0
    6.2536  -11.8445   25.2075 C   0  0  0  0  0  0  0  0  0  0  0  0
    6.7734  -13.0493   25.9520 C   0  0  2  0  0  0  0  0  0  0  0  0
    7.1082  -12.7390   27.3798 C   0  0  0  0  0  0  0  0  0  0  0  0
    7.8630  -13.7990   25.2403 C   0  0  2  0  0  0  0  0  0  0  0  0
    7.2782  -14.1990   23.9484 N   0  0  0  0  0  0  0  0  0  0  0  0
    8.3314  -15.0129   25.9058 C   0  0  0  0  0  0  0  0  0  0  0  0
    7.5830  -16.0516   25.8209 O   0  0  0  0  0  0  0  0  0  0  0  0
   13.1247  -17.6336   24.3494 N   0  0  0  0  0  0  0  0  0  0  0  0
   12.9008  -18.4431   25.5092 C   0  0  0  0  0  0  0  0  0  0  0  0
   13.6774  -19.4378   25.6636 O   0  0  0  0  0  0  0  0  0  0  0  0
   11.8288  -18.1234   26.4672 C   0  0  0  0  0  0  0  0  0  0  0  0
   11.0706  -16.8872   26.1718 C   0  0  0  0  0  0  0  0  0  0  0  0
    9.9619  -16.4857   27.0727 C   0  0  2  0  0  0  0  0  0  0  0  0
    9.5223  -15.1413   26.6256 N   0  0  0  0  0  0  0  0  0  0  0  0
   10.3235  -16.4125   28.4782 C   0  0  0  0  0  0  0  0  0  0  0  0
   10.4088  -15.3123   29.1140 O   0  0  0  0  0  0  0  0  0  0  0  0
   10.6080  -17.5405   29.2510 O   0  0  0  0  0  0  0  0  0  0  0  0
  2  1  1  0
  2  3  2  0
  4  5  1  0
  4  2  1  0
  6  7  1  6
  6  5  1  0
  8  6  1  0
  9  8  2  0
 11 10  1  6
 11 12  1  0
 11 13  1  0
 13 14  1  6
 14  8  1  0
 15 16  2  0
 15 13  1  0
 18 17  1  0
 19 18  2  0
 20 18  1  0
 22 21  1  6
 21 20  1  0
 22 23  1  0
 23 15  1  0
 24 22  1  0
 25 24  2  0
 26 24  1  0
M  END
$$$$
