QVQ.pdb
     RDKit          3D

 26 25  0  0  1  0  0  0  0  0999 V2000
    6.2956  -19.4778   21.5047 N   0  0  0  0  0  0  0  0  0  0  0  0
    7.1757  -18.9857   20.5287 C   0  0  0  0  0  0  0  0  0  0  0  0
    7.4176  -19.6770   19.5167 O   0  0  0  0  0  0  0  0  0  0  0  0
    7.7979  -17.6795   20.7009 C   0  0  0  0  0  0  0  0  0  0  0  0
    7.3549  -16.9542   21.9460 C   0  0  0  0  0  0  0  0  0  0  0  0
    7.8611  -15.5277   21.8133 C   0  0  2  0  0  0  0  0  0  0  0  0
    8.7510  -15.3601   20.6929 N   0  0  0  0  0  0  0  0  0  0  0  0
    8.4419  -15.0180   23.0708 C   0  0  0  0  0  0  0  0  0  0  0  0
    9.6643  -15.0507   23.3008 O   0  0  0  0  0  0  0  0  0  0  0  0
    6.9334  -11.7928   24.8814 C   0  0  0  0  0  0  0  0  0  0  0  0
    7.0994  -12.9679   25.8129 C   0  0  2  0  0  0  0  0  0  0  0  0
    7.3064  -12.5452   27.2360 C   0  0  0  0  0  0  0  0  0  0  0  0
    8.0956  -13.9928   25.3513 C   0  0  2  0  0  0  0  0  0  0  0  0
    7.5863  -14.4715   24.0542 N   0  0  0  0  0  0  0  0  0  0  0  0
    8.2501  -15.1577   26.2202 C   0  0  0  0  0  0  0  0  0  0  0  0
    7.4296  -16.1287   26.0470 O   0  0  0  0  0  0  0  0  0  0  0  0
   11.9527  -18.0231   24.1549 N   0  0  0  0  0  0  0  0  0  0  0  0
   11.9861  -18.8154   25.3473 C   0  0  0  0  0  0  0  0  0  0  0  0
   12.7106  -19.8597   25.3127 O   0  0  0  0  0  0  0  0  0  0  0  0
   11.2225  -18.4247   26.5445 C   0  0  0  0  0  0  0  0  0  0  0  0
   10.4494  -17.1694   26.4143 C   0  0  0  0  0  0  0  0  0  0  0  0
    9.6851  -16.6659   27.5823 C   0  0  2  0  0  0  0  0  0  0  0  0
    9.2129  -15.3065   27.2220 N   0  0  0  0  0  0  0  0  0  0  0  0
   10.4525  -16.5799   28.8133 C   0  0  0  0  0  0  0  0  0  0  0  0
   10.8869  -17.6057   29.4306 O   0  0  0  0  0  0  0  0  0  0  0  0
   10.7790  -15.3671   29.4240 O   0  0  0  0  0  0  0  0  0  0  0  0
  2  1  1  0
  2  3  2  0
  4  5  1  0
  4  2  1  0
  6  7  1  6
  6  5  1  0
  8  6  1  0
  9  8  2  0
 11 10  1  6
 11 12  1  0
 11 13  1  0
 13 14  1  6
 14  8  1  0
 15 16  2  0
 15 13  1  0
 18 17  1  0
 19 18  2  0
 20 18  1  0
 22 21  1  6
 21 20  1  0
 22 23  1  0
 23 15  1  0
 24 22  1  0
 25 24  2  0
 26 24  1  0
M  END
$$$$
