QVQ.pdb
     RDKit          3D

 26 25  0  0  1  0  0  0  0  0999 V2000
    6.3736  -19.6878   17.9212 N   0  0  0  0  0  0  0  0  0  0  0  0
    7.2353  -20.0277   16.8670 C   0  0  0  0  0  0  0  0  0  0  0  0
    6.8234  -20.7760   15.9554 O   0  0  0  0  0  0  0  0  0  0  0  0
    8.5965  -19.5087   16.8427 C   0  0  0  0  0  0  0  0  0  0  0  0
    8.9646  -18.7092   18.0667 C   0  0  0  0  0  0  0  0  0  0  0  0
    9.3325  -17.3194   17.5752 C   0  0  2  0  0  0  0  0  0  0  0  0
   10.3055  -17.3492   16.5132 N   0  0  0  0  0  0  0  0  0  0  0  0
    9.7326  -16.4214   18.6761 C   0  0  0  0  0  0  0  0  0  0  0  0
   10.9031  -16.3614   19.0942 O   0  0  0  0  0  0  0  0  0  0  0  0
    8.2501  -12.5783   21.4597 C   0  0  0  0  0  0  0  0  0  0  0  0
    8.0330  -13.6630   20.4338 C   0  0  2  0  0  0  0  0  0  0  0  0
    6.6291  -14.1883   20.4450 C   0  0  0  0  0  0  0  0  0  0  0  0
    9.0695  -14.7498   20.4474 C   0  0  2  0  0  0  0  0  0  0  0  0
    8.7581  -15.5969   19.2828 N   0  0  0  0  0  0  0  0  0  0  0  0
    9.0664  -15.6090   21.6297 C   0  0  0  0  0  0  0  0  0  0  0  0
    8.3737  -16.6870   21.5666 O   0  0  0  0  0  0  0  0  0  0  0  0
   12.1196  -19.6583   21.9328 N   0  0  0  0  0  0  0  0  0  0  0  0
   12.8182  -18.4545   22.2695 C   0  0  0  0  0  0  0  0  0  0  0  0
   14.0422  -18.3968   21.9303 O   0  0  0  0  0  0  0  0  0  0  0  0
   12.1396  -17.3477   22.9650 C   0  0  0  0  0  0  0  0  0  0  0  0
   10.6817  -17.5224   23.1504 C   0  0  0  0  0  0  0  0  0  0  0  0
    9.9033  -16.4491   23.8167 C   0  0  2  0  0  0  0  0  0  0  0  0
    9.7518  -15.3594   22.8215 N   0  0  0  0  0  0  0  0  0  0  0  0
   10.5271  -15.9043   25.0107 C   0  0  0  0  0  0  0  0  0  0  0  0
   10.7665  -16.6050   26.0469 O   0  0  0  0  0  0  0  0  0  0  0  0
   10.9171  -14.5681   25.1241 O   0  0  0  0  0  0  0  0  0  0  0  0
  2  1  1  0
  2  3  2  0
  4  5  1  0
  4  2  1  0
  6  7  1  6
  6  5  1  0
  8  6  1  0
  9  8  2  0
 11 10  1  1
 11 12  1  0
 11 13  1  0
 13 14  1  6
 14  8  1  0
 15 16  2  0
 15 13  1  0
 18 17  1  0
 19 18  2  0
 20 18  1  0
 22 21  1  6
 21 20  1  0
 22 23  1  0
 23 15  1  0
 24 22  1  0
 25 24  2  0
 26 24  1  0
M  END
$$$$
