QVQ.pdb
     RDKit          3D

 26 25  0  0  1  0  0  0  0  0999 V2000
    8.6887  -17.5943   13.1571 N   0  0  0  0  0  0  0  0  0  0  0  0
    9.4584  -18.3838   14.0251 C   0  0  0  0  0  0  0  0  0  0  0  0
   10.5079  -18.9142   13.6032 O   0  0  0  0  0  0  0  0  0  0  0  0
    9.0313  -18.5785   15.4044 C   0  0  0  0  0  0  0  0  0  0  0  0
    9.1908  -17.3540   16.2692 C   0  0  0  0  0  0  0  0  0  0  0  0
    8.8741  -17.7893   17.6900 C   0  0  2  0  0  0  0  0  0  0  0  0
    7.4969  -18.1791   17.8537 N   0  0  0  0  0  0  0  0  0  0  0  0
    9.2962  -16.7906   18.6913 C   0  0  0  0  0  0  0  0  0  0  0  0
   10.4839  -16.4450   18.8271 O   0  0  0  0  0  0  0  0  0  0  0  0
    6.7964  -13.7182   19.7024 C   0  0  0  0  0  0  0  0  0  0  0  0
    7.3912  -14.4820   20.8595 C   0  0  2  0  0  0  0  0  0  0  0  0
    7.4651  -13.6593   22.1104 C   0  0  0  0  0  0  0  0  0  0  0  0
    8.6769  -15.1908   20.5430 C   0  0  2  0  0  0  0  0  0  0  0  0
    8.3235  -16.2006   19.5300 N   0  0  0  0  0  0  0  0  0  0  0  0
    9.3028  -15.8912   21.6626 C   0  0  0  0  0  0  0  0  0  0  0  0
    8.7709  -16.9996   22.0291 O   0  0  0  0  0  0  0  0  0  0  0  0
   15.3354  -15.7819   22.7485 N   0  0  0  0  0  0  0  0  0  0  0  0
   14.9122  -16.7491   23.7161 C   0  0  0  0  0  0  0  0  0  0  0  0
   15.8328  -17.3677   24.3378 O   0  0  0  0  0  0  0  0  0  0  0  0
   13.4833  -16.9975   23.9719 C   0  0  0  0  0  0  0  0  0  0  0  0
   12.5496  -16.2314   23.1164 C   0  0  0  0  0  0  0  0  0  0  0  0
   11.0882  -16.3832   23.3238 C   0  0  2  0  0  0  0  0  0  0  0  0
   10.4293  -15.4597   22.3679 N   0  0  0  0  0  0  0  0  0  0  0  0
   10.6333  -16.0640   24.6665 C   0  0  0  0  0  0  0  0  0  0  0  0
   10.1552  -14.9267   24.9827 O   0  0  0  0  0  0  0  0  0  0  0  0
   10.6814  -16.9754   25.7236 O   0  0  0  0  0  0  0  0  0  0  0  0
  2  1  1  0
  2  3  2  0
  4  5  1  0
  4  2  1  0
  6  7  1  6
  6  5  1  0
  8  6  1  0
  9  8  2  0
 11 10  1  6
 11 12  1  0
 11 13  1  0
 13 14  1  6
 14  8  1  0
 15 16  2  0
 15 13  1  0
 18 17  1  0
 19 18  2  0
 20 18  1  0
 22 21  1  1
 21 20  1  0
 22 23  1  0
 23 15  1  0
 24 22  1  0
 25 24  2  0
 26 24  1  0
M  END
$$$$
