QVQ.pdb
     RDKit          3D

 26 25  0  0  1  0  0  0  0  0999 V2000
    9.7698  -15.5042   13.5854 N   0  0  0  0  0  0  0  0  0  0  0  0
    8.6451  -16.0726   14.2030 C   0  0  0  0  0  0  0  0  0  0  0  0
    7.6064  -16.2577   13.5341 O   0  0  0  0  0  0  0  0  0  0  0  0
    8.6959  -16.4409   15.6118 C   0  0  0  0  0  0  0  0  0  0  0  0
   10.0466  -16.2300   16.2472 C   0  0  0  0  0  0  0  0  0  0  0  0
    9.9141  -16.6789   17.6927 C   0  0  2  0  0  0  0  0  0  0  0  0
    8.6820  -17.3827   17.9413 N   0  0  0  0  0  0  0  0  0  0  0  0
   10.1299  -15.5735   18.6467 C   0  0  0  0  0  0  0  0  0  0  0  0
   11.1703  -14.8910   18.6504 O   0  0  0  0  0  0  0  0  0  0  0  0
    6.8184  -14.3165   21.1066 C   0  0  0  0  0  0  0  0  0  0  0  0
    7.9892  -13.4847   20.6445 C   0  0  2  0  0  0  0  0  0  0  0  0
    7.6965  -12.7392   19.3774 C   0  0  0  0  0  0  0  0  0  0  0  0
    9.2990  -14.2188   20.6078 C   0  0  2  0  0  0  0  0  0  0  0  0
    9.1242  -15.2728   19.5931 N   0  0  0  0  0  0  0  0  0  0  0  0
    9.6916  -14.8703   21.8556 C   0  0  0  0  0  0  0  0  0  0  0  0
    9.7995  -14.1255   22.8947 O   0  0  0  0  0  0  0  0  0  0  0  0
    9.5579  -20.7263   24.1924 N   0  0  0  0  0  0  0  0  0  0  0  0
    9.0779  -20.2552   22.9281 C   0  0  0  0  0  0  0  0  0  0  0  0
    8.2845  -21.0259   22.3012 O   0  0  0  0  0  0  0  0  0  0  0  0
    9.4845  -18.9423   22.3989 C   0  0  0  0  0  0  0  0  0  0  0  0
   10.4806  -18.2161   23.2179 C   0  0  0  0  0  0  0  0  0  0  0  0
   10.3754  -16.7414   23.3457 C   0  0  2  0  0  0  0  0  0  0  0  0
    9.9592  -16.2324   22.0159 N   0  0  0  0  0  0  0  0  0  0  0  0
   11.6108  -16.0800   23.7304 C   0  0  0  0  0  0  0  0  0  0  0  0
   12.3843  -15.5165   22.8900 O   0  0  0  0  0  0  0  0  0  0  0  0
   12.0550  -16.0054   25.0524 O   0  0  0  0  0  0  0  0  0  0  0  0
  2  1  1  0
  2  3  2  0
  4  5  1  0
  4  2  1  0
  6  7  1  6
  6  5  1  0
  8  6  1  0
  9  8  2  0
 11 10  1  6
 11 12  1  0
 11 13  1  0
 13 14  1  6
 14  8  1  0
 15 16  2  0
 15 13  1  0
 18 17  1  0
 19 18  2  0
 20 18  1  0
 22 21  1  6
 21 20  1  0
 22 23  1  0
 23 15  1  0
 24 22  1  0
 25 24  2  0
 26 24  1  0
M  END
$$$$
