QVQ.pdb
     RDKit          3D

 26 25  0  0  1  0  0  0  0  0999 V2000
    6.6723  -18.5210   19.9238 N   0  0  0  0  0  0  0  0  0  0  0  0
    7.1888  -17.5303   19.0747 C   0  0  0  0  0  0  0  0  0  0  0  0
    7.4504  -17.8163   17.8870 O   0  0  0  0  0  0  0  0  0  0  0  0
    7.4153  -16.1829   19.5806 C   0  0  0  0  0  0  0  0  0  0  0  0
    7.0460  -16.0079   21.0316 C   0  0  0  0  0  0  0  0  0  0  0  0
    7.2302  -14.5327   21.3452 C   0  0  2  0  0  0  0  0  0  0  0  0
    7.7986  -13.8009   20.2421 N   0  0  0  0  0  0  0  0  0  0  0  0
    7.9702  -14.3134   22.6032 C   0  0  0  0  0  0  0  0  0  0  0  0
    9.1591  -14.6528   22.7439 O   0  0  0  0  0  0  0  0  0  0  0  0
    7.6333  -12.0948   27.0718 C   0  0  0  0  0  0  0  0  0  0  0  0
    7.0601  -12.5977   25.7701 C   0  0  2  0  0  0  0  0  0  0  0  0
    5.6809  -13.1619   25.9324 C   0  0  0  0  0  0  0  0  0  0  0  0
    7.9774  -13.4968   24.9916 C   0  0  2  0  0  0  0  0  0  0  0  0
    7.3129  -13.6967   23.6918 N   0  0  0  0  0  0  0  0  0  0  0  0
    8.2101  -14.8168   25.5743 C   0  0  0  0  0  0  0  0  0  0  0  0
    7.3272  -15.7195   25.3471 O   0  0  0  0  0  0  0  0  0  0  0  0
   11.7027  -19.7026   25.5555 N   0  0  0  0  0  0  0  0  0  0  0  0
   12.3649  -18.4333   25.5222 C   0  0  0  0  0  0  0  0  0  0  0  0
   13.6261  -18.4570   25.3628 O   0  0  0  0  0  0  0  0  0  0  0  0
   11.6108  -17.1757   25.6589 C   0  0  0  0  0  0  0  0  0  0  0  0
   10.1448  -17.3332   25.7875 C   0  0  0  0  0  0  0  0  0  0  0  0
    9.4258  -16.5778   26.8431 C   0  0  2  0  0  0  0  0  0  0  0  0
    9.3094  -15.1814   26.3561 N   0  0  0  0  0  0  0  0  0  0  0  0
   10.0912  -16.5652   28.1349 C   0  0  0  0  0  0  0  0  0  0  0  0
   10.5753  -15.5074   28.6532 O   0  0  0  0  0  0  0  0  0  0  0  0
   10.2565  -17.7100   28.9175 O   0  0  0  0  0  0  0  0  0  0  0  0
  2  1  1  0
  2  3  2  0
  4  5  1  0
  4  2  1  0
  6  7  1  6
  6  5  1  0
  8  6  1  0
  9  8  2  0
 11 10  1  1
 11 12  1  0
 11 13  1  0
 13 14  1  6
 14  8  1  0
 15 16  2  0
 15 13  1  0
 18 17  1  0
 19 18  2  0
 20 18  1  0
 22 21  1  6
 21 20  1  0
 22 23  1  0
 23 15  1  0
 24 22  1  0
 25 24  2  0
 26 24  1  0
M  END
$$$$
