QVQ.pdb
     RDKit          3D

 26 25  0  0  1  0  0  0  0  0999 V2000
    5.9520  -19.2706   25.0131 N   0  0  0  0  0  0  0  0  0  0  0  0
    7.2186  -19.3673   24.4167 C   0  0  0  0  0  0  0  0  0  0  0  0
    8.0398  -20.2014   24.8533 O   0  0  0  0  0  0  0  0  0  0  0  0
    7.5656  -18.4994   23.2990 C   0  0  0  0  0  0  0  0  0  0  0  0
    6.4875  -17.5083   22.9410 C   0  0  0  0  0  0  0  0  0  0  0  0
    7.2003  -16.2584   22.4531 C   0  0  2  0  0  0  0  0  0  0  0  0
    8.1137  -16.5302   21.3727 N   0  0  0  0  0  0  0  0  0  0  0  0
    7.8407  -15.5108   23.5529 C   0  0  0  0  0  0  0  0  0  0  0  0
    9.0619  -15.5796   23.7819 O   0  0  0  0  0  0  0  0  0  0  0  0
    5.9832  -12.0352   24.8873 C   0  0  0  0  0  0  0  0  0  0  0  0
    6.5152  -12.9832   25.9334 C   0  0  2  0  0  0  0  0  0  0  0  0
    6.8214  -12.2929   27.2283 C   0  0  0  0  0  0  0  0  0  0  0  0
    7.6306  -13.8708   25.4601 C   0  0  2  0  0  0  0  0  0  0  0  0
    7.0461  -14.6852   24.3803 N   0  0  0  0  0  0  0  0  0  0  0  0
    8.1727  -14.7890   26.4594 C   0  0  0  0  0  0  0  0  0  0  0  0
    7.4532  -15.8045   26.7710 O   0  0  0  0  0  0  0  0  0  0  0  0
   13.0282  -17.8256   26.0278 N   0  0  0  0  0  0  0  0  0  0  0  0
   12.7390  -18.1747   27.3862 C   0  0  0  0  0  0  0  0  0  0  0  0
   13.4695  -19.0758   27.9067 O   0  0  0  0  0  0  0  0  0  0  0  0
   11.6548  -17.5111   28.1301 C   0  0  0  0  0  0  0  0  0  0  0  0
   10.9284  -16.4626   27.3795 C   0  0  0  0  0  0  0  0  0  0  0  0
    9.8448  -15.7077   28.0561 C   0  0  2  0  0  0  0  0  0  0  0  0
    9.4055  -14.6580   27.1044 N   0  0  0  0  0  0  0  0  0  0  0  0
   10.2403  -15.0702   29.3006 C   0  0  0  0  0  0  0  0  0  0  0  0
   10.3181  -13.8062   29.4359 O   0  0  0  0  0  0  0  0  0  0  0  0
   10.5684  -15.7876   30.4531 O   0  0  0  0  0  0  0  0  0  0  0  0
  2  1  1  0
  2  3  2  0
  4  5  1  0
  4  2  1  0
  6  7  1  6
  6  5  1  0
  8  6  1  0
  9  8  2  0
 11 10  1  6
 11 12  1  0
 11 13  1  0
 13 14  1  6
 14  8  1  0
 15 16  2  0
 15 13  1  0
 18 17  1  0
 19 18  2  0
 20 18  1  0
 22 21  1  6
 21 20  1  0
 22 23  1  0
 23 15  1  0
 24 22  1  0
 25 24  2  0
 26 24  1  0
M  END
$$$$
