QVQ.pdb
     RDKit          3D

 26 25  0  0  1  0  0  0  0  0999 V2000
    4.4098  -21.3311   23.5558 N   0  0  0  0  0  0  0  0  0  0  0  0
    4.1397  -21.3341   22.1787 C   0  0  0  0  0  0  0  0  0  0  0  0
    3.3411  -22.1741   21.7123 O   0  0  0  0  0  0  0  0  0  0  0  0
    4.7885  -20.3635   21.3070 C   0  0  0  0  0  0  0  0  0  0  0  0
    5.7321  -19.4343   22.0273 C   0  0  0  0  0  0  0  0  0  0  0  0
    6.3181  -18.5149   20.9690 C   0  0  2  0  0  0  0  0  0  0  0  0
    6.8233  -19.2368   19.8293 N   0  0  0  0  0  0  0  0  0  0  0  0
    7.3148  -17.5798   21.5262 C   0  0  0  0  0  0  0  0  0  0  0  0
    8.5386  -17.7967   21.4645 O   0  0  0  0  0  0  0  0  0  0  0  0
    7.2075  -13.7661   21.0590 C   0  0  0  0  0  0  0  0  0  0  0  0
    7.2898  -14.0963   22.5288 C   0  0  2  0  0  0  0  0  0  0  0  0
    7.9794  -13.0247   23.3182 C   0  0  0  0  0  0  0  0  0  0  0  0
    7.8053  -15.4746   22.8297 C   0  0  2  0  0  0  0  0  0  0  0  0
    6.8724  -16.3933   22.1540 N   0  0  0  0  0  0  0  0  0  0  0  0
    7.8365  -15.8411   24.2441 C   0  0  0  0  0  0  0  0  0  0  0  0
    6.7403  -15.7282   24.9011 O   0  0  0  0  0  0  0  0  0  0  0  0
    8.9994  -21.0234   26.4397 N   0  0  0  0  0  0  0  0  0  0  0  0
    7.7198  -20.3970   26.5850 C   0  0  0  0  0  0  0  0  0  0  0  0
    6.7228  -21.1731   26.7270 O   0  0  0  0  0  0  0  0  0  0  0  0
    7.5828  -18.9307   26.5761 C   0  0  0  0  0  0  0  0  0  0  0  0
    8.8471  -18.1828   26.3948 C   0  0  0  0  0  0  0  0  0  0  0  0
    8.8125  -16.6997   26.3652 C   0  0  2  0  0  0  0  0  0  0  0  0
    8.9548  -16.3037   24.9427 N   0  0  0  0  0  0  0  0  0  0  0  0
    9.8648  -16.0566   27.1339 C   0  0  0  0  0  0  0  0  0  0  0  0
   10.8329  -15.4308   26.5924 O   0  0  0  0  0  0  0  0  0  0  0  0
    9.9048  -16.0696   28.5298 O   0  0  0  0  0  0  0  0  0  0  0  0
  2  1  1  0
  2  3  2  0
  4  5  1  0
  4  2  1  0
  6  7  1  6
  6  5  1  0
  8  6  1  0
  9  8  2  0
 11 10  1  6
 11 12  1  0
 11 13  1  0
 13 14  1  6
 14  8  1  0
 15 16  2  0
 15 13  1  0
 18 17  1  0
 19 18  2  0
 20 18  1  0
 22 21  1  6
 21 20  1  0
 22 23  1  0
 23 15  1  0
 24 22  1  0
 25 24  2  0
 26 24  1  0
M  END
$$$$
