QVQ.pdb
     RDKit          3D

 26 25  0  0  1  0  0  0  0  0999 V2000
    9.7728  -20.9525   16.3664 N   0  0  0  0  0  0  0  0  0  0  0  0
    8.4072  -20.7418   16.6112 C   0  0  0  0  0  0  0  0  0  0  0  0
    7.5716  -21.5566   16.1656 O   0  0  0  0  0  0  0  0  0  0  0  0
    7.9753  -19.5813   17.3790 C   0  0  0  0  0  0  0  0  0  0  0  0
    9.1097  -18.7080   17.8514 C   0  0  0  0  0  0  0  0  0  0  0  0
    8.5953  -17.2789   17.8105 C   0  0  2  0  0  0  0  0  0  0  0  0
    8.6946  -16.6942   16.4976 N   0  0  0  0  0  0  0  0  0  0  0  0
    9.2103  -16.4300   18.8495 C   0  0  0  0  0  0  0  0  0  0  0  0
   10.4335  -16.2048   18.8870 O   0  0  0  0  0  0  0  0  0  0  0  0
    6.5909  -14.3118   21.6143 C   0  0  0  0  0  0  0  0  0  0  0  0
    7.8953  -13.8534   21.0107 C   0  0  2  0  0  0  0  0  0  0  0  0
    7.6965  -13.0544   19.7580 C   0  0  0  0  0  0  0  0  0  0  0  0
    8.9275  -14.9345   20.8631 C   0  0  2  0  0  0  0  0  0  0  0  0
    8.3880  -15.8483   19.8410 N   0  0  0  0  0  0  0  0  0  0  0  0
    9.1897  -15.7239   22.0647 C   0  0  0  0  0  0  0  0  0  0  0  0
    8.3073  -16.5945   22.3958 O   0  0  0  0  0  0  0  0  0  0  0  0
   14.2055  -18.5241   23.9329 N   0  0  0  0  0  0  0  0  0  0  0  0
   13.3639  -18.5467   22.7745 C   0  0  0  0  0  0  0  0  0  0  0  0
   13.8209  -19.1531   21.7547 O   0  0  0  0  0  0  0  0  0  0  0  0
   12.0388  -17.9039   22.7817 C   0  0  0  0  0  0  0  0  0  0  0  0
   11.7017  -17.1735   24.0240 C   0  0  0  0  0  0  0  0  0  0  0  0
   10.4112  -16.4459   24.1081 C   0  0  2  0  0  0  0  0  0  0  0  0
   10.3166  -15.6140   22.8836 N   0  0  0  0  0  0  0  0  0  0  0  0
   10.2813  -15.5809   25.2685 C   0  0  0  0  0  0  0  0  0  0  0  0
   10.2311  -16.0260   26.4608 O   0  0  0  0  0  0  0  0  0  0  0  0
   10.2003  -14.1897   25.1761 O   0  0  0  0  0  0  0  0  0  0  0  0
  2  1  1  0
  2  3  2  0
  4  5  1  0
  4  2  1  0
  6  7  1  6
  6  5  1  0
  8  6  1  0
  9  8  2  0
 11 10  1  6
 11 12  1  0
 11 13  1  0
 13 14  1  6
 14  8  1  0
 15 16  2  0
 15 13  1  0
 18 17  1  0
 19 18  2  0
 20 18  1  0
 22 21  1  1
 21 20  1  0
 22 23  1  0
 23 15  1  0
 24 22  1  0
 25 24  2  0
 26 24  1  0
M  END
$$$$
