ALK.pdb
     RDKit          3D

 23 22  0  0  1  0  0  0  0  0999 V2000
    7.0403  -16.7465   20.4750 C   0  0  0  0  0  0  0  0  0  0  0  0
    7.8079  -15.4463   20.5462 C   0  0  2  0  0  0  0  0  0  0  0  0
    8.8736  -15.3765   19.5972 N   0  0  0  0  0  0  0  0  0  0  0  0
    8.2639  -15.1408   21.9166 C   0  0  0  0  0  0  0  0  0  0  0  0
    9.4191  -15.5346   22.2532 O   0  0  0  0  0  0  0  0  0  0  0  0
    5.8771  -12.3679   26.8843 C   0  0  0  0  0  0  0  0  0  0  0  0
    7.1840  -13.0310   26.3762 C   0  0  2  0  0  0  0  0  0  0  0  0
    8.2166  -11.9094   26.5506 C   0  0  0  0  0  0  0  0  0  0  0  0
    6.9171  -13.3712   24.9525 C   0  0  0  0  0  0  0  0  0  0  0  0
    7.9294  -14.2200   24.2584 C   0  0  2  0  0  0  0  0  0  0  0  0
    7.5144  -14.4476   22.8728 N   0  0  0  0  0  0  0  0  0  0  0  0
    8.1980  -15.4580   24.9714 C   0  0  0  0  0  0  0  0  0  0  0  0
    7.3073  -16.3443   25.0252 O   0  0  0  0  0  0  0  0  0  0  0  0
    9.4173  -15.7669   25.6378 N   0  0  0  0  0  0  0  0  0  0  0  0
    9.8068  -17.1033   26.0492 C   0  0  1  0  0  0  0  0  0  0  0  0
   10.7011  -17.8000   25.0916 C   0  0  0  0  0  0  0  0  0  0  0  0
   11.1811  -19.1540   25.4670 C   0  0  0  0  0  0  0  0  0  0  0  0
   12.0968  -19.8045   24.4864 C   0  0  0  0  0  0  0  0  0  0  0  0
   12.4965  -21.1728   25.0449 C   0  0  0  0  0  0  0  0  0  0  0  0
   13.2212  -21.8591   24.0176 N   0  0  0  0  0  0  0  0  0  0  0  0
   10.3145  -17.0043   27.4401 C   0  0  0  0  0  0  0  0  0  0  0  0
   10.5018  -15.7612   28.0803 O   0  0  0  0  0  0  0  0  0  0  0  0
   10.6057  -18.0150   28.1303 O   0  0  0  0  0  0  0  0  0  0  0  0
  2  1  1  1
  2  3  1  0
  4  2  1  0
  4  5  2  0
  7  6  1  6
  7  9  1  0
  8  7  1  0
 10  9  1  1
 10 12  1  0
 10 11  1  0
 11  4  1  0
 12 14  1  0
 13 12  2  0
 14 15  1  0
 15 21  1  0
 15 16  1  6
 17 16  1  0
 18 17  1  0
 19 18  1  0
 20 19  1  0
 21 23  2  0
 21 22  1  0
M  END
$$$$
