ALK.pdb
     RDKit          3D

 23 22  0  0  1  0  0  0  0  0999 V2000
    7.7548  -13.1734   19.6302 C   0  0  0  0  0  0  0  0  0  0  0  0
    7.7031  -14.4486   20.4403 C   0  0  2  0  0  0  0  0  0  0  0  0
    6.4279  -15.0907   20.3866 N   0  0  0  0  0  0  0  0  0  0  0  0
    8.1659  -14.2485   21.8277 C   0  0  0  0  0  0  0  0  0  0  0  0
    9.4145  -14.1860   22.0277 O   0  0  0  0  0  0  0  0  0  0  0  0
    5.8472  -12.1984   27.0191 C   0  0  0  0  0  0  0  0  0  0  0  0
    7.1511  -12.7667   26.4003 C   0  0  2  0  0  0  0  0  0  0  0  0
    7.9403  -11.4955   26.0599 C   0  0  0  0  0  0  0  0  0  0  0  0
    6.7101  -13.5268   25.1995 C   0  0  0  0  0  0  0  0  0  0  0  0
    7.7799  -14.1020   24.3324 C   0  0  2  0  0  0  0  0  0  0  0  0
    7.3272  -14.1224   22.9401 N   0  0  0  0  0  0  0  0  0  0  0  0
    8.2261  -15.4063   24.7936 C   0  0  0  0  0  0  0  0  0  0  0  0
    7.3884  -16.3360   24.9186 O   0  0  0  0  0  0  0  0  0  0  0  0
    9.5694  -15.7365   25.1294 N   0  0  0  0  0  0  0  0  0  0  0  0
   10.0171  -17.0700   25.4879 C   0  0  1  0  0  0  0  0  0  0  0  0
   11.0748  -17.6169   24.6023 C   0  0  0  0  0  0  0  0  0  0  0  0
   10.8084  -17.6194   23.1416 C   0  0  0  0  0  0  0  0  0  0  0  0
   11.8896  -18.1981   22.2935 C   0  0  0  0  0  0  0  0  0  0  0  0
   11.4735  -18.0513   20.8275 C   0  0  0  0  0  0  0  0  0  0  0  0
   12.5094  -18.6340   20.0283 N   0  0  0  0  0  0  0  0  0  0  0  0
   10.3442  -17.0493   26.9352 C   0  0  0  0  0  0  0  0  0  0  0  0
   10.2838  -15.8641   27.6980 O   0  0  0  0  0  0  0  0  0  0  0  0
   10.6915  -18.0799   27.5677 O   0  0  0  0  0  0  0  0  0  0  0  0
  2  1  1  1
  2  3  1  0
  4  2  1  0
  4  5  2  0
  7  6  1  6
  7  9  1  0
  8  7  1  0
 10  9  1  1
 10 12  1  0
 10 11  1  0
 11  4  1  0
 12 14  1  0
 13 12  2  0
 14 15  1  0
 15 21  1  0
 15 16  1  6
 17 16  1  0
 18 17  1  0
 19 18  1  0
 20 19  1  0
 21 23  2  0
 21 22  1  0
M  END
$$$$
