ALK.pdb
     RDKit          3D

 23 22  0  0  1  0  0  0  0  0999 V2000
    7.5496  -17.6718   20.9383 C   0  0  0  0  0  0  0  0  0  0  0  0
    7.6916  -16.1894   20.6789 C   0  0  2  0  0  0  0  0  0  0  0  0
    8.4062  -15.9009   19.4758 N   0  0  0  0  0  0  0  0  0  0  0  0
    8.2480  -15.4693   21.8413 C   0  0  0  0  0  0  0  0  0  0  0  0
    9.5044  -15.3228   21.8957 O   0  0  0  0  0  0  0  0  0  0  0  0
    5.9623  -12.6254   26.8101 C   0  0  0  0  0  0  0  0  0  0  0  0
    7.3123  -13.0167   26.1540 C   0  0  2  0  0  0  0  0  0  0  0  0
    8.0161  -11.6612   26.0056 C   0  0  0  0  0  0  0  0  0  0  0  0
    6.9445  -13.6363   24.8522 C   0  0  0  0  0  0  0  0  0  0  0  0
    8.0448  -14.2747   24.0719 C   0  0  2  0  0  0  0  0  0  0  0  0
    7.4901  -14.9359   22.8890 N   0  0  0  0  0  0  0  0  0  0  0  0
    8.8538  -15.1690   24.8835 C   0  0  0  0  0  0  0  0  0  0  0  0
    8.3420  -16.2260   25.3335 O   0  0  0  0  0  0  0  0  0  0  0  0
   10.2172  -14.9481   25.2279 N   0  0  0  0  0  0  0  0  0  0  0  0
   11.0151  -15.8594   26.0278 C   0  0  1  0  0  0  0  0  0  0  0  0
   10.4362  -16.1698   27.3585 C   0  0  0  0  0  0  0  0  0  0  0  0
   11.0722  -17.2587   28.1426 C   0  0  0  0  0  0  0  0  0  0  0  0
   10.9548  -17.1351   29.6238 C   0  0  0  0  0  0  0  0  0  0  0  0
   11.6659  -18.3334   30.2584 C   0  0  0  0  0  0  0  0  0  0  0  0
   11.5498  -18.1964   31.6793 N   0  0  0  0  0  0  0  0  0  0  0  0
   11.3248  -17.0350   25.1767 C   0  0  0  0  0  0  0  0  0  0  0  0
   12.3091  -17.9794   25.5366 O   0  0  0  0  0  0  0  0  0  0  0  0
   10.7323  -17.2619   24.0903 O   0  0  0  0  0  0  0  0  0  0  0  0
  2  1  1  1
  2  3  1  0
  4  2  1  0
  4  5  2  0
  7  6  1  1
  7  9  1  0
  8  7  1  0
 10  9  1  1
 10 12  1  0
 10 11  1  0
 11  4  1  0
 12 14  1  0
 13 12  2  0
 14 15  1  0
 15 21  1  0
 15 16  1  1
 17 16  1  0
 18 17  1  0
 19 18  1  0
 20 19  1  0
 21 23  2  0
 21 22  1  0
M  END
$$$$
