ALK.pdb
     RDKit          3D

 23 22  0  0  1  0  0  0  0  0999 V2000
    8.4406  -14.1847   20.3955 C   0  0  0  0  0  0  0  0  0  0  0  0
    7.9789  -15.3470   21.2447 C   0  0  2  0  0  0  0  0  0  0  0  0
    6.5897  -15.6381   21.0816 N   0  0  0  0  0  0  0  0  0  0  0  0
    8.3490  -15.1837   22.6644 C   0  0  0  0  0  0  0  0  0  0  0  0
    9.5819  -15.1458   22.9499 O   0  0  0  0  0  0  0  0  0  0  0  0
    8.4132  -12.3080   26.5009 C   0  0  0  0  0  0  0  0  0  0  0  0
    7.0755  -12.4648   25.7315 C   0  0  2  0  0  0  0  0  0  0  0  0
    6.1010  -11.6436   26.5862 C   0  0  0  0  0  0  0  0  0  0  0  0
    6.7888  -13.9248   25.7477 C   0  0  0  0  0  0  0  0  0  0  0  0
    7.8020  -14.8202   25.1164 C   0  0  2  0  0  0  0  0  0  0  0  0
    7.4384  -15.0676   23.7198 N   0  0  0  0  0  0  0  0  0  0  0  0
    8.0011  -16.0488   25.8674 C   0  0  0  0  0  0  0  0  0  0  0  0
    7.0354  -16.8391   26.0243 O   0  0  0  0  0  0  0  0  0  0  0  0
    9.2302  -16.4503   26.4627 N   0  0  0  0  0  0  0  0  0  0  0  0
    9.7107  -17.8195   26.4991 C   0  0  1  0  0  0  0  0  0  0  0  0
   10.1238  -18.3563   25.1788 C   0  0  0  0  0  0  0  0  0  0  0  0
    9.6145  -19.6980   24.7977 C   0  0  0  0  0  0  0  0  0  0  0  0
   10.6192  -20.6162   24.1888 C   0  0  0  0  0  0  0  0  0  0  0  0
    9.9008  -21.9067   23.7859 C   0  0  0  0  0  0  0  0  0  0  0  0
   10.8895  -22.8013   23.2629 N   0  0  0  0  0  0  0  0  0  0  0  0
   10.7366  -17.8967   27.5687 C   0  0  0  0  0  0  0  0  0  0  0  0
   10.6875  -18.8775   28.5815 O   0  0  0  0  0  0  0  0  0  0  0  0
   11.7074  -17.0994   27.6374 O   0  0  0  0  0  0  0  0  0  0  0  0
  2  1  1  6
  2  3  1  0
  4  2  1  0
  4  5  2  0
  7  6  1  1
  7  9  1  0
  8  7  1  0
 10  9  1  1
 10 12  1  0
 10 11  1  0
 11  4  1  0
 12 14  1  0
 13 12  2  0
 14 15  1  0
 15 21  1  0
 15 16  1  6
 17 16  1  0
 18 17  1  0
 19 18  1  0
 20 19  1  0
 21 23  2  0
 21 22  1  0
M  END
$$$$
