ALK.pdb
     RDKit          3D

 23 22  0  0  1  0  0  0  0  0999 V2000
    7.7197  -13.4985   20.1669 C   0  0  0  0  0  0  0  0  0  0  0  0
    7.4890  -14.7498   20.9831 C   0  0  2  0  0  0  0  0  0  0  0  0
    6.1098  -15.1130   21.0670 N   0  0  0  0  0  0  0  0  0  0  0  0
    8.1252  -14.6748   22.3131 C   0  0  0  0  0  0  0  0  0  0  0  0
    9.3903  -14.6852   22.3610 O   0  0  0  0  0  0  0  0  0  0  0  0
    8.2039  -11.7670   26.0022 C   0  0  0  0  0  0  0  0  0  0  0  0
    6.8625  -12.4680   25.6623 C   0  0  2  0  0  0  0  0  0  0  0  0
    5.9113  -11.9006   26.7242 C   0  0  0  0  0  0  0  0  0  0  0  0
    7.1328  -13.9218   25.8285 C   0  0  0  0  0  0  0  0  0  0  0  0
    8.0638  -14.5533   24.8479 C   0  0  2  0  0  0  0  0  0  0  0  0
    7.4342  -14.5929   23.5265 N   0  0  0  0  0  0  0  0  0  0  0  0
    8.5270  -15.8599   25.2851 C   0  0  0  0  0  0  0  0  0  0  0  0
    7.6907  -16.7064   25.6921 O   0  0  0  0  0  0  0  0  0  0  0  0
    9.8868  -16.2809   25.2963 N   0  0  0  0  0  0  0  0  0  0  0  0
   10.3233  -17.6219   25.6401 C   0  0  1  0  0  0  0  0  0  0  0  0
   11.1846  -18.2642   24.6166 C   0  0  0  0  0  0  0  0  0  0  0  0
   10.7015  -18.2519   23.2126 C   0  0  0  0  0  0  0  0  0  0  0  0
   11.6154  -18.8776   22.2144 C   0  0  0  0  0  0  0  0  0  0  0  0
   11.0322  -18.6365   20.8195 C   0  0  0  0  0  0  0  0  0  0  0  0
   11.9354  -19.2175   19.8718 N   0  0  0  0  0  0  0  0  0  0  0  0
   10.8954  -17.5605   27.0081 C   0  0  0  0  0  0  0  0  0  0  0  0
   11.0998  -16.3359   27.6781 O   0  0  0  0  0  0  0  0  0  0  0  0
   11.2296  -18.5888   27.6512 O   0  0  0  0  0  0  0  0  0  0  0  0
  2  1  1  1
  2  3  1  0
  4  2  1  0
  4  5  2  0
  7  6  1  1
  7  9  1  0
  8  7  1  0
 10  9  1  1
 10 12  1  0
 10 11  1  0
 11  4  1  0
 12 14  1  0
 13 12  2  0
 14 15  1  0
 15 21  1  0
 15 16  1  6
 17 16  1  0
 18 17  1  0
 19 18  1  0
 20 19  1  0
 21 23  2  0
 21 22  1  0
M  END
$$$$
