ALK.pdb
     RDKit          3D

 23 22  0  0  1  0  0  0  0  0999 V2000
    7.5990  -14.1623   20.3838 C   0  0  0  0  0  0  0  0  0  0  0  0
    7.6321  -15.3040   21.3740 C   0  0  2  0  0  0  0  0  0  0  0  0
    6.3504  -15.9017   21.5772 N   0  0  0  0  0  0  0  0  0  0  0  0
    8.2743  -14.9214   22.6469 C   0  0  0  0  0  0  0  0  0  0  0  0
    9.5106  -14.6498   22.6232 O   0  0  0  0  0  0  0  0  0  0  0  0
    7.7217  -11.4491   25.6306 C   0  0  0  0  0  0  0  0  0  0  0  0
    6.6006  -12.5162   25.5279 C   0  0  2  0  0  0  0  0  0  0  0  0
    5.5256  -11.9624   26.4725 C   0  0  0  0  0  0  0  0  0  0  0  0
    7.2214  -13.7776   26.0154 C   0  0  0  0  0  0  0  0  0  0  0  0
    8.2441  -14.4130   25.1338 C   0  0  2  0  0  0  0  0  0  0  0  0
    7.6184  -14.8361   23.8795 N   0  0  0  0  0  0  0  0  0  0  0  0
    8.9528  -15.4952   25.7969 C   0  0  0  0  0  0  0  0  0  0  0  0
    9.3733  -15.3290   26.9706 O   0  0  0  0  0  0  0  0  0  0  0  0
    9.2247  -16.7669   25.2181 N   0  0  0  0  0  0  0  0  0  0  0  0
    9.9883  -17.8145   25.8709 C   0  0  1  0  0  0  0  0  0  0  0  0
    9.5317  -19.1903   25.5536 C   0  0  0  0  0  0  0  0  0  0  0  0
    8.4339  -19.7529   26.3802 C   0  0  0  0  0  0  0  0  0  0  0  0
    7.9485  -21.1016   25.9695 C   0  0  0  0  0  0  0  0  0  0  0  0
    6.8389  -21.5221   26.9369 C   0  0  0  0  0  0  0  0  0  0  0  0
    6.3108  -22.7677   26.4669 N   0  0  0  0  0  0  0  0  0  0  0  0
   11.4231  -17.5416   25.6073 C   0  0  0  0  0  0  0  0  0  0  0  0
   12.4513  -18.2298   26.2852 O   0  0  0  0  0  0  0  0  0  0  0  0
   11.8088  -16.6873   24.7683 O   0  0  0  0  0  0  0  0  0  0  0  0
  2  1  1  6
  2  3  1  0
  4  2  1  0
  4  5  2  0
  7  6  1  1
  7  9  1  0
  8  7  1  0
 10  9  1  1
 10 12  1  0
 10 11  1  0
 11  4  1  0
 12 14  1  0
 13 12  2  0
 14 15  1  0
 15 21  1  0
 15 16  1  6
 17 16  1  0
 18 17  1  0
 19 18  1  0
 20 19  1  0
 21 23  2  0
 21 22  1  0
M  END
$$$$
