ALK.pdb
     RDKit          3D

 23 22  0  0  1  0  0  0  0  0999 V2000
    6.9448  -16.4021   21.2043 C   0  0  0  0  0  0  0  0  0  0  0  0
    7.3852  -14.9669   21.3807 C   0  0  2  0  0  0  0  0  0  0  0  0
    8.2140  -14.5039   20.3130 N   0  0  0  0  0  0  0  0  0  0  0  0
    7.9978  -14.7286   22.7024 C   0  0  0  0  0  0  0  0  0  0  0  0
    9.2590  -14.7995   22.7872 O   0  0  0  0  0  0  0  0  0  0  0  0
    7.4752  -11.3511   26.0665 C   0  0  0  0  0  0  0  0  0  0  0  0
    6.3216  -12.3514   25.7930 C   0  0  2  0  0  0  0  0  0  0  0  0
    5.2335  -11.8798   26.7669 C   0  0  0  0  0  0  0  0  0  0  0  0
    6.8796  -13.6879   26.1338 C   0  0  0  0  0  0  0  0  0  0  0  0
    7.8891  -14.2590   25.1947 C   0  0  2  0  0  0  0  0  0  0  0  0
    7.2884  -14.4298   23.8704 N   0  0  0  0  0  0  0  0  0  0  0  0
    8.4853  -15.4849   25.6996 C   0  0  0  0  0  0  0  0  0  0  0  0
    7.9112  -16.5834   25.4860 O   0  0  0  0  0  0  0  0  0  0  0  0
    9.6989  -15.5564   26.4401 N   0  0  0  0  0  0  0  0  0  0  0  0
   10.4856  -16.7653   26.6032 C   0  0  1  0  0  0  0  0  0  0  0  0
   11.6340  -16.8762   25.6699 C   0  0  0  0  0  0  0  0  0  0  0  0
   11.6288  -18.0115   24.7128 C   0  0  0  0  0  0  0  0  0  0  0  0
   12.8172  -18.1003   23.8168 C   0  0  0  0  0  0  0  0  0  0  0  0
   12.6638  -19.3507   22.9467 C   0  0  0  0  0  0  0  0  0  0  0  0
   13.8255  -19.4372   22.1133 N   0  0  0  0  0  0  0  0  0  0  0  0
   10.8210  -16.8801   28.0442 C   0  0  0  0  0  0  0  0  0  0  0  0
   10.8623  -18.1260   28.7047 O   0  0  0  0  0  0  0  0  0  0  0  0
   11.0889  -15.8814   28.7608 O   0  0  0  0  0  0  0  0  0  0  0  0
  2  1  1  6
  2  3  1  0
  4  2  1  0
  4  5  2  0
  7  6  1  1
  7  9  1  0
  8  7  1  0
 10  9  1  1
 10 12  1  0
 10 11  1  0
 11  4  1  0
 12 14  1  0
 13 12  2  0
 14 15  1  0
 15 21  1  0
 15 16  1  6
 17 16  1  0
 18 17  1  0
 19 18  1  0
 20 19  1  0
 21 23  2  0
 21 22  1  0
M  END
$$$$
