ALK.pdb
     RDKit          3D

 23 22  0  0  1  0  0  0  0  0999 V2000
    9.7535  -18.1549   17.5486 C   0  0  0  0  0  0  0  0  0  0  0  0
    9.8656  -18.3188   19.0471 C   0  0  2  0  0  0  0  0  0  0  0  0
    8.7399  -18.9867   19.6197 N   0  0  0  0  0  0  0  0  0  0  0  0
   10.1596  -17.0427   19.7285 C   0  0  0  0  0  0  0  0  0  0  0  0
   11.3296  -16.5722   19.6162 O   0  0  0  0  0  0  0  0  0  0  0  0
    8.3135  -12.8351   19.5749 C   0  0  0  0  0  0  0  0  0  0  0  0
    7.5427  -13.9845   20.2756 C   0  0  2  0  0  0  0  0  0  0  0  0
    6.1897  -13.3338   20.5928 C   0  0  0  0  0  0  0  0  0  0  0  0
    8.3430  -14.3036   21.4888 C   0  0  0  0  0  0  0  0  0  0  0  0
    9.5684  -15.1323   21.2922 C   0  0  2  0  0  0  0  0  0  0  0  0
    9.2410  -16.3129   20.4903 N   0  0  0  0  0  0  0  0  0  0  0  0
   10.2153  -15.4728   22.5486 C   0  0  0  0  0  0  0  0  0  0  0  0
   10.5305  -14.5549   23.3485 O   0  0  0  0  0  0  0  0  0  0  0  0
   10.5366  -16.7945   22.9682 N   0  0  0  0  0  0  0  0  0  0  0  0
   11.1819  -17.1169   24.2278 C   0  0  1  0  0  0  0  0  0  0  0  0
   10.6761  -18.3537   24.8733 C   0  0  0  0  0  0  0  0  0  0  0  0
   11.3300  -18.7813   26.1360 C   0  0  0  0  0  0  0  0  0  0  0  0
   10.8243  -20.0565   26.7202 C   0  0  0  0  0  0  0  0  0  0  0  0
   11.5111  -20.2649   28.0725 C   0  0  0  0  0  0  0  0  0  0  0  0
   11.0794  -21.5324   28.5808 N   0  0  0  0  0  0  0  0  0  0  0  0
   12.6469  -17.0718   23.9951 C   0  0  0  0  0  0  0  0  0  0  0  0
   13.5542  -16.7087   25.0125 O   0  0  0  0  0  0  0  0  0  0  0  0
   13.1671  -17.3540   22.8849 O   0  0  0  0  0  0  0  0  0  0  0  0
  2  1  1  6
  2  3  1  0
  4  2  1  0
  4  5  2  0
  7  6  1  6
  7  9  1  0
  8  7  1  0
 10  9  1  1
 10 12  1  0
 10 11  1  0
 11  4  1  0
 12 14  1  0
 13 12  2  0
 14 15  1  0
 15 21  1  0
 15 16  1  6
 17 16  1  0
 18 17  1  0
 19 18  1  0
 20 19  1  0
 21 23  2  0
 21 22  1  0
M  END
$$$$
