ALK.pdb
     RDKit          3D

 23 22  0  0  1  0  0  0  0  0999 V2000
    6.7433  -15.5800   20.3587 C   0  0  0  0  0  0  0  0  0  0  0  0
    7.1198  -14.1901   20.8187 C   0  0  2  0  0  0  0  0  0  0  0  0
    7.8525  -13.4577   19.8349 N   0  0  0  0  0  0  0  0  0  0  0  0
    7.8039  -14.2005   22.1268 C   0  0  0  0  0  0  0  0  0  0  0  0
    9.0668  -14.2887   22.1290 O   0  0  0  0  0  0  0  0  0  0  0  0
    7.5443  -11.4195   25.9589 C   0  0  0  0  0  0  0  0  0  0  0  0
    6.3562  -12.3554   25.6145 C   0  0  2  0  0  0  0  0  0  0  0  0
    5.3311  -12.0070   26.7019 C   0  0  0  0  0  0  0  0  0  0  0  0
    6.9017  -13.7343   25.7379 C   0  0  0  0  0  0  0  0  0  0  0  0
    7.8327  -14.1920   24.6651 C   0  0  2  0  0  0  0  0  0  0  0  0
    7.1605  -14.1202   23.3663 N   0  0  0  0  0  0  0  0  0  0  0  0
    8.3858  -15.5089   24.9354 C   0  0  0  0  0  0  0  0  0  0  0  0
    7.6476  -16.5215   24.8291 O   0  0  0  0  0  0  0  0  0  0  0  0
    9.7312  -15.7638   25.3243 N   0  0  0  0  0  0  0  0  0  0  0  0
   10.3340  -17.0837   25.3616 C   0  0  1  0  0  0  0  0  0  0  0  0
   11.5273  -17.2341   24.4924 C   0  0  0  0  0  0  0  0  0  0  0  0
   12.2162  -18.5494   24.5002 C   0  0  0  0  0  0  0  0  0  0  0  0
   13.3773  -18.6707   23.5727 C   0  0  0  0  0  0  0  0  0  0  0  0
   13.8740  -20.1181   23.6200 C   0  0  0  0  0  0  0  0  0  0  0  0
   15.0351  -20.1995   22.7853 N   0  0  0  0  0  0  0  0  0  0  0  0
   10.5363  -17.4341   26.7894 C   0  0  0  0  0  0  0  0  0  0  0  0
   10.1939  -16.5475   27.8320 O   0  0  0  0  0  0  0  0  0  0  0  0
   11.0205  -18.5358   27.1563 O   0  0  0  0  0  0  0  0  0  0  0  0
  2  1  1  6
  2  3  1  0
  4  2  1  0
  4  5  2  0
  7  6  1  1
  7  9  1  0
  8  7  1  0
 10  9  1  1
 10 12  1  0
 10 11  1  0
 11  4  1  0
 12 14  1  0
 13 12  2  0
 14 15  1  0
 15 21  1  0
 15 16  1  6
 17 16  1  0
 18 17  1  0
 19 18  1  0
 20 19  1  0
 21 23  2  0
 21 22  1  0
M  END
$$$$
