ALK.pdb
     RDKit          3D

 23 22  0  0  1  0  0  0  0  0999 V2000
    8.4776  -19.6666   19.9890 C   0  0  0  0  0  0  0  0  0  0  0  0
    8.8635  -18.5605   19.0336 C   0  0  2  0  0  0  0  0  0  0  0  0
    9.6330  -19.0270   17.9239 N   0  0  0  0  0  0  0  0  0  0  0  0
    9.5131  -17.4281   19.7227 C   0  0  0  0  0  0  0  0  0  0  0  0
   10.7752  -17.3487   19.6618 O   0  0  0  0  0  0  0  0  0  0  0  0
    8.4528  -12.9030   19.2800 C   0  0  0  0  0  0  0  0  0  0  0  0
    7.5684  -13.8207   20.1641 C   0  0  2  0  0  0  0  0  0  0  0  0
    6.4194  -12.8874   20.5684 C   0  0  0  0  0  0  0  0  0  0  0  0
    8.4387  -14.2138   21.3052 C   0  0  0  0  0  0  0  0  0  0  0  0
    9.4706  -15.2588   21.0404 C   0  0  2  0  0  0  0  0  0  0  0  0
    8.8378  -16.4344   20.4392 N   0  0  0  0  0  0  0  0  0  0  0  0
   10.2450  -15.5867   22.2261 C   0  0  0  0  0  0  0  0  0  0  0  0
   10.9122  -14.6854   22.7957 O   0  0  0  0  0  0  0  0  0  0  0  0
   10.3205  -16.8787   22.8189 N   0  0  0  0  0  0  0  0  0  0  0  0
   11.0863  -17.1853   24.0133 C   0  0  1  0  0  0  0  0  0  0  0  0
   10.6009  -18.3713   24.7614 C   0  0  0  0  0  0  0  0  0  0  0  0
   11.4095  -18.8250   25.9212 C   0  0  0  0  0  0  0  0  0  0  0  0
   10.9396  -20.0772   26.5801 C   0  0  0  0  0  0  0  0  0  0  0  0
   11.8571  -20.3598   27.7726 C   0  0  0  0  0  0  0  0  0  0  0  0
   11.2833  -21.4485   28.5054 N   0  0  0  0  0  0  0  0  0  0  0  0
   12.5171  -17.2199   23.6209 C   0  0  0  0  0  0  0  0  0  0  0  0
   12.9278  -17.6018   22.3264 O   0  0  0  0  0  0  0  0  0  0  0  0
   13.4458  -16.9117   24.4117 O   0  0  0  0  0  0  0  0  0  0  0  0
  2  1  1  1
  2  3  1  0
  4  2  1  0
  4  5  2  0
  7  6  1  6
  7  9  1  0
  8  7  1  0
 10  9  1  1
 10 12  1  0
 10 11  1  0
 11  4  1  0
 12 14  1  0
 13 12  2  0
 14 15  1  0
 15 21  1  0
 15 16  1  6
 17 16  1  0
 18 17  1  0
 19 18  1  0
 20 19  1  0
 21 23  2  0
 21 22  1  0
M  END
$$$$
