ALK.pdb
     RDKit          3D

 23 22  0  0  1  0  0  0  0  0999 V2000
    8.2015  -14.0805   19.4998 C   0  0  0  0  0  0  0  0  0  0  0  0
    7.7311  -15.0669   20.5442 C   0  0  2  0  0  0  0  0  0  0  0  0
    6.3153  -15.2583   20.5312 N   0  0  0  0  0  0  0  0  0  0  0  0
    8.2343  -14.7363   21.8921 C   0  0  0  0  0  0  0  0  0  0  0  0
    9.4822  -14.8170   22.0898 O   0  0  0  0  0  0  0  0  0  0  0  0
    6.0949  -11.9155   26.8990 C   0  0  0  0  0  0  0  0  0  0  0  0
    7.3195  -12.7265   26.4003 C   0  0  2  0  0  0  0  0  0  0  0  0
    8.4549  -11.6972   26.4776 C   0  0  0  0  0  0  0  0  0  0  0  0
    6.9783  -13.1254   25.0080 C   0  0  0  0  0  0  0  0  0  0  0  0
    7.9292  -14.0433   24.3150 C   0  0  2  0  0  0  0  0  0  0  0  0
    7.4346  -14.3399   22.9691 N   0  0  0  0  0  0  0  0  0  0  0  0
    8.2026  -15.2445   25.0866 C   0  0  0  0  0  0  0  0  0  0  0  0
    7.2610  -16.0353   25.3509 O   0  0  0  0  0  0  0  0  0  0  0  0
    9.4814  -15.6176   25.5883 N   0  0  0  0  0  0  0  0  0  0  0  0
    9.9162  -16.9898   25.7756 C   0  0  1  0  0  0  0  0  0  0  0  0
   10.4269  -17.6413   24.5441 C   0  0  0  0  0  0  0  0  0  0  0  0
    9.8475  -18.9586   24.1781 C   0  0  0  0  0  0  0  0  0  0  0  0
   10.3544  -19.5514   22.9074 C   0  0  0  0  0  0  0  0  0  0  0  0
    9.6912  -20.9190   22.7233 C   0  0  0  0  0  0  0  0  0  0  0  0
   10.1432  -21.4486   21.4716 N   0  0  0  0  0  0  0  0  0  0  0  0
   10.8420  -17.0028   26.9354 C   0  0  0  0  0  0  0  0  0  0  0  0
   11.3043  -15.8128   27.5357 O   0  0  0  0  0  0  0  0  0  0  0  0
   11.2678  -18.0677   27.4525 O   0  0  0  0  0  0  0  0  0  0  0  0
  2  1  1  6
  2  3  1  0
  4  2  1  0
  4  5  2  0
  7  6  1  6
  7  9  1  0
  8  7  1  0
 10  9  1  1
 10 12  1  0
 10 11  1  0
 11  4  1  0
 12 14  1  0
 13 12  2  0
 14 15  1  0
 15 21  1  0
 15 16  1  6
 17 16  1  0
 18 17  1  0
 19 18  1  0
 20 19  1  0
 21 23  2  0
 21 22  1  0
M  END
$$$$
