ALK.pdb
     RDKit          3D

 23 22  0  0  1  0  0  0  0  0999 V2000
    8.1687  -13.3619   19.4916 C   0  0  0  0  0  0  0  0  0  0  0  0
    7.9212  -14.5692   20.3670 C   0  0  2  0  0  0  0  0  0  0  0  0
    6.5828  -15.0601   20.2726 N   0  0  0  0  0  0  0  0  0  0  0  0
    8.3304  -14.3382   21.7664 C   0  0  0  0  0  0  0  0  0  0  0  0
    9.5707  -14.3068   22.0187 O   0  0  0  0  0  0  0  0  0  0  0  0
    5.7264  -12.2747   26.9165 C   0  0  0  0  0  0  0  0  0  0  0  0
    7.0323  -12.9388   26.4068 C   0  0  2  0  0  0  0  0  0  0  0  0
    8.0762  -11.8367   26.6306 C   0  0  0  0  0  0  0  0  0  0  0  0
    6.7819  -13.2315   24.9695 C   0  0  0  0  0  0  0  0  0  0  0  0
    7.8536  -13.9617   24.2311 C   0  0  2  0  0  0  0  0  0  0  0  0
    7.4493  -14.1510   22.8366 N   0  0  0  0  0  0  0  0  0  0  0  0
    8.2228  -15.2092   24.8797 C   0  0  0  0  0  0  0  0  0  0  0  0
    7.3815  -16.1415   24.9476 O   0  0  0  0  0  0  0  0  0  0  0  0
    9.4917  -15.4788   25.4659 N   0  0  0  0  0  0  0  0  0  0  0  0
   10.0030  -16.8117   25.7284 C   0  0  1  0  0  0  0  0  0  0  0  0
   10.9823  -17.2979   24.7251 C   0  0  0  0  0  0  0  0  0  0  0  0
   11.5923  -18.6316   24.9572 C   0  0  0  0  0  0  0  0  0  0  0  0
   12.9376  -18.8363   24.3476 C   0  0  0  0  0  0  0  0  0  0  0  0
   13.1168  -20.3337   24.0838 C   0  0  0  0  0  0  0  0  0  0  0  0
   14.3200  -20.4932   23.3234 N   0  0  0  0  0  0  0  0  0  0  0  0
   10.4683  -16.8340   27.1374 C   0  0  0  0  0  0  0  0  0  0  0  0
   10.4399  -15.6825   27.9519 O   0  0  0  0  0  0  0  0  0  0  0  0
   10.9123  -17.8737   27.6895 O   0  0  0  0  0  0  0  0  0  0  0  0
  2  1  1  6
  2  3  1  0
  4  2  1  0
  4  5  2  0
  7  6  1  6
  7  9  1  0
  8  7  1  0
 10  9  1  1
 10 12  1  0
 10 11  1  0
 11  4  1  0
 12 14  1  0
 13 12  2  0
 14 15  1  0
 15 21  1  0
 15 16  1  6
 17 16  1  0
 18 17  1  0
 19 18  1  0
 20 19  1  0
 21 23  2  0
 21 22  1  0
M  END
$$$$
