ALK.pdb
     RDKit          3D

 23 22  0  0  1  0  0  0  0  0999 V2000
    7.0207  -16.1115   19.6927 C   0  0  0  0  0  0  0  0  0  0  0  0
    7.4253  -16.6885   21.0300 C   0  0  2  0  0  0  0  0  0  0  0  0
    6.4047  -17.4963   21.6192 N   0  0  0  0  0  0  0  0  0  0  0  0
    7.9194  -15.6532   21.9590 C   0  0  0  0  0  0  0  0  0  0  0  0
    8.9536  -15.0057   21.6214 O   0  0  0  0  0  0  0  0  0  0  0  0
    5.8554  -12.7679   26.9784 C   0  0  0  0  0  0  0  0  0  0  0  0
    7.1293  -12.9202   26.1066 C   0  0  2  0  0  0  0  0  0  0  0  0
    7.3156  -11.5070   25.5385 C   0  0  0  0  0  0  0  0  0  0  0  0
    6.7724  -13.9294   25.0731 C   0  0  0  0  0  0  0  0  0  0  0  0
    7.8558  -14.3524   24.1380 C   0  0  2  0  0  0  0  0  0  0  0  0
    7.3298  -15.3332   23.1865 N   0  0  0  0  0  0  0  0  0  0  0  0
    9.0368  -14.8309   24.8375 C   0  0  0  0  0  0  0  0  0  0  0  0
    9.6681  -14.0457   25.5904 O   0  0  0  0  0  0  0  0  0  0  0  0
    9.5618  -16.1506   24.7424 N   0  0  0  0  0  0  0  0  0  0  0  0
   10.8228  -16.5715   25.3254 C   0  0  1  0  0  0  0  0  0  0  0  0
   10.8151  -17.9550   25.8618 C   0  0  0  0  0  0  0  0  0  0  0  0
   10.8821  -18.1159   27.3364 C   0  0  0  0  0  0  0  0  0  0  0  0
   10.7889  -19.5186   27.8333 C   0  0  0  0  0  0  0  0  0  0  0  0
   10.7139  -19.4772   29.3619 C   0  0  0  0  0  0  0  0  0  0  0  0
   10.4780  -20.8152   29.8151 N   0  0  0  0  0  0  0  0  0  0  0  0
   11.8857  -16.2779   24.3322 C   0  0  0  0  0  0  0  0  0  0  0  0
   11.6061  -16.1459   22.9557 O   0  0  0  0  0  0  0  0  0  0  0  0
   13.0927  -16.1280   24.6535 O   0  0  0  0  0  0  0  0  0  0  0  0
  2  1  1  6
  2  3  1  0
  4  2  1  0
  4  5  2  0
  7  6  1  1
  7  9  1  0
  8  7  1  0
 10  9  1  1
 10 12  1  0
 10 11  1  0
 11  4  1  0
 12 14  1  0
 13 12  2  0
 14 15  1  0
 15 21  1  0
 15 16  1  6
 17 16  1  0
 18 17  1  0
 19 18  1  0
 20 19  1  0
 21 23  2  0
 21 22  1  0
M  END
$$$$
