ALK.pdb
     RDKit          3D

 23 22  0  0  1  0  0  0  0  0999 V2000
    6.6874  -16.7092   21.3828 C   0  0  0  0  0  0  0  0  0  0  0  0
    7.1028  -15.2587   21.2899 C   0  0  2  0  0  0  0  0  0  0  0  0
    7.8001  -14.9560   20.0802 N   0  0  0  0  0  0  0  0  0  0  0  0
    7.8451  -14.8123   22.4853 C   0  0  0  0  0  0  0  0  0  0  0  0
    9.0731  -14.5376   22.3461 O   0  0  0  0  0  0  0  0  0  0  0  0
    7.4538  -11.3647   25.7664 C   0  0  0  0  0  0  0  0  0  0  0  0
    6.3563  -12.4586   25.6957 C   0  0  2  0  0  0  0  0  0  0  0  0
    5.3919  -12.0360   26.8119 C   0  0  0  0  0  0  0  0  0  0  0  0
    7.0644  -13.7360   25.9798 C   0  0  0  0  0  0  0  0  0  0  0  0
    8.0267  -14.2204   24.9471 C   0  0  2  0  0  0  0  0  0  0  0  0
    7.2927  -14.6696   23.7624 N   0  0  0  0  0  0  0  0  0  0  0  0
    8.9294  -15.2363   25.4631 C   0  0  0  0  0  0  0  0  0  0  0  0
    9.7070  -14.9476   26.4085 O   0  0  0  0  0  0  0  0  0  0  0  0
    9.0170  -16.5715   24.9774 N   0  0  0  0  0  0  0  0  0  0  0  0
    9.9448  -17.5655   25.4853 C   0  0  1  0  0  0  0  0  0  0  0  0
   11.2185  -17.6538   24.7291 C   0  0  0  0  0  0  0  0  0  0  0  0
   11.1310  -17.9494   23.2765 C   0  0  0  0  0  0  0  0  0  0  0  0
   12.4348  -18.0182   22.5564 C   0  0  0  0  0  0  0  0  0  0  0  0
   12.1452  -18.2375   21.0692 C   0  0  0  0  0  0  0  0  0  0  0  0
   13.4064  -18.3311   20.3969 N   0  0  0  0  0  0  0  0  0  0  0  0
   10.0837  -17.3320   26.9443 C   0  0  0  0  0  0  0  0  0  0  0  0
   10.8303  -18.1970   27.7716 O   0  0  0  0  0  0  0  0  0  0  0  0
    9.5498  -16.3546   27.5294 O   0  0  0  0  0  0  0  0  0  0  0  0
  2  1  1  1
  2  3  1  0
  4  2  1  0
  4  5  2  0
  7  6  1  1
  7  9  1  0
  8  7  1  0
 10  9  1  1
 10 12  1  0
 10 11  1  0
 11  4  1  0
 12 14  1  0
 13 12  2  0
 14 15  1  0
 15 21  1  0
 15 16  1  6
 17 16  1  0
 18 17  1  0
 19 18  1  0
 20 19  1  0
 21 23  2  0
 21 22  1  0
M  END
$$$$
