NIC.pdb
     RDKit          3D

 23 22  0  0  1  0  0  0  0  0999 V2000
   26.3293  -19.5012  -15.1369 N   0  0  0  0  0  0  0  0  0  0  0  0
   25.0084  -19.6044  -14.6770 C   0  0  0  0  0  0  0  0  0  0  0  0
   24.0458  -19.2073  -15.3953 O   0  0  0  0  0  0  0  0  0  0  0  0
   24.7291  -20.1797  -13.3450 C   0  0  0  0  0  0  0  0  0  0  0  0
   26.0746  -20.4695  -12.6549 C   0  0  2  0  0  0  0  0  0  0  0  0
   26.6724  -21.6086  -13.3694 N   0  0  0  0  0  0  0  0  0  0  0  0
   25.7271  -20.9285  -11.2999 C   0  0  0  0  0  0  0  0  0  0  0  0
   25.3567  -22.1087  -11.0995 O   0  0  0  0  0  0  0  0  0  0  0  0
   27.3321  -21.0887   -6.1192 C   0  0  0  0  0  0  0  0  0  0  0  0
   26.1507  -20.1858   -6.4246 C   0  0  0  0  0  0  0  0  0  0  0  0
   26.2933  -19.7535   -7.8589 C   0  0  2  0  0  0  0  0  0  0  0  0
   25.9823  -18.2825   -8.0420 C   0  0  0  0  0  0  0  0  0  0  0  0
   25.4872  -20.5681   -8.8203 C   0  0  2  0  0  0  0  0  0  0  0  0
   25.7859  -20.0870  -10.1527 N   0  0  0  0  0  0  0  0  0  0  0  0
   24.0520  -20.5455   -8.6083 C   0  0  0  0  0  0  0  0  0  0  0  0
   23.3141  -19.5586   -8.8712 O   0  0  0  0  0  0  0  0  0  0  0  0
   23.4066  -21.6860   -8.0751 N   0  0  0  0  0  0  0  0  0  0  0  0
   21.9580  -21.6885   -7.8393 C   0  0  1  0  0  0  0  0  0  0  0  0
   21.2123  -22.3919   -8.9576 C   0  0  0  0  0  0  0  0  0  0  0  0
   19.4532  -22.5258   -8.5305 S   0  0  0  0  0  0  0  0  0  0  0  0
   21.6123  -22.1898   -6.5040 C   0  0  0  0  0  0  0  0  0  0  0  0
   22.4193  -22.9295   -5.8984 O   0  0  0  0  0  0  0  0  0  0  0  0
   20.4214  -21.8799   -5.8755 O   0  0  0  0  0  0  0  0  0  0  0  0
  2  1  1  0
  3  2  2  0
  4  2  1  0
  4  5  1  0
  5  6  1  6
  7  5  1  0
  7  8  2  0
 10  9  1  0
 11 12  1  1
 11 10  1  0
 13 14  1  6
 13 11  1  0
 14  7  1  0
 15 13  1  0
 16 15  2  0
 17 15  1  0
 18 17  1  0
 18 19  1  6
 20 19  1  0
 21 18  1  0
 21 23  1  0
 22 21  2  0
M  END
$$$$
