NIC.pdb
     RDKit          3D

 23 22  0  0  1  0  0  0  0  0999 V2000
   21.0063  -15.6588  -19.6837 N   0  0  0  0  0  0  0  0  0  0  0  0
   20.4379  -14.3875  -19.5174 C   0  0  0  0  0  0  0  0  0  0  0  0
   19.5436  -13.9754  -20.3115 O   0  0  0  0  0  0  0  0  0  0  0  0
   20.8806  -13.5158  -18.4095 C   0  0  0  0  0  0  0  0  0  0  0  0
   22.0786  -14.1902  -17.7164 C   0  0  2  0  0  0  0  0  0  0  0  0
   21.5393  -15.3482  -16.9858 N   0  0  0  0  0  0  0  0  0  0  0  0
   22.5507  -13.2164  -16.7183 C   0  0  0  0  0  0  0  0  0  0  0  0
   21.9539  -13.0805  -15.6249 O   0  0  0  0  0  0  0  0  0  0  0  0
   27.6107  -12.8493  -15.4380 C   0  0  0  0  0  0  0  0  0  0  0  0
   26.0936  -12.8968  -15.4276 C   0  0  0  0  0  0  0  0  0  0  0  0
   25.6131  -11.5280  -15.8275 C   0  0  2  0  0  0  0  0  0  0  0  0
   26.1469  -10.4483  -14.9091 C   0  0  0  0  0  0  0  0  0  0  0  0
   24.1254  -11.4155  -15.9352 C   0  0  2  0  0  0  0  0  0  0  0  0
   23.6877  -12.3830  -16.9193 N   0  0  0  0  0  0  0  0  0  0  0  0
   23.6222  -10.1020  -16.2912 C   0  0  0  0  0  0  0  0  0  0  0  0
   24.1145   -9.3782  -17.1975 O   0  0  0  0  0  0  0  0  0  0  0  0
   22.5096   -9.5689  -15.5987 N   0  0  0  0  0  0  0  0  0  0  0  0
   21.9655   -8.2522  -15.9508 C   0  0  1  0  0  0  0  0  0  0  0  0
   20.6294   -8.3722  -16.6592 C   0  0  0  0  0  0  0  0  0  0  0  0
   20.6519   -9.8086  -17.7688 S   0  0  0  0  0  0  0  0  0  0  0  0
   21.9358   -7.3372  -14.8037 C   0  0  0  0  0  0  0  0  0  0  0  0
   22.1899   -7.7780  -13.6606 O   0  0  0  0  0  0  0  0  0  0  0  0
   21.6360   -5.9941  -14.9276 O   0  0  0  0  0  0  0  0  0  0  0  0
  2  1  1  0
  3  2  2  0
  4  2  1  0
  4  5  1  0
  5  6  1  1
  7  5  1  0
  7  8  2  0
 10  9  1  0
 11 12  1  1
 11 10  1  0
 13 14  1  6
 13 11  1  0
 14  7  1  0
 15 13  1  0
 16 15  2  0
 17 15  1  0
 18 17  1  0
 18 19  1  1
 20 19  1  0
 21 18  1  0
 21 23  1  0
 22 21  2  0
M  END
$$$$
