NIC.pdb
     RDKit          3D

 23 22  0  0  1  0  0  0  0  0999 V2000
   29.2511  -18.7165  -16.6012 N   0  0  0  0  0  0  0  0  0  0  0  0
   27.8908  -18.3889  -16.6971 C   0  0  0  0  0  0  0  0  0  0  0  0
   27.5097  -17.4432  -17.4459 O   0  0  0  0  0  0  0  0  0  0  0  0
   26.8881  -19.1479  -15.9215 C   0  0  0  0  0  0  0  0  0  0  0  0
   27.6170  -20.2738  -15.1654 C   0  0  2  0  0  0  0  0  0  0  0  0
   27.9932  -21.2772  -16.1738 N   0  0  0  0  0  0  0  0  0  0  0  0
   26.5980  -20.8813  -14.2935 C   0  0  0  0  0  0  0  0  0  0  0  0
   25.9120  -21.8517  -14.6910 O   0  0  0  0  0  0  0  0  0  0  0  0
   25.3997  -21.1679   -8.3320 C   0  0  0  0  0  0  0  0  0  0  0  0
   24.8103  -21.4458   -9.7029 C   0  0  0  0  0  0  0  0  0  0  0  0
   25.7380  -20.8214  -10.7097 C   0  0  2  0  0  0  0  0  0  0  0  0
   25.9515  -19.3452  -10.4459 C   0  0  0  0  0  0  0  0  0  0  0  0
   25.3191  -21.0295  -12.1305 C   0  0  2  0  0  0  0  0  0  0  0  0
   26.3274  -20.4218  -12.9731 N   0  0  0  0  0  0  0  0  0  0  0  0
   24.0138  -20.5017  -12.4808 C   0  0  0  0  0  0  0  0  0  0  0  0
   23.6929  -19.2872  -12.3830 O   0  0  0  0  0  0  0  0  0  0  0  0
   23.0140  -21.3768  -12.9670 N   0  0  0  0  0  0  0  0  0  0  0  0
   21.7096  -20.8615  -13.3994 C   0  0  1  0  0  0  0  0  0  0  0  0
   21.3989  -21.2602  -14.8297 C   0  0  0  0  0  0  0  0  0  0  0  0
   22.6968  -20.6362  -15.9347 S   0  0  0  0  0  0  0  0  0  0  0  0
   20.6374  -21.1980  -12.4555 C   0  0  0  0  0  0  0  0  0  0  0  0
   20.8480  -22.0538  -11.5674 O   0  0  0  0  0  0  0  0  0  0  0  0
   19.3892  -20.6071  -12.5019 O   0  0  0  0  0  0  0  0  0  0  0  0
  2  1  1  0
  3  2  2  0
  4  2  1  0
  4  5  1  0
  5  6  1  6
  7  5  1  0
  7  8  2  0
 10  9  1  0
 11 12  1  1
 11 10  1  0
 13 14  1  6
 13 11  1  0
 14  7  1  0
 15 13  1  0
 16 15  2  0
 17 15  1  0
 18 17  1  0
 18 19  1  6
 20 19  1  0
 21 18  1  0
 21 23  1  0
 22 21  2  0
M  END
$$$$
