NIC.pdb
     RDKit          3D

 23 22  0  0  1  0  0  0  0  0999 V2000
   29.1718  -19.0862  -16.4569 N   0  0  0  0  0  0  0  0  0  0  0  0
   27.8320  -18.7488  -16.6980 C   0  0  0  0  0  0  0  0  0  0  0  0
   27.5389  -17.8297  -17.5162 O   0  0  0  0  0  0  0  0  0  0  0  0
   26.7480  -19.4664  -15.9957 C   0  0  0  0  0  0  0  0  0  0  0  0
   27.3869  -20.3932  -14.9452 C   0  0  2  0  0  0  0  0  0  0  0  0
   27.9911  -21.5106  -15.6878 N   0  0  0  0  0  0  0  0  0  0  0  0
   26.2609  -20.9350  -14.1668 C   0  0  0  0  0  0  0  0  0  0  0  0
   25.6033  -21.9143  -14.5895 O   0  0  0  0  0  0  0  0  0  0  0  0
   26.4166  -20.6277   -8.7904 C   0  0  0  0  0  0  0  0  0  0  0  0
   26.2350  -21.2018  -10.1838 C   0  0  0  0  0  0  0  0  0  0  0  0
   24.9550  -20.6271  -10.7274 C   0  0  2  0  0  0  0  0  0  0  0  0
   23.7509  -21.0523   -9.9128 C   0  0  0  0  0  0  0  0  0  0  0  0
   24.7226  -20.9265  -12.1744 C   0  0  2  0  0  0  0  0  0  0  0  0
   25.8508  -20.3992  -12.9127 N   0  0  0  0  0  0  0  0  0  0  0  0
   23.4909  -20.3995  -12.7316 C   0  0  0  0  0  0  0  0  0  0  0  0
   23.2138  -19.1722  -12.7988 O   0  0  0  0  0  0  0  0  0  0  0  0
   22.5175  -21.2905  -13.2416 N   0  0  0  0  0  0  0  0  0  0  0  0
   21.2823  -20.7851  -13.8522 C   0  0  1  0  0  0  0  0  0  0  0  0
   21.1018  -21.3119  -15.2633 C   0  0  0  0  0  0  0  0  0  0  0  0
   22.1157  -20.3405  -16.4136 S   0  0  0  0  0  0  0  0  0  0  0  0
   20.1097  -21.0002  -12.9962 C   0  0  0  0  0  0  0  0  0  0  0  0
   20.0286  -22.0492  -12.3191 O   0  0  0  0  0  0  0  0  0  0  0  0
   19.0768  -20.0874  -12.9018 O   0  0  0  0  0  0  0  0  0  0  0  0
  2  1  1  0
  3  2  2  0
  4  2  1  0
  4  5  1  0
  5  6  1  6
  7  5  1  0
  7  8  2  0
 10  9  1  0
 11 12  1  1
 11 10  1  0
 13 14  1  6
 13 11  1  0
 14  7  1  0
 15 13  1  0
 16 15  2  0
 17 15  1  0
 18 17  1  0
 18 19  1  6
 20 19  1  0
 21 18  1  0
 21 23  1  0
 22 21  2  0
M  END
$$$$
