NIC.pdb
     RDKit          3D

 23 22  0  0  1  0  0  0  0  0999 V2000
   20.3773  -14.4669  -20.1281 N   0  0  0  0  0  0  0  0  0  0  0  0
   20.8234  -14.8452  -18.8535 C   0  0  0  0  0  0  0  0  0  0  0  0
   20.9094  -16.0679  -18.5403 O   0  0  0  0  0  0  0  0  0  0  0  0
   21.1979  -13.8155  -17.8623 C   0  0  0  0  0  0  0  0  0  0  0  0
   22.6569  -14.0646  -17.4381 C   0  0  2  0  0  0  0  0  0  0  0  0
   22.6407  -15.2505  -16.5670 N   0  0  0  0  0  0  0  0  0  0  0  0
   23.0240  -12.9073  -16.6055 C   0  0  0  0  0  0  0  0  0  0  0  0
   22.4505  -12.6989  -15.5110 O   0  0  0  0  0  0  0  0  0  0  0  0
   27.9814  -11.9605  -15.5454 C   0  0  0  0  0  0  0  0  0  0  0  0
   26.4725  -12.0894  -15.4422 C   0  0  0  0  0  0  0  0  0  0  0  0
   25.8876  -10.8344  -16.0314 C   0  0  2  0  0  0  0  0  0  0  0  0
   26.3416   -9.5941  -15.2899 C   0  0  0  0  0  0  0  0  0  0  0  0
   24.3952  -10.8503  -16.1316 C   0  0  2  0  0  0  0  0  0  0  0  0
   24.0293  -11.9688  -16.9748 N   0  0  0  0  0  0  0  0  0  0  0  0
   23.7907   -9.6368  -16.6484 C   0  0  0  0  0  0  0  0  0  0  0  0
   24.0360   -9.1539  -17.7860 O   0  0  0  0  0  0  0  0  0  0  0  0
   22.8622   -8.9252  -15.8526 N   0  0  0  0  0  0  0  0  0  0  0  0
   22.2008   -7.7198  -16.3657 C   0  0  1  0  0  0  0  0  0  0  0  0
   21.0411   -8.0665  -17.2802 C   0  0  0  0  0  0  0  0  0  0  0  0
   19.9242   -9.2247  -16.4401 S   0  0  0  0  0  0  0  0  0  0  0  0
   21.8376   -6.7851  -15.2941 C   0  0  0  0  0  0  0  0  0  0  0  0
   22.0125   -7.1210  -14.1017 O   0  0  0  0  0  0  0  0  0  0  0  0
   21.3039   -5.5351  -15.5428 O   0  0  0  0  0  0  0  0  0  0  0  0
  2  1  1  0
  3  2  2  0
  4  2  1  0
  4  5  1  0
  5  6  1  1
  7  5  1  0
  7  8  2  0
 10  9  1  0
 11 12  1  1
 11 10  1  0
 13 14  1  6
 13 11  1  0
 14  7  1  0
 15 13  1  0
 16 15  2  0
 17 15  1  0
 18 17  1  0
 18 19  1  1
 20 19  1  0
 21 18  1  0
 21 23  1  0
 22 21  2  0
M  END
$$$$
