NIC.pdb
     RDKit          3D

 23 22  0  0  1  0  0  0  0  0999 V2000
   29.0562  -17.5862  -15.9487 N   0  0  0  0  0  0  0  0  0  0  0  0
   27.7439  -17.7585  -16.4124 C   0  0  0  0  0  0  0  0  0  0  0  0
   27.2799  -17.0085  -17.3193 O   0  0  0  0  0  0  0  0  0  0  0  0
   26.8892  -18.8210  -15.8433 C   0  0  0  0  0  0  0  0  0  0  0  0
   27.7146  -19.5937  -14.7983 C   0  0  2  0  0  0  0  0  0  0  0  0
   28.6296  -20.4657  -15.5519 N   0  0  0  0  0  0  0  0  0  0  0  0
   26.7493  -20.4599  -14.1017 C   0  0  0  0  0  0  0  0  0  0  0  0
   26.4691  -21.5959  -14.5502 O   0  0  0  0  0  0  0  0  0  0  0  0
   26.5878  -20.1620   -8.7905 C   0  0  0  0  0  0  0  0  0  0  0  0
   26.5854  -20.8691  -10.1336 C   0  0  0  0  0  0  0  0  0  0  0  0
   25.2365  -20.6214  -10.7530 C   0  0  2  0  0  0  0  0  0  0  0  0
   24.1289  -21.3340  -10.0049 C   0  0  0  0  0  0  0  0  0  0  0  0
   25.1669  -20.9586  -12.2087 C   0  0  2  0  0  0  0  0  0  0  0  0
   26.0840  -20.0785  -12.9017 N   0  0  0  0  0  0  0  0  0  0  0  0
   23.8509  -20.8574  -12.8112 C   0  0  0  0  0  0  0  0  0  0  0  0
   23.2649  -19.7680  -13.0506 O   0  0  0  0  0  0  0  0  0  0  0  0
   23.1527  -22.0356  -13.1661 N   0  0  0  0  0  0  0  0  0  0  0  0
   21.8203  -21.9646  -13.7774 C   0  0  1  0  0  0  0  0  0  0  0  0
   21.4946  -23.2270  -14.5529 C   0  0  0  0  0  0  0  0  0  0  0  0
   22.8653  -23.6279  -15.6733 S   0  0  0  0  0  0  0  0  0  0  0  0
   20.7825  -21.5925  -12.8087 C   0  0  0  0  0  0  0  0  0  0  0  0
   21.0139  -21.7131  -11.5851 O   0  0  0  0  0  0  0  0  0  0  0  0
   19.5451  -21.1095  -13.1889 O   0  0  0  0  0  0  0  0  0  0  0  0
  2  1  1  0
  3  2  2  0
  4  2  1  0
  4  5  1  0
  5  6  1  6
  7  5  1  0
  7  8  2  0
 10  9  1  0
 11 12  1  1
 11 10  1  0
 13 14  1  6
 13 11  1  0
 14  7  1  0
 15 13  1  0
 16 15  2  0
 17 15  1  0
 18 17  1  0
 18 19  1  1
 20 19  1  0
 21 18  1  0
 21 23  1  0
 22 21  2  0
M  END
$$$$
