NIC.pdb
     RDKit          3D

 23 22  0  0  1  0  0  0  0  0999 V2000
   24.3427  -13.1883  -17.2224 N   0  0  0  0  0  0  0  0  0  0  0  0
   23.2402  -12.8224  -16.4367 C   0  0  0  0  0  0  0  0  0  0  0  0
   22.8580  -13.5610  -15.4834 O   0  0  0  0  0  0  0  0  0  0  0  0
   22.5131  -11.5670  -16.7168 C   0  0  0  0  0  0  0  0  0  0  0  0
   21.0210  -11.9043  -16.8912 C   0  0  2  0  0  0  0  0  0  0  0  0
   20.8875  -12.5304  -18.2161 N   0  0  0  0  0  0  0  0  0  0  0  0
   20.3308  -10.6049  -16.9428 C   0  0  0  0  0  0  0  0  0  0  0  0
   20.4678   -9.8465  -17.9308 O   0  0  0  0  0  0  0  0  0  0  0  0
   15.5231  -10.4299  -16.5067 C   0  0  0  0  0  0  0  0  0  0  0  0
   16.7042   -9.6147  -17.0013 C   0  0  0  0  0  0  0  0  0  0  0  0
   17.3774   -9.0418  -15.7836 C   0  0  2  0  0  0  0  0  0  0  0  0
   16.7197   -7.7575  -15.3228 C   0  0  0  0  0  0  0  0  0  0  0  0
   18.8490   -8.8299  -15.9480 C   0  0  2  0  0  0  0  0  0  0  0  0
   19.4819  -10.1311  -15.9022 N   0  0  0  0  0  0  0  0  0  0  0  0
   19.4677   -7.9562  -14.9687 C   0  0  0  0  0  0  0  0  0  0  0  0
   19.3309   -8.0823  -13.7225 O   0  0  0  0  0  0  0  0  0  0  0  0
   20.2834   -6.8855  -15.4043 N   0  0  0  0  0  0  0  0  0  0  0  0
   20.7746   -5.8801  -14.4547 C   0  0  1  0  0  0  0  0  0  0  0  0
   22.2207   -5.5131  -14.7295 C   0  0  0  0  0  0  0  0  0  0  0  0
   22.7207   -4.1437  -13.6481 S   0  0  0  0  0  0  0  0  0  0  0  0
   19.8853   -4.7159  -14.3669 C   0  0  0  0  0  0  0  0  0  0  0  0
   19.6195   -4.2302  -13.2449 O   0  0  0  0  0  0  0  0  0  0  0  0
   19.3196   -4.1230  -15.4793 O   0  0  0  0  0  0  0  0  0  0  0  0
  2  1  1  0
  3  2  2  0
  4  2  1  0
  4  5  1  0
  5  6  1  6
  7  5  1  0
  7  8  2  0
 10  9  1  0
 11 12  1  6
 11 10  1  0
 13 14  1  1
 13 11  1  0
 14  7  1  0
 15 13  1  0
 16 15  2  0
 17 15  1  0
 18 17  1  0
 18 19  1  6
 20 19  1  0
 21 18  1  0
 21 23  1  0
 22 21  2  0
M  END
$$$$
