NIC.pdb
     RDKit          3D

 23 22  0  0  1  0  0  0  0  0999 V2000
   28.3205  -19.1136  -18.7745 N   0  0  0  0  0  0  0  0  0  0  0  0
   28.1836  -18.9332  -17.3904 C   0  0  0  0  0  0  0  0  0  0  0  0
   28.8929  -18.0814  -16.7809 O   0  0  0  0  0  0  0  0  0  0  0  0
   27.2064  -19.7395  -16.6300 C   0  0  0  0  0  0  0  0  0  0  0  0
   27.9843  -20.6536  -15.6656 C   0  0  2  0  0  0  0  0  0  0  0  0
   28.4032  -21.8261  -16.4499 N   0  0  0  0  0  0  0  0  0  0  0  0
   26.9935  -21.1114  -14.6777 C   0  0  0  0  0  0  0  0  0  0  0  0
   26.1190  -21.9523  -14.9910 O   0  0  0  0  0  0  0  0  0  0  0  0
   28.4354  -21.2679   -9.4884 C   0  0  0  0  0  0  0  0  0  0  0  0
   27.8830  -21.6769  -10.8417 C   0  0  0  0  0  0  0  0  0  0  0  0
   26.5735  -20.9557  -11.0128 C   0  0  2  0  0  0  0  0  0  0  0  0
   25.5621  -21.3582   -9.9596 C   0  0  0  0  0  0  0  0  0  0  0  0
   25.9749  -21.1015  -12.3759 C   0  0  2  0  0  0  0  0  0  0  0  0
   26.9600  -20.6438  -13.3330 N   0  0  0  0  0  0  0  0  0  0  0  0
   24.7271  -20.3925  -12.5894 C   0  0  0  0  0  0  0  0  0  0  0  0
   24.5768  -19.1551  -12.4057 O   0  0  0  0  0  0  0  0  0  0  0  0
   23.5868  -21.1032  -13.0326 N   0  0  0  0  0  0  0  0  0  0  0  0
   22.3053  -20.4172  -13.2349 C   0  0  1  0  0  0  0  0  0  0  0  0
   21.9294  -20.3599  -14.7035 C   0  0  0  0  0  0  0  0  0  0  0  0
   22.1635  -21.9934  -15.4594 S   0  0  0  0  0  0  0  0  0  0  0  0
   21.2418  -20.9617  -12.3828 C   0  0  0  0  0  0  0  0  0  0  0  0
   21.4372  -22.0332  -11.7670 O   0  0  0  0  0  0  0  0  0  0  0  0
   20.0181  -20.3393  -12.2265 O   0  0  0  0  0  0  0  0  0  0  0  0
  2  1  1  0
  3  2  2  0
  4  2  1  0
  4  5  1  0
  5  6  1  6
  7  5  1  0
  7  8  2  0
 10  9  1  0
 11 12  1  1
 11 10  1  0
 13 14  1  6
 13 11  1  0
 14  7  1  0
 15 13  1  0
 16 15  2  0
 17 15  1  0
 18 17  1  0
 18 19  1  6
 20 19  1  0
 21 18  1  0
 21 23  1  0
 22 21  2  0
M  END
$$$$
