NIC.pdb
     RDKit          3D

 23 22  0  0  1  0  0  0  0  0999 V2000
   17.4848  -12.5413  -21.0505 N   0  0  0  0  0  0  0  0  0  0  0  0
   18.6329  -11.8780  -20.5936 C   0  0  0  0  0  0  0  0  0  0  0  0
   19.6695  -11.8174  -21.3161 O   0  0  0  0  0  0  0  0  0  0  0  0
   18.6414  -11.2424  -19.2598 C   0  0  0  0  0  0  0  0  0  0  0  0
   19.8094  -11.8367  -18.4515 C   0  0  2  0  0  0  0  0  0  0  0  0
   19.3796  -13.1769  -18.0223 N   0  0  0  0  0  0  0  0  0  0  0  0
   19.9164  -10.9978  -17.2464 C   0  0  0  0  0  0  0  0  0  0  0  0
   19.0402  -11.0480  -16.3521 O   0  0  0  0  0  0  0  0  0  0  0  0
   24.1055  -10.8707  -14.3127 C   0  0  0  0  0  0  0  0  0  0  0  0
   22.6629  -10.8292  -14.7829 C   0  0  0  0  0  0  0  0  0  0  0  0
   22.3897   -9.4165  -15.2234 C   0  0  2  0  0  0  0  0  0  0  0  0
   22.5675   -8.4248  -14.0925 C   0  0  0  0  0  0  0  0  0  0  0  0
   21.0490   -9.2286  -15.8596 C   0  0  2  0  0  0  0  0  0  0  0  0
   20.9938  -10.0950  -17.0182 N   0  0  0  0  0  0  0  0  0  0  0  0
   20.7303   -7.8698  -16.2560 C   0  0  0  0  0  0  0  0  0  0  0  0
   21.3622   -7.2228  -17.1334 O   0  0  0  0  0  0  0  0  0  0  0  0
   19.6480   -7.1981  -15.6405 N   0  0  0  0  0  0  0  0  0  0  0  0
   19.2246   -5.8717  -16.1045 C   0  0  1  0  0  0  0  0  0  0  0  0
   18.8232   -5.8946  -17.5673 C   0  0  0  0  0  0  0  0  0  0  0  0
   18.3024   -4.2347  -18.0851 S   0  0  0  0  0  0  0  0  0  0  0  0
   18.2073   -5.2749  -15.2312 C   0  0  0  0  0  0  0  0  0  0  0  0
   17.3955   -6.0190  -14.6374 O   0  0  0  0  0  0  0  0  0  0  0  0
   18.1016   -3.9118  -15.0312 O   0  0  0  0  0  0  0  0  0  0  0  0
  2  1  1  0
  3  2  2  0
  4  2  1  0
  4  5  1  0
  5  6  1  1
  7  5  1  0
  7  8  2  0
 10  9  1  0
 11 12  1  1
 11 10  1  0
 13 14  1  6
 13 11  1  0
 14  7  1  0
 15 13  1  0
 16 15  2  0
 17 15  1  0
 18 17  1  0
 18 19  1  6
 20 19  1  0
 21 18  1  0
 21 23  1  0
 22 21  2  0
M  END
$$$$
