NIC.pdb
     RDKit          3D

 23 22  0  0  1  0  0  0  0  0999 V2000
   28.8041  -19.4947  -18.2840 N   0  0  0  0  0  0  0  0  0  0  0  0
   28.2526  -19.0583  -17.0707 C   0  0  0  0  0  0  0  0  0  0  0  0
   28.7178  -18.0387  -16.4840 O   0  0  0  0  0  0  0  0  0  0  0  0
   27.1197  -19.7885  -16.4652 C   0  0  0  0  0  0  0  0  0  0  0  0
   27.6514  -20.5885  -15.2619 C   0  0  2  0  0  0  0  0  0  0  0  0
   28.3190  -21.7777  -15.8146 N   0  0  0  0  0  0  0  0  0  0  0  0
   26.4540  -21.0475  -14.5389 C   0  0  0  0  0  0  0  0  0  0  0  0
   25.7488  -21.9776  -14.9947 O   0  0  0  0  0  0  0  0  0  0  0  0
   26.4613  -20.5343   -9.1381 C   0  0  0  0  0  0  0  0  0  0  0  0
   26.3304  -21.1748  -10.5081 C   0  0  0  0  0  0  0  0  0  0  0  0
   25.0802  -20.6157  -11.1316 C   0  0  2  0  0  0  0  0  0  0  0  0
   23.8413  -20.9710  -10.3359 C   0  0  0  0  0  0  0  0  0  0  0  0
   24.8931  -21.0014  -12.5647 C   0  0  2  0  0  0  0  0  0  0  0  0
   26.0244  -20.4827  -13.3043 N   0  0  0  0  0  0  0  0  0  0  0  0
   23.6616  -20.5425  -13.1796 C   0  0  0  0  0  0  0  0  0  0  0  0
   23.3699  -19.3298  -13.3584 O   0  0  0  0  0  0  0  0  0  0  0  0
   22.7055  -21.4883  -13.6190 N   0  0  0  0  0  0  0  0  0  0  0  0
   21.4343  -21.0534  -14.2094 C   0  0  1  0  0  0  0  0  0  0  0  0
   21.2564  -21.5985  -15.6139 C   0  0  0  0  0  0  0  0  0  0  0  0
   19.6213  -21.1316  -16.2490 S   0  0  0  0  0  0  0  0  0  0  0  0
   20.2906  -21.3247  -13.3306 C   0  0  0  0  0  0  0  0  0  0  0  0
   20.2921  -22.3562  -12.6225 O   0  0  0  0  0  0  0  0  0  0  0  0
   19.1971  -20.4841  -13.2474 O   0  0  0  0  0  0  0  0  0  0  0  0
  2  1  1  0
  3  2  2  0
  4  2  1  0
  4  5  1  0
  5  6  1  6
  7  5  1  0
  7  8  2  0
 10  9  1  0
 11 12  1  1
 11 10  1  0
 13 14  1  6
 13 11  1  0
 14  7  1  0
 15 13  1  0
 16 15  2  0
 17 15  1  0
 18 17  1  0
 18 19  1  6
 20 19  1  0
 21 18  1  0
 21 23  1  0
 22 21  2  0
M  END
$$$$
