NIC.pdb
     RDKit          3D

 23 22  0  0  1  0  0  0  0  0999 V2000
   21.9704  -21.1388  -18.9184 N   0  0  0  0  0  0  0  0  0  0  0  0
   21.5024  -19.9846  -19.5631 C   0  0  0  0  0  0  0  0  0  0  0  0
   20.9869  -20.0576  -20.7160 O   0  0  0  0  0  0  0  0  0  0  0  0
   21.6079  -18.6690  -18.8988 C   0  0  0  0  0  0  0  0  0  0  0  0
   22.2680  -18.8766  -17.5234 C   0  0  2  0  0  0  0  0  0  0  0  0
   21.2348  -19.4524  -16.6480 N   0  0  0  0  0  0  0  0  0  0  0  0
   22.5673  -17.5236  -17.0262 C   0  0  0  0  0  0  0  0  0  0  0  0
   21.7060  -16.8695  -16.3933 O   0  0  0  0  0  0  0  0  0  0  0  0
   27.3875  -16.8883  -15.1576 C   0  0  0  0  0  0  0  0  0  0  0  0
   25.8758  -16.8086  -15.2686 C   0  0  0  0  0  0  0  0  0  0  0  0
   25.5672  -15.6544  -16.1834 C   0  0  2  0  0  0  0  0  0  0  0  0
   25.9699  -14.3261  -15.5770 C   0  0  0  0  0  0  0  0  0  0  0  0
   24.1405  -15.5991  -16.6293 C   0  0  2  0  0  0  0  0  0  0  0  0
   23.8222  -16.8803  -17.2237 N   0  0  0  0  0  0  0  0  0  0  0  0
   23.8190  -14.5383  -17.5655 C   0  0  0  0  0  0  0  0  0  0  0  0
   24.4670  -14.3066  -18.6210 O   0  0  0  0  0  0  0  0  0  0  0  0
   22.7147  -13.6917  -17.3097 N   0  0  0  0  0  0  0  0  0  0  0  0
   22.3855  -12.5895  -18.2211 C   0  0  1  0  0  0  0  0  0  0  0  0
   21.0345  -12.7950  -18.8797 C   0  0  0  0  0  0  0  0  0  0  0  0
   19.8291  -13.3529  -17.6425 S   0  0  0  0  0  0  0  0  0  0  0  0
   22.5271  -11.2766  -17.5807 C   0  0  0  0  0  0  0  0  0  0  0  0
   22.6298  -11.2091  -16.3356 O   0  0  0  0  0  0  0  0  0  0  0  0
   22.5520  -10.0953  -18.2971 O   0  0  0  0  0  0  0  0  0  0  0  0
  2  1  1  0
  3  2  2  0
  4  2  1  0
  4  5  1  0
  5  6  1  1
  7  5  1  0
  7  8  2  0
 10  9  1  0
 11 12  1  1
 11 10  1  0
 13 14  1  6
 13 11  1  0
 14  7  1  0
 15 13  1  0
 16 15  2  0
 17 15  1  0
 18 17  1  0
 18 19  1  1
 20 19  1  0
 21 18  1  0
 21 23  1  0
 22 21  2  0
M  END
$$$$
