YSN.pdb
     RDKit          3D

 27 27  0  0  1  0  0  0  0  0999 V2000
    6.0412  -10.6327   28.2299 O   0  0  0  0  0  0  0  0  0  0  0  0
    6.5436  -11.6431   27.4286 C   0  0  0  0  0  0  0  0  0  0  0  0
    5.8854  -12.1354   26.3243 C   0  0  0  0  0  0  0  0  0  0  0  0
    6.4243  -13.1431   25.5548 C   0  0  0  0  0  0  0  0  0  0  0  0
    7.6434  -13.6895   25.8701 C   0  0  0  0  0  0  0  0  0  0  0  0
    8.2017  -14.7652   25.0375 C   0  0  0  0  0  0  0  0  0  0  0  0
    7.1320  -15.8217   24.7351 C   0  0  2  0  0  0  0  0  0  0  0  0
    6.9207  -16.5551   25.9418 N   0  0  0  0  0  0  0  0  0  0  0  0
    7.7265  -16.6851   23.6573 C   0  0  0  0  0  0  0  0  0  0  0  0
    8.0986  -17.8677   23.8627 O   0  0  0  0  0  0  0  0  0  0  0  0
    8.3185  -13.2173   26.9639 C   0  0  0  0  0  0  0  0  0  0  0  0
    7.7619  -12.2089   27.7204 C   0  0  0  0  0  0  0  0  0  0  0  0
    8.4580  -15.0779   19.7677 O   0  0  0  0  0  0  0  0  0  0  0  0
    8.1071  -16.4055   19.8959 C   0  0  0  0  0  0  0  0  0  0  0  0
    8.4353  -16.9830   21.2504 C   0  0  2  0  0  0  0  0  0  0  0  0
    7.8958  -16.1874   22.3317 N   0  0  0  0  0  0  0  0  0  0  0  0
    9.8988  -17.2057   21.4184 C   0  0  0  0  0  0  0  0  0  0  0  0
   10.5489  -18.0266   20.6972 O   0  0  0  0  0  0  0  0  0  0  0  0
   14.0627  -16.6019   20.1721 N   0  0  0  0  0  0  0  0  0  0  0  0
   13.2544  -15.5671   20.7450 C   0  0  0  0  0  0  0  0  0  0  0  0
   12.9375  -14.6321   19.9785 O   0  0  0  0  0  0  0  0  0  0  0  0
   12.8194  -15.5884   22.1376 C   0  0  0  0  0  0  0  0  0  0  0  0
   12.0789  -16.8197   22.5818 C   0  0  2  0  0  0  0  0  0  0  0  0
   10.6548  -16.5109   22.3973 N   0  0  0  0  0  0  0  0  0  0  0  0
   12.2952  -17.1093   24.0007 C   0  0  0  0  0  0  0  0  0  0  0  0
   13.4561  -17.4465   24.3890 O   0  0  0  0  0  0  0  0  0  0  0  0
   11.3344  -17.0475   24.9787 O   0  0  0  0  0  0  0  0  0  0  0  0
  2  1  1  0
  2 12  2  0
  3  2  1  0
  4  3  2  0
  4  5  1  0
  5 11  2  0
  6  5  1  0
  7  6  1  0
  7  9  1  0
  7  8  1  1
  9 16  1  0
  9 10  2  0
 11 12  1  0
 13 14  1  0
 15 14  1  6
 15 17  1  0
 16 15  1  0
 17 18  2  0
 19 20  1  0
 20 21  2  0
 20 22  1  0
 23 22  1  1
 23 25  1  0
 24 17  1  0
 24 23  1  0
 25 26  2  0
 25 27  1  0
M  END
$$$$
