YSN.pdb
     RDKit          3D

 27 27  0  0  1  0  0  0  0  0999 V2000
    6.6606  -13.1251   15.9061 O   0  0  0  0  0  0  0  0  0  0  0  0
    7.1495  -13.5740   17.1206 C   0  0  0  0  0  0  0  0  0  0  0  0
    7.7559  -14.7982   17.2899 C   0  0  0  0  0  0  0  0  0  0  0  0
    8.2282  -15.2040   18.5188 C   0  0  0  0  0  0  0  0  0  0  0  0
    8.1066  -14.3920   19.6189 C   0  0  0  0  0  0  0  0  0  0  0  0
    8.6157  -14.8431   20.9225 C   0  0  0  0  0  0  0  0  0  0  0  0
    8.0776  -16.2398   21.2561 C   0  0  2  0  0  0  0  0  0  0  0  0
    6.7430  -16.0670   21.7334 N   0  0  0  0  0  0  0  0  0  0  0  0
    8.9881  -16.7648   22.3313 C   0  0  0  0  0  0  0  0  0  0  0  0
    9.1209  -16.1982   23.4451 O   0  0  0  0  0  0  0  0  0  0  0  0
    7.5070  -13.1690   19.4770 C   0  0  0  0  0  0  0  0  0  0  0  0
    7.0414  -12.7822   18.2390 C   0  0  0  0  0  0  0  0  0  0  0  0
   10.6775  -20.5917   21.9692 O   0  0  0  0  0  0  0  0  0  0  0  0
   10.6733  -19.9600   23.1952 C   0  0  0  0  0  0  0  0  0  0  0  0
   10.7046  -18.4552   23.0932 C   0  0  2  0  0  0  0  0  0  0  0  0
    9.7533  -17.9506   22.1269 N   0  0  0  0  0  0  0  0  0  0  0  0
   12.0779  -17.9465   22.8192 C   0  0  0  0  0  0  0  0  0  0  0  0
   12.4386  -17.5496   21.6664 O   0  0  0  0  0  0  0  0  0  0  0  0
   15.0603  -14.6623   21.1625 N   0  0  0  0  0  0  0  0  0  0  0  0
   15.2511  -15.2200   22.4682 C   0  0  0  0  0  0  0  0  0  0  0  0
   16.3991  -15.1072   22.9494 O   0  0  0  0  0  0  0  0  0  0  0  0
   14.1803  -15.8830   23.2048 C   0  0  0  0  0  0  0  0  0  0  0  0
   14.3980  -17.3359   23.5264 C   0  0  2  0  0  0  0  0  0  0  0  0
   13.0667  -17.8750   23.8340 N   0  0  0  0  0  0  0  0  0  0  0  0
   15.2400  -17.5167   24.7105 C   0  0  0  0  0  0  0  0  0  0  0  0
   16.2904  -18.2235   24.6153 O   0  0  0  0  0  0  0  0  0  0  0  0
   14.9946  -16.9777   25.9486 O   0  0  0  0  0  0  0  0  0  0  0  0
  2  1  1  0
  2 12  2  0
  3  2  1  0
  4  3  2  0
  4  5  1  0
  5 11  2  0
  6  5  1  0
  7  6  1  0
  7  9  1  0
  7  8  1  1
  9 16  1  0
  9 10  2  0
 11 12  1  0
 13 14  1  0
 15 14  1  6
 15 17  1  0
 16 15  1  0
 17 18  2  0
 19 20  1  0
 20 21  2  0
 20 22  1  0
 23 22  1  1
 23 25  1  0
 24 17  1  0
 24 23  1  0
 25 26  2  0
 25 27  1  0
M  END
$$$$
