YSN.pdb
     RDKit          3D

 27 27  0  0  1  0  0  0  0  0999 V2000
    7.9360  -12.4221   17.2652 O   0  0  0  0  0  0  0  0  0  0  0  0
    7.8563  -13.0520   18.4950 C   0  0  0  0  0  0  0  0  0  0  0  0
    7.8750  -14.4195   18.6509 C   0  0  0  0  0  0  0  0  0  0  0  0
    7.7932  -15.0035   19.8961 C   0  0  0  0  0  0  0  0  0  0  0  0
    7.6899  -14.2314   21.0263 C   0  0  0  0  0  0  0  0  0  0  0  0
    7.6023  -14.8730   22.3464 C   0  0  0  0  0  0  0  0  0  0  0  0
    7.6296  -16.3998   22.2055 C   0  0  2  0  0  0  0  0  0  0  0  0
    6.2715  -16.8331   22.1239 N   0  0  0  0  0  0  0  0  0  0  0  0
    8.2972  -16.8978   23.4573 C   0  0  0  0  0  0  0  0  0  0  0  0
    7.7130  -16.9358   24.5692 O   0  0  0  0  0  0  0  0  0  0  0  0
    7.6692  -12.8681   20.8982 C   0  0  0  0  0  0  0  0  0  0  0  0
    7.7521  -12.3042   19.6436 C   0  0  0  0  0  0  0  0  0  0  0  0
   12.5370  -17.7728   23.6456 O   0  0  0  0  0  0  0  0  0  0  0  0
   11.6051  -18.6011   24.2351 C   0  0  0  0  0  0  0  0  0  0  0  0
   10.3205  -17.8964   24.5945 C   0  0  2  0  0  0  0  0  0  0  0  0
    9.6472  -17.3564   23.4333 N   0  0  0  0  0  0  0  0  0  0  0  0
   10.5341  -16.8499   25.6333 C   0  0  0  0  0  0  0  0  0  0  0  0
   10.9430  -15.6807   25.3466 O   0  0  0  0  0  0  0  0  0  0  0  0
   10.9024  -13.2782   27.4785 N   0  0  0  0  0  0  0  0  0  0  0  0
    9.6651  -13.8370   27.9360 C   0  0  0  0  0  0  0  0  0  0  0  0
    8.7088  -13.0388   28.0393 O   0  0  0  0  0  0  0  0  0  0  0  0
    9.5141  -15.2502   28.2658 C   0  0  0  0  0  0  0  0  0  0  0  0
   10.7155  -16.1205   28.0187 C   0  0  2  0  0  0  0  0  0  0  0  0
   10.2919  -17.0992   27.0087 N   0  0  0  0  0  0  0  0  0  0  0  0
   11.1159  -16.8583   29.2184 C   0  0  0  0  0  0  0  0  0  0  0  0
   11.8872  -16.2968   30.0562 O   0  0  0  0  0  0  0  0  0  0  0  0
   10.7238  -18.1355   29.5324 O   0  0  0  0  0  0  0  0  0  0  0  0
  2  1  1  0
  2 12  2  0
  3  2  1  0
  4  3  2  0
  4  5  1  0
  5 11  2  0
  6  5  1  0
  7  6  1  0
  7  9  1  0
  7  8  1  1
  9 16  1  0
  9 10  2  0
 11 12  1  0
 13 14  1  0
 15 14  1  6
 15 17  1  0
 16 15  1  0
 17 18  2  0
 19 20  1  0
 20 21  2  0
 20 22  1  0
 23 22  1  1
 23 25  1  0
 24 17  1  0
 24 23  1  0
 25 26  2  0
 25 27  1  0
M  END
$$$$
