YSN.pdb
     RDKit          3D

 27 27  0  0  1  0  0  0  0  0999 V2000
   14.5749  -21.4723   12.4559 O   0  0  0  0  0  0  0  0  0  0  0  0
   14.4158  -20.6723   13.5741 C   0  0  0  0  0  0  0  0  0  0  0  0
   13.5448  -20.9641   14.5994 C   0  0  0  0  0  0  0  0  0  0  0  0
   13.4193  -20.1379   15.6946 C   0  0  0  0  0  0  0  0  0  0  0  0
   14.1657  -18.9904   15.7955 C   0  0  0  0  0  0  0  0  0  0  0  0
   14.0169  -18.1204   16.9715 C   0  0  0  0  0  0  0  0  0  0  0  0
   12.6478  -17.4297   16.9600 C   0  0  2  0  0  0  0  0  0  0  0  0
   12.6773  -16.4682   15.9048 N   0  0  0  0  0  0  0  0  0  0  0  0
   12.5283  -16.7723   18.3069 C   0  0  0  0  0  0  0  0  0  0  0  0
   13.2671  -15.8215   18.6664 O   0  0  0  0  0  0  0  0  0  0  0  0
   15.0397  -18.6774   14.7887 C   0  0  0  0  0  0  0  0  0  0  0  0
   15.1500  -19.5173   13.7018 C   0  0  0  0  0  0  0  0  0  0  0  0
    9.1596  -17.5172   20.8317 O   0  0  0  0  0  0  0  0  0  0  0  0
    9.9160  -16.3647   20.8730 C   0  0  0  0  0  0  0  0  0  0  0  0
   11.3711  -16.5919   20.5458 C   0  0  2  0  0  0  0  0  0  0  0  0
   11.5524  -17.2098   19.2502 N   0  0  0  0  0  0  0  0  0  0  0  0
   12.0664  -17.3611   21.6158 C   0  0  0  0  0  0  0  0  0  0  0  0
   12.1480  -18.6298   21.5976 O   0  0  0  0  0  0  0  0  0  0  0  0
   15.5858  -15.0575   22.7643 N   0  0  0  0  0  0  0  0  0  0  0  0
   15.4561  -16.3761   23.3091 C   0  0  0  0  0  0  0  0  0  0  0  0
   16.2670  -17.2266   22.8834 O   0  0  0  0  0  0  0  0  0  0  0  0
   14.4436  -16.7215   24.3013 C   0  0  0  0  0  0  0  0  0  0  0  0
   13.2713  -17.5200   23.8017 C   0  0  2  0  0  0  0  0  0  0  0  0
   12.6807  -16.7188   22.7216 N   0  0  0  0  0  0  0  0  0  0  0  0
   12.2501  -17.7025   24.8350 C   0  0  0  0  0  0  0  0  0  0  0  0
   12.5393  -18.3743   25.8728 O   0  0  0  0  0  0  0  0  0  0  0  0
   10.9737  -17.2003   24.7869 O   0  0  0  0  0  0  0  0  0  0  0  0
  2  1  1  0
  2 12  2  0
  3  2  1  0
  4  3  2  0
  4  5  1  0
  5 11  2  0
  6  5  1  0
  7  6  1  0
  7  9  1  0
  7  8  1  6
  9 16  1  0
  9 10  2  0
 11 12  1  0
 13 14  1  0
 15 14  1  1
 15 17  1  0
 16 15  1  0
 17 18  2  0
 19 20  1  0
 20 21  2  0
 20 22  1  0
 23 22  1  1
 23 25  1  0
 24 17  1  0
 24 23  1  0
 25 26  2  0
 25 27  1  0
M  END
$$$$
