YSN.pdb
     RDKit          3D

 27 27  0  0  1  0  0  0  0  0999 V2000
    5.8734  -10.5180   28.2523 O   0  0  0  0  0  0  0  0  0  0  0  0
    6.4661  -11.5397   27.5309 C   0  0  0  0  0  0  0  0  0  0  0  0
    7.5339  -12.2755   27.9927 C   0  0  0  0  0  0  0  0  0  0  0  0
    8.0925  -13.2848   27.2394 C   0  0  0  0  0  0  0  0  0  0  0  0
    7.5957  -13.5878   25.9962 C   0  0  0  0  0  0  0  0  0  0  0  0
    8.2061  -14.6676   25.2065 C   0  0  0  0  0  0  0  0  0  0  0  0
    7.1355  -15.6567   24.7297 C   0  0  2  0  0  0  0  0  0  0  0  0
    6.9084  -16.5710   25.8026 N   0  0  0  0  0  0  0  0  0  0  0  0
    7.7380  -16.3416   23.5345 C   0  0  0  0  0  0  0  0  0  0  0  0
    8.4327  -17.3846   23.6283 O   0  0  0  0  0  0  0  0  0  0  0  0
    6.5336  -12.8705   25.5138 C   0  0  0  0  0  0  0  0  0  0  0  0
    5.9896  -11.8651   26.2833 C   0  0  0  0  0  0  0  0  0  0  0  0
    8.2129  -16.3118   18.6330 O   0  0  0  0  0  0  0  0  0  0  0  0
    7.7228  -15.7126   19.7744 C   0  0  0  0  0  0  0  0  0  0  0  0
    8.1700  -16.3910   21.0455 C   0  0  2  0  0  0  0  0  0  0  0  0
    7.5420  -15.8254   22.2198 N   0  0  0  0  0  0  0  0  0  0  0  0
    9.6541  -16.4016   21.1759 C   0  0  0  0  0  0  0  0  0  0  0  0
   10.3147  -15.3682   21.5108 O   0  0  0  0  0  0  0  0  0  0  0  0
   11.3301  -18.0439   24.4853 N   0  0  0  0  0  0  0  0  0  0  0  0
   12.0858  -17.4687   23.4126 C   0  0  0  0  0  0  0  0  0  0  0  0
   12.5150  -16.3107   23.6047 O   0  0  0  0  0  0  0  0  0  0  0  0
   12.3471  -18.1786   22.1650 C   0  0  0  0  0  0  0  0  0  0  0  0
   11.8860  -17.4977   20.9059 C   0  0  2  0  0  0  0  0  0  0  0  0
   10.4192  -17.5713   20.9329 N   0  0  0  0  0  0  0  0  0  0  0  0
   12.3482  -18.1938   19.7036 C   0  0  0  0  0  0  0  0  0  0  0  0
   13.5942  -18.2470   19.4652 O   0  0  0  0  0  0  0  0  0  0  0  0
   11.5388  -18.8130   18.7843 O   0  0  0  0  0  0  0  0  0  0  0  0
  2  1  1  0
  2 12  2  0
  3  2  1  0
  4  3  2  0
  4  5  1  0
  5 11  2  0
  6  5  1  0
  7  6  1  0
  7  9  1  0
  7  8  1  1
  9 16  1  0
  9 10  2  0
 11 12  1  0
 13 14  1  0
 15 14  1  6
 15 17  1  0
 16 15  1  0
 17 18  2  0
 19 20  1  0
 20 21  2  0
 20 22  1  0
 23 22  1  1
 23 25  1  0
 24 17  1  0
 24 23  1  0
 25 26  2  0
 25 27  1  0
M  END
$$$$
