YSN.pdb
     RDKit          3D

 27 27  0  0  1  0  0  0  0  0999 V2000
    7.4582  -13.0200   15.8830 O   0  0  0  0  0  0  0  0  0  0  0  0
    7.8063  -13.2974   17.1935 C   0  0  0  0  0  0  0  0  0  0  0  0
    8.8543  -14.1184   17.5438 C   0  0  0  0  0  0  0  0  0  0  0  0
    9.1649  -14.3663   18.8629 C   0  0  0  0  0  0  0  0  0  0  0  0
    8.4319  -13.7967   19.8741 C   0  0  0  0  0  0  0  0  0  0  0  0
    8.7780  -14.0743   21.2759 C   0  0  0  0  0  0  0  0  0  0  0  0
    8.7961  -15.5854   21.5365 C   0  0  2  0  0  0  0  0  0  0  0  0
    7.5267  -16.0926   21.1240 N   0  0  0  0  0  0  0  0  0  0  0  0
    8.9944  -15.7256   23.0203 C   0  0  0  0  0  0  0  0  0  0  0  0
    9.9953  -15.2575   23.6188 O   0  0  0  0  0  0  0  0  0  0  0  0
    7.3841  -12.9759   19.5520 C   0  0  0  0  0  0  0  0  0  0  0  0
    7.0901  -12.7410   18.2264 C   0  0  0  0  0  0  0  0  0  0  0  0
    6.1349  -17.8584   25.4194 O   0  0  0  0  0  0  0  0  0  0  0  0
    6.9164  -16.8602   25.9624 C   0  0  0  0  0  0  0  0  0  0  0  0
    8.2242  -16.6627   25.2368 C   0  0  2  0  0  0  0  0  0  0  0  0
    8.0359  -16.4092   23.8249 N   0  0  0  0  0  0  0  0  0  0  0  0
    9.1612  -17.7986   25.4639 C   0  0  0  0  0  0  0  0  0  0  0  0
    9.2117  -18.8040   24.6872 O   0  0  0  0  0  0  0  0  0  0  0  0
   14.2710  -19.5084   27.8205 N   0  0  0  0  0  0  0  0  0  0  0  0
   13.2788  -19.6741   26.8004 C   0  0  0  0  0  0  0  0  0  0  0  0
   13.3246  -20.7471   26.1611 O   0  0  0  0  0  0  0  0  0  0  0  0
   12.2692  -18.6608   26.5127 C   0  0  0  0  0  0  0  0  0  0  0  0
   10.8484  -19.0289   26.8406 C   0  0  2  0  0  0  0  0  0  0  0  0
   10.0555  -17.8236   26.5649 N   0  0  0  0  0  0  0  0  0  0  0  0
   10.6797  -19.3630   28.2562 C   0  0  0  0  0  0  0  0  0  0  0  0
   10.2280  -18.4780   29.0467 O   0  0  0  0  0  0  0  0  0  0  0  0
   10.9710  -20.5774   28.8252 O   0  0  0  0  0  0  0  0  0  0  0  0
  2  1  1  0
  2 12  2  0
  3  2  1  0
  4  3  2  0
  4  5  1  0
  5 11  2  0
  6  5  1  0
  7  6  1  0
  7  9  1  0
  7  8  1  1
  9 16  1  0
  9 10  2  0
 11 12  1  0
 13 14  1  0
 15 14  1  6
 15 17  1  0
 16 15  1  0
 17 18  2  0
 19 20  1  0
 20 21  2  0
 20 22  1  0
 23 22  1  1
 23 25  1  0
 24 17  1  0
 24 23  1  0
 25 26  2  0
 25 27  1  0
M  END
$$$$
