YSN.pdb
     RDKit          3D

 27 27  0  0  1  0  0  0  0  0999 V2000
    8.9496  -12.8666   17.1684 O   0  0  0  0  0  0  0  0  0  0  0  0
    8.5609  -13.3956   18.3868 C   0  0  0  0  0  0  0  0  0  0  0  0
    9.3121  -14.3072   19.0938 C   0  0  0  0  0  0  0  0  0  0  0  0
    8.8853  -14.8074   20.3044 C   0  0  0  0  0  0  0  0  0  0  0  0
    7.6885  -14.4075   20.8447 C   0  0  0  0  0  0  0  0  0  0  0  0
    7.2492  -14.9536   22.1373 C   0  0  0  0  0  0  0  0  0  0  0  0
    7.0193  -16.4662   22.0322 C   0  0  2  0  0  0  0  0  0  0  0  0
    5.7614  -16.6503   21.3820 N   0  0  0  0  0  0  0  0  0  0  0  0
    6.9874  -16.9582   23.4526 C   0  0  0  0  0  0  0  0  0  0  0  0
    6.1294  -16.5723   24.2857 O   0  0  0  0  0  0  0  0  0  0  0  0
    6.9223  -13.5014   20.1611 C   0  0  0  0  0  0  0  0  0  0  0  0
    7.3675  -13.0134   18.9517 C   0  0  0  0  0  0  0  0  0  0  0  0
    9.4370  -20.2494   24.8453 O   0  0  0  0  0  0  0  0  0  0  0  0
    8.2379  -19.8445   25.3933 C   0  0  0  0  0  0  0  0  0  0  0  0
    8.0063  -18.3571   25.2935 C   0  0  2  0  0  0  0  0  0  0  0  0
    7.9486  -17.9014   23.9216 N   0  0  0  0  0  0  0  0  0  0  0  0
    9.0097  -17.5858   26.0797 C   0  0  0  0  0  0  0  0  0  0  0  0
    9.7759  -16.7237   25.5446 O   0  0  0  0  0  0  0  0  0  0  0  0
    9.8541  -13.1415   28.5526 N   0  0  0  0  0  0  0  0  0  0  0  0
   10.3562  -14.4756   28.4098 C   0  0  0  0  0  0  0  0  0  0  0  0
   11.5865  -14.5797   28.2156 O   0  0  0  0  0  0  0  0  0  0  0  0
    9.4965  -15.6522   28.4837 C   0  0  0  0  0  0  0  0  0  0  0  0
   10.1593  -16.9752   28.2154 C   0  0  2  0  0  0  0  0  0  0  0  0
    9.1683  -17.7696   27.4774 N   0  0  0  0  0  0  0  0  0  0  0  0
   10.4776  -17.6914   29.4522 C   0  0  0  0  0  0  0  0  0  0  0  0
   11.5549  -17.4128   30.0636 O   0  0  0  0  0  0  0  0  0  0  0  0
    9.6985  -18.6623   30.0300 O   0  0  0  0  0  0  0  0  0  0  0  0
  2  1  1  0
  2 12  2  0
  3  2  1  0
  4  3  2  0
  4  5  1  0
  5 11  2  0
  6  5  1  0
  7  6  1  0
  7  9  1  0
  7  8  1  1
  9 16  1  0
  9 10  2  0
 11 12  1  0
 13 14  1  0
 15 14  1  6
 15 17  1  0
 16 15  1  0
 17 18  2  0
 19 20  1  0
 20 21  2  0
 20 22  1  0
 23 22  1  1
 23 25  1  0
 24 17  1  0
 24 23  1  0
 25 26  2  0
 25 27  1  0
M  END
$$$$
