YSN.pdb
     RDKit          3D

 27 27  0  0  1  0  0  0  0  0999 V2000
    5.2994  -10.3878   27.4376 O   0  0  0  0  0  0  0  0  0  0  0  0
    6.0208  -11.4752   26.9764 C   0  0  0  0  0  0  0  0  0  0  0  0
    6.2584  -12.6035   27.7283 C   0  0  0  0  0  0  0  0  0  0  0  0
    6.9826  -13.6632   27.2275 C   0  0  0  0  0  0  0  0  0  0  0  0
    7.4921  -13.6235   25.9535 C   0  0  0  0  0  0  0  0  0  0  0  0
    8.2636  -14.7637   25.4370 C   0  0  0  0  0  0  0  0  0  0  0  0
    7.3505  -15.7278   24.6699 C   0  0  2  0  0  0  0  0  0  0  0  0
    6.7321  -16.5736   25.6400 N   0  0  0  0  0  0  0  0  0  0  0  0
    8.2683  -16.5007   23.7638 C   0  0  0  0  0  0  0  0  0  0  0  0
    8.9347  -17.4909   24.1568 O   0  0  0  0  0  0  0  0  0  0  0  0
    7.2697  -12.5121   25.1849 C   0  0  0  0  0  0  0  0  0  0  0  0
    6.5428  -11.4632   25.7049 C   0  0  0  0  0  0  0  0  0  0  0  0
    8.6021  -15.0196   20.0084 O   0  0  0  0  0  0  0  0  0  0  0  0
    9.3611  -16.1652   20.1263 C   0  0  0  0  0  0  0  0  0  0  0  0
    9.4612  -16.6734   21.5432 C   0  0  2  0  0  0  0  0  0  0  0  0
    8.4230  -16.1342   22.3944 N   0  0  0  0  0  0  0  0  0  0  0  0
   10.8139  -16.4388   22.1221 C   0  0  0  0  0  0  0  0  0  0  0  0
   11.1440  -15.3311   22.6517 O   0  0  0  0  0  0  0  0  0  0  0  0
   12.5173  -18.1910   25.7496 N   0  0  0  0  0  0  0  0  0  0  0  0
   12.6437  -18.9527   24.5428 C   0  0  0  0  0  0  0  0  0  0  0  0
   11.9992  -20.0228   24.5007 O   0  0  0  0  0  0  0  0  0  0  0  0
   13.4711  -18.5195   23.4219 C   0  0  0  0  0  0  0  0  0  0  0  0
   13.0983  -17.2058   22.7917 C   0  0  2  0  0  0  0  0  0  0  0  0
   11.8159  -17.4431   22.1160 N   0  0  0  0  0  0  0  0  0  0  0  0
   14.0689  -16.7872   21.7785 C   0  0  0  0  0  0  0  0  0  0  0  0
   15.2211  -16.4064   22.1517 O   0  0  0  0  0  0  0  0  0  0  0  0
   13.8445  -16.7682   20.4246 O   0  0  0  0  0  0  0  0  0  0  0  0
  2  1  1  0
  2 12  2  0
  3  2  1  0
  4  3  2  0
  4  5  1  0
  5 11  2  0
  6  5  1  0
  7  6  1  0
  7  9  1  0
  7  8  1  1
  9 16  1  0
  9 10  2  0
 11 12  1  0
 13 14  1  0
 15 14  1  6
 15 17  1  0
 16 15  1  0
 17 18  2  0
 19 20  1  0
 20 21  2  0
 20 22  1  0
 23 22  1  6
 23 25  1  0
 24 17  1  0
 24 23  1  0
 25 26  2  0
 25 27  1  0
M  END
$$$$
