YSN.pdb
     RDKit          3D

 27 27  0  0  1  0  0  0  0  0999 V2000
    5.3607  -12.3861   18.5132 O   0  0  0  0  0  0  0  0  0  0  0  0
    6.6307  -12.8513   18.8066 C   0  0  0  0  0  0  0  0  0  0  0  0
    7.7839  -12.2348   18.3766 C   0  0  0  0  0  0  0  0  0  0  0  0
    9.0284  -12.7340   18.6933 C   0  0  0  0  0  0  0  0  0  0  0  0
    9.1546  -13.8701   19.4532 C   0  0  0  0  0  0  0  0  0  0  0  0
   10.4913  -14.3884   19.7798 C   0  0  0  0  0  0  0  0  0  0  0  0
   10.9976  -15.3115   18.6647 C   0  0  2  0  0  0  0  0  0  0  0  0
   10.1024  -16.4224   18.6076 N   0  0  0  0  0  0  0  0  0  0  0  0
   12.3754  -15.7304   19.0970 C   0  0  0  0  0  0  0  0  0  0  0  0
   12.5764  -16.6666   19.9109 O   0  0  0  0  0  0  0  0  0  0  0  0
    8.0225  -14.5024   19.8935 C   0  0  0  0  0  0  0  0  0  0  0  0
    6.7874  -13.9867   19.5655 C   0  0  0  0  0  0  0  0  0  0  0  0
   15.9962  -13.3455   18.4286 O   0  0  0  0  0  0  0  0  0  0  0  0
   15.9231  -14.6985   18.1713 C   0  0  0  0  0  0  0  0  0  0  0  0
   14.8796  -15.4092   18.9972 C   0  0  2  0  0  0  0  0  0  0  0  0
   13.5332  -15.0692   18.5912 N   0  0  0  0  0  0  0  0  0  0  0  0
   15.0795  -15.1840   20.4563 C   0  0  0  0  0  0  0  0  0  0  0  0
   14.2203  -14.5831   21.1756 O   0  0  0  0  0  0  0  0  0  0  0  0
   14.1479  -17.6711   25.0645 N   0  0  0  0  0  0  0  0  0  0  0  0
   15.1607  -16.8445   24.4785 C   0  0  0  0  0  0  0  0  0  0  0  0
   15.9925  -16.3526   25.2713 O   0  0  0  0  0  0  0  0  0  0  0  0
   15.2305  -16.5824   23.0449 C   0  0  0  0  0  0  0  0  0  0  0  0
   16.2953  -15.6189   22.5983 C   0  0  2  0  0  0  0  0  0  0  0  0
   16.2456  -15.6297   21.1303 N   0  0  0  0  0  0  0  0  0  0  0  0
   17.6337  -16.0514   23.0052 C   0  0  0  0  0  0  0  0  0  0  0  0
   18.2313  -15.4148   23.9269 O   0  0  0  0  0  0  0  0  0  0  0  0
   18.3222  -17.1111   22.4699 O   0  0  0  0  0  0  0  0  0  0  0  0
  2  1  1  0
  2 12  2  0
  3  2  1  0
  4  3  2  0
  4  5  1  0
  5 11  2  0
  6  5  1  0
  7  6  1  0
  7  9  1  0
  7  8  1  1
  9 16  1  0
  9 10  2  0
 11 12  1  0
 13 14  1  0
 15 14  1  6
 15 17  1  0
 16 15  1  0
 17 18  2  0
 19 20  1  0
 20 21  2  0
 20 22  1  0
 23 22  1  1
 23 25  1  0
 24 17  1  0
 24 23  1  0
 25 26  2  0
 25 27  1  0
M  END
$$$$
