YSN.pdb
     RDKit          3D

 27 27  0  0  1  0  0  0  0  0999 V2000
    5.2935  -10.2610   26.6428 O   0  0  0  0  0  0  0  0  0  0  0  0
    5.9675  -11.4542   26.4489 C   0  0  0  0  0  0  0  0  0  0  0  0
    5.9566  -12.4892   27.3564 C   0  0  0  0  0  0  0  0  0  0  0  0
    6.6429  -13.6604   27.1211 C   0  0  0  0  0  0  0  0  0  0  0  0
    7.3632  -13.8299   25.9650 C   0  0  0  0  0  0  0  0  0  0  0  0
    8.0903  -15.0866   25.7322 C   0  0  0  0  0  0  0  0  0  0  0  0
    7.4556  -15.8692   24.5762 C   0  0  2  0  0  0  0  0  0  0  0  0
    6.3527  -16.5935   25.1219 N   0  0  0  0  0  0  0  0  0  0  0  0
    8.5372  -16.7912   24.0856 C   0  0  0  0  0  0  0  0  0  0  0  0
    8.8700  -17.8353   24.7007 O   0  0  0  0  0  0  0  0  0  0  0  0
    7.3901  -12.8151   25.0459 C   0  0  0  0  0  0  0  0  0  0  0  0
    6.6968  -11.6517   25.3006 C   0  0  0  0  0  0  0  0  0  0  0  0
   11.2611  -15.5799   20.9916 O   0  0  0  0  0  0  0  0  0  0  0  0
   10.8273  -16.8882   21.0410 C   0  0  0  0  0  0  0  0  0  0  0  0
   10.3558  -17.3110   22.4103 C   0  0  2  0  0  0  0  0  0  0  0  0
    9.2436  -16.5129   22.8785 N   0  0  0  0  0  0  0  0  0  0  0  0
   11.4690  -17.3241   23.4004 C   0  0  0  0  0  0  0  0  0  0  0  0
   11.8378  -16.2786   24.0228 O   0  0  0  0  0  0  0  0  0  0  0  0
   11.8680  -18.4833   27.1998 N   0  0  0  0  0  0  0  0  0  0  0  0
   12.4322  -19.6992   26.6940 C   0  0  0  0  0  0  0  0  0  0  0  0
   12.2368  -20.7223   27.3848 O   0  0  0  0  0  0  0  0  0  0  0  0
   13.1920  -19.7562   25.4497 C   0  0  0  0  0  0  0  0  0  0  0  0
   13.2903  -18.4718   24.6737 C   0  0  2  0  0  0  0  0  0  0  0  0
   12.1847  -18.5099   23.7073 N   0  0  0  0  0  0  0  0  0  0  0  0
   14.5422  -18.3793   23.9200 C   0  0  0  0  0  0  0  0  0  0  0  0
   15.5748  -17.9193   24.4980 O   0  0  0  0  0  0  0  0  0  0  0  0
   14.7098  -18.7549   22.6106 O   0  0  0  0  0  0  0  0  0  0  0  0
  2  1  1  0
  2 12  2  0
  3  2  1  0
  4  3  2  0
  4  5  1  0
  5 11  2  0
  6  5  1  0
  7  6  1  0
  7  9  1  0
  7  8  1  1
  9 16  1  0
  9 10  2  0
 11 12  1  0
 13 14  1  0
 15 14  1  6
 15 17  1  0
 16 15  1  0
 17 18  2  0
 19 20  1  0
 20 21  2  0
 20 22  1  0
 23 22  1  6
 23 25  1  0
 24 17  1  0
 24 23  1  0
 25 26  2  0
 25 27  1  0
M  END
$$$$
