YSN.pdb
     RDKit          3D

 27 27  0  0  1  0  0  0  0  0999 V2000
    7.5053  -16.2414   12.2623 O   0  0  0  0  0  0  0  0  0  0  0  0
    7.9064  -15.8123   13.5156 C   0  0  0  0  0  0  0  0  0  0  0  0
    8.5133  -16.6312   14.4408 C   0  0  0  0  0  0  0  0  0  0  0  0
    8.8964  -16.1604   15.6776 C   0  0  0  0  0  0  0  0  0  0  0  0
    8.6819  -14.8500   16.0253 C   0  0  0  0  0  0  0  0  0  0  0  0
    9.0965  -14.3662   17.3505 C   0  0  0  0  0  0  0  0  0  0  0  0
    7.8711  -14.0920   18.2307 C   0  0  2  0  0  0  0  0  0  0  0  0
    7.6602  -12.6798   18.2198 N   0  0  0  0  0  0  0  0  0  0  0  0
    8.2518  -14.5860   19.5988 C   0  0  0  0  0  0  0  0  0  0  0  0
    8.8736  -13.8758   20.4284 O   0  0  0  0  0  0  0  0  0  0  0  0
    8.0798  -14.0146   15.1226 C   0  0  0  0  0  0  0  0  0  0  0  0
    7.7043  -14.5056   13.8909 C   0  0  0  0  0  0  0  0  0  0  0  0
    7.7704  -18.6938   20.6747 O   0  0  0  0  0  0  0  0  0  0  0  0
    7.5122  -17.7232   21.6199 C   0  0  0  0  0  0  0  0  0  0  0  0
    8.2110  -16.4155   21.3410 C   0  0  2  0  0  0  0  0  0  0  0  0
    7.9164  -15.9067   20.0191 N   0  0  0  0  0  0  0  0  0  0  0  0
    9.6800  -16.5119   21.5703 C   0  0  0  0  0  0  0  0  0  0  0  0
   10.5154  -16.5657   20.6135 O   0  0  0  0  0  0  0  0  0  0  0  0
   11.7766  -18.5482   25.9901 N   0  0  0  0  0  0  0  0  0  0  0  0
   11.2075  -17.3535   25.4412 C   0  0  0  0  0  0  0  0  0  0  0  0
   10.0387  -17.0900   25.7973 O   0  0  0  0  0  0  0  0  0  0  0  0
   11.9350  -16.4862   24.5207 C   0  0  0  0  0  0  0  0  0  0  0  0
   11.6820  -16.7138   23.0558 C   0  0  2  0  0  0  0  0  0  0  0  0
   10.2335  -16.5491   22.8760 N   0  0  0  0  0  0  0  0  0  0  0  0
   12.0339  -18.0735   22.6419 C   0  0  0  0  0  0  0  0  0  0  0  0
   13.2598  -18.3814   22.5221 O   0  0  0  0  0  0  0  0  0  0  0  0
   11.1380  -19.0755   22.3646 O   0  0  0  0  0  0  0  0  0  0  0  0
  2  1  1  0
  2 12  2  0
  3  2  1  0
  4  3  2  0
  4  5  1  0
  5 11  2  0
  6  5  1  0
  7  6  1  0
  7  9  1  0
  7  8  1  1
  9 16  1  0
  9 10  2  0
 11 12  1  0
 13 14  1  0
 15 14  1  6
 15 17  1  0
 16 15  1  0
 17 18  2  0
 19 20  1  0
 20 21  2  0
 20 22  1  0
 23 22  1  1
 23 25  1  0
 24 17  1  0
 24 23  1  0
 25 26  2  0
 25 27  1  0
M  END
$$$$
