YSN.pdb
     RDKit          3D

 27 27  0  0  1  0  0  0  0  0999 V2000
    7.2113  -13.7365   15.0118 O   0  0  0  0  0  0  0  0  0  0  0  0
    7.4775  -13.8375   16.3662 C   0  0  0  0  0  0  0  0  0  0  0  0
    8.0881  -14.9291   16.9413 C   0  0  0  0  0  0  0  0  0  0  0  0
    8.3337  -14.9863   18.2957 C   0  0  0  0  0  0  0  0  0  0  0  0
    7.9734  -13.9473   19.1172 C   0  0  0  0  0  0  0  0  0  0  0  0
    8.2427  -14.0272   20.5606 C   0  0  0  0  0  0  0  0  0  0  0  0
    8.6569  -15.4508   20.9526 C   0  0  2  0  0  0  0  0  0  0  0  0
    7.5192  -16.2870   20.7403 N   0  0  0  0  0  0  0  0  0  0  0  0
    9.0204  -15.3669   22.4091 C   0  0  0  0  0  0  0  0  0  0  0  0
   10.0437  -14.7642   22.8199 O   0  0  0  0  0  0  0  0  0  0  0  0
    7.3644  -12.8497   18.5698 C   0  0  0  0  0  0  0  0  0  0  0  0
    7.1278  -12.8126   17.2127 C   0  0  0  0  0  0  0  0  0  0  0  0
    6.4308  -16.9727   25.4386 O   0  0  0  0  0  0  0  0  0  0  0  0
    7.3442  -15.9738   25.7031 C   0  0  0  0  0  0  0  0  0  0  0  0
    8.5562  -16.0184   24.8058 C   0  0  2  0  0  0  0  0  0  0  0  0
    8.2027  -15.9802   23.4034 N   0  0  0  0  0  0  0  0  0  0  0  0
    9.4311  -17.1845   25.1133 C   0  0  0  0  0  0  0  0  0  0  0  0
    9.2677  -18.3202   24.5655 O   0  0  0  0  0  0  0  0  0  0  0  0
   13.3911  -16.5562   24.2063 N   0  0  0  0  0  0  0  0  0  0  0  0
   13.0911  -17.8301   24.7892 C   0  0  0  0  0  0  0  0  0  0  0  0
   13.1909  -18.8172   24.0290 O   0  0  0  0  0  0  0  0  0  0  0  0
   12.6915  -17.9827   26.1841 C   0  0  0  0  0  0  0  0  0  0  0  0
   11.2422  -18.3021   26.4273 C   0  0  2  0  0  0  0  0  0  0  0  0
   10.5022  -17.0940   26.0391 N   0  0  0  0  0  0  0  0  0  0  0  0
   10.9664  -18.5624   27.8415 C   0  0  0  0  0  0  0  0  0  0  0  0
   10.2623  -17.7309   28.4933 O   0  0  0  0  0  0  0  0  0  0  0  0
   11.4087  -19.6521   28.5488 O   0  0  0  0  0  0  0  0  0  0  0  0
  2  1  1  0
  2 12  2  0
  3  2  1  0
  4  3  2  0
  4  5  1  0
  5 11  2  0
  6  5  1  0
  7  6  1  0
  7  9  1  0
  7  8  1  1
  9 16  1  0
  9 10  2  0
 11 12  1  0
 13 14  1  0
 15 14  1  1
 15 17  1  0
 16 15  1  0
 17 18  2  0
 19 20  1  0
 20 21  2  0
 20 22  1  0
 23 22  1  1
 23 25  1  0
 24 17  1  0
 24 23  1  0
 25 26  2  0
 25 27  1  0
M  END
$$$$
