YSN.pdb
     RDKit          3D

 27 27  0  0  1  0  0  0  0  0999 V2000
    4.9776  -10.6350   27.7287 O   0  0  0  0  0  0  0  0  0  0  0  0
    5.7689  -11.5899   27.1143 C   0  0  0  0  0  0  0  0  0  0  0  0
    5.6416  -11.9449   25.7904 C   0  0  0  0  0  0  0  0  0  0  0  0
    6.4523  -12.9019   25.2203 C   0  0  0  0  0  0  0  0  0  0  0  0
    7.4184  -13.5340   25.9628 C   0  0  0  0  0  0  0  0  0  0  0  0
    8.2733  -14.5537   25.3371 C   0  0  0  0  0  0  0  0  0  0  0  0
    7.4206  -15.5820   24.5838 C   0  0  2  0  0  0  0  0  0  0  0  0
    6.7361  -16.3552   25.5700 N   0  0  0  0  0  0  0  0  0  0  0  0
    8.4036  -16.4150   23.8090 C   0  0  0  0  0  0  0  0  0  0  0  0
    8.9200  -17.4626   24.2728 O   0  0  0  0  0  0  0  0  0  0  0  0
    7.5655  -13.1988   27.2824 C   0  0  0  0  0  0  0  0  0  0  0  0
    6.7442  -12.2390   27.8332 C   0  0  0  0  0  0  0  0  0  0  0  0
   10.0422  -14.7096   20.3122 O   0  0  0  0  0  0  0  0  0  0  0  0
   10.1083  -16.0834   20.4149 C   0  0  0  0  0  0  0  0  0  0  0  0
    9.9658  -16.5852   21.8304 C   0  0  2  0  0  0  0  0  0  0  0  0
    8.7978  -16.0430   22.4900 N   0  0  0  0  0  0  0  0  0  0  0  0
   11.2001  -16.3469   22.6301 C   0  0  0  0  0  0  0  0  0  0  0  0
   11.3168  -15.3596   23.4226 O   0  0  0  0  0  0  0  0  0  0  0  0
   15.9255  -17.1436   24.9555 N   0  0  0  0  0  0  0  0  0  0  0  0
   14.9046  -18.1429   25.0631 C   0  0  0  0  0  0  0  0  0  0  0  0
   15.1326  -19.0745   25.8646 O   0  0  0  0  0  0  0  0  0  0  0  0
   13.6680  -18.0909   24.2905 C   0  0  0  0  0  0  0  0  0  0  0  0
   13.5246  -16.9290   23.3465 C   0  0  2  0  0  0  0  0  0  0  0  0
   12.3215  -17.2124   22.5530 N   0  0  0  0  0  0  0  0  0  0  0  0
   14.6571  -16.8272   22.4240 C   0  0  0  0  0  0  0  0  0  0  0  0
   15.6788  -16.1611   22.7766 O   0  0  0  0  0  0  0  0  0  0  0  0
   14.7206  -17.4014   21.1790 O   0  0  0  0  0  0  0  0  0  0  0  0
  2  1  1  0
  2 12  2  0
  3  2  1  0
  4  3  2  0
  4  5  1  0
  5 11  2  0
  6  5  1  0
  7  6  1  0
  7  9  1  0
  7  8  1  1
  9 16  1  0
  9 10  2  0
 11 12  1  0
 13 14  1  0
 15 14  1  6
 15 17  1  0
 16 15  1  0
 17 18  2  0
 19 20  1  0
 20 21  2  0
 20 22  1  0
 23 22  1  1
 23 25  1  0
 24 17  1  0
 24 23  1  0
 25 26  2  0
 25 27  1  0
M  END
$$$$
