YSN.pdb
     RDKit          3D

 27 27  0  0  1  0  0  0  0  0999 V2000
    5.1412  -10.7375   27.5942 O   0  0  0  0  0  0  0  0  0  0  0  0
    5.9392  -11.6570   26.9361 C   0  0  0  0  0  0  0  0  0  0  0  0
    5.7754  -11.9950   25.6117 C   0  0  0  0  0  0  0  0  0  0  0  0
    6.5944  -12.9166   24.9971 C   0  0  0  0  0  0  0  0  0  0  0  0
    7.6059  -13.5294   25.6941 C   0  0  0  0  0  0  0  0  0  0  0  0
    8.4690  -14.5114   25.0212 C   0  0  0  0  0  0  0  0  0  0  0  0
    7.6299  -15.6553   24.4388 C   0  0  2  0  0  0  0  0  0  0  0  0
    7.1412  -16.4156   25.5443 N   0  0  0  0  0  0  0  0  0  0  0  0
    8.5852  -16.4531   23.5953 C   0  0  0  0  0  0  0  0  0  0  0  0
    9.2880  -17.3845   24.0619 O   0  0  0  0  0  0  0  0  0  0  0  0
    7.7899  -13.2105   27.0131 C   0  0  0  0  0  0  0  0  0  0  0  0
    6.9595  -12.2861   27.6088 C   0  0  0  0  0  0  0  0  0  0  0  0
    9.0060  -15.2970   19.6631 O   0  0  0  0  0  0  0  0  0  0  0  0
    9.4631  -16.5777   19.8934 C   0  0  0  0  0  0  0  0  0  0  0  0
    9.6725  -16.8843   21.3556 C   0  0  2  0  0  0  0  0  0  0  0  0
    8.7358  -16.1798   22.2039 N   0  0  0  0  0  0  0  0  0  0  0  0
   11.0796  -16.6364   21.7782 C   0  0  0  0  0  0  0  0  0  0  0  0
   11.4570  -15.5249   22.2668 O   0  0  0  0  0  0  0  0  0  0  0  0
   13.7487  -15.5657   24.3070 N   0  0  0  0  0  0  0  0  0  0  0  0
   13.7932  -16.9863   24.4870 C   0  0  0  0  0  0  0  0  0  0  0  0
   13.9278  -17.3851   25.6639 O   0  0  0  0  0  0  0  0  0  0  0  0
   13.6894  -17.9241   23.3742 C   0  0  0  0  0  0  0  0  0  0  0  0
   13.4743  -17.3183   22.0146 C   0  0  2  0  0  0  0  0  0  0  0  0
   12.0838  -17.6314   21.6595 N   0  0  0  0  0  0  0  0  0  0  0  0
   14.3428  -17.9200   21.0010 C   0  0  0  0  0  0  0  0  0  0  0  0
   15.5508  -17.5373   20.9215 O   0  0  0  0  0  0  0  0  0  0  0  0
   13.9638  -18.8870   20.1039 O   0  0  0  0  0  0  0  0  0  0  0  0
  2  1  1  0
  2 12  2  0
  3  2  1  0
  4  3  2  0
  4  5  1  0
  5 11  2  0
  6  5  1  0
  7  6  1  0
  7  9  1  0
  7  8  1  1
  9 16  1  0
  9 10  2  0
 11 12  1  0
 13 14  1  0
 15 14  1  6
 15 17  1  0
 16 15  1  0
 17 18  2  0
 19 20  1  0
 20 21  2  0
 20 22  1  0
 23 22  1  1
 23 25  1  0
 24 17  1  0
 24 23  1  0
 25 26  2  0
 25 27  1  0
M  END
$$$$
