NRA.pdb
     RDKit          3D

 25 24  0  0  1  0  0  0  0  0999 V2000
    4.8757  -21.4443   20.2042 N   0  0  0  0  0  0  0  0  0  0  0  0
    5.1621  -20.7831   21.4161 C   0  0  0  0  0  0  0  0  0  0  0  0
    4.6726  -21.1070   22.5403 O   0  0  0  0  0  0  0  0  0  0  0  0
    6.1129  -19.6155   21.3872 C   0  0  0  0  0  0  0  0  0  0  0  0
    5.5986  -18.5549   22.3468 C   0  0  2  0  0  0  0  0  0  0  0  0
    4.5496  -17.7928   21.7303 N   0  0  0  0  0  0  0  0  0  0  0  0
    6.7737  -17.7343   22.7371 C   0  0  0  0  0  0  0  0  0  0  0  0
    7.7091  -18.3234   23.3273 O   0  0  0  0  0  0  0  0  0  0  0  0
    7.3246  -13.2465   17.0956 N   0  0  0  0  0  0  0  0  0  0  0  0
    8.5394  -13.6065   17.7284 C   0  0  0  0  0  0  0  0  0  0  0  0
    9.5241  -14.1883   17.0809 N   0  0  0  0  0  0  0  0  0  0  0  0
    8.7826  -13.3714   19.1070 N   0  0  0  0  0  0  0  0  0  0  0  0
    7.7793  -13.0079   20.0594 C   0  0  0  0  0  0  0  0  0  0  0  0
    7.3116  -14.1889   20.8807 C   0  0  0  0  0  0  0  0  0  0  0  0
    8.0988  -14.2027   22.2037 C   0  0  0  0  0  0  0  0  0  0  0  0
    7.9130  -15.4789   22.9313 C   0  0  2  0  0  0  0  0  0  0  0  0
    6.8823  -16.3511   22.4788 N   0  0  0  0  0  0  0  0  0  0  0  0
    7.7933  -15.3182   24.4118 C   0  0  0  0  0  0  0  0  0  0  0  0
    6.6723  -15.1043   24.9219 O   0  0  0  0  0  0  0  0  0  0  0  0
   10.3508  -14.4434   17.6958 C   0  0  0  0  0  0  0  0  0  0  0  0
    8.0990  -16.2746   27.4292 C   0  0  1  0  0  0  0  0  0  0  0  0
    8.9197  -15.2646   26.6881 N   0  0  0  0  0  0  0  0  0  0  0  0
    8.9196  -15.3956   25.2638 C   0  0  0  0  0  0  0  0  0  0  0  0
   10.3398  -15.3880   27.2190 O   0  0  0  0  0  0  0  0  0  0  0  0
   11.2416  -15.7004   26.4254 O   0  0  0  0  0  0  0  0  0  0  0  0
  2  1  1  0
  3  2  2  0
  4  2  1  0
  5  4  1  0
  5  6  1  6
  7  5  1  0
  7  8  2  0
  9 10  1  0
 10 11  2  0
 12 13  1  0
 12 10  1  0
 14 13  1  0
 15 14  1  0
 16 15  1  6
 16 17  1  0
 17  7  1  0
 18 16  1  0
 19 18  2  0
 21 20  1  6
 21 22  1  0
 21 23  1  0
 22 18  1  0
 23 25  1  0
 24 23  2  0
M  END
$$$$
