NRA.pdb
     RDKit          3D

 25 24  0  0  1  0  0  0  0  0999 V2000
   13.1195  -19.1668   20.4613 N   0  0  0  0  0  0  0  0  0  0  0  0
   13.6369  -18.9181   21.7491 C   0  0  0  0  0  0  0  0  0  0  0  0
   14.6315  -19.5251   22.2496 O   0  0  0  0  0  0  0  0  0  0  0  0
   12.9749  -17.8621   22.5948 C   0  0  0  0  0  0  0  0  0  0  0  0
   11.7074  -17.4083   21.8893 C   0  0  2  0  0  0  0  0  0  0  0  0
   12.0358  -16.6588   20.7096 N   0  0  0  0  0  0  0  0  0  0  0  0
   10.9264  -16.6304   22.8850 C   0  0  0  0  0  0  0  0  0  0  0  0
   11.2274  -15.4223   23.0270 O   0  0  0  0  0  0  0  0  0  0  0  0
    3.1175  -19.3210   22.9403 N   0  0  0  0  0  0  0  0  0  0  0  0
    4.1462  -19.1593   21.9804 C   0  0  0  0  0  0  0  0  0  0  0  0
    4.0832  -19.7002   20.7842 N   0  0  0  0  0  0  0  0  0  0  0  0
    5.3220  -18.4072   22.2387 N   0  0  0  0  0  0  0  0  0  0  0  0
    5.5846  -17.7003   23.4541 C   0  0  0  0  0  0  0  0  0  0  0  0
    6.8219  -16.8352   23.3602 C   0  0  0  0  0  0  0  0  0  0  0  0
    7.6201  -16.9856   24.6681 C   0  0  0  0  0  0  0  0  0  0  0  0
    8.9997  -16.4677   24.5232 C   0  0  2  0  0  0  0  0  0  0  0  0
    9.8829  -17.1783   23.6614 N   0  0  0  0  0  0  0  0  0  0  0  0
    9.6913  -16.2194   25.8241 C   0  0  0  0  0  0  0  0  0  0  0  0
   10.4769  -17.0780   26.2803 O   0  0  0  0  0  0  0  0  0  0  0  0
    4.9284  -19.4961   20.1756 C   0  0  0  0  0  0  0  0  0  0  0  0
    9.6321  -13.4047   28.4258 C   0  0  1  0  0  0  0  0  0  0  0  0
   10.1005  -14.6858   27.8074 N   0  0  0  0  0  0  0  0  0  0  0  0
    9.4800  -15.0344   26.5668 C   0  0  0  0  0  0  0  0  0  0  0  0
    9.8514  -15.7786   28.8357 O   0  0  0  0  0  0  0  0  0  0  0  0
    8.9398  -16.5934   28.6220 O   0  0  0  0  0  0  0  0  0  0  0  0
  2  1  1  0
  3  2  2  0
  4  2  1  0
  5  4  1  0
  5  6  1  6
  7  5  1  0
  7  8  2  0
  9 10  1  0
 10 11  2  0
 12 13  1  0
 12 10  1  0
 14 13  1  0
 15 14  1  0
 16 15  1  1
 16 17  1  0
 17  7  1  0
 18 16  1  0
 19 18  2  0
 21 20  1  6
 21 22  1  0
 21 23  1  0
 22 18  1  0
 23 25  1  0
 24 23  2  0
M  END
$$$$
