NRA.pdb
     RDKit          3D

 25 24  0  0  1  0  0  0  0  0999 V2000
   14.9946  -15.2624   16.2044 N   0  0  0  0  0  0  0  0  0  0  0  0
   14.9925  -16.4446   16.9727 C   0  0  0  0  0  0  0  0  0  0  0  0
   15.3834  -17.5739   16.5483 O   0  0  0  0  0  0  0  0  0  0  0  0
   14.4984  -16.3739   18.3937 C   0  0  0  0  0  0  0  0  0  0  0  0
   13.9054  -14.9939   18.6267 C   0  0  2  0  0  0  0  0  0  0  0  0
   14.9441  -14.0029   18.6468 N   0  0  0  0  0  0  0  0  0  0  0  0
   13.1400  -15.0731   19.8972 C   0  0  0  0  0  0  0  0  0  0  0  0
   13.7960  -15.0034   20.9627 O   0  0  0  0  0  0  0  0  0  0  0  0
    8.2540  -11.8446   18.1515 N   0  0  0  0  0  0  0  0  0  0  0  0
    7.7516  -13.1627   18.0250 C   0  0  0  0  0  0  0  0  0  0  0  0
    7.5974  -13.7476   16.8582 N   0  0  0  0  0  0  0  0  0  0  0  0
    7.3730  -13.9477   19.1454 N   0  0  0  0  0  0  0  0  0  0  0  0
    7.6532  -13.6101   20.5068 C   0  0  0  0  0  0  0  0  0  0  0  0
    9.1271  -13.7099   20.8322 C   0  0  0  0  0  0  0  0  0  0  0  0
    9.4863  -15.1966   21.0075 C   0  0  0  0  0  0  0  0  0  0  0  0
   10.9492  -15.3894   21.1313 C   0  0  2  0  0  0  0  0  0  0  0  0
   11.7376  -15.2198   19.9577 N   0  0  0  0  0  0  0  0  0  0  0  0
   11.3356  -16.6734   21.7904 C   0  0  0  0  0  0  0  0  0  0  0  0
   11.4001  -17.7214   21.1123 O   0  0  0  0  0  0  0  0  0  0  0  0
    7.2948  -14.7628   16.9233 C   0  0  0  0  0  0  0  0  0  0  0  0
   13.3553  -18.2115   24.1717 C   0  0  2  0  0  0  0  0  0  0  0  0
   11.9056  -17.9282   23.9243 N   0  0  0  0  0  0  0  0  0  0  0  0
   11.6286  -16.7435   23.1724 C   0  0  0  0  0  0  0  0  0  0  0  0
   11.2430  -17.8407   25.2907 O   0  0  0  0  0  0  0  0  0  0  0  0
   10.7234  -16.7648   25.6268 O   0  0  0  0  0  0  0  0  0  0  0  0
  2  1  1  0
  3  2  2  0
  4  2  1  0
  5  4  1  0
  5  6  1  1
  7  5  1  0
  7  8  2  0
  9 10  1  0
 10 11  2  0
 12 13  1  0
 12 10  1  0
 14 13  1  0
 15 14  1  0
 16 15  1  6
 16 17  1  0
 17  7  1  0
 18 16  1  0
 19 18  2  0
 21 20  1  6
 21 22  1  0
 21 23  1  0
 22 18  1  0
 23 25  1  0
 24 23  2  0
M  END
$$$$
