NRA.pdb
     RDKit          3D

 25 24  0  0  1  0  0  0  0  0999 V2000
   12.1891  -16.5347   16.0502 N   0  0  0  0  0  0  0  0  0  0  0  0
   11.7104  -17.3613   17.0872 C   0  0  0  0  0  0  0  0  0  0  0  0
   11.7302  -18.6289   17.0580 O   0  0  0  0  0  0  0  0  0  0  0  0
   11.1380  -16.7074   18.3173 C   0  0  0  0  0  0  0  0  0  0  0  0
   10.9066  -17.7817   19.3673 C   0  0  2  0  0  0  0  0  0  0  0  0
    9.6869  -18.4886   19.0955 N   0  0  0  0  0  0  0  0  0  0  0  0
   10.9091  -17.0925   20.6831 C   0  0  0  0  0  0  0  0  0  0  0  0
   11.9964  -16.6020   21.0672 O   0  0  0  0  0  0  0  0  0  0  0  0
    8.2884  -11.8228   19.4800 N   0  0  0  0  0  0  0  0  0  0  0  0
    8.0591  -13.1862   19.1728 C   0  0  0  0  0  0  0  0  0  0  0  0
    8.2689  -13.6819   17.9738 N   0  0  0  0  0  0  0  0  0  0  0  0
    7.5819  -14.1167   20.1328 N   0  0  0  0  0  0  0  0  0  0  0  0
    7.4803  -13.8577   21.5358 C   0  0  0  0  0  0  0  0  0  0  0  0
    8.7760  -14.1323   22.2664 C   0  0  0  0  0  0  0  0  0  0  0  0
    8.6111  -15.4313   23.0762 C   0  0  0  0  0  0  0  0  0  0  0  0
    9.7103  -16.3845   22.8007 C   0  0  2  0  0  0  0  0  0  0  0  0
    9.7669  -16.9673   21.5027 N   0  0  0  0  0  0  0  0  0  0  0  0
    9.8406  -17.4675   23.8217 C   0  0  0  0  0  0  0  0  0  0  0  0
    8.8935  -18.2626   24.0039 O   0  0  0  0  0  0  0  0  0  0  0  0
    8.0801  -14.7238   17.9008 C   0  0  0  0  0  0  0  0  0  0  0  0
   12.5471  -19.3056   25.5689 C   0  0  2  0  0  0  0  0  0  0  0  0
   11.2299  -18.5951   25.6249 N   0  0  0  0  0  0  0  0  0  0  0  0
   11.0110  -17.6208   24.6009 C   0  0  0  0  0  0  0  0  0  0  0  0
   11.1530  -17.9343   26.9928 O   0  0  0  0  0  0  0  0  0  0  0  0
   11.0428  -16.6991   27.0463 O   0  0  0  0  0  0  0  0  0  0  0  0
  2  1  1  0
  3  2  2  0
  4  2  1  0
  5  4  1  0
  5  6  1  6
  7  5  1  0
  7  8  2  0
  9 10  1  0
 10 11  2  0
 12 13  1  0
 12 10  1  0
 14 13  1  0
 15 14  1  0
 16 15  1  1
 16 17  1  0
 17  7  1  0
 18 16  1  0
 19 18  2  0
 21 20  1  6
 21 22  1  0
 21 23  1  0
 22 18  1  0
 23 25  1  0
 24 23  2  0
M  END
$$$$
