NRA.pdb
     RDKit          3D

 25 24  0  0  1  0  0  0  0  0999 V2000
    1.5676   -6.3835   42.4721 N   0  0  0  0  0  0  0  0  0  0  0  0
    2.3761   -7.5381   42.5029 C   0  0  0  0  0  0  0  0  0  0  0  0
    2.0098   -8.6788   42.0873 O   0  0  0  0  0  0  0  0  0  0  0  0
    3.7700   -7.4211   43.0612 C   0  0  0  0  0  0  0  0  0  0  0  0
    4.1460   -8.7510   43.6938 C   0  0  2  0  0  0  0  0  0  0  0  0
    3.4539   -8.9226   44.9399 N   0  0  0  0  0  0  0  0  0  0  0  0
    5.6247   -8.7475   43.8350 C   0  0  0  0  0  0  0  0  0  0  0  0
    6.0947   -8.2678   44.8930 O   0  0  0  0  0  0  0  0  0  0  0  0
   11.8363  -14.0927   40.2181 N   0  0  0  0  0  0  0  0  0  0  0  0
   12.1080  -13.7417   41.5630 C   0  0  0  0  0  0  0  0  0  0  0  0
   13.0939  -14.2803   42.2450 N   0  0  0  0  0  0  0  0  0  0  0  0
   11.3351  -12.7879   42.2756 N   0  0  0  0  0  0  0  0  0  0  0  0
   10.3521  -11.9330   41.6851 C   0  0  0  0  0  0  0  0  0  0  0  0
    9.6964  -11.0236   42.7005 C   0  0  0  0  0  0  0  0  0  0  0  0
    8.6403  -10.1687   41.9766 C   0  0  0  0  0  0  0  0  0  0  0  0
    7.9277   -9.2758   42.9187 C   0  0  2  0  0  0  0  0  0  0  0  0
    6.5054   -9.2493   42.8530 N   0  0  0  0  0  0  0  0  0  0  0  0
    8.4365   -7.8710   42.9214 C   0  0  0  0  0  0  0  0  0  0  0  0
    8.0724   -7.0799   42.0247 O   0  0  0  0  0  0  0  0  0  0  0  0
   13.1461  -13.9551   43.2539 C   0  0  0  0  0  0  0  0  0  0  0  0
   10.1249   -5.5680   45.3739 C   0  0  1  0  0  0  0  0  0  0  0  0
    9.9084   -6.0976   43.9898 N   0  0  0  0  0  0  0  0  0  0  0  0
    9.3303   -7.4036   43.9129 C   0  0  0  0  0  0  0  0  0  0  0  0
   11.2679   -6.0925   43.3075 O   0  0  0  0  0  0  0  0  0  0  0  0
   11.8589   -5.0088   43.1774 O   0  0  0  0  0  0  0  0  0  0  0  0
  2  1  1  0
  3  2  2  0
  4  2  1  0
  5  4  1  0
  5  6  1  1
  7  5  1  0
  7  8  2  0
  9 10  1  0
 10 11  2  0
 12 13  1  0
 12 10  1  0
 14 13  1  0
 15 14  1  0
 16 15  1  6
 16 17  1  0
 17  7  1  0
 18 16  1  0
 19 18  2  0
 21 20  1  6
 21 22  1  0
 21 23  1  0
 22 18  1  0
 23 25  1  0
 24 23  2  0
M  END
$$$$
