NRA.pdb
     RDKit          3D

 25 24  0  0  1  0  0  0  0  0999 V2000
   15.7283  -14.3874   16.2512 N   0  0  0  0  0  0  0  0  0  0  0  0
   14.8153  -15.2001   16.9539 C   0  0  0  0  0  0  0  0  0  0  0  0
   14.7244  -16.4575   16.8161 O   0  0  0  0  0  0  0  0  0  0  0  0
   13.8832  -14.5438   17.9382 C   0  0  0  0  0  0  0  0  0  0  0  0
   13.7631  -15.4433   19.1574 C   0  0  2  0  0  0  0  0  0  0  0  0
   13.4493  -16.7857   18.7564 N   0  0  0  0  0  0  0  0  0  0  0  0
   12.7302  -14.8316   20.0323 C   0  0  0  0  0  0  0  0  0  0  0  0
   12.9103  -13.6411   20.3796 O   0  0  0  0  0  0  0  0  0  0  0  0
    7.7348  -12.1422   17.6793 N   0  0  0  0  0  0  0  0  0  0  0  0
    7.7418  -13.3251   16.9006 C   0  0  0  0  0  0  0  0  0  0  0  0
    7.8088  -13.3027   15.5882 N   0  0  0  0  0  0  0  0  0  0  0  0
    7.6721  -14.6205   17.4767 N   0  0  0  0  0  0  0  0  0  0  0  0
    7.7888  -14.8957   18.8755 C   0  0  0  0  0  0  0  0  0  0  0  0
    9.1481  -14.5216   19.4236 C   0  0  0  0  0  0  0  0  0  0  0  0
    9.2033  -14.9309   20.9067 C   0  0  0  0  0  0  0  0  0  0  0  0
   10.5995  -15.0270   21.3904 C   0  0  2  0  0  0  0  0  0  0  0  0
   11.5798  -15.5155   20.4804 N   0  0  0  0  0  0  0  0  0  0  0  0
   10.7405  -15.7550   22.6875 C   0  0  0  0  0  0  0  0  0  0  0  0
    9.8026  -15.7336   23.5136 O   0  0  0  0  0  0  0  0  0  0  0  0
    7.9070  -14.2629   15.1468 C   0  0  0  0  0  0  0  0  0  0  0  0
   11.5021  -18.5663   24.2714 C   0  0  2  0  0  0  0  0  0  0  0  0
   12.1490  -17.2167   24.2148 N   0  0  0  0  0  0  0  0  0  0  0  0
   11.9151  -16.4707   23.0171 C   0  0  0  0  0  0  0  0  0  0  0  0
   13.6416  -17.4447   24.3993 O   0  0  0  0  0  0  0  0  0  0  0  0
   14.4031  -17.1546   23.4631 O   0  0  0  0  0  0  0  0  0  0  0  0
  2  1  1  0
  3  2  2  0
  4  2  1  0
  5  4  1  0
  5  6  1  6
  7  5  1  0
  7  8  2  0
  9 10  1  0
 10 11  2  0
 12 13  1  0
 12 10  1  0
 14 13  1  0
 15 14  1  0
 16 15  1  6
 16 17  1  0
 17  7  1  0
 18 16  1  0
 19 18  2  0
 21 20  1  1
 21 22  1  0
 21 23  1  0
 22 18  1  0
 23 25  1  0
 24 23  2  0
M  END
$$$$
