NRA.pdb
     RDKit          3D

 25 24  0  0  1  0  0  0  0  0999 V2000
    8.3881  -12.2139   18.4438 N   0  0  0  0  0  0  0  0  0  0  0  0
    7.8826  -13.4914   18.7603 C   0  0  0  0  0  0  0  0  0  0  0  0
    7.8078  -14.4545   17.9387 O   0  0  0  0  0  0  0  0  0  0  0  0
    7.3990  -13.7421   20.1645 C   0  0  0  0  0  0  0  0  0  0  0  0
    8.5121  -14.4286   20.9391 C   0  0  2  0  0  0  0  0  0  0  0  0
    8.8399  -15.6865   20.3296 N   0  0  0  0  0  0  0  0  0  0  0  0
    8.0335  -14.5577   22.3394 C   0  0  0  0  0  0  0  0  0  0  0  0
    7.5804  -13.5241   22.8841 O   0  0  0  0  0  0  0  0  0  0  0  0
    7.0246  -20.2241   26.9413 N   0  0  0  0  0  0  0  0  0  0  0  0
    7.8376  -20.6295   25.8548 C   0  0  0  0  0  0  0  0  0  0  0  0
    8.9582  -21.2949   26.0249 N   0  0  0  0  0  0  0  0  0  0  0  0
    7.5072  -20.3442   24.5042 N   0  0  0  0  0  0  0  0  0  0  0  0
    6.4174  -19.5148   24.0913 C   0  0  0  0  0  0  0  0  0  0  0  0
    6.8791  -18.1591   23.6045 C   0  0  0  0  0  0  0  0  0  0  0  0
    7.1940  -17.2839   24.8313 C   0  0  0  0  0  0  0  0  0  0  0  0
    7.6913  -15.9480   24.4304 C   0  0  2  0  0  0  0  0  0  0  0  0
    8.0649  -15.7657   23.0684 N   0  0  0  0  0  0  0  0  0  0  0  0
    8.7833  -15.4227   25.3044 C   0  0  0  0  0  0  0  0  0  0  0  0
    9.9657  -15.7677   25.0913 O   0  0  0  0  0  0  0  0  0  0  0  0
    9.4433  -21.5578   25.1183 C   0  0  0  0  0  0  0  0  0  0  0  0
    9.1021  -12.7945   28.0349 C   0  0  1  0  0  0  0  0  0  0  0  0
    9.4631  -14.0753   27.3478 N   0  0  0  0  0  0  0  0  0  0  0  0
    8.5195  -14.5428   26.3799 C   0  0  0  0  0  0  0  0  0  0  0  0
    9.6416  -15.1172   28.4416 O   0  0  0  0  0  0  0  0  0  0  0  0
    8.8593  -16.0803   28.4727 O   0  0  0  0  0  0  0  0  0  0  0  0
  2  1  1  0
  3  2  2  0
  4  2  1  0
  5  4  1  0
  5  6  1  6
  7  5  1  0
  7  8  2  0
  9 10  1  0
 10 11  2  0
 12 13  1  0
 12 10  1  0
 14 13  1  0
 15 14  1  0
 16 15  1  6
 16 17  1  0
 17  7  1  0
 18 16  1  0
 19 18  2  0
 21 20  1  6
 21 22  1  0
 21 23  1  0
 22 18  1  0
 23 25  1  0
 24 23  2  0
M  END
$$$$
