NRA.pdb
     RDKit          3D

 25 24  0  0  1  0  0  0  0  0999 V2000
    9.4223  -13.6968   17.6428 N   0  0  0  0  0  0  0  0  0  0  0  0
    8.1160  -13.2177   17.8703 C   0  0  0  0  0  0  0  0  0  0  0  0
    7.3432  -12.7888   16.9609 O   0  0  0  0  0  0  0  0  0  0  0  0
    7.5912  -13.2124   19.2820 C   0  0  0  0  0  0  0  0  0  0  0  0
    8.6241  -13.8741   20.1795 C   0  0  2  0  0  0  0  0  0  0  0  0
    9.1499  -15.0519   19.5488 N   0  0  0  0  0  0  0  0  0  0  0  0
    7.9451  -14.1493   21.4717 C   0  0  0  0  0  0  0  0  0  0  0  0
    7.3846  -13.1820   22.0380 O   0  0  0  0  0  0  0  0  0  0  0  0
    6.4795  -21.8118   25.7131 N   0  0  0  0  0  0  0  0  0  0  0  0
    7.6001  -20.9637   25.8884 C   0  0  0  0  0  0  0  0  0  0  0  0
    8.7515  -21.4048   26.3434 N   0  0  0  0  0  0  0  0  0  0  0  0
    7.5630  -19.5762   25.5915 N   0  0  0  0  0  0  0  0  0  0  0  0
    6.3702  -18.8334   25.3239 C   0  0  0  0  0  0  0  0  0  0  0  0
    6.6447  -17.3605   25.1160 C   0  0  0  0  0  0  0  0  0  0  0  0
    7.2685  -17.1748   23.7208 C   0  0  0  0  0  0  0  0  0  0  0  0
    7.3459  -15.7438   23.3482 C   0  0  2  0  0  0  0  0  0  0  0  0
    7.9032  -15.4233   22.0776 N   0  0  0  0  0  0  0  0  0  0  0  0
    7.9874  -14.8829   24.3872 C   0  0  0  0  0  0  0  0  0  0  0  0
    9.2312  -14.8870   24.5116 O   0  0  0  0  0  0  0  0  0  0  0  0
    9.5115  -20.6647   26.3780 C   0  0  0  0  0  0  0  0  0  0  0  0
    6.7728  -12.1380   26.7445 C   0  0  1  0  0  0  0  0  0  0  0  0
    7.7335  -13.1755   26.2508 N   0  0  0  0  0  0  0  0  0  0  0  0
    7.2250  -14.0587   25.2473 C   0  0  0  0  0  0  0  0  0  0  0  0
    8.1712  -13.9739   27.4693 O   0  0  0  0  0  0  0  0  0  0  0  0
    8.7334  -13.3725   28.3982 O   0  0  0  0  0  0  0  0  0  0  0  0
  2  1  1  0
  3  2  2  0
  4  2  1  0
  5  4  1  0
  5  6  1  6
  7  5  1  0
  7  8  2  0
  9 10  1  0
 10 11  2  0
 12 13  1  0
 12 10  1  0
 14 13  1  0
 15 14  1  0
 16 15  1  1
 16 17  1  0
 17  7  1  0
 18 16  1  0
 19 18  2  0
 21 20  1  6
 21 22  1  0
 21 23  1  0
 22 18  1  0
 23 25  1  0
 24 23  2  0
M  END
$$$$
