NRA.pdb
     RDKit          3D

 25 24  0  0  1  0  0  0  0  0999 V2000
    6.3699  -12.4194   18.0065 N   0  0  0  0  0  0  0  0  0  0  0  0
    7.3298  -13.1811   18.7037 C   0  0  0  0  0  0  0  0  0  0  0  0
    8.1560  -13.9689   18.1514 O   0  0  0  0  0  0  0  0  0  0  0  0
    7.3898  -13.0575   20.2036 C   0  0  0  0  0  0  0  0  0  0  0  0
    8.6181  -13.8044   20.6971 C   0  0  2  0  0  0  0  0  0  0  0  0
    9.0143  -14.7981   19.7395 N   0  0  0  0  0  0  0  0  0  0  0  0
    8.2621  -14.3710   22.0233 C   0  0  0  0  0  0  0  0  0  0  0  0
    7.6446  -13.6220   22.8156 O   0  0  0  0  0  0  0  0  0  0  0  0
    6.0070  -20.5335   26.5222 N   0  0  0  0  0  0  0  0  0  0  0  0
    7.1997  -20.4981   27.2853 C   0  0  0  0  0  0  0  0  0  0  0  0
    7.2197  -20.7668   28.5716 N   0  0  0  0  0  0  0  0  0  0  0  0
    8.4590  -20.1659   26.7210 N   0  0  0  0  0  0  0  0  0  0  0  0
    8.6478  -19.6503   25.4002 C   0  0  0  0  0  0  0  0  0  0  0  0
    8.4163  -18.1573   25.3273 C   0  0  0  0  0  0  0  0  0  0  0  0
    8.5925  -17.7092   23.8650 C   0  0  0  0  0  0  0  0  0  0  0  0
    8.4115  -16.2467   23.7210 C   0  0  2  0  0  0  0  0  0  0  0  0
    8.5808  -15.6866   22.4228 N   0  0  0  0  0  0  0  0  0  0  0  0
    9.2013  -15.4410   24.7005 C   0  0  0  0  0  0  0  0  0  0  0  0
   10.1537  -14.7386   24.2978 O   0  0  0  0  0  0  0  0  0  0  0  0
    8.1651  -20.6110   29.0282 C   0  0  0  0  0  0  0  0  0  0  0  0
    8.5047  -13.3135   27.2687 C   0  0  1  0  0  0  0  0  0  0  0  0
    9.3733  -14.5156   27.0600 N   0  0  0  0  0  0  0  0  0  0  0  0
    8.9068  -15.4512   26.0839 C   0  0  0  0  0  0  0  0  0  0  0  0
    9.4982  -15.1988   28.4133 O   0  0  0  0  0  0  0  0  0  0  0  0
    9.0067  -16.3302   28.5509 O   0  0  0  0  0  0  0  0  0  0  0  0
  2  1  1  0
  3  2  2  0
  4  2  1  0
  5  4  1  0
  5  6  1  6
  7  5  1  0
  7  8  2  0
  9 10  1  0
 10 11  2  0
 12 13  1  0
 12 10  1  0
 14 13  1  0
 15 14  1  0
 16 15  1  6
 16 17  1  0
 17  7  1  0
 18 16  1  0
 19 18  2  0
 21 20  1  6
 21 22  1  0
 21 23  1  0
 22 18  1  0
 23 25  1  0
 24 23  2  0
M  END
$$$$
