NRA.pdb
     RDKit          3D

 25 24  0  0  1  0  0  0  0  0999 V2000
    8.9986  -14.3143   17.3629 N   0  0  0  0  0  0  0  0  0  0  0  0
    8.4963  -13.2706   18.1668 C   0  0  0  0  0  0  0  0  0  0  0  0
    8.4492  -12.0540   17.8120 O   0  0  0  0  0  0  0  0  0  0  0  0
    7.9758  -13.6108   19.5386 C   0  0  0  0  0  0  0  0  0  0  0  0
    8.1352  -15.1068   19.7542 C   0  0  2  0  0  0  0  0  0  0  0  0
    7.1933  -15.8291   18.9464 N   0  0  0  0  0  0  0  0  0  0  0  0
    7.9672  -15.3430   21.2110 C   0  0  0  0  0  0  0  0  0  0  0  0
    6.7938  -15.4234   21.6434 O   0  0  0  0  0  0  0  0  0  0  0  0
    8.3159  -19.1531   27.5276 N   0  0  0  0  0  0  0  0  0  0  0  0
    9.5585  -18.7312   28.0602 C   0  0  0  0  0  0  0  0  0  0  0  0
    9.7326  -18.5019   29.3426 N   0  0  0  0  0  0  0  0  0  0  0  0
   10.7053  -18.5198   27.2508 N   0  0  0  0  0  0  0  0  0  0  0  0
   10.6753  -18.3154   25.8355 C   0  0  0  0  0  0  0  0  0  0  0  0
    9.6749  -17.2563   25.4286 C   0  0  0  0  0  0  0  0  0  0  0  0
    9.9318  -16.8853   23.9567 C   0  0  0  0  0  0  0  0  0  0  0  0
    8.9696  -15.8662   23.4790 C   0  0  2  0  0  0  0  0  0  0  0  0
    9.0459  -15.4784   22.1110 N   0  0  0  0  0  0  0  0  0  0  0  0
    8.9213  -14.6369   24.3268 C   0  0  0  0  0  0  0  0  0  0  0  0
    9.9526  -13.9459   24.4731 O   0  0  0  0  0  0  0  0  0  0  0  0
   10.7097  -18.1701   29.5907 C   0  0  0  0  0  0  0  0  0  0  0  0
    6.1850  -12.6091   26.0341 C   0  0  1  0  0  0  0  0  0  0  0  0
    7.5875  -13.1000   25.8472 N   0  0  0  0  0  0  0  0  0  0  0  0
    7.7356  -14.2279   24.9804 C   0  0  0  0  0  0  0  0  0  0  0  0
    8.1148  -13.4396   27.2330 O   0  0  0  0  0  0  0  0  0  0  0  0
    8.3760  -14.6253   27.4909 O   0  0  0  0  0  0  0  0  0  0  0  0
  2  1  1  0
  3  2  2  0
  4  2  1  0
  5  4  1  0
  5  6  1  6
  7  5  1  0
  7  8  2  0
  9 10  1  0
 10 11  2  0
 12 13  1  0
 12 10  1  0
 14 13  1  0
 15 14  1  0
 16 15  1  1
 16 17  1  0
 17  7  1  0
 18 16  1  0
 19 18  2  0
 21 20  1  6
 21 22  1  0
 21 23  1  0
 22 18  1  0
 23 25  1  0
 24 23  2  0
M  END
$$$$
