NRA.pdb
     RDKit          3D

 25 24  0  0  1  0  0  0  0  0999 V2000
    8.6146  -11.9944   18.3324 N   0  0  0  0  0  0  0  0  0  0  0  0
    8.0311  -13.2570   18.5631 C   0  0  0  0  0  0  0  0  0  0  0  0
    7.9428  -14.1738   17.6914 O   0  0  0  0  0  0  0  0  0  0  0  0
    7.4751  -13.5492   19.9320 C   0  0  0  0  0  0  0  0  0  0  0  0
    8.5921  -14.1186   20.7913 C   0  0  2  0  0  0  0  0  0  0  0  0
    9.1589  -15.2797   20.1652 N   0  0  0  0  0  0  0  0  0  0  0  0
    7.9983  -14.3968   22.1241 C   0  0  0  0  0  0  0  0  0  0  0  0
    7.5428  -13.4180   22.7604 O   0  0  0  0  0  0  0  0  0  0  0  0
    2.8279  -18.8258   22.8269 N   0  0  0  0  0  0  0  0  0  0  0  0
    3.7333  -19.7313   22.2217 C   0  0  0  0  0  0  0  0  0  0  0  0
    3.3923  -20.4939   21.2071 N   0  0  0  0  0  0  0  0  0  0  0  0
    5.0720  -19.8867   22.6671 N   0  0  0  0  0  0  0  0  0  0  0  0
    5.6308  -19.2298   23.8082 C   0  0  0  0  0  0  0  0  0  0  0  0
    5.9409  -17.7740   23.5390 C   0  0  0  0  0  0  0  0  0  0  0  0
    7.1902  -17.3853   24.3503 C   0  0  0  0  0  0  0  0  0  0  0  0
    7.6226  -16.0014   24.0494 C   0  0  2  0  0  0  0  0  0  0  0  0
    7.9252  -15.6858   22.6942 N   0  0  0  0  0  0  0  0  0  0  0  0
    8.7362  -15.5142   24.9182 C   0  0  0  0  0  0  0  0  0  0  0  0
    9.6459  -14.8144   24.4229 O   0  0  0  0  0  0  0  0  0  0  0  0
    4.1781  -21.1127   20.8519 C   0  0  0  0  0  0  0  0  0  0  0  0
    9.1354  -13.6734   27.4731 C   0  0  1  0  0  0  0  0  0  0  0  0
    9.5230  -15.1096   27.2994 N   0  0  0  0  0  0  0  0  0  0  0  0
    8.7983  -15.8266   26.2963 C   0  0  0  0  0  0  0  0  0  0  0  0
    9.3300  -15.7761   28.6530 O   0  0  0  0  0  0  0  0  0  0  0  0
    9.9987  -15.3646   29.6143 O   0  0  0  0  0  0  0  0  0  0  0  0
  2  1  1  0
  3  2  2  0
  4  2  1  0
  5  4  1  0
  5  6  1  6
  7  5  1  0
  7  8  2  0
  9 10  1  0
 10 11  2  0
 12 13  1  0
 12 10  1  0
 14 13  1  0
 15 14  1  0
 16 15  1  6
 16 17  1  0
 17  7  1  0
 18 16  1  0
 19 18  2  0
 21 20  1  6
 21 22  1  0
 21 23  1  0
 22 18  1  0
 23 25  1  0
 24 23  2  0
M  END
$$$$
