NRA.pdb
     RDKit          3D

 25 24  0  0  1  0  0  0  0  0999 V2000
   14.9240  -16.6758   17.1463 N   0  0  0  0  0  0  0  0  0  0  0  0
   14.3338  -17.5544   18.0777 C   0  0  0  0  0  0  0  0  0  0  0  0
   14.3286  -18.8176   17.9652 O   0  0  0  0  0  0  0  0  0  0  0  0
   13.6648  -16.9662   19.2921 C   0  0  0  0  0  0  0  0  0  0  0  0
   12.6648  -17.9787   19.8258 C   0  0  2  0  0  0  0  0  0  0  0  0
   11.6210  -18.2010   18.8654 N   0  0  0  0  0  0  0  0  0  0  0  0
   12.1718  -17.4422   21.1203 C   0  0  0  0  0  0  0  0  0  0  0  0
   13.0205  -17.2713   22.0263 O   0  0  0  0  0  0  0  0  0  0  0  0
    8.3645  -12.8749   18.3281 N   0  0  0  0  0  0  0  0  0  0  0  0
    8.0113  -12.8570   19.6995 C   0  0  0  0  0  0  0  0  0  0  0  0
    8.5464  -12.0124   20.5526 N   0  0  0  0  0  0  0  0  0  0  0  0
    7.0591  -13.7507   20.2557 N   0  0  0  0  0  0  0  0  0  0  0  0
    7.3137  -14.6293   21.3553 C   0  0  0  0  0  0  0  0  0  0  0  0
    8.7503  -15.1015   21.3932 C   0  0  0  0  0  0  0  0  0  0  0  0
    8.9080  -16.0834   22.5684 C   0  0  0  0  0  0  0  0  0  0  0  0
   10.2657  -16.6733   22.6029 C   0  0  2  0  0  0  0  0  0  0  0  0
   10.8201  -17.1227   21.3706 N   0  0  0  0  0  0  0  0  0  0  0  0
   10.4311  -17.7488   23.6267 C   0  0  0  0  0  0  0  0  0  0  0  0
   10.0164  -18.9027   23.3838 O   0  0  0  0  0  0  0  0  0  0  0  0
    8.3149  -12.2221   21.5669 C   0  0  0  0  0  0  0  0  0  0  0  0
   12.5069  -19.1678   25.9782 C   0  0  1  0  0  0  0  0  0  0  0  0
   11.2012  -18.4350   25.9482 N   0  0  0  0  0  0  0  0  0  0  0  0
   11.0434  -17.5002   24.8773 C   0  0  0  0  0  0  0  0  0  0  0  0
   11.0774  -17.7175   27.2838 O   0  0  0  0  0  0  0  0  0  0  0  0
   11.0253  -16.4774   27.2850 O   0  0  0  0  0  0  0  0  0  0  0  0
  2  1  1  0
  3  2  2  0
  4  2  1  0
  5  4  1  0
  5  6  1  6
  7  5  1  0
  7  8  2  0
  9 10  1  0
 10 11  2  0
 12 13  1  0
 12 10  1  0
 14 13  1  0
 15 14  1  0
 16 15  1  6
 16 17  1  0
 17  7  1  0
 18 16  1  0
 19 18  2  0
 21 20  1  6
 21 22  1  0
 21 23  1  0
 22 18  1  0
 23 25  1  0
 24 23  2  0
M  END
$$$$
