NRA.pdb
     RDKit          3D

 25 24  0  0  1  0  0  0  0  0999 V2000
   14.7000  -14.9045   19.4234 N   0  0  0  0  0  0  0  0  0  0  0  0
   13.6861  -15.8485   19.6854 C   0  0  0  0  0  0  0  0  0  0  0  0
   13.6995  -17.0463   19.2693 O   0  0  0  0  0  0  0  0  0  0  0  0
   12.5052  -15.4187   20.5156 C   0  0  0  0  0  0  0  0  0  0  0  0
   12.3806  -16.3658   21.6978 C   0  0  2  0  0  0  0  0  0  0  0  0
   11.7348  -17.5830   21.2943 N   0  0  0  0  0  0  0  0  0  0  0  0
   11.6416  -15.6271   22.7536 C   0  0  0  0  0  0  0  0  0  0  0  0
   12.2940  -14.8016   23.4341 O   0  0  0  0  0  0  0  0  0  0  0  0
    9.4537  -14.0488   19.7167 N   0  0  0  0  0  0  0  0  0  0  0  0
    8.1709  -13.4833   19.5160 C   0  0  0  0  0  0  0  0  0  0  0  0
    7.6646  -13.2960   18.3177 N   0  0  0  0  0  0  0  0  0  0  0  0
    7.3394  -13.0726   20.5906 N   0  0  0  0  0  0  0  0  0  0  0  0
    7.5882  -13.3642   21.9687 C   0  0  0  0  0  0  0  0  0  0  0  0
    7.6507  -14.8511   22.2395 C   0  0  0  0  0  0  0  0  0  0  0  0
    8.0056  -15.0601   23.7229 C   0  0  0  0  0  0  0  0  0  0  0  0
    9.4713  -15.0624   23.9340 C   0  0  2  0  0  0  0  0  0  0  0  0
   10.2674  -15.8087   23.0192 N   0  0  0  0  0  0  0  0  0  0  0  0
    9.8802  -15.4140   25.3273 C   0  0  0  0  0  0  0  0  0  0  0  0
   10.2748  -16.5724   25.5821 O   0  0  0  0  0  0  0  0  0  0  0  0
    6.7152  -12.8217   18.3220 C   0  0  0  0  0  0  0  0  0  0  0  0
    9.9813  -13.5468   28.6731 C   0  0  1  0  0  0  0  0  0  0  0  0
   10.2475  -14.6807   27.7316 N   0  0  0  0  0  0  0  0  0  0  0  0
    9.8300  -14.4705   26.3799 C   0  0  0  0  0  0  0  0  0  0  0  0
    9.5396  -15.8971   28.3087 O   0  0  0  0  0  0  0  0  0  0  0  0
    9.9318  -16.3471   29.3969 O   0  0  0  0  0  0  0  0  0  0  0  0
  2  1  1  0
  3  2  2  0
  4  2  1  0
  5  4  1  0
  5  6  1  6
  7  5  1  0
  7  8  2  0
  9 10  1  0
 10 11  2  0
 12 13  1  0
 12 10  1  0
 14 13  1  0
 15 14  1  0
 16 15  1  1
 16 17  1  0
 17  7  1  0
 18 16  1  0
 19 18  2  0
 21 20  1  6
 21 22  1  0
 21 23  1  0
 22 18  1  0
 23 25  1  0
 24 23  2  0
M  END
$$$$
