NRA.pdb
     RDKit          3D

 25 24  0  0  1  0  0  0  0  0999 V2000
   17.1568  -11.9563   17.5018 N   0  0  0  0  0  0  0  0  0  0  0  0
   16.9710  -13.2764   17.9609 C   0  0  0  0  0  0  0  0  0  0  0  0
   17.8885  -14.1500   18.0161 O   0  0  0  0  0  0  0  0  0  0  0  0
   15.5972  -13.6872   18.4217 C   0  0  0  0  0  0  0  0  0  0  0  0
   15.0573  -14.7257   17.4521 C   0  0  2  0  0  0  0  0  0  0  0  0
   14.6875  -14.1039   16.2119 N   0  0  0  0  0  0  0  0  0  0  0  0
   13.9225  -15.3940   18.1391 C   0  0  0  0  0  0  0  0  0  0  0  0
   12.8125  -14.8135   18.1020 O   0  0  0  0  0  0  0  0  0  0  0  0
   11.4072  -21.5266   16.7466 N   0  0  0  0  0  0  0  0  0  0  0  0
   10.3243  -21.3561   17.6434 C   0  0  0  0  0  0  0  0  0  0  0  0
    9.0832  -21.2269   17.2307 N   0  0  0  0  0  0  0  0  0  0  0  0
   10.4977  -21.3070   19.0513 N   0  0  0  0  0  0  0  0  0  0  0  0
   11.7050  -20.9117   19.7087 C   0  0  0  0  0  0  0  0  0  0  0  0
   11.7362  -19.4300   20.0113 C   0  0  0  0  0  0  0  0  0  0  0  0
   12.9065  -18.8001   19.2341 C   0  0  0  0  0  0  0  0  0  0  0  0
   12.9874  -17.3400   19.4664 C   0  0  2  0  0  0  0  0  0  0  0  0
   14.0350  -16.6268   18.8170 N   0  0  0  0  0  0  0  0  0  0  0  0
   12.9654  -16.9559   20.9101 C   0  0  0  0  0  0  0  0  0  0  0  0
   14.0146  -17.0299   21.5856 O   0  0  0  0  0  0  0  0  0  0  0  0
    8.3806  -21.0998   18.0160 C   0  0  0  0  0  0  0  0  0  0  0  0
   10.2864  -15.6405   23.3170 C   0  0  1  0  0  0  0  0  0  0  0  0
   11.6529  -16.0975   22.9085 N   0  0  0  0  0  0  0  0  0  0  0  0
   11.7825  -16.5115   21.5456 C   0  0  0  0  0  0  0  0  0  0  0  0
   12.0196  -17.2464   23.8354 O   0  0  0  0  0  0  0  0  0  0  0  0
   12.1771  -17.0037   25.0425 O   0  0  0  0  0  0  0  0  0  0  0  0
  2  1  1  0
  3  2  2  0
  4  2  1  0
  5  4  1  0
  5  6  1  6
  7  5  1  0
  7  8  2  0
  9 10  1  0
 10 11  2  0
 12 13  1  0
 12 10  1  0
 14 13  1  0
 15 14  1  0
 16 15  1  1
 16 17  1  0
 17  7  1  0
 18 16  1  0
 19 18  2  0
 21 20  1  6
 21 22  1  0
 21 23  1  0
 22 18  1  0
 23 25  1  0
 24 23  2  0
M  END
$$$$
