ERA.pdb
     RDKit          3D

 26 25  0  0  1  0  0  0  0  0999 V2000
   14.0974  -16.4411   15.1175 N   0  0  0  0  0  0  0  0  0  0  0  0
   14.2319  -17.3730   16.1943 C   0  0  1  0  0  0  0  0  0  0  0  0
   15.5860  -17.4240   16.7858 C   0  0  0  0  0  0  0  0  0  0  0  0
   16.7108  -17.5199   15.8101 C   0  0  0  0  0  0  0  0  0  0  0  0
   18.0667  -17.5239   16.3494 C   0  0  0  0  0  0  0  0  0  0  0  0
   18.4174  -17.3781   17.5432 O   0  0  0  0  0  0  0  0  0  0  0  0
   13.1570  -17.2045   17.2181 C   0  0  0  0  0  0  0  0  0  0  0  0
   12.5889  -16.0957   17.4094 O   0  0  0  0  0  0  0  0  0  0  0  0
   19.1139  -17.7127   15.4330 O   0  0  0  0  0  0  0  0  0  0  0  0
    7.2594  -23.0982   17.8681 N   0  0  0  0  0  0  0  0  0  0  0  0
    7.5090  -22.4239   16.6567 C   0  0  0  0  0  0  0  0  0  0  0  0
    6.8975  -22.7151   15.5640 N   0  0  0  0  0  0  0  0  0  0  0  0
    8.4776  -21.3760   16.6343 N   0  0  0  0  0  0  0  0  0  0  0  0
    9.1800  -21.0253   17.8512 C   0  0  0  0  0  0  0  0  0  0  0  0
    9.9493  -19.7319   17.6968 C   0  0  0  0  0  0  0  0  0  0  0  0
   10.7568  -19.4839   18.9272 C   0  0  0  0  0  0  0  0  0  0  0  0
   11.5492  -18.2095   18.8766 C   0  0  2  0  0  0  0  0  0  0  0  0
   12.7139  -18.2811   18.0335 N   0  0  0  0  0  0  0  0  0  0  0  0
   11.9972  -17.8870   20.2546 C   0  0  0  0  0  0  0  0  0  0  0  0
   13.1511  -18.2367   20.6305 O   0  0  0  0  0  0  0  0  0  0  0  0
    7.2180  -22.2505   14.6679 C   0  0  0  0  0  0  0  0  0  0  0  0
   10.4614  -15.9545   23.0957 C   0  0  1  0  0  0  0  0  0  0  0  0
   11.6100  -16.7566   22.4899 N   0  0  0  0  0  0  0  0  0  0  0  0
   11.1748  -17.1930   21.1824 C   0  0  0  0  0  0  0  0  0  0  0  0
   12.0215  -17.8600   23.3568 O   0  0  0  0  0  0  0  0  0  0  0  0
   11.5679  -19.0102   23.1579 O   0  0  0  0  0  0  0  0  0  0  0  0
  2  1  1  6
  3  2  1  0
  4  3  1  0
  5  4  1  0
  5  6  2  0
  7  2  1  0
  7  8  2  0
  9  5  1  0
 10 11  1  0
 11 12  2  0
 13 11  1  0
 13 14  1  0
 14 15  1  0
 17 16  1  1
 16 15  1  0
 17 18  1  0
 18  7  1  0
 19 17  1  0
 20 19  2  0
 22 21  1  6
 22 23  1  0
 23 19  1  0
 24 26  1  0
 24 22  1  0
 25 24  2  0
M  END
$$$$
