ERA.pdb
     RDKit          3D

 26 25  0  0  1  0  0  0  0  0999 V2000
   12.4285  -19.7050   20.1601 N   0  0  0  0  0  0  0  0  0  0  0  0
   13.0067  -18.4239   19.8945 C   0  0  1  0  0  0  0  0  0  0  0  0
   12.9097  -17.9964   18.4824 C   0  0  0  0  0  0  0  0  0  0  0  0
   14.1536  -18.1584   17.6745 C   0  0  0  0  0  0  0  0  0  0  0  0
   14.1148  -17.7069   16.2874 C   0  0  0  0  0  0  0  0  0  0  0  0
   13.5108  -18.2356   15.3256 O   0  0  0  0  0  0  0  0  0  0  0  0
   12.5240  -17.3827   20.8509 C   0  0  0  0  0  0  0  0  0  0  0  0
   13.1429  -16.2978   21.0209 O   0  0  0  0  0  0  0  0  0  0  0  0
   14.8359  -16.5421   15.9785 O   0  0  0  0  0  0  0  0  0  0  0  0
    7.6884  -12.1505   19.5226 N   0  0  0  0  0  0  0  0  0  0  0  0
    8.0675  -13.1274   18.5810 C   0  0  0  0  0  0  0  0  0  0  0  0
    8.0633  -12.9063   17.3147 N   0  0  0  0  0  0  0  0  0  0  0  0
    8.4725  -14.4151   19.0442 N   0  0  0  0  0  0  0  0  0  0  0  0
    8.6506  -14.6412   20.4635 C   0  0  0  0  0  0  0  0  0  0  0  0
    9.0388  -16.0741   20.7545 C   0  0  0  0  0  0  0  0  0  0  0  0
    9.3547  -16.2185   22.2059 C   0  0  0  0  0  0  0  0  0  0  0  0
   10.7983  -16.5310   22.4764 C   0  0  2  0  0  0  0  0  0  0  0  0
   11.3425  -17.5541   21.6224 N   0  0  0  0  0  0  0  0  0  0  0  0
   10.9172  -16.9930   23.8821 C   0  0  0  0  0  0  0  0  0  0  0  0
   10.4723  -16.2666   24.8145 O   0  0  0  0  0  0  0  0  0  0  0  0
    8.2910  -13.7088   16.6622 C   0  0  0  0  0  0  0  0  0  0  0  0
   10.9841  -20.0890   25.6354 C   0  0  2  0  0  0  0  0  0  0  0  0
   11.6558  -18.7194   25.5846 N   0  0  0  0  0  0  0  0  0  0  0  0
   11.5174  -18.2329   24.2305 C   0  0  0  0  0  0  0  0  0  0  0  0
   13.0456  -18.7764   26.0357 O   0  0  0  0  0  0  0  0  0  0  0  0
   13.9718  -18.5232   25.2317 O   0  0  0  0  0  0  0  0  0  0  0  0
  2  1  1  6
  3  2  1  0
  4  3  1  0
  5  4  1  0
  5  6  2  0
  7  2  1  0
  7  8  2  0
  9  5  1  0
 10 11  1  0
 11 12  2  0
 13 11  1  0
 13 14  1  0
 14 15  1  0
 17 16  1  6
 16 15  1  0
 17 18  1  0
 18  7  1  0
 19 17  1  0
 20 19  2  0
 22 21  1  1
 22 23  1  0
 23 19  1  0
 24 26  1  0
 24 22  1  0
 25 24  2  0
M  END
$$$$
