ERA.pdb
     RDKit          3D

 26 25  0  0  1  0  0  0  0  0999 V2000
   13.9433  -16.9187   19.5302 N   0  0  0  0  0  0  0  0  0  0  0  0
   12.7319  -17.5265   19.9874 C   0  0  1  0  0  0  0  0  0  0  0  0
   12.8218  -18.9903   20.1752 C   0  0  0  0  0  0  0  0  0  0  0  0
   14.1591  -19.5042   20.5920 C   0  0  0  0  0  0  0  0  0  0  0  0
   14.3119  -20.9501   20.7168 C   0  0  0  0  0  0  0  0  0  0  0  0
   13.4424  -21.8320   20.5282 O   0  0  0  0  0  0  0  0  0  0  0  0
   12.1666  -16.8221   21.1774 C   0  0  0  0  0  0  0  0  0  0  0  0
   12.9053  -16.3408   22.0782 O   0  0  0  0  0  0  0  0  0  0  0  0
   15.5792  -21.4245   21.0925 O   0  0  0  0  0  0  0  0  0  0  0  0
    7.5355  -15.2335   18.0121 N   0  0  0  0  0  0  0  0  0  0  0  0
    7.4151  -13.8428   18.2021 C   0  0  0  0  0  0  0  0  0  0  0  0
    7.5884  -12.9968   17.2499 N   0  0  0  0  0  0  0  0  0  0  0  0
    7.0888  -13.3471   19.5000 N   0  0  0  0  0  0  0  0  0  0  0  0
    7.2387  -14.2096   20.6535 C   0  0  0  0  0  0  0  0  0  0  0  0
    8.6954  -14.4486   20.9844 C   0  0  0  0  0  0  0  0  0  0  0  0
    8.7952  -15.3934   22.1353 C   0  0  0  0  0  0  0  0  0  0  0  0
   10.1977  -15.8521   22.4136 C   0  0  2  0  0  0  0  0  0  0  0  0
   10.7673  -16.6542   21.3627 N   0  0  0  0  0  0  0  0  0  0  0  0
   10.1820  -16.6644   23.6560 C   0  0  0  0  0  0  0  0  0  0  0  0
   10.0369  -17.9166   23.5777 O   0  0  0  0  0  0  0  0  0  0  0  0
    7.5963  -11.9649   17.4878 C   0  0  0  0  0  0  0  0  0  0  0  0
   10.5181  -15.8405   27.3144 C   0  0  1  0  0  0  0  0  0  0  0  0
   10.2892  -16.8383   26.1824 N   0  0  0  0  0  0  0  0  0  0  0  0
   10.3248  -16.0886   24.9470 C   0  0  0  0  0  0  0  0  0  0  0  0
    9.0489  -17.5919   26.3619 O   0  0  0  0  0  0  0  0  0  0  0  0
    8.0245  -17.2668   25.7191 O   0  0  0  0  0  0  0  0  0  0  0  0
  2  1  1  1
  3  2  1  0
  4  3  1  0
  5  4  1  0
  5  6  2  0
  7  2  1  0
  7  8  2  0
  9  5  1  0
 10 11  1  0
 11 12  2  0
 13 11  1  0
 13 14  1  0
 14 15  1  0
 17 16  1  6
 16 15  1  0
 17 18  1  0
 18  7  1  0
 19 17  1  0
 20 19  2  0
 22 21  1  6
 22 23  1  0
 23 19  1  0
 24 26  1  0
 24 22  1  0
 25 24  2  0
M  END
$$$$
