ERA.pdb
     RDKit          3D

 26 25  0  0  1  0  0  0  0  0999 V2000
   13.8042  -17.4535   21.1918 N   0  0  0  0  0  0  0  0  0  0  0  0
   13.0443  -17.8442   22.3389 C   0  0  1  0  0  0  0  0  0  0  0  0
   13.7909  -18.6783   23.3048 C   0  0  0  0  0  0  0  0  0  0  0  0
   14.5882  -19.7913   22.7117 C   0  0  0  0  0  0  0  0  0  0  0  0
   15.3095  -20.6634   23.6330 C   0  0  0  0  0  0  0  0  0  0  0  0
   15.6619  -20.4127   24.8088 O   0  0  0  0  0  0  0  0  0  0  0  0
   12.3627  -16.6805   22.9818 C   0  0  0  0  0  0  0  0  0  0  0  0
   12.9138  -15.5498   23.0648 O   0  0  0  0  0  0  0  0  0  0  0  0
   15.6569  -21.9389   23.1592 O   0  0  0  0  0  0  0  0  0  0  0  0
    7.1758  -12.3203   21.0841 N   0  0  0  0  0  0  0  0  0  0  0  0
    7.3163  -13.3390   20.1212 C   0  0  0  0  0  0  0  0  0  0  0  0
    7.6555  -13.0992   18.9047 N   0  0  0  0  0  0  0  0  0  0  0  0
    7.0736  -14.6921   20.5044 N   0  0  0  0  0  0  0  0  0  0  0  0
    7.2809  -15.0940   21.8802 C   0  0  0  0  0  0  0  0  0  0  0  0
    8.7498  -15.1057   22.2414 C   0  0  0  0  0  0  0  0  0  0  0  0
    8.9117  -15.5725   23.6497 C   0  0  0  0  0  0  0  0  0  0  0  0
   10.3444  -15.6596   24.0907 C   0  0  2  0  0  0  0  0  0  0  0  0
   11.0574  -16.7802   23.5356 N   0  0  0  0  0  0  0  0  0  0  0  0
   10.3675  -15.7858   25.5696 C   0  0  0  0  0  0  0  0  0  0  0  0
   10.3504  -16.9340   26.0955 O   0  0  0  0  0  0  0  0  0  0  0  0
    7.8284  -13.9203   18.2585 C   0  0  0  0  0  0  0  0  0  0  0  0
   10.0986  -13.3615   28.4140 C   0  0  1  0  0  0  0  0  0  0  0  0
   10.4854  -14.7354   27.8734 N   0  0  0  0  0  0  0  0  0  0  0  0
   10.4085  -14.6574   26.4321 C   0  0  0  0  0  0  0  0  0  0  0  0
    9.6530  -15.7975   28.4368 O   0  0  0  0  0  0  0  0  0  0  0  0
    8.5875  -16.1228   27.8647 O   0  0  0  0  0  0  0  0  0  0  0  0
  2  1  1  6
  3  2  1  0
  4  3  1  0
  5  4  1  0
  5  6  2  0
  7  2  1  0
  7  8  2  0
  9  5  1  0
 10 11  1  0
 11 12  2  0
 13 11  1  0
 13 14  1  0
 14 15  1  0
 17 16  1  6
 16 15  1  0
 17 18  1  0
 18  7  1  0
 19 17  1  0
 20 19  2  0
 22 21  1  6
 22 23  1  0
 23 19  1  0
 24 26  1  0
 24 22  1  0
 25 24  2  0
M  END
$$$$
