ERA.pdb
     RDKit          3D

 26 25  0  0  1  0  0  0  0  0999 V2000
   12.0215  -18.6460   20.9088 N   0  0  0  0  0  0  0  0  0  0  0  0
   13.0758  -17.8849   21.5048 C   0  0  1  0  0  0  0  0  0  0  0  0
   14.0760  -17.3774   20.5414 C   0  0  0  0  0  0  0  0  0  0  0  0
   14.2960  -18.2276   19.3351 C   0  0  0  0  0  0  0  0  0  0  0  0
   15.1482  -17.6869   18.2811 C   0  0  0  0  0  0  0  0  0  0  0  0
   14.7932  -17.1944   17.1853 O   0  0  0  0  0  0  0  0  0  0  0  0
   12.5532  -16.8208   22.4139 C   0  0  0  0  0  0  0  0  0  0  0  0
   13.3140  -15.9686   22.9465 O   0  0  0  0  0  0  0  0  0  0  0  0
   16.5338  -17.7153   18.5079 O   0  0  0  0  0  0  0  0  0  0  0  0
    6.6625  -15.2074   18.9997 N   0  0  0  0  0  0  0  0  0  0  0  0
    7.4552  -14.0610   18.7948 C   0  0  0  0  0  0  0  0  0  0  0  0
    7.7004  -13.5894   17.6243 N   0  0  0  0  0  0  0  0  0  0  0  0
    8.0114  -13.3926   19.9265 N   0  0  0  0  0  0  0  0  0  0  0  0
    7.9881  -14.0394   21.2219 C   0  0  0  0  0  0  0  0  0  0  0  0
    9.3649  -14.5125   21.6327 C   0  0  0  0  0  0  0  0  0  0  0  0
    9.2935  -15.1327   22.9883 C   0  0  0  0  0  0  0  0  0  0  0  0
   10.6206  -15.6197   23.4947 C   0  0  2  0  0  0  0  0  0  0  0  0
   11.1720  -16.7076   22.7301 N   0  0  0  0  0  0  0  0  0  0  0  0
   10.4412  -16.0840   24.8933 C   0  0  0  0  0  0  0  0  0  0  0  0
    9.8983  -15.3174   25.7375 O   0  0  0  0  0  0  0  0  0  0  0  0
    8.2710  -12.7005   17.5485 C   0  0  0  0  0  0  0  0  0  0  0  0
   10.0095  -16.7597   27.4780 C   0  0  1  0  0  0  0  0  0  0  0  0
   10.6980  -17.8635   26.6798 N   0  0  0  0  0  0  0  0  0  0  0  0
   10.8586  -17.3697   25.3308 C   0  0  0  0  0  0  0  0  0  0  0  0
    9.9617  -19.1251   26.7462 O   0  0  0  0  0  0  0  0  0  0  0  0
    9.8608  -19.7302   27.8381 O   0  0  0  0  0  0  0  0  0  0  0  0
  2  1  1  6
  3  2  1  0
  4  3  1  0
  5  4  1  0
  5  6  2  0
  7  2  1  0
  7  8  2  0
  9  5  1  0
 10 11  1  0
 11 12  2  0
 13 11  1  0
 13 14  1  0
 14 15  1  0
 17 16  1  6
 16 15  1  0
 17 18  1  0
 18  7  1  0
 19 17  1  0
 20 19  2  0
 22 21  1  1
 22 23  1  0
 23 19  1  0
 24 26  1  0
 24 22  1  0
 25 24  2  0
M  END
$$$$
