ERA.pdb
     RDKit          3D

 26 25  0  0  1  0  0  0  0  0999 V2000
   10.7533  -19.7690   20.2466 N   0  0  0  0  0  0  0  0  0  0  0  0
   11.9908  -19.4147   20.8704 C   0  0  1  0  0  0  0  0  0  0  0  0
   13.0327  -18.9513   19.9293 C   0  0  0  0  0  0  0  0  0  0  0  0
   12.5587  -18.0524   18.8368 C   0  0  0  0  0  0  0  0  0  0  0  0
   13.5553  -17.5712   17.8856 C   0  0  0  0  0  0  0  0  0  0  0  0
   14.7915  -17.7737   17.9022 O   0  0  0  0  0  0  0  0  0  0  0  0
   11.7912  -18.4826   22.0207 C   0  0  0  0  0  0  0  0  0  0  0  0
   12.7542  -18.0889   22.7324 O   0  0  0  0  0  0  0  0  0  0  0  0
   13.0879  -16.7862   16.8191 O   0  0  0  0  0  0  0  0  0  0  0  0
    8.0073  -11.6269   20.4109 N   0  0  0  0  0  0  0  0  0  0  0  0
    8.3565  -12.8851   19.8821 C   0  0  0  0  0  0  0  0  0  0  0  0
    9.1627  -13.0190   18.8899 N   0  0  0  0  0  0  0  0  0  0  0  0
    7.7964  -14.0609   20.4656 N   0  0  0  0  0  0  0  0  0  0  0  0
    8.0585  -14.3632   21.8573 C   0  0  0  0  0  0  0  0  0  0  0  0
    9.2916  -15.2248   22.0172 C   0  0  0  0  0  0  0  0  0  0  0  0
    9.1223  -16.1207   23.1987 C   0  0  0  0  0  0  0  0  0  0  0  0
   10.2935  -17.0306   23.4329 C   0  0  2  0  0  0  0  0  0  0  0  0
   10.5080  -17.9869   22.3785 N   0  0  0  0  0  0  0  0  0  0  0  0
   10.0545  -17.7794   24.6923 C   0  0  0  0  0  0  0  0  0  0  0  0
    8.9187  -18.2887   24.9062 O   0  0  0  0  0  0  0  0  0  0  0  0
    9.3514  -13.9939   18.5219 C   0  0  0  0  0  0  0  0  0  0  0  0
   12.2197  -19.4517   27.1329 C   0  0  2  0  0  0  0  0  0  0  0  0
   10.8947  -18.7364   26.8838 N   0  0  0  0  0  0  0  0  0  0  0  0
   11.0599  -17.9513   25.6814 C   0  0  0  0  0  0  0  0  0  0  0  0
   10.4792  -17.9401   28.0377 O   0  0  0  0  0  0  0  0  0  0  0  0
   10.4375  -16.6916   27.9498 O   0  0  0  0  0  0  0  0  0  0  0  0
  2  1  1  6
  3  2  1  0
  4  3  1  0
  5  4  1  0
  5  6  2  0
  7  2  1  0
  7  8  2  0
  9  5  1  0
 10 11  1  0
 11 12  2  0
 13 11  1  0
 13 14  1  0
 14 15  1  0
 17 16  1  6
 16 15  1  0
 17 18  1  0
 18  7  1  0
 19 17  1  0
 20 19  2  0
 22 21  1  6
 22 23  1  0
 23 19  1  0
 24 26  1  0
 24 22  1  0
 25 24  2  0
M  END
$$$$
