ERA.pdb
     RDKit          3D

 26 25  0  0  1  0  0  0  0  0999 V2000
   11.7514  -19.3357   17.8116 N   0  0  0  0  0  0  0  0  0  0  0  0
   12.9733  -18.9156   18.4251 C   0  0  1  0  0  0  0  0  0  0  0  0
   13.9037  -18.2216   17.5092 C   0  0  0  0  0  0  0  0  0  0  0  0
   13.2653  -17.3235   16.5032 C   0  0  0  0  0  0  0  0  0  0  0  0
   14.1282  -16.7464   15.4775 C   0  0  0  0  0  0  0  0  0  0  0  0
   15.3628  -16.9048   15.3363 O   0  0  0  0  0  0  0  0  0  0  0  0
   12.7331  -18.1597   19.6911 C   0  0  0  0  0  0  0  0  0  0  0  0
   13.6807  -17.7973   20.4393 O   0  0  0  0  0  0  0  0  0  0  0  0
   13.5157  -15.9117   14.5287 O   0  0  0  0  0  0  0  0  0  0  0  0
    7.9077  -14.7137   17.8013 N   0  0  0  0  0  0  0  0  0  0  0  0
    8.1400  -13.4992   18.4762 C   0  0  0  0  0  0  0  0  0  0  0  0
    8.4239  -12.4079   17.8590 N   0  0  0  0  0  0  0  0  0  0  0  0
    8.0593  -13.4724   19.9008 N   0  0  0  0  0  0  0  0  0  0  0  0
    8.2340  -14.6991   20.6503 C   0  0  0  0  0  0  0  0  0  0  0  0
    9.6706  -15.1720   20.6170 C   0  0  0  0  0  0  0  0  0  0  0  0
    9.7904  -16.4517   21.3754 C   0  0  0  0  0  0  0  0  0  0  0  0
   11.1656  -17.0525   21.3229 C   0  0  2  0  0  0  0  0  0  0  0  0
   11.4263  -17.8063   20.1245 N   0  0  0  0  0  0  0  0  0  0  0  0
   11.3175  -17.9654   22.4835 C   0  0  0  0  0  0  0  0  0  0  0  0
   10.6036  -19.0049   22.5539 O   0  0  0  0  0  0  0  0  0  0  0  0
    8.5909  -11.5334   18.4324 C   0  0  0  0  0  0  0  0  0  0  0  0
   13.8544  -18.3667   25.1723 C   0  0  1  0  0  0  0  0  0  0  0  0
   12.4270  -18.5835   24.6770 N   0  0  0  0  0  0  0  0  0  0  0  0
   12.2427  -17.7190   23.5333 C   0  0  0  0  0  0  0  0  0  0  0  0
   11.4424  -18.3564   25.7339 O   0  0  0  0  0  0  0  0  0  0  0  0
   11.3846  -19.1395   26.7095 O   0  0  0  0  0  0  0  0  0  0  0  0
  2  1  1  6
  3  2  1  0
  4  3  1  0
  5  4  1  0
  5  6  2  0
  7  2  1  0
  7  8  2  0
  9  5  1  0
 10 11  1  0
 11 12  2  0
 13 11  1  0
 13 14  1  0
 14 15  1  0
 17 16  1  6
 16 15  1  0
 17 18  1  0
 18  7  1  0
 19 17  1  0
 20 19  2  0
 22 21  1  6
 22 23  1  0
 23 19  1  0
 24 26  1  0
 24 22  1  0
 25 24  2  0
M  END
$$$$
