ERA.pdb
     RDKit          3D

 26 25  0  0  1  0  0  0  0  0999 V2000
   16.4749  -14.8319   18.7335 N   0  0  0  0  0  0  0  0  0  0  0  0
   15.5347  -13.8768   18.2339 C   0  0  1  0  0  0  0  0  0  0  0  0
   15.7323  -13.5183   16.8131 C   0  0  0  0  0  0  0  0  0  0  0  0
   17.1522  -13.3751   16.3775 C   0  0  0  0  0  0  0  0  0  0  0  0
   17.3911  -12.9513   15.0017 C   0  0  0  0  0  0  0  0  0  0  0  0
   17.1383  -13.5832   13.9499 O   0  0  0  0  0  0  0  0  0  0  0  0
   14.1254  -14.2631   18.5446 C   0  0  0  0  0  0  0  0  0  0  0  0
   13.1481  -13.5438   18.2037 O   0  0  0  0  0  0  0  0  0  0  0  0
   17.9735  -11.6865   14.8190 O   0  0  0  0  0  0  0  0  0  0  0  0
   14.3805  -20.7847   19.7471 N   0  0  0  0  0  0  0  0  0  0  0  0
   14.5719  -20.8386   18.3525 C   0  0  0  0  0  0  0  0  0  0  0  0
   15.5325  -21.4993   17.8109 N   0  0  0  0  0  0  0  0  0  0  0  0
   13.6682  -20.1340   17.5019 N   0  0  0  0  0  0  0  0  0  0  0  0
   12.6218  -19.3214   18.0867 C   0  0  0  0  0  0  0  0  0  0  0  0
   13.1600  -18.0021   18.5948 C   0  0  0  0  0  0  0  0  0  0  0  0
   12.0311  -17.1653   19.0976 C   0  0  0  0  0  0  0  0  0  0  0  0
   12.4644  -15.8245   19.6164 C   0  0  2  0  0  0  0  0  0  0  0  0
   13.8055  -15.4604   19.2407 N   0  0  0  0  0  0  0  0  0  0  0  0
   12.3939  -15.8560   21.0989 C   0  0  0  0  0  0  0  0  0  0  0  0
   13.4444  -16.0707   21.7664 O   0  0  0  0  0  0  0  0  0  0  0  0
   15.6912  -21.3951   16.7690 C   0  0  0  0  0  0  0  0  0  0  0  0
    9.6651  -15.2500   23.6114 C   0  0  1  0  0  0  0  0  0  0  0  0
   11.0424  -15.7946   23.2423 N   0  0  0  0  0  0  0  0  0  0  0  0
   11.1810  -15.6527   21.8105 C   0  0  0  0  0  0  0  0  0  0  0  0
   11.2270  -17.1697   23.7042 O   0  0  0  0  0  0  0  0  0  0  0  0
   11.0332  -18.1227   22.9151 O   0  0  0  0  0  0  0  0  0  0  0  0
  2  1  1  6
  3  2  1  0
  4  3  1  0
  5  4  1  0
  5  6  2  0
  7  2  1  0
  7  8  2  0
  9  5  1  0
 10 11  1  0
 11 12  2  0
 13 11  1  0
 13 14  1  0
 14 15  1  0
 17 16  1  6
 16 15  1  0
 17 18  1  0
 18  7  1  0
 19 17  1  0
 20 19  2  0
 22 21  1  1
 22 23  1  0
 23 19  1  0
 24 26  1  0
 24 22  1  0
 25 24  2  0
M  END
$$$$
