ERA.pdb
     RDKit          3D

 26 25  0  0  1  0  0  0  0  0999 V2000
   11.5563  -21.5386   20.5785 N   0  0  0  0  0  0  0  0  0  0  0  0
   10.3020  -20.9597   20.9494 C   0  0  1  0  0  0  0  0  0  0  0  0
    9.3948  -21.8847   21.6617 C   0  0  0  0  0  0  0  0  0  0  0  0
   10.0627  -22.9712   22.4361 C   0  0  0  0  0  0  0  0  0  0  0  0
    9.2032  -23.9311   23.1211 C   0  0  0  0  0  0  0  0  0  0  0  0
    9.0957  -25.1593   22.8984 O   0  0  0  0  0  0  0  0  0  0  0  0
   10.4748  -19.6557   21.6576 C   0  0  0  0  0  0  0  0  0  0  0  0
   11.4691  -19.4279   22.3982 O   0  0  0  0  0  0  0  0  0  0  0  0
    8.3942  -23.4337   24.1556 O   0  0  0  0  0  0  0  0  0  0  0  0
    7.0691  -11.8468   20.0635 N   0  0  0  0  0  0  0  0  0  0  0  0
    7.8758  -12.8442   19.4813 C   0  0  0  0  0  0  0  0  0  0  0  0
    8.1294  -12.8810   18.2216 N   0  0  0  0  0  0  0  0  0  0  0  0
    8.4359  -13.8567   20.3166 N   0  0  0  0  0  0  0  0  0  0  0  0
    8.0656  -13.9156   21.7154 C   0  0  0  0  0  0  0  0  0  0  0  0
    8.8435  -14.9832   22.4527 C   0  0  0  0  0  0  0  0  0  0  0  0
    8.7133  -16.2820   21.7293 C   0  0  0  0  0  0  0  0  0  0  0  0
    9.6659  -17.3361   22.2152 C   0  0  2  0  0  0  0  0  0  0  0  0
    9.5313  -18.5994   21.5382 N   0  0  0  0  0  0  0  0  0  0  0  0
    9.4128  -17.5590   23.6609 C   0  0  0  0  0  0  0  0  0  0  0  0
    8.3890  -18.2056   24.0198 O   0  0  0  0  0  0  0  0  0  0  0  0
    8.7196  -13.6776   17.8494 C   0  0  0  0  0  0  0  0  0  0  0  0
   10.1826  -18.8146   26.3016 C   0  0  2  0  0  0  0  0  0  0  0  0
   10.1001  -17.3056   26.0874 N   0  0  0  0  0  0  0  0  0  0  0  0
   10.2826  -17.0709   24.6728 C   0  0  0  0  0  0  0  0  0  0  0  0
   11.0619  -16.5832   26.9187 O   0  0  0  0  0  0  0  0  0  0  0  0
   11.9731  -15.9151   26.3787 O   0  0  0  0  0  0  0  0  0  0  0  0
  2  1  1  1
  3  2  1  0
  4  3  1  0
  5  4  1  0
  5  6  2  0
  7  2  1  0
  7  8  2  0
  9  5  1  0
 10 11  1  0
 11 12  2  0
 13 11  1  0
 13 14  1  0
 14 15  1  0
 17 16  1  6
 16 15  1  0
 17 18  1  0
 18  7  1  0
 19 17  1  0
 20 19  2  0
 22 21  1  6
 22 23  1  0
 23 19  1  0
 24 26  1  0
 24 22  1  0
 25 24  2  0
M  END
$$$$
