ERA.pdb
     RDKit          3D

 26 25  0  0  1  0  0  0  0  0999 V2000
   15.1668  -14.8464   15.0420 N   0  0  0  0  0  0  0  0  0  0  0  0
   15.0486  -15.8855   16.0178 C   0  0  1  0  0  0  0  0  0  0  0  0
   16.2433  -16.7493   16.1307 C   0  0  0  0  0  0  0  0  0  0  0  0
   16.2147  -17.7442   17.2422 C   0  0  0  0  0  0  0  0  0  0  0  0
   17.3670  -18.6292   17.3787 C   0  0  0  0  0  0  0  0  0  0  0  0
   18.4065  -18.4363   18.0508 O   0  0  0  0  0  0  0  0  0  0  0  0
   14.5827  -15.3635   17.3378 C   0  0  0  0  0  0  0  0  0  0  0  0
   15.2626  -14.5366   18.0034 O   0  0  0  0  0  0  0  0  0  0  0  0
   17.3194  -19.8459   16.6792 O   0  0  0  0  0  0  0  0  0  0  0  0
    6.7929  -12.9302   18.9543 N   0  0  0  0  0  0  0  0  0  0  0  0
    7.7992  -13.1999   18.0060 C   0  0  0  0  0  0  0  0  0  0  0  0
    7.6042  -13.0903   16.7401 N   0  0  0  0  0  0  0  0  0  0  0  0
    9.0874  -13.6118   18.4616 N   0  0  0  0  0  0  0  0  0  0  0  0
    9.3576  -13.6727   19.8829 C   0  0  0  0  0  0  0  0  0  0  0  0
   10.7780  -14.1125   20.1612 C   0  0  0  0  0  0  0  0  0  0  0  0
   11.3697  -14.6959   18.9215 C   0  0  0  0  0  0  0  0  0  0  0  0
   12.7889  -15.1550   19.0941 C   0  0  2  0  0  0  0  0  0  0  0  0
   13.3498  -15.7676   17.9183 N   0  0  0  0  0  0  0  0  0  0  0  0
   12.8235  -16.1516   20.1938 C   0  0  0  0  0  0  0  0  0  0  0  0
   12.3441  -17.3043   20.0028 O   0  0  0  0  0  0  0  0  0  0  0  0
    8.3905  -13.3598   16.0839 C   0  0  0  0  0  0  0  0  0  0  0  0
   14.4192  -16.2504   23.5838 C   0  0  1  0  0  0  0  0  0  0  0  0
   13.4130  -16.7949   22.5735 N   0  0  0  0  0  0  0  0  0  0  0  0
   13.3794  -15.8629   21.4691 C   0  0  0  0  0  0  0  0  0  0  0  0
   12.1001  -17.0183   23.1773 O   0  0  0  0  0  0  0  0  0  0  0  0
   11.1433  -16.2660   22.8826 O   0  0  0  0  0  0  0  0  0  0  0  0
  2  1  1  6
  3  2  1  0
  4  3  1  0
  5  4  1  0
  5  6  2  0
  7  2  1  0
  7  8  2  0
  9  5  1  0
 10 11  1  0
 11 12  2  0
 13 11  1  0
 13 14  1  0
 14 15  1  0
 17 16  1  6
 16 15  1  0
 17 18  1  0
 18  7  1  0
 19 17  1  0
 20 19  2  0
 22 21  1  6
 22 23  1  0
 23 19  1  0
 24 26  1  0
 24 22  1  0
 25 24  2  0
M  END
$$$$
