ERA.pdb
     RDKit          3D

 26 25  0  0  1  0  0  0  0  0999 V2000
   13.3423  -19.4790   16.8830 N   0  0  0  0  0  0  0  0  0  0  0  0
   12.4195  -19.9088   17.8878 C   0  0  1  0  0  0  0  0  0  0  0  0
   12.5802  -21.3214   18.2937 C   0  0  0  0  0  0  0  0  0  0  0  0
   12.4161  -22.3265   17.2031 C   0  0  0  0  0  0  0  0  0  0  0  0
   12.5203  -23.7352   17.5694 C   0  0  0  0  0  0  0  0  0  0  0  0
   12.3660  -24.7334   16.8283 O   0  0  0  0  0  0  0  0  0  0  0  0
   12.3812  -18.9714   19.0505 C   0  0  0  0  0  0  0  0  0  0  0  0
   13.4301  -18.4598   19.5270 O   0  0  0  0  0  0  0  0  0  0  0  0
   12.8298  -24.0217   18.9088 O   0  0  0  0  0  0  0  0  0  0  0  0
    6.7147  -12.9537   21.0990 N   0  0  0  0  0  0  0  0  0  0  0  0
    7.6258  -13.3568   20.1029 C   0  0  0  0  0  0  0  0  0  0  0  0
    7.5701  -12.9181   18.8959 N   0  0  0  0  0  0  0  0  0  0  0  0
    8.6527  -14.2887   20.4401 N   0  0  0  0  0  0  0  0  0  0  0  0
    8.6521  -14.9117   21.7473 C   0  0  0  0  0  0  0  0  0  0  0  0
    9.8309  -15.8439   21.9203 C   0  0  0  0  0  0  0  0  0  0  0  0
    9.9165  -16.7604   20.7455 C   0  0  0  0  0  0  0  0  0  0  0  0
   11.0939  -17.6908   20.7965 C   0  0  2  0  0  0  0  0  0  0  0  0
   11.1638  -18.6030   19.6851 N   0  0  0  0  0  0  0  0  0  0  0  0
   10.9993  -18.4906   22.0435 C   0  0  0  0  0  0  0  0  0  0  0  0
    9.9844  -19.2162   22.2407 O   0  0  0  0  0  0  0  0  0  0  0  0
    8.2289  -13.3329   18.1779 C   0  0  0  0  0  0  0  0  0  0  0  0
   13.4117  -19.2428   24.8165 C   0  0  1  0  0  0  0  0  0  0  0  0
   12.0094  -19.3127   24.2180 N   0  0  0  0  0  0  0  0  0  0  0  0
   12.0130  -18.4764   23.0390 C   0  0  0  0  0  0  0  0  0  0  0  0
   10.9828  -18.9341   25.1881 O   0  0  0  0  0  0  0  0  0  0  0  0
   10.4101  -17.8250   25.0874 O   0  0  0  0  0  0  0  0  0  0  0  0
  2  1  1  6
  3  2  1  0
  4  3  1  0
  5  4  1  0
  5  6  2  0
  7  2  1  0
  7  8  2  0
  9  5  1  0
 10 11  1  0
 11 12  2  0
 13 11  1  0
 13 14  1  0
 14 15  1  0
 17 16  1  6
 16 15  1  0
 17 18  1  0
 18  7  1  0
 19 17  1  0
 20 19  2  0
 22 21  1  6
 22 23  1  0
 23 19  1  0
 24 26  1  0
 24 22  1  0
 25 24  2  0
M  END
$$$$
