ERA.pdb
     RDKit          3D

 26 25  0  0  1  0  0  0  0  0999 V2000
   13.4127  -17.4735   21.1457 N   0  0  0  0  0  0  0  0  0  0  0  0
   12.3560  -17.8829   22.0185 C   0  0  1  0  0  0  0  0  0  0  0  0
   12.6468  -19.1123   22.7866 C   0  0  0  0  0  0  0  0  0  0  0  0
   14.0105  -19.1879   23.3873 C   0  0  0  0  0  0  0  0  0  0  0  0
   14.1352  -19.8426   24.6855 C   0  0  0  0  0  0  0  0  0  0  0  0
   13.2165  -20.2936   25.4081 O   0  0  0  0  0  0  0  0  0  0  0  0
   11.8744  -16.7608   22.8791 C   0  0  0  0  0  0  0  0  0  0  0  0
   12.6617  -15.8907   23.3397 O   0  0  0  0  0  0  0  0  0  0  0  0
   15.4337  -19.9923   25.1989 O   0  0  0  0  0  0  0  0  0  0  0  0
    8.0501  -14.3255   18.8049 N   0  0  0  0  0  0  0  0  0  0  0  0
    7.4608  -13.5975   19.8572 C   0  0  0  0  0  0  0  0  0  0  0  0
    7.7571  -12.3706   20.1006 N   0  0  0  0  0  0  0  0  0  0  0  0
    6.4970  -14.2414   20.6898 N   0  0  0  0  0  0  0  0  0  0  0  0
    6.8161  -14.5116   22.0763 C   0  0  0  0  0  0  0  0  0  0  0  0
    8.2961  -14.7587   22.2689 C   0  0  0  0  0  0  0  0  0  0  0  0
    8.5510  -15.1757   23.6790 C   0  0  0  0  0  0  0  0  0  0  0  0
    9.9938  -15.4812   23.9616 C   0  0  2  0  0  0  0  0  0  0  0  0
   10.5047  -16.6093   23.2278 N   0  0  0  0  0  0  0  0  0  0  0  0
   10.1307  -15.7739   25.4105 C   0  0  0  0  0  0  0  0  0  0  0  0
   10.1039  -16.9726   25.8073 O   0  0  0  0  0  0  0  0  0  0  0  0
    7.3484  -11.9153   20.9650 C   0  0  0  0  0  0  0  0  0  0  0  0
   10.1797  -13.6844   28.5176 C   0  0  1  0  0  0  0  0  0  0  0  0
   10.4840  -14.9947   27.7964 N   0  0  0  0  0  0  0  0  0  0  0  0
   10.2927  -14.7520   26.3843 C   0  0  0  0  0  0  0  0  0  0  0  0
    9.6714  -16.0988   28.3051 O   0  0  0  0  0  0  0  0  0  0  0  0
    8.5491  -16.3300   27.7998 O   0  0  0  0  0  0  0  0  0  0  0  0
  2  1  1  1
  3  2  1  0
  4  3  1  0
  5  4  1  0
  5  6  2  0
  7  2  1  0
  7  8  2  0
  9  5  1  0
 10 11  1  0
 11 12  2  0
 13 11  1  0
 13 14  1  0
 14 15  1  0
 17 16  1  1
 16 15  1  0
 17 18  1  0
 18  7  1  0
 19 17  1  0
 20 19  2  0
 22 21  1  6
 22 23  1  0
 23 19  1  0
 24 26  1  0
 24 22  1  0
 25 24  2  0
M  END
$$$$
