ERA.pdb
     RDKit          3D

 26 25  0  0  1  0  0  0  0  0999 V2000
   11.1563  -19.1036   22.1722 N   0  0  0  0  0  0  0  0  0  0  0  0
   12.2091  -18.1967   22.5113 C   0  0  1  0  0  0  0  0  0  0  0  0
   13.0771  -17.8234   21.3740 C   0  0  0  0  0  0  0  0  0  0  0  0
   12.3659  -17.4789   20.1084 C   0  0  0  0  0  0  0  0  0  0  0  0
   13.1853  -17.1046   18.9603 C   0  0  0  0  0  0  0  0  0  0  0  0
   12.7960  -16.7182   17.8340 O   0  0  0  0  0  0  0  0  0  0  0  0
   11.7052  -17.0126   23.2702 C   0  0  0  0  0  0  0  0  0  0  0  0
   12.4482  -16.0311   23.5414 O   0  0  0  0  0  0  0  0  0  0  0  0
   14.5781  -17.1815   19.1223 O   0  0  0  0  0  0  0  0  0  0  0  0
    7.9030  -14.9569   19.3055 N   0  0  0  0  0  0  0  0  0  0  0  0
    7.9015  -13.6900   19.9215 C   0  0  0  0  0  0  0  0  0  0  0  0
    7.7252  -12.6004   19.2626 N   0  0  0  0  0  0  0  0  0  0  0  0
    8.1036  -13.6056   21.3318 N   0  0  0  0  0  0  0  0  0  0  0  0
    7.6135  -14.6647   22.1892 C   0  0  0  0  0  0  0  0  0  0  0  0
    7.9053  -14.3814   23.6462 C   0  0  0  0  0  0  0  0  0  0  0  0
    8.3436  -15.6393   24.3191 C   0  0  0  0  0  0  0  0  0  0  0  0
    9.8355  -15.7761   24.4196 C   0  0  2  0  0  0  0  0  0  0  0  0
   10.3628  -16.9239   23.7291 N   0  0  0  0  0  0  0  0  0  0  0  0
   10.1945  -15.8970   25.8550 C   0  0  0  0  0  0  0  0  0  0  0  0
   10.3867  -17.0416   26.3530 O   0  0  0  0  0  0  0  0  0  0  0  0
    7.7544  -11.6823   19.7896 C   0  0  0  0  0  0  0  0  0  0  0  0
   10.3791  -13.4594   28.7031 C   0  0  1  0  0  0  0  0  0  0  0  0
   10.6488  -14.8415   28.1141 N   0  0  0  0  0  0  0  0  0  0  0  0
   10.3334  -14.7673   26.7054 C   0  0  0  0  0  0  0  0  0  0  0  0
    9.9058  -15.8877   28.8152 O   0  0  0  0  0  0  0  0  0  0  0  0
    8.7652  -16.2157   28.4153 O   0  0  0  0  0  0  0  0  0  0  0  0
  2  1  1  6
  3  2  1  0
  4  3  1  0
  5  4  1  0
  5  6  2  0
  7  2  1  0
  7  8  2  0
  9  5  1  0
 10 11  1  0
 11 12  2  0
 13 11  1  0
 13 14  1  0
 14 15  1  0
 17 16  1  1
 16 15  1  0
 17 18  1  0
 18  7  1  0
 19 17  1  0
 20 19  2  0
 22 21  1  6
 22 23  1  0
 23 19  1  0
 24 26  1  0
 24 22  1  0
 25 24  2  0
M  END
$$$$
