ERA.pdb
     RDKit          3D

 26 25  0  0  1  0  0  0  0  0999 V2000
   14.6188  -17.4611   21.4782 N   0  0  0  0  0  0  0  0  0  0  0  0
   13.3550  -17.9261   21.9603 C   0  0  1  0  0  0  0  0  0  0  0  0
   13.4185  -19.2159   22.6804 C   0  0  0  0  0  0  0  0  0  0  0  0
   14.6010  -19.3969   23.5721 C   0  0  0  0  0  0  0  0  0  0  0  0
   14.7197  -20.6690   24.2772 C   0  0  0  0  0  0  0  0  0  0  0  0
   14.2962  -20.9538   25.4214 O   0  0  0  0  0  0  0  0  0  0  0  0
   12.6242  -16.8702   22.7239 C   0  0  0  0  0  0  0  0  0  0  0  0
   13.2316  -16.0101   23.4168 O   0  0  0  0  0  0  0  0  0  0  0  0
   15.3854  -21.7073   23.6058 O   0  0  0  0  0  0  0  0  0  0  0  0
    7.7631  -12.0034   21.2157 N   0  0  0  0  0  0  0  0  0  0  0  0
    7.4091  -13.2097   20.5799 C   0  0  0  0  0  0  0  0  0  0  0  0
    7.3910  -13.3383   19.3010 N   0  0  0  0  0  0  0  0  0  0  0  0
    7.0552  -14.3366   21.3808 N   0  0  0  0  0  0  0  0  0  0  0  0
    7.0194  -14.2064   22.8226 C   0  0  0  0  0  0  0  0  0  0  0  0
    8.4004  -14.3316   23.4273 C   0  0  0  0  0  0  0  0  0  0  0  0
    9.0789  -15.5391   22.8715 C   0  0  0  0  0  0  0  0  0  0  0  0
   10.4776  -15.7290   23.3835 C   0  0  2  0  0  0  0  0  0  0  0  0
   11.2061  -16.7743   22.7136 N   0  0  0  0  0  0  0  0  0  0  0  0
   10.4008  -16.0725   24.8257 C   0  0  0  0  0  0  0  0  0  0  0  0
   10.2432  -17.2774   25.1697 O   0  0  0  0  0  0  0  0  0  0  0  0
    7.1041  -14.2722   18.8924 C   0  0  0  0  0  0  0  0  0  0  0  0
   10.3116  -14.0606   27.9958 C   0  0  1  0  0  0  0  0  0  0  0  0
   10.4839  -15.3895   27.2652 N   0  0  0  0  0  0  0  0  0  0  0  0
   10.4980  -15.0931   25.8505 C   0  0  0  0  0  0  0  0  0  0  0  0
    9.4523  -16.3558   27.6398 O   0  0  0  0  0  0  0  0  0  0  0  0
    8.3922  -16.4231   26.9764 O   0  0  0  0  0  0  0  0  0  0  0  0
  2  1  1  1
  3  2  1  0
  4  3  1  0
  5  4  1  0
  5  6  2  0
  7  2  1  0
  7  8  2  0
  9  5  1  0
 10 11  1  0
 11 12  2  0
 13 11  1  0
 13 14  1  0
 14 15  1  0
 17 16  1  6
 16 15  1  0
 17 18  1  0
 18  7  1  0
 19 17  1  0
 20 19  2  0
 22 21  1  1
 22 23  1  0
 23 19  1  0
 24 26  1  0
 24 22  1  0
 25 24  2  0
M  END
$$$$
