SPS.pdb
     RDKit          3D

 20 20  0  0  1  0  0  0  0  0999 V2000
    6.6579  -14.6256   26.5426 O   0  0  0  0  0  0  0  0  0  0  0  0
    7.5370  -15.1512   25.5955 C   0  0  0  0  0  0  0  0  0  0  0  0
    6.7363  -16.0340   24.6663 C   0  0  2  0  0  0  0  0  0  0  0  0
    6.1818  -17.1342   25.3850 N   0  0  0  0  0  0  0  0  0  0  0  0
    7.5014  -16.4175   23.4614 C   0  0  0  0  0  0  0  0  0  0  0  0
    7.7939  -17.6306   23.3259 O   0  0  0  0  0  0  0  0  0  0  0  0
    7.9202  -15.5103   22.4611 N   0  0  0  0  0  0  0  0  0  0  0  0
    7.6131  -14.0941   22.4912 C   0  0  0  0  0  0  0  0  0  0  0  0
    8.1786  -13.5180   21.2114 C   0  0  0  0  0  0  0  0  0  0  0  0
    8.4178  -14.6786   20.3025 C   0  0  0  0  0  0  0  0  0  0  0  0
    8.6908  -15.8163   21.2877 C   0  0  1  0  0  0  0  0  0  0  0  0
   10.1554  -15.7980   21.5559 C   0  0  0  0  0  0  0  0  0  0  0  0
   10.6934  -14.7165   21.8955 O   0  0  0  0  0  0  0  0  0  0  0  0
   11.8397  -18.9707   23.0576 O   0  0  0  0  0  0  0  0  0  0  0  0
   12.5567  -17.7771   23.1169 C   0  0  0  0  0  0  0  0  0  0  0  0
   12.3410  -17.0298   21.7990 C   0  0  2  0  0  0  0  0  0  0  0  0
   10.9621  -16.9619   21.4403 N   0  0  0  0  0  0  0  0  0  0  0  0
   13.1966  -17.5945   20.7289 C   0  0  0  0  0  0  0  0  0  0  0  0
   14.4377  -17.5864   20.9058 O   0  0  0  0  0  0  0  0  0  0  0  0
   12.7141  -18.1288   19.5496 O   0  0  0  0  0  0  0  0  0  0  0  0
  2  1  1  0
  3  2  1  0
  3  4  1  1
  5  7  1  0
  5  3  1  0
  6  5  2  0
  7  8  1  0
  9  8  1  0
 10 11  1  0
 10  9  1  0
 11  7  1  0
 11 12  1  1
 12 17  1  0
 13 12  2  0
 16 15  1  1
 15 14  1  0
 16 18  1  0
 17 16  1  0
 18 20  1  0
 19 18  2  0
M  END
$$$$
