SPS.pdb
     RDKit          3D

 20 20  0  0  1  0  0  0  0  0999 V2000
    7.0579  -18.6449   18.5620 O   0  0  0  0  0  0  0  0  0  0  0  0
    6.4186  -17.4422   18.2607 C   0  0  0  0  0  0  0  0  0  0  0  0
    7.3938  -16.5855   17.4868 C   0  0  2  0  0  0  0  0  0  0  0  0
    7.8892  -17.2989   16.3554 N   0  0  0  0  0  0  0  0  0  0  0  0
    8.4451  -16.0125   18.3532 C   0  0  0  0  0  0  0  0  0  0  0  0
    9.6013  -16.4902   18.2500 O   0  0  0  0  0  0  0  0  0  0  0  0
    8.2306  -14.9688   19.2825 N   0  0  0  0  0  0  0  0  0  0  0  0
    6.9899  -14.2248   19.3724 C   0  0  0  0  0  0  0  0  0  0  0  0
    7.2138  -13.1679   20.4318 C   0  0  0  0  0  0  0  0  0  0  0  0
    8.6927  -13.0686   20.6147 C   0  0  0  0  0  0  0  0  0  0  0  0
    9.1628  -14.4804   20.2608 C   0  0  1  0  0  0  0  0  0  0  0  0
    9.1172  -15.2679   21.5237 C   0  0  0  0  0  0  0  0  0  0  0  0
    7.9994  -15.5489   22.0198 O   0  0  0  0  0  0  0  0  0  0  0  0
   11.8554  -18.0181   22.2308 O   0  0  0  0  0  0  0  0  0  0  0  0
   10.6408  -18.0271   22.9142 C   0  0  0  0  0  0  0  0  0  0  0  0
   10.3104  -16.5863   23.3102 C   0  0  2  0  0  0  0  0  0  0  0  0
   10.2946  -15.7106   22.1843 N   0  0  0  0  0  0  0  0  0  0  0  0
   11.2026  -16.1230   24.3990 C   0  0  0  0  0  0  0  0  0  0  0  0
   11.9757  -15.1666   24.1557 O   0  0  0  0  0  0  0  0  0  0  0  0
   11.2366  -16.6775   25.6640 O   0  0  0  0  0  0  0  0  0  0  0  0
  2  1  1  0
  3  2  1  0
  3  4  1  6
  5  7  1  0
  5  3  1  0
  6  5  2  0
  7  8  1  0
  9  8  1  0
 10 11  1  0
 10  9  1  0
 11  7  1  0
 11 12  1  1
 12 17  1  0
 13 12  2  0
 16 15  1  6
 15 14  1  0
 16 18  1  0
 17 16  1  0
 18 20  1  0
 19 18  2  0
M  END
$$$$
