SPS.pdb
     RDKit          3D

 20 20  0  0  1  0  0  0  0  0999 V2000
    8.6342  -17.0744   17.3397 O   0  0  0  0  0  0  0  0  0  0  0  0
    7.7756  -16.0086   17.0698 C   0  0  0  0  0  0  0  0  0  0  0  0
    8.5788  -14.7332   17.1792 C   0  0  2  0  0  0  0  0  0  0  0  0
    9.4444  -14.5957   16.0539 N   0  0  0  0  0  0  0  0  0  0  0  0
    9.2562  -14.6090   18.4869 C   0  0  0  0  0  0  0  0  0  0  0  0
   10.5069  -14.7140   18.5008 O   0  0  0  0  0  0  0  0  0  0  0  0
    8.5881  -14.3811   19.7120 N   0  0  0  0  0  0  0  0  0  0  0  0
    7.1473  -14.2704   19.8248 C   0  0  0  0  0  0  0  0  0  0  0  0
    6.8663  -13.9569   21.2782 C   0  0  0  0  0  0  0  0  0  0  0  0
    8.1588  -13.4866   21.8600 C   0  0  0  0  0  0  0  0  0  0  0  0
    9.1910  -14.2254   21.0068 C   0  0  1  0  0  0  0  0  0  0  0  0
    9.4315  -15.5335   21.6764 C   0  0  0  0  0  0  0  0  0  0  0  0
    8.6004  -16.4587   21.5099 O   0  0  0  0  0  0  0  0  0  0  0  0
   13.2239  -16.5778   22.8221 O   0  0  0  0  0  0  0  0  0  0  0  0
   12.2599  -17.5445   22.5419 C   0  0  0  0  0  0  0  0  0  0  0  0
   10.9132  -17.0330   23.0583 C   0  0  2  0  0  0  0  0  0  0  0  0
   10.5683  -15.7683   22.4958 N   0  0  0  0  0  0  0  0  0  0  0  0
   10.8808  -17.0425   24.5398 C   0  0  0  0  0  0  0  0  0  0  0  0
   11.1559  -18.1167   25.1248 O   0  0  0  0  0  0  0  0  0  0  0  0
   10.5670  -15.9440   25.3169 O   0  0  0  0  0  0  0  0  0  0  0  0
  2  1  1  0
  3  2  1  0
  3  4  1  6
  5  7  1  0
  5  3  1  0
  6  5  2  0
  7  8  1  0
  9  8  1  0
 10 11  1  0
 10  9  1  0
 11  7  1  0
 11 12  1  1
 12 17  1  0
 13 12  2  0
 16 15  1  1
 15 14  1  0
 16 18  1  0
 17 16  1  0
 18 20  1  0
 19 18  2  0
M  END
$$$$
