SPS.pdb
     RDKit          3D

 20 20  0  0  1  0  0  0  0  0999 V2000
    8.4860  -17.6468   17.1040 O   0  0  0  0  0  0  0  0  0  0  0  0
    7.7757  -16.5317   16.6588 C   0  0  0  0  0  0  0  0  0  0  0  0
    8.7590  -15.3956   16.4977 C   0  0  2  0  0  0  0  0  0  0  0  0
    9.6503  -15.6623   15.4166 N   0  0  0  0  0  0  0  0  0  0  0  0
    9.4297  -15.0516   17.7689 C   0  0  0  0  0  0  0  0  0  0  0  0
   10.6456  -15.3440   17.8769 O   0  0  0  0  0  0  0  0  0  0  0  0
    8.7919  -14.4192   18.8609 N   0  0  0  0  0  0  0  0  0  0  0  0
    7.3872  -14.0618   18.8646 C   0  0  0  0  0  0  0  0  0  0  0  0
    7.1422  -13.3494   20.1769 C   0  0  0  0  0  0  0  0  0  0  0  0
    8.4865  -12.9527   20.6924 C   0  0  0  0  0  0  0  0  0  0  0  0
    9.3951  -14.0347   20.1069 C   0  0  1  0  0  0  0  0  0  0  0  0
    9.4099  -15.1504   21.0929 C   0  0  0  0  0  0  0  0  0  0  0  0
    8.4488  -15.9571   21.1059 O   0  0  0  0  0  0  0  0  0  0  0  0
   13.0032  -16.0890   23.0024 O   0  0  0  0  0  0  0  0  0  0  0  0
   12.0983  -17.0725   22.6071 C   0  0  0  0  0  0  0  0  0  0  0  0
   10.6848  -16.5142   22.7864 C   0  0  2  0  0  0  0  0  0  0  0  0
   10.4736  -15.3316   22.0172 N   0  0  0  0  0  0  0  0  0  0  0  0
   10.3665  -16.3418   24.2234 C   0  0  0  0  0  0  0  0  0  0  0  0
   10.4608  -17.3454   24.9688 O   0  0  0  0  0  0  0  0  0  0  0  0
    9.9727  -15.1465   24.7937 O   0  0  0  0  0  0  0  0  0  0  0  0
  2  1  1  0
  3  2  1  0
  3  4  1  6
  5  7  1  0
  5  3  1  0
  6  5  2  0
  7  8  1  0
  9  8  1  0
 10 11  1  0
 10  9  1  0
 11  7  1  0
 11 12  1  1
 12 17  1  0
 13 12  2  0
 16 15  1  1
 15 14  1  0
 16 18  1  0
 17 16  1  0
 18 20  1  0
 19 18  2  0
M  END
$$$$
