SPS.pdb
     RDKit          3D

 20 20  0  0  1  0  0  0  0  0999 V2000
    7.0544  -16.0538   22.1831 O   0  0  0  0  0  0  0  0  0  0  0  0
    6.3245  -14.8731   22.0439 C   0  0  0  0  0  0  0  0  0  0  0  0
    7.3032  -13.7221   22.0766 C   0  0  2  0  0  0  0  0  0  0  0  0
    8.0522  -13.6751   20.8637 N   0  0  0  0  0  0  0  0  0  0  0  0
    8.1290  -13.7244   23.3023 C   0  0  0  0  0  0  0  0  0  0  0  0
    9.3459  -14.0055   23.1772 O   0  0  0  0  0  0  0  0  0  0  0  0
    7.6370  -13.4320   24.5952 N   0  0  0  0  0  0  0  0  0  0  0  0
    6.2703  -13.0247   24.8540 C   0  0  0  0  0  0  0  0  0  0  0  0
    6.1934  -12.7443   26.3389 C   0  0  0  0  0  0  0  0  0  0  0  0
    7.6033  -12.5940   26.8077 C   0  0  0  0  0  0  0  0  0  0  0  0
    8.3713  -13.4839   25.8291 C   0  0  1  0  0  0  0  0  0  0  0  0
    8.3806  -14.8500   26.4213 C   0  0  0  0  0  0  0  0  0  0  0  0
    7.2914  -15.4598   26.5493 O   0  0  0  0  0  0  0  0  0  0  0  0
   11.6335  -17.1788   26.0607 O   0  0  0  0  0  0  0  0  0  0  0  0
   10.3885  -17.7431   26.3326 C   0  0  0  0  0  0  0  0  0  0  0  0
    9.6597  -16.8277   27.3190 C   0  0  2  0  0  0  0  0  0  0  0  0
    9.5790  -15.4847   26.8452 N   0  0  0  0  0  0  0  0  0  0  0  0
   10.2531  -16.9357   28.6726 C   0  0  0  0  0  0  0  0  0  0  0  0
   10.6433  -15.8811   29.2270 O   0  0  0  0  0  0  0  0  0  0  0  0
   10.4036  -18.1235   29.3621 O   0  0  0  0  0  0  0  0  0  0  0  0
  2  1  1  0
  3  2  1  0
  3  4  1  6
  5  7  1  0
  5  3  1  0
  6  5  2  0
  7  8  1  0
  9  8  1  0
 10 11  1  0
 10  9  1  0
 11  7  1  0
 11 12  1  1
 12 17  1  0
 13 12  2  0
 16 15  1  6
 15 14  1  0
 16 18  1  0
 17 16  1  0
 18 20  1  0
 19 18  2  0
M  END
$$$$
