SPS.pdb
     RDKit          3D

 20 20  0  0  1  0  0  0  0  0999 V2000
    6.5650  -18.1289   21.4824 O   0  0  0  0  0  0  0  0  0  0  0  0
    5.6410  -17.4817   20.6618 C   0  0  0  0  0  0  0  0  0  0  0  0
    6.2576  -17.3541   19.2881 C   0  0  2  0  0  0  0  0  0  0  0  0
    6.2973  -18.6259   18.6436 N   0  0  0  0  0  0  0  0  0  0  0  0
    7.5553  -16.6475   19.3206 C   0  0  0  0  0  0  0  0  0  0  0  0
    8.5915  -17.3367   19.1568 O   0  0  0  0  0  0  0  0  0  0  0  0
    7.6999  -15.2557   19.5231 N   0  0  0  0  0  0  0  0  0  0  0  0
    6.5956  -14.3817   19.8661 C   0  0  0  0  0  0  0  0  0  0  0  0
    7.1709  -12.9830   19.9142 C   0  0  0  0  0  0  0  0  0  0  0  0
    8.4777  -13.0454   19.1939 C   0  0  0  0  0  0  0  0  0  0  0  0
    8.9136  -14.4924   19.4293 C   0  0  1  0  0  0  0  0  0  0  0  0
    9.6818  -14.4980   20.7049 C   0  0  0  0  0  0  0  0  0  0  0  0
   10.8169  -13.9635   20.7282 O   0  0  0  0  0  0  0  0  0  0  0  0
    7.7305  -15.3243   24.2444 O   0  0  0  0  0  0  0  0  0  0  0  0
    8.8739  -14.5278   24.2635 C   0  0  0  0  0  0  0  0  0  0  0  0
    9.8162  -15.0267   23.1657 C   0  0  2  0  0  0  0  0  0  0  0  0
    9.1735  -15.0871   21.8937 N   0  0  0  0  0  0  0  0  0  0  0  0
   10.4525  -16.3054   23.5608 C   0  0  0  0  0  0  0  0  0  0  0  0
   11.1720  -16.3090   24.5874 O   0  0  0  0  0  0  0  0  0  0  0  0
   10.3034  -17.4929   22.8705 O   0  0  0  0  0  0  0  0  0  0  0  0
  2  1  1  0
  3  2  1  0
  3  4  1  1
  5  7  1  0
  5  3  1  0
  6  5  2  0
  7  8  1  0
  9  8  1  0
 10 11  1  0
 10  9  1  0
 11  7  1  0
 11 12  1  1
 12 17  1  0
 13 12  2  0
 16 15  1  1
 15 14  1  0
 16 18  1  0
 17 16  1  0
 18 20  1  0
 19 18  2  0
M  END
$$$$
