SPS.pdb
     RDKit          3D

 20 20  0  0  1  0  0  0  0  0999 V2000
    6.9856  -16.4321   22.7942 O   0  0  0  0  0  0  0  0  0  0  0  0
    6.4156  -15.2318   22.3694 C   0  0  0  0  0  0  0  0  0  0  0  0
    7.5081  -14.1879   22.3459 C   0  0  2  0  0  0  0  0  0  0  0  0
    8.2657  -14.2917   21.1419 N   0  0  0  0  0  0  0  0  0  0  0  0
    8.3214  -14.2013   23.5799 C   0  0  0  0  0  0  0  0  0  0  0  0
    9.4887  -14.6551   23.4963 O   0  0  0  0  0  0  0  0  0  0  0  0
    7.8695  -13.7387   24.8372 N   0  0  0  0  0  0  0  0  0  0  0  0
    6.5003  -13.3378   25.0932 C   0  0  0  0  0  0  0  0  0  0  0  0
    6.4707  -12.8471   26.5243 C   0  0  0  0  0  0  0  0  0  0  0  0
    7.8915  -12.5896   26.9055 C   0  0  0  0  0  0  0  0  0  0  0  0
    8.6519  -13.5896   26.0331 C   0  0  1  0  0  0  0  0  0  0  0  0
    8.7315  -14.8545   26.8147 C   0  0  0  0  0  0  0  0  0  0  0  0
    7.6786  -15.5067   27.0163 O   0  0  0  0  0  0  0  0  0  0  0  0
   12.2890  -16.8657   27.0928 O   0  0  0  0  0  0  0  0  0  0  0  0
   11.0711  -17.5293   27.2285 C   0  0  0  0  0  0  0  0  0  0  0  0
   10.1123  -16.6079   27.9860 C   0  0  2  0  0  0  0  0  0  0  0  0
    9.9572  -15.3463   27.3386 N   0  0  0  0  0  0  0  0  0  0  0  0
   10.5108  -16.4902   29.4085 C   0  0  0  0  0  0  0  0  0  0  0  0
   10.7114  -15.3409   29.8674 O   0  0  0  0  0  0  0  0  0  0  0  0
   10.6753  -17.5654   30.2604 O   0  0  0  0  0  0  0  0  0  0  0  0
  2  1  1  0
  3  2  1  0
  3  4  1  6
  5  7  1  0
  5  3  1  0
  6  5  2  0
  7  8  1  0
  9  8  1  0
 10 11  1  0
 10  9  1  0
 11  7  1  0
 11 12  1  1
 12 17  1  0
 13 12  2  0
 16 15  1  6
 15 14  1  0
 16 18  1  0
 17 16  1  0
 18 20  1  0
 19 18  2  0
M  END
$$$$
