SPS.pdb
     RDKit          3D

 20 20  0  0  1  0  0  0  0  0999 V2000
    8.4206  -17.3181   16.4347 O   0  0  0  0  0  0  0  0  0  0  0  0
    7.8037  -16.1331   16.0333 C   0  0  0  0  0  0  0  0  0  0  0  0
    8.8745  -15.0723   15.9244 C   0  0  2  0  0  0  0  0  0  0  0  0
    9.7558  -15.3682   14.8427 N   0  0  0  0  0  0  0  0  0  0  0  0
    9.5540  -14.8288   17.2141 C   0  0  0  0  0  0  0  0  0  0  0  0
   10.7298  -15.2511   17.3351 O   0  0  0  0  0  0  0  0  0  0  0  0
    8.9665  -14.1555   18.3098 N   0  0  0  0  0  0  0  0  0  0  0  0
    7.6074  -13.6519   18.2993 C   0  0  0  0  0  0  0  0  0  0  0  0
    7.4149  -12.9453   19.6234 C   0  0  0  0  0  0  0  0  0  0  0  0
    8.7839  -12.7035   20.1691 C   0  0  0  0  0  0  0  0  0  0  0  0
    9.5841  -13.8630   19.5737 C   0  0  1  0  0  0  0  0  0  0  0  0
    9.4634  -14.9944   20.5342 C   0  0  0  0  0  0  0  0  0  0  0  0
    8.4282  -15.7030   20.5051 O   0  0  0  0  0  0  0  0  0  0  0  0
   12.8768  -16.5798   22.1798 O   0  0  0  0  0  0  0  0  0  0  0  0
   11.7339  -17.3486   21.9676 C   0  0  0  0  0  0  0  0  0  0  0  0
   10.5142  -16.4787   22.2795 C   0  0  2  0  0  0  0  0  0  0  0  0
   10.4791  -15.2977   21.4803 N   0  0  0  0  0  0  0  0  0  0  0  0
   10.4226  -16.2042   23.7329 C   0  0  0  0  0  0  0  0  0  0  0  0
   10.4607  -15.0082   24.1067 O   0  0  0  0  0  0  0  0  0  0  0  0
   10.2980  -17.1816   24.7015 O   0  0  0  0  0  0  0  0  0  0  0  0
  2  1  1  0
  3  2  1  0
  3  4  1  6
  5  7  1  0
  5  3  1  0
  6  5  2  0
  7  8  1  0
  9  8  1  0
 10 11  1  0
 10  9  1  0
 11  7  1  0
 11 12  1  1
 12 17  1  0
 13 12  2  0
 16 15  1  1
 15 14  1  0
 16 18  1  0
 17 16  1  0
 18 20  1  0
 19 18  2  0
M  END
$$$$
