SPS.pdb
     RDKit          3D

 20 20  0  0  1  0  0  0  0  0999 V2000
    8.3186  -17.3176   16.6322 O   0  0  0  0  0  0  0  0  0  0  0  0
    7.5374  -16.1960   16.3533 C   0  0  0  0  0  0  0  0  0  0  0  0
    8.4622  -15.0045   16.2594 C   0  0  2  0  0  0  0  0  0  0  0  0
    9.2973  -15.1159   15.1085 N   0  0  0  0  0  0  0  0  0  0  0  0
    9.1934  -14.7630   17.5209 C   0  0  0  0  0  0  0  0  0  0  0  0
   10.4230  -15.0147   17.5320 O   0  0  0  0  0  0  0  0  0  0  0  0
    8.5984  -14.2703   18.7051 N   0  0  0  0  0  0  0  0  0  0  0  0
    7.1878  -13.9557   18.8163 C   0  0  0  0  0  0  0  0  0  0  0  0
    6.9946  -13.3960   20.2088 C   0  0  0  0  0  0  0  0  0  0  0  0
    8.3542  -13.0187   20.6982 C   0  0  0  0  0  0  0  0  0  0  0  0
    9.2562  -14.0050   19.9546 C   0  0  1  0  0  0  0  0  0  0  0  0
    9.3477  -15.2195   20.8112 C   0  0  0  0  0  0  0  0  0  0  0  0
    8.4253  -16.0684   20.7555 O   0  0  0  0  0  0  0  0  0  0  0  0
   12.9883  -16.1512   22.6555 O   0  0  0  0  0  0  0  0  0  0  0  0
   12.1479  -17.1471   22.1612 C   0  0  0  0  0  0  0  0  0  0  0  0
   10.7020  -16.6837   22.3524 C   0  0  2  0  0  0  0  0  0  0  0  0
   10.4423  -15.4486   21.6877 N   0  0  0  0  0  0  0  0  0  0  0  0
   10.3436  -16.6608   23.7901 C   0  0  0  0  0  0  0  0  0  0  0  0
    9.9422  -15.5772   24.2765 O   0  0  0  0  0  0  0  0  0  0  0  0
   10.4233  -17.7565   24.6279 O   0  0  0  0  0  0  0  0  0  0  0  0
  2  1  1  0
  3  2  1  0
  3  4  1  6
  5  7  1  0
  5  3  1  0
  6  5  2  0
  7  8  1  0
  9  8  1  0
 10 11  1  0
 10  9  1  0
 11  7  1  0
 11 12  1  1
 12 17  1  0
 13 12  2  0
 16 15  1  1
 15 14  1  0
 16 18  1  0
 17 16  1  0
 18 20  1  0
 19 18  2  0
M  END
$$$$
