SPS.pdb
     RDKit          3D

 20 20  0  0  1  0  0  0  0  0999 V2000
    8.8062  -16.1027   17.8080 O   0  0  0  0  0  0  0  0  0  0  0  0
    7.6556  -15.3301   17.9669 C   0  0  0  0  0  0  0  0  0  0  0  0
    8.0911  -13.9193   18.2888 C   0  0  2  0  0  0  0  0  0  0  0  0
    8.6794  -13.3092   17.1416 N   0  0  0  0  0  0  0  0  0  0  0  0
    8.9252  -13.8554   19.5072 C   0  0  0  0  0  0  0  0  0  0  0  0
   10.1446  -13.5975   19.3585 O   0  0  0  0  0  0  0  0  0  0  0  0
    8.4384  -14.0650   20.8180 N   0  0  0  0  0  0  0  0  0  0  0  0
    7.0318  -14.2246   21.1293 C   0  0  0  0  0  0  0  0  0  0  0  0
    6.9500  -14.3483   22.6351 C   0  0  0  0  0  0  0  0  0  0  0  0
    8.2499  -13.8397   23.1659 C   0  0  0  0  0  0  0  0  0  0  0  0
    9.2164  -14.1532   22.0228 C   0  0  1  0  0  0  0  0  0  0  0  0
    9.7224  -15.5323   22.2660 C   0  0  0  0  0  0  0  0  0  0  0  0
    9.0294  -16.5058   21.8832 O   0  0  0  0  0  0  0  0  0  0  0  0
   13.6611  -16.0822   23.4206 O   0  0  0  0  0  0  0  0  0  0  0  0
   13.0216  -17.0978   22.7121 C   0  0  0  0  0  0  0  0  0  0  0  0
   11.5383  -17.0751   23.0881 C   0  0  2  0  0  0  0  0  0  0  0  0
   10.9611  -15.7821   22.9158 N   0  0  0  0  0  0  0  0  0  0  0  0
   11.3321  -17.6314   24.4460 C   0  0  0  0  0  0  0  0  0  0  0  0
   10.7408  -16.9158   25.2886 O   0  0  0  0  0  0  0  0  0  0  0  0
   11.7495  -18.8874   24.8423 O   0  0  0  0  0  0  0  0  0  0  0  0
  2  1  1  0
  3  2  1  0
  3  4  1  6
  5  7  1  0
  5  3  1  0
  6  5  2  0
  7  8  1  0
  9  8  1  0
 10 11  1  0
 10  9  1  0
 11  7  1  0
 11 12  1  1
 12 17  1  0
 13 12  2  0
 16 15  1  1
 15 14  1  0
 16 18  1  0
 17 16  1  0
 18 20  1  0
 19 18  2  0
M  END
$$$$
