SPS.pdb
     RDKit          3D

 20 20  0  0  1  0  0  0  0  0999 V2000
    7.6572  -17.1351   17.3821 O   0  0  0  0  0  0  0  0  0  0  0  0
    8.3035  -16.9462   16.1604 C   0  0  0  0  0  0  0  0  0  0  0  0
    8.6974  -15.4900   16.0699 C   0  0  2  0  0  0  0  0  0  0  0  0
    9.3511  -15.2305   14.8291 N   0  0  0  0  0  0  0  0  0  0  0  0
    9.4488  -15.0386   17.2599 C   0  0  0  0  0  0  0  0  0  0  0  0
   10.6723  -15.3147   17.3083 O   0  0  0  0  0  0  0  0  0  0  0  0
    8.8794  -14.3215   18.3372 N   0  0  0  0  0  0  0  0  0  0  0  0
    7.5157  -13.8302   18.3347 C   0  0  0  0  0  0  0  0  0  0  0  0
    7.3460  -13.0662   19.6297 C   0  0  0  0  0  0  0  0  0  0  0  0
    8.7243  -12.7887   20.1330 C   0  0  0  0  0  0  0  0  0  0  0  0
    9.5220  -13.9671   19.5724 C   0  0  1  0  0  0  0  0  0  0  0  0
    9.4331  -15.0550   20.5853 C   0  0  0  0  0  0  0  0  0  0  0  0
    8.3944  -15.7578   20.6266 O   0  0  0  0  0  0  0  0  0  0  0  0
   12.9080  -16.3006   22.4884 O   0  0  0  0  0  0  0  0  0  0  0  0
   11.8901  -17.2080   22.2011 C   0  0  0  0  0  0  0  0  0  0  0  0
   10.5525  -16.4776   22.3393 C   0  0  2  0  0  0  0  0  0  0  0  0
   10.4829  -15.3231   21.5044 N   0  0  0  0  0  0  0  0  0  0  0  0
   10.2563  -16.1889   23.7623 C   0  0  0  0  0  0  0  0  0  0  0  0
   10.0710  -14.9933   24.0912 O   0  0  0  0  0  0  0  0  0  0  0  0
   10.1713  -17.1524   24.7489 O   0  0  0  0  0  0  0  0  0  0  0  0
  2  1  1  0
  3  2  1  0
  3  4  1  6
  5  7  1  0
  5  3  1  0
  6  5  2  0
  7  8  1  0
  9  8  1  0
 10 11  1  0
 10  9  1  0
 11  7  1  0
 11 12  1  1
 12 17  1  0
 13 12  2  0
 16 15  1  1
 15 14  1  0
 16 18  1  0
 17 16  1  0
 18 20  1  0
 19 18  2  0
M  END
$$$$
