SPS.pdb
     RDKit          3D

 20 20  0  0  1  0  0  0  0  0999 V2000
    8.1273  -17.3969   17.3010 O   0  0  0  0  0  0  0  0  0  0  0  0
    7.6321  -16.2520   16.6765 C   0  0  0  0  0  0  0  0  0  0  0  0
    8.7404  -15.2248   16.6557 C   0  0  2  0  0  0  0  0  0  0  0  0
    9.6703  -15.5214   15.6157 N   0  0  0  0  0  0  0  0  0  0  0  0
    9.3550  -15.0378   17.9867 C   0  0  0  0  0  0  0  0  0  0  0  0
   10.4911  -15.5380   18.1727 O   0  0  0  0  0  0  0  0  0  0  0  0
    8.7474  -14.3366   19.0536 N   0  0  0  0  0  0  0  0  0  0  0  0
    7.4690  -13.6632   18.9385 C   0  0  0  0  0  0  0  0  0  0  0  0
    7.2325  -12.9881   20.2719 C   0  0  0  0  0  0  0  0  0  0  0  0
    8.5585  -12.9442   20.9573 C   0  0  0  0  0  0  0  0  0  0  0  0
    9.2654  -14.1732   20.3838 C   0  0  1  0  0  0  0  0  0  0  0  0
    8.9094  -15.3153   21.2705 C   0  0  0  0  0  0  0  0  0  0  0  0
    8.0070  -16.1060   20.9032 O   0  0  0  0  0  0  0  0  0  0  0  0
   10.4980  -18.2262   21.0630 O   0  0  0  0  0  0  0  0  0  0  0  0
   11.1550  -17.2705   21.8358 C   0  0  0  0  0  0  0  0  0  0  0  0
   10.1751  -16.7658   22.8975 C   0  0  2  0  0  0  0  0  0  0  0  0
    9.5559  -15.5388   22.5158 N   0  0  0  0  0  0  0  0  0  0  0  0
   10.8271  -16.7032   24.2267 C   0  0  0  0  0  0  0  0  0  0  0  0
   11.6265  -15.7620   24.4433 O   0  0  0  0  0  0  0  0  0  0  0  0
   10.6105  -17.6153   25.2417 O   0  0  0  0  0  0  0  0  0  0  0  0
  2  1  1  0
  3  2  1  0
  3  4  1  6
  5  7  1  0
  5  3  1  0
  6  5  2  0
  7  8  1  0
  9  8  1  0
 10 11  1  0
 10  9  1  0
 11  7  1  0
 11 12  1  1
 12 17  1  0
 13 12  2  0
 16 15  1  6
 15 14  1  0
 16 18  1  0
 17 16  1  0
 18 20  1  0
 19 18  2  0
M  END
$$$$
