SPS.pdb
     RDKit          3D

 20 20  0  0  1  0  0  0  0  0999 V2000
    7.1467  -16.4755   22.6071 O   0  0  0  0  0  0  0  0  0  0  0  0
    6.6079  -15.2164   22.3420 C   0  0  0  0  0  0  0  0  0  0  0  0
    7.7419  -14.2178   22.3655 C   0  0  2  0  0  0  0  0  0  0  0  0
    8.5785  -14.3924   21.2236 N   0  0  0  0  0  0  0  0  0  0  0  0
    8.4637  -14.2210   23.6551 C   0  0  0  0  0  0  0  0  0  0  0  0
    9.6413  -14.6557   23.6558 O   0  0  0  0  0  0  0  0  0  0  0  0
    7.9145  -13.7688   24.8769 N   0  0  0  0  0  0  0  0  0  0  0  0
    6.5417  -13.3252   25.0173 C   0  0  0  0  0  0  0  0  0  0  0  0
    6.3979  -12.8633   26.4510 C   0  0  0  0  0  0  0  0  0  0  0  0
    7.7856  -12.6641   26.9654 C   0  0  0  0  0  0  0  0  0  0  0  0
    8.5889  -13.6720   26.1420 C   0  0  1  0  0  0  0  0  0  0  0  0
    8.5546  -14.9548   26.8974 C   0  0  0  0  0  0  0  0  0  0  0  0
    7.4654  -15.5705   26.9921 O   0  0  0  0  0  0  0  0  0  0  0  0
   11.6411  -17.3879   26.8599 O   0  0  0  0  0  0  0  0  0  0  0  0
   10.3907  -17.8482   27.2687 C   0  0  0  0  0  0  0  0  0  0  0  0
    9.7593  -16.7747   28.1582 C   0  0  2  0  0  0  0  0  0  0  0  0
    9.7117  -15.5035   27.5130 N   0  0  0  0  0  0  0  0  0  0  0  0
   10.4221  -16.7338   29.4830 C   0  0  0  0  0  0  0  0  0  0  0  0
   10.4648  -17.7947   30.1496 O   0  0  0  0  0  0  0  0  0  0  0  0
   10.9956  -15.6020   30.0298 O   0  0  0  0  0  0  0  0  0  0  0  0
  2  1  1  0
  3  2  1  0
  3  4  1  6
  5  7  1  0
  5  3  1  0
  6  5  2  0
  7  8  1  0
  9  8  1  0
 10 11  1  0
 10  9  1  0
 11  7  1  0
 11 12  1  1
 12 17  1  0
 13 12  2  0
 16 15  1  6
 15 14  1  0
 16 18  1  0
 17 16  1  0
 18 20  1  0
 19 18  2  0
M  END
$$$$
