SPS.pdb
     RDKit          3D

 20 20  0  0  1  0  0  0  0  0999 V2000
    8.3259  -15.3180   27.1048 O   0  0  0  0  0  0  0  0  0  0  0  0
    8.5187  -16.0975   25.9641 C   0  0  0  0  0  0  0  0  0  0  0  0
    7.1794  -16.2503   25.2810 C   0  0  2  0  0  0  0  0  0  0  0  0
    6.3662  -17.1835   25.9897 N   0  0  0  0  0  0  0  0  0  0  0  0
    7.3169  -16.5360   23.8375 C   0  0  0  0  0  0  0  0  0  0  0  0
    7.0650  -17.7045   23.4543 O   0  0  0  0  0  0  0  0  0  0  0  0
    7.7111  -15.5828   22.8704 N   0  0  0  0  0  0  0  0  0  0  0  0
    7.9169  -14.1802   23.1724 C   0  0  0  0  0  0  0  0  0  0  0  0
    8.2526  -13.5156   21.8551 C   0  0  0  0  0  0  0  0  0  0  0  0
    7.8208  -14.4661   20.7873 C   0  0  0  0  0  0  0  0  0  0  0  0
    7.9669  -15.8233   21.4772 C   0  0  1  0  0  0  0  0  0  0  0  0
    9.3653  -16.2719   21.2311 C   0  0  0  0  0  0  0  0  0  0  0  0
   10.3079  -15.6108   21.7300 O   0  0  0  0  0  0  0  0  0  0  0  0
    9.9520  -20.0930   20.5392 O   0  0  0  0  0  0  0  0  0  0  0  0
   11.0859  -19.3703   20.9057 C   0  0  0  0  0  0  0  0  0  0  0  0
   10.9734  -17.9719   20.2944 C   0  0  2  0  0  0  0  0  0  0  0  0
    9.6670  -17.4211   20.4520 N   0  0  0  0  0  0  0  0  0  0  0  0
   11.4414  -17.9741   18.8883 C   0  0  0  0  0  0  0  0  0  0  0  0
   10.6507  -17.5618   18.0071 O   0  0  0  0  0  0  0  0  0  0  0  0
   12.6926  -18.4012   18.4870 O   0  0  0  0  0  0  0  0  0  0  0  0
  2  1  1  0
  3  2  1  0
  3  4  1  1
  5  7  1  0
  5  3  1  0
  6  5  2  0
  7  8  1  0
  9  8  1  0
 10 11  1  0
 10  9  1  0
 11  7  1  0
 11 12  1  1
 12 17  1  0
 13 12  2  0
 16 15  1  6
 15 14  1  0
 16 18  1  0
 17 16  1  0
 18 20  1  0
 19 18  2  0
M  END
$$$$
