SPS.pdb
     RDKit          3D

 20 20  0  0  1  0  0  0  0  0999 V2000
    7.1746  -15.4910   20.7723 O   0  0  0  0  0  0  0  0  0  0  0  0
    6.4542  -14.2980   20.7102 C   0  0  0  0  0  0  0  0  0  0  0  0
    7.4165  -13.1659   20.9859 C   0  0  2  0  0  0  0  0  0  0  0  0
    8.1844  -12.8743   19.8198 N   0  0  0  0  0  0  0  0  0  0  0  0
    8.2224  -13.4002   22.2024 C   0  0  0  0  0  0  0  0  0  0  0  0
    9.4484  -13.6208   22.0484 O   0  0  0  0  0  0  0  0  0  0  0  0
    7.7019  -13.3914   23.5170 N   0  0  0  0  0  0  0  0  0  0  0  0
    6.3212  -13.0758   23.8248 C   0  0  0  0  0  0  0  0  0  0  0  0
    6.2128  -13.1092   25.3337 C   0  0  0  0  0  0  0  0  0  0  0  0
    7.6105  -13.0285   25.8534 C   0  0  0  0  0  0  0  0  0  0  0  0
    8.4169  -13.6807   24.7292 C   0  0  1  0  0  0  0  0  0  0  0  0
    8.4513  -15.1391   25.0278 C   0  0  0  0  0  0  0  0  0  0  0  0
    7.4035  -15.8118   24.8727 O   0  0  0  0  0  0  0  0  0  0  0  0
   11.9113  -17.0512   24.6367 O   0  0  0  0  0  0  0  0  0  0  0  0
   10.7342  -17.7963   24.5971 C   0  0  0  0  0  0  0  0  0  0  0  0
    9.7658  -17.2054   25.6243 C   0  0  2  0  0  0  0  0  0  0  0  0
    9.6284  -15.7928   25.4814 N   0  0  0  0  0  0  0  0  0  0  0  0
   10.1383  -17.6209   26.9971 C   0  0  0  0  0  0  0  0  0  0  0  0
   10.3563  -16.7212   27.8425 O   0  0  0  0  0  0  0  0  0  0  0  0
   10.2606  -18.9355   27.4044 O   0  0  0  0  0  0  0  0  0  0  0  0
  2  1  1  0
  3  2  1  0
  3  4  1  6
  5  7  1  0
  5  3  1  0
  6  5  2  0
  7  8  1  0
  9  8  1  0
 10 11  1  0
 10  9  1  0
 11  7  1  0
 11 12  1  1
 12 17  1  0
 13 12  2  0
 16 15  1  6
 15 14  1  0
 16 18  1  0
 17 16  1  0
 18 20  1  0
 19 18  2  0
M  END
$$$$
