SPS.pdb
     RDKit          3D

 20 20  0  0  1  0  0  0  0  0999 V2000
    6.4874  -18.0509   16.4309 O   0  0  0  0  0  0  0  0  0  0  0  0
    7.2357  -17.6274   17.5294 C   0  0  0  0  0  0  0  0  0  0  0  0
    8.1378  -16.5072   17.0657 C   0  0  2  0  0  0  0  0  0  0  0  0
    8.8460  -16.8966   15.8904 N   0  0  0  0  0  0  0  0  0  0  0  0
    8.9979  -15.9949   18.1530 C   0  0  0  0  0  0  0  0  0  0  0  0
   10.1782  -16.4191   18.2030 O   0  0  0  0  0  0  0  0  0  0  0  0
    8.5767  -15.0650   19.1312 N   0  0  0  0  0  0  0  0  0  0  0  0
    7.2234  -14.5522   19.2123 C   0  0  0  0  0  0  0  0  0  0  0  0
    7.2276  -13.5424   20.3392 C   0  0  0  0  0  0  0  0  0  0  0  0
    8.6603  -13.2028   20.5885 C   0  0  0  0  0  0  0  0  0  0  0  0
    9.3793  -14.4874   20.1737 C   0  0  1  0  0  0  0  0  0  0  0  0
    9.4324  -15.3501   21.3862 C   0  0  0  0  0  0  0  0  0  0  0  0
    8.4232  -16.0331   21.6857 O   0  0  0  0  0  0  0  0  0  0  0  0
   12.7723  -17.1343   22.2075 O   0  0  0  0  0  0  0  0  0  0  0  0
   12.2572  -16.7362   23.4398 C   0  0  0  0  0  0  0  0  0  0  0  0
   10.7791  -16.3910   23.2453 C   0  0  2  0  0  0  0  0  0  0  0  0
   10.5851  -15.4254   22.2135 N   0  0  0  0  0  0  0  0  0  0  0  0
   10.1562  -16.0042   24.5330 C   0  0  0  0  0  0  0  0  0  0  0  0
    9.6525  -14.8594   24.6196 O   0  0  0  0  0  0  0  0  0  0  0  0
   10.0950  -16.8241   25.6435 O   0  0  0  0  0  0  0  0  0  0  0  0
  2  1  1  0
  3  2  1  0
  3  4  1  6
  5  7  1  0
  5  3  1  0
  6  5  2  0
  7  8  1  0
  9  8  1  0
 10 11  1  0
 10  9  1  0
 11  7  1  0
 11 12  1  1
 12 17  1  0
 13 12  2  0
 16 15  1  1
 15 14  1  0
 16 18  1  0
 17 16  1  0
 18 20  1  0
 19 18  2  0
M  END
$$$$
