SPS.pdb
     RDKit          3D

 20 20  0  0  1  0  0  0  0  0999 V2000
    6.9813  -17.3420   18.1536 O   0  0  0  0  0  0  0  0  0  0  0  0
    7.5743  -17.3940   16.8920 C   0  0  0  0  0  0  0  0  0  0  0  0
    8.2094  -16.0485   16.6276 C   0  0  2  0  0  0  0  0  0  0  0  0
    8.8393  -16.0416   15.3480 N   0  0  0  0  0  0  0  0  0  0  0  0
    9.0824  -15.6140   17.7382 C   0  0  0  0  0  0  0  0  0  0  0  0
   10.2096  -16.1582   17.8325 O   0  0  0  0  0  0  0  0  0  0  0  0
    8.7293  -14.6319   18.6921 N   0  0  0  0  0  0  0  0  0  0  0  0
    7.4537  -13.9435   18.6917 C   0  0  0  0  0  0  0  0  0  0  0  0
    7.5228  -12.9382   19.8204 C   0  0  0  0  0  0  0  0  0  0  0  0
    8.9699  -12.7908   20.1587 C   0  0  0  0  0  0  0  0  0  0  0  0
    9.5358  -14.1615   19.7842 C   0  0  1  0  0  0  0  0  0  0  0  0
    9.3991  -15.0181   20.9945 C   0  0  0  0  0  0  0  0  0  0  0  0
    8.2521  -15.3820   21.3499 O   0  0  0  0  0  0  0  0  0  0  0  0
   11.9970  -17.8070   21.5082 O   0  0  0  0  0  0  0  0  0  0  0  0
   10.7585  -17.8468   22.1460 C   0  0  0  0  0  0  0  0  0  0  0  0
   10.4909  -16.4648   22.7461 C   0  0  2  0  0  0  0  0  0  0  0  0
   10.5217  -15.4360   21.7585 N   0  0  0  0  0  0  0  0  0  0  0  0
   11.3963  -16.2046   23.8901 C   0  0  0  0  0  0  0  0  0  0  0  0
   12.1865  -15.2352   23.8030 O   0  0  0  0  0  0  0  0  0  0  0  0
   11.4250  -16.9616   25.0455 O   0  0  0  0  0  0  0  0  0  0  0  0
  2  1  1  0
  3  2  1  0
  3  4  1  6
  5  7  1  0
  5  3  1  0
  6  5  2  0
  7  8  1  0
  9  8  1  0
 10 11  1  0
 10  9  1  0
 11  7  1  0
 11 12  1  1
 12 17  1  0
 13 12  2  0
 16 15  1  6
 15 14  1  0
 16 18  1  0
 17 16  1  0
 18 20  1  0
 19 18  2  0
M  END
$$$$
