YAI.pdb
     RDKit          3D

 26 26  0  0  1  0  0  0  0  0999 V2000
   19.4349  -19.2808  -15.0299 O   0  0  0  0  0  0  0  0  0  0  0  0
   20.5026  -19.7010  -14.2442 C   0  0  0  0  0  0  0  0  0  0  0  0
   20.4731  -20.9451  -13.6285 C   0  0  0  0  0  0  0  0  0  0  0  0
   21.5167  -21.3856  -12.8454 C   0  0  0  0  0  0  0  0  0  0  0  0
   22.6027  -20.5720  -12.6762 C   0  0  0  0  0  0  0  0  0  0  0  0
   23.7531  -20.9513  -11.8668 C   0  0  0  0  0  0  0  0  0  0  0  0
   25.0426  -21.0709  -12.6142 C   0  0  2  0  0  0  0  0  0  0  0  0
   25.0735  -22.2027  -13.5182 N   0  0  0  0  0  0  0  0  0  0  0  0
   26.1143  -21.2959  -11.6077 C   0  0  0  0  0  0  0  0  0  0  0  0
   25.9120  -22.1975  -10.7543 O   0  0  0  0  0  0  0  0  0  0  0  0
   22.6437  -19.3183  -13.2906 C   0  0  0  0  0  0  0  0  0  0  0  0
   21.5968  -18.8813  -14.0736 C   0  0  0  0  0  0  0  0  0  0  0  0
   29.6275  -20.2158  -10.7748 C   0  0  0  0  0  0  0  0  0  0  0  0
   28.2648  -20.8142  -10.4982 C   0  0  2  0  0  0  0  0  0  0  0  0
   27.3267  -20.5776  -11.5442 N   0  0  0  0  0  0  0  0  0  0  0  0
   27.7637  -20.3394   -9.1673 C   0  0  0  0  0  0  0  0  0  0  0  0
   26.8325  -19.5019   -9.1176 O   0  0  0  0  0  0  0  0  0  0  0  0
   29.2090  -21.4075   -3.2605 C   0  0  0  0  0  0  0  0  0  0  0  0
   28.6045  -20.4045   -4.2311 C   0  0  0  0  0  0  0  0  0  0  0  0
   28.9159  -20.9039   -5.6226 C   0  0  2  0  0  0  0  0  0  0  0  0
   30.3375  -20.5321   -5.9342 C   0  0  0  0  0  0  0  0  0  0  0  0
   28.0136  -20.2754   -6.6619 C   0  0  2  0  0  0  0  0  0  0  0  0
   28.3360  -20.8316   -7.9694 N   0  0  0  0  0  0  0  0  0  0  0  0
   28.3236  -18.8297   -6.6912 C   0  0  0  0  0  0  0  0  0  0  0  0
   29.2595  -18.4106   -7.4116 O   0  0  0  0  0  0  0  0  0  0  0  0
   27.6177  -17.8949   -5.9475 O   0  0  0  0  0  0  0  0  0  0  0  0
  1  2  1  0
  2 12  2  0
  3  4  2  0
  3  2  1  0
  4  5  1  0
  5  6  1  0
  5 11  2  0
  6  7  1  0
  7  9  1  0
  7  8  1  6
  9 10  2  0
  9 15  1  0
 12 11  1  0
 14 13  1  6
 14 16  1  0
 15 14  1  0
 16 17  2  0
 18 19  1  0
 19 20  1  0
 20 22  1  0
 20 21  1  6
 22 24  1  0
 23 16  1  0
 22 23  1  6
 24 25  2  0
 24 26  1  0
M  END
$$$$
