YAI.pdb
     RDKit          3D

 26 26  0  0  1  0  0  0  0  0999 V2000
   24.9622  -25.9061  -17.3798 O   0  0  0  0  0  0  0  0  0  0  0  0
   25.3528  -25.0277  -16.3749 C   0  0  0  0  0  0  0  0  0  0  0  0
   26.4334  -24.1775  -16.5679 C   0  0  0  0  0  0  0  0  0  0  0  0
   26.8412  -23.2981  -15.5896 C   0  0  0  0  0  0  0  0  0  0  0  0
   26.1598  -23.2689  -14.4044 C   0  0  0  0  0  0  0  0  0  0  0  0
   26.5170  -22.3735  -13.3119 C   0  0  0  0  0  0  0  0  0  0  0  0
   25.7369  -21.0991  -13.2557 C   0  0  2  0  0  0  0  0  0  0  0  0
   26.1643  -20.1264  -14.2408 N   0  0  0  0  0  0  0  0  0  0  0  0
   25.9817  -20.4931  -11.9197 C   0  0  0  0  0  0  0  0  0  0  0  0
   26.9265  -19.6670  -11.8350 O   0  0  0  0  0  0  0  0  0  0  0  0
   25.0711  -24.1194  -14.1987 C   0  0  0  0  0  0  0  0  0  0  0  0
   24.6664  -24.9980  -15.1806 C   0  0  0  0  0  0  0  0  0  0  0  0
   24.0303  -19.5535   -9.0051 C   0  0  0  0  0  0  0  0  0  0  0  0
   25.3640  -19.9671   -9.5895 C   0  0  2  0  0  0  0  0  0  0  0  0
   25.2375  -20.7765  -10.7553 N   0  0  0  0  0  0  0  0  0  0  0  0
   26.1998  -20.6221   -8.5310 C   0  0  0  0  0  0  0  0  0  0  0  0
   26.2838  -21.8720   -8.4917 O   0  0  0  0  0  0  0  0  0  0  0  0
   30.6751  -18.9828   -4.6677 C   0  0  0  0  0  0  0  0  0  0  0  0
   29.6396  -20.0459   -5.0007 C   0  0  0  0  0  0  0  0  0  0  0  0
   28.7981  -19.4952   -6.1281 C   0  0  2  0  0  0  0  0  0  0  0  0
   28.2198  -18.1868   -5.6700 C   0  0  0  0  0  0  0  0  0  0  0  0
   27.6608  -20.4257   -6.4888 C   0  0  2  0  0  0  0  0  0  0  0  0
   26.8929  -19.8370   -7.5780 N   0  0  0  0  0  0  0  0  0  0  0  0
   26.7792  -20.5159   -5.3048 C   0  0  0  0  0  0  0  0  0  0  0  0
   25.7275  -19.8359   -5.2615 O   0  0  0  0  0  0  0  0  0  0  0  0
   27.0622  -21.3308   -4.2181 O   0  0  0  0  0  0  0  0  0  0  0  0
  1  2  1  0
  2 12  2  0
  3  4  2  0
  3  2  1  0
  4  5  1  0
  5  6  1  0
  5 11  2  0
  6  7  1  0
  7  9  1  0
  7  8  1  6
  9 10  2  0
  9 15  1  0
 12 11  1  0
 14 13  1  1
 14 16  1  0
 15 14  1  0
 16 17  2  0
 18 19  1  0
 19 20  1  0
 20 22  1  0
 20 21  1  1
 22 24  1  0
 23 16  1  0
 22 23  1  6
 24 25  2  0
 24 26  1  0
M  END
$$$$
