YAI.pdb
     RDKit          3D

 26 26  0  0  1  0  0  0  0  0999 V2000
   26.2497  -31.2276   -9.3837 O   0  0  0  0  0  0  0  0  0  0  0  0
   26.4512  -31.8221   -8.1428 C   0  0  0  0  0  0  0  0  0  0  0  0
   27.4589  -32.7616   -7.9708 C   0  0  0  0  0  0  0  0  0  0  0  0
   27.6800  -33.3654   -6.7530 C   0  0  0  0  0  0  0  0  0  0  0  0
   26.8835  -33.0254   -5.6948 C   0  0  0  0  0  0  0  0  0  0  0  0
   27.0413  -33.6103   -4.3697 C   0  0  0  0  0  0  0  0  0  0  0  0
   26.0377  -34.6610   -4.0168 C   0  0  2  0  0  0  0  0  0  0  0  0
   24.7884  -34.1134   -3.5282 N   0  0  0  0  0  0  0  0  0  0  0  0
   26.6163  -35.4661   -2.9082 C   0  0  0  0  0  0  0  0  0  0  0  0
   26.9317  -34.8460   -1.8602 O   0  0  0  0  0  0  0  0  0  0  0  0
   25.8665  -32.0815   -5.8557 C   0  0  0  0  0  0  0  0  0  0  0  0
   25.6488  -31.4796   -7.0764 C   0  0  0  0  0  0  0  0  0  0  0  0
   26.8389  -38.9622   -1.6867 C   0  0  0  0  0  0  0  0  0  0  0  0
   27.3695  -37.5512   -1.8250 C   0  0  2  0  0  0  0  0  0  0  0  0
   26.8335  -36.8594   -2.9495 N   0  0  0  0  0  0  0  0  0  0  0  0
   28.8686  -37.5720   -1.8323 C   0  0  0  0  0  0  0  0  0  0  0  0
   29.4870  -37.3580   -2.9014 O   0  0  0  0  0  0  0  0  0  0  0  0
   32.5316  -35.2778   -0.1291 C   0  0  0  0  0  0  0  0  0  0  0  0
   31.4053  -35.8409    0.7241 C   0  0  0  0  0  0  0  0  0  0  0  0
   31.5458  -37.3448    0.6922 C   0  0  2  0  0  0  0  0  0  0  0  0
   33.0057  -37.6705    0.8290 C   0  0  0  0  0  0  0  0  0  0  0  0
   31.0404  -37.9304   -0.6081 C   0  0  2  0  0  0  0  0  0  0  0  0
   29.5871  -37.8316   -0.6402 N   0  0  0  0  0  0  0  0  0  0  0  0
   31.4010  -39.3646   -0.6095 C   0  0  0  0  0  0  0  0  0  0  0  0
   30.6558  -40.1921   -0.0346 O   0  0  0  0  0  0  0  0  0  0  0  0
   32.5445  -39.8510   -1.2268 O   0  0  0  0  0  0  0  0  0  0  0  0
  1  2  1  0
  2 12  2  0
  3  4  2  0
  3  2  1  0
  4  5  1  0
  5  6  1  0
  5 11  2  0
  6  7  1  0
  7  9  1  0
  7  8  1  1
  9 10  2  0
  9 15  1  0
 12 11  1  0
 14 13  1  6
 14 16  1  0
 15 14  1  0
 16 17  2  0
 18 19  1  0
 19 20  1  0
 20 22  1  0
 20 21  1  6
 22 24  1  0
 23 16  1  0
 22 23  1  1
 24 25  2  0
 24 26  1  0
M  END
$$$$
