YAI.pdb
     RDKit          3D

 26 26  0  0  1  0  0  0  0  0999 V2000
   29.6644  -17.9500  -18.4603 O   0  0  0  0  0  0  0  0  0  0  0  0
   29.0628  -18.0577  -17.2112 C   0  0  0  0  0  0  0  0  0  0  0  0
   29.4544  -19.0549  -16.3280 C   0  0  0  0  0  0  0  0  0  0  0  0
   28.8754  -19.1840  -15.0852 C   0  0  0  0  0  0  0  0  0  0  0  0
   27.8929  -18.3051  -14.7216 C   0  0  0  0  0  0  0  0  0  0  0  0
   27.2227  -18.3628  -13.4293 C   0  0  0  0  0  0  0  0  0  0  0  0
   26.1601  -19.4082  -13.3122 C   0  0  2  0  0  0  0  0  0  0  0  0
   24.9767  -19.1066  -14.0918 N   0  0  0  0  0  0  0  0  0  0  0  0
   25.7370  -19.4465  -11.8869 C   0  0  0  0  0  0  0  0  0  0  0  0
   24.9362  -18.5536  -11.5077 O   0  0  0  0  0  0  0  0  0  0  0  0
   27.4906  -17.2978  -15.6016 C   0  0  0  0  0  0  0  0  0  0  0  0
   28.0729  -17.1722  -16.8446 C   0  0  0  0  0  0  0  0  0  0  0  0
   24.4969  -21.1127   -9.2908 C   0  0  0  0  0  0  0  0  0  0  0  0
   25.7551  -20.3221   -9.5801 C   0  0  2  0  0  0  0  0  0  0  0  0
   26.1657  -20.4024  -10.9422 N   0  0  0  0  0  0  0  0  0  0  0  0
   26.8420  -20.7352   -8.6336 C   0  0  0  0  0  0  0  0  0  0  0  0
   27.5318  -21.7508   -8.8860 O   0  0  0  0  0  0  0  0  0  0  0  0
   30.1937  -18.1795   -4.1982 C   0  0  0  0  0  0  0  0  0  0  0  0
   29.7066  -19.4959   -4.7840 C   0  0  0  0  0  0  0  0  0  0  0  0
   28.6685  -19.1505   -5.8260 C   0  0  2  0  0  0  0  0  0  0  0  0
   27.5644  -18.3983   -5.1394 C   0  0  0  0  0  0  0  0  0  0  0  0
   28.0821  -20.3881   -6.4691 C   0  0  2  0  0  0  0  0  0  0  0  0
   27.0920  -19.9851   -7.4590 N   0  0  0  0  0  0  0  0  0  0  0  0
   27.3844  -21.1428   -5.4058 C   0  0  0  0  0  0  0  0  0  0  0  0
   26.1387  -21.0563   -5.2993 O   0  0  0  0  0  0  0  0  0  0  0  0
   28.0510  -21.9580   -4.5022 O   0  0  0  0  0  0  0  0  0  0  0  0
  1  2  1  0
  2 12  2  0
  3  4  2  0
  3  2  1  0
  4  5  1  0
  5  6  1  0
  5 11  2  0
  6  7  1  0
  7  9  1  0
  7  8  1  6
  9 10  2  0
  9 15  1  0
 12 11  1  0
 14 13  1  6
 14 16  1  0
 15 14  1  0
 16 17  2  0
 18 19  1  0
 19 20  1  0
 20 22  1  0
 20 21  1  1
 22 24  1  0
 23 16  1  0
 22 23  1  6
 24 25  2  0
 24 26  1  0
M  END
$$$$
