YAI.pdb
     RDKit          3D

 26 26  0  0  1  0  0  0  0  0999 V2000
   26.2455  -27.3533  -18.2344 O   0  0  0  0  0  0  0  0  0  0  0  0
   26.4269  -26.2522  -17.4048 C   0  0  0  0  0  0  0  0  0  0  0  0
   27.5460  -25.4430  -17.5483 C   0  0  0  0  0  0  0  0  0  0  0  0
   27.7500  -24.3467  -16.7402 C   0  0  0  0  0  0  0  0  0  0  0  0
   26.8237  -24.0565  -15.7771 C   0  0  0  0  0  0  0  0  0  0  0  0
   26.9535  -22.9191  -14.8760 C   0  0  0  0  0  0  0  0  0  0  0  0
   26.1644  -21.7096  -15.2636 C   0  0  2  0  0  0  0  0  0  0  0  0
   26.9107  -20.7849  -16.0926 N   0  0  0  0  0  0  0  0  0  0  0  0
   25.8265  -20.9852  -14.0094 C   0  0  0  0  0  0  0  0  0  0  0  0
   26.7494  -20.3222  -13.4699 O   0  0  0  0  0  0  0  0  0  0  0  0
   25.6939  -24.8633  -15.6233 C   0  0  0  0  0  0  0  0  0  0  0  0
   25.4936  -25.9596  -16.4343 C   0  0  0  0  0  0  0  0  0  0  0  0
   22.8941  -19.7318  -12.1009 C   0  0  0  0  0  0  0  0  0  0  0  0
   24.3186  -20.2328  -12.2071 C   0  0  2  0  0  0  0  0  0  0  0  0
   24.5590  -20.9897  -13.3902 N   0  0  0  0  0  0  0  0  0  0  0  0
   24.6837  -20.9888  -10.9649 C   0  0  0  0  0  0  0  0  0  0  0  0
   24.6096  -22.2400  -10.9556 O   0  0  0  0  0  0  0  0  0  0  0  0
   27.9523  -18.4917   -7.4496 C   0  0  0  0  0  0  0  0  0  0  0  0
   27.4705  -19.7555   -8.1454 C   0  0  0  0  0  0  0  0  0  0  0  0
   26.0892  -20.0482   -7.6078 C   0  0  2  0  0  0  0  0  0  0  0  0
   26.2507  -20.7266   -6.2774 C   0  0  0  0  0  0  0  0  0  0  0  0
   25.3099  -20.9646   -8.5255 C   0  0  2  0  0  0  0  0  0  0  0  0
   25.1107  -20.2975   -9.8053 N   0  0  0  0  0  0  0  0  0  0  0  0
   23.9826  -21.1741   -7.9078 C   0  0  0  0  0  0  0  0  0  0  0  0
   23.0645  -20.3468   -8.1154 O   0  0  0  0  0  0  0  0  0  0  0  0
   23.6958  -22.2609   -7.0943 O   0  0  0  0  0  0  0  0  0  0  0  0
  1  2  1  0
  2 12  2  0
  3  4  2  0
  3  2  1  0
  4  5  1  0
  5  6  1  0
  5 11  2  0
  6  7  1  0
  7  9  1  0
  7  8  1  6
  9 10  2  0
  9 15  1  0
 12 11  1  0
 14 13  1  1
 14 16  1  0
 15 14  1  0
 16 17  2  0
 18 19  1  0
 19 20  1  0
 20 22  1  0
 20 21  1  1
 22 24  1  0
 23 16  1  0
 22 23  1  6
 24 25  2  0
 24 26  1  0
M  END
$$$$
