YAI.pdb
     RDKit          3D

 26 26  0  0  1  0  0  0  0  0999 V2000
   29.0741  -30.2931  -19.9014 O   0  0  0  0  0  0  0  0  0  0  0  0
   28.7921  -29.1727  -19.1274 C   0  0  0  0  0  0  0  0  0  0  0  0
   27.8655  -28.2349  -19.5629 C   0  0  0  0  0  0  0  0  0  0  0  0
   27.5677  -27.1167  -18.8163 C   0  0  0  0  0  0  0  0  0  0  0  0
   28.2042  -26.9346  -17.6198 C   0  0  0  0  0  0  0  0  0  0  0  0
   27.9550  -25.7839  -16.7617 C   0  0  0  0  0  0  0  0  0  0  0  0
   28.8008  -24.5845  -17.0478 C   0  0  2  0  0  0  0  0  0  0  0  0
   30.1686  -24.7311  -16.5929 N   0  0  0  0  0  0  0  0  0  0  0  0
   28.2167  -23.4448  -16.2917 C   0  0  0  0  0  0  0  0  0  0  0  0
   28.4855  -23.3797  -15.0645 O   0  0  0  0  0  0  0  0  0  0  0  0
   29.1382  -27.8713  -17.1712 C   0  0  0  0  0  0  0  0  0  0  0  0
   29.4333  -28.9891  -17.9218 C   0  0  0  0  0  0  0  0  0  0  0  0
   26.4151  -20.1955  -16.9210 C   0  0  0  0  0  0  0  0  0  0  0  0
   26.9931  -21.3127  -16.0789 C   0  0  2  0  0  0  0  0  0  0  0  0
   27.3924  -22.4440  -16.8477 N   0  0  0  0  0  0  0  0  0  0  0  0
   26.0291  -21.6772  -14.9900 C   0  0  0  0  0  0  0  0  0  0  0  0
   25.1213  -22.5108  -15.2183 O   0  0  0  0  0  0  0  0  0  0  0  0
   25.4650  -20.4247   -8.9529 C   0  0  0  0  0  0  0  0  0  0  0  0
   24.8045  -21.0321  -10.1811 C   0  0  0  0  0  0  0  0  0  0  0  0
   25.7611  -20.8316  -11.3332 C   0  0  2  0  0  0  0  0  0  0  0  0
   25.9871  -19.3547  -11.4880 C   0  0  0  0  0  0  0  0  0  0  0  0
   25.2018  -21.3730  -12.6306 C   0  0  2  0  0  0  0  0  0  0  0  0
   26.1392  -21.0856  -13.7083 N   0  0  0  0  0  0  0  0  0  0  0  0
   23.9491  -20.6368  -12.9062 C   0  0  0  0  0  0  0  0  0  0  0  0
   23.9788  -19.6086  -13.6221 O   0  0  0  0  0  0  0  0  0  0  0  0
   22.7185  -21.0336  -12.4029 O   0  0  0  0  0  0  0  0  0  0  0  0
  1  2  1  0
  2 12  2  0
  3  4  2  0
  3  2  1  0
  4  5  1  0
  5  6  1  0
  5 11  2  0
  6  7  1  0
  7  9  1  0
  7  8  1  1
  9 10  2  0
  9 15  1  0
 12 11  1  0
 14 13  1  6
 14 16  1  0
 15 14  1  0
 16 17  2  0
 18 19  1  0
 19 20  1  0
 20 22  1  0
 20 21  1  6
 22 24  1  0
 23 16  1  0
 22 23  1  6
 24 25  2  0
 24 26  1  0
M  END
$$$$
