YAI.pdb
     RDKit          3D

 26 26  0  0  1  0  0  0  0  0999 V2000
   29.3074  -19.8663   -5.7872 O   0  0  0  0  0  0  0  0  0  0  0  0
   28.4626  -20.1495   -6.8548 C   0  0  0  0  0  0  0  0  0  0  0  0
   28.7974  -21.1377   -7.7708 C   0  0  0  0  0  0  0  0  0  0  0  0
   27.9790  -21.4382   -8.8369 C   0  0  0  0  0  0  0  0  0  0  0  0
   26.8119  -20.7418   -8.9884 C   0  0  0  0  0  0  0  0  0  0  0  0
   25.8834  -20.9886  -10.0837 C   0  0  0  0  0  0  0  0  0  0  0  0
   26.5216  -21.3499  -11.3868 C   0  0  2  0  0  0  0  0  0  0  0  0
   27.4746  -20.3605  -11.8473 N   0  0  0  0  0  0  0  0  0  0  0  0
   25.4387  -21.4093  -12.4045 C   0  0  0  0  0  0  0  0  0  0  0  0
   25.0824  -20.3183  -12.9194 O   0  0  0  0  0  0  0  0  0  0  0  0
   26.4645  -19.7454   -8.0733 C   0  0  0  0  0  0  0  0  0  0  0  0
   27.2867  -19.4479   -7.0077 C   0  0  0  0  0  0  0  0  0  0  0  0
   23.3296  -23.9152  -14.2840 C   0  0  0  0  0  0  0  0  0  0  0  0
   23.7440  -22.5447  -13.7926 C   0  0  2  0  0  0  0  0  0  0  0  0
   24.7913  -22.5891  -12.8275 N   0  0  0  0  0  0  0  0  0  0  0  0
   22.5419  -21.8009  -13.2928 C   0  0  0  0  0  0  0  0  0  0  0  0
   22.2293  -21.8694  -12.0810 O   0  0  0  0  0  0  0  0  0  0  0  0
   19.9536  -16.5393  -13.8064 C   0  0  0  0  0  0  0  0  0  0  0  0
   19.5810  -17.9996  -13.6010 C   0  0  0  0  0  0  0  0  0  0  0  0
   20.7893  -18.8163  -13.9956 C   0  0  2  0  0  0  0  0  0  0  0  0
   21.0239  -18.6053  -15.4642 C   0  0  0  0  0  0  0  0  0  0  0  0
   20.5761  -20.2936  -13.7481 C   0  0  2  0  0  0  0  0  0  0  0  0
   21.7603  -21.0234  -14.1814 N   0  0  0  0  0  0  0  0  0  0  0  0
   19.4417  -20.7184  -14.5966 C   0  0  0  0  0  0  0  0  0  0  0  0
   19.6615  -21.1749  -15.7428 O   0  0  0  0  0  0  0  0  0  0  0  0
   18.1206  -20.6359  -14.1808 O   0  0  0  0  0  0  0  0  0  0  0  0
  1  2  1  0
  2 12  2  0
  3  4  2  0
  3  2  1  0
  4  5  1  0
  5  6  1  0
  5 11  2  0
  6  7  1  0
  7  9  1  0
  7  8  1  6
  9 10  2  0
  9 15  1  0
 12 11  1  0
 14 13  1  1
 14 16  1  0
 15 14  1  0
 16 17  2  0
 18 19  1  0
 19 20  1  0
 20 22  1  0
 20 21  1  6
 22 24  1  0
 23 16  1  0
 22 23  1  6
 24 25  2  0
 24 26  1  0
M  END
$$$$
