YAI.pdb
     RDKit          3D

 26 26  0  0  1  0  0  0  0  0999 V2000
   27.2179  -14.6616  -20.5842 O   0  0  0  0  0  0  0  0  0  0  0  0
   27.0991  -15.5410  -19.5135 C   0  0  0  0  0  0  0  0  0  0  0  0
   25.9518  -16.3077  -19.3598 C   0  0  0  0  0  0  0  0  0  0  0  0
   25.8083  -17.1860  -18.3089 C   0  0  0  0  0  0  0  0  0  0  0  0
   26.8246  -17.2987  -17.4009 C   0  0  0  0  0  0  0  0  0  0  0  0
   26.7638  -18.1999  -16.2578 C   0  0  0  0  0  0  0  0  0  0  0  0
   27.6576  -19.3955  -16.3447 C   0  0  2  0  0  0  0  0  0  0  0  0
   27.2384  -20.3473  -17.3535 N   0  0  0  0  0  0  0  0  0  0  0  0
   27.5817  -20.0965  -15.0352 C   0  0  0  0  0  0  0  0  0  0  0  0
   26.5070  -20.6952  -14.7726 O   0  0  0  0  0  0  0  0  0  0  0  0
   27.9836  -16.5326  -17.5451 C   0  0  0  0  0  0  0  0  0  0  0  0
   28.1230  -15.6547  -18.5985 C   0  0  0  0  0  0  0  0  0  0  0  0
   29.6292  -20.6441  -11.9026 C   0  0  0  0  0  0  0  0  0  0  0  0
   28.3948  -20.6742  -12.7784 C   0  0  2  0  0  0  0  0  0  0  0  0
   28.6180  -20.1364  -14.0788 N   0  0  0  0  0  0  0  0  0  0  0  0
   27.2563  -20.0008  -12.0726 C   0  0  0  0  0  0  0  0  0  0  0  0
   27.1117  -18.7597  -12.1718 O   0  0  0  0  0  0  0  0  0  0  0  0
   21.5258  -20.3080  -11.5105 C   0  0  0  0  0  0  0  0  0  0  0  0
   22.7271  -19.9029  -10.6700 C   0  0  0  0  0  0  0  0  0  0  0  0
   23.9528  -20.4219  -11.3847 C   0  0  2  0  0  0  0  0  0  0  0  0
   23.7942  -21.9071  -11.5443 C   0  0  0  0  0  0  0  0  0  0  0  0
   25.2184  -20.1532  -10.6004 C   0  0  2  0  0  0  0  0  0  0  0  0
   26.3460  -20.7585  -11.2966 N   0  0  0  0  0  0  0  0  0  0  0  0
   25.0727  -20.8286   -9.2929 C   0  0  0  0  0  0  0  0  0  0  0  0
   25.5278  -21.9861   -9.1387 O   0  0  0  0  0  0  0  0  0  0  0  0
   24.4457  -20.2352   -8.2067 O   0  0  0  0  0  0  0  0  0  0  0  0
  1  2  1  0
  2 12  2  0
  3  4  2  0
  3  2  1  0
  4  5  1  0
  5  6  1  0
  5 11  2  0
  6  7  1  0
  7  9  1  0
  7  8  1  6
  9 10  2  0
  9 15  1  0
 12 11  1  0
 14 13  1  1
 14 16  1  0
 15 14  1  0
 16 17  2  0
 18 19  1  0
 19 20  1  0
 20 22  1  0
 20 21  1  1
 22 24  1  0
 23 16  1  0
 22 23  1  6
 24 25  2  0
 24 26  1  0
M  END
$$$$
