YAI.pdb
     RDKit          3D

 26 26  0  0  1  0  0  0  0  0999 V2000
   26.5586  -12.5696  -18.2738 O   0  0  0  0  0  0  0  0  0  0  0  0
   26.5065  -13.7645  -17.5644 C   0  0  0  0  0  0  0  0  0  0  0  0
   26.0070  -14.9137  -18.1624 C   0  0  0  0  0  0  0  0  0  0  0  0
   25.9441  -16.1098  -17.4828 C   0  0  0  0  0  0  0  0  0  0  0  0
   26.3860  -16.1569  -16.1896 C   0  0  0  0  0  0  0  0  0  0  0  0
   26.3589  -17.3753  -15.3914 C   0  0  0  0  0  0  0  0  0  0  0  0
   27.2103  -18.4908  -15.9078 C   0  0  2  0  0  0  0  0  0  0  0  0
   26.6914  -19.0875  -17.1219 N   0  0  0  0  0  0  0  0  0  0  0  0
   27.2119  -19.5578  -14.8718 C   0  0  0  0  0  0  0  0  0  0  0  0
   26.1401  -20.1965  -14.7122 O   0  0  0  0  0  0  0  0  0  0  0  0
   26.8906  -15.0072  -15.5774 C   0  0  0  0  0  0  0  0  0  0  0  0
   26.9517  -13.8121  -16.2614 C   0  0  0  0  0  0  0  0  0  0  0  0
   29.4371  -20.8499  -12.1007 C   0  0  0  0  0  0  0  0  0  0  0  0
   28.1470  -20.6515  -12.8674 C   0  0  2  0  0  0  0  0  0  0  0  0
   28.3180  -19.8994  -14.0655 N   0  0  0  0  0  0  0  0  0  0  0  0
   27.1082  -20.0554  -11.9655 C   0  0  0  0  0  0  0  0  0  0  0  0
   27.0620  -18.8127  -11.8085 O   0  0  0  0  0  0  0  0  0  0  0  0
   21.3985  -20.4191  -10.6471 C   0  0  0  0  0  0  0  0  0  0  0  0
   22.7315  -20.0829   -9.9964 C   0  0  0  0  0  0  0  0  0  0  0  0
   23.8083  -20.6382  -10.8990 C   0  0  2  0  0  0  0  0  0  0  0  0
   23.6125  -22.1251  -10.9830 C   0  0  0  0  0  0  0  0  0  0  0  0
   25.1943  -20.3637  -10.3576 C   0  0  2  0  0  0  0  0  0  0  0  0
   26.1815  -20.8877  -11.2923 N   0  0  0  0  0  0  0  0  0  0  0  0
   25.3230  -21.1130   -9.0892 C   0  0  0  0  0  0  0  0  0  0  0  0
   25.7872  -22.2770   -9.1009 O   0  0  0  0  0  0  0  0  0  0  0  0
   24.9489  -20.5832   -7.8626 O   0  0  0  0  0  0  0  0  0  0  0  0
  1  2  1  0
  2 12  2  0
  3  4  2  0
  3  2  1  0
  4  5  1  0
  5  6  1  0
  5 11  2  0
  6  7  1  0
  7  9  1  0
  7  8  1  6
  9 10  2  0
  9 15  1  0
 12 11  1  0
 14 13  1  1
 14 16  1  0
 15 14  1  0
 16 17  2  0
 18 19  1  0
 19 20  1  0
 20 22  1  0
 20 21  1  1
 22 24  1  0
 23 16  1  0
 22 23  1  6
 24 25  2  0
 24 26  1  0
M  END
$$$$
