YAI.pdb
     RDKit          3D

 26 26  0  0  1  0  0  0  0  0999 V2000
   20.4824  -22.3801   -6.9593 O   0  0  0  0  0  0  0  0  0  0  0  0
   21.3937  -21.8224   -7.8494 C   0  0  0  0  0  0  0  0  0  0  0  0
   22.5408  -21.1976   -7.3788 C   0  0  0  0  0  0  0  0  0  0  0  0
   23.4595  -20.6372   -8.2383 C   0  0  0  0  0  0  0  0  0  0  0  0
   23.2279  -20.7027   -9.5843 C   0  0  0  0  0  0  0  0  0  0  0  0
   24.1413  -20.1391  -10.5695 C   0  0  0  0  0  0  0  0  0  0  0  0
   25.2997  -21.0120  -10.9327 C   0  0  2  0  0  0  0  0  0  0  0  0
   26.3048  -21.0859   -9.8917 N   0  0  0  0  0  0  0  0  0  0  0  0
   25.9550  -20.4007  -12.1196 C   0  0  0  0  0  0  0  0  0  0  0  0
   26.6171  -19.3491  -11.9245 O   0  0  0  0  0  0  0  0  0  0  0  0
   22.0773  -21.3287  -10.0696 C   0  0  0  0  0  0  0  0  0  0  0  0
   21.1605  -21.8883   -9.2058 C   0  0  0  0  0  0  0  0  0  0  0  0
   27.2484  -21.2830  -15.4389 C   0  0  0  0  0  0  0  0  0  0  0  0
   26.5988  -20.2899  -14.4990 C   0  0  2  0  0  0  0  0  0  0  0  0
   25.8867  -20.9116  -13.4328 N   0  0  0  0  0  0  0  0  0  0  0  0
   25.7393  -19.3412  -15.2794 C   0  0  0  0  0  0  0  0  0  0  0  0
   24.5223  -19.5950  -15.4397 O   0  0  0  0  0  0  0  0  0  0  0  0
   27.3530  -14.0128  -15.8605 C   0  0  0  0  0  0  0  0  0  0  0  0
   27.2402  -15.5101  -16.1032 C   0  0  0  0  0  0  0  0  0  0  0  0
   25.7652  -15.8284  -16.1788 C   0  0  2  0  0  0  0  0  0  0  0  0
   25.1944  -15.6811  -14.7972 C   0  0  0  0  0  0  0  0  0  0  0  0
   25.5178  -17.2431  -16.6550 C   0  0  2  0  0  0  0  0  0  0  0  0
   26.2946  -18.1630  -15.8345 N   0  0  0  0  0  0  0  0  0  0  0  0
   26.0225  -17.3305  -18.0423 C   0  0  0  0  0  0  0  0  0  0  0  0
   25.4323  -16.7099  -18.9572 O   0  0  0  0  0  0  0  0  0  0  0  0
   27.1379  -18.0791  -18.3900 O   0  0  0  0  0  0  0  0  0  0  0  0
  1  2  1  0
  2 12  2  0
  3  4  2  0
  3  2  1  0
  4  5  1  0
  5  6  1  0
  5 11  2  0
  6  7  1  0
  7  9  1  0
  7  8  1  1
  9 10  2  0
  9 15  1  0
 12 11  1  0
 14 13  1  6
 14 16  1  0
 15 14  1  0
 16 17  2  0
 18 19  1  0
 19 20  1  0
 20 22  1  0
 20 21  1  1
 22 24  1  0
 23 16  1  0
 22 23  1  1
 24 25  2  0
 24 26  1  0
M  END
$$$$
