YAI.pdb
     RDKit          3D

 26 26  0  0  1  0  0  0  0  0999 V2000
   19.8827  -18.9058  -15.2353 O   0  0  0  0  0  0  0  0  0  0  0  0
   20.8247  -19.3395  -14.3088 C   0  0  0  0  0  0  0  0  0  0  0  0
   20.5537  -20.4277  -13.4903 C   0  0  0  0  0  0  0  0  0  0  0  0
   21.4686  -20.8777  -12.5645 C   0  0  0  0  0  0  0  0  0  0  0  0
   22.6688  -20.2314  -12.4564 C   0  0  0  0  0  0  0  0  0  0  0  0
   23.6982  -20.6343  -11.5073 C   0  0  0  0  0  0  0  0  0  0  0  0
   24.9936  -21.0612  -12.1200 C   0  0  2  0  0  0  0  0  0  0  0  0
   24.8820  -22.2802  -12.8952 N   0  0  0  0  0  0  0  0  0  0  0  0
   25.9342  -21.3468  -11.0039 C   0  0  0  0  0  0  0  0  0  0  0  0
   25.4747  -21.9866  -10.0232 O   0  0  0  0  0  0  0  0  0  0  0  0
   22.9528  -19.1354  -13.2745 C   0  0  0  0  0  0  0  0  0  0  0  0
   22.0341  -18.6884  -14.1997 C   0  0  0  0  0  0  0  0  0  0  0  0
   29.5536  -20.8533  -10.0320 C   0  0  0  0  0  0  0  0  0  0  0  0
   28.0995  -21.2214   -9.8276 C   0  0  2  0  0  0  0  0  0  0  0  0
   27.2889  -20.9551  -10.9688 N   0  0  0  0  0  0  0  0  0  0  0  0
   27.5768  -20.5539   -8.5910 C   0  0  0  0  0  0  0  0  0  0  0  0
   26.7487  -19.6186   -8.6935 O   0  0  0  0  0  0  0  0  0  0  0  0
   29.2178  -20.4157   -2.6881 C   0  0  0  0  0  0  0  0  0  0  0  0
   28.0212  -20.2461   -3.6116 C   0  0  0  0  0  0  0  0  0  0  0  0
   28.3881  -20.9001   -4.9233 C   0  0  2  0  0  0  0  0  0  0  0  0
   29.8750  -20.7755   -5.0960 C   0  0  0  0  0  0  0  0  0  0  0  0
   27.7080  -20.2296   -6.0968 C   0  0  2  0  0  0  0  0  0  0  0  0
   28.0133  -20.9742   -7.3113 N   0  0  0  0  0  0  0  0  0  0  0  0
   28.2966  -18.8793   -6.2285 C   0  0  0  0  0  0  0  0  0  0  0  0
   29.2676  -18.6986   -6.9999 O   0  0  0  0  0  0  0  0  0  0  0  0
   27.8199  -17.7806   -5.5280 O   0  0  0  0  0  0  0  0  0  0  0  0
  1  2  1  0
  2 12  2  0
  3  4  2  0
  3  2  1  0
  4  5  1  0
  5  6  1  0
  5 11  2  0
  6  7  1  0
  7  9  1  0
  7  8  1  1
  9 10  2  0
  9 15  1  0
 12 11  1  0
 14 13  1  6
 14 16  1  0
 15 14  1  0
 16 17  2  0
 18 19  1  0
 19 20  1  0
 20 22  1  0
 20 21  1  6
 22 24  1  0
 23 16  1  0
 22 23  1  6
 24 25  2  0
 24 26  1  0
M  END
$$$$
