YAI.pdb
     RDKit          3D

 26 26  0  0  1  0  0  0  0  0999 V2000
   17.7401  -14.0934  -16.7399 O   0  0  0  0  0  0  0  0  0  0  0  0
   18.8686  -14.8584  -16.4662 C   0  0  0  0  0  0  0  0  0  0  0  0
   20.0211  -14.2579  -15.9774 C   0  0  0  0  0  0  0  0  0  0  0  0
   21.1524  -14.9919  -15.6981 C   0  0  0  0  0  0  0  0  0  0  0  0
   21.1304  -16.3426  -15.9103 C   0  0  0  0  0  0  0  0  0  0  0  0
   22.2774  -17.2009  -15.6445 C   0  0  0  0  0  0  0  0  0  0  0  0
   23.3114  -17.2297  -16.7241 C   0  0  2  0  0  0  0  0  0  0  0  0
   22.8714  -17.9278  -17.9151 N   0  0  0  0  0  0  0  0  0  0  0  0
   24.4798  -17.9812  -16.1930 C   0  0  0  0  0  0  0  0  0  0  0  0
   24.2822  -19.1782  -15.8607 O   0  0  0  0  0  0  0  0  0  0  0  0
   19.9768  -16.9580  -16.4017 C   0  0  0  0  0  0  0  0  0  0  0  0
   18.8467  -16.2194  -16.6799 C   0  0  0  0  0  0  0  0  0  0  0  0
   28.1752  -17.5601  -15.5288 C   0  0  0  0  0  0  0  0  0  0  0  0
   26.8166  -18.2214  -15.4380 C   0  0  2  0  0  0  0  0  0  0  0  0
   25.7782  -17.4519  -16.0379 N   0  0  0  0  0  0  0  0  0  0  0  0
   26.5156  -18.5669  -14.0104 C   0  0  0  0  0  0  0  0  0  0  0  0
   26.1043  -17.6765  -13.2299 O   0  0  0  0  0  0  0  0  0  0  0  0
   23.2190  -22.0747  -12.4037 C   0  0  0  0  0  0  0  0  0  0  0  0
   24.1471  -20.8724  -12.4857 C   0  0  0  0  0  0  0  0  0  0  0  0
   25.5039  -21.3373  -12.0107 C   0  0  2  0  0  0  0  0  0  0  0  0
   25.3767  -21.7143  -10.5623 C   0  0  0  0  0  0  0  0  0  0  0  0
   26.5479  -20.2494  -12.1365 C   0  0  2  0  0  0  0  0  0  0  0  0
   26.6933  -19.8909  -13.5412 N   0  0  0  0  0  0  0  0  0  0  0  0
   27.8314  -20.8217  -11.6758 C   0  0  0  0  0  0  0  0  0  0  0  0
   28.5518  -21.4567  -12.4810 O   0  0  0  0  0  0  0  0  0  0  0  0
   28.2880  -20.6893  -10.3723 O   0  0  0  0  0  0  0  0  0  0  0  0
  1  2  1  0
  2 12  2  0
  3  4  2  0
  3  2  1  0
  4  5  1  0
  5  6  1  0
  5 11  2  0
  6  7  1  0
  7  9  1  0
  7  8  1  6
  9 10  2  0
  9 15  1  0
 12 11  1  0
 14 13  1  1
 14 16  1  0
 15 14  1  0
 16 17  2  0
 18 19  1  0
 19 20  1  0
 20 22  1  0
 20 21  1  1
 22 24  1  0
 23 16  1  0
 22 23  1  6
 24 25  2  0
 24 26  1  0
M  END
$$$$
