TYH.pdb
     RDKit          3D

 30 31  0  0  1  0  0  0  0  0999 V2000
    7.3372  -14.4520   17.2170 C   0  0  0  0  0  0  0  0  0  0  0  0
    7.7494  -14.6652   18.6414 C   0  0  1  0  0  0  0  0  0  0  0  0
    8.9132  -15.4299   18.7083 O   0  0  0  0  0  0  0  0  0  0  0  0
    7.9523  -13.3729   19.3921 C   0  0  2  0  0  0  0  0  0  0  0  0
    8.8515  -12.5268   18.6419 N   0  0  0  0  0  0  0  0  0  0  0  0
    8.3698  -13.5676   20.7825 C   0  0  0  0  0  0  0  0  0  0  0  0
    9.5931  -13.4188   21.0520 O   0  0  0  0  0  0  0  0  0  0  0  0
    8.4912  -13.2132   29.5095 O   0  0  0  0  0  0  0  0  0  0  0  0
    8.0795  -13.2323   28.1847 C   0  0  0  0  0  0  0  0  0  0  0  0
    6.9319  -12.5806   27.7631 C   0  0  0  0  0  0  0  0  0  0  0  0
    6.5689  -12.6332   26.4294 C   0  0  0  0  0  0  0  0  0  0  0  0
    7.3162  -13.3173   25.4987 C   0  0  0  0  0  0  0  0  0  0  0  0
    6.8916  -13.3480   24.0825 C   0  0  0  0  0  0  0  0  0  0  0  0
    7.9301  -14.0776   23.2204 C   0  0  2  0  0  0  0  0  0  0  0  0
    7.5240  -13.9090   21.8577 N   0  0  0  0  0  0  0  0  0  0  0  0
    8.0215  -15.4395   23.6901 C   0  0  0  0  0  0  0  0  0  0  0  0
    7.3132  -15.8580   24.6254 O   0  0  0  0  0  0  0  0  0  0  0  0
    8.4488  -13.9591   25.9210 C   0  0  0  0  0  0  0  0  0  0  0  0
    8.8203  -13.9112   27.2587 C   0  0  0  0  0  0  0  0  0  0  0  0
    8.9320  -16.3322   23.0843 N   0  0  0  0  0  0  0  0  0  0  0  0
   10.1555  -16.7857   23.7643 C   0  0  1  0  0  0  0  0  0  0  0  0
   11.2229  -15.7506   23.6954 C   0  0  0  0  0  0  0  0  0  0  0  0
   11.8179  -15.7198   22.3425 C   0  0  0  0  0  0  0  0  0  0  0  0
   11.3627  -16.4709   21.2512 C   0  0  0  0  0  0  0  0  0  0  0  0
   12.1457  -16.1817   20.1996 N   0  0  0  0  0  0  0  0  0  0  0  0
   13.0782  -15.2839   20.5628 C   0  0  0  0  0  0  0  0  0  0  0  0
   12.8598  -15.0245   21.8495 N   0  0  0  0  0  0  0  0  0  0  0  0
    9.8705  -17.1973   25.1375 C   0  0  0  0  0  0  0  0  0  0  0  0
    8.7066  -17.1792   25.5763 O   0  0  0  0  0  0  0  0  0  0  0  0
   10.9122  -17.6240   25.9939 O   0  0  0  0  0  0  0  0  0  0  0  0
  2  3  1  0
  2  1  1  6
  4  2  1  0
  4  5  1  6
  6  4  1  0
  6  7  2  0
  9  8  1  0
 10  9  2  0
 11 10  1  0
 12 11  2  0
 12 18  1  0
 14 13  1  1
 13 12  1  0
 14 15  1  0
 15  6  1  0
 16 14  1  0
 17 16  2  0
 18 19  2  0
 19  9  1  0
 20 16  1  0
 21 22  1  1
 21 20  1  0
 23 22  1  0
 24 23  2  0
 25 24  1  0
 26 25  1  0
 26 27  2  0
 27 23  1  0
 28 30  1  0
 28 21  1  0
 29 28  2  0
M  END
$$$$
