TYH.pdb
     RDKit          3D

 30 31  0  0  1  0  0  0  0  0999 V2000
    5.7291  -19.2691   22.2610 C   0  0  0  0  0  0  0  0  0  0  0  0
    6.5757  -19.5080   21.0484 C   0  0  1  0  0  0  0  0  0  0  0  0
    5.8993  -20.3032   20.1243 O   0  0  0  0  0  0  0  0  0  0  0  0
    7.0197  -18.2295   20.3828 C   0  0  2  0  0  0  0  0  0  0  0  0
    7.6713  -18.5487   19.1335 N   0  0  0  0  0  0  0  0  0  0  0  0
    7.8289  -17.3721   21.2520 C   0  0  0  0  0  0  0  0  0  0  0  0
    9.0464  -17.6687   21.3965 O   0  0  0  0  0  0  0  0  0  0  0  0
    8.1228  -12.4377   17.1759 O   0  0  0  0  0  0  0  0  0  0  0  0
    8.0339  -12.8068   18.5104 C   0  0  0  0  0  0  0  0  0  0  0  0
    9.1195  -12.7283   19.3677 C   0  0  0  0  0  0  0  0  0  0  0  0
    8.9735  -13.1099   20.6892 C   0  0  0  0  0  0  0  0  0  0  0  0
    7.7754  -13.5691   21.1855 C   0  0  0  0  0  0  0  0  0  0  0  0
    7.6633  -13.9670   22.6054 C   0  0  0  0  0  0  0  0  0  0  0  0
    8.1592  -15.4048   22.8068 C   0  0  2  0  0  0  0  0  0  0  0  0
    7.3694  -16.2357   21.9487 N   0  0  0  0  0  0  0  0  0  0  0  0
    8.0921  -15.7059   24.2169 C   0  0  0  0  0  0  0  0  0  0  0  0
    7.0054  -15.7606   24.8233 O   0  0  0  0  0  0  0  0  0  0  0  0
    6.7067  -13.6445   20.3340 C   0  0  0  0  0  0  0  0  0  0  0  0
    6.8449  -13.2632   19.0054 C   0  0  0  0  0  0  0  0  0  0  0  0
    9.2795  -15.9471   24.9414 N   0  0  0  0  0  0  0  0  0  0  0  0
    9.5363  -17.2257   25.6226 C   0  0  1  0  0  0  0  0  0  0  0  0
    9.3164  -18.3765   24.7047 C   0  0  0  0  0  0  0  0  0  0  0  0
    9.6914  -19.6411   25.3722 C   0  0  0  0  0  0  0  0  0  0  0  0
   10.1540  -19.7432   26.6904 C   0  0  0  0  0  0  0  0  0  0  0  0
   10.3911  -21.0405   26.9422 N   0  0  0  0  0  0  0  0  0  0  0  0
   10.1036  -21.7731   25.8521 C   0  0  0  0  0  0  0  0  0  0  0  0
    9.6872  -20.9118   24.9274 N   0  0  0  0  0  0  0  0  0  0  0  0
   10.8691  -17.2420   26.2223 C   0  0  0  0  0  0  0  0  0  0  0  0
   11.0811  -17.8616   27.2799 O   0  0  0  0  0  0  0  0  0  0  0  0
   11.9436  -16.5538   25.6119 O   0  0  0  0  0  0  0  0  0  0  0  0
  2  3  1  0
  2  1  1  1
  4  2  1  0
  4  5  1  6
  6  4  1  0
  6  7  2  0
  9  8  1  0
 10  9  2  0
 11 10  1  0
 12 11  2  0
 12 18  1  0
 14 13  1  1
 13 12  1  0
 14 15  1  0
 15  6  1  0
 16 14  1  0
 17 16  2  0
 18 19  2  0
 19  9  1  0
 20 16  1  0
 21 22  1  6
 21 20  1  0
 23 22  1  0
 24 23  2  0
 25 24  1  0
 26 25  1  0
 26 27  2  0
 27 23  1  0
 28 30  1  0
 28 21  1  0
 29 28  2  0
M  END
$$$$
