TYH.pdb
     RDKit          3D

 30 31  0  0  1  0  0  0  0  0999 V2000
    8.3519  -19.2686   20.3780 C   0  0  0  0  0  0  0  0  0  0  0  0
    9.4914  -18.6530   19.6254 C   0  0  1  0  0  0  0  0  0  0  0  0
    9.6316  -19.2463   18.3716 O   0  0  0  0  0  0  0  0  0  0  0  0
    9.3476  -17.1604   19.4627 C   0  0  2  0  0  0  0  0  0  0  0  0
   10.2842  -16.7016   18.4629 N   0  0  0  0  0  0  0  0  0  0  0  0
    9.4474  -16.4256   20.7258 C   0  0  0  0  0  0  0  0  0  0  0  0
   10.5952  -16.2800   21.2286 O   0  0  0  0  0  0  0  0  0  0  0  0
    7.0402  -11.9899   28.0170 O   0  0  0  0  0  0  0  0  0  0  0  0
    7.0431  -12.6292   26.7856 C   0  0  0  0  0  0  0  0  0  0  0  0
    6.3148  -13.7854   26.5570 C   0  0  0  0  0  0  0  0  0  0  0  0
    6.3547  -14.3807   25.3090 C   0  0  0  0  0  0  0  0  0  0  0  0
    7.1003  -13.8582   24.2776 C   0  0  0  0  0  0  0  0  0  0  0  0
    7.1148  -14.5270   22.9587 C   0  0  0  0  0  0  0  0  0  0  0  0
    8.4532  -15.2402   22.7266 C   0  0  2  0  0  0  0  0  0  0  0  0
    8.3701  -15.8605   21.4388 N   0  0  0  0  0  0  0  0  0  0  0  0
    8.6855  -16.1260   23.8425 C   0  0  0  0  0  0  0  0  0  0  0  0
    7.8715  -17.0169   24.1511 O   0  0  0  0  0  0  0  0  0  0  0  0
    7.8176  -12.7160   24.5094 C   0  0  0  0  0  0  0  0  0  0  0  0
    7.7829  -12.1120   25.7598 C   0  0  0  0  0  0  0  0  0  0  0  0
    9.8604  -15.9920   24.6134 N   0  0  0  0  0  0  0  0  0  0  0  0
   10.1401  -16.8538   25.7727 C   0  0  1  0  0  0  0  0  0  0  0  0
   11.4506  -17.5439   25.6247 C   0  0  0  0  0  0  0  0  0  0  0  0
   11.3166  -18.7062   24.7212 C   0  0  0  0  0  0  0  0  0  0  0  0
   10.0990  -19.2438   24.2845 C   0  0  0  0  0  0  0  0  0  0  0  0
   10.3747  -20.2846   23.4825 N   0  0  0  0  0  0  0  0  0  0  0  0
   11.7065  -20.4399   23.3841 C   0  0  0  0  0  0  0  0  0  0  0  0
   12.2465  -19.4830   24.1346 N   0  0  0  0  0  0  0  0  0  0  0  0
   10.0489  -16.0994   27.0212 C   0  0  0  0  0  0  0  0  0  0  0  0
   10.2322  -16.6608   28.1161 O   0  0  0  0  0  0  0  0  0  0  0  0
    9.7507  -14.7168   27.0088 O   0  0  0  0  0  0  0  0  0  0  0  0
  2  3  1  0
  2  1  1  6
  4  2  1  0
  4  5  1  6
  6  4  1  0
  6  7  2  0
  9  8  1  0
 10  9  2  0
 11 10  1  0
 12 11  2  0
 12 18  1  0
 14 13  1  1
 13 12  1  0
 14 15  1  0
 15  6  1  0
 16 14  1  0
 17 16  2  0
 18 19  2  0
 19  9  1  0
 20 16  1  0
 21 22  1  6
 21 20  1  0
 23 22  1  0
 24 23  2  0
 25 24  1  0
 26 25  1  0
 26 27  2  0
 27 23  1  0
 28 30  1  0
 28 21  1  0
 29 28  2  0
M  END
$$$$
