TYH.pdb
     RDKit          3D

 30 31  0  0  1  0  0  0  0  0999 V2000
    8.4599  -18.5462   18.2078 C   0  0  0  0  0  0  0  0  0  0  0  0
    8.5774  -17.9705   19.5858 C   0  0  1  0  0  0  0  0  0  0  0  0
    9.2974  -18.8268   20.4178 O   0  0  0  0  0  0  0  0  0  0  0  0
    9.2152  -16.6037   19.5972 C   0  0  2  0  0  0  0  0  0  0  0  0
   10.4922  -16.6725   18.9250 N   0  0  0  0  0  0  0  0  0  0  0  0
    9.2992  -16.0124   20.9346 C   0  0  0  0  0  0  0  0  0  0  0  0
   10.3389  -16.2418   21.6111 O   0  0  0  0  0  0  0  0  0  0  0  0
    6.9675  -11.6775   28.3035 O   0  0  0  0  0  0  0  0  0  0  0  0
    7.0231  -12.1847   27.0133 C   0  0  0  0  0  0  0  0  0  0  0  0
    7.8379  -11.6288   26.0404 C   0  0  0  0  0  0  0  0  0  0  0  0
    7.8534  -12.1758   24.7700 C   0  0  0  0  0  0  0  0  0  0  0  0
    7.0796  -13.2635   24.4370 C   0  0  0  0  0  0  0  0  0  0  0  0
    7.1265  -13.8167   23.0663 C   0  0  0  0  0  0  0  0  0  0  0  0
    8.3151  -14.7737   22.9078 C   0  0  2  0  0  0  0  0  0  0  0  0
    8.3172  -15.2032   21.5419 N   0  0  0  0  0  0  0  0  0  0  0  0
    8.1839  -15.8151   23.8989 C   0  0  0  0  0  0  0  0  0  0  0  0
    7.5430  -16.8585   23.6707 O   0  0  0  0  0  0  0  0  0  0  0  0
    6.2768  -13.8084   25.4022 C   0  0  0  0  0  0  0  0  0  0  0  0
    6.2554  -13.2651   26.6805 C   0  0  0  0  0  0  0  0  0  0  0  0
    8.7917  -15.6621   25.1638 N   0  0  0  0  0  0  0  0  0  0  0  0
    9.6754  -16.6886   25.7384 C   0  0  1  0  0  0  0  0  0  0  0  0
   10.8166  -16.9839   24.8297 C   0  0  0  0  0  0  0  0  0  0  0  0
   10.7704  -18.3958   24.3940 C   0  0  0  0  0  0  0  0  0  0  0  0
    9.7413  -19.2948   24.7023 C   0  0  0  0  0  0  0  0  0  0  0  0
   10.0451  -20.4746   24.1381 N   0  0  0  0  0  0  0  0  0  0  0  0
   11.2160  -20.3758   23.4847 C   0  0  0  0  0  0  0  0  0  0  0  0
   11.6286  -19.1221   23.6536 N   0  0  0  0  0  0  0  0  0  0  0  0
   10.1181  -16.3090   27.0786 C   0  0  0  0  0  0  0  0  0  0  0  0
   10.5218  -15.1554   27.3101 O   0  0  0  0  0  0  0  0  0  0  0  0
   10.0960  -17.2458   28.1382 O   0  0  0  0  0  0  0  0  0  0  0  0
  2  3  1  0
  2  1  1  6
  4  2  1  0
  4  5  1  1
  6  4  1  0
  6  7  2  0
  9  8  1  0
 10  9  2  0
 11 10  1  0
 12 11  2  0
 12 18  1  0
 14 13  1  6
 13 12  1  0
 14 15  1  0
 15  6  1  0
 16 14  1  0
 17 16  2  0
 18 19  2  0
 19  9  1  0
 20 16  1  0
 21 22  1  6
 21 20  1  0
 23 22  1  0
 24 23  2  0
 25 24  1  0
 26 25  1  0
 26 27  2  0
 27 23  1  0
 28 30  1  0
 28 21  1  0
 29 28  2  0
M  END
$$$$
