TYH.pdb
     RDKit          3D

 30 31  0  0  1  0  0  0  0  0999 V2000
    8.8749  -20.1549   17.0123 C   0  0  0  0  0  0  0  0  0  0  0  0
    9.3804  -19.5267   18.2748 C   0  0  1  0  0  0  0  0  0  0  0  0
   10.5809  -20.1143   18.6712 O   0  0  0  0  0  0  0  0  0  0  0  0
    9.5661  -18.0349   18.1531 C   0  0  2  0  0  0  0  0  0  0  0  0
   10.5094  -17.7611   17.0936 N   0  0  0  0  0  0  0  0  0  0  0  0
    9.9178  -17.3876   19.4191 C   0  0  0  0  0  0  0  0  0  0  0  0
   11.1349  -17.1270   19.6243 O   0  0  0  0  0  0  0  0  0  0  0  0
    7.1656  -11.5344   18.3723 O   0  0  0  0  0  0  0  0  0  0  0  0
    7.4007  -12.5476   19.2906 C   0  0  0  0  0  0  0  0  0  0  0  0
    6.7424  -13.7649   19.2251 C   0  0  0  0  0  0  0  0  0  0  0  0
    7.0162  -14.7395   20.1677 C   0  0  0  0  0  0  0  0  0  0  0  0
    7.9288  -14.5387   21.1775 C   0  0  0  0  0  0  0  0  0  0  0  0
    8.1912  -15.6080   22.1648 C   0  0  0  0  0  0  0  0  0  0  0  0
    9.3686  -16.4834   21.7164 C   0  0  2  0  0  0  0  0  0  0  0  0
    9.0144  -17.0253   20.4392 N   0  0  0  0  0  0  0  0  0  0  0  0
    9.6325  -17.4443   22.7608 C   0  0  0  0  0  0  0  0  0  0  0  0
    9.1103  -18.5753   22.7566 O   0  0  0  0  0  0  0  0  0  0  0  0
    8.5759  -13.3342   21.2370 C   0  0  0  0  0  0  0  0  0  0  0  0
    8.3067  -12.3502   20.2943 C   0  0  0  0  0  0  0  0  0  0  0  0
   10.5022  -17.1090   23.8209 N   0  0  0  0  0  0  0  0  0  0  0  0
   11.4241  -18.0878   24.4183 C   0  0  1  0  0  0  0  0  0  0  0  0
   12.3929  -18.5976   23.4099 C   0  0  0  0  0  0  0  0  0  0  0  0
   11.9181  -19.8798   22.8480 C   0  0  0  0  0  0  0  0  0  0  0  0
   10.7205  -20.5140   23.2029 C   0  0  0  0  0  0  0  0  0  0  0  0
   10.6304  -21.6481   22.4898 N   0  0  0  0  0  0  0  0  0  0  0  0
   11.7093  -21.7713   21.6971 C   0  0  0  0  0  0  0  0  0  0  0  0
   12.4637  -20.7004   21.9308 N   0  0  0  0  0  0  0  0  0  0  0  0
   12.0898  -17.5314   25.5945 C   0  0  0  0  0  0  0  0  0  0  0  0
   12.1590  -18.1832   26.6518 O   0  0  0  0  0  0  0  0  0  0  0  0
   12.6683  -16.2413   25.5535 O   0  0  0  0  0  0  0  0  0  0  0  0
  2  3  1  0
  2  1  1  6
  4  2  1  0
  4  5  1  6
  6  4  1  0
  6  7  2  0
  9  8  1  0
 10  9  2  0
 11 10  1  0
 12 11  2  0
 12 18  1  0
 14 13  1  1
 13 12  1  0
 14 15  1  0
 15  6  1  0
 16 14  1  0
 17 16  2  0
 18 19  2  0
 19  9  1  0
 20 16  1  0
 21 22  1  6
 21 20  1  0
 23 22  1  0
 24 23  2  0
 25 24  1  0
 26 25  1  0
 26 27  2  0
 27 23  1  0
 28 30  1  0
 28 21  1  0
 29 28  2  0
M  END
$$$$
