TYH.pdb
     RDKit          3D

 30 31  0  0  1  0  0  0  0  0999 V2000
   15.3254  -19.2349   12.8579 C   0  0  0  0  0  0  0  0  0  0  0  0
   15.4077  -19.1122   14.3486 C   0  0  1  0  0  0  0  0  0  0  0  0
   16.5694  -18.4393   14.7242 O   0  0  0  0  0  0  0  0  0  0  0  0
   14.2088  -18.4190   14.9463 C   0  0  2  0  0  0  0  0  0  0  0  0
   14.0492  -17.1270   14.3199 N   0  0  0  0  0  0  0  0  0  0  0  0
   14.2467  -18.3495   16.4088 C   0  0  0  0  0  0  0  0  0  0  0  0
   14.7863  -17.3365   16.9323 O   0  0  0  0  0  0  0  0  0  0  0  0
   13.3640  -20.6910   24.9097 O   0  0  0  0  0  0  0  0  0  0  0  0
   13.2590  -20.6195   23.5281 C   0  0  0  0  0  0  0  0  0  0  0  0
   13.8071  -21.5850   22.6994 C   0  0  0  0  0  0  0  0  0  0  0  0
   13.6719  -21.4630   21.3281 C   0  0  0  0  0  0  0  0  0  0  0  0
   13.0053  -20.4051   20.7544 C   0  0  0  0  0  0  0  0  0  0  0  0
   12.8842  -20.3133   19.2834 C   0  0  0  0  0  0  0  0  0  0  0  0
   13.9263  -19.3427   18.7127 C   0  0  2  0  0  0  0  0  0  0  0  0
   13.7315  -19.3183   17.2943 N   0  0  0  0  0  0  0  0  0  0  0  0
   15.2286  -19.7701   19.1657 C   0  0  0  0  0  0  0  0  0  0  0  0
   15.7674  -20.8038   18.7265 O   0  0  0  0  0  0  0  0  0  0  0  0
   12.4660  -19.4545   21.5781 C   0  0  0  0  0  0  0  0  0  0  0  0
   12.5973  -19.5696   22.9562 C   0  0  0  0  0  0  0  0  0  0  0  0
   15.9221  -19.0081   20.1307 N   0  0  0  0  0  0  0  0  0  0  0  0
   17.2833  -19.3518   20.5709 C   0  0  1  0  0  0  0  0  0  0  0  0
   18.2321  -18.2372   20.3009 C   0  0  0  0  0  0  0  0  0  0  0  0
   18.5609  -18.1839   18.8606 C   0  0  0  0  0  0  0  0  0  0  0  0
   18.5816  -19.2915   18.0033 C   0  0  0  0  0  0  0  0  0  0  0  0
   18.9213  -18.8563   16.7795 N   0  0  0  0  0  0  0  0  0  0  0  0
   19.1188  -17.5267   16.8106 C   0  0  0  0  0  0  0  0  0  0  0  0
   18.8968  -17.1495   18.0671 N   0  0  0  0  0  0  0  0  0  0  0  0
   17.2933  -19.7603   21.9741 C   0  0  0  0  0  0  0  0  0  0  0  0
   16.2564  -19.7019   22.6590 O   0  0  0  0  0  0  0  0  0  0  0  0
   18.4817  -20.2300   22.5806 O   0  0  0  0  0  0  0  0  0  0  0  0
  2  3  1  0
  2  1  1  6
  4  2  1  0
  4  5  1  6
  6  4  1  0
  6  7  2  0
  9  8  1  0
 10  9  2  0
 11 10  1  0
 12 11  2  0
 12 18  1  0
 14 13  1  1
 13 12  1  0
 14 15  1  0
 15  6  1  0
 16 14  1  0
 17 16  2  0
 18 19  2  0
 19  9  1  0
 20 16  1  0
 21 22  1  1
 21 20  1  0
 23 22  1  0
 24 23  2  0
 25 24  1  0
 26 25  1  0
 26 27  2  0
 27 23  1  0
 28 30  1  0
 28 21  1  0
 29 28  2  0
M  END
$$$$
