TYH.pdb
     RDKit          3D

 30 31  0  0  1  0  0  0  0  0999 V2000
    7.7813  -18.9292   18.3136 C   0  0  0  0  0  0  0  0  0  0  0  0
    8.1430  -18.1697   19.5532 C   0  0  1  0  0  0  0  0  0  0  0  0
    9.2866  -18.7057   20.1434 O   0  0  0  0  0  0  0  0  0  0  0  0
    8.3508  -16.6976   19.2984 C   0  0  2  0  0  0  0  0  0  0  0  0
    9.3228  -16.5335   18.2421 N   0  0  0  0  0  0  0  0  0  0  0  0
    8.6803  -15.9392   20.5074 C   0  0  0  0  0  0  0  0  0  0  0  0
    9.8941  -15.6633   20.7120 O   0  0  0  0  0  0  0  0  0  0  0  0
    7.6981  -11.6610   28.2010 O   0  0  0  0  0  0  0  0  0  0  0  0
    7.4933  -12.3634   27.0221 C   0  0  0  0  0  0  0  0  0  0  0  0
    8.5449  -12.7622   26.2131 C   0  0  0  0  0  0  0  0  0  0  0  0
    8.2821  -13.4604   25.0483 C   0  0  0  0  0  0  0  0  0  0  0  0
    6.9995  -13.7750   24.6626 C   0  0  0  0  0  0  0  0  0  0  0  0
    6.7633  -14.5230   23.4089 C   0  0  0  0  0  0  0  0  0  0  0  0
    8.0902  -14.8345   22.7047 C   0  0  2  0  0  0  0  0  0  0  0  0
    7.7586  -15.4846   21.4727 N   0  0  0  0  0  0  0  0  0  0  0  0
    8.9127  -15.5910   23.6185 C   0  0  0  0  0  0  0  0  0  0  0  0
    9.4275  -15.0655   24.6238 O   0  0  0  0  0  0  0  0  0  0  0  0
    5.9648  -13.3783   25.4658 C   0  0  0  0  0  0  0  0  0  0  0  0
    6.2202  -12.6768   26.6372 C   0  0  0  0  0  0  0  0  0  0  0  0
    9.1491  -16.9623   23.3807 N   0  0  0  0  0  0  0  0  0  0  0  0
   10.0834  -17.7505   24.1998 C   0  0  1  0  0  0  0  0  0  0  0  0
    9.5853  -19.1394   24.3954 C   0  0  0  0  0  0  0  0  0  0  0  0
    8.4569  -19.1475   25.3504 C   0  0  0  0  0  0  0  0  0  0  0  0
    8.4744  -18.5441   26.6145 C   0  0  0  0  0  0  0  0  0  0  0  0
    7.2797  -18.7596   27.1881 N   0  0  0  0  0  0  0  0  0  0  0  0
    6.4992  -19.4701   26.3551 C   0  0  0  0  0  0  0  0  0  0  0  0
    7.2274  -19.6889   25.2632 N   0  0  0  0  0  0  0  0  0  0  0  0
   11.4309  -17.7195   23.6348 C   0  0  0  0  0  0  0  0  0  0  0  0
   12.3643  -18.3287   24.1871 O   0  0  0  0  0  0  0  0  0  0  0  0
   11.6999  -16.9963   22.4493 O   0  0  0  0  0  0  0  0  0  0  0  0
  2  3  1  0
  2  1  1  6
  4  2  1  0
  4  5  1  6
  6  4  1  0
  6  7  2  0
  9  8  1  0
 10  9  2  0
 11 10  1  0
 12 11  2  0
 12 18  1  0
 14 13  1  1
 13 12  1  0
 14 15  1  0
 15  6  1  0
 16 14  1  0
 17 16  2  0
 18 19  2  0
 19  9  1  0
 20 16  1  0
 21 22  1  6
 21 20  1  0
 23 22  1  0
 24 23  2  0
 25 24  1  0
 26 25  1  0
 26 27  2  0
 27 23  1  0
 28 30  1  0
 28 21  1  0
 29 28  2  0
M  END
$$$$
