TYH.pdb
     RDKit          3D

 30 31  0  0  1  0  0  0  0  0999 V2000
    6.8312  -14.9699   18.4919 C   0  0  0  0  0  0  0  0  0  0  0  0
    7.5080  -15.2323   19.8023 C   0  0  1  0  0  0  0  0  0  0  0  0
    8.7210  -15.8912   19.6072 O   0  0  0  0  0  0  0  0  0  0  0  0
    7.7409  -13.9756   20.6033 C   0  0  2  0  0  0  0  0  0  0  0  0
    8.4386  -13.0139   19.7813 N   0  0  0  0  0  0  0  0  0  0  0  0
    8.3985  -14.2192   21.8892 C   0  0  0  0  0  0  0  0  0  0  0  0
    9.6510  -14.0783   21.9414 O   0  0  0  0  0  0  0  0  0  0  0  0
    5.8728  -10.0909   27.4842 O   0  0  0  0  0  0  0  0  0  0  0  0
    6.2484  -11.3194   26.9600 C   0  0  0  0  0  0  0  0  0  0  0  0
    7.5369  -11.5641   26.5137 C   0  0  0  0  0  0  0  0  0  0  0  0
    7.8557  -12.8084   26.0001 C   0  0  0  0  0  0  0  0  0  0  0  0
    6.9275  -13.8204   25.9170 C   0  0  0  0  0  0  0  0  0  0  0  0
    7.3109  -15.1359   25.3608 C   0  0  0  0  0  0  0  0  0  0  0  0
    8.4097  -14.9779   24.3018 C   0  0  2  0  0  0  0  0  0  0  0  0
    7.7561  -14.6000   23.0851 N   0  0  0  0  0  0  0  0  0  0  0  0
    9.1669  -16.2061   24.2588 C   0  0  0  0  0  0  0  0  0  0  0  0
    9.1894  -16.9257   23.2422 O   0  0  0  0  0  0  0  0  0  0  0  0
    5.6563  -13.5727   26.3595 C   0  0  0  0  0  0  0  0  0  0  0  0
    5.3280  -12.3260   26.8766 C   0  0  0  0  0  0  0  0  0  0  0  0
    9.9063  -16.6159   25.3894 N   0  0  0  0  0  0  0  0  0  0  0  0
   10.8712  -17.7253   25.3353 C   0  0  1  0  0  0  0  0  0  0  0  0
   12.0606  -17.3627   24.5172 C   0  0  0  0  0  0  0  0  0  0  0  0
   11.8009  -17.6385   23.0883 C   0  0  0  0  0  0  0  0  0  0  0  0
   10.5732  -18.0655   22.5662 C   0  0  0  0  0  0  0  0  0  0  0  0
   10.7200  -18.2104   21.2396 N   0  0  0  0  0  0  0  0  0  0  0  0
   11.9791  -17.8978   20.8867 C   0  0  0  0  0  0  0  0  0  0  0  0
   12.6047  -17.5591   22.0112 N   0  0  0  0  0  0  0  0  0  0  0  0
   11.2371  -18.1682   26.6792 C   0  0  0  0  0  0  0  0  0  0  0  0
   11.0848  -17.4159   27.6582 O   0  0  0  0  0  0  0  0  0  0  0  0
   11.7714  -19.4603   26.8929 O   0  0  0  0  0  0  0  0  0  0  0  0
  2  3  1  0
  2  1  1  6
  4  2  1  0
  4  5  1  6
  6  4  1  0
  6  7  2  0
  9  8  1  0
 10  9  2  0
 11 10  1  0
 12 11  2  0
 12 18  1  0
 14 13  1  1
 13 12  1  0
 14 15  1  0
 15  6  1  0
 16 14  1  0
 17 16  2  0
 18 19  2  0
 19  9  1  0
 20 16  1  0
 21 22  1  1
 21 20  1  0
 23 22  1  0
 24 23  2  0
 25 24  1  0
 26 25  1  0
 26 27  2  0
 27 23  1  0
 28 30  1  0
 28 21  1  0
 29 28  2  0
M  END
$$$$
