TYH.pdb
     RDKit          3D

 30 31  0  0  1  0  0  0  0  0999 V2000
    7.2703  -20.4494   17.4099 C   0  0  0  0  0  0  0  0  0  0  0  0
    8.2224  -19.7980   18.3656 C   0  0  1  0  0  0  0  0  0  0  0  0
    9.4769  -20.4026   18.3003 O   0  0  0  0  0  0  0  0  0  0  0  0
    8.3654  -18.3150   18.1304 C   0  0  2  0  0  0  0  0  0  0  0  0
    8.8356  -18.0936   16.7823 N   0  0  0  0  0  0  0  0  0  0  0  0
    9.1817  -17.6417   19.1431 C   0  0  0  0  0  0  0  0  0  0  0  0
   10.3536  -17.3045   18.8201 O   0  0  0  0  0  0  0  0  0  0  0  0
    7.5811  -11.5622   18.3485 O   0  0  0  0  0  0  0  0  0  0  0  0
    7.8922  -12.5494   19.2724 C   0  0  0  0  0  0  0  0  0  0  0  0
    9.1631  -12.6788   19.8084 C   0  0  0  0  0  0  0  0  0  0  0  0
    9.4170  -13.6821   20.7263 C   0  0  0  0  0  0  0  0  0  0  0  0
    8.4406  -14.5638   21.1285 C   0  0  0  0  0  0  0  0  0  0  0  0
    8.7552  -15.6222   22.1124 C   0  0  0  0  0  0  0  0  0  0  0  0
    9.5955  -16.7313   21.4662 C   0  0  2  0  0  0  0  0  0  0  0  0
    8.7760  -17.3326   20.4576 N   0  0  0  0  0  0  0  0  0  0  0  0
   10.0559  -17.6098   22.5149 C   0  0  0  0  0  0  0  0  0  0  0  0
    9.2740  -18.3573   23.1326 O   0  0  0  0  0  0  0  0  0  0  0  0
    7.1870  -14.4310   20.5956 C   0  0  0  0  0  0  0  0  0  0  0  0
    6.9239  -13.4262   19.6733 C   0  0  0  0  0  0  0  0  0  0  0  0
   11.4243  -17.6343   22.8610 N   0  0  0  0  0  0  0  0  0  0  0  0
   11.9544  -18.5307   23.9004 C   0  0  1  0  0  0  0  0  0  0  0  0
   13.4268  -18.6996   23.7635 C   0  0  0  0  0  0  0  0  0  0  0  0
   13.9305  -19.6389   24.7879 C   0  0  0  0  0  0  0  0  0  0  0  0
   13.2913  -20.8259   25.1682 C   0  0  0  0  0  0  0  0  0  0  0  0
   14.0406  -21.4089   26.1176 N   0  0  0  0  0  0  0  0  0  0  0  0
   15.1264  -20.6552   26.3636 C   0  0  0  0  0  0  0  0  0  0  0  0
   15.0362  -19.6024   25.5550 N   0  0  0  0  0  0  0  0  0  0  0  0
   11.5708  -18.0719   25.2341 C   0  0  0  0  0  0  0  0  0  0  0  0
   11.5116  -18.8699   26.1865 O   0  0  0  0  0  0  0  0  0  0  0  0
   11.2597  -16.7120   25.4677 O   0  0  0  0  0  0  0  0  0  0  0  0
  2  3  1  0
  2  1  1  6
  4  2  1  0
  4  5  1  6
  6  4  1  0
  6  7  2  0
  9  8  1  0
 10  9  2  0
 11 10  1  0
 12 11  2  0
 12 18  1  0
 14 13  1  1
 13 12  1  0
 14 15  1  0
 15  6  1  0
 16 14  1  0
 17 16  2  0
 18 19  2  0
 19  9  1  0
 20 16  1  0
 21 22  1  1
 21 20  1  0
 23 22  1  0
 24 23  2  0
 25 24  1  0
 26 25  1  0
 26 27  2  0
 27 23  1  0
 28 30  1  0
 28 21  1  0
 29 28  2  0
M  END
$$$$
