TYH.pdb
     RDKit          3D

 30 31  0  0  1  0  0  0  0  0999 V2000
    8.2995  -19.6269   19.1467 C   0  0  0  0  0  0  0  0  0  0  0  0
    8.5481  -18.6650   20.2680 C   0  0  1  0  0  0  0  0  0  0  0  0
    9.8132  -18.8659   20.8181 O   0  0  0  0  0  0  0  0  0  0  0  0
    8.4058  -17.2240   19.8458 C   0  0  2  0  0  0  0  0  0  0  0  0
    9.2348  -16.9871   18.6866 N   0  0  0  0  0  0  0  0  0  0  0  0
    8.6500  -16.2729   20.9327 C   0  0  0  0  0  0  0  0  0  0  0  0
    9.6940  -15.5678   20.8692 O   0  0  0  0  0  0  0  0  0  0  0  0
    7.2444  -11.3596   28.1723 O   0  0  0  0  0  0  0  0  0  0  0  0
    7.1117  -12.2053   27.0804 C   0  0  0  0  0  0  0  0  0  0  0  0
    7.2060  -11.7428   25.7779 C   0  0  0  0  0  0  0  0  0  0  0  0
    7.0653  -12.6313   24.7271 C   0  0  0  0  0  0  0  0  0  0  0  0
    6.8328  -13.9714   24.9340 C   0  0  0  0  0  0  0  0  0  0  0  0
    6.6885  -14.8867   23.7814 C   0  0  0  0  0  0  0  0  0  0  0  0
    8.0433  -15.1187   23.0998 C   0  0  2  0  0  0  0  0  0  0  0  0
    7.8191  -16.0704   22.0537 N   0  0  0  0  0  0  0  0  0  0  0  0
    8.9926  -15.5063   24.1158 C   0  0  0  0  0  0  0  0  0  0  0  0
    9.3388  -14.7233   25.0207 O   0  0  0  0  0  0  0  0  0  0  0  0
    6.7406  -14.4224   26.2228 C   0  0  0  0  0  0  0  0  0  0  0  0
    6.8807  -13.5367   27.2836 C   0  0  0  0  0  0  0  0  0  0  0  0
    9.5521  -16.8022   24.0972 N   0  0  0  0  0  0  0  0  0  0  0  0
   10.5764  -17.2281   25.0637 C   0  0  1  0  0  0  0  0  0  0  0  0
   11.6582  -16.2125   25.1816 C   0  0  0  0  0  0  0  0  0  0  0  0
   12.4327  -16.1430   23.9244 C   0  0  0  0  0  0  0  0  0  0  0  0
   12.1649  -16.9006   22.7770 C   0  0  0  0  0  0  0  0  0  0  0  0
   13.0729  -16.5684   21.8454 N   0  0  0  0  0  0  0  0  0  0  0  0
   13.9076  -15.6370   22.3388 C   0  0  0  0  0  0  0  0  0  0  0  0
   13.5027  -15.4004   23.5839 N   0  0  0  0  0  0  0  0  0  0  0  0
    9.9758  -17.5506   26.3566 C   0  0  0  0  0  0  0  0  0  0  0  0
    8.7454  -17.4707   26.5218 O   0  0  0  0  0  0  0  0  0  0  0  0
   10.7816  -17.9598   27.4447 O   0  0  0  0  0  0  0  0  0  0  0  0
  2  3  1  0
  2  1  1  6
  4  2  1  0
  4  5  1  6
  6  4  1  0
  6  7  2  0
  9  8  1  0
 10  9  2  0
 11 10  1  0
 12 11  2  0
 12 18  1  0
 14 13  1  1
 13 12  1  0
 14 15  1  0
 15  6  1  0
 16 14  1  0
 17 16  2  0
 18 19  2  0
 19  9  1  0
 20 16  1  0
 21 22  1  1
 21 20  1  0
 23 22  1  0
 24 23  2  0
 25 24  1  0
 26 25  1  0
 26 27  2  0
 27 23  1  0
 28 30  1  0
 28 21  1  0
 29 28  2  0
M  END
$$$$
