TYH.pdb
     RDKit          3D

 30 31  0  0  1  0  0  0  0  0999 V2000
    8.8795  -19.5369   18.4038 C   0  0  0  0  0  0  0  0  0  0  0  0
    9.0710  -18.7195   19.6445 C   0  0  1  0  0  0  0  0  0  0  0  0
   10.1221  -19.2236   20.4093 O   0  0  0  0  0  0  0  0  0  0  0  0
    9.3157  -17.2602   19.3525 C   0  0  2  0  0  0  0  0  0  0  0  0
   10.4449  -17.1399   18.4593 N   0  0  0  0  0  0  0  0  0  0  0  0
    9.4454  -16.4396   20.5588 C   0  0  0  0  0  0  0  0  0  0  0  0
   10.6099  -16.1370   20.9378 O   0  0  0  0  0  0  0  0  0  0  0  0
    7.2018  -11.8033   27.7789 O   0  0  0  0  0  0  0  0  0  0  0  0
    7.1690  -12.5294   26.5970 C   0  0  0  0  0  0  0  0  0  0  0  0
    6.6528  -13.8138   26.5386 C   0  0  0  0  0  0  0  0  0  0  0  0
    6.6456  -14.4914   25.3327 C   0  0  0  0  0  0  0  0  0  0  0  0
    7.1384  -13.9274   24.1786 C   0  0  0  0  0  0  0  0  0  0  0  0
    7.1114  -14.6875   22.9103 C   0  0  0  0  0  0  0  0  0  0  0  0
    8.5093  -15.2172   22.5654 C   0  0  2  0  0  0  0  0  0  0  0  0
    8.3800  -15.9520   21.3432 N   0  0  0  0  0  0  0  0  0  0  0  0
    8.9972  -15.9606   23.7026 C   0  0  0  0  0  0  0  0  0  0  0  0
    8.4444  -17.0095   24.0847 O   0  0  0  0  0  0  0  0  0  0  0  0
    7.6470  -12.6585   24.2426 C   0  0  0  0  0  0  0  0  0  0  0  0
    7.6580  -11.9712   25.4496 C   0  0  0  0  0  0  0  0  0  0  0  0
   10.1287  -15.5003   24.4102 N   0  0  0  0  0  0  0  0  0  0  0  0
   10.6860  -16.2314   25.5590 C   0  0  1  0  0  0  0  0  0  0  0  0
    9.6875  -16.3475   26.6567 C   0  0  0  0  0  0  0  0  0  0  0  0
    9.8782  -15.2584   27.6380 C   0  0  0  0  0  0  0  0  0  0  0  0
   10.8042  -14.2157   27.5057 C   0  0  0  0  0  0  0  0  0  0  0  0
   10.6885  -13.4254   28.5849 N   0  0  0  0  0  0  0  0  0  0  0  0
    9.7358  -13.9098   29.4005 C   0  0  0  0  0  0  0  0  0  0  0  0
    9.2671  -15.0065   28.8107 N   0  0  0  0  0  0  0  0  0  0  0  0
   11.2116  -17.5318   25.1482 C   0  0  0  0  0  0  0  0  0  0  0  0
   11.2098  -18.4943   25.9364 O   0  0  0  0  0  0  0  0  0  0  0  0
   11.7324  -17.7213   23.8469 O   0  0  0  0  0  0  0  0  0  0  0  0
  2  3  1  0
  2  1  1  6
  4  2  1  0
  4  5  1  1
  6  4  1  0
  6  7  2  0
  9  8  1  0
 10  9  2  0
 11 10  1  0
 12 11  2  0
 12 18  1  0
 14 13  1  1
 13 12  1  0
 14 15  1  0
 15  6  1  0
 16 14  1  0
 17 16  2  0
 18 19  2  0
 19  9  1  0
 20 16  1  0
 21 22  1  1
 21 20  1  0
 23 22  1  0
 24 23  2  0
 25 24  1  0
 26 25  1  0
 26 27  2  0
 27 23  1  0
 28 30  1  0
 28 21  1  0
 29 28  2  0
M  END
$$$$
