TYH.pdb
     RDKit          3D

 30 31  0  0  1  0  0  0  0  0999 V2000
   10.5241  -17.9571   15.1156 C   0  0  0  0  0  0  0  0  0  0  0  0
   10.9545  -18.5910   16.4028 C   0  0  1  0  0  0  0  0  0  0  0  0
   10.0875  -19.6234   16.7577 O   0  0  0  0  0  0  0  0  0  0  0  0
   12.3679  -19.1152   16.3538 C   0  0  2  0  0  0  0  0  0  0  0  0
   12.4833  -20.0622   15.2688 N   0  0  0  0  0  0  0  0  0  0  0  0
   12.8353  -19.6479   17.6356 C   0  0  0  0  0  0  0  0  0  0  0  0
   12.8829  -20.9018   17.7653 O   0  0  0  0  0  0  0  0  0  0  0  0
   19.2598  -18.0778   17.4561 O   0  0  0  0  0  0  0  0  0  0  0  0
   18.1077  -18.1413   18.2265 C   0  0  0  0  0  0  0  0  0  0  0  0
   17.0674  -17.2403   18.0668 C   0  0  0  0  0  0  0  0  0  0  0  0
   15.9416  -17.3508   18.8630 C   0  0  0  0  0  0  0  0  0  0  0  0
   15.8192  -18.3346   19.8169 C   0  0  0  0  0  0  0  0  0  0  0  0
   14.5980  -18.4165   20.6469 C   0  0  0  0  0  0  0  0  0  0  0  0
   13.5919  -19.4007   20.0362 C   0  0  2  0  0  0  0  0  0  0  0  0
   13.2407  -18.8827   18.7483 N   0  0  0  0  0  0  0  0  0  0  0  0
   12.5043  -19.5637   20.9713 C   0  0  0  0  0  0  0  0  0  0  0  0
   11.4721  -18.8699   20.9018 O   0  0  0  0  0  0  0  0  0  0  0  0
   16.8501  -19.2217   19.9700 C   0  0  0  0  0  0  0  0  0  0  0  0
   17.9840  -19.1176   19.1745 C   0  0  0  0  0  0  0  0  0  0  0  0
   12.5976  -20.5297   21.9964 N   0  0  0  0  0  0  0  0  0  0  0  0
   11.5056  -20.7648   22.9541 C   0  0  1  0  0  0  0  0  0  0  0  0
   10.7300  -21.9834   22.5950 C   0  0  0  0  0  0  0  0  0  0  0  0
    9.6855  -22.2412   23.6089 C   0  0  0  0  0  0  0  0  0  0  0  0
    9.9270  -22.4317   24.9755 C   0  0  0  0  0  0  0  0  0  0  0  0
    8.7440  -22.6385   25.5758 N   0  0  0  0  0  0  0  0  0  0  0  0
    7.7584  -22.5900   24.6626 C   0  0  0  0  0  0  0  0  0  0  0  0
    8.3487  -22.3511   23.4943 N   0  0  0  0  0  0  0  0  0  0  0  0
   12.0113  -20.8136   24.3245 C   0  0  0  0  0  0  0  0  0  0  0  0
   11.2420  -21.0349   25.2768 O   0  0  0  0  0  0  0  0  0  0  0  0
   13.3847  -20.6102   24.5946 O   0  0  0  0  0  0  0  0  0  0  0  0
  2  3  1  0
  2  1  1  6
  4  2  1  0
  4  5  1  6
  6  4  1  0
  6  7  2  0
  9  8  1  0
 10  9  2  0
 11 10  1  0
 12 11  2  0
 12 18  1  0
 14 13  1  1
 13 12  1  0
 14 15  1  0
 15  6  1  0
 16 14  1  0
 17 16  2  0
 18 19  2  0
 19  9  1  0
 20 16  1  0
 21 22  1  6
 21 20  1  0
 23 22  1  0
 24 23  2  0
 25 24  1  0
 26 25  1  0
 26 27  2  0
 27 23  1  0
 28 30  1  0
 28 21  1  0
 29 28  2  0
M  END
$$$$
