TYH.pdb
     RDKit          3D

 30 31  0  0  1  0  0  0  0  0999 V2000
    8.3262  -18.6899   18.0411 C   0  0  0  0  0  0  0  0  0  0  0  0
    8.5400  -18.0703   19.3882 C   0  0  1  0  0  0  0  0  0  0  0  0
    9.4491  -18.8177   20.1356 O   0  0  0  0  0  0  0  0  0  0  0  0
    9.0110  -16.6397   19.3069 C   0  0  2  0  0  0  0  0  0  0  0  0
   10.1922  -16.5776   18.4773 N   0  0  0  0  0  0  0  0  0  0  0  0
    9.1940  -16.0125   20.6177 C   0  0  0  0  0  0  0  0  0  0  0  0
   10.3141  -16.1511   21.1811 O   0  0  0  0  0  0  0  0  0  0  0  0
    7.2250  -11.8010   28.1693 O   0  0  0  0  0  0  0  0  0  0  0  0
    7.1588  -12.3833   26.9117 C   0  0  0  0  0  0  0  0  0  0  0  0
    6.4515  -13.5519   26.6802 C   0  0  0  0  0  0  0  0  0  0  0  0
    6.4196  -14.0884   25.4056 C   0  0  0  0  0  0  0  0  0  0  0  0
    7.0729  -13.4949   24.3503 C   0  0  0  0  0  0  0  0  0  0  0  0
    7.0129  -14.1025   23.0033 C   0  0  0  0  0  0  0  0  0  0  0  0
    8.3250  -14.8269   22.6759 C   0  0  2  0  0  0  0  0  0  0  0  0
    8.2259  -15.2611   21.3150 N   0  0  0  0  0  0  0  0  0  0  0  0
    8.5180  -15.8656   23.6596 C   0  0  0  0  0  0  0  0  0  0  0  0
    7.6894  -16.7830   23.8137 O   0  0  0  0  0  0  0  0  0  0  0  0
    7.7700  -12.3408   24.5851 C   0  0  0  0  0  0  0  0  0  0  0  0
    7.8070  -11.7956   25.8621 C   0  0  0  0  0  0  0  0  0  0  0  0
    9.6700  -15.8557   24.4755 N   0  0  0  0  0  0  0  0  0  0  0  0
    9.9251  -16.8956   25.4846 C   0  0  1  0  0  0  0  0  0  0  0  0
   11.2666  -17.5114   25.2933 C   0  0  0  0  0  0  0  0  0  0  0  0
   11.2671  -18.3713   24.0909 C   0  0  0  0  0  0  0  0  0  0  0  0
   10.1654  -18.5695   23.2487 C   0  0  0  0  0  0  0  0  0  0  0  0
   10.5429  -19.4079   22.2704 N   0  0  0  0  0  0  0  0  0  0  0  0
   11.8299  -19.7560   22.4441 C   0  0  0  0  0  0  0  0  0  0  0  0
   12.2393  -19.1222   23.5401 N   0  0  0  0  0  0  0  0  0  0  0  0
    9.7441  -16.3703   26.8364 C   0  0  0  0  0  0  0  0  0  0  0  0
    9.8690  -17.1122   27.8271 O   0  0  0  0  0  0  0  0  0  0  0  0
    9.4235  -15.0084   27.0445 O   0  0  0  0  0  0  0  0  0  0  0  0
  2  3  1  0
  2  1  1  6
  4  2  1  0
  4  5  1  1
  6  4  1  0
  6  7  2  0
  9  8  1  0
 10  9  2  0
 11 10  1  0
 12 11  2  0
 12 18  1  0
 14 13  1  1
 13 12  1  0
 14 15  1  0
 15  6  1  0
 16 14  1  0
 17 16  2  0
 18 19  2  0
 19  9  1  0
 20 16  1  0
 21 22  1  1
 21 20  1  0
 23 22  1  0
 24 23  2  0
 25 24  1  0
 26 25  1  0
 26 27  2  0
 27 23  1  0
 28 30  1  0
 28 21  1  0
 29 28  2  0
M  END
$$$$
