KPK.pdb
     RDKit          3D

 26 26  0  0  1  0  0  0  0  0999 V2000
    8.1762  -14.0469   20.9791 N   0  0  0  0  0  0  0  0  0  0  0  0
    7.2956  -14.0371   22.1443 C   0  0  1  0  0  0  0  0  0  0  0  0
    6.4121  -15.2460   21.9961 C   0  0  0  0  0  0  0  0  0  0  0  0
    7.1010  -16.5632   21.9939 C   0  0  0  0  0  0  0  0  0  0  0  0
    6.0614  -17.6762   22.0180 C   0  0  0  0  0  0  0  0  0  0  0  0
    6.6471  -19.0477   22.0369 C   0  0  0  0  0  0  0  0  0  0  0  0
    5.5241  -20.0015   22.0230 N   0  0  0  0  0  0  0  0  0  0  0  0
    8.1251  -14.0327   23.3545 C   0  0  0  0  0  0  0  0  0  0  0  0
    9.3683  -14.3284   23.1492 O   0  0  0  0  0  0  0  0  0  0  0  0
    7.7018  -13.7453   24.6694 N   0  0  0  0  0  0  0  0  0  0  0  0
    6.3000  -13.5035   25.0023 C   0  0  0  0  0  0  0  0  0  0  0  0
    6.3085  -12.7284   26.2829 C   0  0  0  0  0  0  0  0  0  0  0  0
    7.7240  -12.6387   26.7268 C   0  0  0  0  0  0  0  0  0  0  0  0
    8.4567  -13.6604   25.8621 C   0  0  1  0  0  0  0  0  0  0  0  0
    8.4922  -14.9335   26.6486 C   0  0  0  0  0  0  0  0  0  0  0  0
    7.4327  -15.6086   26.6986 O   0  0  0  0  0  0  0  0  0  0  0  0
    9.6903  -15.3277   27.2959 N   0  0  0  0  0  0  0  0  0  0  0  0
   10.0828  -16.7502   27.3393 C   0  0  1  0  0  0  0  0  0  0  0  0
   11.2447  -16.9757   26.4098 C   0  0  0  0  0  0  0  0  0  0  0  0
   11.8366  -18.3287   26.4297 C   0  0  0  0  0  0  0  0  0  0  0  0
   12.9769  -18.5927   25.5111 C   0  0  0  0  0  0  0  0  0  0  0  0
   13.5625  -19.9693   25.5777 C   0  0  0  0  0  0  0  0  0  0  0  0
   14.7395  -20.0879   24.7466 N   0  0  0  0  0  0  0  0  0  0  0  0
   10.3448  -17.1396   28.7392 C   0  0  0  0  0  0  0  0  0  0  0  0
   10.6862  -16.1839   29.7164 O   0  0  0  0  0  0  0  0  0  0  0  0
   10.2819  -18.3238   29.1392 O   0  0  0  0  0  0  0  0  0  0  0  0
  2  3  1  0
  2  1  1  6
  4  3  1  0
  4  5  1  0
  6  5  1  0
  6  7  1  0
  8  2  1  0
  9  8  2  0
 10 14  1  0
 10  8  1  0
 11 12  1  0
 11 10  1  0
 12 13  1  0
 13 14  1  0
 14 15  1  1
 16 15  2  0
 17 15  1  0
 18 17  1  0
 18 24  1  0
 18 19  1  6
 20 19  1  0
 21 20  1  0
 22 21  1  0
 22 23  1  0
 24 25  1  0
 26 24  2  0
M  END
$$$$
