KPK.pdb
     RDKit          3D

 26 26  0  0  1  0  0  0  0  0999 V2000
    8.8028  -14.9520   21.6859 N   0  0  0  0  0  0  0  0  0  0  0  0
    7.8288  -14.5441   22.6950 C   0  0  1  0  0  0  0  0  0  0  0  0
    6.7362  -15.5774   22.6463 C   0  0  0  0  0  0  0  0  0  0  0  0
    7.0397  -16.8144   21.8798 C   0  0  0  0  0  0  0  0  0  0  0  0
    7.2398  -17.9722   22.8493 C   0  0  0  0  0  0  0  0  0  0  0  0
    7.4888  -19.2819   22.1807 C   0  0  0  0  0  0  0  0  0  0  0  0
    6.2835  -19.6081   21.3985 N   0  0  0  0  0  0  0  0  0  0  0  0
    8.5139  -14.4414   23.9884 C   0  0  0  0  0  0  0  0  0  0  0  0
    9.7440  -14.8435   23.9730 O   0  0  0  0  0  0  0  0  0  0  0  0
    7.9695  -13.9614   25.1983 N   0  0  0  0  0  0  0  0  0  0  0  0
    6.5587  -13.6069   25.3326 C   0  0  0  0  0  0  0  0  0  0  0  0
    6.4783  -12.6705   26.4977 C   0  0  0  0  0  0  0  0  0  0  0  0
    7.8399  -12.5947   27.0887 C   0  0  0  0  0  0  0  0  0  0  0  0
    8.5940  -13.7577   26.4506 C   0  0  1  0  0  0  0  0  0  0  0  0
    8.4604  -14.9156   27.3897 C   0  0  0  0  0  0  0  0  0  0  0  0
    7.7017  -14.7676   28.3813 O   0  0  0  0  0  0  0  0  0  0  0  0
    9.1761  -16.1130   27.1369 N   0  0  0  0  0  0  0  0  0  0  0  0
   10.4792  -16.3558   27.7868 C   0  0  1  0  0  0  0  0  0  0  0  0
   11.5597  -15.6420   27.0200 C   0  0  0  0  0  0  0  0  0  0  0  0
   12.4240  -16.4919   26.1761 C   0  0  0  0  0  0  0  0  0  0  0  0
   11.8732  -16.9501   24.8721 C   0  0  0  0  0  0  0  0  0  0  0  0
   12.7185  -17.9268   24.1145 C   0  0  0  0  0  0  0  0  0  0  0  0
   12.0895  -18.3261   22.8755 N   0  0  0  0  0  0  0  0  0  0  0  0
   10.3924  -15.9695   29.2093 C   0  0  0  0  0  0  0  0  0  0  0  0
    9.9359  -16.8726   30.1896 O   0  0  0  0  0  0  0  0  0  0  0  0
   10.7128  -14.8341   29.6268 O   0  0  0  0  0  0  0  0  0  0  0  0
  2  3  1  0
  2  1  1  6
  4  3  1  0
  4  5  1  0
  6  5  1  0
  6  7  1  0
  8  2  1  0
  9  8  2  0
 10 14  1  0
 10  8  1  0
 11 12  1  0
 11 10  1  0
 12 13  1  0
 13 14  1  0
 14 15  1  1
 16 15  2  0
 17 15  1  0
 18 17  1  0
 18 24  1  0
 18 19  1  6
 20 19  1  0
 21 20  1  0
 22 21  1  0
 22 23  1  0
 24 25  1  0
 26 24  2  0
M  END
$$$$
