KPK.pdb
     RDKit          3D

 26 26  0  0  1  0  0  0  0  0999 V2000
   10.2458  -14.7103   15.9179 N   0  0  0  0  0  0  0  0  0  0  0  0
    9.1422  -14.8752   16.8603 C   0  0  1  0  0  0  0  0  0  0  0  0
    8.6409  -16.2792   16.6574 C   0  0  0  0  0  0  0  0  0  0  0  0
    7.4735  -16.4321   15.7500 C   0  0  0  0  0  0  0  0  0  0  0  0
    7.6981  -17.6300   14.8364 C   0  0  0  0  0  0  0  0  0  0  0  0
    6.6585  -17.7844   13.7782 C   0  0  0  0  0  0  0  0  0  0  0  0
    6.9837  -19.0069   13.0227 N   0  0  0  0  0  0  0  0  0  0  0  0
    9.6387  -14.5943   18.2121 C   0  0  0  0  0  0  0  0  0  0  0  0
   10.9289  -14.5626   18.3098 O   0  0  0  0  0  0  0  0  0  0  0  0
    8.8625  -14.3648   19.3678 N   0  0  0  0  0  0  0  0  0  0  0  0
    7.4023  -14.4029   19.3469 C   0  0  0  0  0  0  0  0  0  0  0  0
    6.9525  -13.6094   20.5340 C   0  0  0  0  0  0  0  0  0  0  0  0
    8.1745  -13.2241   21.2870 C   0  0  0  0  0  0  0  0  0  0  0  0
    9.2754  -14.0984   20.6937 C   0  0  1  0  0  0  0  0  0  0  0  0
    9.3605  -15.3174   21.5582 C   0  0  0  0  0  0  0  0  0  0  0  0
    8.4442  -16.1704   21.4418 O   0  0  0  0  0  0  0  0  0  0  0  0
   10.4454  -15.4675   22.4584 N   0  0  0  0  0  0  0  0  0  0  0  0
   10.6862  -16.7604   23.1292 C   0  0  1  0  0  0  0  0  0  0  0  0
   12.0577  -17.2627   22.7666 C   0  0  0  0  0  0  0  0  0  0  0  0
   12.1353  -18.6687   22.3211 C   0  0  0  0  0  0  0  0  0  0  0  0
   13.4834  -19.2175   22.0122 C   0  0  0  0  0  0  0  0  0  0  0  0
   13.5055  -20.5747   21.3800 C   0  0  0  0  0  0  0  0  0  0  0  0
   14.8545  -21.0015   21.0828 N   0  0  0  0  0  0  0  0  0  0  0  0
   10.4646  -16.6036   24.5805 C   0  0  0  0  0  0  0  0  0  0  0  0
   10.4692  -17.7130   25.4489 O   0  0  0  0  0  0  0  0  0  0  0  0
   10.2614  -15.4936   25.1218 O   0  0  0  0  0  0  0  0  0  0  0  0
  2  3  1  0
  2  1  1  6
  4  3  1  0
  4  5  1  0
  6  5  1  0
  6  7  1  0
  8  2  1  0
  9  8  2  0
 10 14  1  0
 10  8  1  0
 11 12  1  0
 11 10  1  0
 12 13  1  0
 13 14  1  0
 14 15  1  1
 16 15  2  0
 17 15  1  0
 18 17  1  0
 18 24  1  0
 18 19  1  1
 20 19  1  0
 21 20  1  0
 22 21  1  0
 22 23  1  0
 24 25  1  0
 26 24  2  0
M  END
$$$$
