KPK.pdb
     RDKit          3D

 26 26  0  0  1  0  0  0  0  0999 V2000
    8.1416  -13.0524   20.6458 N   0  0  0  0  0  0  0  0  0  0  0  0
    7.3941  -13.7661   21.6779 C   0  0  1  0  0  0  0  0  0  0  0  0
    7.0527  -15.1042   21.0804 C   0  0  0  0  0  0  0  0  0  0  0  0
    6.4380  -16.0946   22.0028 C   0  0  0  0  0  0  0  0  0  0  0  0
    6.0749  -17.3521   21.2235 C   0  0  0  0  0  0  0  0  0  0  0  0
    5.3193  -18.3594   22.0228 C   0  0  0  0  0  0  0  0  0  0  0  0
    4.9819  -19.4709   21.1164 N   0  0  0  0  0  0  0  0  0  0  0  0
    8.2197  -13.8318   22.8890 C   0  0  0  0  0  0  0  0  0  0  0  0
    9.4802  -14.0211   22.6647 O   0  0  0  0  0  0  0  0  0  0  0  0
    7.7761  -13.7110   24.2229 N   0  0  0  0  0  0  0  0  0  0  0  0
    6.3671  -13.5276   24.5628 C   0  0  0  0  0  0  0  0  0  0  0  0
    6.3492  -12.9135   25.9278 C   0  0  0  0  0  0  0  0  0  0  0  0
    7.7578  -12.8620   26.3993 C   0  0  0  0  0  0  0  0  0  0  0  0
    8.5146  -13.7627   25.4276 C   0  0  1  0  0  0  0  0  0  0  0  0
    8.5570  -15.1213   26.0545 C   0  0  0  0  0  0  0  0  0  0  0  0
    7.4988  -15.7997   26.0294 O   0  0  0  0  0  0  0  0  0  0  0  0
    9.7599  -15.5882   26.6417 N   0  0  0  0  0  0  0  0  0  0  0  0
    9.9651  -17.0311   26.8776 C   0  0  1  0  0  0  0  0  0  0  0  0
   11.1327  -17.5095   26.0573 C   0  0  0  0  0  0  0  0  0  0  0  0
   11.4702  -18.9417   26.1852 C   0  0  0  0  0  0  0  0  0  0  0  0
   12.6470  -19.4403   25.4235 C   0  0  0  0  0  0  0  0  0  0  0  0
   12.8652  -20.9214   25.4567 C   0  0  0  0  0  0  0  0  0  0  0  0
   13.9826  -21.3135   24.6274 N   0  0  0  0  0  0  0  0  0  0  0  0
   10.1069  -17.2712   28.3275 C   0  0  0  0  0  0  0  0  0  0  0  0
    9.8541  -18.5375   28.8910 O   0  0  0  0  0  0  0  0  0  0  0  0
   10.4541  -16.3795   29.1341 O   0  0  0  0  0  0  0  0  0  0  0  0
  2  3  1  0
  2  1  1  6
  4  3  1  0
  4  5  1  0
  6  5  1  0
  6  7  1  0
  8  2  1  0
  9  8  2  0
 10 14  1  0
 10  8  1  0
 11 12  1  0
 11 10  1  0
 12 13  1  0
 13 14  1  0
 14 15  1  1
 16 15  2  0
 17 15  1  0
 18 17  1  0
 18 24  1  0
 18 19  1  6
 20 19  1  0
 21 20  1  0
 22 21  1  0
 22 23  1  0
 24 25  1  0
 26 24  2  0
M  END
$$$$
