KPK.pdb
     RDKit          3D

 26 26  0  0  1  0  0  0  0  0999 V2000
    9.6540  -13.1132   17.4382 N   0  0  0  0  0  0  0  0  0  0  0  0
    8.7930  -14.0038   18.2119 C   0  0  1  0  0  0  0  0  0  0  0  0
    8.7739  -15.3062   17.4587 C   0  0  0  0  0  0  0  0  0  0  0  0
    8.1186  -15.2805   16.1246 C   0  0  0  0  0  0  0  0  0  0  0  0
    8.0883  -16.6911   15.5503 C   0  0  0  0  0  0  0  0  0  0  0  0
    7.2974  -16.8126   14.2918 C   0  0  0  0  0  0  0  0  0  0  0  0
    7.4404  -18.2008   13.8194 N   0  0  0  0  0  0  0  0  0  0  0  0
    9.3249  -14.0961   19.5762 C   0  0  0  0  0  0  0  0  0  0  0  0
   10.6085  -13.9513   19.6583 O   0  0  0  0  0  0  0  0  0  0  0  0
    8.5880  -14.3198   20.7583 N   0  0  0  0  0  0  0  0  0  0  0  0
    7.1314  -14.4321   20.7600 C   0  0  0  0  0  0  0  0  0  0  0  0
    6.6956  -14.1187   22.1574 C   0  0  0  0  0  0  0  0  0  0  0  0
    7.9291  -13.9443   22.9680 C   0  0  0  0  0  0  0  0  0  0  0  0
    9.0431  -14.4990   22.0851 C   0  0  1  0  0  0  0  0  0  0  0  0
    9.2199  -15.9329   22.4765 C   0  0  0  0  0  0  0  0  0  0  0  0
    8.3513  -16.7496   22.0772 O   0  0  0  0  0  0  0  0  0  0  0  0
   10.3341  -16.3148   23.2656 N   0  0  0  0  0  0  0  0  0  0  0  0
   10.8636  -17.6911   23.1939 C   0  0  1  0  0  0  0  0  0  0  0  0
   12.0260  -17.7291   22.2388 C   0  0  0  0  0  0  0  0  0  0  0  0
   12.6924  -19.0379   22.0819 C   0  0  0  0  0  0  0  0  0  0  0  0
   13.8838  -19.0993   21.1928 C   0  0  0  0  0  0  0  0  0  0  0  0
   14.5059  -20.4515   21.0289 C   0  0  0  0  0  0  0  0  0  0  0  0
   15.7291  -20.3852   20.2610 N   0  0  0  0  0  0  0  0  0  0  0  0
   11.1859  -18.1594   24.5565 C   0  0  0  0  0  0  0  0  0  0  0  0
   11.0990  -17.2994   25.6691 O   0  0  0  0  0  0  0  0  0  0  0  0
   11.5514  -19.3303   24.8049 O   0  0  0  0  0  0  0  0  0  0  0  0
  2  3  1  0
  2  1  1  6
  4  3  1  0
  4  5  1  0
  6  5  1  0
  6  7  1  0
  8  2  1  0
  9  8  2  0
 10 14  1  0
 10  8  1  0
 11 12  1  0
 11 10  1  0
 12 13  1  0
 13 14  1  0
 14 15  1  1
 16 15  2  0
 17 15  1  0
 18 17  1  0
 18 24  1  0
 18 19  1  6
 20 19  1  0
 21 20  1  0
 22 21  1  0
 22 23  1  0
 24 25  1  0
 26 24  2  0
M  END
$$$$
