KPK.pdb
     RDKit          3D

 26 26  0  0  1  0  0  0  0  0999 V2000
    9.8094  -15.7217   15.3333 N   0  0  0  0  0  0  0  0  0  0  0  0
    8.7910  -15.2979   16.2906 C   0  0  1  0  0  0  0  0  0  0  0  0
    7.8431  -16.4596   16.4164 C   0  0  0  0  0  0  0  0  0  0  0  0
    8.4383  -17.7429   16.8730 C   0  0  0  0  0  0  0  0  0  0  0  0
    7.3316  -18.7713   17.0677 C   0  0  0  0  0  0  0  0  0  0  0  0
    7.8307  -20.1446   17.3662 C   0  0  0  0  0  0  0  0  0  0  0  0
    6.6552  -21.0303   17.4344 N   0  0  0  0  0  0  0  0  0  0  0  0
    9.4574  -14.9165   17.5409 C   0  0  0  0  0  0  0  0  0  0  0  0
   10.6972  -15.2805   17.6161 O   0  0  0  0  0  0  0  0  0  0  0  0
    8.8867  -14.2153   18.6241 N   0  0  0  0  0  0  0  0  0  0  0  0
    7.5198  -13.7011   18.5871 C   0  0  0  0  0  0  0  0  0  0  0  0
    7.4642  -12.6051   19.6052 C   0  0  0  0  0  0  0  0  0  0  0  0
    8.7799  -12.5874   20.2963 C   0  0  0  0  0  0  0  0  0  0  0  0
    9.4394  -13.9011   19.8872 C   0  0  1  0  0  0  0  0  0  0  0  0
    9.1073  -14.8934   20.9576 C   0  0  0  0  0  0  0  0  0  0  0  0
    8.0335  -15.5356   20.8337 O   0  0  0  0  0  0  0  0  0  0  0  0
    9.9929  -15.0731   22.0500 N   0  0  0  0  0  0  0  0  0  0  0  0
   10.3554  -16.4308   22.5022 C   0  0  1  0  0  0  0  0  0  0  0  0
   10.8845  -17.2205   21.3355 C   0  0  0  0  0  0  0  0  0  0  0  0
   11.3515  -18.5887   21.6383 C   0  0  0  0  0  0  0  0  0  0  0  0
   11.8523  -19.4100   20.5032 C   0  0  0  0  0  0  0  0  0  0  0  0
   12.1819  -20.8348   20.8250 C   0  0  0  0  0  0  0  0  0  0  0  0
   12.5939  -21.5649   19.6472 N   0  0  0  0  0  0  0  0  0  0  0  0
   11.2928  -16.3305   23.6385 C   0  0  0  0  0  0  0  0  0  0  0  0
   12.2614  -15.3095   23.7044 O   0  0  0  0  0  0  0  0  0  0  0  0
   11.2865  -17.1332   24.5987 O   0  0  0  0  0  0  0  0  0  0  0  0
  2  3  1  0
  2  1  1  6
  4  3  1  0
  4  5  1  0
  6  5  1  0
  6  7  1  0
  8  2  1  0
  9  8  2  0
 10 14  1  0
 10  8  1  0
 11 12  1  0
 11 10  1  0
 12 13  1  0
 13 14  1  0
 14 15  1  1
 16 15  2  0
 17 15  1  0
 18 17  1  0
 18 24  1  0
 18 19  1  6
 20 19  1  0
 21 20  1  0
 22 21  1  0
 22 23  1  0
 24 25  1  0
 26 24  2  0
M  END
$$$$
