KPK.pdb
     RDKit          3D

 26 26  0  0  1  0  0  0  0  0999 V2000
    9.3964  -15.3527   15.0519 N   0  0  0  0  0  0  0  0  0  0  0  0
    8.5317  -15.6644   16.1870 C   0  0  1  0  0  0  0  0  0  0  0  0
    8.2881  -17.1475   16.1170 C   0  0  0  0  0  0  0  0  0  0  0  0
    7.6958  -17.7709   17.3295 C   0  0  0  0  0  0  0  0  0  0  0  0
    6.5538  -18.6908   16.9172 C   0  0  0  0  0  0  0  0  0  0  0  0
    5.7797  -19.2429   18.0663 C   0  0  0  0  0  0  0  0  0  0  0  0
    4.7842  -20.1772   17.5124 N   0  0  0  0  0  0  0  0  0  0  0  0
    9.1951  -15.2127   17.4153 C   0  0  0  0  0  0  0  0  0  0  0  0
   10.4753  -15.4029   17.4301 O   0  0  0  0  0  0  0  0  0  0  0  0
    8.5829  -14.6129   18.5360 N   0  0  0  0  0  0  0  0  0  0  0  0
    7.1369  -14.4265   18.6283 C   0  0  0  0  0  0  0  0  0  0  0  0
    6.9258  -13.3280   19.6231 C   0  0  0  0  0  0  0  0  0  0  0  0
    8.2610  -12.9798   20.1752 C   0  0  0  0  0  0  0  0  0  0  0  0
    9.1649  -14.1251   19.7288 C   0  0  1  0  0  0  0  0  0  0  0  0
    9.1747  -15.1185   20.8486 C   0  0  0  0  0  0  0  0  0  0  0  0
    8.1698  -15.8652   20.9638 O   0  0  0  0  0  0  0  0  0  0  0  0
   10.2897  -15.1839   21.7217 N   0  0  0  0  0  0  0  0  0  0  0  0
   10.3629  -16.2279   22.7629 C   0  0  1  0  0  0  0  0  0  0  0  0
   11.7450  -16.8233   22.7760 C   0  0  0  0  0  0  0  0  0  0  0  0
   12.2303  -17.3616   21.4891 C   0  0  0  0  0  0  0  0  0  0  0  0
   13.5829  -17.9812   21.4705 C   0  0  0  0  0  0  0  0  0  0  0  0
   13.9773  -18.6473   20.1887 C   0  0  0  0  0  0  0  0  0  0  0  0
   15.3582  -19.0746   20.2138 N   0  0  0  0  0  0  0  0  0  0  0  0
    9.9398  -15.6550   24.0562 C   0  0  0  0  0  0  0  0  0  0  0  0
    9.6125  -16.4773   25.1525 O   0  0  0  0  0  0  0  0  0  0  0  0
    9.8460  -14.4232   24.2567 O   0  0  0  0  0  0  0  0  0  0  0  0
  2  3  1  0
  2  1  1  6
  4  3  1  0
  4  5  1  0
  6  5  1  0
  6  7  1  0
  8  2  1  0
  9  8  2  0
 10 14  1  0
 10  8  1  0
 11 12  1  0
 11 10  1  0
 12 13  1  0
 13 14  1  0
 14 15  1  1
 16 15  2  0
 17 15  1  0
 18 17  1  0
 18 24  1  0
 18 19  1  1
 20 19  1  0
 21 20  1  0
 22 21  1  0
 22 23  1  0
 24 25  1  0
 26 24  2  0
M  END
$$$$
