KPK.pdb
     RDKit          3D

 26 26  0  0  1  0  0  0  0  0999 V2000
    8.8851  -17.1171   16.1367 N   0  0  0  0  0  0  0  0  0  0  0  0
    8.0172  -16.3563   17.0317 C   0  0  1  0  0  0  0  0  0  0  0  0
    6.9297  -17.3085   17.4497 C   0  0  0  0  0  0  0  0  0  0  0  0
    7.3760  -18.6501   17.9085 C   0  0  0  0  0  0  0  0  0  0  0  0
    6.1608  -19.4753   18.3118 C   0  0  0  0  0  0  0  0  0  0  0  0
    6.4709  -20.9065   18.5948 C   0  0  0  0  0  0  0  0  0  0  0  0
    5.2017  -21.5659   18.9483 N   0  0  0  0  0  0  0  0  0  0  0  0
    8.8299  -15.8358   18.1369 C   0  0  0  0  0  0  0  0  0  0  0  0
   10.0082  -16.3638   18.2262 O   0  0  0  0  0  0  0  0  0  0  0  0
    8.4532  -14.8491   19.0724 N   0  0  0  0  0  0  0  0  0  0  0  0
    7.1229  -14.2454   19.0765 C   0  0  0  0  0  0  0  0  0  0  0  0
    7.2669  -12.9360   19.7876 C   0  0  0  0  0  0  0  0  0  0  0  0
    8.6654  -12.8638   20.2855 C   0  0  0  0  0  0  0  0  0  0  0  0
    9.1926  -14.2882   20.1394 C   0  0  1  0  0  0  0  0  0  0  0  0
    8.9628  -14.9623   21.4559 C   0  0  0  0  0  0  0  0  0  0  0  0
    7.8078  -15.4049   21.6818 O   0  0  0  0  0  0  0  0  0  0  0  0
   10.0289  -15.0775   22.3832 N   0  0  0  0  0  0  0  0  0  0  0  0
   10.2186  -16.3231   23.1525 C   0  0  1  0  0  0  0  0  0  0  0  0
   10.8984  -17.3471   22.2841 C   0  0  0  0  0  0  0  0  0  0  0  0
   11.2008  -18.6424   22.9262 C   0  0  0  0  0  0  0  0  0  0  0  0
   11.8062  -19.7043   22.0779 C   0  0  0  0  0  0  0  0  0  0  0  0
   12.0914  -21.0039   22.7649 C   0  0  0  0  0  0  0  0  0  0  0  0
   12.7852  -21.9256   21.8935 N   0  0  0  0  0  0  0  0  0  0  0  0
   10.9409  -16.0167   24.4033 C   0  0  0  0  0  0  0  0  0  0  0  0
   10.6245  -16.6660   25.6129 O   0  0  0  0  0  0  0  0  0  0  0  0
   11.8642  -15.1741   24.4668 O   0  0  0  0  0  0  0  0  0  0  0  0
  2  3  1  0
  2  1  1  6
  4  3  1  0
  4  5  1  0
  6  5  1  0
  6  7  1  0
  8  2  1  0
  9  8  2  0
 10 14  1  0
 10  8  1  0
 11 12  1  0
 11 10  1  0
 12 13  1  0
 13 14  1  0
 14 15  1  1
 16 15  2  0
 17 15  1  0
 18 17  1  0
 18 24  1  0
 18 19  1  6
 20 19  1  0
 21 20  1  0
 22 21  1  0
 22 23  1  0
 24 25  1  0
 26 24  2  0
M  END
$$$$
