KPK.pdb
     RDKit          3D

 26 26  0  0  1  0  0  0  0  0999 V2000
    8.2261  -14.0244   20.9303 N   0  0  0  0  0  0  0  0  0  0  0  0
    7.3881  -14.0349   22.1266 C   0  0  1  0  0  0  0  0  0  0  0  0
    6.5697  -15.2944   22.0382 C   0  0  0  0  0  0  0  0  0  0  0  0
    6.3648  -15.8469   20.6735 C   0  0  0  0  0  0  0  0  0  0  0  0
    6.5971  -17.3521   20.6985 C   0  0  0  0  0  0  0  0  0  0  0  0
    6.5071  -17.9983   19.3573 C   0  0  0  0  0  0  0  0  0  0  0  0
    6.8035  -19.4296   19.5423 N   0  0  0  0  0  0  0  0  0  0  0  0
    8.2583  -13.9546   23.3051 C   0  0  0  0  0  0  0  0  0  0  0  0
    9.5016  -14.2255   23.0687 O   0  0  0  0  0  0  0  0  0  0  0  0
    7.8724  -13.6206   24.6205 N   0  0  0  0  0  0  0  0  0  0  0  0
    6.4810  -13.3629   24.9836 C   0  0  0  0  0  0  0  0  0  0  0  0
    6.5270  -12.5440   26.2359 C   0  0  0  0  0  0  0  0  0  0  0  0
    7.9546  -12.4438   26.6370 C   0  0  0  0  0  0  0  0  0  0  0  0
    8.6604  -13.4971   25.7882 C   0  0  1  0  0  0  0  0  0  0  0  0
    8.7149  -14.7425   26.6169 C   0  0  0  0  0  0  0  0  0  0  0  0
    7.6348  -15.3595   26.7997 O   0  0  0  0  0  0  0  0  0  0  0  0
    9.9526  -15.1757   27.1557 N   0  0  0  0  0  0  0  0  0  0  0  0
   10.1302  -16.5764   27.5870 C   0  0  1  0  0  0  0  0  0  0  0  0
   11.1209  -17.2557   26.6804 C   0  0  0  0  0  0  0  0  0  0  0  0
   11.4067  -18.6733   26.9802 C   0  0  0  0  0  0  0  0  0  0  0  0
   12.3900  -19.3741   26.1109 C   0  0  0  0  0  0  0  0  0  0  0  0
   12.5576  -20.8401   26.3663 C   0  0  0  0  0  0  0  0  0  0  0  0
   13.6394  -21.3963   25.5851 N   0  0  0  0  0  0  0  0  0  0  0  0
   10.5027  -16.6016   29.0155 C   0  0  0  0  0  0  0  0  0  0  0  0
   10.2742  -17.7391   29.8147 O   0  0  0  0  0  0  0  0  0  0  0  0
   11.0354  -15.6298   29.5969 O   0  0  0  0  0  0  0  0  0  0  0  0
  2  3  1  0
  2  1  1  6
  4  3  1  0
  4  5  1  0
  6  5  1  0
  6  7  1  0
  8  2  1  0
  9  8  2  0
 10 14  1  0
 10  8  1  0
 11 12  1  0
 11 10  1  0
 12 13  1  0
 13 14  1  0
 14 15  1  1
 16 15  2  0
 17 15  1  0
 18 17  1  0
 18 24  1  0
 18 19  1  6
 20 19  1  0
 21 20  1  0
 22 21  1  0
 22 23  1  0
 24 25  1  0
 26 24  2  0
M  END
$$$$
