KPK.pdb
     RDKit          3D

 26 26  0  0  1  0  0  0  0  0999 V2000
    8.1750  -13.9462   20.9405 N   0  0  0  0  0  0  0  0  0  0  0  0
    7.2835  -13.8947   22.0963 C   0  0  1  0  0  0  0  0  0  0  0  0
    6.3832  -15.0935   21.9688 C   0  0  0  0  0  0  0  0  0  0  0  0
    6.6361  -15.9802   20.8028 C   0  0  0  0  0  0  0  0  0  0  0  0
    6.6363  -17.4321   21.2638 C   0  0  0  0  0  0  0  0  0  0  0  0
    6.9894  -18.4053   20.1903 C   0  0  0  0  0  0  0  0  0  0  0  0
    6.9021  -19.7535   20.7782 N   0  0  0  0  0  0  0  0  0  0  0  0
    8.1013  -13.8730   23.3142 C   0  0  0  0  0  0  0  0  0  0  0  0
    9.3455  -14.1756   23.1258 O   0  0  0  0  0  0  0  0  0  0  0  0
    7.6662  -13.5631   24.6201 N   0  0  0  0  0  0  0  0  0  0  0  0
    6.2794  -13.2132   24.9178 C   0  0  0  0  0  0  0  0  0  0  0  0
    6.3142  -12.4511   26.2057 C   0  0  0  0  0  0  0  0  0  0  0  0
    7.7197  -12.4776   26.6881 C   0  0  0  0  0  0  0  0  0  0  0  0
    8.3925  -13.5475   25.8333 C   0  0  1  0  0  0  0  0  0  0  0  0
    8.3056  -14.8255   26.6079 C   0  0  0  0  0  0  0  0  0  0  0  0
    7.1619  -15.3205   26.7744 O   0  0  0  0  0  0  0  0  0  0  0  0
    9.4868  -15.4221   27.1162 N   0  0  0  0  0  0  0  0  0  0  0  0
    9.5447  -16.8776   27.3568 C   0  0  1  0  0  0  0  0  0  0  0  0
   10.1001  -17.5630   26.1376 C   0  0  0  0  0  0  0  0  0  0  0  0
   11.4377  -17.1174   25.6973 C   0  0  0  0  0  0  0  0  0  0  0  0
   12.0048  -17.7509   24.4763 C   0  0  0  0  0  0  0  0  0  0  0  0
   13.3337  -17.2270   24.0273 C   0  0  0  0  0  0  0  0  0  0  0  0
   13.8008  -17.9075   22.8403 N   0  0  0  0  0  0  0  0  0  0  0  0
   10.3069  -17.1356   28.5947 C   0  0  0  0  0  0  0  0  0  0  0  0
   10.8693  -16.0836   29.3444 O   0  0  0  0  0  0  0  0  0  0  0  0
   10.4990  -18.2862   29.0481 O   0  0  0  0  0  0  0  0  0  0  0  0
  2  3  1  0
  2  1  1  6
  4  3  1  0
  4  5  1  0
  6  5  1  0
  6  7  1  0
  8  2  1  0
  9  8  2  0
 10 14  1  0
 10  8  1  0
 11 12  1  0
 11 10  1  0
 12 13  1  0
 13 14  1  0
 14 15  1  1
 16 15  2  0
 17 15  1  0
 18 17  1  0
 18 24  1  0
 18 19  1  6
 20 19  1  0
 21 20  1  0
 22 21  1  0
 22 23  1  0
 24 25  1  0
 26 24  2  0
M  END
$$$$
