KPK.pdb
     RDKit          3D

 26 26  0  0  1  0  0  0  0  0999 V2000
    9.8012  -17.1568   16.8126 N   0  0  0  0  0  0  0  0  0  0  0  0
    8.7114  -16.5284   17.5546 C   0  0  1  0  0  0  0  0  0  0  0  0
    7.7470  -17.6374   17.8771 C   0  0  0  0  0  0  0  0  0  0  0  0
    8.2938  -18.7697   18.6700 C   0  0  0  0  0  0  0  0  0  0  0  0
    7.1752  -19.7570   18.9772 C   0  0  0  0  0  0  0  0  0  0  0  0
    7.6069  -20.9171   19.8091 C   0  0  0  0  0  0  0  0  0  0  0  0
    6.4288  -21.7821   19.9955 N   0  0  0  0  0  0  0  0  0  0  0  0
    9.2765  -15.8515   18.7273 C   0  0  0  0  0  0  0  0  0  0  0  0
   10.5026  -16.1731   18.9885 O   0  0  0  0  0  0  0  0  0  0  0  0
    8.6251  -14.9179   19.5608 N   0  0  0  0  0  0  0  0  0  0  0  0
    7.2880  -14.4084   19.2657 C   0  0  0  0  0  0  0  0  0  0  0  0
    7.1695  -13.1110   20.0030 C   0  0  0  0  0  0  0  0  0  0  0  0
    8.4087  -12.9546   20.8085 C   0  0  0  0  0  0  0  0  0  0  0  0
    9.0586  -14.3347   20.7738 C   0  0  1  0  0  0  0  0  0  0  0  0
    8.5853  -15.0569   21.9966 C   0  0  0  0  0  0  0  0  0  0  0  0
    7.4977  -15.6817   21.9107 O   0  0  0  0  0  0  0  0  0  0  0  0
    9.3599  -15.0144   23.1831 N   0  0  0  0  0  0  0  0  0  0  0  0
    9.7967  -16.2647   23.8353 C   0  0  1  0  0  0  0  0  0  0  0  0
   10.5798  -17.0928   22.8524 C   0  0  0  0  0  0  0  0  0  0  0  0
   11.1340  -18.3600   23.3703 C   0  0  0  0  0  0  0  0  0  0  0  0
   11.9032  -19.2109   22.4227 C   0  0  0  0  0  0  0  0  0  0  0  0
   12.3639  -20.5312   22.9585 C   0  0  0  0  0  0  0  0  0  0  0  0
   12.9494  -21.3513   21.9219 N   0  0  0  0  0  0  0  0  0  0  0  0
   10.5346  -15.9362   25.0712 C   0  0  0  0  0  0  0  0  0  0  0  0
   11.5794  -14.9910   25.0742 O   0  0  0  0  0  0  0  0  0  0  0  0
   10.2831  -16.4683   26.1757 O   0  0  0  0  0  0  0  0  0  0  0  0
  2  3  1  0
  2  1  1  1
  4  3  1  0
  4  5  1  0
  6  5  1  0
  6  7  1  0
  8  2  1  0
  9  8  2  0
 10 14  1  0
 10  8  1  0
 11 12  1  0
 11 10  1  0
 12 13  1  0
 13 14  1  0
 14 15  1  1
 16 15  2  0
 17 15  1  0
 18 17  1  0
 18 24  1  0
 18 19  1  6
 20 19  1  0
 21 20  1  0
 22 21  1  0
 22 23  1  0
 24 25  1  0
 26 24  2  0
M  END
$$$$
