KPK.pdb
     RDKit          3D

 26 26  0  0  1  0  0  0  0  0999 V2000
    8.3013  -18.3451   18.3192 N   0  0  0  0  0  0  0  0  0  0  0  0
    7.5149  -17.1994   18.7689 C   0  0  1  0  0  0  0  0  0  0  0  0
    6.2140  -17.7693   19.2655 C   0  0  0  0  0  0  0  0  0  0  0  0
    6.2149  -19.2216   19.5829 C   0  0  0  0  0  0  0  0  0  0  0  0
    6.9569  -19.4511   20.8932 C   0  0  0  0  0  0  0  0  0  0  0  0
    6.8930  -20.8581   21.3837 C   0  0  0  0  0  0  0  0  0  0  0  0
    7.8429  -20.9727   22.5042 N   0  0  0  0  0  0  0  0  0  0  0  0
    8.2885  -16.4726   19.7818 C   0  0  0  0  0  0  0  0  0  0  0  0
    9.2948  -17.1325   20.2582 O   0  0  0  0  0  0  0  0  0  0  0  0
    8.0403  -15.1693   20.2616 N   0  0  0  0  0  0  0  0  0  0  0  0
    6.9253  -14.3589   19.7775 C   0  0  0  0  0  0  0  0  0  0  0  0
    7.2911  -12.9374   20.0712 C   0  0  0  0  0  0  0  0  0  0  0  0
    8.5687  -12.9657   20.8301 C   0  0  0  0  0  0  0  0  0  0  0  0
    8.7279  -14.4246   21.2478 C   0  0  1  0  0  0  0  0  0  0  0  0
    8.1350  -14.5405   22.6174 C   0  0  0  0  0  0  0  0  0  0  0  0
    6.8901  -14.3979   22.7193 O   0  0  0  0  0  0  0  0  0  0  0  0
    8.9760  -14.8013   23.7285 N   0  0  0  0  0  0  0  0  0  0  0  0
    8.5091  -15.6628   24.8327 C   0  0  1  0  0  0  0  0  0  0  0  0
    8.1131  -17.0069   24.2837 C   0  0  0  0  0  0  0  0  0  0  0  0
    7.7616  -18.0363   25.2827 C   0  0  0  0  0  0  0  0  0  0  0  0
    7.4123  -19.3917   24.7781 C   0  0  0  0  0  0  0  0  0  0  0  0
    6.9590  -20.3755   25.8120 C   0  0  0  0  0  0  0  0  0  0  0  0
    6.6625  -21.6639   25.2270 N   0  0  0  0  0  0  0  0  0  0  0  0
    9.5505  -15.7203   25.8779 C   0  0  0  0  0  0  0  0  0  0  0  0
   10.9198  -15.7648   25.5495 O   0  0  0  0  0  0  0  0  0  0  0  0
    9.2867  -15.7337   27.1012 O   0  0  0  0  0  0  0  0  0  0  0  0
  2  3  1  0
  2  1  1  1
  4  3  1  0
  4  5  1  0
  6  5  1  0
  6  7  1  0
  8  2  1  0
  9  8  2  0
 10 14  1  0
 10  8  1  0
 11 12  1  0
 11 10  1  0
 12 13  1  0
 13 14  1  0
 14 15  1  1
 16 15  2  0
 17 15  1  0
 18 17  1  0
 18 24  1  0
 18 19  1  6
 20 19  1  0
 21 20  1  0
 22 21  1  0
 22 23  1  0
 24 25  1  0
 26 24  2  0
M  END
$$$$
