KPK.pdb
     RDKit          3D

 26 26  0  0  1  0  0  0  0  0999 V2000
    9.2407  -16.7715   16.0564 N   0  0  0  0  0  0  0  0  0  0  0  0
    8.2850  -16.1262   16.9527 C   0  0  1  0  0  0  0  0  0  0  0  0
    7.2534  -17.1747   17.2697 C   0  0  0  0  0  0  0  0  0  0  0  0
    7.7515  -18.3958   17.9558 C   0  0  0  0  0  0  0  0  0  0  0  0
    6.5944  -19.3640   18.1655 C   0  0  0  0  0  0  0  0  0  0  0  0
    6.9867  -20.6350   18.8401 C   0  0  0  0  0  0  0  0  0  0  0  0
    5.7730  -21.4630   18.9496 N   0  0  0  0  0  0  0  0  0  0  0  0
    9.0131  -15.6147   18.1193 C   0  0  0  0  0  0  0  0  0  0  0  0
   10.2146  -16.0796   18.2431 O   0  0  0  0  0  0  0  0  0  0  0  0
    8.5359  -14.6969   19.0788 N   0  0  0  0  0  0  0  0  0  0  0  0
    7.1814  -14.1517   19.0307 C   0  0  0  0  0  0  0  0  0  0  0  0
    7.2221  -12.8776   19.8155 C   0  0  0  0  0  0  0  0  0  0  0  0
    8.5834  -12.7725   20.4026 C   0  0  0  0  0  0  0  0  0  0  0  0
    9.1833  -14.1632   20.2171 C   0  0  1  0  0  0  0  0  0  0  0  0
    8.9060  -14.9164   21.4806 C   0  0  0  0  0  0  0  0  0  0  0  0
    7.7539  -15.3996   21.6212 O   0  0  0  0  0  0  0  0  0  0  0  0
    9.9268  -15.0575   22.4542 N   0  0  0  0  0  0  0  0  0  0  0  0
   10.1470  -16.3551   23.1229 C   0  0  1  0  0  0  0  0  0  0  0  0
   11.2697  -17.0857   22.4369 C   0  0  0  0  0  0  0  0  0  0  0  0
   11.5919  -18.4249   22.9699 C   0  0  0  0  0  0  0  0  0  0  0  0
   12.7323  -19.1536   22.3518 C   0  0  0  0  0  0  0  0  0  0  0  0
   12.9594  -20.5487   22.8462 C   0  0  0  0  0  0  0  0  0  0  0  0
   14.1371  -21.1393   22.2511 N   0  0  0  0  0  0  0  0  0  0  0  0
   10.3668  -16.1275   24.5651 C   0  0  0  0  0  0  0  0  0  0  0  0
    9.9636  -17.0733   25.5284 O   0  0  0  0  0  0  0  0  0  0  0  0
   10.9156  -15.0967   25.0154 O   0  0  0  0  0  0  0  0  0  0  0  0
  2  3  1  0
  2  1  1  6
  4  3  1  0
  4  5  1  0
  6  5  1  0
  6  7  1  0
  8  2  1  0
  9  8  2  0
 10 14  1  0
 10  8  1  0
 11 12  1  0
 11 10  1  0
 12 13  1  0
 13 14  1  0
 14 15  1  1
 16 15  2  0
 17 15  1  0
 18 17  1  0
 18 24  1  0
 18 19  1  6
 20 19  1  0
 21 20  1  0
 22 21  1  0
 22 23  1  0
 24 25  1  0
 26 24  2  0
M  END
$$$$
