KPK.pdb
     RDKit          3D

 26 26  0  0  1  0  0  0  0  0999 V2000
    7.8918  -14.1283   21.0090 N   0  0  0  0  0  0  0  0  0  0  0  0
    7.1220  -14.0485   22.2477 C   0  0  1  0  0  0  0  0  0  0  0  0
    6.3053  -15.3111   22.3005 C   0  0  0  0  0  0  0  0  0  0  0  0
    7.0692  -16.5859   22.2697 C   0  0  0  0  0  0  0  0  0  0  0  0
    6.0961  -17.7577   22.2880 C   0  0  0  0  0  0  0  0  0  0  0  0
    6.7576  -19.0886   22.4134 C   0  0  0  0  0  0  0  0  0  0  0  0
    5.6917  -20.1057   22.4247 N   0  0  0  0  0  0  0  0  0  0  0  0
    8.0562  -13.8793   23.3663 C   0  0  0  0  0  0  0  0  0  0  0  0
    9.3001  -14.0498   23.0518 O   0  0  0  0  0  0  0  0  0  0  0  0
    7.7290  -13.5595   24.7009 N   0  0  0  0  0  0  0  0  0  0  0  0
    6.3480  -13.3889   25.1461 C   0  0  0  0  0  0  0  0  0  0  0  0
    6.4157  -12.5579   26.3894 C   0  0  0  0  0  0  0  0  0  0  0  0
    7.8552  -12.3622   26.7030 C   0  0  0  0  0  0  0  0  0  0  0  0
    8.5759  -13.3751   25.8183 C   0  0  1  0  0  0  0  0  0  0  0  0
    8.7607  -14.6070   26.6482 C   0  0  0  0  0  0  0  0  0  0  0  0
    7.7243  -15.2323   26.9885 O   0  0  0  0  0  0  0  0  0  0  0  0
   10.0666  -15.0193   27.0147 N   0  0  0  0  0  0  0  0  0  0  0  0
   10.2764  -16.3031   27.7128 C   0  0  1  0  0  0  0  0  0  0  0  0
   11.4072  -17.0487   27.0568 C   0  0  0  0  0  0  0  0  0  0  0  0
   11.3114  -17.2121   25.5920 C   0  0  0  0  0  0  0  0  0  0  0  0
   12.4066  -17.9540   24.9110 C   0  0  0  0  0  0  0  0  0  0  0  0
   12.3528  -17.9672   23.4146 C   0  0  0  0  0  0  0  0  0  0  0  0
   13.4844  -18.6657   22.8474 N   0  0  0  0  0  0  0  0  0  0  0  0
   10.4773  -16.0462   29.1528 C   0  0  0  0  0  0  0  0  0  0  0  0
   10.4376  -17.0900   30.0982 O   0  0  0  0  0  0  0  0  0  0  0  0
   10.6914  -14.9038   29.6167 O   0  0  0  0  0  0  0  0  0  0  0  0
  2  3  1  0
  2  1  1  6
  4  3  1  0
  4  5  1  0
  6  5  1  0
  6  7  1  0
  8  2  1  0
  9  8  2  0
 10 14  1  0
 10  8  1  0
 11 12  1  0
 11 10  1  0
 12 13  1  0
 13 14  1  0
 14 15  1  1
 16 15  2  0
 17 15  1  0
 18 17  1  0
 18 24  1  0
 18 19  1  6
 20 19  1  0
 21 20  1  0
 22 21  1  0
 22 23  1  0
 24 25  1  0
 26 24  2  0
M  END
$$$$
