KPK.pdb
     RDKit          3D

 26 26  0  0  1  0  0  0  0  0999 V2000
    7.1848  -18.8513   19.7225 N   0  0  0  0  0  0  0  0  0  0  0  0
    6.7042  -17.6029   20.3090 C   0  0  1  0  0  0  0  0  0  0  0  0
    5.9213  -18.0026   21.5301 C   0  0  0  0  0  0  0  0  0  0  0  0
    4.9218  -19.0865   21.3403 C   0  0  0  0  0  0  0  0  0  0  0  0
    3.6678  -18.5093   20.6965 C   0  0  0  0  0  0  0  0  0  0  0  0
    2.5715  -19.5039   20.5141 C   0  0  0  0  0  0  0  0  0  0  0  0
    1.4421  -18.7973   19.8849 N   0  0  0  0  0  0  0  0  0  0  0  0
    7.8601  -16.7410   20.5808 C   0  0  0  0  0  0  0  0  0  0  0  0
    8.9967  -17.3601   20.5855 O   0  0  0  0  0  0  0  0  0  0  0  0
    7.8403  -15.3520   20.8272 N   0  0  0  0  0  0  0  0  0  0  0  0
    6.5960  -14.5896   20.8961 C   0  0  0  0  0  0  0  0  0  0  0  0
    6.9694  -13.1659   20.6232 C   0  0  0  0  0  0  0  0  0  0  0  0
    8.4511  -13.1185   20.5163 C   0  0  0  0  0  0  0  0  0  0  0  0
    8.9131  -14.4633   21.0699 C   0  0  1  0  0  0  0  0  0  0  0  0
    9.2034  -14.2465   22.5223 C   0  0  0  0  0  0  0  0  0  0  0  0
    9.1961  -13.0605   22.9397 O   0  0  0  0  0  0  0  0  0  0  0  0
    9.4706  -15.3584   23.3602 N   0  0  0  0  0  0  0  0  0  0  0  0
    9.2588  -15.2631   24.8181 C   0  0  1  0  0  0  0  0  0  0  0  0
    7.8803  -14.7228   25.0877 C   0  0  0  0  0  0  0  0  0  0  0  0
    7.8176  -13.4612   25.8529 C   0  0  0  0  0  0  0  0  0  0  0  0
    6.4697  -12.9128   26.1634 C   0  0  0  0  0  0  0  0  0  0  0  0
    6.4499  -11.5961   26.8762 C   0  0  0  0  0  0  0  0  0  0  0  0
    5.0989  -11.1386   27.1118 N   0  0  0  0  0  0  0  0  0  0  0  0
    9.5232  -16.5784   25.4346 C   0  0  0  0  0  0  0  0  0  0  0  0
    9.7988  -17.7158   24.6502 O   0  0  0  0  0  0  0  0  0  0  0  0
    9.5186  -16.7629   26.6725 O   0  0  0  0  0  0  0  0  0  0  0  0
  2  3  1  0
  2  1  1  1
  4  3  1  0
  4  5  1  0
  6  5  1  0
  6  7  1  0
  8  2  1  0
  9  8  2  0
 10 14  1  0
 10  8  1  0
 11 12  1  0
 11 10  1  0
 12 13  1  0
 13 14  1  0
 14 15  1  1
 16 15  2  0
 17 15  1  0
 18 17  1  0
 18 24  1  0
 18 19  1  6
 20 19  1  0
 21 20  1  0
 22 21  1  0
 22 23  1  0
 24 25  1  0
 26 24  2  0
M  END
$$$$
