KPK.pdb
     RDKit          3D

 26 26  0  0  1  0  0  0  0  0999 V2000
    8.8561  -17.1863   16.6733 N   0  0  0  0  0  0  0  0  0  0  0  0
    7.9661  -16.4959   17.6031 C   0  0  1  0  0  0  0  0  0  0  0  0
    6.9646  -17.5268   18.0482 C   0  0  0  0  0  0  0  0  0  0  0  0
    7.5252  -18.7770   18.6246 C   0  0  0  0  0  0  0  0  0  0  0  0
    6.3856  -19.7202   18.9880 C   0  0  0  0  0  0  0  0  0  0  0  0
    6.8298  -20.9617   19.6850 C   0  0  0  0  0  0  0  0  0  0  0  0
    5.6217  -21.7521   19.9797 N   0  0  0  0  0  0  0  0  0  0  0  0
    8.7757  -15.9251   18.6854 C   0  0  0  0  0  0  0  0  0  0  0  0
    9.9837  -16.3859   18.7468 O   0  0  0  0  0  0  0  0  0  0  0  0
    8.3679  -14.9564   19.6266 N   0  0  0  0  0  0  0  0  0  0  0  0
    7.0565  -14.3152   19.5677 C   0  0  0  0  0  0  0  0  0  0  0  0
    7.1908  -13.0323   20.3273 C   0  0  0  0  0  0  0  0  0  0  0  0
    8.5569  -13.0150   20.9124 C   0  0  0  0  0  0  0  0  0  0  0  0
    9.0539  -14.4490   20.7542 C   0  0  1  0  0  0  0  0  0  0  0  0
    8.7243  -15.1552   22.0323 C   0  0  0  0  0  0  0  0  0  0  0  0
    7.5776  -15.6615   22.1306 O   0  0  0  0  0  0  0  0  0  0  0  0
    9.6922  -15.2289   23.0654 N   0  0  0  0  0  0  0  0  0  0  0  0
    9.8058  -16.4432   23.8973 C   0  0  1  0  0  0  0  0  0  0  0  0
   10.0721  -17.6310   23.0124 C   0  0  0  0  0  0  0  0  0  0  0  0
   11.4914  -17.9129   22.7167 C   0  0  0  0  0  0  0  0  0  0  0  0
   11.7890  -19.0342   21.7851 C   0  0  0  0  0  0  0  0  0  0  0  0
   13.2322  -19.2245   21.4341 C   0  0  0  0  0  0  0  0  0  0  0  0
   13.4144  -20.3169   20.5047 N   0  0  0  0  0  0  0  0  0  0  0  0
   10.8291  -16.2247   24.9390 C   0  0  0  0  0  0  0  0  0  0  0  0
   10.8586  -17.0006   26.1146 O   0  0  0  0  0  0  0  0  0  0  0  0
   11.7197  -15.3504   24.8452 O   0  0  0  0  0  0  0  0  0  0  0  0
  2  3  1  0
  2  1  1  6
  4  3  1  0
  4  5  1  0
  6  5  1  0
  6  7  1  0
  8  2  1  0
  9  8  2  0
 10 14  1  0
 10  8  1  0
 11 12  1  0
 11 10  1  0
 12 13  1  0
 13 14  1  0
 14 15  1  1
 16 15  2  0
 17 15  1  0
 18 17  1  0
 18 24  1  0
 18 19  1  6
 20 19  1  0
 21 20  1  0
 22 21  1  0
 22 23  1  0
 24 25  1  0
 26 24  2  0
M  END
$$$$
