DPF.pdb
     RDKit          3D

 27 28  0  0  1  0  0  0  0  0999 V2000
    9.6365  -17.7930   18.4290 N   0  0  0  0  0  0  0  0  0  0  0  0
    8.5603  -17.5350   19.3963 C   0  0  1  0  0  0  0  0  0  0  0  0
    8.2263  -18.9279   19.9828 C   0  0  0  0  0  0  0  0  0  0  0  0
    7.8758  -19.7760   18.8265 C   0  0  0  0  0  0  0  0  0  0  0  0
    6.7073  -19.7742   18.3833 O   0  0  0  0  0  0  0  0  0  0  0  0
    9.0358  -16.6179   20.4304 C   0  0  0  0  0  0  0  0  0  0  0  0
    9.9492  -17.0372   21.2116 O   0  0  0  0  0  0  0  0  0  0  0  0
    8.8418  -20.5646   18.2413 O   0  0  0  0  0  0  0  0  0  0  0  0
    8.4977  -15.3177   20.5503 N   0  0  0  0  0  0  0  0  0  0  0  0
    7.6880  -14.6406   19.5688 C   0  0  0  0  0  0  0  0  0  0  0  0
    6.6621  -13.9515   20.4860 C   0  0  0  0  0  0  0  0  0  0  0  0
    7.6474  -13.2710   21.4310 C   0  0  0  0  0  0  0  0  0  0  0  0
    8.6464  -14.4162   21.6512 C   0  0  1  0  0  0  0  0  0  0  0  0
    8.3677  -15.0669   22.9794 C   0  0  0  0  0  0  0  0  0  0  0  0
    7.2187  -15.4557   23.3090 O   0  0  0  0  0  0  0  0  0  0  0  0
    9.4088  -15.2615   23.9070 N   0  0  0  0  0  0  0  0  0  0  0  0
    9.1404  -15.3200   25.3615 C   0  0  1  0  0  0  0  0  0  0  0  0
    7.6492  -15.2717   25.6040 C   0  0  0  0  0  0  0  0  0  0  0  0
    7.2627  -13.9268   26.0577 C   0  0  0  0  0  0  0  0  0  0  0  0
    5.9266  -13.5616   25.9243 C   0  0  0  0  0  0  0  0  0  0  0  0
    5.4837  -12.3429   26.3398 C   0  0  0  0  0  0  0  0  0  0  0  0
    6.3456  -11.4124   26.9140 C   0  0  0  0  0  0  0  0  0  0  0  0
    7.6694  -11.7601   27.0522 C   0  0  0  0  0  0  0  0  0  0  0  0
    8.1092  -13.0034   26.6266 C   0  0  0  0  0  0  0  0  0  0  0  0
    9.6768  -16.5948   25.8374 C   0  0  0  0  0  0  0  0  0  0  0  0
   10.0279  -17.5017   25.0476 O   0  0  0  0  0  0  0  0  0  0  0  0
    9.8132  -16.8384   27.1880 O   0  0  0  0  0  0  0  0  0  0  0  0
  2  1  1  6
  2  3  1  0
  4  5  2  0
  4  3  1  0
  6  2  1  0
  6  7  2  0
  8  4  1  0
  9  6  1  0
 10  9  1  0
 11 10  1  0
 12 13  1  0
 12 11  1  0
 13  9  1  0
 13 14  1  1
 15 14  2  0
 16 14  1  0
 17 25  1  0
 17 16  1  0
 17 18  1  6
 19 18  1  0
 20 19  2  0
 21 20  1  0
 22 23  1  0
 22 21  2  0
 23 24  2  0
 24 19  1  0
 25 27  1  0
 26 25  2  0
M  END
$$$$
