DPF.pdb
     RDKit          3D

 27 28  0  0  1  0  0  0  0  0999 V2000
    8.7604  -17.9120   19.0768 N   0  0  0  0  0  0  0  0  0  0  0  0
   10.1260  -17.7342   19.5905 C   0  0  1  0  0  0  0  0  0  0  0  0
   10.9147  -17.1467   18.3952 C   0  0  0  0  0  0  0  0  0  0  0  0
   11.9749  -18.1284   18.0932 C   0  0  0  0  0  0  0  0  0  0  0  0
   11.7482  -19.3506   18.2222 O   0  0  0  0  0  0  0  0  0  0  0  0
   10.1100  -16.8143   20.7263 C   0  0  0  0  0  0  0  0  0  0  0  0
   11.1461  -16.7757   21.4647 O   0  0  0  0  0  0  0  0  0  0  0  0
   13.2098  -17.6897   17.6686 O   0  0  0  0  0  0  0  0  0  0  0  0
    8.9843  -16.0023   20.9865 N   0  0  0  0  0  0  0  0  0  0  0  0
    7.8317  -15.8513   20.1343 C   0  0  0  0  0  0  0  0  0  0  0  0
    6.7111  -15.8242   21.1887 C   0  0  0  0  0  0  0  0  0  0  0  0
    7.2896  -14.7326   22.0835 C   0  0  0  0  0  0  0  0  0  0  0  0
    8.7604  -15.1712   22.1293 C   0  0  1  0  0  0  0  0  0  0  0  0
    9.0239  -15.8833   23.4287 C   0  0  0  0  0  0  0  0  0  0  0  0
    8.8603  -17.1227   23.5606 O   0  0  0  0  0  0  0  0  0  0  0  0
    9.4700  -15.1649   24.5543 N   0  0  0  0  0  0  0  0  0  0  0  0
    8.9887  -15.4930   25.9151 C   0  0  1  0  0  0  0  0  0  0  0  0
    7.5093  -15.1992   26.0138 C   0  0  0  0  0  0  0  0  0  0  0  0
    7.3046  -13.7739   26.3152 C   0  0  0  0  0  0  0  0  0  0  0  0
    5.9950  -13.3310   26.4734 C   0  0  0  0  0  0  0  0  0  0  0  0
    5.7215  -12.0316   26.7748 C   0  0  0  0  0  0  0  0  0  0  0  0
    6.7369  -11.0929   26.9369 C   0  0  0  0  0  0  0  0  0  0  0  0
    8.0365  -11.5169   26.7835 C   0  0  0  0  0  0  0  0  0  0  0  0
    8.3035  -12.8419   26.4776 C   0  0  0  0  0  0  0  0  0  0  0  0
    9.2219  -16.9237   26.1104 C   0  0  0  0  0  0  0  0  0  0  0  0
    9.8327  -17.3645   27.1114 O   0  0  0  0  0  0  0  0  0  0  0  0
    8.7699  -17.8411   25.1851 O   0  0  0  0  0  0  0  0  0  0  0  0
  2  1  1  6
  2  3  1  0
  4  5  2  0
  4  3  1  0
  6  2  1  0
  6  7  2  0
  8  4  1  0
  9  6  1  0
 10  9  1  0
 11 10  1  0
 12 13  1  0
 12 11  1  0
 13  9  1  0
 13 14  1  1
 15 14  2  0
 16 14  1  0
 17 25  1  0
 17 16  1  0
 17 18  1  6
 19 18  1  0
 20 19  2  0
 21 20  1  0
 22 23  1  0
 22 21  2  0
 23 24  2  0
 24 19  1  0
 25 27  1  0
 26 25  2  0
M  END
$$$$
