DPF.pdb
     RDKit          3D

 27 28  0  0  1  0  0  0  0  0999 V2000
    8.2934  -13.3102   17.7875 N   0  0  0  0  0  0  0  0  0  0  0  0
    8.5330  -14.6547   18.3308 C   0  0  1  0  0  0  0  0  0  0  0  0
   10.0299  -14.9255   18.0447 C   0  0  0  0  0  0  0  0  0  0  0  0
   10.1065  -15.2814   16.6141 C   0  0  0  0  0  0  0  0  0  0  0  0
    9.5726  -16.3342   16.2039 O   0  0  0  0  0  0  0  0  0  0  0  0
    8.2510  -14.6648   19.7649 C   0  0  0  0  0  0  0  0  0  0  0  0
    8.9330  -13.8832   20.5026 O   0  0  0  0  0  0  0  0  0  0  0  0
   10.7665  -14.4477   15.7383 O   0  0  0  0  0  0  0  0  0  0  0  0
    7.2572  -15.5119   20.3030 N   0  0  0  0  0  0  0  0  0  0  0  0
    6.3958  -16.3918   19.5539 C   0  0  0  0  0  0  0  0  0  0  0  0
    6.3764  -17.6169   20.4852 C   0  0  0  0  0  0  0  0  0  0  0  0
    5.9890  -16.8968   21.7730 C   0  0  0  0  0  0  0  0  0  0  0  0
    6.9023  -15.6659   21.6804 C   0  0  1  0  0  0  0  0  0  0  0  0
    8.0981  -15.8693   22.5713 C   0  0  0  0  0  0  0  0  0  0  0  0
    9.0771  -16.5799   22.2298 O   0  0  0  0  0  0  0  0  0  0  0  0
    8.1528  -15.2557   23.8372 N   0  0  0  0  0  0  0  0  0  0  0  0
    9.2971  -15.4778   24.7495 C   0  0  1  0  0  0  0  0  0  0  0  0
    9.6283  -14.1907   25.4695 C   0  0  0  0  0  0  0  0  0  0  0  0
    8.3944  -13.4307   25.7222 C   0  0  0  0  0  0  0  0  0  0  0  0
    7.7359  -13.6543   26.9274 C   0  0  0  0  0  0  0  0  0  0  0  0
    6.5994  -12.9756   27.2467 C   0  0  0  0  0  0  0  0  0  0  0  0
    6.0488  -12.0318   26.3839 C   0  0  0  0  0  0  0  0  0  0  0  0
    6.6895  -11.8004   25.1888 C   0  0  0  0  0  0  0  0  0  0  0  0
    7.8459  -12.4962   24.8743 C   0  0  0  0  0  0  0  0  0  0  0  0
    8.8737  -16.4898   25.7169 C   0  0  0  0  0  0  0  0  0  0  0  0
    7.6867  -16.8842   25.7861 O   0  0  0  0  0  0  0  0  0  0  0  0
    9.7818  -17.0463   26.5931 O   0  0  0  0  0  0  0  0  0  0  0  0
  2  1  1  1
  2  3  1  0
  4  5  2  0
  4  3  1  0
  6  2  1  0
  6  7  2  0
  8  4  1  0
  9  6  1  0
 10  9  1  0
 11 10  1  0
 12 13  1  0
 12 11  1  0
 13  9  1  0
 13 14  1  1
 15 14  2  0
 16 14  1  0
 17 25  1  0
 17 16  1  0
 17 18  1  1
 19 18  1  0
 20 19  2  0
 21 20  1  0
 22 23  1  0
 22 21  2  0
 23 24  2  0
 24 19  1  0
 25 27  1  0
 26 25  2  0
M  END
$$$$
