DPF.pdb
     RDKit          3D

 27 28  0  0  1  0  0  0  0  0999 V2000
    8.0781  -16.6444   18.3094 N   0  0  0  0  0  0  0  0  0  0  0  0
    8.1328  -17.6781   19.3529 C   0  0  1  0  0  0  0  0  0  0  0  0
    9.5058  -18.3625   19.1467 C   0  0  0  0  0  0  0  0  0  0  0  0
    9.3862  -19.1310   17.8920 C   0  0  0  0  0  0  0  0  0  0  0  0
    8.4353  -19.9269   17.7365 O   0  0  0  0  0  0  0  0  0  0  0  0
    8.0376  -17.0540   20.6711 C   0  0  0  0  0  0  0  0  0  0  0  0
    8.8730  -16.1340   20.9466 O   0  0  0  0  0  0  0  0  0  0  0  0
   10.3250  -18.9640   16.8978 O   0  0  0  0  0  0  0  0  0  0  0  0
    7.0524  -17.4614   21.5973 N   0  0  0  0  0  0  0  0  0  0  0  0
    5.9932  -18.4068   21.3486 C   0  0  0  0  0  0  0  0  0  0  0  0
    5.9839  -19.1683   22.6859 C   0  0  0  0  0  0  0  0  0  0  0  0
    5.8834  -17.9624   23.6147 C   0  0  0  0  0  0  0  0  0  0  0  0
    6.9012  -17.0237   22.9510 C   0  0  1  0  0  0  0  0  0  0  0  0
    8.1913  -17.0664   23.7249 C   0  0  0  0  0  0  0  0  0  0  0  0
    9.0588  -17.9563   23.5360 O   0  0  0  0  0  0  0  0  0  0  0  0
    8.4661  -16.0901   24.7013 N   0  0  0  0  0  0  0  0  0  0  0  0
    9.7885  -16.0159   25.3623 C   0  0  1  0  0  0  0  0  0  0  0  0
   10.1786  -14.5683   25.5542 C   0  0  0  0  0  0  0  0  0  0  0  0
    9.1339  -13.8689   26.3180 C   0  0  0  0  0  0  0  0  0  0  0  0
    9.3876  -13.6011   27.6597 C   0  0  0  0  0  0  0  0  0  0  0  0
    8.4812  -12.9388   28.4304 C   0  0  0  0  0  0  0  0  0  0  0  0
    7.2652  -12.5027   27.9112 C   0  0  0  0  0  0  0  0  0  0  0  0
    7.0011  -12.7605   26.5860 C   0  0  0  0  0  0  0  0  0  0  0  0
    7.9311  -13.4346   25.8106 C   0  0  0  0  0  0  0  0  0  0  0  0
    9.6448  -16.6653   26.6649 C   0  0  0  0  0  0  0  0  0  0  0  0
   10.6247  -16.8550   27.4220 O   0  0  0  0  0  0  0  0  0  0  0  0
    8.4092  -17.0935   27.1030 O   0  0  0  0  0  0  0  0  0  0  0  0
  2  1  1  6
  2  3  1  0
  4  5  2  0
  4  3  1  0
  6  2  1  0
  6  7  2  0
  8  4  1  0
  9  6  1  0
 10  9  1  0
 11 10  1  0
 12 13  1  0
 12 11  1  0
 13  9  1  0
 13 14  1  1
 15 14  2  0
 16 14  1  0
 17 25  1  0
 17 16  1  0
 17 18  1  1
 19 18  1  0
 20 19  2  0
 21 20  1  0
 22 23  1  0
 22 21  2  0
 23 24  2  0
 24 19  1  0
 25 27  1  0
 26 25  2  0
M  END
$$$$
