DPF.pdb
     RDKit          3D

 27 28  0  0  1  0  0  0  0  0999 V2000
    8.5650  -13.3221   17.9562 N   0  0  0  0  0  0  0  0  0  0  0  0
    8.5996  -14.6822   18.5123 C   0  0  1  0  0  0  0  0  0  0  0  0
   10.0562  -15.1547   18.2864 C   0  0  0  0  0  0  0  0  0  0  0  0
   10.1592  -15.4617   16.8462 C   0  0  0  0  0  0  0  0  0  0  0  0
    9.6333  -16.4998   16.3907 O   0  0  0  0  0  0  0  0  0  0  0  0
    8.2633  -14.6426   19.9342 C   0  0  0  0  0  0  0  0  0  0  0  0
    8.9407  -13.8607   20.6758 O   0  0  0  0  0  0  0  0  0  0  0  0
   10.8348  -14.5988   16.0115 O   0  0  0  0  0  0  0  0  0  0  0  0
    7.2242  -15.4438   20.4565 N   0  0  0  0  0  0  0  0  0  0  0  0
    6.3384  -16.2876   19.6944 C   0  0  0  0  0  0  0  0  0  0  0  0
    6.2492  -17.5078   20.6281 C   0  0  0  0  0  0  0  0  0  0  0  0
    5.8711  -16.7675   21.9072 C   0  0  0  0  0  0  0  0  0  0  0  0
    6.8388  -15.5780   21.8278 C   0  0  1  0  0  0  0  0  0  0  0  0
    8.0088  -15.8305   22.7402 C   0  0  0  0  0  0  0  0  0  0  0  0
    9.0484  -16.4207   22.3516 O   0  0  0  0  0  0  0  0  0  0  0  0
    7.9687  -15.4032   24.0810 N   0  0  0  0  0  0  0  0  0  0  0  0
    9.0640  -15.7257   25.0229 C   0  0  1  0  0  0  0  0  0  0  0  0
    9.4885  -14.4731   25.7547 C   0  0  0  0  0  0  0  0  0  0  0  0
    8.2995  -13.7120   26.1684 C   0  0  0  0  0  0  0  0  0  0  0  0
    7.0986  -13.9935   25.5243 C   0  0  0  0  0  0  0  0  0  0  0  0
    5.9483  -13.3486   25.8634 C   0  0  0  0  0  0  0  0  0  0  0  0
    5.9240  -12.3828   26.8658 C   0  0  0  0  0  0  0  0  0  0  0  0
    7.1041  -12.0944   27.5113 C   0  0  0  0  0  0  0  0  0  0  0  0
    8.2688  -12.7574   27.1586 C   0  0  0  0  0  0  0  0  0  0  0  0
    8.5271  -16.6963   25.9762 C   0  0  0  0  0  0  0  0  0  0  0  0
    7.3127  -17.0035   25.9956 O   0  0  0  0  0  0  0  0  0  0  0  0
    9.3538  -17.3096   26.8941 O   0  0  0  0  0  0  0  0  0  0  0  0
  2  1  1  1
  2  3  1  0
  4  5  2  0
  4  3  1  0
  6  2  1  0
  6  7  2  0
  8  4  1  0
  9  6  1  0
 10  9  1  0
 11 10  1  0
 12 13  1  0
 12 11  1  0
 13  9  1  0
 13 14  1  1
 15 14  2  0
 16 14  1  0
 17 25  1  0
 17 16  1  0
 17 18  1  1
 19 18  1  0
 20 19  2  0
 21 20  1  0
 22 23  1  0
 22 21  2  0
 23 24  2  0
 24 19  1  0
 25 27  1  0
 26 25  2  0
M  END
$$$$
