DPF.pdb
     RDKit          3D

 27 28  0  0  1  0  0  0  0  0999 V2000
    7.8213  -15.7831   18.0993 N   0  0  0  0  0  0  0  0  0  0  0  0
    8.4135  -16.7575   19.0267 C   0  0  1  0  0  0  0  0  0  0  0  0
    9.9244  -16.7413   18.6909 C   0  0  0  0  0  0  0  0  0  0  0  0
   10.5282  -17.8118   19.5085 C   0  0  0  0  0  0  0  0  0  0  0  0
   10.1003  -18.9825   19.4174 O   0  0  0  0  0  0  0  0  0  0  0  0
    8.1662  -16.3398   20.4054 C   0  0  0  0  0  0  0  0  0  0  0  0
    8.8549  -15.3692   20.8569 O   0  0  0  0  0  0  0  0  0  0  0  0
   11.5629  -17.5129   20.3673 O   0  0  0  0  0  0  0  0  0  0  0  0
    7.1975  -16.9929   21.1988 N   0  0  0  0  0  0  0  0  0  0  0  0
    6.3636  -18.0933   20.7851 C   0  0  0  0  0  0  0  0  0  0  0  0
    6.3796  -18.9475   22.0652 C   0  0  0  0  0  0  0  0  0  0  0  0
    5.9693  -17.8581   23.0510 C   0  0  0  0  0  0  0  0  0  0  0  0
    6.8457  -16.6992   22.5541 C   0  0  1  0  0  0  0  0  0  0  0  0
    8.0459  -16.5665   23.4523 C   0  0  0  0  0  0  0  0  0  0  0  0
    9.1271  -17.1647   23.2214 O   0  0  0  0  0  0  0  0  0  0  0  0
    7.9880  -15.7515   24.5988 N   0  0  0  0  0  0  0  0  0  0  0  0
    9.1852  -15.5209   25.4383 C   0  0  1  0  0  0  0  0  0  0  0  0
    9.4254  -14.0355   25.5811 C   0  0  0  0  0  0  0  0  0  0  0  0
    8.2097  -13.3819   26.0900 C   0  0  0  0  0  0  0  0  0  0  0  0
    8.1786  -13.0407   27.4387 C   0  0  0  0  0  0  0  0  0  0  0  0
    7.0993  -12.4139   27.9830 C   0  0  0  0  0  0  0  0  0  0  0  0
    5.9837  -12.0885   27.2163 C   0  0  0  0  0  0  0  0  0  0  0  0
    6.0007  -12.4198   25.8812 C   0  0  0  0  0  0  0  0  0  0  0  0
    7.1048  -13.0569   25.3375 C   0  0  0  0  0  0  0  0  0  0  0  0
    8.8983  -16.1028   26.7492 C   0  0  0  0  0  0  0  0  0  0  0  0
    9.7445  -16.1035   27.6730 O   0  0  0  0  0  0  0  0  0  0  0  0
    7.6710  -16.6755   27.0093 O   0  0  0  0  0  0  0  0  0  0  0  0
  2  1  1  6
  2  3  1  0
  4  5  2  0
  4  3  1  0
  6  2  1  0
  6  7  2  0
  8  4  1  0
  9  6  1  0
 10  9  1  0
 11 10  1  0
 12 13  1  0
 12 11  1  0
 13  9  1  0
 13 14  1  1
 15 14  2  0
 16 14  1  0
 17 25  1  0
 17 16  1  0
 17 18  1  1
 19 18  1  0
 20 19  2  0
 21 20  1  0
 22 23  1  0
 22 21  2  0
 23 24  2  0
 24 19  1  0
 25 27  1  0
 26 25  2  0
M  END
$$$$
