DPF.pdb
     RDKit          3D

 27 28  0  0  1  0  0  0  0  0999 V2000
    5.7793  -15.7686   26.1524 N   0  0  0  0  0  0  0  0  0  0  0  0
    6.5856  -14.9066   25.2765 C   0  0  1  0  0  0  0  0  0  0  0  0
    7.2636  -13.9031   26.2404 C   0  0  0  0  0  0  0  0  0  0  0  0
    6.1794  -13.0388   26.7468 C   0  0  0  0  0  0  0  0  0  0  0  0
    5.0672  -13.0349   26.1768 O   0  0  0  0  0  0  0  0  0  0  0  0
    7.5725  -15.7143   24.5623 C   0  0  0  0  0  0  0  0  0  0  0  0
    8.0801  -16.7037   25.1817 O   0  0  0  0  0  0  0  0  0  0  0  0
    6.4008  -12.2413   27.8480 O   0  0  0  0  0  0  0  0  0  0  0  0
    7.9421  -15.4024   23.2354 N   0  0  0  0  0  0  0  0  0  0  0  0
    7.2539  -14.4926   22.3544 C   0  0  0  0  0  0  0  0  0  0  0  0
    8.4527  -13.8069   21.6754 C   0  0  0  0  0  0  0  0  0  0  0  0
    9.1929  -15.0652   21.2331 C   0  0  0  0  0  0  0  0  0  0  0  0
    9.0556  -15.9201   22.5012 C   0  0  1  0  0  0  0  0  0  0  0  0
   10.3434  -15.8629   23.2779 C   0  0  0  0  0  0  0  0  0  0  0  0
   11.1921  -14.9518   23.1053 O   0  0  0  0  0  0  0  0  0  0  0  0
   10.6374  -16.8491   24.2387 N   0  0  0  0  0  0  0  0  0  0  0  0
   11.9175  -16.8398   24.9818 C   0  0  1  0  0  0  0  0  0  0  0  0
   12.2873  -15.4177   25.3364 C   0  0  0  0  0  0  0  0  0  0  0  0
   11.2922  -14.8625   26.2667 C   0  0  0  0  0  0  0  0  0  0  0  0
   11.1958  -15.4425   27.5279 C   0  0  0  0  0  0  0  0  0  0  0  0
   10.3152  -14.9735   28.4545 C   0  0  0  0  0  0  0  0  0  0  0  0
    9.4756  -13.8971   28.1810 C   0  0  0  0  0  0  0  0  0  0  0  0
    9.5602  -13.3137   26.9380 C   0  0  0  0  0  0  0  0  0  0  0  0
   10.4606  -13.7986   26.0029 C   0  0  0  0  0  0  0  0  0  0  0  0
   11.7000  -17.6127   26.2043 C   0  0  0  0  0  0  0  0  0  0  0  0
   12.6140  -17.8012   27.0401 O   0  0  0  0  0  0  0  0  0  0  0  0
   10.4653  -18.1640   26.4757 O   0  0  0  0  0  0  0  0  0  0  0  0
  2  1  1  1
  2  3  1  0
  4  5  2  0
  4  3  1  0
  6  2  1  0
  6  7  2  0
  8  4  1  0
  9  6  1  0
 10  9  1  0
 11 10  1  0
 12 13  1  0
 12 11  1  0
 13  9  1  0
 13 14  1  1
 15 14  2  0
 16 14  1  0
 17 25  1  0
 17 16  1  0
 17 18  1  1
 19 18  1  0
 20 19  2  0
 21 20  1  0
 22 23  1  0
 22 21  2  0
 23 24  2  0
 24 19  1  0
 25 27  1  0
 26 25  2  0
M  END
$$$$
