DPF.pdb
     RDKit          3D

 27 28  0  0  1  0  0  0  0  0999 V2000
    9.5944  -18.2497   19.3912 N   0  0  0  0  0  0  0  0  0  0  0  0
   10.9397  -18.3135   19.9798 C   0  0  1  0  0  0  0  0  0  0  0  0
   11.8561  -17.6545   18.9207 C   0  0  0  0  0  0  0  0  0  0  0  0
   13.2074  -17.6377   19.5147 C   0  0  0  0  0  0  0  0  0  0  0  0
   13.6775  -18.6774   20.0244 O   0  0  0  0  0  0  0  0  0  0  0  0
   10.9617  -17.5755   21.2414 C   0  0  0  0  0  0  0  0  0  0  0  0
   12.0974  -17.3536   21.7716 O   0  0  0  0  0  0  0  0  0  0  0  0
   13.9437  -16.4735   19.5016 O   0  0  0  0  0  0  0  0  0  0  0  0
    9.7640  -17.1286   21.8415 N   0  0  0  0  0  0  0  0  0  0  0  0
    8.4381  -17.2630   21.2924 C   0  0  0  0  0  0  0  0  0  0  0  0
    7.6463  -17.6090   22.5658 C   0  0  0  0  0  0  0  0  0  0  0  0
    8.1232  -16.4481   23.4328 C   0  0  0  0  0  0  0  0  0  0  0  0
    9.6214  -16.4564   23.0964 C   0  0  1  0  0  0  0  0  0  0  0  0
   10.3744  -17.1339   24.2095 C   0  0  0  0  0  0  0  0  0  0  0  0
   10.5453  -18.3788   24.2444 O   0  0  0  0  0  0  0  0  0  0  0  0
   10.9189  -16.3750   25.2629 N   0  0  0  0  0  0  0  0  0  0  0  0
   11.7117  -17.0121   26.3384 C   0  0  1  0  0  0  0  0  0  0  0  0
   12.5033  -15.9574   27.0770 C   0  0  0  0  0  0  0  0  0  0  0  0
   11.5858  -14.9759   27.6762 C   0  0  0  0  0  0  0  0  0  0  0  0
   10.9829  -14.0549   26.8250 C   0  0  0  0  0  0  0  0  0  0  0  0
   10.1048  -13.1275   27.2973 C   0  0  0  0  0  0  0  0  0  0  0  0
    9.7736  -13.0606   28.6479 C   0  0  0  0  0  0  0  0  0  0  0  0
   10.3621  -13.9652   29.5011 C   0  0  0  0  0  0  0  0  0  0  0  0
   11.2537  -14.9053   29.0094 C   0  0  0  0  0  0  0  0  0  0  0  0
   10.7560  -17.6405   27.2499 C   0  0  0  0  0  0  0  0  0  0  0  0
   11.1247  -18.3986   28.1766 O   0  0  0  0  0  0  0  0  0  0  0  0
    9.4025  -17.4135   27.1133 O   0  0  0  0  0  0  0  0  0  0  0  0
  2  1  1  6
  2  3  1  0
  4  5  2  0
  4  3  1  0
  6  2  1  0
  6  7  2  0
  8  4  1  0
  9  6  1  0
 10  9  1  0
 11 10  1  0
 12 13  1  0
 12 11  1  0
 13  9  1  0
 13 14  1  1
 15 14  2  0
 16 14  1  0
 17 25  1  0
 17 16  1  0
 17 18  1  1
 19 18  1  0
 20 19  2  0
 21 20  1  0
 22 23  1  0
 22 21  2  0
 23 24  2  0
 24 19  1  0
 25 27  1  0
 26 25  2  0
M  END
$$$$
