DPF.pdb
     RDKit          3D

 27 28  0  0  1  0  0  0  0  0999 V2000
    7.5329  -17.9514   19.7297 N   0  0  0  0  0  0  0  0  0  0  0  0
    8.7598  -18.2663   20.4754 C   0  0  1  0  0  0  0  0  0  0  0  0
    9.7428  -18.7871   19.3991 C   0  0  0  0  0  0  0  0  0  0  0  0
   11.0080  -19.0583   20.1095 C   0  0  0  0  0  0  0  0  0  0  0  0
   10.9951  -19.6926   21.1862 O   0  0  0  0  0  0  0  0  0  0  0  0
    9.2663  -17.0586   21.1245 C   0  0  0  0  0  0  0  0  0  0  0  0
   10.4400  -17.1043   21.6150 O   0  0  0  0  0  0  0  0  0  0  0  0
   12.1977  -18.6106   19.5787 O   0  0  0  0  0  0  0  0  0  0  0  0
    8.4772  -15.8898   21.1993 N   0  0  0  0  0  0  0  0  0  0  0  0
    7.1558  -15.7213   20.6488 C   0  0  0  0  0  0  0  0  0  0  0  0
    6.4898  -14.9101   21.7743 C   0  0  0  0  0  0  0  0  0  0  0  0
    7.5390  -13.8088   21.8899 C   0  0  0  0  0  0  0  0  0  0  0  0
    8.8223  -14.6493   21.8230 C   0  0  1  0  0  0  0  0  0  0  0  0
    9.3694  -14.8282   23.2136 C   0  0  0  0  0  0  0  0  0  0  0  0
   10.3118  -14.1264   23.6601 O   0  0  0  0  0  0  0  0  0  0  0  0
    8.8282  -15.8068   24.0689 N   0  0  0  0  0  0  0  0  0  0  0  0
    9.1130  -15.7996   25.5214 C   0  0  1  0  0  0  0  0  0  0  0  0
    7.8131  -15.8093   26.2927 C   0  0  0  0  0  0  0  0  0  0  0  0
    7.2713  -14.4439   26.3712 C   0  0  0  0  0  0  0  0  0  0  0  0
    8.1348  -13.4310   26.7770 C   0  0  0  0  0  0  0  0  0  0  0  0
    7.7171  -12.1373   26.8550 C   0  0  0  0  0  0  0  0  0  0  0  0
    6.4124  -11.7732   26.5334 C   0  0  0  0  0  0  0  0  0  0  0  0
    5.5478  -12.7644   26.1304 C   0  0  0  0  0  0  0  0  0  0  0  0
    5.9837  -14.0777   26.0538 C   0  0  0  0  0  0  0  0  0  0  0  0
    9.8665  -17.0198   25.8086 C   0  0  0  0  0  0  0  0  0  0  0  0
   10.3507  -17.2480   26.9412 O   0  0  0  0  0  0  0  0  0  0  0  0
   10.0685  -17.9672   24.8269 O   0  0  0  0  0  0  0  0  0  0  0  0
  2  1  1  6
  2  3  1  0
  4  5  2  0
  4  3  1  0
  6  2  1  0
  6  7  2  0
  8  4  1  0
  9  6  1  0
 10  9  1  0
 11 10  1  0
 12 13  1  0
 12 11  1  0
 13  9  1  0
 13 14  1  1
 15 14  2  0
 16 14  1  0
 17 25  1  0
 17 16  1  0
 17 18  1  1
 19 18  1  0
 20 19  2  0
 21 20  1  0
 22 23  1  0
 22 21  2  0
 23 24  2  0
 24 19  1  0
 25 27  1  0
 26 25  2  0
M  END
$$$$
