DPF.pdb
     RDKit          3D

 27 28  0  0  1  0  0  0  0  0999 V2000
    8.1193  -13.1407   18.0459 N   0  0  0  0  0  0  0  0  0  0  0  0
    8.3883  -14.5023   18.5296 C   0  0  1  0  0  0  0  0  0  0  0  0
    9.9116  -14.6896   18.3282 C   0  0  0  0  0  0  0  0  0  0  0  0
   10.0750  -15.1896   16.9490 C   0  0  0  0  0  0  0  0  0  0  0  0
   11.1630  -15.6905   16.5921 O   0  0  0  0  0  0  0  0  0  0  0  0
    8.0171  -14.6074   19.9394 C   0  0  0  0  0  0  0  0  0  0  0  0
    8.5987  -13.8265   20.7592 O   0  0  0  0  0  0  0  0  0  0  0  0
    9.0241  -15.1019   16.0627 O   0  0  0  0  0  0  0  0  0  0  0  0
    7.0482  -15.5419   20.3668 N   0  0  0  0  0  0  0  0  0  0  0  0
    6.2557  -16.3924   19.5148 C   0  0  0  0  0  0  0  0  0  0  0  0
    6.2648  -17.6926   20.3380 C   0  0  0  0  0  0  0  0  0  0  0  0
    5.8006  -17.1043   21.6667 C   0  0  0  0  0  0  0  0  0  0  0  0
    6.6558  -15.8298   21.7122 C   0  0  1  0  0  0  0  0  0  0  0  0
    7.8299  -16.0545   22.6265 C   0  0  0  0  0  0  0  0  0  0  0  0
    8.8548  -16.6842   22.2614 O   0  0  0  0  0  0  0  0  0  0  0  0
    7.8108  -15.5546   23.9425 N   0  0  0  0  0  0  0  0  0  0  0  0
    8.9126  -15.8407   24.8887 C   0  0  1  0  0  0  0  0  0  0  0  0
    9.3518  -14.5584   25.5577 C   0  0  0  0  0  0  0  0  0  0  0  0
    8.1724  -13.7565   25.9184 C   0  0  0  0  0  0  0  0  0  0  0  0
    8.0688  -12.4815   25.3709 C   0  0  0  0  0  0  0  0  0  0  0  0
    6.9976  -11.6843   25.6377 C   0  0  0  0  0  0  0  0  0  0  0  0
    5.9633  -12.1087   26.4673 C   0  0  0  0  0  0  0  0  0  0  0  0
    6.0525  -13.3673   27.0155 C   0  0  0  0  0  0  0  0  0  0  0  0
    7.1467  -14.1706   26.7365 C   0  0  0  0  0  0  0  0  0  0  0  0
    8.3780  -16.7622   25.8909 C   0  0  0  0  0  0  0  0  0  0  0  0
    7.1523  -17.0058   25.9795 O   0  0  0  0  0  0  0  0  0  0  0  0
    9.2196  -17.3980   26.7794 O   0  0  0  0  0  0  0  0  0  0  0  0
  2  1  1  1
  2  3  1  0
  4  5  2  0
  4  3  1  0
  6  2  1  0
  6  7  2  0
  8  4  1  0
  9  6  1  0
 10  9  1  0
 11 10  1  0
 12 13  1  0
 12 11  1  0
 13  9  1  0
 13 14  1  1
 15 14  2  0
 16 14  1  0
 17 25  1  0
 17 16  1  0
 17 18  1  1
 19 18  1  0
 20 19  2  0
 21 20  1  0
 22 23  1  0
 22 21  2  0
 23 24  2  0
 24 19  1  0
 25 27  1  0
 26 25  2  0
M  END
$$$$
