DPF.pdb
     RDKit          3D

 27 28  0  0  1  0  0  0  0  0999 V2000
    9.4961  -17.2869   18.1614 N   0  0  0  0  0  0  0  0  0  0  0  0
    8.5066  -17.3565   19.2459 C   0  0  1  0  0  0  0  0  0  0  0  0
    8.4703  -18.8529   19.6400 C   0  0  0  0  0  0  0  0  0  0  0  0
    7.4093  -18.9734   20.6592 C   0  0  0  0  0  0  0  0  0  0  0  0
    6.3198  -18.3826   20.4981 O   0  0  0  0  0  0  0  0  0  0  0  0
    8.9388  -16.5184   20.3627 C   0  0  0  0  0  0  0  0  0  0  0  0
    9.7716  -17.0197   21.1846 O   0  0  0  0  0  0  0  0  0  0  0  0
    7.6271  -19.7393   21.7833 O   0  0  0  0  0  0  0  0  0  0  0  0
    8.4471  -15.2034   20.5158 N   0  0  0  0  0  0  0  0  0  0  0  0
    7.6484  -14.4794   19.5591 C   0  0  0  0  0  0  0  0  0  0  0  0
    6.6586  -13.7747   20.5036 C   0  0  0  0  0  0  0  0  0  0  0  0
    7.6787  -13.1474   21.4484 C   0  0  0  0  0  0  0  0  0  0  0  0
    8.6407  -14.3300   21.6323 C   0  0  1  0  0  0  0  0  0  0  0  0
    8.3570  -14.9977   22.9509 C   0  0  0  0  0  0  0  0  0  0  0  0
    7.1909  -15.1234   23.4031 O   0  0  0  0  0  0  0  0  0  0  0  0
    9.4126  -15.5102   23.7288 N   0  0  0  0  0  0  0  0  0  0  0  0
    9.3788  -15.4455   25.2072 C   0  0  1  0  0  0  0  0  0  0  0  0
    7.9437  -15.4053   25.6800 C   0  0  0  0  0  0  0  0  0  0  0  0
    7.5916  -14.0353   26.0840 C   0  0  0  0  0  0  0  0  0  0  0  0
    6.2398  -13.7226   26.1896 C   0  0  0  0  0  0  0  0  0  0  0  0
    5.8309  -12.4833   26.5785 C   0  0  0  0  0  0  0  0  0  0  0  0
    6.7445  -11.4788   26.8860 C   0  0  0  0  0  0  0  0  0  0  0  0
    8.0844  -11.7740   26.7861 C   0  0  0  0  0  0  0  0  0  0  0  0
    8.4894  -13.0388   26.3901 C   0  0  0  0  0  0  0  0  0  0  0  0
   10.0258  -16.6625   25.6966 C   0  0  0  0  0  0  0  0  0  0  0  0
   10.3723  -17.5852   24.9232 O   0  0  0  0  0  0  0  0  0  0  0  0
   10.2763  -16.8316   27.0422 O   0  0  0  0  0  0  0  0  0  0  0  0
  2  1  1  6
  2  3  1  0
  4  5  2  0
  4  3  1  0
  6  2  1  0
  6  7  2  0
  8  4  1  0
  9  6  1  0
 10  9  1  0
 11 10  1  0
 12 13  1  0
 12 11  1  0
 13  9  1  0
 13 14  1  1
 15 14  2  0
 16 14  1  0
 17 25  1  0
 17 16  1  0
 17 18  1  1
 19 18  1  0
 20 19  2  0
 21 20  1  0
 22 23  1  0
 22 21  2  0
 23 24  2  0
 24 19  1  0
 25 27  1  0
 26 25  2  0
M  END
$$$$
