DPF.pdb
     RDKit          3D

 27 28  0  0  1  0  0  0  0  0999 V2000
   10.5733  -17.4951   18.9186 N   0  0  0  0  0  0  0  0  0  0  0  0
    9.7835  -18.2995   19.8618 C   0  0  1  0  0  0  0  0  0  0  0  0
   10.7830  -19.3489   20.4054 C   0  0  0  0  0  0  0  0  0  0  0  0
   12.0991  -18.9728   19.8528 C   0  0  0  0  0  0  0  0  0  0  0  0
   12.2510  -18.8736   18.6163 O   0  0  0  0  0  0  0  0  0  0  0  0
    9.2702  -17.4442   20.9302 C   0  0  0  0  0  0  0  0  0  0  0  0
   10.0131  -16.4891   21.3254 O   0  0  0  0  0  0  0  0  0  0  0  0
   13.1534  -18.7314   20.7059 O   0  0  0  0  0  0  0  0  0  0  0  0
    7.9970  -17.6751   21.4960 N   0  0  0  0  0  0  0  0  0  0  0  0
    7.0211  -18.6275   21.0291 C   0  0  0  0  0  0  0  0  0  0  0  0
    6.4908  -19.1595   22.3723 C   0  0  0  0  0  0  0  0  0  0  0  0
    6.1665  -17.8160   23.0182 C   0  0  0  0  0  0  0  0  0  0  0  0
    7.4197  -17.0188   22.6286 C   0  0  1  0  0  0  0  0  0  0  0  0
    8.3542  -16.9595   23.8069 C   0  0  0  0  0  0  0  0  0  0  0  0
    9.1425  -17.8978   24.0870 O   0  0  0  0  0  0  0  0  0  0  0  0
    8.3703  -15.8276   24.6439 N   0  0  0  0  0  0  0  0  0  0  0  0
    9.3661  -15.6901   25.7305 C   0  0  1  0  0  0  0  0  0  0  0  0
    9.6469  -14.2258   25.9782 C   0  0  0  0  0  0  0  0  0  0  0  0
    8.3798  -13.4992   26.1533 C   0  0  0  0  0  0  0  0  0  0  0  0
    7.6935  -13.1159   25.0051 C   0  0  0  0  0  0  0  0  0  0  0  0
    6.5032  -12.4590   25.0812 C   0  0  0  0  0  0  0  0  0  0  0  0
    5.9234  -12.1432   26.3069 C   0  0  0  0  0  0  0  0  0  0  0  0
    6.5909  -12.5162   27.4504 C   0  0  0  0  0  0  0  0  0  0  0  0
    7.8013  -13.1851   27.3614 C   0  0  0  0  0  0  0  0  0  0  0  0
    8.7703  -16.2875   26.9253 C   0  0  0  0  0  0  0  0  0  0  0  0
    7.5685  -16.6393   26.9608 O   0  0  0  0  0  0  0  0  0  0  0  0
    9.5250  -16.4830   28.0629 O   0  0  0  0  0  0  0  0  0  0  0  0
  2  1  1  6
  2  3  1  0
  4  5  2  0
  4  3  1  0
  6  2  1  0
  6  7  2  0
  8  4  1  0
  9  6  1  0
 10  9  1  0
 11 10  1  0
 12 13  1  0
 12 11  1  0
 13  9  1  0
 13 14  1  1
 15 14  2  0
 16 14  1  0
 17 25  1  0
 17 16  1  0
 17 18  1  1
 19 18  1  0
 20 19  2  0
 21 20  1  0
 22 23  1  0
 22 21  2  0
 23 24  2  0
 24 19  1  0
 25 27  1  0
 26 25  2  0
M  END
$$$$
