DPF.pdb
     RDKit          3D

 27 28  0  0  1  0  0  0  0  0999 V2000
    6.2576  -17.7884   21.4871 N   0  0  0  0  0  0  0  0  0  0  0  0
    7.5155  -18.4488   21.8637 C   0  0  1  0  0  0  0  0  0  0  0  0
    7.8924  -19.2968   20.6249 C   0  0  0  0  0  0  0  0  0  0  0  0
    9.1638  -19.9639   20.9676 C   0  0  0  0  0  0  0  0  0  0  0  0
   10.0813  -20.0299   20.1215 O   0  0  0  0  0  0  0  0  0  0  0  0
    8.5341  -17.4413   22.1538 C   0  0  0  0  0  0  0  0  0  0  0  0
    9.6707  -17.8536   22.5517 O   0  0  0  0  0  0  0  0  0  0  0  0
    9.3316  -20.5093   22.2214 O   0  0  0  0  0  0  0  0  0  0  0  0
    8.2594  -16.0652   21.9947 N   0  0  0  0  0  0  0  0  0  0  0  0
    7.0130  -15.4946   21.5492 C   0  0  0  0  0  0  0  0  0  0  0  0
    6.9205  -14.2733   22.4810 C   0  0  0  0  0  0  0  0  0  0  0  0
    8.3020  -13.6897   22.2018 C   0  0  0  0  0  0  0  0  0  0  0  0
    9.1486  -14.9704   22.2346 C   0  0  1  0  0  0  0  0  0  0  0  0
    9.8474  -15.0673   23.5639 C   0  0  0  0  0  0  0  0  0  0  0  0
   10.9625  -14.5278   23.7776 O   0  0  0  0  0  0  0  0  0  0  0  0
    9.2579  -15.7796   24.6256 N   0  0  0  0  0  0  0  0  0  0  0  0
    9.8930  -15.8319   25.9616 C   0  0  1  0  0  0  0  0  0  0  0  0
    9.5443  -14.5826   26.7377 C   0  0  0  0  0  0  0  0  0  0  0  0
    8.1648  -14.1749   26.4298 C   0  0  0  0  0  0  0  0  0  0  0  0
    7.9134  -12.8143   26.2816 C   0  0  0  0  0  0  0  0  0  0  0  0
    6.6682  -12.3565   25.9752 C   0  0  0  0  0  0  0  0  0  0  0  0
    5.5961  -13.2268   25.7977 C   0  0  0  0  0  0  0  0  0  0  0  0
    5.8302  -14.5748   25.9410 C   0  0  0  0  0  0  0  0  0  0  0  0
    7.1016  -15.0299   26.2522 C   0  0  0  0  0  0  0  0  0  0  0  0
    9.3453  -17.0048   26.6424 C   0  0  0  0  0  0  0  0  0  0  0  0
    8.3906  -17.6614   26.1659 O   0  0  0  0  0  0  0  0  0  0  0  0
    9.8714  -17.4275   27.8451 O   0  0  0  0  0  0  0  0  0  0  0  0
  2  1  1  6
  2  3  1  0
  4  5  2  0
  4  3  1  0
  6  2  1  0
  6  7  2  0
  8  4  1  0
  9  6  1  0
 10  9  1  0
 11 10  1  0
 12 13  1  0
 12 11  1  0
 13  9  1  0
 13 14  1  1
 15 14  2  0
 16 14  1  0
 17 25  1  0
 17 16  1  0
 17 18  1  1
 19 18  1  0
 20 19  2  0
 21 20  1  0
 22 23  1  0
 22 21  2  0
 23 24  2  0
 24 19  1  0
 25 27  1  0
 26 25  2  0
M  END
$$$$
