DPF.pdb
     RDKit          3D

 27 28  0  0  1  0  0  0  0  0999 V2000
    9.4860  -18.3396   20.1265 N   0  0  0  0  0  0  0  0  0  0  0  0
   10.2651  -17.3158   20.8374 C   0  0  1  0  0  0  0  0  0  0  0  0
   10.3576  -16.1378   19.8377 C   0  0  0  0  0  0  0  0  0  0  0  0
   11.4884  -16.4580   18.9444 C   0  0  0  0  0  0  0  0  0  0  0  0
   12.1705  -15.5365   18.4470 O   0  0  0  0  0  0  0  0  0  0  0  0
    9.5675  -16.9266   22.0615 C   0  0  0  0  0  0  0  0  0  0  0  0
    9.9341  -15.8473   22.6279 O   0  0  0  0  0  0  0  0  0  0  0  0
   11.7860  -17.7738   18.6657 O   0  0  0  0  0  0  0  0  0  0  0  0
    8.5269  -17.7230   22.5880 N   0  0  0  0  0  0  0  0  0  0  0  0
    8.0244  -18.9479   22.0182 C   0  0  0  0  0  0  0  0  0  0  0  0
    7.8093  -19.7782   23.2959 C   0  0  0  0  0  0  0  0  0  0  0  0
    6.9738  -18.7629   24.0693 C   0  0  0  0  0  0  0  0  0  0  0  0
    7.7651  -17.4804   23.7745 C   0  0  1  0  0  0  0  0  0  0  0  0
    8.6267  -17.1468   24.9625 C   0  0  0  0  0  0  0  0  0  0  0  0
    9.8456  -17.4498   25.0145 O   0  0  0  0  0  0  0  0  0  0  0  0
    8.0786  -16.4722   26.0700 N   0  0  0  0  0  0  0  0  0  0  0  0
    8.9191  -16.0808   27.2238 C   0  0  1  0  0  0  0  0  0  0  0  0
    8.2121  -15.0131   28.0268 C   0  0  0  0  0  0  0  0  0  0  0  0
    7.7416  -13.9463   27.1298 C   0  0  0  0  0  0  0  0  0  0  0  0
    6.3841  -13.9125   26.8261 C   0  0  0  0  0  0  0  0  0  0  0  0
    5.8654  -12.9447   26.0208 C   0  0  0  0  0  0  0  0  0  0  0  0
    6.6682  -11.9505   25.4681 C   0  0  0  0  0  0  0  0  0  0  0  0
    8.0123  -11.9715   25.7600 C   0  0  0  0  0  0  0  0  0  0  0  0
    8.5295  -12.9607   26.5814 C   0  0  0  0  0  0  0  0  0  0  0  0
    9.0940  -17.2798   28.0430 C   0  0  0  0  0  0  0  0  0  0  0  0
    9.9212  -17.3250   28.9827 O   0  0  0  0  0  0  0  0  0  0  0  0
    8.3430  -18.4109   27.8008 O   0  0  0  0  0  0  0  0  0  0  0  0
  2  1  1  6
  2  3  1  0
  4  5  2  0
  4  3  1  0
  6  2  1  0
  6  7  2  0
  8  4  1  0
  9  6  1  0
 10  9  1  0
 11 10  1  0
 12 13  1  0
 12 11  1  0
 13  9  1  0
 13 14  1  1
 15 14  2  0
 16 14  1  0
 17 25  1  0
 17 16  1  0
 17 18  1  1
 19 18  1  0
 20 19  2  0
 21 20  1  0
 22 23  1  0
 22 21  2  0
 23 24  2  0
 24 19  1  0
 25 27  1  0
 26 25  2  0
M  END
$$$$
