DPF.pdb
     RDKit          3D

 27 28  0  0  1  0  0  0  0  0999 V2000
   10.7910  -16.8477   18.1781 N   0  0  0  0  0  0  0  0  0  0  0  0
   10.2411  -17.6512   19.2792 C   0  0  1  0  0  0  0  0  0  0  0  0
   11.4335  -18.5121   19.7618 C   0  0  0  0  0  0  0  0  0  0  0  0
   11.7652  -19.4052   18.6342 C   0  0  0  0  0  0  0  0  0  0  0  0
   10.9203  -20.2280   18.2209 O   0  0  0  0  0  0  0  0  0  0  0  0
    9.7536  -16.7692   20.3380 C   0  0  0  0  0  0  0  0  0  0  0  0
   10.6200  -16.2376   21.1042 O   0  0  0  0  0  0  0  0  0  0  0  0
   13.0066  -19.3242   18.0425 O   0  0  0  0  0  0  0  0  0  0  0  0
    8.3725  -16.5208   20.4969 N   0  0  0  0  0  0  0  0  0  0  0  0
    7.3269  -16.9332   19.5946 C   0  0  0  0  0  0  0  0  0  0  0  0
    6.2404  -17.3472   20.6029 C   0  0  0  0  0  0  0  0  0  0  0  0
    6.2271  -16.0692   21.4355 C   0  0  0  0  0  0  0  0  0  0  0  0
    7.7359  -15.8158   21.5667 C   0  0  1  0  0  0  0  0  0  0  0  0
    8.1982  -16.2743   22.9236 C   0  0  0  0  0  0  0  0  0  0  0  0
    8.6654  -17.4245   23.1208 O   0  0  0  0  0  0  0  0  0  0  0  0
    8.1180  -15.4086   24.0309 N   0  0  0  0  0  0  0  0  0  0  0  0
    8.7316  -15.7646   25.3301 C   0  0  1  0  0  0  0  0  0  0  0  0
    9.1946  -14.5091   26.0328 C   0  0  0  0  0  0  0  0  0  0  0  0
    8.1140  -13.5110   26.0308 C   0  0  0  0  0  0  0  0  0  0  0  0
    7.3782  -13.3565   27.2017 C   0  0  0  0  0  0  0  0  0  0  0  0
    6.3755  -12.4392   27.2887 C   0  0  0  0  0  0  0  0  0  0  0  0
    6.0441  -11.6193   26.2135 C   0  0  0  0  0  0  0  0  0  0  0  0
    6.7634  -11.7611   25.0495 C   0  0  0  0  0  0  0  0  0  0  0  0
    7.7824  -12.6972   24.9722 C   0  0  0  0  0  0  0  0  0  0  0  0
    7.6902  -16.4182   26.1223 C   0  0  0  0  0  0  0  0  0  0  0  0
    6.4922  -16.4349   25.7564 O   0  0  0  0  0  0  0  0  0  0  0  0
    8.0017  -17.0434   27.3114 O   0  0  0  0  0  0  0  0  0  0  0  0
  2  1  1  6
  2  3  1  0
  4  5  2  0
  4  3  1  0
  6  2  1  0
  6  7  2  0
  8  4  1  0
  9  6  1  0
 10  9  1  0
 11 10  1  0
 12 13  1  0
 12 11  1  0
 13  9  1  0
 13 14  1  1
 15 14  2  0
 16 14  1  0
 17 25  1  0
 17 16  1  0
 17 18  1  1
 19 18  1  0
 20 19  2  0
 21 20  1  0
 22 23  1  0
 22 21  2  0
 23 24  2  0
 24 19  1  0
 25 27  1  0
 26 25  2  0
M  END
$$$$
