DNA.pdb
     RDKit          3D

 22 21  0  0  1  0  0  0  0  0999 V2000
   17.2205  -13.2781  -16.0579 N   0  0  0  0  0  0  0  0  0  0  0  0
   18.1940  -12.2225  -16.2370 C   0  0  1  0  0  0  0  0  0  0  0  0
   19.1537  -12.5624  -17.3550 C   0  0  0  0  0  0  0  0  0  0  0  0
   20.0332  -13.7013  -17.0028 C   0  0  0  0  0  0  0  0  0  0  0  0
   20.0947  -14.7532  -17.6531 O   0  0  0  0  0  0  0  0  0  0  0  0
   17.4749  -10.9803  -16.5971 C   0  0  0  0  0  0  0  0  0  0  0  0
   16.6470  -11.0043  -17.5359 O   0  0  0  0  0  0  0  0  0  0  0  0
   20.8345  -13.5805  -15.8775 O   0  0  0  0  0  0  0  0  0  0  0  0
   15.4731   -6.3037  -16.3628 N   0  0  0  0  0  0  0  0  0  0  0  0
   15.2402   -7.1454  -15.2534 C   0  0  0  0  0  0  0  0  0  0  0  0
   14.3332   -6.8415  -14.4454 O   0  0  0  0  0  0  0  0  0  0  0  0
   16.0360   -8.3558  -15.0399 C   0  0  0  0  0  0  0  0  0  0  0  0
   17.0455   -8.5787  -16.1586 C   0  0  2  0  0  0  0  0  0  0  0  0
   17.7513   -9.8035  -15.8606 N   0  0  0  0  0  0  0  0  0  0  0  0
   17.9869   -7.4718  -16.3509 C   0  0  0  0  0  0  0  0  0  0  0  0
   18.9284   -7.3166  -15.5361 O   0  0  0  0  0  0  0  0  0  0  0  0
   18.6387   -4.7510  -18.9129 C   0  0  0  0  0  0  0  0  0  0  0  0
   18.8093   -5.4273  -17.5679 C   0  0  2  0  0  0  0  0  0  0  0  0
   17.8989   -6.5450  -17.4227 N   0  0  0  0  0  0  0  0  0  0  0  0
   18.6266   -4.4168  -16.5081 C   0  0  0  0  0  0  0  0  0  0  0  0
   19.6872   -3.6924  -16.0020 O   0  0  0  0  0  0  0  0  0  0  0  0
   17.4829   -4.2038  -16.0504 O   0  0  0  0  0  0  0  0  0  0  0  0
  2  1  1  6
  3  4  1  0
  3  2  1  0
  4  5  2  0
  6  7  2  0
  6  2  1  0
  8  4  1  0
  9 10  1  0
 10 12  1  0
 11 10  2  0
 13 12  1  1
 13 14  1  0
 13 15  1  0
 14  6  1  0
 15 19  1  0
 16 15  2  0
 18 17  1  6
 19 18  1  0
 20 18  1  0
 20 21  1  0
 22 20  2  0
M  END
$$$$
