DNA.pdb
     RDKit          3D

 22 21  0  0  1  0  0  0  0  0999 V2000
   17.6013  -11.2056  -14.8056 N   0  0  0  0  0  0  0  0  0  0  0  0
   17.8651  -10.1315  -15.7387 C   0  0  1  0  0  0  0  0  0  0  0  0
   16.6052   -9.7435  -16.4795 C   0  0  0  0  0  0  0  0  0  0  0  0
   16.1108  -10.8403  -17.3437 C   0  0  0  0  0  0  0  0  0  0  0  0
   15.2065  -11.6213  -17.0191 O   0  0  0  0  0  0  0  0  0  0  0  0
   18.3417   -8.9565  -14.9757 C   0  0  0  0  0  0  0  0  0  0  0  0
   17.8169   -8.6925  -13.8701 O   0  0  0  0  0  0  0  0  0  0  0  0
   16.6970  -11.0007  -18.5902 O   0  0  0  0  0  0  0  0  0  0  0  0
   22.9246   -5.3076  -14.3676 N   0  0  0  0  0  0  0  0  0  0  0  0
   22.0409   -6.2524  -13.8021 C   0  0  0  0  0  0  0  0  0  0  0  0
   21.7997   -6.1938  -12.5748 O   0  0  0  0  0  0  0  0  0  0  0  0
   21.4094   -7.2865  -14.6241 C   0  0  0  0  0  0  0  0  0  0  0  0
   19.9138   -7.0492  -14.7886 C   0  0  2  0  0  0  0  0  0  0  0  0
   19.3812   -8.1703  -15.5279 N   0  0  0  0  0  0  0  0  0  0  0  0
   19.5724   -5.7850  -15.4472 C   0  0  0  0  0  0  0  0  0  0  0  0
   19.5650   -5.7269  -16.7006 O   0  0  0  0  0  0  0  0  0  0  0  0
   19.4724   -3.2797  -16.7909 C   0  0  0  0  0  0  0  0  0  0  0  0
   18.8544   -3.3725  -15.4106 C   0  0  2  0  0  0  0  0  0  0  0  0
   19.2432   -4.5976  -14.7421 N   0  0  0  0  0  0  0  0  0  0  0  0
   17.3899   -3.2490  -15.5431 C   0  0  0  0  0  0  0  0  0  0  0  0
   16.6847   -2.2396  -14.9188 O   0  0  0  0  0  0  0  0  0  0  0  0
   16.7622   -4.0768  -16.2385 O   0  0  0  0  0  0  0  0  0  0  0  0
  2  1  1  1
  3  4  1  0
  3  2  1  0
  4  5  2  0
  6  7  2  0
  6  2  1  0
  8  4  1  0
  9 10  1  0
 10 12  1  0
 11 10  2  0
 13 12  1  6
 13 14  1  0
 13 15  1  0
 14  6  1  0
 15 19  1  0
 16 15  2  0
 18 17  1  6
 19 18  1  0
 20 18  1  0
 20 21  1  0
 22 20  2  0
M  END
$$$$
