DNA.pdb
     RDKit          3D

 22 21  0  0  1  0  0  0  0  0999 V2000
   14.7389   -9.6370  -14.2588 N   0  0  0  0  0  0  0  0  0  0  0  0
   15.9192   -9.9907  -13.5000 C   0  0  1  0  0  0  0  0  0  0  0  0
   16.9095  -10.7367  -14.3657 C   0  0  0  0  0  0  0  0  0  0  0  0
   16.4655  -12.1215  -14.6475 C   0  0  0  0  0  0  0  0  0  0  0  0
   16.1025  -12.5169  -15.7633 O   0  0  0  0  0  0  0  0  0  0  0  0
   16.5585   -8.7442  -13.0229 C   0  0  0  0  0  0  0  0  0  0  0  0
   16.8021   -7.8303  -13.8431 O   0  0  0  0  0  0  0  0  0  0  0  0
   16.4564  -13.0279  -13.5979 O   0  0  0  0  0  0  0  0  0  0  0  0
   16.3488   -5.0858  -10.1452 N   0  0  0  0  0  0  0  0  0  0  0  0
   16.5857   -6.1260   -9.2204 C   0  0  0  0  0  0  0  0  0  0  0  0
   16.2501   -5.9592   -8.0257 O   0  0  0  0  0  0  0  0  0  0  0  0
   17.2102   -7.3832   -9.6371 C   0  0  0  0  0  0  0  0  0  0  0  0
   17.4718   -7.4196  -11.1373 C   0  0  2  0  0  0  0  0  0  0  0  0
   16.8718   -8.6309  -11.6472 N   0  0  0  0  0  0  0  0  0  0  0  0
   18.8890   -7.3491  -11.5044 C   0  0  0  0  0  0  0  0  0  0  0  0
   19.6418   -8.3174  -11.2396 O   0  0  0  0  0  0  0  0  0  0  0  0
   21.2653   -7.2554  -13.4715 C   0  0  0  0  0  0  0  0  0  0  0  0
   20.8851   -6.1698  -12.4853 C   0  0  2  0  0  0  0  0  0  0  0  0
   19.4761   -6.2314  -12.1536 N   0  0  0  0  0  0  0  0  0  0  0  0
   21.2682   -4.8635  -13.0549 C   0  0  0  0  0  0  0  0  0  0  0  0
   22.5886   -4.4755  -13.1634 O   0  0  0  0  0  0  0  0  0  0  0  0
   20.3790   -4.0803  -13.4532 O   0  0  0  0  0  0  0  0  0  0  0  0
  2  1  1  6
  3  4  1  0
  3  2  1  0
  4  5  2  0
  6  7  2  0
  6  2  1  0
  8  4  1  0
  9 10  1  0
 10 12  1  0
 11 10  2  0
 13 12  1  1
 13 14  1  0
 13 15  1  0
 14  6  1  0
 15 19  1  0
 16 15  2  0
 18 17  1  6
 19 18  1  0
 20 18  1  0
 20 21  1  0
 22 20  2  0
M  END
$$$$
