DNA.pdb
     RDKit          3D

 22 21  0  0  1  0  0  0  0  0999 V2000
   19.1218  -11.7493  -15.5619 N   0  0  0  0  0  0  0  0  0  0  0  0
   18.4470  -10.5298  -15.9513 C   0  0  1  0  0  0  0  0  0  0  0  0
   16.9478  -10.6837  -15.8273 C   0  0  0  0  0  0  0  0  0  0  0  0
   16.4272  -11.7593  -16.7028 C   0  0  0  0  0  0  0  0  0  0  0  0
   16.6660  -11.8393  -17.9151 O   0  0  0  0  0  0  0  0  0  0  0  0
   18.8840   -9.4445  -15.0451 C   0  0  0  0  0  0  0  0  0  0  0  0
   19.2118   -9.7252  -13.8699 O   0  0  0  0  0  0  0  0  0  0  0  0
   15.6247  -12.7338  -16.1288 O   0  0  0  0  0  0  0  0  0  0  0  0
   22.3760   -5.5080  -14.0891 N   0  0  0  0  0  0  0  0  0  0  0  0
   21.4842   -6.4200  -13.4839 C   0  0  0  0  0  0  0  0  0  0  0  0
   21.2585   -6.3186  -12.2564 O   0  0  0  0  0  0  0  0  0  0  0  0
   20.8267   -7.4693  -14.2653 C   0  0  0  0  0  0  0  0  0  0  0  0
   19.4375   -7.0493  -14.7280 C   0  0  2  0  0  0  0  0  0  0  0  0
   18.9163   -8.1207  -15.5450 N   0  0  0  0  0  0  0  0  0  0  0  0
   19.4031   -5.7781  -15.4568 C   0  0  0  0  0  0  0  0  0  0  0  0
   20.0574   -5.6615  -16.5212 O   0  0  0  0  0  0  0  0  0  0  0  0
   17.1308   -2.8910  -15.7742 C   0  0  0  0  0  0  0  0  0  0  0  0
   18.5421   -3.4404  -15.8188 C   0  0  2  0  0  0  0  0  0  0  0  0
   18.6614   -4.6470  -15.0257 N   0  0  0  0  0  0  0  0  0  0  0  0
   19.4709   -2.3842  -15.3722 C   0  0  0  0  0  0  0  0  0  0  0  0
   20.2708   -2.5413  -14.2581 O   0  0  0  0  0  0  0  0  0  0  0  0
   19.5423   -1.3143  -16.0150 O   0  0  0  0  0  0  0  0  0  0  0  0
  2  1  1  1
  3  4  1  0
  3  2  1  0
  4  5  2  0
  6  7  2  0
  6  2  1  0
  8  4  1  0
  9 10  1  0
 10 12  1  0
 11 10  2  0
 13 12  1  6
 13 14  1  0
 13 15  1  0
 14  6  1  0
 15 19  1  0
 16 15  2  0
 18 17  1  1
 19 18  1  0
 20 18  1  0
 20 21  1  0
 22 20  2  0
M  END
$$$$
