DNA.pdb
     RDKit          3D

 22 21  0  0  1  0  0  0  0  0999 V2000
   13.7715  -12.1530  -12.3749 N   0  0  0  0  0  0  0  0  0  0  0  0
   15.1130  -11.6111  -12.4017 C   0  0  1  0  0  0  0  0  0  0  0  0
   15.7374  -11.7929  -13.7668 C   0  0  0  0  0  0  0  0  0  0  0  0
   16.0899  -13.2073  -14.0307 C   0  0  0  0  0  0  0  0  0  0  0  0
   15.3316  -14.0171  -14.5805 O   0  0  0  0  0  0  0  0  0  0  0  0
   15.0374  -10.1624  -12.1092 C   0  0  0  0  0  0  0  0  0  0  0  0
   14.1259   -9.4810  -12.6310 O   0  0  0  0  0  0  0  0  0  0  0  0
   17.3443  -13.6492  -13.6377 O   0  0  0  0  0  0  0  0  0  0  0  0
   15.9179   -5.6161   -9.8916 N   0  0  0  0  0  0  0  0  0  0  0  0
   16.3120   -6.6511   -9.0160 C   0  0  0  0  0  0  0  0  0  0  0  0
   16.6466   -6.3567   -7.8458 O   0  0  0  0  0  0  0  0  0  0  0  0
   16.3324   -8.0481   -9.4541 C   0  0  0  0  0  0  0  0  0  0  0  0
   15.9581   -8.1898  -10.9238 C   0  0  2  0  0  0  0  0  0  0  0  0
   16.0046   -9.5979  -11.2436 N   0  0  0  0  0  0  0  0  0  0  0  0
   16.8073   -7.4222  -11.8393 C   0  0  0  0  0  0  0  0  0  0  0  0
   18.0359   -7.6712  -11.8929 O   0  0  0  0  0  0  0  0  0  0  0  0
   16.3462   -5.4230  -14.9321 C   0  0  0  0  0  0  0  0  0  0  0  0
   17.1423   -5.7412  -13.6830 C   0  0  2  0  0  0  0  0  0  0  0  0
   16.3176   -6.3935  -12.6863 N   0  0  0  0  0  0  0  0  0  0  0  0
   17.7440   -4.4915  -13.1791 C   0  0  0  0  0  0  0  0  0  0  0  0
   18.7972   -3.8776  -13.8269 O   0  0  0  0  0  0  0  0  0  0  0  0
   17.2936   -3.9669  -12.1376 O   0  0  0  0  0  0  0  0  0  0  0  0
  2  1  1  6
  3  4  1  0
  3  2  1  0
  4  5  2  0
  6  7  2  0
  6  2  1  0
  8  4  1  0
  9 10  1  0
 10 12  1  0
 11 10  2  0
 13 12  1  1
 13 14  1  0
 13 15  1  0
 14  6  1  0
 15 19  1  0
 16 15  2  0
 18 17  1  6
 19 18  1  0
 20 18  1  0
 20 21  1  0
 22 20  2  0
M  END
$$$$
