DNA.pdb
     RDKit          3D

 22 21  0  0  1  0  0  0  0  0999 V2000
   17.7694  -12.4194  -17.4130 N   0  0  0  0  0  0  0  0  0  0  0  0
   18.2619  -11.9526  -16.1348 C   0  0  1  0  0  0  0  0  0  0  0  0
   19.5004  -12.7177  -15.7257 C   0  0  0  0  0  0  0  0  0  0  0  0
   19.1965  -14.1309  -15.4018 C   0  0  0  0  0  0  0  0  0  0  0  0
   18.1617  -14.5017  -14.8319 O   0  0  0  0  0  0  0  0  0  0  0  0
   18.6159  -10.5216  -16.2652 C   0  0  0  0  0  0  0  0  0  0  0  0
   19.1491  -10.1185  -17.3237 O   0  0  0  0  0  0  0  0  0  0  0  0
   20.1275  -15.0947  -15.7587 O   0  0  0  0  0  0  0  0  0  0  0  0
   18.3760   -5.4621  -15.4972 N   0  0  0  0  0  0  0  0  0  0  0  0
   17.2338   -6.1221  -14.9941 C   0  0  0  0  0  0  0  0  0  0  0  0
   16.2316   -5.4397  -14.6811 O   0  0  0  0  0  0  0  0  0  0  0  0
   17.2068   -7.5777  -14.8374 C   0  0  0  0  0  0  0  0  0  0  0  0
   18.4919   -8.2280  -15.3333 C   0  0  2  0  0  0  0  0  0  0  0  0
   18.3354   -9.6561  -15.1808 N   0  0  0  0  0  0  0  0  0  0  0  0
   19.7043   -7.7640  -14.6529 C   0  0  0  0  0  0  0  0  0  0  0  0
   19.8677   -8.0303  -13.4376 O   0  0  0  0  0  0  0  0  0  0  0  0
   23.0425   -6.2934  -15.6097 C   0  0  0  0  0  0  0  0  0  0  0  0
   21.9412   -6.6098  -14.6184 C   0  0  2  0  0  0  0  0  0  0  0  0
   20.7265   -7.0168  -15.2950 N   0  0  0  0  0  0  0  0  0  0  0  0
   21.7324   -5.4301  -13.7569 C   0  0  0  0  0  0  0  0  0  0  0  0
   22.5814   -5.1339  -12.7093 O   0  0  0  0  0  0  0  0  0  0  0  0
   20.7625   -4.6720  -13.9747 O   0  0  0  0  0  0  0  0  0  0  0  0
  2  1  1  6
  3  4  1  0
  3  2  1  0
  4  5  2  0
  6  7  2  0
  6  2  1  0
  8  4  1  0
  9 10  1  0
 10 12  1  0
 11 10  2  0
 13 12  1  1
 13 14  1  0
 13 15  1  0
 14  6  1  0
 15 19  1  0
 16 15  2  0
 18 17  1  6
 19 18  1  0
 20 18  1  0
 20 21  1  0
 22 20  2  0
M  END
$$$$
