DNA.pdb
     RDKit          3D

 22 21  0  0  1  0  0  0  0  0999 V2000
   18.0248  -10.2200  -12.9602 N   0  0  0  0  0  0  0  0  0  0  0  0
   17.1612   -9.8991  -14.0761 C   0  0  1  0  0  0  0  0  0  0  0  0
   17.1477  -11.0256  -15.0848 C   0  0  0  0  0  0  0  0  0  0  0  0
   18.4924  -11.2756  -15.6537 C   0  0  0  0  0  0  0  0  0  0  0  0
   19.4441  -10.4906  -15.5477 O   0  0  0  0  0  0  0  0  0  0  0  0
   15.7857   -9.7117  -13.5633 C   0  0  0  0  0  0  0  0  0  0  0  0
   14.8654   -9.4421  -14.3681 O   0  0  0  0  0  0  0  0  0  0  0  0
   18.6958  -12.4598  -16.3460 O   0  0  0  0  0  0  0  0  0  0  0  0
   12.2489  -11.0125   -8.9800 N   0  0  0  0  0  0  0  0  0  0  0  0
   12.4830  -10.8409  -10.3618 C   0  0  0  0  0  0  0  0  0  0  0  0
   11.5090  -10.6131  -11.1149 O   0  0  0  0  0  0  0  0  0  0  0  0
   13.8351  -10.9236  -10.9176 C   0  0  0  0  0  0  0  0  0  0  0  0
   14.2386   -9.6380  -11.6280 C   0  0  2  0  0  0  0  0  0  0  0  0
   15.5605   -9.8465  -12.1723 N   0  0  0  0  0  0  0  0  0  0  0  0
   14.2108   -8.4445  -10.7775 C   0  0  0  0  0  0  0  0  0  0  0  0
   13.1060   -7.9772  -10.4095 O   0  0  0  0  0  0  0  0  0  0  0  0
   16.3334   -6.6507   -8.3797 C   0  0  0  0  0  0  0  0  0  0  0  0
   15.3303   -6.5778   -9.5129 C   0  0  2  0  0  0  0  0  0  0  0  0
   15.3788   -7.7697  -10.3350 N   0  0  0  0  0  0  0  0  0  0  0  0
   15.5902   -5.3513  -10.2913 C   0  0  0  0  0  0  0  0  0  0  0  0
   15.4642   -4.0947   -9.7339 O   0  0  0  0  0  0  0  0  0  0  0  0
   15.9350   -5.4435  -11.4894 O   0  0  0  0  0  0  0  0  0  0  0  0
  2  1  1  1
  3  4  1  0
  3  2  1  0
  4  5  2  0
  6  7  2  0
  6  2  1  0
  8  4  1  0
  9 10  1  0
 10 12  1  0
 11 10  2  0
 13 12  1  1
 13 14  1  0
 13 15  1  0
 14  6  1  0
 15 19  1  0
 16 15  2  0
 18 17  1  1
 19 18  1  0
 20 18  1  0
 20 21  1  0
 22 20  2  0
M  END
$$$$
