DNA.pdb
     RDKit          3D

 22 21  0  0  1  0  0  0  0  0999 V2000
   25.6265  -16.9967  -16.1958 N   0  0  0  0  0  0  0  0  0  0  0  0
   24.2642  -16.5166  -16.1090 C   0  0  1  0  0  0  0  0  0  0  0  0
   23.5665  -17.0991  -14.9004 C   0  0  0  0  0  0  0  0  0  0  0  0
   23.5170  -18.5788  -14.9491 C   0  0  0  0  0  0  0  0  0  0  0  0
   23.9768  -19.2549  -15.8789 O   0  0  0  0  0  0  0  0  0  0  0  0
   24.2961  -15.0439  -15.9682 C   0  0  0  0  0  0  0  0  0  0  0  0
   23.2311  -14.4299  -15.7311 O   0  0  0  0  0  0  0  0  0  0  0  0
   22.9196  -19.2448  -13.8896 O   0  0  0  0  0  0  0  0  0  0  0  0
   26.1176  -10.2275  -15.7770 N   0  0  0  0  0  0  0  0  0  0  0  0
   27.1519  -11.1161  -15.4109 C   0  0  0  0  0  0  0  0  0  0  0  0
   28.2301  -10.6437  -14.9842 O   0  0  0  0  0  0  0  0  0  0  0  0
   26.9802  -12.5660  -15.5214 C   0  0  0  0  0  0  0  0  0  0  0  0
   25.6007  -12.9378  -16.0497 C   0  0  2  0  0  0  0  0  0  0  0  0
   25.5385  -14.3800  -16.1067 N   0  0  0  0  0  0  0  0  0  0  0  0
   25.2766  -12.3531  -17.3541 C   0  0  0  0  0  0  0  0  0  0  0  0
   25.9852  -12.6390  -18.3493 O   0  0  0  0  0  0  0  0  0  0  0  0
   22.4961  -11.4105  -19.3323 C   0  0  0  0  0  0  0  0  0  0  0  0
   23.8583  -10.9322  -18.8728 C   0  0  2  0  0  0  0  0  0  0  0  0
   24.1894  -11.4654  -17.5670 N   0  0  0  0  0  0  0  0  0  0  0  0
   23.8686   -9.4567  -18.8927 C   0  0  0  0  0  0  0  0  0  0  0  0
   23.7824   -8.7437  -20.0716 O   0  0  0  0  0  0  0  0  0  0  0  0
   23.9572   -8.8266  -17.8166 O   0  0  0  0  0  0  0  0  0  0  0  0
  2  1  1  1
  3  4  1  0
  3  2  1  0
  4  5  2  0
  6  7  2  0
  6  2  1  0
  8  4  1  0
  9 10  1  0
 10 12  1  0
 11 10  2  0
 13 12  1  6
 13 14  1  0
 13 15  1  0
 14  6  1  0
 15 19  1  0
 16 15  2  0
 18 17  1  1
 19 18  1  0
 20 18  1  0
 20 21  1  0
 22 20  2  0
M  END
$$$$
