DNA.pdb
     RDKit          3D

 22 21  0  0  1  0  0  0  0  0999 V2000
   15.2100  -12.8655  -16.1714 N   0  0  0  0  0  0  0  0  0  0  0  0
   16.1722  -11.9769  -15.5560 C   0  0  1  0  0  0  0  0  0  0  0  0
   17.5747  -12.3028  -16.0177 C   0  0  0  0  0  0  0  0  0  0  0  0
   18.0154  -13.6378  -15.5506 C   0  0  0  0  0  0  0  0  0  0  0  0
   17.8032  -14.0758  -14.4121 O   0  0  0  0  0  0  0  0  0  0  0  0
   15.8542  -10.5902  -15.9633 C   0  0  0  0  0  0  0  0  0  0  0  0
   15.3302  -10.3873  -17.0821 O   0  0  0  0  0  0  0  0  0  0  0  0
   18.7067  -14.4435  -16.4428 O   0  0  0  0  0  0  0  0  0  0  0  0
   12.6580   -7.0761  -15.2073 N   0  0  0  0  0  0  0  0  0  0  0  0
   13.5412   -7.9650  -14.5566 C   0  0  0  0  0  0  0  0  0  0  0  0
   13.1049   -9.0726  -14.1685 O   0  0  0  0  0  0  0  0  0  0  0  0
   14.9447   -7.6119  -14.3343 C   0  0  0  0  0  0  0  0  0  0  0  0
   15.8521   -8.1712  -15.4224 C   0  0  2  0  0  0  0  0  0  0  0  0
   16.1558   -9.5379  -15.0659 N   0  0  0  0  0  0  0  0  0  0  0  0
   17.0836   -7.4050  -15.6337 C   0  0  0  0  0  0  0  0  0  0  0  0
   18.0127   -7.4903  -14.7946 O   0  0  0  0  0  0  0  0  0  0  0  0
   18.5830   -5.1903  -18.3217 C   0  0  0  0  0  0  0  0  0  0  0  0
   18.5138   -5.7909  -16.9325 C   0  0  2  0  0  0  0  0  0  0  0  0
   17.2961   -6.5546  -16.7504 N   0  0  0  0  0  0  0  0  0  0  0  0
   18.6439   -4.7030  -15.9440 C   0  0  0  0  0  0  0  0  0  0  0  0
   19.8631   -4.1232  -15.6555 O   0  0  0  0  0  0  0  0  0  0  0  0
   17.6269   -4.2882  -15.3469 O   0  0  0  0  0  0  0  0  0  0  0  0
  2  1  1  6
  3  4  1  0
  3  2  1  0
  4  5  2  0
  6  7  2  0
  6  2  1  0
  8  4  1  0
  9 10  1  0
 10 12  1  0
 11 10  2  0
 13 12  1  1
 13 14  1  0
 13 15  1  0
 14  6  1  0
 15 19  1  0
 16 15  2  0
 18 17  1  6
 19 18  1  0
 20 18  1  0
 20 21  1  0
 22 20  2  0
M  END
$$$$
