DNA.pdb
     RDKit          3D

 22 21  0  0  1  0  0  0  0  0999 V2000
   18.8772  -18.5001  -14.8964 N   0  0  0  0  0  0  0  0  0  0  0  0
   19.9843  -18.8764  -14.0438 C   0  0  1  0  0  0  0  0  0  0  0  0
   20.1390  -20.3800  -13.9985 C   0  0  0  0  0  0  0  0  0  0  0  0
   18.8314  -21.0684  -13.8951 C   0  0  0  0  0  0  0  0  0  0  0  0
   17.7567  -20.4843  -13.7024 O   0  0  0  0  0  0  0  0  0  0  0  0
   21.2239  -18.2936  -14.6038 C   0  0  0  0  0  0  0  0  0  0  0  0
   22.3133  -18.5027  -14.0233 O   0  0  0  0  0  0  0  0  0  0  0  0
   18.8115  -22.4492  -14.0215 O   0  0  0  0  0  0  0  0  0  0  0  0
   24.5153  -15.6404  -17.4281 N   0  0  0  0  0  0  0  0  0  0  0  0
   23.8662  -16.6738  -18.1382 C   0  0  0  0  0  0  0  0  0  0  0  0
   24.3270  -17.0246  -19.2484 O   0  0  0  0  0  0  0  0  0  0  0  0
   22.6760  -17.3335  -17.5976 C   0  0  0  0  0  0  0  0  0  0  0  0
   22.2714  -16.7602  -16.2456 C   0  0  2  0  0  0  0  0  0  0  0  0
   21.1309  -17.5172  -15.7836 N   0  0  0  0  0  0  0  0  0  0  0  0
   21.9683  -15.3263  -16.2646 C   0  0  0  0  0  0  0  0  0  0  0  0
   22.4380  -14.5865  -15.3666 O   0  0  0  0  0  0  0  0  0  0  0  0
   20.8076  -12.8003  -15.7651 C   0  0  0  0  0  0  0  0  0  0  0  0
   20.7692  -13.3153  -17.1895 C   0  0  2  0  0  0  0  0  0  0  0  0
   21.1600  -14.7089  -17.2550 N   0  0  0  0  0  0  0  0  0  0  0  0
   21.6298  -12.4540  -18.0231 C   0  0  0  0  0  0  0  0  0  0  0  0
   21.3732  -11.1073  -18.1857 O   0  0  0  0  0  0  0  0  0  0  0  0
   22.6214  -12.9490  -18.6015 O   0  0  0  0  0  0  0  0  0  0  0  0
  2  1  1  6
  3  4  1  0
  3  2  1  0
  4  5  2  0
  6  7  2  0
  6  2  1  0
  8  4  1  0
  9 10  1  0
 10 12  1  0
 11 10  2  0
 13 12  1  6
 13 14  1  0
 13 15  1  0
 14  6  1  0
 15 19  1  0
 16 15  2  0
 18 17  1  1
 19 18  1  0
 20 18  1  0
 20 21  1  0
 22 20  2  0
M  END
$$$$
