DNA.pdb
     RDKit          3D

 22 21  0  0  1  0  0  0  0  0999 V2000
   15.3742  -12.0416  -13.4530 N   0  0  0  0  0  0  0  0  0  0  0  0
   14.3444  -11.0844  -13.1106 C   0  0  1  0  0  0  0  0  0  0  0  0
   13.0534  -11.7889  -12.7586 C   0  0  0  0  0  0  0  0  0  0  0  0
   12.4773  -12.5029  -13.9216 C   0  0  0  0  0  0  0  0  0  0  0  0
   12.3571  -12.0037  -15.0483 O   0  0  0  0  0  0  0  0  0  0  0  0
   14.7961  -10.3147  -11.9302 C   0  0  0  0  0  0  0  0  0  0  0  0
   15.0890  -10.9264  -10.8779 O   0  0  0  0  0  0  0  0  0  0  0  0
   12.0473  -13.8081  -13.7356 O   0  0  0  0  0  0  0  0  0  0  0  0
   17.1841   -7.5274   -8.5273 N   0  0  0  0  0  0  0  0  0  0  0  0
   17.4354   -7.2859   -9.8955 C   0  0  0  0  0  0  0  0  0  0  0  0
   18.1658   -6.3198  -10.2133 O   0  0  0  0  0  0  0  0  0  0  0  0
   16.8602   -8.1422  -10.9346 C   0  0  0  0  0  0  0  0  0  0  0  0
   15.3373   -8.1200  -10.9128 C   0  0  2  0  0  0  0  0  0  0  0  0
   14.8816   -8.9057  -12.0363 N   0  0  0  0  0  0  0  0  0  0  0  0
   14.7530   -6.7763  -10.9493 C   0  0  0  0  0  0  0  0  0  0  0  0
   14.8071   -6.1108  -12.0116 O   0  0  0  0  0  0  0  0  0  0  0  0
   12.6735   -4.5614   -8.6852 C   0  0  0  0  0  0  0  0  0  0  0  0
   13.5520   -4.8345   -9.8890 C   0  0  2  0  0  0  0  0  0  0  0  0
   14.1168   -6.1676   -9.8357 N   0  0  0  0  0  0  0  0  0  0  0  0
   14.5918   -3.7896   -9.9576 C   0  0  0  0  0  0  0  0  0  0  0  0
   14.2761   -2.4597  -10.1514 O   0  0  0  0  0  0  0  0  0  0  0  0
   15.7946   -4.1085   -9.8375 O   0  0  0  0  0  0  0  0  0  0  0  0
  2  1  1  1
  3  4  1  0
  3  2  1  0
  4  5  2  0
  6  7  2  0
  6  2  1  0
  8  4  1  0
  9 10  1  0
 10 12  1  0
 11 10  2  0
 13 12  1  6
 13 14  1  0
 13 15  1  0
 14  6  1  0
 15 19  1  0
 16 15  2  0
 18 17  1  1
 19 18  1  0
 20 18  1  0
 20 21  1  0
 22 20  2  0
M  END
$$$$
