QEP.pdb
     RDKit          3D

 26 26  0  0  1  0  0  0  0  0999 V2000
   27.1249  -28.6727  -17.6907 N   0  0  0  0  0  0  0  0  0  0  0  0
   27.6605  -28.1883  -16.4804 C   0  0  0  0  0  0  0  0  0  0  0  0
   28.4324  -28.9242  -15.8228 O   0  0  0  0  0  0  0  0  0  0  0  0
   27.3114  -26.8348  -16.0049 C   0  0  0  0  0  0  0  0  0  0  0  0
   26.3745  -26.0805  -16.8858 C   0  0  0  0  0  0  0  0  0  0  0  0
   26.9467  -24.8446  -17.4949 C   0  0  2  0  0  0  0  0  0  0  0  0
   28.3557  -24.7558  -17.0901 N   0  0  0  0  0  0  0  0  0  0  0  0
   26.2368  -23.6382  -16.9762 C   0  0  0  0  0  0  0  0  0  0  0  0
   26.7477  -22.9987  -16.0083 O   0  0  0  0  0  0  0  0  0  0  0  0
   25.0051  -23.2183  -17.5646 N   0  0  0  0  0  0  0  0  0  0  0  0
   24.2660  -22.0867  -17.0753 C   0  0  1  0  0  0  0  0  0  0  0  0
   23.6806  -21.4311  -18.3163 C   0  0  0  0  0  0  0  0  0  0  0  0
   23.0285  -20.1442  -18.0293 C   0  0  0  0  0  0  0  0  0  0  0  0
   21.8020  -19.8715  -18.8158 C   0  0  0  0  0  0  0  0  0  0  0  0
   21.8332  -19.2937  -19.9162 O   0  0  0  0  0  0  0  0  0  0  0  0
   23.2394  -22.2985  -16.0914 C   0  0  0  0  0  0  0  0  0  0  0  0
   22.3053  -23.1500  -16.3363 O   0  0  0  0  0  0  0  0  0  0  0  0
   20.5382  -20.2641  -18.3354 O   0  0  0  0  0  0  0  0  0  0  0  0
   23.1110  -21.6492  -14.8011 N   0  0  0  0  0  0  0  0  0  0  0  0
   24.0503  -20.7094  -14.3012 C   0  0  0  0  0  0  0  0  0  0  0  0
   23.4926  -20.1544  -13.0228 C   0  0  0  0  0  0  0  0  0  0  0  0
   22.1147  -20.7204  -12.9031 C   0  0  0  0  0  0  0  0  0  0  0  0
   22.0483  -21.8647  -13.8696 C   0  0  1  0  0  0  0  0  0  0  0  0
   20.6872  -21.8401  -14.4776 C   0  0  0  0  0  0  0  0  0  0  0  0
   20.4056  -21.4863  -15.7792 O   0  0  0  0  0  0  0  0  0  0  0  0
   19.7292  -22.1685  -13.7334 O   0  0  0  0  0  0  0  0  0  0  0  0
  2  1  1  0
  2  4  1  0
  3  2  2  0
  5  4  1  0
  6  5  1  0
  6  7  1  1
  8  9  2  0
  8  6  1  0
 10  8  1  0
 11 10  1  0
 11 12  1  6
 13 14  1  0
 13 12  1  0
 14 15  2  0
 16 11  1  0
 16 17  2  0
 18 14  1  0
 19 16  1  0
 20 21  1  0
 20 19  1  0
 22 21  1  0
 22 23  1  0
 23 19  1  0
 23 24  1  6
 25 24  1  0
 26 24  2  0
M  END
$$$$
