QEP.pdb
     RDKit          3D

 26 26  0  0  1  0  0  0  0  0999 V2000
   14.8353  -11.8682  -12.2334 N   0  0  0  0  0  0  0  0  0  0  0  0
   15.1561  -12.5045  -13.4494 C   0  0  0  0  0  0  0  0  0  0  0  0
   14.8743  -13.7170  -13.5907 O   0  0  0  0  0  0  0  0  0  0  0  0
   15.8129  -11.7452  -14.5321 C   0  0  0  0  0  0  0  0  0  0  0  0
   16.1519  -10.3332  -14.1945 C   0  0  0  0  0  0  0  0  0  0  0  0
   16.6947   -9.5315  -15.3296 C   0  0  2  0  0  0  0  0  0  0  0  0
   17.9450  -10.1648  -15.7687 N   0  0  0  0  0  0  0  0  0  0  0  0
   17.0100   -8.1446  -14.8766 C   0  0  0  0  0  0  0  0  0  0  0  0
   16.0758   -7.4294  -14.4049 O   0  0  0  0  0  0  0  0  0  0  0  0
   18.3422   -7.6394  -14.9760 N   0  0  0  0  0  0  0  0  0  0  0  0
   18.6816   -6.2903  -14.6138 C   0  0  1  0  0  0  0  0  0  0  0  0
   20.1088   -6.3683  -14.0946 C   0  0  0  0  0  0  0  0  0  0  0  0
   20.5772   -5.0990  -13.5174 C   0  0  0  0  0  0  0  0  0  0  0  0
   21.9565   -5.1257  -12.9751 C   0  0  0  0  0  0  0  0  0  0  0  0
   22.7083   -4.1366  -13.0226 O   0  0  0  0  0  0  0  0  0  0  0  0
   18.5666   -5.2541  -15.6035 C   0  0  0  0  0  0  0  0  0  0  0  0
   19.2557   -5.3456  -16.6871 O   0  0  0  0  0  0  0  0  0  0  0  0
   22.4712   -6.2919  -12.3775 O   0  0  0  0  0  0  0  0  0  0  0  0
   17.7395   -4.0646  -15.5388 N   0  0  0  0  0  0  0  0  0  0  0  0
   16.8136   -3.8114  -14.4929 C   0  0  0  0  0  0  0  0  0  0  0  0
   16.2734   -2.4259  -14.6978 C   0  0  0  0  0  0  0  0  0  0  0  0
   17.0569   -1.8498  -15.8324 C   0  0  0  0  0  0  0  0  0  0  0  0
   17.7356   -3.0074  -16.5011 C   0  0  1  0  0  0  0  0  0  0  0  0
   19.0934   -2.5408  -16.9030 C   0  0  0  0  0  0  0  0  0  0  0  0
   20.2779   -2.9738  -16.3483 O   0  0  0  0  0  0  0  0  0  0  0  0
   19.1483   -1.6832  -17.8202 O   0  0  0  0  0  0  0  0  0  0  0  0
  2  1  1  0
  2  4  1  0
  3  2  2  0
  5  4  1  0
  6  5  1  0
  6  7  1  1
  8  9  2  0
  8  6  1  0
 10  8  1  0
 11 10  1  0
 11 12  1  6
 13 14  1  0
 13 12  1  0
 14 15  2  0
 16 11  1  0
 16 17  2  0
 18 14  1  0
 19 16  1  0
 20 21  1  0
 20 19  1  0
 22 21  1  0
 22 23  1  0
 23 19  1  0
 23 24  1  1
 25 24  1  0
 26 24  2  0
M  END
$$$$
