QEP.pdb
     RDKit          3D

 26 26  0  0  1  0  0  0  0  0999 V2000
   31.1047  -25.1009  -15.1842 N   0  0  0  0  0  0  0  0  0  0  0  0
   30.8575  -25.6571  -16.4554 C   0  0  0  0  0  0  0  0  0  0  0  0
   31.7144  -26.4197  -16.9592 O   0  0  0  0  0  0  0  0  0  0  0  0
   29.6062  -25.3401  -17.1721 C   0  0  0  0  0  0  0  0  0  0  0  0
   28.6171  -24.5447  -16.3900 C   0  0  0  0  0  0  0  0  0  0  0  0
   28.0144  -23.3963  -17.1274 C   0  0  2  0  0  0  0  0  0  0  0  0
   29.0600  -22.8095  -17.9757 N   0  0  0  0  0  0  0  0  0  0  0  0
   27.5544  -22.3510  -16.1661 C   0  0  0  0  0  0  0  0  0  0  0  0
   28.4009  -21.5232  -15.7134 O   0  0  0  0  0  0  0  0  0  0  0  0
   26.1841  -22.2909  -15.7682 N   0  0  0  0  0  0  0  0  0  0  0  0
   25.6712  -21.2381  -14.9347 C   0  0  1  0  0  0  0  0  0  0  0  0
   24.8113  -20.3880  -15.8569 C   0  0  0  0  0  0  0  0  0  0  0  0
   24.2276  -19.2204  -15.1789 C   0  0  0  0  0  0  0  0  0  0  0  0
   23.3279  -18.3917  -16.0161 C   0  0  0  0  0  0  0  0  0  0  0  0
   22.0898  -18.4869  -15.9560 O   0  0  0  0  0  0  0  0  0  0  0  0
   24.9380  -21.5848  -13.7477 C   0  0  0  0  0  0  0  0  0  0  0  0
   23.8547  -22.2712  -13.8606 O   0  0  0  0  0  0  0  0  0  0  0  0
   23.8537  -17.4523  -16.9235 O   0  0  0  0  0  0  0  0  0  0  0  0
   25.2726  -21.2470  -12.3777 N   0  0  0  0  0  0  0  0  0  0  0  0
   26.4963  -20.6349  -11.9993 C   0  0  0  0  0  0  0  0  0  0  0  0
   26.4010  -20.3080  -10.5373 C   0  0  0  0  0  0  0  0  0  0  0  0
   24.9970  -20.6316  -10.1410 C   0  0  0  0  0  0  0  0  0  0  0  0
   24.4389  -21.4840  -11.2408 C   0  0  1  0  0  0  0  0  0  0  0  0
   23.0177  -21.0744  -11.4282 C   0  0  0  0  0  0  0  0  0  0  0  0
   21.9760  -21.4184  -10.5945 O   0  0  0  0  0  0  0  0  0  0  0  0
   22.7621  -20.3606  -12.4306 O   0  0  0  0  0  0  0  0  0  0  0  0
  2  1  1  0
  2  4  1  0
  3  2  2  0
  5  4  1  0
  6  5  1  0
  6  7  1  6
  8  9  2  0
  8  6  1  0
 10  8  1  0
 11 10  1  0
 11 12  1  6
 13 14  1  0
 13 12  1  0
 14 15  2  0
 16 11  1  0
 16 17  2  0
 18 14  1  0
 19 16  1  0
 20 21  1  0
 20 19  1  0
 22 21  1  0
 22 23  1  0
 23 19  1  0
 23 24  1  6
 25 24  1  0
 26 24  2  0
M  END
$$$$
