QEP.pdb
     RDKit          3D

 26 26  0  0  1  0  0  0  0  0999 V2000
   14.8457  -25.5316    3.5979 N   0  0  0  0  0  0  0  0  0  0  0  0
   14.7126  -25.3759    2.2034 C   0  0  0  0  0  0  0  0  0  0  0  0
   14.6033  -26.3986    1.4881 O   0  0  0  0  0  0  0  0  0  0  0  0
   14.7028  -24.0255    1.6064 C   0  0  0  0  0  0  0  0  0  0  0  0
   14.9109  -22.9089    2.5721 C   0  0  0  0  0  0  0  0  0  0  0  0
   14.8684  -21.5446    1.9696 C   0  0  2  0  0  0  0  0  0  0  0  0
   15.1653  -21.6772    0.5374 N   0  0  0  0  0  0  0  0  0  0  0  0
   15.9168  -20.6774    2.5836 C   0  0  0  0  0  0  0  0  0  0  0  0
   17.0111  -20.5122    1.9655 O   0  0  0  0  0  0  0  0  0  0  0  0
   15.6841  -20.0484    3.8446 N   0  0  0  0  0  0  0  0  0  0  0  0
   16.6303  -19.1439    4.4386 C   0  0  1  0  0  0  0  0  0  0  0  0
   15.8144  -17.9234    4.8349 C   0  0  0  0  0  0  0  0  0  0  0  0
   16.6337  -16.8571    5.4310 C   0  0  0  0  0  0  0  0  0  0  0  0
   15.9019  -15.6104    5.7586 C   0  0  0  0  0  0  0  0  0  0  0  0
   15.0971  -15.5412    6.7037 O   0  0  0  0  0  0  0  0  0  0  0  0
   17.4230  -19.5964    5.5493 C   0  0  0  0  0  0  0  0  0  0  0  0
   16.8330  -20.1291    6.5621 O   0  0  0  0  0  0  0  0  0  0  0  0
   16.0966  -14.4419    4.9978 O   0  0  0  0  0  0  0  0  0  0  0  0
   18.8651  -19.5281    5.6858 N   0  0  0  0  0  0  0  0  0  0  0  0
   19.7260  -19.0497    4.6633 C   0  0  0  0  0  0  0  0  0  0  0  0
   21.1123  -18.9897    5.2359 C   0  0  0  0  0  0  0  0  0  0  0  0
   20.9654  -19.3172    6.6865 C   0  0  0  0  0  0  0  0  0  0  0  0
   19.6059  -19.9303    6.8403 C   0  0  1  0  0  0  0  0  0  0  0  0
   19.0484  -19.4309    8.1297 C   0  0  0  0  0  0  0  0  0  0  0  0
   19.4208  -19.8739    9.3801 O   0  0  0  0  0  0  0  0  0  0  0  0
   18.1685  -18.5364    8.0568 O   0  0  0  0  0  0  0  0  0  0  0  0
  2  1  1  0
  2  4  1  0
  3  2  2  0
  5  4  1  0
  6  5  1  0
  6  7  1  6
  8  9  2  0
  8  6  1  0
 10  8  1  0
 11 10  1  0
 11 12  1  1
 13 14  1  0
 13 12  1  0
 14 15  2  0
 16 11  1  0
 16 17  2  0
 18 14  1  0
 19 16  1  0
 20 21  1  0
 20 19  1  0
 22 21  1  0
 22 23  1  0
 23 19  1  0
 23 24  1  1
 25 24  1  0
 26 24  2  0
M  END
$$$$
