QEP.pdb
     RDKit          3D

 26 26  0  0  1  0  0  0  0  0999 V2000
   22.3842  -11.3579    8.0094 N   0  0  0  0  0  0  0  0  0  0  0  0
   21.8028  -10.5461    7.0147 C   0  0  0  0  0  0  0  0  0  0  0  0
   22.5522   -9.8927    6.2526 O   0  0  0  0  0  0  0  0  0  0  0  0
   20.3340  -10.4748    6.8818 C   0  0  0  0  0  0  0  0  0  0  0  0
   19.5727  -11.3076    7.8563 C   0  0  0  0  0  0  0  0  0  0  0  0
   18.2601  -11.8115    7.3573 C   0  0  2  0  0  0  0  0  0  0  0  0
   17.2201  -10.8776    7.8085 N   0  0  0  0  0  0  0  0  0  0  0  0
   17.9666  -13.1528    7.9432 C   0  0  0  0  0  0  0  0  0  0  0  0
   17.5328  -13.2176    9.1324 O   0  0  0  0  0  0  0  0  0  0  0  0
   18.1733  -14.3369    7.1719 N   0  0  0  0  0  0  0  0  0  0  0  0
   17.9296  -15.6510    7.7009 C   0  0  1  0  0  0  0  0  0  0  0  0
   17.2263  -16.4029    6.5817 C   0  0  0  0  0  0  0  0  0  0  0  0
   16.7059  -17.7102    7.0103 C   0  0  0  0  0  0  0  0  0  0  0  0
   15.9695  -18.4661    5.9693 C   0  0  0  0  0  0  0  0  0  0  0  0
   15.5770  -17.9354    4.9157 O   0  0  0  0  0  0  0  0  0  0  0  0
   19.0394  -16.4184    8.1970 C   0  0  0  0  0  0  0  0  0  0  0  0
   20.0010  -16.7170    7.3947 O   0  0  0  0  0  0  0  0  0  0  0  0
   15.6846  -19.8341    6.1410 O   0  0  0  0  0  0  0  0  0  0  0  0
   19.2266  -16.9242    9.5432 N   0  0  0  0  0  0  0  0  0  0  0  0
   18.3520  -16.6242   10.6204 C   0  0  0  0  0  0  0  0  0  0  0  0
   18.7887  -17.4494   11.7959 C   0  0  0  0  0  0  0  0  0  0  0  0
   19.8671  -18.3471   11.2818 C   0  0  0  0  0  0  0  0  0  0  0  0
   20.2978  -17.7709    9.9664 C   0  0  1  0  0  0  0  0  0  0  0  0
   20.5651  -18.9209    9.0560 C   0  0  0  0  0  0  0  0  0  0  0  0
   19.7208  -19.3558    8.0578 O   0  0  0  0  0  0  0  0  0  0  0  0
   21.6487  -19.5351    9.2236 O   0  0  0  0  0  0  0  0  0  0  0  0
  2  1  1  0
  2  4  1  0
  3  2  2  0
  5  4  1  0
  6  5  1  0
  6  7  1  1
  8  9  2  0
  8  6  1  0
 10  8  1  0
 11 10  1  0
 11 12  1  6
 13 14  1  0
 13 12  1  0
 14 15  2  0
 16 11  1  0
 16 17  2  0
 18 14  1  0
 19 16  1  0
 20 21  1  0
 20 19  1  0
 22 21  1  0
 22 23  1  0
 23 19  1  0
 23 24  1  6
 25 24  1  0
 26 24  2  0
M  END
$$$$
