QEP.pdb
     RDKit          3D

 26 26  0  0  1  0  0  0  0  0999 V2000
   18.5835  -21.6178  -11.6310 N   0  0  0  0  0  0  0  0  0  0  0  0
   18.0413  -21.5874  -12.9316 C   0  0  0  0  0  0  0  0  0  0  0  0
   16.9184  -22.1060  -13.1312 O   0  0  0  0  0  0  0  0  0  0  0  0
   18.7922  -20.9521  -14.0327 C   0  0  0  0  0  0  0  0  0  0  0  0
   20.0888  -20.3329  -13.6351 C   0  0  0  0  0  0  0  0  0  0  0  0
   21.2990  -21.1240  -14.0033 C   0  0  2  0  0  0  0  0  0  0  0  0
   21.2667  -22.3764  -13.2367 N   0  0  0  0  0  0  0  0  0  0  0  0
   22.5362  -20.3792  -13.6255 C   0  0  0  0  0  0  0  0  0  0  0  0
   22.4995  -19.6036  -12.6236 O   0  0  0  0  0  0  0  0  0  0  0  0
   23.7354  -20.5425  -14.3837 N   0  0  0  0  0  0  0  0  0  0  0  0
   25.0311  -20.6179  -13.7658 C   0  0  1  0  0  0  0  0  0  0  0  0
   24.9199  -21.7458  -12.7519 C   0  0  0  0  0  0  0  0  0  0  0  0
   25.9707  -21.6960  -11.7239 C   0  0  0  0  0  0  0  0  0  0  0  0
   25.6649  -20.8403  -10.5528 C   0  0  0  0  0  0  0  0  0  0  0  0
   26.2950  -19.7964  -10.3101 O   0  0  0  0  0  0  0  0  0  0  0  0
   26.1888  -20.8065  -14.5971 C   0  0  0  0  0  0  0  0  0  0  0  0
   26.5616  -22.0042  -14.8867 O   0  0  0  0  0  0  0  0  0  0  0  0
   24.6328  -21.1864   -9.6600 O   0  0  0  0  0  0  0  0  0  0  0  0
   27.0307  -19.7786  -15.1781 N   0  0  0  0  0  0  0  0  0  0  0  0
   27.2170  -18.4977  -14.5948 C   0  0  0  0  0  0  0  0  0  0  0  0
   28.2660  -17.7868  -15.3996 C   0  0  0  0  0  0  0  0  0  0  0  0
   28.7734  -18.7925  -16.3815 C   0  0  0  0  0  0  0  0  0  0  0  0
   27.7688  -19.9054  -16.3956 C   0  0  1  0  0  0  0  0  0  0  0  0
   28.5344  -21.1790  -16.5172 C   0  0  0  0  0  0  0  0  0  0  0  0
   28.6392  -22.1390  -15.5344 O   0  0  0  0  0  0  0  0  0  0  0  0
   29.1282  -21.3803  -17.6065 O   0  0  0  0  0  0  0  0  0  0  0  0
  2  1  1  0
  2  4  1  0
  3  2  2  0
  5  4  1  0
  6  5  1  0
  6  7  1  1
  8  9  2  0
  8  6  1  0
 10  8  1  0
 11 10  1  0
 11 12  1  1
 13 14  1  0
 13 12  1  0
 14 15  2  0
 16 11  1  0
 16 17  2  0
 18 14  1  0
 19 16  1  0
 20 21  1  0
 20 19  1  0
 22 21  1  0
 22 23  1  0
 23 19  1  0
 23 24  1  1
 25 24  1  0
 26 24  2  0
M  END
$$$$
