QEP.pdb
     RDKit          3D

 26 26  0  0  1  0  0  0  0  0999 V2000
   18.2435  -20.9279  -12.5231 N   0  0  0  0  0  0  0  0  0  0  0  0
   17.6762  -19.9089  -13.3144 C   0  0  0  0  0  0  0  0  0  0  0  0
   16.4398  -19.9175  -13.5169 O   0  0  0  0  0  0  0  0  0  0  0  0
   18.5337  -18.8536  -13.8898 C   0  0  0  0  0  0  0  0  0  0  0  0
   19.9811  -18.9642  -13.5503 C   0  0  0  0  0  0  0  0  0  0  0  0
   20.7792  -19.8129  -14.4824 C   0  0  2  0  0  0  0  0  0  0  0  0
   20.2885  -21.1922  -14.3648 N   0  0  0  0  0  0  0  0  0  0  0  0
   22.2192  -19.7965  -14.0891 C   0  0  0  0  0  0  0  0  0  0  0  0
   22.6226  -18.9017  -13.2871 O   0  0  0  0  0  0  0  0  0  0  0  0
   23.1199  -20.7743  -14.6111 N   0  0  0  0  0  0  0  0  0  0  0  0
   24.5334  -20.7324  -14.3533 C   0  0  1  0  0  0  0  0  0  0  0  0
   24.8725  -22.1032  -13.7891 C   0  0  0  0  0  0  0  0  0  0  0  0
   24.9952  -22.1036  -12.3233 C   0  0  0  0  0  0  0  0  0  0  0  0
   26.0594  -21.2258  -11.7809 C   0  0  0  0  0  0  0  0  0  0  0  0
   25.8231  -20.3295  -10.9523 O   0  0  0  0  0  0  0  0  0  0  0  0
   25.4275  -20.4004  -15.4290 C   0  0  0  0  0  0  0  0  0  0  0  0
   25.3712  -21.0805  -16.5207 O   0  0  0  0  0  0  0  0  0  0  0  0
   27.3969  -21.3796  -12.1926 O   0  0  0  0  0  0  0  0  0  0  0  0
   26.4306  -19.3533  -15.4470 N   0  0  0  0  0  0  0  0  0  0  0  0
   26.7552  -18.5613  -14.3144 C   0  0  0  0  0  0  0  0  0  0  0  0
   27.9328  -17.7080  -14.6865 C   0  0  0  0  0  0  0  0  0  0  0  0
   28.3535  -18.1688  -16.0443 C   0  0  0  0  0  0  0  0  0  0  0  0
   27.2108  -18.9756  -16.5837 C   0  0  1  0  0  0  0  0  0  0  0  0
   27.8036  -20.1236  -17.3278 C   0  0  0  0  0  0  0  0  0  0  0  0
   28.3621  -20.0509  -18.5852 O   0  0  0  0  0  0  0  0  0  0  0  0
   27.7847  -21.2409  -16.7525 O   0  0  0  0  0  0  0  0  0  0  0  0
  2  1  1  0
  2  4  1  0
  3  2  2  0
  5  4  1  0
  6  5  1  0
  6  7  1  1
  8  9  2  0
  8  6  1  0
 10  8  1  0
 11 10  1  0
 11 12  1  6
 13 14  1  0
 13 12  1  0
 14 15  2  0
 16 11  1  0
 16 17  2  0
 18 14  1  0
 19 16  1  0
 20 21  1  0
 20 19  1  0
 22 21  1  0
 22 23  1  0
 23 19  1  0
 23 24  1  1
 25 24  1  0
 26 24  2  0
M  END
$$$$
