QEP.pdb
     RDKit          3D

 26 26  0  0  1  0  0  0  0  0999 V2000
   30.3659  -25.4420  -16.1212 N   0  0  0  0  0  0  0  0  0  0  0  0
   29.9620  -25.3326  -17.4670 C   0  0  0  0  0  0  0  0  0  0  0  0
   30.2852  -26.2372  -18.2712 O   0  0  0  0  0  0  0  0  0  0  0  0
   29.1710  -24.1675  -17.9107 C   0  0  0  0  0  0  0  0  0  0  0  0
   28.8167  -23.2001  -16.8331 C   0  0  0  0  0  0  0  0  0  0  0  0
   27.6858  -23.6254  -15.9577 C   0  0  2  0  0  0  0  0  0  0  0  0
   26.6508  -24.2153  -16.8167 N   0  0  0  0  0  0  0  0  0  0  0  0
   27.0965  -22.4413  -15.2656 C   0  0  0  0  0  0  0  0  0  0  0  0
   27.8661  -21.6612  -14.6287 O   0  0  0  0  0  0  0  0  0  0  0  0
   25.6903  -22.1983  -15.3245 N   0  0  0  0  0  0  0  0  0  0  0  0
   25.0656  -21.1217  -14.6055 C   0  0  1  0  0  0  0  0  0  0  0  0
   24.2174  -20.3968  -15.6388 C   0  0  0  0  0  0  0  0  0  0  0  0
   23.5949  -19.1733  -15.1107 C   0  0  0  0  0  0  0  0  0  0  0  0
   22.6786  -18.4793  -16.0467 C   0  0  0  0  0  0  0  0  0  0  0  0
   21.6555  -17.8887  -15.6593 O   0  0  0  0  0  0  0  0  0  0  0  0
   24.2806  -21.4261  -13.4403 C   0  0  0  0  0  0  0  0  0  0  0  0
   23.1659  -22.0541  -13.5844 O   0  0  0  0  0  0  0  0  0  0  0  0
   22.9401  -18.4650  -17.4300 O   0  0  0  0  0  0  0  0  0  0  0  0
   24.5926  -21.1036  -12.0613 N   0  0  0  0  0  0  0  0  0  0  0  0
   25.8217  -20.5226  -11.6525 C   0  0  0  0  0  0  0  0  0  0  0  0
   25.7017  -20.2013  -10.1910 C   0  0  0  0  0  0  0  0  0  0  0  0
   24.2821  -20.4937   -9.8277 C   0  0  0  0  0  0  0  0  0  0  0  0
   23.7286  -21.3269  -10.9445 C   0  0  1  0  0  0  0  0  0  0  0  0
   22.3219  -20.8829  -11.1607 C   0  0  0  0  0  0  0  0  0  0  0  0
   21.2637  -21.1631  -10.3240 O   0  0  0  0  0  0  0  0  0  0  0  0
   22.0961  -20.2013  -12.1923 O   0  0  0  0  0  0  0  0  0  0  0  0
  2  1  1  0
  2  4  1  0
  3  2  2  0
  5  4  1  0
  6  5  1  0
  6  7  1  6
  8  9  2  0
  8  6  1  0
 10  8  1  0
 11 10  1  0
 11 12  1  6
 13 14  1  0
 13 12  1  0
 14 15  2  0
 16 11  1  0
 16 17  2  0
 18 14  1  0
 19 16  1  0
 20 21  1  0
 20 19  1  0
 22 21  1  0
 22 23  1  0
 23 19  1  0
 23 24  1  6
 25 24  1  0
 26 24  2  0
M  END
$$$$
