QEP.pdb
     RDKit          3D

 26 26  0  0  1  0  0  0  0  0999 V2000
   29.9349  -17.7138  -18.7240 N   0  0  0  0  0  0  0  0  0  0  0  0
   28.7144  -18.0232  -19.3572 C   0  0  0  0  0  0  0  0  0  0  0  0
   28.5932  -17.7932  -20.5828 O   0  0  0  0  0  0  0  0  0  0  0  0
   27.6041  -18.6088  -18.5799 C   0  0  0  0  0  0  0  0  0  0  0  0
   27.8611  -18.7415  -17.1173 C   0  0  0  0  0  0  0  0  0  0  0  0
   27.2843  -19.9657  -16.4892 C   0  0  2  0  0  0  0  0  0  0  0  0
   26.5441  -20.6959  -17.5265 N   0  0  0  0  0  0  0  0  0  0  0  0
   26.3236  -19.5879  -15.4110 C   0  0  0  0  0  0  0  0  0  0  0  0
   26.7347  -18.8681  -14.4520 O   0  0  0  0  0  0  0  0  0  0  0  0
   24.9676  -20.0330  -15.4657 N   0  0  0  0  0  0  0  0  0  0  0  0
   23.9993  -19.6718  -14.4666 C   0  0  1  0  0  0  0  0  0  0  0  0
   22.7557  -19.2760  -15.2471 C   0  0  0  0  0  0  0  0  0  0  0  0
   21.6910  -18.7336  -14.3893 C   0  0  0  0  0  0  0  0  0  0  0  0
   20.4052  -18.4653  -15.0763 C   0  0  0  0  0  0  0  0  0  0  0  0
   19.7956  -19.3432  -15.7116 O   0  0  0  0  0  0  0  0  0  0  0  0
   23.6645  -20.6260  -13.4448 C   0  0  0  0  0  0  0  0  0  0  0  0
   22.9188  -21.6307  -13.7482 O   0  0  0  0  0  0  0  0  0  0  0  0
   19.8203  -17.1855  -15.0322 O   0  0  0  0  0  0  0  0  0  0  0  0
   24.0739  -20.6046  -12.0538 N   0  0  0  0  0  0  0  0  0  0  0  0
   25.0822  -19.7425  -11.5482 C   0  0  0  0  0  0  0  0  0  0  0  0
   25.1060  -19.9068  -10.0562 C   0  0  0  0  0  0  0  0  0  0  0  0
   23.9522  -20.7983   -9.7289 C   0  0  0  0  0  0  0  0  0  0  0  0
   23.5368  -21.4346  -11.0213 C   0  0  1  0  0  0  0  0  0  0  0  0
   22.0478  -21.5094  -11.0088 C   0  0  0  0  0  0  0  0  0  0  0  0
   21.3030  -22.3744  -10.2372 O   0  0  0  0  0  0  0  0  0  0  0  0
   21.4353  -20.7167  -11.7678 O   0  0  0  0  0  0  0  0  0  0  0  0
  2  1  1  0
  2  4  1  0
  3  2  2  0
  5  4  1  0
  6  5  1  0
  6  7  1  6
  8  9  2  0
  8  6  1  0
 10  8  1  0
 11 10  1  0
 11 12  1  6
 13 14  1  0
 13 12  1  0
 14 15  2  0
 16 11  1  0
 16 17  2  0
 18 14  1  0
 19 16  1  0
 20 21  1  0
 20 19  1  0
 22 21  1  0
 22 23  1  0
 23 19  1  0
 23 24  1  1
 25 24  1  0
 26 24  2  0
M  END
$$$$
