QEP.pdb
     RDKit          3D

 26 26  0  0  1  0  0  0  0  0999 V2000
   17.6823  -20.5694  -15.7229 N   0  0  0  0  0  0  0  0  0  0  0  0
   18.2327  -20.6694  -17.0165 C   0  0  0  0  0  0  0  0  0  0  0  0
   18.3523  -21.8026  -17.5373 O   0  0  0  0  0  0  0  0  0  0  0  0
   18.6576  -19.4527  -17.7369 C   0  0  0  0  0  0  0  0  0  0  0  0
   18.3882  -18.1721  -17.0227 C   0  0  0  0  0  0  0  0  0  0  0  0
   19.4070  -17.1051  -17.2454 C   0  0  2  0  0  0  0  0  0  0  0  0
   20.7029  -17.6187  -16.7825 N   0  0  0  0  0  0  0  0  0  0  0  0
   19.0710  -15.8952  -16.4383 C   0  0  0  0  0  0  0  0  0  0  0  0
   19.1205  -15.9720  -15.1740 O   0  0  0  0  0  0  0  0  0  0  0  0
   18.7015  -14.6770  -17.0856 N   0  0  0  0  0  0  0  0  0  0  0  0
   18.4314  -13.4693  -16.3543 C   0  0  1  0  0  0  0  0  0  0  0  0
   19.2369  -12.3909  -17.0619 C   0  0  0  0  0  0  0  0  0  0  0  0
   19.2211  -11.1048  -16.3482 C   0  0  0  0  0  0  0  0  0  0  0  0
   20.0076  -10.0221  -16.9856 C   0  0  0  0  0  0  0  0  0  0  0  0
   21.0726   -9.6011  -16.5014 O   0  0  0  0  0  0  0  0  0  0  0  0
   17.0675  -13.0459  -16.1892 C   0  0  0  0  0  0  0  0  0  0  0  0
   16.3662  -12.7757  -17.2345 O   0  0  0  0  0  0  0  0  0  0  0  0
   19.5682   -9.4232  -18.1816 O   0  0  0  0  0  0  0  0  0  0  0  0
   16.3449  -12.8744  -14.9436 N   0  0  0  0  0  0  0  0  0  0  0  0
   16.9103  -13.1381  -13.6684 C   0  0  0  0  0  0  0  0  0  0  0  0
   15.9141  -12.6964  -12.6360 C   0  0  0  0  0  0  0  0  0  0  0  0
   14.8141  -12.0280  -13.3952 C   0  0  0  0  0  0  0  0  0  0  0  0
   14.9903  -12.4325  -14.8280 C   0  0  1  0  0  0  0  0  0  0  0  0
   14.6632  -11.2386  -15.6590 C   0  0  0  0  0  0  0  0  0  0  0  0
   15.5839  -10.4554  -16.3202 O   0  0  0  0  0  0  0  0  0  0  0  0
   13.4482  -10.9317  -15.7546 O   0  0  0  0  0  0  0  0  0  0  0  0
  2  1  1  0
  2  4  1  0
  3  2  2  0
  5  4  1  0
  6  5  1  0
  6  7  1  1
  8  9  2  0
  8  6  1  0
 10  8  1  0
 11 10  1  0
 11 12  1  6
 13 14  1  0
 13 12  1  0
 14 15  2  0
 16 11  1  0
 16 17  2  0
 18 14  1  0
 19 16  1  0
 20 21  1  0
 20 19  1  0
 22 21  1  0
 22 23  1  0
 23 19  1  0
 23 24  1  6
 25 24  1  0
 26 24  2  0
M  END
$$$$
