QEP.pdb
     RDKit          3D

 26 26  0  0  1  0  0  0  0  0999 V2000
   14.5921  -10.9683  -20.0704 N   0  0  0  0  0  0  0  0  0  0  0  0
   15.5643  -11.9874  -20.0187 C   0  0  0  0  0  0  0  0  0  0  0  0
   15.5611  -12.8723  -20.9056 O   0  0  0  0  0  0  0  0  0  0  0  0
   16.5653  -12.0020  -18.9334 C   0  0  0  0  0  0  0  0  0  0  0  0
   16.3991  -10.9311  -17.9096 C   0  0  0  0  0  0  0  0  0  0  0  0
   17.3898  -10.9722  -16.7948 C   0  0  2  0  0  0  0  0  0  0  0  0
   16.8171  -11.7873  -15.7155 N   0  0  0  0  0  0  0  0  0  0  0  0
   17.6256   -9.5971  -16.2640 C   0  0  0  0  0  0  0  0  0  0  0  0
   16.7687   -9.0906  -15.4792 O   0  0  0  0  0  0  0  0  0  0  0  0
   18.7974   -8.8714  -16.6381 N   0  0  0  0  0  0  0  0  0  0  0  0
   19.0796   -7.5549  -16.1347 C   0  0  1  0  0  0  0  0  0  0  0  0
   20.0704   -7.7697  -15.0013 C   0  0  0  0  0  0  0  0  0  0  0  0
   19.4217   -8.1680  -13.7427 C   0  0  0  0  0  0  0  0  0  0  0  0
   20.3485   -8.4853  -12.6303 C   0  0  0  0  0  0  0  0  0  0  0  0
   21.5800   -8.5491  -12.7893 O   0  0  0  0  0  0  0  0  0  0  0  0
   19.5689   -6.5529  -17.0421 C   0  0  0  0  0  0  0  0  0  0  0  0
   20.6349   -6.7933  -17.7228 O   0  0  0  0  0  0  0  0  0  0  0  0
   19.8578   -8.7295  -11.3335 O   0  0  0  0  0  0  0  0  0  0  0  0
   18.9942   -5.2473  -17.3029 N   0  0  0  0  0  0  0  0  0  0  0  0
   17.7599   -4.8117  -16.7532 C   0  0  0  0  0  0  0  0  0  0  0  0
   17.5874   -3.3679  -17.1263 C   0  0  0  0  0  0  0  0  0  0  0  0
   18.8644   -2.9663  -17.7904 C   0  0  0  0  0  0  0  0  0  0  0  0
   19.5734   -4.2410  -18.1369 C   0  0  1  0  0  0  0  0  0  0  0  0
   21.0263   -4.0083  -17.8960 C   0  0  0  0  0  0  0  0  0  0  0  0
   21.8319   -3.1781  -18.6444 O   0  0  0  0  0  0  0  0  0  0  0  0
   21.5458   -4.6255  -16.9323 O   0  0  0  0  0  0  0  0  0  0  0  0
  2  1  1  0
  2  4  1  0
  3  2  2  0
  5  4  1  0
  6  5  1  0
  6  7  1  1
  8  9  2  0
  8  6  1  0
 10  8  1  0
 11 10  1  0
 11 12  1  1
 13 14  1  0
 13 12  1  0
 14 15  2  0
 16 11  1  0
 16 17  2  0
 18 14  1  0
 19 16  1  0
 20 21  1  0
 20 19  1  0
 22 21  1  0
 22 23  1  0
 23 19  1  0
 23 24  1  1
 25 24  1  0
 26 24  2  0
M  END
$$$$
