QEP.pdb
     RDKit          3D

 26 26  0  0  1  0  0  0  0  0999 V2000
   14.5011  -12.0750  -14.8945 N   0  0  0  0  0  0  0  0  0  0  0  0
   15.1605  -13.2826  -14.5890 C   0  0  0  0  0  0  0  0  0  0  0  0
   14.7802  -13.9453  -13.5961 O   0  0  0  0  0  0  0  0  0  0  0  0
   16.2791  -13.7497  -15.4319 C   0  0  0  0  0  0  0  0  0  0  0  0
   16.5155  -12.9467  -16.6656 C   0  0  0  0  0  0  0  0  0  0  0  0
   17.8436  -13.1649  -17.3093 C   0  0  2  0  0  0  0  0  0  0  0  0
   18.4039  -14.4111  -16.7705 N   0  0  0  0  0  0  0  0  0  0  0  0
   18.7733  -12.0494  -16.9637 C   0  0  0  0  0  0  0  0  0  0  0  0
   19.6027  -12.2164  -16.0198 O   0  0  0  0  0  0  0  0  0  0  0  0
   18.7234  -10.8193  -17.6877 N   0  0  0  0  0  0  0  0  0  0  0  0
   19.6042   -9.7208  -17.3982 C   0  0  1  0  0  0  0  0  0  0  0  0
   19.6071   -8.8738  -18.6612 C   0  0  0  0  0  0  0  0  0  0  0  0
   20.5758   -7.7683  -18.6059 C   0  0  0  0  0  0  0  0  0  0  0  0
   20.6263   -6.9151  -19.8169 C   0  0  0  0  0  0  0  0  0  0  0  0
   21.5055   -7.0466  -20.6860 O   0  0  0  0  0  0  0  0  0  0  0  0
   19.3389   -8.9004  -16.2479 C   0  0  0  0  0  0  0  0  0  0  0  0
   18.1761   -8.3631  -16.1183 O   0  0  0  0  0  0  0  0  0  0  0  0
   19.6639   -5.9094  -20.0280 O   0  0  0  0  0  0  0  0  0  0  0  0
   20.2502   -8.5832  -15.1653 N   0  0  0  0  0  0  0  0  0  0  0  0
   21.5721   -9.0938  -15.0804 C   0  0  0  0  0  0  0  0  0  0  0  0
   22.2393   -8.4199  -13.9167 C   0  0  0  0  0  0  0  0  0  0  0  0
   21.2714   -7.3869  -13.4381 C   0  0  0  0  0  0  0  0  0  0  0  0
   19.9497   -7.7366  -14.0534 C   0  0  1  0  0  0  0  0  0  0  0  0
   19.2901   -6.4517  -14.4232 C   0  0  0  0  0  0  0  0  0  0  0  0
   19.5063   -5.7565  -15.5930 O   0  0  0  0  0  0  0  0  0  0  0  0
   18.4759   -5.9744  -13.5932 O   0  0  0  0  0  0  0  0  0  0  0  0
  2  1  1  0
  2  4  1  0
  3  2  2  0
  5  4  1  0
  6  5  1  0
  6  7  1  1
  8  9  2  0
  8  6  1  0
 10  8  1  0
 11 10  1  0
 11 12  1  6
 13 14  1  0
 13 12  1  0
 14 15  2  0
 16 11  1  0
 16 17  2  0
 18 14  1  0
 19 16  1  0
 20 21  1  0
 20 19  1  0
 22 21  1  0
 22 23  1  0
 23 19  1  0
 23 24  1  6
 25 24  1  0
 26 24  2  0
M  END
$$$$
