QEP.pdb
     RDKit          3D

 26 26  0  0  1  0  0  0  0  0999 V2000
   15.4594  -14.1873  -15.3959 N   0  0  0  0  0  0  0  0  0  0  0  0
   16.4185  -13.4253  -14.6989 C   0  0  0  0  0  0  0  0  0  0  0  0
   16.0315  -12.6344  -13.8076 O   0  0  0  0  0  0  0  0  0  0  0  0
   17.8525  -13.5651  -15.0213 C   0  0  0  0  0  0  0  0  0  0  0  0
   18.5668  -12.2827  -15.2825 C   0  0  0  0  0  0  0  0  0  0  0  0
   18.3825  -11.7327  -16.6571 C   0  0  2  0  0  0  0  0  0  0  0  0
   19.0375  -12.6499  -17.5988 N   0  0  0  0  0  0  0  0  0  0  0  0
   19.0432  -10.3990  -16.7712 C   0  0  0  0  0  0  0  0  0  0  0  0
   20.1706  -10.3236  -17.3456 O   0  0  0  0  0  0  0  0  0  0  0  0
   18.4105   -9.2337  -16.2406 N   0  0  0  0  0  0  0  0  0  0  0  0
   18.9431   -7.9130  -16.4372 C   0  0  1  0  0  0  0  0  0  0  0  0
   17.7256   -7.0173  -16.6039 C   0  0  0  0  0  0  0  0  0  0  0  0
   18.0785   -5.6307  -16.9450 C   0  0  0  0  0  0  0  0  0  0  0  0
   16.9272   -4.7139  -17.1216 C   0  0  0  0  0  0  0  0  0  0  0  0
   17.0138   -3.6557  -17.7684 O   0  0  0  0  0  0  0  0  0  0  0  0
   19.8327   -7.3671  -15.4487 C   0  0  0  0  0  0  0  0  0  0  0  0
   19.4283   -7.2687  -14.2303 O   0  0  0  0  0  0  0  0  0  0  0  0
   15.6749   -5.0153  -16.5534 O   0  0  0  0  0  0  0  0  0  0  0  0
   21.1869   -6.8900  -15.6525 N   0  0  0  0  0  0  0  0  0  0  0  0
   21.8817   -7.0101  -16.8847 C   0  0  0  0  0  0  0  0  0  0  0  0
   23.1785   -6.2676  -16.7426 C   0  0  0  0  0  0  0  0  0  0  0  0
   23.1141   -5.5918  -15.4114 C   0  0  0  0  0  0  0  0  0  0  0  0
   21.9965   -6.2526  -14.6616 C   0  0  1  0  0  0  0  0  0  0  0  0
   21.2964   -5.1825  -13.8951 C   0  0  0  0  0  0  0  0  0  0  0  0
   21.7260   -4.6534  -12.6977 O   0  0  0  0  0  0  0  0  0  0  0  0
   20.2302   -4.7376  -14.3899 O   0  0  0  0  0  0  0  0  0  0  0  0
  2  1  1  0
  2  4  1  0
  3  2  2  0
  5  4  1  0
  6  5  1  0
  6  7  1  6
  8  9  2  0
  8  6  1  0
 10  8  1  0
 11 10  1  0
 11 12  1  1
 13 14  1  0
 13 12  1  0
 14 15  2  0
 16 11  1  0
 16 17  2  0
 18 14  1  0
 19 16  1  0
 20 21  1  0
 20 19  1  0
 22 21  1  0
 22 23  1  0
 23 19  1  0
 23 24  1  6
 25 24  1  0
 26 24  2  0
M  END
$$$$
