QEP.pdb
     RDKit          3D

 26 26  0  0  1  0  0  0  0  0999 V2000
   30.3766  -22.9200  -17.2299 N   0  0  0  0  0  0  0  0  0  0  0  0
   30.2450  -22.1309  -18.3903 C   0  0  0  0  0  0  0  0  0  0  0  0
   30.7911  -22.5171  -19.4497 O   0  0  0  0  0  0  0  0  0  0  0  0
   29.4740  -20.8725  -18.3469 C   0  0  0  0  0  0  0  0  0  0  0  0
   28.9471  -20.5033  -17.0021 C   0  0  0  0  0  0  0  0  0  0  0  0
   27.8532  -21.3825  -16.4958 C   0  0  2  0  0  0  0  0  0  0  0  0
   26.9952  -21.7326  -17.6353 N   0  0  0  0  0  0  0  0  0  0  0  0
   27.0224  -20.6480  -15.4965 C   0  0  0  0  0  0  0  0  0  0  0  0
   27.5970  -20.1081  -14.5040 O   0  0  0  0  0  0  0  0  0  0  0  0
   25.6067  -20.5592  -15.6623 N   0  0  0  0  0  0  0  0  0  0  0  0
   24.7545  -19.9479  -14.6792 C   0  0  1  0  0  0  0  0  0  0  0  0
   23.6391  -19.2911  -15.4774 C   0  0  0  0  0  0  0  0  0  0  0  0
   22.7551  -18.4593  -14.6466 C   0  0  0  0  0  0  0  0  0  0  0  0
   21.5718  -17.9054  -15.3467 C   0  0  0  0  0  0  0  0  0  0  0  0
   20.7533  -18.6279  -15.9416 O   0  0  0  0  0  0  0  0  0  0  0  0
   24.2044  -20.7637  -13.6311 C   0  0  0  0  0  0  0  0  0  0  0  0
   23.3278  -21.6580  -13.9301 O   0  0  0  0  0  0  0  0  0  0  0  0
   21.3301  -16.5185  -15.3623 O   0  0  0  0  0  0  0  0  0  0  0  0
   24.5206  -20.7091  -12.2169 N   0  0  0  0  0  0  0  0  0  0  0  0
   25.5402  -19.8834  -11.6745 C   0  0  0  0  0  0  0  0  0  0  0  0
   25.4550  -19.9891  -10.1795 C   0  0  0  0  0  0  0  0  0  0  0  0
   24.2332  -20.8030   -9.9004 C   0  0  0  0  0  0  0  0  0  0  0  0
   23.8695  -21.4669  -11.1945 C   0  0  1  0  0  0  0  0  0  0  0  0
   22.3812  -21.4603  -11.2820 C   0  0  0  0  0  0  0  0  0  0  0  0
   21.5394  -22.2672  -10.5479 O   0  0  0  0  0  0  0  0  0  0  0  0
   21.8658  -20.6517  -12.0945 O   0  0  0  0  0  0  0  0  0  0  0  0
  2  1  1  0
  2  4  1  0
  3  2  2  0
  5  4  1  0
  6  5  1  0
  6  7  1  6
  8  9  2  0
  8  6  1  0
 10  8  1  0
 11 10  1  0
 11 12  1  6
 13 14  1  0
 13 12  1  0
 14 15  2  0
 16 11  1  0
 16 17  2  0
 18 14  1  0
 19 16  1  0
 20 21  1  0
 20 19  1  0
 22 21  1  0
 22 23  1  0
 23 19  1  0
 23 24  1  6
 25 24  1  0
 26 24  2  0
M  END
$$$$
