QEP.pdb
     RDKit          3D

 26 26  0  0  1  0  0  0  0  0999 V2000
   13.4453  -11.8937  -10.4404 N   0  0  0  0  0  0  0  0  0  0  0  0
   12.6881  -11.3766   -9.3699 C   0  0  0  0  0  0  0  0  0  0  0  0
   11.5588  -11.8659   -9.1357 O   0  0  0  0  0  0  0  0  0  0  0  0
   13.2266  -10.2771   -8.5448 C   0  0  0  0  0  0  0  0  0  0  0  0
   14.6026   -9.8330   -8.9083 C   0  0  0  0  0  0  0  0  0  0  0  0
   14.6609   -8.7638   -9.9472 C   0  0  2  0  0  0  0  0  0  0  0  0
   14.4722   -9.4004  -11.2573 N   0  0  0  0  0  0  0  0  0  0  0  0
   16.0021   -8.1085   -9.9374 C   0  0  0  0  0  0  0  0  0  0  0  0
   16.3913   -7.5308   -8.8785 O   0  0  0  0  0  0  0  0  0  0  0  0
   16.8261   -8.1360  -11.1037 N   0  0  0  0  0  0  0  0  0  0  0  0
   17.8305   -7.1398  -11.3587 C   0  0  1  0  0  0  0  0  0  0  0  0
   18.8219   -7.8102  -12.2970 C   0  0  0  0  0  0  0  0  0  0  0  0
   20.0096   -6.9831  -12.5594 C   0  0  0  0  0  0  0  0  0  0  0  0
   21.0084   -7.5884  -13.4721 C   0  0  0  0  0  0  0  0  0  0  0  0
   21.5676   -6.9368  -14.3712 O   0  0  0  0  0  0  0  0  0  0  0  0
   17.4279   -5.8646  -11.8864 C   0  0  0  0  0  0  0  0  0  0  0  0
   17.1823   -5.7588  -13.1457 O   0  0  0  0  0  0  0  0  0  0  0  0
   21.3641   -8.9452  -13.3500 O   0  0  0  0  0  0  0  0  0  0  0  0
   17.2550   -4.6251  -11.1538 N   0  0  0  0  0  0  0  0  0  0  0  0
   17.4877   -4.5017   -9.7588 C   0  0  0  0  0  0  0  0  0  0  0  0
   17.3533   -3.0482   -9.4084 C   0  0  0  0  0  0  0  0  0  0  0  0
   17.1802   -2.3329  -10.7090 C   0  0  0  0  0  0  0  0  0  0  0  0
   16.8289   -3.3834  -11.7194 C   0  0  1  0  0  0  0  0  0  0  0  0
   17.5251   -3.0169  -12.9858 C   0  0  0  0  0  0  0  0  0  0  0  0
   17.2006   -1.9450  -13.7884 O   0  0  0  0  0  0  0  0  0  0  0  0
   18.4807   -3.7528  -13.3394 O   0  0  0  0  0  0  0  0  0  0  0  0
  2  1  1  0
  2  4  1  0
  3  2  2  0
  5  4  1  0
  6  5  1  0
  6  7  1  6
  8  9  2  0
  8  6  1  0
 10  8  1  0
 11 10  1  0
 11 12  1  6
 13 14  1  0
 13 12  1  0
 14 15  2  0
 16 11  1  0
 16 17  2  0
 18 14  1  0
 19 16  1  0
 20 21  1  0
 20 19  1  0
 22 21  1  0
 22 23  1  0
 23 19  1  0
 23 24  1  6
 25 24  1  0
 26 24  2  0
M  END
$$$$
