SET.pdb
     RDKit          3D

 23 22  0  0  1  0  0  0  0  0999 V2000
   15.6357  -11.0512  -13.9233 O   0  0  0  0  0  0  0  0  0  0  0  0
   16.9180  -10.5857  -14.2341 C   0  0  0  0  0  0  0  0  0  0  0  0
   17.2379  -10.9258  -15.6700 C   0  0  2  0  0  0  0  0  0  0  0  0
   17.3476  -12.3664  -15.7642 N   0  0  0  0  0  0  0  0  0  0  0  0
   18.4763  -10.3057  -16.1470 C   0  0  0  0  0  0  0  0  0  0  0  0
   19.2665  -10.9603  -16.8713 O   0  0  0  0  0  0  0  0  0  0  0  0
   18.8310   -8.9676  -15.8197 N   0  0  0  0  0  0  0  0  0  0  0  0
   19.9867   -8.3003  -16.3740 C   0  0  1  0  0  0  0  0  0  0  0  0
   19.9572   -8.3650  -17.8869 C   0  0  0  0  0  0  0  0  0  0  0  0
   21.1277   -7.6935  -18.5187 C   0  0  0  0  0  0  0  0  0  0  0  0
   21.0529   -7.8419  -19.9865 C   0  0  0  0  0  0  0  0  0  0  0  0
   21.6809   -8.7724  -20.5387 O   0  0  0  0  0  0  0  0  0  0  0  0
   20.0880   -6.8941  -15.9169 C   0  0  0  0  0  0  0  0  0  0  0  0
   19.2334   -6.0242  -16.2221 O   0  0  0  0  0  0  0  0  0  0  0  0
   20.3148   -6.9956  -20.8015 O   0  0  0  0  0  0  0  0  0  0  0  0
   20.2725   -5.7321  -12.3709 C   0  0  0  0  0  0  0  0  0  0  0  0
   21.4628   -5.0761  -13.0464 C   0  0  1  0  0  0  0  0  0  0  0  0
   22.5749   -5.8655  -12.6671 O   0  0  0  0  0  0  0  0  0  0  0  0
   21.2251   -5.1272  -14.5193 C   0  0  2  0  0  0  0  0  0  0  0  0
   21.1525   -6.4143  -15.1004 N   0  0  0  0  0  0  0  0  0  0  0  0
   22.2710   -4.3343  -15.1857 C   0  0  0  0  0  0  0  0  0  0  0  0
   22.4378   -2.9924  -14.9278 O   0  0  0  0  0  0  0  0  0  0  0  0
   23.0280   -4.8843  -16.0048 O   0  0  0  0  0  0  0  0  0  0  0  0
  2  3  1  0
  2  1  1  0
  3  5  1  0
  3  4  1  1
  5  6  2  0
  7  8  1  0
  7  5  1  0
  8 13  1  0
  8  9  1  6
 10  9  1  0
 11 10  1  0
 12 11  2  0
 13 20  1  0
 13 14  2  0
 15 11  1  0
 17 18  1  0
 17 16  1  1
 19 17  1  0
 19 20  1  6
 21 22  1  0
 21 19  1  0
 23 21  2  0
M  END
$$$$
