SET.pdb
     RDKit          3D

 23 22  0  0  1  0  0  0  0  0999 V2000
   17.5540  -11.6694  -18.4227 O   0  0  0  0  0  0  0  0  0  0  0  0
   17.2646  -10.7317  -17.4254 C   0  0  0  0  0  0  0  0  0  0  0  0
   18.5338  -10.3817  -16.6861 C   0  0  2  0  0  0  0  0  0  0  0  0
   18.8887  -11.5193  -15.8639 N   0  0  0  0  0  0  0  0  0  0  0  0
   18.4010   -9.1893  -15.8457 C   0  0  0  0  0  0  0  0  0  0  0  0
   17.5194   -9.1474  -14.9520 O   0  0  0  0  0  0  0  0  0  0  0  0
   19.2434   -8.0535  -15.9998 N   0  0  0  0  0  0  0  0  0  0  0  0
   19.1821   -6.9025  -15.1283 C   0  0  1  0  0  0  0  0  0  0  0  0
   20.5731   -6.5087  -14.6769 C   0  0  0  0  0  0  0  0  0  0  0  0
   20.5706   -5.3640  -13.7230 C   0  0  0  0  0  0  0  0  0  0  0  0
   21.9600   -5.0118  -13.3660 C   0  0  0  0  0  0  0  0  0  0  0  0
   22.2280   -3.8320  -13.0475 O   0  0  0  0  0  0  0  0  0  0  0  0
   18.5014   -5.7543  -15.7725 C   0  0  0  0  0  0  0  0  0  0  0  0
   18.7438   -5.4060  -16.9558 O   0  0  0  0  0  0  0  0  0  0  0  0
   23.0020   -5.9281  -13.3633 O   0  0  0  0  0  0  0  0  0  0  0  0
   14.7218   -2.8087  -16.3525 C   0  0  0  0  0  0  0  0  0  0  0  0
   15.3004   -4.0093  -15.6263 C   0  0  1  0  0  0  0  0  0  0  0  0
   14.8177   -5.1319  -16.3408 O   0  0  0  0  0  0  0  0  0  0  0  0
   16.7875   -3.9034  -15.7019 C   0  0  2  0  0  0  0  0  0  0  0  0
   17.5239   -4.9560  -15.1110 N   0  0  0  0  0  0  0  0  0  0  0  0
   17.1914   -2.6164  -15.1126 C   0  0  0  0  0  0  0  0  0  0  0  0
   17.7973   -2.5428  -13.8787 O   0  0  0  0  0  0  0  0  0  0  0  0
   16.9830   -1.5631  -15.7400 O   0  0  0  0  0  0  0  0  0  0  0  0
  2  3  1  0
  2  1  1  0
  3  5  1  0
  3  4  1  1
  5  6  2  0
  7  8  1  0
  7  5  1  0
  8 13  1  0
  8  9  1  6
 10  9  1  0
 11 10  1  0
 12 11  2  0
 13 20  1  0
 13 14  2  0
 15 11  1  0
 17 18  1  0
 17 16  1  6
 19 17  1  0
 19 20  1  1
 21 22  1  0
 21 19  1  0
 23 21  2  0
M  END
$$$$
