SET.pdb
     RDKit          3D

 23 22  0  0  1  0  0  0  0  0999 V2000
   16.8977  -12.0835  -18.0930 O   0  0  0  0  0  0  0  0  0  0  0  0
   16.7397  -11.1254  -17.0856 C   0  0  0  0  0  0  0  0  0  0  0  0
   17.9388  -11.1630  -16.1687 C   0  0  2  0  0  0  0  0  0  0  0  0
   17.7866  -12.3088  -15.2968 N   0  0  0  0  0  0  0  0  0  0  0  0
   18.0870   -9.9483  -15.3637 C   0  0  0  0  0  0  0  0  0  0  0  0
   17.4673   -9.8371  -14.2768 O   0  0  0  0  0  0  0  0  0  0  0  0
   18.9185   -8.8667  -15.7664 N   0  0  0  0  0  0  0  0  0  0  0  0
   19.0127   -7.6277  -15.0288 C   0  0  1  0  0  0  0  0  0  0  0  0
   20.4639   -7.2636  -14.7935 C   0  0  0  0  0  0  0  0  0  0  0  0
   20.6264   -6.0052  -14.0124 C   0  0  0  0  0  0  0  0  0  0  0  0
   22.0623   -5.7436  -13.7850 C   0  0  0  0  0  0  0  0  0  0  0  0
   22.4061   -4.6923  -13.2003 O   0  0  0  0  0  0  0  0  0  0  0  0
   18.3042   -6.5197  -15.7122 C   0  0  0  0  0  0  0  0  0  0  0  0
   18.5159   -6.2270  -16.9163 O   0  0  0  0  0  0  0  0  0  0  0  0
   23.0682   -6.6099  -14.1887 O   0  0  0  0  0  0  0  0  0  0  0  0
   14.7742   -5.8308  -16.5692 C   0  0  0  0  0  0  0  0  0  0  0  0
   15.1693   -4.6709  -15.6736 C   0  0  1  0  0  0  0  0  0  0  0  0
   14.6463   -5.0018  -14.4005 O   0  0  0  0  0  0  0  0  0  0  0  0
   16.6606   -4.6056  -15.6588 C   0  0  2  0  0  0  0  0  0  0  0  0
   17.3324   -5.7007  -15.0681 N   0  0  0  0  0  0  0  0  0  0  0  0
   17.0634   -3.3540  -14.9969 C   0  0  0  0  0  0  0  0  0  0  0  0
   16.6479   -2.1249  -15.4568 O   0  0  0  0  0  0  0  0  0  0  0  0
   17.7987   -3.4002  -13.9950 O   0  0  0  0  0  0  0  0  0  0  0  0
  2  3  1  0
  2  1  1  0
  3  5  1  0
  3  4  1  1
  5  6  2  0
  7  8  1  0
  7  5  1  0
  8 13  1  0
  8  9  1  6
 10  9  1  0
 11 10  1  0
 12 11  2  0
 13 20  1  0
 13 14  2  0
 15 11  1  0
 17 18  1  0
 17 16  1  6
 19 17  1  0
 19 20  1  1
 21 22  1  0
 21 19  1  0
 23 21  2  0
M  END
$$$$
