SET.pdb
     RDKit          3D

 23 22  0  0  1  0  0  0  0  0999 V2000
   23.5041  -12.3580  -19.9831 O   0  0  0  0  0  0  0  0  0  0  0  0
   22.5103  -11.4073  -19.7259 C   0  0  0  0  0  0  0  0  0  0  0  0
   22.0394  -11.5514  -18.2985 C   0  0  2  0  0  0  0  0  0  0  0  0
   21.2895  -12.7865  -18.2080 N   0  0  0  0  0  0  0  0  0  0  0  0
   21.2037  -10.4343  -17.8519 C   0  0  0  0  0  0  0  0  0  0  0  0
   20.0556  -10.2775  -18.3367 O   0  0  0  0  0  0  0  0  0  0  0  0
   21.6435   -9.5001  -16.8735 N   0  0  0  0  0  0  0  0  0  0  0  0
   20.8119   -8.4273  -16.3780 C   0  0  1  0  0  0  0  0  0  0  0  0
   19.6079   -8.9873  -15.6496 C   0  0  0  0  0  0  0  0  0  0  0  0
   18.7110   -7.9263  -15.1112 C   0  0  0  0  0  0  0  0  0  0  0  0
   17.5274   -8.5479  -14.4830 C   0  0  0  0  0  0  0  0  0  0  0  0
   16.3992   -8.3641  -14.9915 O   0  0  0  0  0  0  0  0  0  0  0  0
   21.5654   -7.5016  -15.4993 C   0  0  0  0  0  0  0  0  0  0  0  0
   22.1193   -7.8833  -14.4373 O   0  0  0  0  0  0  0  0  0  0  0  0
   17.5952   -9.3365  -13.3433 O   0  0  0  0  0  0  0  0  0  0  0  0
   23.7672   -4.4196  -16.9676 C   0  0  0  0  0  0  0  0  0  0  0  0
   22.9675   -3.9789  -15.7553 C   0  0  1  0  0  0  0  0  0  0  0  0
   21.8722   -3.2567  -16.2869 O   0  0  0  0  0  0  0  0  0  0  0  0
   22.5224   -5.2120  -15.0411 C   0  0  2  0  0  0  0  0  0  0  0  0
   21.7239   -6.1141  -15.7816 N   0  0  0  0  0  0  0  0  0  0  0  0
   21.8164   -4.8081  -13.8143 C   0  0  0  0  0  0  0  0  0  0  0  0
   22.4243   -4.0381  -12.8486 O   0  0  0  0  0  0  0  0  0  0  0  0
   20.6392   -5.1682  -13.6383 O   0  0  0  0  0  0  0  0  0  0  0  0
  2  3  1  0
  2  1  1  0
  3  5  1  0
  3  4  1  6
  5  6  2  0
  7  8  1  0
  7  5  1  0
  8 13  1  0
  8  9  1  1
 10  9  1  0
 11 10  1  0
 12 11  2  0
 13 20  1  0
 13 14  2  0
 15 11  1  0
 17 18  1  0
 17 16  1  6
 19 17  1  0
 19 20  1  6
 21 22  1  0
 21 19  1  0
 23 21  2  0
M  END
$$$$
