SET.pdb
     RDKit          3D

 23 22  0  0  1  0  0  0  0  0999 V2000
   24.9928  -13.6487  -15.4485 O   0  0  0  0  0  0  0  0  0  0  0  0
   24.6088  -12.3540  -15.8147 C   0  0  0  0  0  0  0  0  0  0  0  0
   23.3303  -12.4204  -16.6153 C   0  0  2  0  0  0  0  0  0  0  0  0
   23.6584  -12.9568  -17.9195 N   0  0  0  0  0  0  0  0  0  0  0  0
   22.6783  -11.1177  -16.7688 C   0  0  0  0  0  0  0  0  0  0  0  0
   22.8734  -10.4375  -17.8065 O   0  0  0  0  0  0  0  0  0  0  0  0
   21.8162  -10.5778  -15.7744 N   0  0  0  0  0  0  0  0  0  0  0  0
   21.1212   -9.3206  -15.9318 C   0  0  1  0  0  0  0  0  0  0  0  0
   19.6695   -9.4667  -15.5256 C   0  0  0  0  0  0  0  0  0  0  0  0
   18.8974   -8.2004  -15.6688 C   0  0  0  0  0  0  0  0  0  0  0  0
   17.4865   -8.4343  -15.2990 C   0  0  0  0  0  0  0  0  0  0  0  0
   16.6709   -7.4887  -15.3745 O   0  0  0  0  0  0  0  0  0  0  0  0
   21.7673   -8.2295  -15.1646 C   0  0  0  0  0  0  0  0  0  0  0  0
   22.2108   -8.3969  -14.0003 O   0  0  0  0  0  0  0  0  0  0  0  0
   17.0055   -9.6616  -14.8658 O   0  0  0  0  0  0  0  0  0  0  0  0
   24.4875   -5.6761  -16.5289 C   0  0  0  0  0  0  0  0  0  0  0  0
   23.3589   -4.8989  -15.8764 C   0  0  1  0  0  0  0  0  0  0  0  0
   22.5724   -4.4282  -16.9552 O   0  0  0  0  0  0  0  0  0  0  0  0
   22.6002   -5.8522  -15.0137 C   0  0  2  0  0  0  0  0  0  0  0  0
   21.9386   -6.9112  -15.6773 N   0  0  0  0  0  0  0  0  0  0  0  0
   21.6358   -5.0836  -14.2101 C   0  0  0  0  0  0  0  0  0  0  0  0
   20.2778   -5.2742  -14.3304 O   0  0  0  0  0  0  0  0  0  0  0  0
   22.0512   -4.2377  -13.3986 O   0  0  0  0  0  0  0  0  0  0  0  0
  2  3  1  0
  2  1  1  0
  3  5  1  0
  3  4  1  6
  5  6  2  0
  7  8  1  0
  7  5  1  0
  8 13  1  0
  8  9  1  1
 10  9  1  0
 11 10  1  0
 12 11  2  0
 13 20  1  0
 13 14  2  0
 15 11  1  0
 17 18  1  0
 17 16  1  6
 19 17  1  0
 19 20  1  6
 21 22  1  0
 21 19  1  0
 23 21  2  0
M  END
$$$$
