SET.pdb
     RDKit          3D

 23 22  0  0  1  0  0  0  0  0999 V2000
   27.5414  -20.9641  -15.8442 O   0  0  0  0  0  0  0  0  0  0  0  0
   27.5139  -20.2026  -14.6708 C   0  0  0  0  0  0  0  0  0  0  0  0
   26.3972  -20.6954  -13.7820 C   0  0  2  0  0  0  0  0  0  0  0  0
   26.5374  -22.1312  -13.6593 N   0  0  0  0  0  0  0  0  0  0  0  0
   25.0649  -20.3734  -14.2985 C   0  0  0  0  0  0  0  0  0  0  0  0
   24.7218  -19.1738  -14.4434 O   0  0  0  0  0  0  0  0  0  0  0  0
   24.1228  -21.3795  -14.6505 N   0  0  0  0  0  0  0  0  0  0  0  0
   22.8246  -21.0823  -15.2114 C   0  0  1  0  0  0  0  0  0  0  0  0
   22.6809  -21.7237  -16.5758 C   0  0  0  0  0  0  0  0  0  0  0  0
   23.8196  -21.4129  -17.4852 C   0  0  0  0  0  0  0  0  0  0  0  0
   23.6263  -22.1026  -18.7770 C   0  0  0  0  0  0  0  0  0  0  0  0
   24.5586  -22.7923  -19.2463 O   0  0  0  0  0  0  0  0  0  0  0  0
   21.7227  -21.5112  -14.3179 C   0  0  0  0  0  0  0  0  0  0  0  0
   21.7379  -22.6124  -13.7117 O   0  0  0  0  0  0  0  0  0  0  0  0
   22.4518  -22.0289  -19.5122 O   0  0  0  0  0  0  0  0  0  0  0  0
   20.5971  -19.4830  -11.4123 C   0  0  0  0  0  0  0  0  0  0  0  0
   20.0928  -20.8940  -11.6536 C   0  0  1  0  0  0  0  0  0  0  0  0
   19.0385  -21.0656  -10.7247 O   0  0  0  0  0  0  0  0  0  0  0  0
   19.6042  -20.9591  -13.0627 C   0  0  2  0  0  0  0  0  0  0  0  0
   20.5641  -20.7189  -14.0730 N   0  0  0  0  0  0  0  0  0  0  0  0
   18.4788  -20.0214  -13.2072 C   0  0  0  0  0  0  0  0  0  0  0  0
   17.3120  -20.1743  -12.4928 O   0  0  0  0  0  0  0  0  0  0  0  0
   18.5771  -19.0630  -13.9936 O   0  0  0  0  0  0  0  0  0  0  0  0
  2  3  1  0
  2  1  1  0
  3  5  1  0
  3  4  1  6
  5  6  2  0
  7  8  1  0
  7  5  1  0
  8 13  1  0
  8  9  1  6
 10  9  1  0
 11 10  1  0
 12 11  2  0
 13 20  1  0
 13 14  2  0
 15 11  1  0
 17 18  1  0
 17 16  1  1
 19 17  1  0
 19 20  1  6
 21 22  1  0
 21 19  1  0
 23 21  2  0
M  END
$$$$
