SET.pdb
     RDKit          3D

 23 22  0  0  1  0  0  0  0  0999 V2000
   16.4174  -12.5362  -15.1601 O   0  0  0  0  0  0  0  0  0  0  0  0
   17.7295  -12.0559  -15.0863 C   0  0  0  0  0  0  0  0  0  0  0  0
   17.7315  -10.5682  -15.3443 C   0  0  2  0  0  0  0  0  0  0  0  0
   17.1922  -10.3537  -16.6707 N   0  0  0  0  0  0  0  0  0  0  0  0
   19.0651   -9.9692  -15.2524 C   0  0  0  0  0  0  0  0  0  0  0  0
   19.7156  -10.0489  -14.1808 O   0  0  0  0  0  0  0  0  0  0  0  0
   19.6686   -9.2872  -16.3452 N   0  0  0  0  0  0  0  0  0  0  0  0
   20.9686   -8.6615  -16.2629 C   0  0  1  0  0  0  0  0  0  0  0  0
   21.7804   -8.9684  -17.5041 C   0  0  0  0  0  0  0  0  0  0  0  0
   22.0863  -10.4191  -17.6526 C   0  0  0  0  0  0  0  0  0  0  0  0
   22.8990  -10.6336  -18.8672 C   0  0  0  0  0  0  0  0  0  0  0  0
   22.5087  -11.4560  -19.7254 O   0  0  0  0  0  0  0  0  0  0  0  0
   20.8676   -7.1971  -16.0580 C   0  0  0  0  0  0  0  0  0  0  0  0
   20.5151   -6.4122  -16.9745 O   0  0  0  0  0  0  0  0  0  0  0  0
   24.0894   -9.9653  -19.1158 O   0  0  0  0  0  0  0  0  0  0  0  0
   18.7835   -4.9187  -15.2531 C   0  0  0  0  0  0  0  0  0  0  0  0
   19.7770   -4.6267  -14.1435 C   0  0  1  0  0  0  0  0  0  0  0  0
   19.2704   -5.3130  -13.0139 O   0  0  0  0  0  0  0  0  0  0  0  0
   21.0995   -5.1698  -14.5732 C   0  0  2  0  0  0  0  0  0  0  0  0
   21.1588   -6.5615  -14.8165 N   0  0  0  0  0  0  0  0  0  0  0  0
   22.1048   -4.7934  -13.5662 C   0  0  0  0  0  0  0  0  0  0  0  0
   22.3766   -3.4767  -13.2706 O   0  0  0  0  0  0  0  0  0  0  0  0
   22.7296   -5.6830  -12.9621 O   0  0  0  0  0  0  0  0  0  0  0  0
  2  3  1  0
  2  1  1  0
  3  5  1  0
  3  4  1  6
  5  6  2  0
  7  8  1  0
  7  5  1  0
  8 13  1  0
  8  9  1  6
 10  9  1  0
 11 10  1  0
 12 11  2  0
 13 20  1  0
 13 14  2  0
 15 11  1  0
 17 18  1  0
 17 16  1  6
 19 17  1  0
 19 20  1  1
 21 22  1  0
 21 19  1  0
 23 21  2  0
M  END
$$$$
