SET.pdb
     RDKit          3D

 23 22  0  0  1  0  0  0  0  0999 V2000
   18.5528  -12.8813  -14.7537 O   0  0  0  0  0  0  0  0  0  0  0  0
   18.3331  -12.3718  -16.0382 C   0  0  0  0  0  0  0  0  0  0  0  0
   17.1612  -11.4204  -16.0041 C   0  0  2  0  0  0  0  0  0  0  0  0
   16.2556  -11.8040  -17.0666 N   0  0  0  0  0  0  0  0  0  0  0  0
   17.5517  -10.0187  -16.1724 C   0  0  0  0  0  0  0  0  0  0  0  0
   17.7664   -9.5615  -17.3224 O   0  0  0  0  0  0  0  0  0  0  0  0
   17.7018   -9.1341  -15.0686 N   0  0  0  0  0  0  0  0  0  0  0  0
   18.1124   -7.7561  -15.2129 C   0  0  1  0  0  0  0  0  0  0  0  0
   17.0126   -6.8267  -14.7431 C   0  0  0  0  0  0  0  0  0  0  0  0
   15.9293   -6.6545  -15.7515 C   0  0  0  0  0  0  0  0  0  0  0  0
   14.8987   -5.7383  -15.2219 C   0  0  0  0  0  0  0  0  0  0  0  0
   14.6066   -4.7085  -15.8694 O   0  0  0  0  0  0  0  0  0  0  0  0
   19.3743   -7.4743  -14.4885 C   0  0  0  0  0  0  0  0  0  0  0  0
   19.5292   -7.7543  -13.2728 O   0  0  0  0  0  0  0  0  0  0  0  0
   14.2249   -5.9570  -14.0288 O   0  0  0  0  0  0  0  0  0  0  0  0
   22.9359   -8.5946  -15.1877 C   0  0  0  0  0  0  0  0  0  0  0  0
   22.9685   -7.0773  -15.1812 C   0  0  1  0  0  0  0  0  0  0  0  0
   22.9538   -6.7088  -16.5479 O   0  0  0  0  0  0  0  0  0  0  0  0
   21.7440   -6.6070  -14.4685 C   0  0  2  0  0  0  0  0  0  0  0  0
   20.5076   -6.8678  -15.1032 N   0  0  0  0  0  0  0  0  0  0  0  0
   21.8817   -5.1640  -14.2126 C   0  0  0  0  0  0  0  0  0  0  0  0
   22.8828   -4.6624  -13.4118 O   0  0  0  0  0  0  0  0  0  0  0  0
   21.0761   -4.3705  -14.7302 O   0  0  0  0  0  0  0  0  0  0  0  0
  2  3  1  0
  2  1  1  0
  3  5  1  0
  3  4  1  6
  5  6  2  0
  7  8  1  0
  7  5  1  0
  8 13  1  0
  8  9  1  1
 10  9  1  0
 11 10  1  0
 12 11  2  0
 13 20  1  0
 13 14  2  0
 15 11  1  0
 17 18  1  0
 17 16  1  6
 19 17  1  0
 19 20  1  6
 21 22  1  0
 21 19  1  0
 23 21  2  0
M  END
$$$$
