SET.pdb
     RDKit          3D

 23 22  0  0  1  0  0  0  0  0999 V2000
   16.6032  -10.1104  -14.5702 O   0  0  0  0  0  0  0  0  0  0  0  0
   16.4877  -10.4370  -15.9258 C   0  0  0  0  0  0  0  0  0  0  0  0
   17.7908  -11.0265  -16.4099 C   0  0  2  0  0  0  0  0  0  0  0  0
   17.9814  -12.2877  -15.7248 N   0  0  0  0  0  0  0  0  0  0  0  0
   18.9429  -10.1553  -16.1667 C   0  0  0  0  0  0  0  0  0  0  0  0
   19.7303  -10.4067  -15.2209 O   0  0  0  0  0  0  0  0  0  0  0  0
   19.2154   -9.0138  -16.9706 N   0  0  0  0  0  0  0  0  0  0  0  0
   20.3910   -8.1912  -16.7991 C   0  0  1  0  0  0  0  0  0  0  0  0
   20.7971   -7.5707  -18.1197 C   0  0  0  0  0  0  0  0  0  0  0  0
   21.3717   -8.5612  -19.0731 C   0  0  0  0  0  0  0  0  0  0  0  0
   21.7296   -7.8848  -20.3365 C   0  0  0  0  0  0  0  0  0  0  0  0
   22.7815   -7.2098  -20.3908 O   0  0  0  0  0  0  0  0  0  0  0  0
   20.1886   -7.1411  -15.7730 C   0  0  0  0  0  0  0  0  0  0  0  0
   19.1214   -6.4824  -15.6857 O   0  0  0  0  0  0  0  0  0  0  0  0
   20.9544   -7.9557  -21.4852 O   0  0  0  0  0  0  0  0  0  0  0  0
   19.7151   -7.2716  -12.3507 C   0  0  0  0  0  0  0  0  0  0  0  0
   20.9106   -6.3375  -12.3940 C   0  0  1  0  0  0  0  0  0  0  0  0
   22.0164   -7.1480  -12.0416 O   0  0  0  0  0  0  0  0  0  0  0  0
   21.0252   -5.8227  -13.7905 C   0  0  2  0  0  0  0  0  0  0  0  0
   21.1774   -6.7928  -14.8080 N   0  0  0  0  0  0  0  0  0  0  0  0
   22.1407   -4.8637  -13.8412 C   0  0  0  0  0  0  0  0  0  0  0  0
   22.1315   -3.7019  -13.1027 O   0  0  0  0  0  0  0  0  0  0  0  0
   23.1211   -5.1023  -14.5681 O   0  0  0  0  0  0  0  0  0  0  0  0
  2  3  1  0
  2  1  1  0
  3  5  1  0
  3  4  1  1
  5  6  2  0
  7  8  1  0
  7  5  1  0
  8 13  1  0
  8  9  1  6
 10  9  1  0
 11 10  1  0
 12 11  2  0
 13 20  1  0
 13 14  2  0
 15 11  1  0
 17 18  1  0
 17 16  1  6
 19 17  1  0
 19 20  1  6
 21 22  1  0
 21 19  1  0
 23 21  2  0
M  END
$$$$
