SET.pdb
     RDKit          3D

 23 22  0  0  1  0  0  0  0  0999 V2000
   15.6872  -11.8896  -17.0142 O   0  0  0  0  0  0  0  0  0  0  0  0
   16.0404  -10.9907  -16.0018 C   0  0  0  0  0  0  0  0  0  0  0  0
   17.5177  -10.6922  -16.0925 C   0  0  2  0  0  0  0  0  0  0  0  0
   18.2289  -11.8458  -15.5828 N   0  0  0  0  0  0  0  0  0  0  0  0
   17.9118   -9.4990  -15.3398 C   0  0  0  0  0  0  0  0  0  0  0  0
   17.6261   -9.4044  -14.1203 O   0  0  0  0  0  0  0  0  0  0  0  0
   18.6182   -8.4205  -15.9409 N   0  0  0  0  0  0  0  0  0  0  0  0
   18.9922   -7.2246  -15.2211 C   0  0  1  0  0  0  0  0  0  0  0  0
   20.4927   -7.1783  -15.0200 C   0  0  0  0  0  0  0  0  0  0  0  0
   20.9341   -6.0020  -14.2191 C   0  0  0  0  0  0  0  0  0  0  0  0
   22.4044   -6.0201  -14.0786 C   0  0  0  0  0  0  0  0  0  0  0  0
   22.9693   -5.0954  -13.4534 O   0  0  0  0  0  0  0  0  0  0  0  0
   18.5223   -5.9960  -15.9040 C   0  0  0  0  0  0  0  0  0  0  0  0
   18.7366   -5.7803  -17.1238 O   0  0  0  0  0  0  0  0  0  0  0  0
   23.2085   -7.0191  -14.6085 O   0  0  0  0  0  0  0  0  0  0  0  0
   15.0795   -4.0396  -14.7689 C   0  0  0  0  0  0  0  0  0  0  0  0
   15.7627   -3.8616  -16.1125 C   0  0  1  0  0  0  0  0  0  0  0  0
   15.2834   -2.6224  -16.6011 O   0  0  0  0  0  0  0  0  0  0  0  0
   17.2343   -3.8262  -15.8644 C   0  0  2  0  0  0  0  0  0  0  0  0
   17.7947   -4.9654  -15.2416 N   0  0  0  0  0  0  0  0  0  0  0  0
   17.5431   -2.6215  -15.0771 C   0  0  0  0  0  0  0  0  0  0  0  0
   17.3033   -1.3564  -15.5642 O   0  0  0  0  0  0  0  0  0  0  0  0
   18.0340   -2.7415  -13.9408 O   0  0  0  0  0  0  0  0  0  0  0  0
  2  3  1  0
  2  1  1  0
  3  5  1  0
  3  4  1  1
  5  6  2  0
  7  8  1  0
  7  5  1  0
  8 13  1  0
  8  9  1  6
 10  9  1  0
 11 10  1  0
 12 11  2  0
 13 20  1  0
 13 14  2  0
 15 11  1  0
 17 18  1  0
 17 16  1  1
 19 17  1  0
 19 20  1  1
 21 22  1  0
 21 19  1  0
 23 21  2  0
M  END
$$$$
