SET.pdb
     RDKit          3D

 23 22  0  0  1  0  0  0  0  0999 V2000
   24.7847  -15.8459  -18.5203 O   0  0  0  0  0  0  0  0  0  0  0  0
   25.9223  -16.1199  -17.7533 C   0  0  0  0  0  0  0  0  0  0  0  0
   26.6363  -17.3187  -18.3301 C   0  0  2  0  0  0  0  0  0  0  0  0
   26.6301  -17.1797  -19.7712 N   0  0  0  0  0  0  0  0  0  0  0  0
   26.0181  -18.5928  -17.9559 C   0  0  0  0  0  0  0  0  0  0  0  0
   25.0290  -19.0227  -18.6000 O   0  0  0  0  0  0  0  0  0  0  0  0
   26.4978  -19.3812  -16.8734 N   0  0  0  0  0  0  0  0  0  0  0  0
   25.8607  -20.6063  -16.4474 C   0  0  1  0  0  0  0  0  0  0  0  0
   26.8980  -21.6007  -15.9689 C   0  0  0  0  0  0  0  0  0  0  0  0
   27.9078  -21.9325  -17.0131 C   0  0  0  0  0  0  0  0  0  0  0  0
   28.9072  -22.8681  -16.4583 C   0  0  0  0  0  0  0  0  0  0  0  0
   29.8459  -23.2608  -17.1861 O   0  0  0  0  0  0  0  0  0  0  0  0
   24.8466  -20.3670  -15.3934 C   0  0  0  0  0  0  0  0  0  0  0  0
   25.0822  -19.6597  -14.3812 O   0  0  0  0  0  0  0  0  0  0  0  0
   28.8648  -23.3443  -15.1556 O   0  0  0  0  0  0  0  0  0  0  0  0
   20.4823  -19.6318  -13.6881 C   0  0  0  0  0  0  0  0  0  0  0  0
   21.4943  -19.6593  -14.8188 C   0  0  1  0  0  0  0  0  0  0  0  0
   22.0496  -18.3574  -14.8396 O   0  0  0  0  0  0  0  0  0  0  0  0
   22.5175  -20.6914  -14.4779 C   0  0  2  0  0  0  0  0  0  0  0  0
   23.5314  -20.9132  -15.4383 N   0  0  0  0  0  0  0  0  0  0  0  0
   21.8216  -21.9544  -14.1825 C   0  0  0  0  0  0  0  0  0  0  0  0
   21.0088  -22.0933  -13.0802 O   0  0  0  0  0  0  0  0  0  0  0  0
   21.9669  -22.9265  -14.9444 O   0  0  0  0  0  0  0  0  0  0  0  0
  2  3  1  0
  2  1  1  0
  3  5  1  0
  3  4  1  6
  5  6  2  0
  7  8  1  0
  7  5  1  0
  8 13  1  0
  8  9  1  1
 10  9  1  0
 11 10  1  0
 12 11  2  0
 13 20  1  0
 13 14  2  0
 15 11  1  0
 17 18  1  0
 17 16  1  1
 19 17  1  0
 19 20  1  6
 21 22  1  0
 21 19  1  0
 23 21  2  0
M  END
$$$$
