SET.pdb
     RDKit          3D

 23 22  0  0  1  0  0  0  0  0999 V2000
   15.9718  -14.6385  -13.9207 O   0  0  0  0  0  0  0  0  0  0  0  0
   16.8445  -13.6897  -14.4647 C   0  0  0  0  0  0  0  0  0  0  0  0
   16.1468  -12.9533  -15.5830 C   0  0  2  0  0  0  0  0  0  0  0  0
   16.0479  -13.8591  -16.7082 N   0  0  0  0  0  0  0  0  0  0  0  0
   16.8455  -11.7330  -15.9935 C   0  0  0  0  0  0  0  0  0  0  0  0
   17.6557  -11.7672  -16.9527 O   0  0  0  0  0  0  0  0  0  0  0  0
   16.6431  -10.4855  -15.3407 N   0  0  0  0  0  0  0  0  0  0  0  0
   17.2963   -9.2645  -15.7538 C   0  0  1  0  0  0  0  0  0  0  0  0
   16.3100   -8.1152  -15.7596 C   0  0  0  0  0  0  0  0  0  0  0  0
   16.9205   -6.8297  -16.2012 C   0  0  0  0  0  0  0  0  0  0  0  0
   15.9152   -5.7502  -16.1246 C   0  0  0  0  0  0  0  0  0  0  0  0
   15.0976   -5.6098  -17.0611 O   0  0  0  0  0  0  0  0  0  0  0  0
   18.4630   -8.9425  -14.8984 C   0  0  0  0  0  0  0  0  0  0  0  0
   18.3923   -8.9235  -13.6434 O   0  0  0  0  0  0  0  0  0  0  0  0
   15.8234   -4.8685  -15.0570 O   0  0  0  0  0  0  0  0  0  0  0  0
   21.9415  -10.4877  -14.6560 C   0  0  0  0  0  0  0  0  0  0  0  0
   22.1526   -9.0227  -14.9918 C   0  0  1  0  0  0  0  0  0  0  0  0
   22.4098   -9.0036  -16.3837 O   0  0  0  0  0  0  0  0  0  0  0  0
   20.8911   -8.3002  -14.6527 C   0  0  2  0  0  0  0  0  0  0  0  0
   19.7511   -8.6303  -15.4215 N   0  0  0  0  0  0  0  0  0  0  0  0
   21.1491   -6.8534  -14.7340 C   0  0  0  0  0  0  0  0  0  0  0  0
   22.1003   -6.2417  -13.9492 O   0  0  0  0  0  0  0  0  0  0  0  0
   20.4942   -6.1583  -15.5307 O   0  0  0  0  0  0  0  0  0  0  0  0
  2  3  1  0
  2  1  1  0
  3  5  1  0
  3  4  1  6
  5  6  2  0
  7  8  1  0
  7  5  1  0
  8 13  1  0
  8  9  1  1
 10  9  1  0
 11 10  1  0
 12 11  2  0
 13 20  1  0
 13 14  2  0
 15 11  1  0
 17 18  1  0
 17 16  1  6
 19 17  1  0
 19 20  1  6
 21 22  1  0
 21 19  1  0
 23 21  2  0
M  END
$$$$
