WYQ.pdb
     RDKit          3D

 36 38  0  0  1  0  0  0  0  0999 V2000
    6.4257  -18.8034   23.9283 N   0  0  0  0  0  0  0  0  0  0  0  0
    6.9779  -17.4771   24.1215 C   0  0  1  0  0  0  0  0  0  0  0  0
    7.1252  -17.2059   25.5968 C   0  0  0  0  0  0  0  0  0  0  0  0
    6.7569  -15.7898   25.8249 C   0  0  0  0  0  0  0  0  0  0  0  0
    5.5255  -15.2117   25.6368 C   0  0  0  0  0  0  0  0  0  0  0  0
    5.6068  -13.8923   25.9593 N   0  0  0  0  0  0  0  0  0  0  0  0
    6.8504  -13.5977   26.3499 C   0  0  0  0  0  0  0  0  0  0  0  0
    7.4644  -12.4510   26.7712 C   0  0  0  0  0  0  0  0  0  0  0  0
    8.8165  -12.4353   27.1261 C   0  0  0  0  0  0  0  0  0  0  0  0
    9.5466  -13.5974   27.0505 C   0  0  0  0  0  0  0  0  0  0  0  0
    8.9121  -14.7404   26.6247 C   0  0  0  0  0  0  0  0  0  0  0  0
    7.5762  -14.7657   26.2718 C   0  0  0  0  0  0  0  0  0  0  0  0
    8.2858  -17.3245   23.4541 C   0  0  0  0  0  0  0  0  0  0  0  0
    9.0022  -18.2915   23.1488 O   0  0  0  0  0  0  0  0  0  0  0  0
    6.5590  -13.6927   17.3172 O   0  0  0  0  0  0  0  0  0  0  0  0
    7.3817  -13.8430   18.4473 C   0  0  0  0  0  0  0  0  0  0  0  0
    7.5616  -12.8207   19.3345 C   0  0  0  0  0  0  0  0  0  0  0  0
    8.3702  -12.9801   20.4381 C   0  0  0  0  0  0  0  0  0  0  0  0
    9.0361  -14.1805   20.6982 C   0  0  0  0  0  0  0  0  0  0  0  0
    9.9029  -14.3303   21.8895 C   0  0  0  0  0  0  0  0  0  0  0  0
    9.9159  -15.7618   22.3696 C   0  0  2  0  0  0  0  0  0  0  0  0
    8.7213  -15.9901   23.1585 N   0  0  0  0  0  0  0  0  0  0  0  0
   11.0992  -16.0416   23.2267 C   0  0  0  0  0  0  0  0  0  0  0  0
   12.2725  -15.9400   22.7595 O   0  0  0  0  0  0  0  0  0  0  0  0
    8.8313  -15.1963   19.7778 C   0  0  0  0  0  0  0  0  0  0  0  0
    8.0224  -15.0420   18.6708 C   0  0  0  0  0  0  0  0  0  0  0  0
   11.1088  -17.2604   29.4969 N   0  0  0  0  0  0  0  0  0  0  0  0
   10.3261  -17.9517   28.5375 C   0  0  0  0  0  0  0  0  0  0  0  0
    9.3844  -18.6727   28.9242 O   0  0  0  0  0  0  0  0  0  0  0  0
   10.6755  -17.7796   27.1057 C   0  0  0  0  0  0  0  0  0  0  0  0
   11.7848  -16.8053   26.8523 C   0  0  0  0  0  0  0  0  0  0  0  0
   12.1660  -16.7650   25.4164 C   0  0  2  0  0  0  0  0  0  0  0  0
   11.0017  -16.4281   24.5787 N   0  0  0  0  0  0  0  0  0  0  0  0
   12.5951  -18.1123   24.9846 C   0  0  0  0  0  0  0  0  0  0  0  0
   11.9320  -18.8823   24.0487 O   0  0  0  0  0  0  0  0  0  0  0  0
   13.6514  -18.5905   25.5208 O   0  0  0  0  0  0  0  0  0  0  0  0
  2  1  1  1
  3  2  1  0
  3  4  1  0
  4 12  1  0
  4  5  2  0
  5  6  1  0
  7  6  1  0
  7  8  2  0
  9  8  1  0
 10  9  2  0
 11 12  2  0
 11 10  1  0
 12  7  1  0
 13 14  2  0
 13  2  1  0
 15 16  1  0
 16 17  2  0
 17 18  1  0
 19 18  2  0
 19 20  1  0
 21 20  1  1
 21 22  1  0
 22 13  1  0
 23 21  1  0
 24 23  2  0
 25 19  1  0
 26 16  1  0
 26 25  2  0
 28 29  2  0
 28 27  1  0
 30 28  1  0
 32 31  1  1
 31 30  1  0
 32 33  1  0
 33 23  1  0
 34 35  1  0
 34 32  1  0
 36 34  2  0
M  END
$$$$
