WYQ.pdb
     RDKit          3D

 36 38  0  0  1  0  0  0  0  0999 V2000
    7.0747  -17.4193   26.2068 N   0  0  0  0  0  0  0  0  0  0  0  0
    7.1649  -16.4171   25.1634 C   0  0  1  0  0  0  0  0  0  0  0  0
    8.4877  -15.7022   25.2686 C   0  0  0  0  0  0  0  0  0  0  0  0
    8.3657  -14.7045   26.3560 C   0  0  0  0  0  0  0  0  0  0  0  0
    9.0229  -14.7062   27.5619 C   0  0  0  0  0  0  0  0  0  0  0  0
    8.6314  -13.6163   28.2761 N   0  0  0  0  0  0  0  0  0  0  0  0
    7.7424  -12.9092   27.5720 C   0  0  0  0  0  0  0  0  0  0  0  0
    7.0467  -11.7565   27.8100 C   0  0  0  0  0  0  0  0  0  0  0  0
    6.1582  -11.2325   26.8663 C   0  0  0  0  0  0  0  0  0  0  0  0
    5.9786  -11.8892   25.6723 C   0  0  0  0  0  0  0  0  0  0  0  0
    6.6868  -13.0466   25.4509 C   0  0  0  0  0  0  0  0  0  0  0  0
    7.5672  -13.5723   26.3775 C   0  0  0  0  0  0  0  0  0  0  0  0
    7.0250  -17.0102   23.8188 C   0  0  0  0  0  0  0  0  0  0  0  0
    6.8809  -18.2294   23.6330 O   0  0  0  0  0  0  0  0  0  0  0  0
   10.4145  -11.8096   19.0013 O   0  0  0  0  0  0  0  0  0  0  0  0
    9.4109  -12.7257   19.3621 C   0  0  0  0  0  0  0  0  0  0  0  0
    9.0142  -13.7153   18.5091 C   0  0  0  0  0  0  0  0  0  0  0  0
    8.0298  -14.6069   18.8740 C   0  0  0  0  0  0  0  0  0  0  0  0
    7.3987  -14.5411   20.1188 C   0  0  0  0  0  0  0  0  0  0  0  0
    6.3408  -15.5083   20.4906 C   0  0  0  0  0  0  0  0  0  0  0  0
    6.9020  -16.6175   21.3478 C   0  0  2  0  0  0  0  0  0  0  0  0
    7.0610  -16.1153   22.6984 N   0  0  0  0  0  0  0  0  0  0  0  0
    8.2334  -17.0670   20.8595 C   0  0  0  0  0  0  0  0  0  0  0  0
    8.3605  -17.5687   19.7031 O   0  0  0  0  0  0  0  0  0  0  0  0
    7.8256  -13.5251   20.9593 C   0  0  0  0  0  0  0  0  0  0  0  0
    8.8112  -12.6294   20.5988 C   0  0  0  0  0  0  0  0  0  0  0  0
   12.9789  -13.9940   19.1384 N   0  0  0  0  0  0  0  0  0  0  0  0
   13.0358  -15.3385   18.6910 C   0  0  0  0  0  0  0  0  0  0  0  0
   13.4839  -15.5839   17.5529 O   0  0  0  0  0  0  0  0  0  0  0  0
   12.5508  -16.3955   19.6126 C   0  0  0  0  0  0  0  0  0  0  0  0
   11.1835  -16.1485   20.1725 C   0  0  0  0  0  0  0  0  0  0  0  0
   10.7581  -17.2379   21.0895 C   0  0  2  0  0  0  0  0  0  0  0  0
    9.4123  -16.9699   21.6260 N   0  0  0  0  0  0  0  0  0  0  0  0
   11.6584  -17.2722   22.2618 C   0  0  0  0  0  0  0  0  0  0  0  0
   12.9888  -17.6415   22.2163 O   0  0  0  0  0  0  0  0  0  0  0  0
   11.1628  -16.9380   23.3908 O   0  0  0  0  0  0  0  0  0  0  0  0
  2  1  1  1
  3  2  1  0
  3  4  1  0
  4 12  1  0
  4  5  2  0
  5  6  1  0
  7  6  1  0
  7  8  2  0
  9  8  1  0
 10  9  2  0
 11 12  2  0
 11 10  1  0
 12  7  1  0
 13 14  2  0
 13  2  1  0
 15 16  1  0
 16 17  2  0
 17 18  1  0
 19 18  2  0
 19 20  1  0
 21 20  1  6
 21 22  1  0
 22 13  1  0
 23 21  1  0
 24 23  2  0
 25 19  1  0
 26 16  1  0
 26 25  2  0
 28 29  2  0
 28 27  1  0
 30 28  1  0
 32 31  1  6
 31 30  1  0
 32 33  1  0
 33 23  1  0
 34 35  1  0
 34 32  1  0
 36 34  2  0
M  END
$$$$
