WYQ.pdb
     RDKit          3D

 36 38  0  0  1  0  0  0  0  0999 V2000
    5.8601  -17.0081   23.4541 N   0  0  0  0  0  0  0  0  0  0  0  0
    7.1777  -16.4133   23.3482 C   0  0  1  0  0  0  0  0  0  0  0  0
    7.8082  -16.3457   24.7156 C   0  0  0  0  0  0  0  0  0  0  0  0
    7.0698  -15.3240   25.4928 C   0  0  0  0  0  0  0  0  0  0  0  0
    5.8893  -15.4921   26.1741 C   0  0  0  0  0  0  0  0  0  0  0  0
    5.5463  -14.3105   26.7549 N   0  0  0  0  0  0  0  0  0  0  0  0
    6.4661  -13.3832   26.4719 C   0  0  0  0  0  0  0  0  0  0  0  0
    6.6095  -12.0620   26.7935 C   0  0  0  0  0  0  0  0  0  0  0  0
    7.7039  -11.3166   26.3451 C   0  0  0  0  0  0  0  0  0  0  0  0
    8.6579  -11.9234   25.5635 C   0  0  0  0  0  0  0  0  0  0  0  0
    8.4966  -13.2524   25.2505 C   0  0  0  0  0  0  0  0  0  0  0  0
    7.4184  -13.9974   25.6890 C   0  0  0  0  0  0  0  0  0  0  0  0
    8.0518  -17.1745   22.4340 C   0  0  0  0  0  0  0  0  0  0  0  0
    7.6094  -17.8957   21.5251 O   0  0  0  0  0  0  0  0  0  0  0  0
    6.5357  -12.8352   17.7874 O   0  0  0  0  0  0  0  0  0  0  0  0
    7.3093  -13.3014   18.8648 C   0  0  0  0  0  0  0  0  0  0  0  0
    6.7259  -13.7462   20.0164 C   0  0  0  0  0  0  0  0  0  0  0  0
    7.4945  -14.2006   21.0653 C   0  0  0  0  0  0  0  0  0  0  0  0
    8.8899  -14.2272   21.0007 C   0  0  0  0  0  0  0  0  0  0  0  0
    9.6978  -14.7175   22.1408 C   0  0  0  0  0  0  0  0  0  0  0  0
   10.2406  -16.0986   21.8618 C   0  0  2  0  0  0  0  0  0  0  0  0
    9.4681  -17.0566   22.6282 N   0  0  0  0  0  0  0  0  0  0  0  0
   11.6663  -16.2196   22.2688 C   0  0  0  0  0  0  0  0  0  0  0  0
   12.5520  -15.4819   21.7429 O   0  0  0  0  0  0  0  0  0  0  0  0
    9.4484  -13.7688   19.8180 C   0  0  0  0  0  0  0  0  0  0  0  0
    8.6833  -13.3126   18.7644 C   0  0  0  0  0  0  0  0  0  0  0  0
   11.7776  -19.4466   27.4823 N   0  0  0  0  0  0  0  0  0  0  0  0
   10.7430  -18.7177   26.8426 C   0  0  0  0  0  0  0  0  0  0  0  0
    9.5568  -18.9345   27.1624 O   0  0  0  0  0  0  0  0  0  0  0  0
   11.1321  -17.7239   25.8117 C   0  0  0  0  0  0  0  0  0  0  0  0
   12.6077  -17.6256   25.5729 C   0  0  0  0  0  0  0  0  0  0  0  0
   12.9216  -16.7507   24.4132 C   0  0  2  0  0  0  0  0  0  0  0  0
   12.1192  -17.1363   23.2391 N   0  0  0  0  0  0  0  0  0  0  0  0
   14.3325  -16.9475   24.0178 C   0  0  0  0  0  0  0  0  0  0  0  0
   14.7425  -17.3889   22.7745 O   0  0  0  0  0  0  0  0  0  0  0  0
   15.2273  -16.6917   24.8929 O   0  0  0  0  0  0  0  0  0  0  0  0
  2  1  1  1
  3  2  1  0
  3  4  1  0
  4 12  1  0
  4  5  2  0
  5  6  1  0
  7  6  1  0
  7  8  2  0
  9  8  1  0
 10  9  2  0
 11 12  2  0
 11 10  1  0
 12  7  1  0
 13 14  2  0
 13  2  1  0
 15 16  1  0
 16 17  2  0
 17 18  1  0
 19 18  2  0
 19 20  1  0
 21 20  1  1
 21 22  1  0
 22 13  1  0
 23 21  1  0
 24 23  2  0
 25 19  1  0
 26 16  1  0
 26 25  2  0
 28 29  2  0
 28 27  1  0
 30 28  1  0
 32 31  1  1
 31 30  1  0
 32 33  1  0
 33 23  1  0
 34 35  1  0
 34 32  1  0
 36 34  2  0
M  END
$$$$
