WYQ.pdb
     RDKit          3D

 36 38  0  0  1  0  0  0  0  0999 V2000
    6.0998  -17.2255   23.4205 N   0  0  0  0  0  0  0  0  0  0  0  0
    7.3560  -16.5027   23.3922 C   0  0  1  0  0  0  0  0  0  0  0  0
    7.8347  -16.2748   24.8032 C   0  0  0  0  0  0  0  0  0  0  0  0
    6.8693  -15.3606   25.4552 C   0  0  0  0  0  0  0  0  0  0  0  0
    5.6129  -15.6704   25.9151 C   0  0  0  0  0  0  0  0  0  0  0  0
    5.0518  -14.5504   26.4461 N   0  0  0  0  0  0  0  0  0  0  0  0
    5.9040  -13.5258   26.3451 C   0  0  0  0  0  0  0  0  0  0  0  0
    5.8495  -12.2090   26.7090 C   0  0  0  0  0  0  0  0  0  0  0  0
    6.9204  -11.3419   26.4729 C   0  0  0  0  0  0  0  0  0  0  0  0
    8.0539  -11.8218   25.8614 C   0  0  0  0  0  0  0  0  0  0  0  0
    8.0903  -13.1485   25.5027 C   0  0  0  0  0  0  0  0  0  0  0  0
    7.0369  -14.0132   25.7319 C   0  0  0  0  0  0  0  0  0  0  0  0
    8.3894  -17.2277   22.6268 C   0  0  0  0  0  0  0  0  0  0  0  0
    8.1284  -18.1943   21.8924 O   0  0  0  0  0  0  0  0  0  0  0  0
    6.8839  -13.5967   16.9007 O   0  0  0  0  0  0  0  0  0  0  0  0
    7.5534  -13.8393   18.1129 C   0  0  0  0  0  0  0  0  0  0  0  0
    8.6902  -14.5945   18.1563 C   0  0  0  0  0  0  0  0  0  0  0  0
    9.3373  -14.8251   19.3502 C   0  0  0  0  0  0  0  0  0  0  0  0
    8.8665  -14.3036   20.5578 C   0  0  0  0  0  0  0  0  0  0  0  0
    9.5761  -14.5656   21.8309 C   0  0  0  0  0  0  0  0  0  0  0  0
   10.3196  -15.8785   21.7729 C   0  0  2  0  0  0  0  0  0  0  0  0
    9.7437  -16.7736   22.7572 N   0  0  0  0  0  0  0  0  0  0  0  0
   11.7627  -15.7056   22.0902 C   0  0  0  0  0  0  0  0  0  0  0  0
   12.2632  -14.5475   22.2063 O   0  0  0  0  0  0  0  0  0  0  0  0
    7.7112  -13.5423   20.4772 C   0  0  0  0  0  0  0  0  0  0  0  0
    7.0591  -13.3082   19.2841 C   0  0  0  0  0  0  0  0  0  0  0  0
    9.6871  -19.8888   25.6897 N   0  0  0  0  0  0  0  0  0  0  0  0
   10.5902  -18.9329   26.2203 C   0  0  0  0  0  0  0  0  0  0  0  0
   10.3170  -18.3691   27.2991 O   0  0  0  0  0  0  0  0  0  0  0  0
   11.8278  -18.6492   25.4523 C   0  0  0  0  0  0  0  0  0  0  0  0
   11.6057  -17.8921   24.1789 C   0  0  0  0  0  0  0  0  0  0  0  0
   12.8856  -17.4282   23.5828 C   0  0  2  0  0  0  0  0  0  0  0  0
   12.6488  -16.7855   22.2783 N   0  0  0  0  0  0  0  0  0  0  0  0
   13.7490  -18.5957   23.3045 C   0  0  0  0  0  0  0  0  0  0  0  0
   15.1099  -18.6362   23.5386 O   0  0  0  0  0  0  0  0  0  0  0  0
   13.1900  -19.6333   22.8115 O   0  0  0  0  0  0  0  0  0  0  0  0
  2  1  1  1
  3  2  1  0
  3  4  1  0
  4 12  1  0
  4  5  2  0
  5  6  1  0
  7  6  1  0
  7  8  2  0
  9  8  1  0
 10  9  2  0
 11 12  2  0
 11 10  1  0
 12  7  1  0
 13 14  2  0
 13  2  1  0
 15 16  1  0
 16 17  2  0
 17 18  1  0
 19 18  2  0
 19 20  1  0
 21 20  1  1
 21 22  1  0
 22 13  1  0
 23 21  1  0
 24 23  2  0
 25 19  1  0
 26 16  1  0
 26 25  2  0
 28 29  2  0
 28 27  1  0
 30 28  1  0
 32 31  1  6
 31 30  1  0
 32 33  1  0
 33 23  1  0
 34 35  1  0
 34 32  1  0
 36 34  2  0
M  END
$$$$
