WYQ.pdb
     RDKit          3D

 36 38  0  0  1  0  0  0  0  0999 V2000
    6.8905  -17.9802   26.1374 N   0  0  0  0  0  0  0  0  0  0  0  0
    7.3787  -16.7307   25.5881 C   0  0  1  0  0  0  0  0  0  0  0  0
    8.7273  -16.4152   26.1827 C   0  0  0  0  0  0  0  0  0  0  0  0
    8.5601  -15.2285   27.0527 C   0  0  0  0  0  0  0  0  0  0  0  0
    8.8492  -15.1336   28.3918 C   0  0  0  0  0  0  0  0  0  0  0  0
    8.5528  -13.8752   28.8162 N   0  0  0  0  0  0  0  0  0  0  0  0
    8.0814  -13.1527   27.7955 C   0  0  0  0  0  0  0  0  0  0  0  0
    7.6439  -11.8634   27.6699 C   0  0  0  0  0  0  0  0  0  0  0  0
    7.1934  -11.3618   26.4451 C   0  0  0  0  0  0  0  0  0  0  0  0
    7.1894  -12.1813   25.3417 C   0  0  0  0  0  0  0  0  0  0  0  0
    7.6329  -13.4746   25.4874 C   0  0  0  0  0  0  0  0  0  0  0  0
    8.0800  -13.9793   26.6938 C   0  0  0  0  0  0  0  0  0  0  0  0
    7.4829  -16.7815   24.1164 C   0  0  0  0  0  0  0  0  0  0  0  0
    7.5197  -17.8476   23.4810 O   0  0  0  0  0  0  0  0  0  0  0  0
    7.7485  -13.8292   15.7975 O   0  0  0  0  0  0  0  0  0  0  0  0
    7.6089  -13.9124   17.1940 C   0  0  0  0  0  0  0  0  0  0  0  0
    7.9624  -12.8725   18.0051 C   0  0  0  0  0  0  0  0  0  0  0  0
    7.8210  -12.9660   19.3721 C   0  0  0  0  0  0  0  0  0  0  0  0
    7.3154  -14.1152   19.9850 C   0  0  0  0  0  0  0  0  0  0  0  0
    7.1735  -14.1961   21.4569 C   0  0  0  0  0  0  0  0  0  0  0  0
    7.7360  -15.4954   21.9816 C   0  0  2  0  0  0  0  0  0  0  0  0
    7.5426  -15.5301   23.4180 N   0  0  0  0  0  0  0  0  0  0  0  0
    9.1931  -15.6127   21.7061 C   0  0  0  0  0  0  0  0  0  0  0  0
    9.6207  -15.6851   20.5156 O   0  0  0  0  0  0  0  0  0  0  0  0
    6.9667  -15.1507   19.1323 C   0  0  0  0  0  0  0  0  0  0  0  0
    7.1063  -15.0623   17.7625 C   0  0  0  0  0  0  0  0  0  0  0  0
   15.8092  -17.6992   24.0948 N   0  0  0  0  0  0  0  0  0  0  0  0
   14.5917  -17.0516   24.4254 C   0  0  0  0  0  0  0  0  0  0  0  0
   14.2212  -17.0209   25.6162 O   0  0  0  0  0  0  0  0  0  0  0  0
   13.8120  -16.4385   23.3216 C   0  0  0  0  0  0  0  0  0  0  0  0
   12.3402  -16.3421   23.5831 C   0  0  0  0  0  0  0  0  0  0  0  0
   11.6203  -15.6994   22.4529 C   0  0  2  0  0  0  0  0  0  0  0  0
   10.1720  -15.6508   22.7196 N   0  0  0  0  0  0  0  0  0  0  0  0
   11.7773  -16.5263   21.2374 C   0  0  0  0  0  0  0  0  0  0  0  0
   11.2600  -17.7981   21.0838 O   0  0  0  0  0  0  0  0  0  0  0  0
   12.4406  -16.0232   20.2684 O   0  0  0  0  0  0  0  0  0  0  0  0
  2  1  1  1
  3  2  1  0
  3  4  1  0
  4 12  1  0
  4  5  2  0
  5  6  1  0
  7  6  1  0
  7  8  2  0
  9  8  1  0
 10  9  2  0
 11 12  2  0
 11 10  1  0
 12  7  1  0
 13 14  2  0
 13  2  1  0
 15 16  1  0
 16 17  2  0
 17 18  1  0
 19 18  2  0
 19 20  1  0
 21 20  1  1
 21 22  1  0
 22 13  1  0
 23 21  1  0
 24 23  2  0
 25 19  1  0
 26 16  1  0
 26 25  2  0
 28 29  2  0
 28 27  1  0
 30 28  1  0
 32 31  1  1
 31 30  1  0
 32 33  1  0
 33 23  1  0
 34 35  1  0
 34 32  1  0
 36 34  2  0
M  END
$$$$
