WYQ.pdb
     RDKit          3D

 36 38  0  0  1  0  0  0  0  0999 V2000
    6.0120  -17.0936   24.8787 N   0  0  0  0  0  0  0  0  0  0  0  0
    7.3273  -16.7084   24.4067 C   0  0  1  0  0  0  0  0  0  0  0  0
    8.0970  -16.0697   25.5342 C   0  0  0  0  0  0  0  0  0  0  0  0
    7.2121  -15.0583   26.1562 C   0  0  0  0  0  0  0  0  0  0  0  0
    5.9294  -15.2441   26.6101 C   0  0  0  0  0  0  0  0  0  0  0  0
    5.4666  -14.0666   27.1108 N   0  0  0  0  0  0  0  0  0  0  0  0
    6.4078  -13.1248   26.9958 C   0  0  0  0  0  0  0  0  0  0  0  0
    6.4685  -11.8004   27.3301 C   0  0  0  0  0  0  0  0  0  0  0  0
    7.6146  -11.0380   27.0857 C   0  0  0  0  0  0  0  0  0  0  0  0
    8.7055  -11.6310   26.4964 C   0  0  0  0  0  0  0  0  0  0  0  0
    8.6258  -12.9636   26.1673 C   0  0  0  0  0  0  0  0  0  0  0  0
    7.4974  -13.7253   26.4049 C   0  0  0  0  0  0  0  0  0  0  0  0
    8.0815  -17.8631   23.8803 C   0  0  0  0  0  0  0  0  0  0  0  0
    7.7173  -19.0381   24.0491 O   0  0  0  0  0  0  0  0  0  0  0  0
    7.8453  -12.2068   17.6981 O   0  0  0  0  0  0  0  0  0  0  0  0
    8.0879  -12.9882   18.8413 C   0  0  0  0  0  0  0  0  0  0  0  0
    9.3518  -13.3827   19.1755 C   0  0  0  0  0  0  0  0  0  0  0  0
    9.5769  -14.1482   20.2982 C   0  0  0  0  0  0  0  0  0  0  0  0
    8.5353  -14.5520   21.1374 C   0  0  0  0  0  0  0  0  0  0  0  0
    8.7988  -15.3771   22.3386 C   0  0  0  0  0  0  0  0  0  0  0  0
    9.2434  -16.7669   21.9505 C   0  0  2  0  0  0  0  0  0  0  0  0
    9.2824  -17.5849   23.1467 N   0  0  0  0  0  0  0  0  0  0  0  0
   10.6037  -16.7590   21.3485 C   0  0  0  0  0  0  0  0  0  0  0  0
   10.8121  -16.1958   20.2329 O   0  0  0  0  0  0  0  0  0  0  0  0
    7.2663  -14.1342   20.7687 C   0  0  0  0  0  0  0  0  0  0  0  0
    7.0352  -13.3674   19.6452 C   0  0  0  0  0  0  0  0  0  0  0  0
   14.2918  -13.6106   19.4966 N   0  0  0  0  0  0  0  0  0  0  0  0
   14.0019  -14.8175   18.8107 C   0  0  0  0  0  0  0  0  0  0  0  0
   14.2885  -14.9150   17.6005 O   0  0  0  0  0  0  0  0  0  0  0  0
   13.3623  -15.9138   19.5794 C   0  0  0  0  0  0  0  0  0  0  0  0
   13.1140  -15.5950   21.0218 C   0  0  0  0  0  0  0  0  0  0  0  0
   13.0915  -16.8209   21.8616 C   0  0  2  0  0  0  0  0  0  0  0  0
   11.7236  -17.3597   21.9583 N   0  0  0  0  0  0  0  0  0  0  0  0
   13.4860  -16.4760   23.2441 C   0  0  0  0  0  0  0  0  0  0  0  0
   14.7647  -16.1202   23.6274 O   0  0  0  0  0  0  0  0  0  0  0  0
   12.5759  -16.5145   24.1398 O   0  0  0  0  0  0  0  0  0  0  0  0
  2  1  1  1
  3  2  1  0
  3  4  1  0
  4 12  1  0
  4  5  2  0
  5  6  1  0
  7  6  1  0
  7  8  2  0
  9  8  1  0
 10  9  2  0
 11 12  2  0
 11 10  1  0
 12  7  1  0
 13 14  2  0
 13  2  1  0
 15 16  1  0
 16 17  2  0
 17 18  1  0
 19 18  2  0
 19 20  1  0
 21 20  1  1
 21 22  1  0
 22 13  1  0
 23 21  1  0
 24 23  2  0
 25 19  1  0
 26 16  1  0
 26 25  2  0
 28 29  2  0
 28 27  1  0
 30 28  1  0
 32 31  1  6
 31 30  1  0
 32 33  1  0
 33 23  1  0
 34 35  1  0
 34 32  1  0
 36 34  2  0
M  END
$$$$
