WYQ.pdb
     RDKit          3D

 36 38  0  0  1  0  0  0  0  0999 V2000
    6.0164  -18.5184   23.7525 N   0  0  0  0  0  0  0  0  0  0  0  0
    6.6917  -17.2533   23.9639 C   0  0  1  0  0  0  0  0  0  0  0  0
    7.0185  -17.0982   25.4271 C   0  0  0  0  0  0  0  0  0  0  0  0
    6.6025  -15.7355   25.8308 C   0  0  0  0  0  0  0  0  0  0  0  0
    5.3210  -15.2491   25.9139 C   0  0  0  0  0  0  0  0  0  0  0  0
    5.3699  -13.9520   26.3218 N   0  0  0  0  0  0  0  0  0  0  0  0
    6.6412  -13.5830   26.5055 C   0  0  0  0  0  0  0  0  0  0  0  0
    7.2425  -12.4204   26.9008 C   0  0  0  0  0  0  0  0  0  0  0  0
    8.6326  -12.3175   27.0074 C   0  0  0  0  0  0  0  0  0  0  0  0
    9.4140  -13.4081   26.7087 C   0  0  0  0  0  0  0  0  0  0  0  0
    8.7915  -14.5684   26.3130 C   0  0  0  0  0  0  0  0  0  0  0  0
    7.4183  -14.6796   26.2046 C   0  0  0  0  0  0  0  0  0  0  0  0
    7.9283  -17.1508   23.1640 C   0  0  0  0  0  0  0  0  0  0  0  0
    8.5230  -18.1438   22.7145 O   0  0  0  0  0  0  0  0  0  0  0  0
    6.8030  -13.8109   16.8273 O   0  0  0  0  0  0  0  0  0  0  0  0
    7.5324  -13.9235   18.0239 C   0  0  0  0  0  0  0  0  0  0  0  0
    8.1844  -15.0778   18.3509 C   0  0  0  0  0  0  0  0  0  0  0  0
    8.8959  -15.1760   19.5263 C   0  0  0  0  0  0  0  0  0  0  0  0
    8.9826  -14.1122   20.4278 C   0  0  0  0  0  0  0  0  0  0  0  0
    9.7510  -14.2394   21.6873 C   0  0  0  0  0  0  0  0  0  0  0  0
    9.6970  -15.6547   22.2106 C   0  0  2  0  0  0  0  0  0  0  0  0
    8.4409  -15.8351   22.9117 N   0  0  0  0  0  0  0  0  0  0  0  0
   10.8050  -15.9289   23.1646 C   0  0  0  0  0  0  0  0  0  0  0  0
   12.0129  -15.7996   22.8046 O   0  0  0  0  0  0  0  0  0  0  0  0
    8.3093  -12.9565   20.0646 C   0  0  0  0  0  0  0  0  0  0  0  0
    7.5952  -12.8528   18.8886 C   0  0  0  0  0  0  0  0  0  0  0  0
   10.3200  -16.8910   29.4885 N   0  0  0  0  0  0  0  0  0  0  0  0
   11.7220  -16.8892   29.2751 C   0  0  0  0  0  0  0  0  0  0  0  0
   12.4872  -17.0370   30.2492 O   0  0  0  0  0  0  0  0  0  0  0  0
   12.2102  -16.7071   27.8857 C   0  0  0  0  0  0  0  0  0  0  0  0
   11.1266  -16.6299   26.8542 C   0  0  0  0  0  0  0  0  0  0  0  0
   11.6804  -16.4953   25.4817 C   0  0  2  0  0  0  0  0  0  0  0  0
   10.5959  -16.3399   24.4965 N   0  0  0  0  0  0  0  0  0  0  0  0
   12.3835  -17.7422   25.1118 C   0  0  0  0  0  0  0  0  0  0  0  0
   11.7664  -18.8644   24.5936 O   0  0  0  0  0  0  0  0  0  0  0  0
   13.6481  -17.7763   25.2890 O   0  0  0  0  0  0  0  0  0  0  0  0
  2  1  1  1
  3  2  1  0
  3  4  1  0
  4 12  1  0
  4  5  2  0
  5  6  1  0
  7  6  1  0
  7  8  2  0
  9  8  1  0
 10  9  2  0
 11 12  2  0
 11 10  1  0
 12  7  1  0
 13 14  2  0
 13  2  1  0
 15 16  1  0
 16 17  2  0
 17 18  1  0
 19 18  2  0
 19 20  1  0
 21 20  1  1
 21 22  1  0
 22 13  1  0
 23 21  1  0
 24 23  2  0
 25 19  1  0
 26 16  1  0
 26 25  2  0
 28 29  2  0
 28 27  1  0
 30 28  1  0
 32 31  1  1
 31 30  1  0
 32 33  1  0
 33 23  1  0
 34 35  1  0
 34 32  1  0
 36 34  2  0
M  END
$$$$
