WYQ.pdb
     RDKit          3D

 36 38  0  0  1  0  0  0  0  0999 V2000
    5.7009  -18.2720   23.8995 N   0  0  0  0  0  0  0  0  0  0  0  0
    6.4228  -17.0355   24.1256 C   0  0  1  0  0  0  0  0  0  0  0  0
    6.6776  -16.8668   25.6015 C   0  0  0  0  0  0  0  0  0  0  0  0
    6.2657  -15.4921   25.9669 C   0  0  0  0  0  0  0  0  0  0  0  0
    4.9841  -15.0123   26.0816 C   0  0  0  0  0  0  0  0  0  0  0  0
    5.0375  -13.6995   26.4351 N   0  0  0  0  0  0  0  0  0  0  0  0
    6.3117  -13.3140   26.5531 C   0  0  0  0  0  0  0  0  0  0  0  0
    6.9176  -12.1321   26.8775 C   0  0  0  0  0  0  0  0  0  0  0  0
    8.3099  -12.0147   26.9244 C   0  0  0  0  0  0  0  0  0  0  0  0
    9.0886  -13.1106   26.6385 C   0  0  0  0  0  0  0  0  0  0  0  0
    8.4615  -14.2904   26.3145 C   0  0  0  0  0  0  0  0  0  0  0  0
    7.0860  -14.4161   26.2655 C   0  0  0  0  0  0  0  0  0  0  0  0
    7.7039  -17.0059   23.3926 C   0  0  0  0  0  0  0  0  0  0  0  0
    8.3542  -18.0313   23.1328 O   0  0  0  0  0  0  0  0  0  0  0  0
    6.9799  -14.0545   16.5368 O   0  0  0  0  0  0  0  0  0  0  0  0
    7.6026  -14.0911   17.7968 C   0  0  0  0  0  0  0  0  0  0  0  0
    7.5791  -13.0104   18.6310 C   0  0  0  0  0  0  0  0  0  0  0  0
    8.1929  -13.0585   19.8632 C   0  0  0  0  0  0  0  0  0  0  0  0
    8.8600  -14.2013   20.3115 C   0  0  0  0  0  0  0  0  0  0  0  0
    9.5155  -14.2313   21.6391 C   0  0  0  0  0  0  0  0  0  0  0  0
    9.4409  -15.6121   22.2456 C   0  0  2  0  0  0  0  0  0  0  0  0
    8.1933  -15.7237   22.9755 N   0  0  0  0  0  0  0  0  0  0  0  0
   10.5589  -15.8540   23.1966 C   0  0  0  0  0  0  0  0  0  0  0  0
   10.8797  -14.9759   24.0517 O   0  0  0  0  0  0  0  0  0  0  0  0
    8.8643  -15.2789   19.4400 C   0  0  0  0  0  0  0  0  0  0  0  0
    8.2511  -15.2362   18.2048 C   0  0  0  0  0  0  0  0  0  0  0  0
   11.7513  -20.6902   26.4870 N   0  0  0  0  0  0  0  0  0  0  0  0
   10.8518  -19.6024   26.6229 C   0  0  0  0  0  0  0  0  0  0  0  0
    9.9040  -19.6920   27.4291 O   0  0  0  0  0  0  0  0  0  0  0  0
   11.0883  -18.4002   25.7859 C   0  0  0  0  0  0  0  0  0  0  0  0
   12.2999  -18.4854   24.9090 C   0  0  0  0  0  0  0  0  0  0  0  0
   12.4789  -17.2551   24.0948 C   0  0  2  0  0  0  0  0  0  0  0  0
   11.3178  -17.0417   23.2131 N   0  0  0  0  0  0  0  0  0  0  0  0
   13.6399  -17.4265   23.1955 C   0  0  0  0  0  0  0  0  0  0  0  0
   14.9532  -17.4989   23.6182 O   0  0  0  0  0  0  0  0  0  0  0  0
   13.4033  -17.5100   21.9429 O   0  0  0  0  0  0  0  0  0  0  0  0
  2  1  1  1
  3  2  1  0
  3  4  1  0
  4 12  1  0
  4  5  2  0
  5  6  1  0
  7  6  1  0
  7  8  2  0
  9  8  1  0
 10  9  2  0
 11 12  2  0
 11 10  1  0
 12  7  1  0
 13 14  2  0
 13  2  1  0
 15 16  1  0
 16 17  2  0
 17 18  1  0
 19 18  2  0
 19 20  1  0
 21 20  1  1
 21 22  1  0
 22 13  1  0
 23 21  1  0
 24 23  2  0
 25 19  1  0
 26 16  1  0
 26 25  2  0
 28 29  2  0
 28 27  1  0
 30 28  1  0
 32 31  1  6
 31 30  1  0
 32 33  1  0
 33 23  1  0
 34 35  1  0
 34 32  1  0
 36 34  2  0
M  END
$$$$
