WYQ.pdb
     RDKit          3D

 36 38  0  0  1  0  0  0  0  0999 V2000
    7.2631  -17.7176   26.2332 N   0  0  0  0  0  0  0  0  0  0  0  0
    7.4279  -16.4575   25.5359 C   0  0  1  0  0  0  0  0  0  0  0  0
    8.7379  -15.8299   25.9382 C   0  0  0  0  0  0  0  0  0  0  0  0
    8.4433  -14.8242   26.9845 C   0  0  0  0  0  0  0  0  0  0  0  0
    8.9339  -14.7920   28.2667 C   0  0  0  0  0  0  0  0  0  0  0  0
    8.4193  -13.7067   28.9059 N   0  0  0  0  0  0  0  0  0  0  0  0
    7.6118  -13.0354   28.0793 C   0  0  0  0  0  0  0  0  0  0  0  0
    6.8573  -11.9021   28.2052 C   0  0  0  0  0  0  0  0  0  0  0  0
    6.0873  -11.4165   27.1441 C   0  0  0  0  0  0  0  0  0  0  0  0
    6.0875  -12.0919   25.9471 C   0  0  0  0  0  0  0  0  0  0  0  0
    6.8522  -13.2293   25.8393 C   0  0  0  0  0  0  0  0  0  0  0  0
    7.6164  -13.7170   26.8825 C   0  0  0  0  0  0  0  0  0  0  0  0
    7.3885  -16.6319   24.0705 C   0  0  0  0  0  0  0  0  0  0  0  0
    7.6456  -17.7118   23.5143 O   0  0  0  0  0  0  0  0  0  0  0  0
    8.9058  -13.1877   16.0617 O   0  0  0  0  0  0  0  0  0  0  0  0
    8.4183  -13.4079   17.3619 C   0  0  0  0  0  0  0  0  0  0  0  0
    8.8606  -12.6668   18.4199 C   0  0  0  0  0  0  0  0  0  0  0  0
    8.3755  -12.8920   19.6893 C   0  0  0  0  0  0  0  0  0  0  0  0
    7.4199  -13.8773   19.9503 C   0  0  0  0  0  0  0  0  0  0  0  0
    6.9131  -14.1048   21.3231 C   0  0  0  0  0  0  0  0  0  0  0  0
    7.5270  -15.3460   21.9251 C   0  0  2  0  0  0  0  0  0  0  0  0
    7.0352  -15.4872   23.2815 N   0  0  0  0  0  0  0  0  0  0  0  0
    9.0108  -15.2540   21.9761 C   0  0  0  0  0  0  0  0  0  0  0  0
    9.5936  -14.7930   23.0023 O   0  0  0  0  0  0  0  0  0  0  0  0
    6.9934  -14.6103   18.8542 C   0  0  0  0  0  0  0  0  0  0  0  0
    7.4760  -14.3889   17.5807 C   0  0  0  0  0  0  0  0  0  0  0  0
   12.0226  -19.2549   23.6822 N   0  0  0  0  0  0  0  0  0  0  0  0
   13.1435  -18.6658   23.0437 C   0  0  0  0  0  0  0  0  0  0  0  0
   14.2834  -19.1175   23.2738 O   0  0  0  0  0  0  0  0  0  0  0  0
   12.8971  -17.5267   22.1252 C   0  0  0  0  0  0  0  0  0  0  0  0
   11.4534  -17.1585   21.9696 C   0  0  0  0  0  0  0  0  0  0  0  0
   11.2778  -15.9773   21.0850 C   0  0  2  0  0  0  0  0  0  0  0  0
    9.8485  -15.6608   20.9180 N   0  0  0  0  0  0  0  0  0  0  0  0
   11.7788  -16.2990   19.7317 C   0  0  0  0  0  0  0  0  0  0  0  0
   13.0915  -16.1508   19.3274 O   0  0  0  0  0  0  0  0  0  0  0  0
   10.9322  -16.7416   18.8836 O   0  0  0  0  0  0  0  0  0  0  0  0
  2  1  1  1
  3  2  1  0
  3  4  1  0
  4 12  1  0
  4  5  2  0
  5  6  1  0
  7  6  1  0
  7  8  2  0
  9  8  1  0
 10  9  2  0
 11 12  2  0
 11 10  1  0
 12  7  1  0
 13 14  2  0
 13  2  1  0
 15 16  1  0
 16 17  2  0
 17 18  1  0
 19 18  2  0
 19 20  1  0
 21 20  1  1
 21 22  1  0
 22 13  1  0
 23 21  1  0
 24 23  2  0
 25 19  1  0
 26 16  1  0
 26 25  2  0
 28 29  2  0
 28 27  1  0
 30 28  1  0
 32 31  1  1
 31 30  1  0
 32 33  1  0
 33 23  1  0
 34 35  1  0
 34 32  1  0
 36 34  2  0
M  END
$$$$
