WYQ.pdb
     RDKit          3D

 36 38  0  0  1  0  0  0  0  0999 V2000
    6.6473  -18.7286   25.4706 N   0  0  0  0  0  0  0  0  0  0  0  0
    6.7346  -17.3094   25.1882 C   0  0  1  0  0  0  0  0  0  0  0  0
    7.4681  -16.6197   26.3099 C   0  0  0  0  0  0  0  0  0  0  0  0
    6.7080  -15.3944   26.6474 C   0  0  0  0  0  0  0  0  0  0  0  0
    5.3690  -15.3016   26.9379 C   0  0  0  0  0  0  0  0  0  0  0  0
    5.0646  -14.0001   27.1920 N   0  0  0  0  0  0  0  0  0  0  0  0
    6.1629  -13.2474   27.0756 C   0  0  0  0  0  0  0  0  0  0  0  0
    6.4153  -11.9114   27.2194 C   0  0  0  0  0  0  0  0  0  0  0  0
    7.6973  -11.3866   27.0312 C   0  0  0  0  0  0  0  0  0  0  0  0
    8.7282  -12.2308   26.6940 C   0  0  0  0  0  0  0  0  0  0  0  0
    8.4553  -13.5710   26.5538 C   0  0  0  0  0  0  0  0  0  0  0  0
    7.1914  -14.0990   26.7378 C   0  0  0  0  0  0  0  0  0  0  0  0
    7.4210  -17.0456   23.9081 C   0  0  0  0  0  0  0  0  0  0  0  0
    8.2417  -17.8331   23.4100 O   0  0  0  0  0  0  0  0  0  0  0  0
    9.0916  -12.9979   16.2367 O   0  0  0  0  0  0  0  0  0  0  0  0
    8.5989  -13.3007   17.5181 C   0  0  0  0  0  0  0  0  0  0  0  0
    9.1059  -12.6977   18.6334 C   0  0  0  0  0  0  0  0  0  0  0  0
    8.6149  -13.0028   19.8837 C   0  0  0  0  0  0  0  0  0  0  0  0
    7.5877  -13.9320   20.0669 C   0  0  0  0  0  0  0  0  0  0  0  0
    7.0758  -14.2473   21.4202 C   0  0  0  0  0  0  0  0  0  0  0  0
    7.7326  -15.4915   21.9682 C   0  0  2  0  0  0  0  0  0  0  0  0
    7.1064  -15.8192   23.2340 N   0  0  0  0  0  0  0  0  0  0  0  0
    9.1858  -15.2833   22.2090 C   0  0  0  0  0  0  0  0  0  0  0  0
    9.5915  -14.7511   23.2849 O   0  0  0  0  0  0  0  0  0  0  0  0
    7.0968  -14.5245   18.9142 C   0  0  0  0  0  0  0  0  0  0  0  0
    7.5850  -14.2227   17.6595 C   0  0  0  0  0  0  0  0  0  0  0  0
   13.6489  -18.6550   24.5040 N   0  0  0  0  0  0  0  0  0  0  0  0
   13.8044  -18.4768   23.1058 C   0  0  0  0  0  0  0  0  0  0  0  0
   14.2651  -19.4112   22.4195 O   0  0  0  0  0  0  0  0  0  0  0  0
   13.4072  -17.1697   22.5264 C   0  0  0  0  0  0  0  0  0  0  0  0
   11.9454  -17.0457   22.2237 C   0  0  0  0  0  0  0  0  0  0  0  0
   11.6171  -15.7280   21.6198 C   0  0  2  0  0  0  0  0  0  0  0  0
   10.1842  -15.6521   21.2850 N   0  0  0  0  0  0  0  0  0  0  0  0
   12.3376  -15.5830   20.3369 C   0  0  0  0  0  0  0  0  0  0  0  0
   13.6133  -15.0684   20.2097 O   0  0  0  0  0  0  0  0  0  0  0  0
   11.7301  -15.9598   19.2782 O   0  0  0  0  0  0  0  0  0  0  0  0
  2  1  1  1
  3  2  1  0
  3  4  1  0
  4 12  1  0
  4  5  2  0
  5  6  1  0
  7  6  1  0
  7  8  2  0
  9  8  1  0
 10  9  2  0
 11 12  2  0
 11 10  1  0
 12  7  1  0
 13 14  2  0
 13  2  1  0
 15 16  1  0
 16 17  2  0
 17 18  1  0
 19 18  2  0
 19 20  1  0
 21 20  1  1
 21 22  1  0
 22 13  1  0
 23 21  1  0
 24 23  2  0
 25 19  1  0
 26 16  1  0
 26 25  2  0
 28 29  2  0
 28 27  1  0
 30 28  1  0
 32 31  1  6
 31 30  1  0
 32 33  1  0
 33 23  1  0
 34 35  1  0
 34 32  1  0
 36 34  2  0
M  END
$$$$
