FMY.pdb
     RDKit          3D

 32 33  0  0  1  0  0  0  0  0999 V2000
   30.1746  -26.6946  -16.5898 N   0  0  0  0  0  0  0  0  0  0  0  0
   29.9042  -25.6453  -17.5506 C   0  0  1  0  0  0  0  0  0  0  0  0
   28.7784  -26.1393  -18.4323 C   0  0  0  0  0  0  0  0  0  0  0  0
   27.6555  -26.5049  -17.5298 C   0  0  0  0  0  0  0  0  0  0  0  0
   27.1751  -27.7907  -17.3992 C   0  0  0  0  0  0  0  0  0  0  0  0
   26.1240  -28.0938  -16.5454 C   0  0  0  0  0  0  0  0  0  0  0  0
   25.5343  -27.0986  -15.8026 C   0  0  0  0  0  0  0  0  0  0  0  0
   25.9967  -25.8244  -15.9200 C   0  0  0  0  0  0  0  0  0  0  0  0
   27.0470  -25.5234  -16.7735 C   0  0  0  0  0  0  0  0  0  0  0  0
   29.5587  -24.4177  -16.8226 C   0  0  0  0  0  0  0  0  0  0  0  0
   29.6378  -24.4059  -15.5717 O   0  0  0  0  0  0  0  0  0  0  0  0
   28.9317  -16.5154  -17.2149 C   0  0  0  0  0  0  0  0  0  0  0  0
   28.8233  -18.1020  -18.0437 S   0  0  0  0  0  0  0  0  0  0  0  0
   28.9637  -19.5024  -16.8990 C   0  0  0  0  0  0  0  0  0  0  0  0
   28.9877  -20.7795  -17.6991 C   0  0  0  0  0  0  0  0  0  0  0  0
   28.9584  -21.9597  -16.7505 C   0  0  2  0  0  0  0  0  0  0  0  0
   29.1315  -23.2153  -17.4496 N   0  0  0  0  0  0  0  0  0  0  0  0
   27.6991  -21.9875  -15.9699 C   0  0  0  0  0  0  0  0  0  0  0  0
   27.7003  -21.6003  -14.7718 O   0  0  0  0  0  0  0  0  0  0  0  0
   20.0933  -20.2029  -12.6398 O   0  0  0  0  0  0  0  0  0  0  0  0
   21.2703  -20.3483  -13.3494 C   0  0  0  0  0  0  0  0  0  0  0  0
   21.3180  -20.2344  -14.7097 C   0  0  0  0  0  0  0  0  0  0  0  0
   22.5102  -20.3852  -15.3898 C   0  0  0  0  0  0  0  0  0  0  0  0
   23.6878  -20.6538  -14.7319 C   0  0  0  0  0  0  0  0  0  0  0  0
   24.9863  -20.8262  -15.4075 C   0  0  0  0  0  0  0  0  0  0  0  0
   25.1886  -22.2513  -15.7802 C   0  0  2  0  0  0  0  0  0  0  0  0
   26.4672  -22.4326  -16.5010 N   0  0  0  0  0  0  0  0  0  0  0  0
   24.0870  -22.8758  -16.5310 C   0  0  0  0  0  0  0  0  0  0  0  0
   23.9998  -22.8277  -17.7755 O   0  0  0  0  0  0  0  0  0  0  0  0
   23.6202  -20.7655  -13.3566 C   0  0  0  0  0  0  0  0  0  0  0  0
   22.4367  -20.6173  -12.6648 C   0  0  0  0  0  0  0  0  0  0  0  0
   23.0957  -23.5500  -15.8439 O   0  0  0  0  0  0  0  0  0  0  0  0
  2  1  1  1
  2 10  1  0
  2  3  1  0
  4  3  1  0
  4  9  1  0
  5  4  2  0
  6  5  1  0
  6  7  2  0
  7  8  1  0
  8  9  2  0
 10 11  2  0
 13 12  1  0
 14 13  1  0
 14 15  1  0
 16 15  1  6
 17 16  1  0
 17 10  1  0
 18 19  2  0
 18 16  1  0
 20 21  1  0
 21 31  2  0
 21 22  1  0
 22 23  2  0
 23 24  1  0
 24 25  1  0
 26 25  1  6
 26 27  1  0
 27 18  1  0
 28 26  1  0
 28 32  1  0
 29 28  2  0
 30 24  2  0
 31 30  1  0
M  END
$$$$
