FMY.pdb
     RDKit          3D

 32 33  0  0  1  0  0  0  0  0999 V2000
   28.9066  -32.3726  -15.4652 N   0  0  0  0  0  0  0  0  0  0  0  0
   28.3214  -32.2702  -16.7858 C   0  0  1  0  0  0  0  0  0  0  0  0
   27.2309  -33.3161  -16.8630 C   0  0  0  0  0  0  0  0  0  0  0  0
   27.8831  -34.5862  -17.2758 C   0  0  0  0  0  0  0  0  0  0  0  0
   28.3486  -34.8199  -18.5524 C   0  0  0  0  0  0  0  0  0  0  0  0
   28.9527  -36.0196  -18.9007 C   0  0  0  0  0  0  0  0  0  0  0  0
   29.0993  -37.0123  -17.9611 C   0  0  0  0  0  0  0  0  0  0  0  0
   28.6452  -36.7975  -16.6966 C   0  0  0  0  0  0  0  0  0  0  0  0
   28.0419  -35.5982  -16.3504 C   0  0  0  0  0  0  0  0  0  0  0  0
   27.8132  -30.9051  -16.9713 C   0  0  0  0  0  0  0  0  0  0  0  0
   27.9243  -30.0789  -16.0353 O   0  0  0  0  0  0  0  0  0  0  0  0
   28.6760  -25.8457  -21.0502 C   0  0  0  0  0  0  0  0  0  0  0  0
   29.6366  -27.2419  -20.4638 S   0  0  0  0  0  0  0  0  0  0  0  0
   28.8258  -28.1305  -19.1058 C   0  0  0  0  0  0  0  0  0  0  0  0
   27.3903  -28.3879  -19.4863 C   0  0  0  0  0  0  0  0  0  0  0  0
   26.6937  -29.0962  -18.3432 C   0  0  2  0  0  0  0  0  0  0  0  0
   27.1908  -30.4437  -18.1634 N   0  0  0  0  0  0  0  0  0  0  0  0
   25.2260  -29.1239  -18.5461 C   0  0  0  0  0  0  0  0  0  0  0  0
   24.7178  -29.9947  -19.3004 O   0  0  0  0  0  0  0  0  0  0  0  0
   22.5126  -34.4353  -17.0901 O   0  0  0  0  0  0  0  0  0  0  0  0
   22.4496  -33.0553  -17.0531 C   0  0  0  0  0  0  0  0  0  0  0  0
   23.2564  -32.3122  -16.2391 C   0  0  0  0  0  0  0  0  0  0  0  0
   23.1691  -30.9342  -16.2251 C   0  0  0  0  0  0  0  0  0  0  0  0
   22.2747  -30.2593  -17.0227 C   0  0  0  0  0  0  0  0  0  0  0  0
   22.1382  -28.7920  -17.0459 C   0  0  0  0  0  0  0  0  0  0  0  0
   22.8862  -28.2226  -18.1980 C   0  0  2  0  0  0  0  0  0  0  0  0
   24.3406  -28.2107  -17.9299 N   0  0  0  0  0  0  0  0  0  0  0  0
   22.4408  -26.8953  -18.6532 C   0  0  0  0  0  0  0  0  0  0  0  0
   23.2176  -25.9273  -18.7886 O   0  0  0  0  0  0  0  0  0  0  0  0
   21.4672  -31.0272  -17.8392 C   0  0  0  0  0  0  0  0  0  0  0  0
   21.5437  -32.4037  -17.8632 C   0  0  0  0  0  0  0  0  0  0  0  0
   21.1061  -26.6932  -18.9485 O   0  0  0  0  0  0  0  0  0  0  0  0
  2  1  1  1
  2 10  1  0
  2  3  1  0
  4  3  1  0
  4  9  1  0
  5  4  2  0
  6  5  1  0
  6  7  2  0
  7  8  1  0
  8  9  2  0
 10 11  2  0
 13 12  1  0
 14 13  1  0
 14 15  1  0
 16 15  1  6
 17 16  1  0
 17 10  1  0
 18 19  2  0
 18 16  1  0
 20 21  1  0
 21 31  2  0
 21 22  1  0
 22 23  2  0
 23 24  1  0
 24 25  1  0
 26 25  1  1
 26 27  1  0
 27 18  1  0
 28 26  1  0
 28 32  1  0
 29 28  2  0
 30 24  2  0
 31 30  1  0
M  END
$$$$
