FMY.pdb
     RDKit          3D

 32 33  0  0  1  0  0  0  0  0999 V2000
   23.9669  -17.6374  -19.8311 N   0  0  0  0  0  0  0  0  0  0  0  0
   24.3892  -17.4283  -18.4618 C   0  0  1  0  0  0  0  0  0  0  0  0
   23.3637  -16.5185  -17.8220 C   0  0  0  0  0  0  0  0  0  0  0  0
   23.4831  -15.1981  -18.4938 C   0  0  0  0  0  0  0  0  0  0  0  0
   22.4964  -14.6622  -19.2940 C   0  0  0  0  0  0  0  0  0  0  0  0
   22.6442  -13.4251  -19.9051 C   0  0  0  0  0  0  0  0  0  0  0  0
   23.7978  -12.7010  -19.7186 C   0  0  0  0  0  0  0  0  0  0  0  0
   24.7811  -13.2158  -18.9317 C   0  0  0  0  0  0  0  0  0  0  0  0
   24.6318  -14.4520  -18.3220 C   0  0  0  0  0  0  0  0  0  0  0  0
   24.4863  -18.7327  -17.7944 C   0  0  0  0  0  0  0  0  0  0  0  0
   23.5885  -19.5860  -17.9865 O   0  0  0  0  0  0  0  0  0  0  0  0
   28.6297  -18.8130  -12.0076 C   0  0  0  0  0  0  0  0  0  0  0  0
   28.4058  -19.9933  -13.3389 S   0  0  0  0  0  0  0  0  0  0  0  0
   27.1719  -19.4540  -14.5545 C   0  0  0  0  0  0  0  0  0  0  0  0
   26.9499  -20.5687  -15.5443 C   0  0  0  0  0  0  0  0  0  0  0  0
   25.6117  -20.3687  -16.2246 C   0  0  2  0  0  0  0  0  0  0  0  0
   25.5496  -19.1046  -16.9269 N   0  0  0  0  0  0  0  0  0  0  0  0
   24.4980  -20.4591  -15.2512 C   0  0  0  0  0  0  0  0  0  0  0  0
   23.7785  -19.4492  -15.0324 O   0  0  0  0  0  0  0  0  0  0  0  0
   17.5648  -21.8393  -10.4435 O   0  0  0  0  0  0  0  0  0  0  0  0
   18.6025  -21.7347  -11.3502 C   0  0  0  0  0  0  0  0  0  0  0  0
   19.1833  -22.8316  -11.9204 C   0  0  0  0  0  0  0  0  0  0  0  0
   20.2188  -22.6936  -12.8233 C   0  0  0  0  0  0  0  0  0  0  0  0
   20.7037  -21.4576  -13.1824 C   0  0  0  0  0  0  0  0  0  0  0  0
   21.8069  -21.2531  -14.1382 C   0  0  0  0  0  0  0  0  0  0  0  0
   23.0962  -21.6878  -13.5385 C   0  0  2  0  0  0  0  0  0  0  0  0
   24.1866  -21.6380  -14.5364 N   0  0  0  0  0  0  0  0  0  0  0  0
   23.0773  -22.9987  -12.8689 C   0  0  0  0  0  0  0  0  0  0  0  0
   22.4927  -23.1994  -11.7841 O   0  0  0  0  0  0  0  0  0  0  0  0
   20.1042  -20.3600  -12.5957 C   0  0  0  0  0  0  0  0  0  0  0  0
   19.0696  -20.4833  -11.6927 C   0  0  0  0  0  0  0  0  0  0  0  0
   23.7308  -24.0671  -13.4528 O   0  0  0  0  0  0  0  0  0  0  0  0
  2  1  1  6
  2 10  1  0
  2  3  1  0
  4  3  1  0
  4  9  1  0
  5  4  2  0
  6  5  1  0
  6  7  2  0
  7  8  1  0
  8  9  2  0
 10 11  2  0
 13 12  1  0
 14 13  1  0
 14 15  1  0
 16 15  1  1
 17 16  1  0
 17 10  1  0
 18 19  2  0
 18 16  1  0
 20 21  1  0
 21 31  2  0
 21 22  1  0
 22 23  2  0
 23 24  1  0
 24 25  1  0
 26 25  1  6
 26 27  1  0
 27 18  1  0
 28 26  1  0
 28 32  1  0
 29 28  2  0
 30 24  2  0
 31 30  1  0
M  END
$$$$
