FMY.pdb
     RDKit          3D

 32 33  0  0  1  0  0  0  0  0999 V2000
   24.0785  -19.1140  -16.9785 N   0  0  0  0  0  0  0  0  0  0  0  0
   23.0193  -18.7383  -16.0652 C   0  0  1  0  0  0  0  0  0  0  0  0
   21.8024  -18.4304  -16.9099 C   0  0  0  0  0  0  0  0  0  0  0  0
   22.0318  -17.0957  -17.5222 C   0  0  0  0  0  0  0  0  0  0  0  0
   22.3349  -15.9673  -16.7902 C   0  0  0  0  0  0  0  0  0  0  0  0
   22.5426  -14.7372  -17.3979 C   0  0  0  0  0  0  0  0  0  0  0  0
   22.4476  -14.6221  -18.7645 C   0  0  0  0  0  0  0  0  0  0  0  0
   22.1492  -15.7263  -19.5014 C   0  0  0  0  0  0  0  0  0  0  0  0
   21.9421  -16.9546  -18.8925 C   0  0  0  0  0  0  0  0  0  0  0  0
   22.7934  -19.8438  -15.1255 C   0  0  0  0  0  0  0  0  0  0  0  0
   22.9674  -21.0224  -15.5149 O   0  0  0  0  0  0  0  0  0  0  0  0
   26.5309  -20.8340   -9.6212 C   0  0  0  0  0  0  0  0  0  0  0  0
   24.7961  -20.4155   -9.7973 S   0  0  0  0  0  0  0  0  0  0  0  0
   24.1587  -20.7523  -11.4620 C   0  0  0  0  0  0  0  0  0  0  0  0
   22.6776  -20.4732  -11.4776 C   0  0  0  0  0  0  0  0  0  0  0  0
   22.1330  -20.7620  -12.8609 C   0  0  2  0  0  0  0  0  0  0  0  0
   22.3826  -19.6684  -13.7758 N   0  0  0  0  0  0  0  0  0  0  0  0
   20.6817  -21.0575  -12.8135 C   0  0  0  0  0  0  0  0  0  0  0  0
   19.8601  -20.1186  -12.6435 O   0  0  0  0  0  0  0  0  0  0  0  0
   20.7574  -28.4606  -14.2160 O   0  0  0  0  0  0  0  0  0  0  0  0
   20.1088  -27.2425  -14.1418 C   0  0  0  0  0  0  0  0  0  0  0  0
   18.9520  -27.0766  -13.4348 C   0  0  0  0  0  0  0  0  0  0  0  0
   18.3278  -25.8462  -13.3802 C   0  0  0  0  0  0  0  0  0  0  0  0
   18.8403  -24.7472  -14.0292 C   0  0  0  0  0  0  0  0  0  0  0  0
   18.2147  -23.4128  -14.0061 C   0  0  0  0  0  0  0  0  0  0  0  0
   18.7019  -22.6349  -12.8363 C   0  0  2  0  0  0  0  0  0  0  0  0
   20.1506  -22.3601  -12.9508 N   0  0  0  0  0  0  0  0  0  0  0  0
   18.3948  -23.2100  -11.5165 C   0  0  0  0  0  0  0  0  0  0  0  0
   19.2758  -23.6154  -10.7301 O   0  0  0  0  0  0  0  0  0  0  0  0
   20.0107  -24.9339  -14.7390 C   0  0  0  0  0  0  0  0  0  0  0  0
   20.6444  -26.1568  -14.8020 C   0  0  0  0  0  0  0  0  0  0  0  0
   17.0774  -23.3139  -11.1128 O   0  0  0  0  0  0  0  0  0  0  0  0
  2  1  1  6
  2 10  1  0
  2  3  1  0
  4  3  1  0
  4  9  1  0
  5  4  2  0
  6  5  1  0
  6  7  2  0
  7  8  1  0
  8  9  2  0
 10 11  2  0
 13 12  1  0
 14 13  1  0
 14 15  1  0
 16 15  1  1
 17 16  1  0
 17 10  1  0
 18 19  2  0
 18 16  1  0
 20 21  1  0
 21 31  2  0
 21 22  1  0
 22 23  2  0
 23 24  1  0
 24 25  1  0
 26 25  1  6
 26 27  1  0
 27 18  1  0
 28 26  1  0
 28 32  1  0
 29 28  2  0
 30 24  2  0
 31 30  1  0
M  END
$$$$
