FMY.pdb
     RDKit          3D

 32 33  0  0  1  0  0  0  0  0999 V2000
   21.9476   -6.2585  -15.3448 N   0  0  0  0  0  0  0  0  0  0  0  0
   22.1773   -7.6024  -15.8333 C   0  0  1  0  0  0  0  0  0  0  0  0
   21.1672   -8.4956  -15.1471 C   0  0  0  0  0  0  0  0  0  0  0  0
   21.6432   -8.6890  -13.7525 C   0  0  0  0  0  0  0  0  0  0  0  0
   21.1417   -7.9886  -12.6759 C   0  0  0  0  0  0  0  0  0  0  0  0
   21.6116   -8.1969  -11.3869 C   0  0  0  0  0  0  0  0  0  0  0  0
   22.6027   -9.1219  -11.1588 C   0  0  0  0  0  0  0  0  0  0  0  0
   23.1083   -9.8214  -12.2107 C   0  0  0  0  0  0  0  0  0  0  0  0
   22.6376   -9.6120  -13.4978 C   0  0  0  0  0  0  0  0  0  0  0  0
   22.0356   -7.6029  -17.2949 C   0  0  0  0  0  0  0  0  0  0  0  0
   21.3819   -6.6864  -17.8461 O   0  0  0  0  0  0  0  0  0  0  0  0
   24.6434  -10.0209  -24.3737 C   0  0  0  0  0  0  0  0  0  0  0  0
   24.7134  -10.1476  -22.5863 S   0  0  0  0  0  0  0  0  0  0  0  0
   23.3407   -9.2893  -21.7678 C   0  0  0  0  0  0  0  0  0  0  0  0
   23.5738   -9.3154  -20.2790 C   0  0  0  0  0  0  0  0  0  0  0  0
   22.4297   -8.6061  -19.5852 C   0  0  2  0  0  0  0  0  0  0  0  0
   22.5996   -8.5906  -18.1478 N   0  0  0  0  0  0  0  0  0  0  0  0
   21.1282   -9.2243  -19.9317 C   0  0  0  0  0  0  0  0  0  0  0  0
   20.7507  -10.2618  -19.3263 O   0  0  0  0  0  0  0  0  0  0  0  0
   12.7574  -10.7113  -20.7589 O   0  0  0  0  0  0  0  0  0  0  0  0
   14.0695  -10.3479  -20.5219 C   0  0  0  0  0  0  0  0  0  0  0  0
   14.9512  -11.1782  -19.8904 C   0  0  0  0  0  0  0  0  0  0  0  0
   16.2563  -10.7856  -19.6683 C   0  0  0  0  0  0  0  0  0  0  0  0
   16.7180   -9.5539  -20.0702 C   0  0  0  0  0  0  0  0  0  0  0  0
   18.0985   -9.0837  -19.8570 C   0  0  0  0  0  0  0  0  0  0  0  0
   18.8878   -9.2162  -21.1101 C   0  0  2  0  0  0  0  0  0  0  0  0
   20.2642   -8.7080  -20.9240 N   0  0  0  0  0  0  0  0  0  0  0  0
   18.2816   -8.6183  -22.3110 C   0  0  0  0  0  0  0  0  0  0  0  0
   17.5655   -9.2640  -23.1041 O   0  0  0  0  0  0  0  0  0  0  0  0
   15.8123   -8.7278  -20.7072 C   0  0  0  0  0  0  0  0  0  0  0  0
   14.5064   -9.1071  -20.9353 C   0  0  0  0  0  0  0  0  0  0  0  0
   18.5042   -7.2831  -22.5890 O   0  0  0  0  0  0  0  0  0  0  0  0
  2  1  1  1
  2 10  1  0
  2  3  1  0
  4  3  1  0
  4  9  1  0
  5  4  2  0
  6  5  1  0
  6  7  2  0
  7  8  1  0
  8  9  2  0
 10 11  2  0
 13 12  1  0
 14 13  1  0
 14 15  1  0
 16 15  1  6
 17 16  1  0
 17 10  1  0
 18 19  2  0
 18 16  1  0
 20 21  1  0
 21 31  2  0
 21 22  1  0
 22 23  2  0
 23 24  1  0
 24 25  1  0
 26 25  1  1
 26 27  1  0
 27 18  1  0
 28 26  1  0
 28 32  1  0
 29 28  2  0
 30 24  2  0
 31 30  1  0
M  END
$$$$
