FMY.pdb
     RDKit          3D

 32 33  0  0  1  0  0  0  0  0999 V2000
   22.4013  -13.6413  -17.5561 N   0  0  0  0  0  0  0  0  0  0  0  0
   23.2238  -12.8046  -18.4051 C   0  0  1  0  0  0  0  0  0  0  0  0
   22.2939  -12.1387  -19.3955 C   0  0  0  0  0  0  0  0  0  0  0  0
   22.3688  -12.9287  -20.6522 C   0  0  0  0  0  0  0  0  0  0  0  0
   21.4849  -13.9390  -20.9669 C   0  0  0  0  0  0  0  0  0  0  0  0
   21.5867  -14.6551  -22.1512 C   0  0  0  0  0  0  0  0  0  0  0  0
   22.5888  -14.3631  -23.0458 C   0  0  0  0  0  0  0  0  0  0  0  0
   23.4694  -13.3688  -22.7501 C   0  0  0  0  0  0  0  0  0  0  0  0
   23.3661  -12.6544  -21.5664 C   0  0  0  0  0  0  0  0  0  0  0  0
   23.9413  -11.8396  -17.5624 C   0  0  0  0  0  0  0  0  0  0  0  0
   23.4035  -11.4317  -16.5063 O   0  0  0  0  0  0  0  0  0  0  0  0
   29.9424  -12.6767  -17.0931 C   0  0  0  0  0  0  0  0  0  0  0  0
   29.0227  -12.5236  -15.5613 S   0  0  0  0  0  0  0  0  0  0  0  0
   27.3197  -11.9539  -15.8195 C   0  0  0  0  0  0  0  0  0  0  0  0
   27.3430  -10.7680  -16.7494 C   0  0  0  0  0  0  0  0  0  0  0  0
   25.9201  -10.3461  -17.0509 C   0  0  2  0  0  0  0  0  0  0  0  0
   25.2311  -11.3240  -17.8660 N   0  0  0  0  0  0  0  0  0  0  0  0
   25.8841   -9.0219  -17.7150 C   0  0  0  0  0  0  0  0  0  0  0  0
   25.8868   -8.9554  -18.9724 O   0  0  0  0  0  0  0  0  0  0  0  0
   20.0896   -6.3233  -14.8009 O   0  0  0  0  0  0  0  0  0  0  0  0
   21.1585   -6.3036  -15.6766 C   0  0  0  0  0  0  0  0  0  0  0  0
   21.9169   -5.1847  -15.8731 C   0  0  0  0  0  0  0  0  0  0  0  0
   22.9789   -5.1972  -16.7555 C   0  0  0  0  0  0  0  0  0  0  0  0
   23.3139   -6.3261  -17.4662 C   0  0  0  0  0  0  0  0  0  0  0  0
   24.4344   -6.3942  -18.4212 C   0  0  0  0  0  0  0  0  0  0  0  0
   25.7271   -6.4954  -17.6933 C   0  0  2  0  0  0  0  0  0  0  0  0
   25.8458   -7.7997  -17.0062 N   0  0  0  0  0  0  0  0  0  0  0  0
   26.0184   -5.3975  -16.7570 C   0  0  0  0  0  0  0  0  0  0  0  0
   26.1434   -4.2096  -17.1204 O   0  0  0  0  0  0  0  0  0  0  0  0
   22.5359   -7.4479  -17.2544 C   0  0  0  0  0  0  0  0  0  0  0  0
   21.4727   -7.4493  -16.3765 C   0  0  0  0  0  0  0  0  0  0  0  0
   26.1634   -5.6754  -15.4112 O   0  0  0  0  0  0  0  0  0  0  0  0
  2  1  1  1
  2 10  1  0
  2  3  1  0
  4  3  1  0
  4  9  1  0
  5  4  2  0
  6  5  1  0
  6  7  2  0
  7  8  1  0
  8  9  2  0
 10 11  2  0
 13 12  1  0
 14 13  1  0
 14 15  1  0
 16 15  1  6
 17 16  1  0
 17 10  1  0
 18 19  2  0
 18 16  1  0
 20 21  1  0
 21 31  2  0
 21 22  1  0
 22 23  2  0
 23 24  1  0
 24 25  1  0
 26 25  1  1
 26 27  1  0
 27 18  1  0
 28 26  1  0
 28 32  1  0
 29 28  2  0
 30 24  2  0
 31 30  1  0
M  END
$$$$
