FMY.pdb
     RDKit          3D

 32 33  0  0  1  0  0  0  0  0999 V2000
   28.1881  -20.8545  -17.0022 N   0  0  0  0  0  0  0  0  0  0  0  0
   28.2699  -19.8845  -15.9300 C   0  0  1  0  0  0  0  0  0  0  0  0
   27.1804  -18.8647  -16.1790 C   0  0  0  0  0  0  0  0  0  0  0  0
   27.6011  -18.0673  -17.3606 C   0  0  0  0  0  0  0  0  0  0  0  0
   26.9573  -18.1191  -18.5787 C   0  0  0  0  0  0  0  0  0  0  0  0
   27.3796  -17.3589  -19.6602 C   0  0  0  0  0  0  0  0  0  0  0  0
   28.4664  -16.5270  -19.5316 C   0  0  0  0  0  0  0  0  0  0  0  0
   29.1128  -16.4644  -18.3360 C   0  0  0  0  0  0  0  0  0  0  0  0
   28.6895  -17.2246  -17.2566 C   0  0  0  0  0  0  0  0  0  0  0  0
   28.1110  -20.5842  -14.6488 C   0  0  0  0  0  0  0  0  0  0  0  0
   27.1416  -21.3635  -14.4939 O   0  0  0  0  0  0  0  0  0  0  0  0
   32.5305  -22.1864   -9.7347 C   0  0  0  0  0  0  0  0  0  0  0  0
   31.1037  -21.4360   -8.9492 S   0  0  0  0  0  0  0  0  0  0  0  0
   29.6202  -21.4887   -9.9919 C   0  0  0  0  0  0  0  0  0  0  0  0
   29.9466  -20.8715  -11.3276 C   0  0  0  0  0  0  0  0  0  0  0  0
   28.7250  -20.9448  -12.2197 C   0  0  2  0  0  0  0  0  0  0  0  0
   28.9981  -20.4372  -13.5475 N   0  0  0  0  0  0  0  0  0  0  0  0
   27.5834  -20.2107  -11.6250 C   0  0  0  0  0  0  0  0  0  0  0  0
   27.3536  -19.0242  -11.9786 O   0  0  0  0  0  0  0  0  0  0  0  0
   19.1816  -19.6980  -12.2795 O   0  0  0  0  0  0  0  0  0  0  0  0
   20.5235  -20.0204  -12.2080 C   0  0  0  0  0  0  0  0  0  0  0  0
   20.9598  -21.2046  -11.6855 C   0  0  0  0  0  0  0  0  0  0  0  0
   22.3081  -21.4972  -11.6281 C   0  0  0  0  0  0  0  0  0  0  0  0
   23.2583  -20.6167  -12.0901 C   0  0  0  0  0  0  0  0  0  0  0  0
   24.7085  -20.8769  -12.0511 C   0  0  0  0  0  0  0  0  0  0  0  0
   25.2525  -20.5645  -10.7030 C   0  0  2  0  0  0  0  0  0  0  0  0
   26.7159  -20.7745  -10.6620 N   0  0  0  0  0  0  0  0  0  0  0  0
   24.6059  -21.2603   -9.5783 C   0  0  0  0  0  0  0  0  0  0  0  0
   23.7087  -20.7404   -8.8830 O   0  0  0  0  0  0  0  0  0  0  0  0
   22.7984  -19.4245  -12.6150 C   0  0  0  0  0  0  0  0  0  0  0  0
   21.4552  -19.1194  -12.6785 C   0  0  0  0  0  0  0  0  0  0  0  0
   24.9968  -22.5476   -9.2634 O   0  0  0  0  0  0  0  0  0  0  0  0
  2  1  1  6
  2 10  1  0
  2  3  1  0
  4  3  1  0
  4  9  1  0
  5  4  2  0
  6  5  1  0
  6  7  2  0
  7  8  1  0
  8  9  2  0
 10 11  2  0
 13 12  1  0
 14 13  1  0
 14 15  1  0
 16 15  1  1
 17 16  1  0
 17 10  1  0
 18 19  2  0
 18 16  1  0
 20 21  1  0
 21 31  2  0
 21 22  1  0
 22 23  2  0
 23 24  1  0
 24 25  1  0
 26 25  1  6
 26 27  1  0
 27 18  1  0
 28 26  1  0
 28 32  1  0
 29 28  2  0
 30 24  2  0
 31 30  1  0
M  END
$$$$
