FMY.pdb
     RDKit          3D

 32 33  0  0  1  0  0  0  0  0999 V2000
   20.0795  -14.6436  -19.4130 N   0  0  0  0  0  0  0  0  0  0  0  0
   20.7831  -13.3946  -19.2075 C   0  0  1  0  0  0  0  0  0  0  0  0
   21.1831  -12.8878  -20.5757 C   0  0  0  0  0  0  0  0  0  0  0  0
   22.1716  -13.8553  -21.1195 C   0  0  0  0  0  0  0  0  0  0  0  0
   23.5009  -13.8680  -20.7536 C   0  0  0  0  0  0  0  0  0  0  0  0
   24.3948  -14.7877  -21.2834 C   0  0  0  0  0  0  0  0  0  0  0  0
   23.9612  -15.7177  -22.1981 C   0  0  0  0  0  0  0  0  0  0  0  0
   22.6523  -15.7185  -22.5697 C   0  0  0  0  0  0  0  0  0  0  0  0
   21.7606  -14.7989  -22.0394 C   0  0  0  0  0  0  0  0  0  0  0  0
   19.8963  -12.4662  -18.4948 C   0  0  0  0  0  0  0  0  0  0  0  0
   18.6580  -12.6580  -18.5261 O   0  0  0  0  0  0  0  0  0  0  0  0
   17.8059  -13.7601  -14.1963 C   0  0  0  0  0  0  0  0  0  0  0  0
   16.6755  -12.6223  -14.9982 S   0  0  0  0  0  0  0  0  0  0  0  0
   17.4552  -11.6923  -16.3467 C   0  0  0  0  0  0  0  0  0  0  0  0
   18.7906  -11.1803  -15.8711 C   0  0  0  0  0  0  0  0  0  0  0  0
   19.4795  -10.4586  -17.0104 C   0  0  2  0  0  0  0  0  0  0  0  0
   20.3524  -11.3407  -17.7555 N   0  0  0  0  0  0  0  0  0  0  0  0
   20.2461   -9.2900  -16.5178 C   0  0  0  0  0  0  0  0  0  0  0  0
   21.3238   -9.4708  -15.8922 O   0  0  0  0  0  0  0  0  0  0  0  0
   22.9449   -1.1658  -14.5364 O   0  0  0  0  0  0  0  0  0  0  0  0
   22.2493   -2.2299  -15.0785 C   0  0  0  0  0  0  0  0  0  0  0  0
   21.0264   -2.6148  -14.6074 C   0  0  0  0  0  0  0  0  0  0  0  0
   20.3566   -3.6829  -15.1707 C   0  0  0  0  0  0  0  0  0  0  0  0
   20.8881   -4.3965  -16.2195 C   0  0  0  0  0  0  0  0  0  0  0  0
   20.2181   -5.5446  -16.8560 C   0  0  0  0  0  0  0  0  0  0  0  0
   20.5886   -6.8070  -16.1632 C   0  0  2  0  0  0  0  0  0  0  0  0
   19.8314   -7.9528  -16.7119 N   0  0  0  0  0  0  0  0  0  0  0  0
   20.4831   -6.7823  -14.6950 C   0  0  0  0  0  0  0  0  0  0  0  0
   19.4086   -6.9700  -14.0876 O   0  0  0  0  0  0  0  0  0  0  0  0
   22.1255   -3.9928  -16.6825 C   0  0  0  0  0  0  0  0  0  0  0  0
   22.8053   -2.9283  -16.1294 C   0  0  0  0  0  0  0  0  0  0  0  0
   21.6142   -6.5420  -13.9386 O   0  0  0  0  0  0  0  0  0  0  0  0
  2  1  1  6
  2 10  1  0
  2  3  1  0
  4  3  1  0
  4  9  1  0
  5  4  2  0
  6  5  1  0
  6  7  2  0
  7  8  1  0
  8  9  2  0
 10 11  2  0
 13 12  1  0
 14 13  1  0
 14 15  1  0
 16 15  1  1
 17 16  1  0
 17 10  1  0
 18 19  2  0
 18 16  1  0
 20 21  1  0
 21 31  2  0
 21 22  1  0
 22 23  2  0
 23 24  1  0
 24 25  1  0
 26 25  1  6
 26 27  1  0
 27 18  1  0
 28 26  1  0
 28 32  1  0
 29 28  2  0
 30 24  2  0
 31 30  1  0
M  END
$$$$
