FMY.pdb
     RDKit          3D

 32 33  0  0  1  0  0  0  0  0999 V2000
   25.6544  -20.6179  -19.2393 N   0  0  0  0  0  0  0  0  0  0  0  0
   25.1647  -20.6749  -17.8776 C   0  0  1  0  0  0  0  0  0  0  0  0
   25.2033  -19.2614  -17.3396 C   0  0  0  0  0  0  0  0  0  0  0  0
   26.6353  -18.8715  -17.2602 C   0  0  0  0  0  0  0  0  0  0  0  0
   27.6210  -19.7007  -16.7684 C   0  0  0  0  0  0  0  0  0  0  0  0
   28.9487  -19.3012  -16.7101 C   0  0  0  0  0  0  0  0  0  0  0  0
   29.3086  -18.0494  -17.1498 C   0  0  0  0  0  0  0  0  0  0  0  0
   28.3477  -17.2190  -17.6380 C   0  0  0  0  0  0  0  0  0  0  0  0
   27.0217  -17.6198  -17.6956 C   0  0  0  0  0  0  0  0  0  0  0  0
   23.8103  -21.2421  -17.8876 C   0  0  0  0  0  0  0  0  0  0  0  0
   22.9820  -20.8322  -18.7343 O   0  0  0  0  0  0  0  0  0  0  0  0
   23.8255  -26.8166  -18.9170 C   0  0  0  0  0  0  0  0  0  0  0  0
   22.4645  -25.9329  -19.6801 S   0  0  0  0  0  0  0  0  0  0  0  0
   22.3020  -24.2324  -19.0695 C   0  0  0  0  0  0  0  0  0  0  0  0
   22.1125  -24.2720  -17.5748 C   0  0  0  0  0  0  0  0  0  0  0  0
   22.0503  -22.8546  -17.0450 C   0  0  2  0  0  0  0  0  0  0  0  0
   23.3620  -22.2453  -16.9853 N   0  0  0  0  0  0  0  0  0  0  0  0
   21.4136  -22.8109  -15.7075 C   0  0  0  0  0  0  0  0  0  0  0  0
   22.0838  -23.1227  -14.6882 O   0  0  0  0  0  0  0  0  0  0  0  0
   16.5108  -17.6904  -17.1876 O   0  0  0  0  0  0  0  0  0  0  0  0
   17.1756  -18.5205  -16.3051 C   0  0  0  0  0  0  0  0  0  0  0  0
   16.5124  -19.3702  -15.4661 C   0  0  0  0  0  0  0  0  0  0  0  0
   17.2060  -20.1873  -14.5954 C   0  0  0  0  0  0  0  0  0  0  0  0
   18.5801  -20.1796  -14.5377 C   0  0  0  0  0  0  0  0  0  0  0  0
   19.3696  -21.0281  -13.6272 C   0  0  0  0  0  0  0  0  0  0  0  0
   19.4524  -22.4151  -14.1567 C   0  0  2  0  0  0  0  0  0  0  0  0
   20.0678  -22.4315  -15.5014 N   0  0  0  0  0  0  0  0  0  0  0  0
   18.1886  -23.1701  -14.1651 C   0  0  0  0  0  0  0  0  0  0  0  0
   17.5634  -23.4602  -13.1241 O   0  0  0  0  0  0  0  0  0  0  0  0
   19.2336  -19.3141  -15.3935 C   0  0  0  0  0  0  0  0  0  0  0  0
   18.5537  -18.4928  -16.2678 C   0  0  0  0  0  0  0  0  0  0  0  0
   17.6553  -23.5848  -15.3705 O   0  0  0  0  0  0  0  0  0  0  0  0
  2  1  1  6
  2 10  1  0
  2  3  1  0
  4  3  1  0
  4  9  1  0
  5  4  2  0
  6  5  1  0
  6  7  2  0
  7  8  1  0
  8  9  2  0
 10 11  2  0
 13 12  1  0
 14 13  1  0
 14 15  1  0
 16 15  1  1
 17 16  1  0
 17 10  1  0
 18 19  2  0
 18 16  1  0
 20 21  1  0
 21 31  2  0
 21 22  1  0
 22 23  2  0
 23 24  1  0
 24 25  1  0
 26 25  1  6
 26 27  1  0
 27 18  1  0
 28 26  1  0
 28 32  1  0
 29 28  2  0
 30 24  2  0
 31 30  1  0
M  END
$$$$
