FMY.pdb
     RDKit          3D

 32 33  0  0  1  0  0  0  0  0999 V2000
   34.7657  -30.7817  -14.8943 N   0  0  0  0  0  0  0  0  0  0  0  0
   35.2712  -32.1251  -14.7019 C   0  0  1  0  0  0  0  0  0  0  0  0
   36.4389  -32.2926  -15.6493 C   0  0  0  0  0  0  0  0  0  0  0  0
   36.8302  -33.7256  -15.5986 C   0  0  0  0  0  0  0  0  0  0  0  0
   36.1904  -34.7125  -16.3180 C   0  0  0  0  0  0  0  0  0  0  0  0
   36.5847  -36.0410  -16.2449 C   0  0  0  0  0  0  0  0  0  0  0  0
   37.6390  -36.4005  -15.4392 C   0  0  0  0  0  0  0  0  0  0  0  0
   38.2811  -35.4384  -14.7227 C   0  0  0  0  0  0  0  0  0  0  0  0
   37.8857  -34.1116  -14.7970 C   0  0  0  0  0  0  0  0  0  0  0  0
   35.6546  -32.2869  -13.2937 C   0  0  0  0  0  0  0  0  0  0  0  0
   36.4647  -31.4777  -12.7837 O   0  0  0  0  0  0  0  0  0  0  0  0
   33.4376  -34.1595   -6.0200 C   0  0  0  0  0  0  0  0  0  0  0  0
   33.0958  -33.9289   -7.7652 S   0  0  0  0  0  0  0  0  0  0  0  0
   34.6009  -33.6899   -8.7494 C   0  0  0  0  0  0  0  0  0  0  0  0
   34.2128  -33.5494  -10.1989 C   0  0  0  0  0  0  0  0  0  0  0  0
   35.4670  -33.4198  -11.0378 C   0  0  2  0  0  0  0  0  0  0  0  0
   35.1613  -33.3187  -12.4491 N   0  0  0  0  0  0  0  0  0  0  0  0
   36.3880  -34.5565  -10.8023 C   0  0  0  0  0  0  0  0  0  0  0  0
   37.0018  -34.6441   -9.7064 O   0  0  0  0  0  0  0  0  0  0  0  0
   34.1018  -38.1084   -6.2664 O   0  0  0  0  0  0  0  0  0  0  0  0
   34.6832  -38.0631   -7.5194 C   0  0  0  0  0  0  0  0  0  0  0  0
   33.9966  -37.6481   -8.6249 C   0  0  0  0  0  0  0  0  0  0  0  0
   34.6061  -37.6143   -9.8635 C   0  0  0  0  0  0  0  0  0  0  0  0
   35.9172  -37.9934  -10.0336 C   0  0  0  0  0  0  0  0  0  0  0  0
   36.6155  -37.9789  -11.3314 C   0  0  0  0  0  0  0  0  0  0  0  0
   37.4558  -36.7580  -11.4514 C   0  0  2  0  0  0  0  0  0  0  0  0
   36.6252  -35.5728  -11.7556 N   0  0  0  0  0  0  0  0  0  0  0  0
   38.5801  -36.8491  -12.3974 C   0  0  0  0  0  0  0  0  0  0  0  0
   38.8484  -35.9514  -13.2225 O   0  0  0  0  0  0  0  0  0  0  0  0
   36.5955  -38.4100   -8.9045 C   0  0  0  0  0  0  0  0  0  0  0  0
   35.9993  -38.4488   -7.6618 C   0  0  0  0  0  0  0  0  0  0  0  0
   39.3856  -37.9718  -12.3860 O   0  0  0  0  0  0  0  0  0  0  0  0
  2  1  1  1
  2 10  1  0
  2  3  1  0
  4  3  1  0
  4  9  1  0
  5  4  2  0
  6  5  1  0
  6  7  2  0
  7  8  1  0
  8  9  2  0
 10 11  2  0
 13 12  1  0
 14 13  1  0
 14 15  1  0
 16 15  1  1
 17 16  1  0
 17 10  1  0
 18 19  2  0
 18 16  1  0
 20 21  1  0
 21 31  2  0
 21 22  1  0
 22 23  2  0
 23 24  1  0
 24 25  1  0
 26 25  1  6
 26 27  1  0
 27 18  1  0
 28 26  1  0
 28 32  1  0
 29 28  2  0
 30 24  2  0
 31 30  1  0
M  END
$$$$
