FMY.pdb
     RDKit          3D

 32 33  0  0  1  0  0  0  0  0999 V2000
   29.0878   -8.7754  -18.5731 N   0  0  0  0  0  0  0  0  0  0  0  0
   28.1862   -7.9840  -19.3842 C   0  0  1  0  0  0  0  0  0  0  0  0
   27.2649   -8.9556  -20.0886 C   0  0  0  0  0  0  0  0  0  0  0  0
   28.0210   -9.5017  -21.2458 C   0  0  0  0  0  0  0  0  0  0  0  0
   28.6994  -10.7015  -21.2104 C   0  0  0  0  0  0  0  0  0  0  0  0
   29.3949  -11.1793  -22.3121 C   0  0  0  0  0  0  0  0  0  0  0  0
   29.4189  -10.4506  -23.4775 C   0  0  0  0  0  0  0  0  0  0  0  0
   28.7544   -9.2643  -23.5287 C   0  0  0  0  0  0  0  0  0  0  0  0
   28.0600   -8.7885  -22.4271 C   0  0  0  0  0  0  0  0  0  0  0  0
   27.4652   -7.0488  -18.5113 C   0  0  0  0  0  0  0  0  0  0  0  0
   27.4909   -7.2269  -17.2709 O   0  0  0  0  0  0  0  0  0  0  0  0
   24.0807    0.0758  -17.5976 C   0  0  0  0  0  0  0  0  0  0  0  0
   24.7499   -1.1793  -18.6896 S   0  0  0  0  0  0  0  0  0  0  0  0
   25.1068   -2.7375  -17.8319 C   0  0  0  0  0  0  0  0  0  0  0  0
   25.8455   -3.6505  -18.7766 C   0  0  0  0  0  0  0  0  0  0  0  0
   26.0282   -5.0023  -18.1187 C   0  0  2  0  0  0  0  0  0  0  0  0
   26.7242   -5.9312  -18.9836 N   0  0  0  0  0  0  0  0  0  0  0  0
   24.7259   -5.5771  -17.7067 C   0  0  0  0  0  0  0  0  0  0  0  0
   23.9466   -6.0428  -18.5793 O   0  0  0  0  0  0  0  0  0  0  0  0
   18.3943  -10.1392  -14.0491 O   0  0  0  0  0  0  0  0  0  0  0  0
   19.5938   -9.5244  -14.3538 C   0  0  0  0  0  0  0  0  0  0  0  0
   20.3493   -8.8944  -13.4062 C   0  0  0  0  0  0  0  0  0  0  0  0
   21.5439   -8.2891  -13.7428 C   0  0  0  0  0  0  0  0  0  0  0  0
   22.0179   -8.2954  -15.0339 C   0  0  0  0  0  0  0  0  0  0  0  0
   23.2835   -7.6638  -15.4482 C   0  0  0  0  0  0  0  0  0  0  0  0
   23.0301   -6.2945  -15.9695 C   0  0  2  0  0  0  0  0  0  0  0  0
   24.2949   -5.6361  -16.3619 N   0  0  0  0  0  0  0  0  0  0  0  0
   22.2480   -5.4121  -15.0881 C   0  0  0  0  0  0  0  0  0  0  0  0
   22.7575   -4.7619  -14.1520 O   0  0  0  0  0  0  0  0  0  0  0  0
   21.2406   -8.9372  -15.9785 C   0  0  0  0  0  0  0  0  0  0  0  0
   20.0459   -9.5456  -15.6563 C   0  0  0  0  0  0  0  0  0  0  0  0
   20.8871   -5.2855  -15.2911 O   0  0  0  0  0  0  0  0  0  0  0  0
  2  1  1  1
  2 10  1  0
  2  3  1  0
  4  3  1  0
  4  9  1  0
  5  4  2  0
  6  5  1  0
  6  7  2  0
  7  8  1  0
  8  9  2  0
 10 11  2  0
 13 12  1  0
 14 13  1  0
 14 15  1  0
 16 15  1  6
 17 16  1  0
 17 10  1  0
 18 19  2  0
 18 16  1  0
 20 21  1  0
 21 31  2  0
 21 22  1  0
 22 23  2  0
 23 24  1  0
 24 25  1  0
 26 25  1  1
 26 27  1  0
 27 18  1  0
 28 26  1  0
 28 32  1  0
 29 28  2  0
 30 24  2  0
 31 30  1  0
M  END
$$$$
