FMY.pdb
     RDKit          3D

 32 33  0  0  1  0  0  0  0  0999 V2000
   28.1878  -20.6468  -15.3725 N   0  0  0  0  0  0  0  0  0  0  0  0
   27.5127  -19.9384  -14.3050 C   0  0  1  0  0  0  0  0  0  0  0  0
   26.4829  -19.0426  -14.9576 C   0  0  0  0  0  0  0  0  0  0  0  0
   27.2259  -17.9111  -15.5714 C   0  0  0  0  0  0  0  0  0  0  0  0
   27.5398  -17.8483  -16.9125 C   0  0  0  0  0  0  0  0  0  0  0  0
   28.2354  -16.7745  -17.4497 C   0  0  0  0  0  0  0  0  0  0  0  0
   28.6299  -15.7372  -16.6382 C   0  0  0  0  0  0  0  0  0  0  0  0
   28.3279  -15.7840  -15.3123 C   0  0  0  0  0  0  0  0  0  0  0  0
   27.6328  -16.8577  -14.7774 C   0  0  0  0  0  0  0  0  0  0  0  0
   26.9141  -20.9210  -13.3926 C   0  0  0  0  0  0  0  0  0  0  0  0
   26.5663  -22.0388  -13.8406 O   0  0  0  0  0  0  0  0  0  0  0  0
   27.3218  -20.9325   -6.9956 C   0  0  0  0  0  0  0  0  0  0  0  0
   25.8545  -19.9841   -7.3997 S   0  0  0  0  0  0  0  0  0  0  0  0
   25.3896  -20.1218   -9.1478 C   0  0  0  0  0  0  0  0  0  0  0  0
   26.0567  -21.3413   -9.7304 C   0  0  0  0  0  0  0  0  0  0  0  0
   25.7372  -21.4230  -11.2085 C   0  0  2  0  0  0  0  0  0  0  0  0
   26.6963  -20.6895  -12.0068 N   0  0  0  0  0  0  0  0  0  0  0  0
   24.3679  -20.9301  -11.4878 C   0  0  0  0  0  0  0  0  0  0  0  0
   23.9981  -19.8204  -11.0217 O   0  0  0  0  0  0  0  0  0  0  0  0
   17.1028  -18.2448  -15.2563 O   0  0  0  0  0  0  0  0  0  0  0  0
   18.3162  -18.8364  -14.9606 C   0  0  0  0  0  0  0  0  0  0  0  0
   18.5373  -20.1721  -15.1416 C   0  0  0  0  0  0  0  0  0  0  0  0
   19.7615  -20.7332  -14.8364 C   0  0  0  0  0  0  0  0  0  0  0  0
   20.7990  -19.9775  -14.3422 C   0  0  0  0  0  0  0  0  0  0  0  0
   22.1236  -20.5247  -13.9981 C   0  0  0  0  0  0  0  0  0  0  0  0
   22.1089  -21.0830  -12.6201 C   0  0  2  0  0  0  0  0  0  0  0  0
   23.4291  -21.6468  -12.2642 N   0  0  0  0  0  0  0  0  0  0  0  0
   21.0447  -22.0610  -12.3404 C   0  0  0  0  0  0  0  0  0  0  0  0
   21.0819  -23.2408  -12.7473 O   0  0  0  0  0  0  0  0  0  0  0  0
   20.5571  -18.6289  -14.1657 C   0  0  0  0  0  0  0  0  0  0  0  0
   19.3396  -18.0556  -14.4663 C   0  0  0  0  0  0  0  0  0  0  0  0
   19.9473  -21.6735  -11.5955 O   0  0  0  0  0  0  0  0  0  0  0  0
  2  1  1  6
  2 10  1  0
  2  3  1  0
  4  3  1  0
  4  9  1  0
  5  4  2  0
  6  5  1  0
  6  7  2  0
  7  8  1  0
  8  9  2  0
 10 11  2  0
 13 12  1  0
 14 13  1  0
 14 15  1  0
 16 15  1  1
 17 16  1  0
 17 10  1  0
 18 19  2  0
 18 16  1  0
 20 21  1  0
 21 31  2  0
 21 22  1  0
 22 23  2  0
 23 24  1  0
 24 25  1  0
 26 25  1  6
 26 27  1  0
 27 18  1  0
 28 26  1  0
 28 32  1  0
 29 28  2  0
 30 24  2  0
 31 30  1  0
M  END
$$$$
