FMY.pdb
     RDKit          3D

 32 33  0  0  1  0  0  0  0  0999 V2000
   25.0500  -17.6411  -15.3754 N   0  0  0  0  0  0  0  0  0  0  0  0
   26.0887  -18.4289  -14.7447 C   0  0  1  0  0  0  0  0  0  0  0  0
   27.1349  -17.4554  -14.2480 C   0  0  0  0  0  0  0  0  0  0  0  0
   27.8981  -17.0008  -15.4396 C   0  0  0  0  0  0  0  0  0  0  0  0
   28.6981  -17.8349  -16.1915 C   0  0  0  0  0  0  0  0  0  0  0  0
   29.3960  -17.3737  -17.2987 C   0  0  0  0  0  0  0  0  0  0  0  0
   29.2991  -16.0537  -17.6701 C   0  0  0  0  0  0  0  0  0  0  0  0
   28.5137  -15.2175  -16.9385 C   0  0  0  0  0  0  0  0  0  0  0  0
   27.8171  -15.6800  -15.8326 C   0  0  0  0  0  0  0  0  0  0  0  0
   25.4887  -19.2191  -13.6622 C   0  0  0  0  0  0  0  0  0  0  0  0
   24.6271  -18.6882  -12.9228 O   0  0  0  0  0  0  0  0  0  0  0  0
   23.3272  -25.6256  -13.1516 C   0  0  0  0  0  0  0  0  0  0  0  0
   23.6403  -24.4562  -14.4746 S   0  0  0  0  0  0  0  0  0  0  0  0
   23.8816  -22.7624  -13.8713 C   0  0  0  0  0  0  0  0  0  0  0  0
   24.9325  -22.7797  -12.7910 C   0  0  0  0  0  0  0  0  0  0  0  0
   25.2045  -21.3595  -12.3410 C   0  0  2  0  0  0  0  0  0  0  0  0
   25.8230  -20.5734  -13.3873 N   0  0  0  0  0  0  0  0  0  0  0  0
   26.0526  -21.3365  -11.1260 C   0  0  0  0  0  0  0  0  0  0  0  0
   27.0952  -22.0411  -11.0807 O   0  0  0  0  0  0  0  0  0  0  0  0
   29.2698  -20.0602   -3.0488 O   0  0  0  0  0  0  0  0  0  0  0  0
   28.7851  -19.9741   -4.3401 C   0  0  0  0  0  0  0  0  0  0  0  0
   29.0373  -20.9355   -5.2770 C   0  0  0  0  0  0  0  0  0  0  0  0
   28.5385  -20.8203   -6.5594 C   0  0  0  0  0  0  0  0  0  0  0  0
   27.7742  -19.7429   -6.9427 C   0  0  0  0  0  0  0  0  0  0  0  0
   27.2192  -19.5688   -8.2969 C   0  0  0  0  0  0  0  0  0  0  0  0
   26.4296  -20.7663   -8.6886 C   0  0  2  0  0  0  0  0  0  0  0  0
   25.7555  -20.5532   -9.9876 N   0  0  0  0  0  0  0  0  0  0  0  0
   25.4648  -21.2486   -7.6867 C   0  0  0  0  0  0  0  0  0  0  0  0
   25.8096  -21.7236   -6.5847 O   0  0  0  0  0  0  0  0  0  0  0  0
   27.5296  -18.7808   -5.9820 C   0  0  0  0  0  0  0  0  0  0  0  0
   28.0214  -18.8832   -4.6979 C   0  0  0  0  0  0  0  0  0  0  0  0
   24.1122  -21.1805   -7.9610 O   0  0  0  0  0  0  0  0  0  0  0  0
  2  1  1  1
  2 10  1  0
  2  3  1  0
  4  3  1  0
  4  9  1  0
  5  4  2  0
  6  5  1  0
  6  7  2  0
  7  8  1  0
  8  9  2  0
 10 11  2  0
 13 12  1  0
 14 13  1  0
 14 15  1  0
 16 15  1  6
 17 16  1  0
 17 10  1  0
 18 19  2  0
 18 16  1  0
 20 21  1  0
 21 31  2  0
 21 22  1  0
 22 23  2  0
 23 24  1  0
 24 25  1  0
 26 25  1  1
 26 27  1  0
 27 18  1  0
 28 26  1  0
 28 32  1  0
 29 28  2  0
 30 24  2  0
 31 30  1  0
M  END
$$$$
