KSW.pdb
     RDKit          3D

 30 31  0  0  1  0  0  0  0  0999 V2000
    7.2868  -16.2050   19.1264 N   0  0  0  0  0  0  0  0  0  0  0  0
    8.3788  -15.6273   19.7982 C   0  0  1  0  0  0  0  0  0  0  0  0
    8.3304  -14.1447   19.8379 C   0  0  0  0  0  0  0  0  0  0  0  0
    7.9457  -13.3643   18.6810 C   0  0  0  0  0  0  0  0  0  0  0  0
    8.4265  -13.4850   17.3254 C   0  0  0  0  0  0  0  0  0  0  0  0
    7.9557  -12.7001   16.1885 C   0  0  0  0  0  0  0  0  0  0  0  0
    8.4371  -13.2015   14.8971 N   0  0  0  0  0  0  0  0  0  0  0  0
    8.6063  -16.2159   21.1638 C   0  0  0  0  0  0  0  0  0  0  0  0
    7.6610  -16.1808   21.9922 O   0  0  0  0  0  0  0  0  0  0  0  0
   12.1604  -18.2972   22.2039 O   0  0  0  0  0  0  0  0  0  0  0  0
   10.8836  -18.7087   22.5791 C   0  0  0  0  0  0  0  0  0  0  0  0
    9.9807  -17.5394   22.8088 C   0  0  2  0  0  0  0  0  0  0  0  0
    9.8135  -16.8068   21.5792 N   0  0  0  0  0  0  0  0  0  0  0  0
   10.3883  -16.6965   23.9426 C   0  0  0  0  0  0  0  0  0  0  0  0
   11.0884  -15.6857   23.7605 O   0  0  0  0  0  0  0  0  0  0  0  0
    9.9815  -17.0368   25.2525 N   0  0  0  0  0  0  0  0  0  0  0  0
   10.6075  -16.4692   26.4461 C   0  0  1  0  0  0  0  0  0  0  0  0
   10.1267  -15.0395   26.5305 C   0  0  0  0  0  0  0  0  0  0  0  0
    8.6712  -14.8711   26.4572 C   0  0  0  0  0  0  0  0  0  0  0  0
    7.7367  -15.9122   26.3436 C   0  0  0  0  0  0  0  0  0  0  0  0
    6.4926  -15.4093   26.3483 N   0  0  0  0  0  0  0  0  0  0  0  0
    6.5678  -14.0732   26.4600 C   0  0  0  0  0  0  0  0  0  0  0  0
    5.5818  -13.1127   26.5000 C   0  0  0  0  0  0  0  0  0  0  0  0
    5.8738  -11.7714   26.6065 C   0  0  0  0  0  0  0  0  0  0  0  0
    7.2197  -11.4089   26.6734 C   0  0  0  0  0  0  0  0  0  0  0  0
    8.1797  -12.3867   26.6317 C   0  0  0  0  0  0  0  0  0  0  0  0
    7.9241  -13.7323   26.5275 C   0  0  0  0  0  0  0  0  0  0  0  0
   10.3204  -17.2165   27.6712 C   0  0  0  0  0  0  0  0  0  0  0  0
   10.9084  -16.8151   28.8814 O   0  0  0  0  0  0  0  0  0  0  0  0
    9.5480  -18.2066   27.6060 O   0  0  0  0  0  0  0  0  0  0  0  0
  2  1  1  1
  2  3  1  0
  2  8  1  0
  4  5  1  0
  4  3  1  0
  6  5  1  0
  7  6  1  0
  8  9  2  0
 10 11  1  0
 12 11  1  6
 12 14  1  0
 13 12  1  0
 13  8  1  0
 14 15  2  0
 16 17  1  0
 16 14  1  0
 17 28  1  0
 17 18  1  1
 19 27  1  0
 19 18  1  0
 20 19  2  0
 21 20  1  0
 21 22  1  0
 22 27  2  0
 23 22  1  0
 23 24  2  0
 24 25  1  0
 25 26  2  0
 27 26  1  0
 28 30  2  0
 28 29  1  0
M  END
$$$$
