KSW.pdb
     RDKit          3D

 30 31  0  0  1  0  0  0  0  0999 V2000
    6.5443  -16.7398   20.4253 N   0  0  0  0  0  0  0  0  0  0  0  0
    7.6786  -16.0092   20.8214 C   0  0  1  0  0  0  0  0  0  0  0  0
    7.4372  -14.5479   20.9142 C   0  0  0  0  0  0  0  0  0  0  0  0
    7.4435  -13.6993   19.7416 C   0  0  0  0  0  0  0  0  0  0  0  0
    8.4413  -12.7343   19.3460 C   0  0  0  0  0  0  0  0  0  0  0  0
    8.7223  -12.3229   17.9741 C   0  0  0  0  0  0  0  0  0  0  0  0
    7.7013  -12.7594   17.0160 N   0  0  0  0  0  0  0  0  0  0  0  0
    8.3191  -16.5504   22.0704 C   0  0  0  0  0  0  0  0  0  0  0  0
    7.5810  -16.8019   23.0568 O   0  0  0  0  0  0  0  0  0  0  0  0
   12.4814  -17.2421   22.4081 O   0  0  0  0  0  0  0  0  0  0  0  0
   11.5541  -18.0890   23.0108 C   0  0  0  0  0  0  0  0  0  0  0  0
   10.3099  -17.3518   23.3899 C   0  0  2  0  0  0  0  0  0  0  0  0
    9.6972  -16.7956   22.2101 N   0  0  0  0  0  0  0  0  0  0  0  0
   10.5141  -16.3682   24.4636 C   0  0  0  0  0  0  0  0  0  0  0  0
   11.0610  -15.2773   24.2272 O   0  0  0  0  0  0  0  0  0  0  0  0
   10.0855  -16.6638   25.7774 N   0  0  0  0  0  0  0  0  0  0  0  0
   10.7083  -16.0748   26.9623 C   0  0  1  0  0  0  0  0  0  0  0  0
   10.0554  -14.7255   27.1506 C   0  0  0  0  0  0  0  0  0  0  0  0
    8.7055  -14.6077   26.5885 C   0  0  0  0  0  0  0  0  0  0  0  0
    7.8682  -15.6826   26.2514 C   0  0  0  0  0  0  0  0  0  0  0  0
    6.6897  -15.2193   25.8073 N   0  0  0  0  0  0  0  0  0  0  0  0
    6.7151  -13.8770   25.8366 C   0  0  0  0  0  0  0  0  0  0  0  0
    5.7654  -12.9470   25.4764 C   0  0  0  0  0  0  0  0  0  0  0  0
    5.9971  -11.5931   25.5720 C   0  0  0  0  0  0  0  0  0  0  0  0
    7.2424  -11.1854   26.0520 C   0  0  0  0  0  0  0  0  0  0  0  0
    8.1681  -12.1336   26.4033 C   0  0  0  0  0  0  0  0  0  0  0  0
    7.9701  -13.4904   26.3222 C   0  0  0  0  0  0  0  0  0  0  0  0
   10.5969  -16.9086   28.1598 C   0  0  0  0  0  0  0  0  0  0  0  0
    9.9213  -18.1373   28.0881 O   0  0  0  0  0  0  0  0  0  0  0  0
   11.1141  -16.4981   29.2300 O   0  0  0  0  0  0  0  0  0  0  0  0
  2  1  1  1
  2  3  1  0
  2  8  1  0
  4  5  1  0
  4  3  1  0
  6  5  1  0
  7  6  1  0
  8  9  2  0
 10 11  1  0
 12 11  1  6
 12 14  1  0
 13 12  1  0
 13  8  1  0
 14 15  2  0
 16 17  1  0
 16 14  1  0
 17 28  1  0
 17 18  1  1
 19 27  1  0
 19 18  1  0
 20 19  2  0
 21 20  1  0
 21 22  1  0
 22 27  2  0
 23 22  1  0
 23 24  2  0
 24 25  1  0
 25 26  2  0
 27 26  1  0
 28 30  2  0
 28 29  1  0
M  END
$$$$
