KSW.pdb
     RDKit          3D

 30 31  0  0  1  0  0  0  0  0999 V2000
    9.7919  -13.4949   19.8158 N   0  0  0  0  0  0  0  0  0  0  0  0
    8.5202  -13.9525   20.2042 C   0  0  1  0  0  0  0  0  0  0  0  0
    7.6464  -14.3106   19.0595 C   0  0  0  0  0  0  0  0  0  0  0  0
    8.1542  -15.0279   17.9094 C   0  0  0  0  0  0  0  0  0  0  0  0
    7.4269  -15.4723   16.7445 C   0  0  0  0  0  0  0  0  0  0  0  0
    8.0008  -16.1979   15.6156 C   0  0  0  0  0  0  0  0  0  0  0  0
    7.0226  -16.5118   14.5689 N   0  0  0  0  0  0  0  0  0  0  0  0
    8.5797  -15.0532   21.2279 C   0  0  0  0  0  0  0  0  0  0  0  0
    7.5339  -15.3254   21.8708 O   0  0  0  0  0  0  0  0  0  0  0  0
   12.1253  -17.2637   22.1583 O   0  0  0  0  0  0  0  0  0  0  0  0
   10.8507  -17.8252   22.1707 C   0  0  0  0  0  0  0  0  0  0  0  0
    9.8140  -16.8135   22.5410 C   0  0  2  0  0  0  0  0  0  0  0  0
    9.7342  -15.8034   21.5164 N   0  0  0  0  0  0  0  0  0  0  0  0
    9.9867  -16.2640   23.8939 C   0  0  0  0  0  0  0  0  0  0  0  0
   10.5475  -15.1679   24.0651 O   0  0  0  0  0  0  0  0  0  0  0  0
    9.5115  -16.9868   25.0114 N   0  0  0  0  0  0  0  0  0  0  0  0
    9.7382  -16.5502   26.3886 C   0  0  1  0  0  0  0  0  0  0  0  0
    8.3769  -16.5051   27.0423 C   0  0  0  0  0  0  0  0  0  0  0  0
    7.4421  -15.5371   26.4582 C   0  0  0  0  0  0  0  0  0  0  0  0
    6.3429  -15.8562   25.6458 C   0  0  0  0  0  0  0  0  0  0  0  0
    5.6758  -14.7374   25.3231 N   0  0  0  0  0  0  0  0  0  0  0  0
    6.2926  -13.6884   25.8907 C   0  0  0  0  0  0  0  0  0  0  0  0
    6.0061  -12.3420   25.8519 C   0  0  0  0  0  0  0  0  0  0  0  0
    6.7845  -11.4113   26.5028 C   0  0  0  0  0  0  0  0  0  0  0  0
    7.8899  -11.8807   27.2137 C   0  0  0  0  0  0  0  0  0  0  0  0
    8.1505  -13.2264   27.2349 C   0  0  0  0  0  0  0  0  0  0  0  0
    7.3952  -14.1814   26.5991 C   0  0  0  0  0  0  0  0  0  0  0  0
   10.6724  -17.4002   27.1276 C   0  0  0  0  0  0  0  0  0  0  0  0
   11.0616  -17.0360   28.4266 O   0  0  0  0  0  0  0  0  0  0  0  0
   11.1050  -18.4432   26.5741 O   0  0  0  0  0  0  0  0  0  0  0  0
  2  1  1  6
  2  3  1  0
  2  8  1  0
  4  5  1  0
  4  3  1  0
  6  5  1  0
  7  6  1  0
  8  9  2  0
 10 11  1  0
 12 11  1  6
 12 14  1  0
 13 12  1  0
 13  8  1  0
 14 15  2  0
 16 17  1  0
 16 14  1  0
 17 28  1  0
 17 18  1  1
 19 27  1  0
 19 18  1  0
 20 19  2  0
 21 20  1  0
 21 22  1  0
 22 27  2  0
 23 22  1  0
 23 24  2  0
 24 25  1  0
 25 26  2  0
 27 26  1  0
 28 30  2  0
 28 29  1  0
M  END
$$$$
