KSW.pdb
     RDKit          3D

 30 31  0  0  1  0  0  0  0  0999 V2000
    9.3413  -17.5555   18.9249 N   0  0  0  0  0  0  0  0  0  0  0  0
    9.5153  -16.5235   19.8642 C   0  0  1  0  0  0  0  0  0  0  0  0
    8.7373  -15.2999   19.5482 C   0  0  0  0  0  0  0  0  0  0  0  0
    8.8100  -14.6660   18.2489 C   0  0  0  0  0  0  0  0  0  0  0  0
    8.1291  -13.4754   17.7995 C   0  0  0  0  0  0  0  0  0  0  0  0
    8.1998  -12.9187   16.4521 C   0  0  0  0  0  0  0  0  0  0  0  0
    7.3384  -11.7471   16.2616 N   0  0  0  0  0  0  0  0  0  0  0  0
    9.2939  -16.9761   21.2817 C   0  0  0  0  0  0  0  0  0  0  0  0
    8.1217  -17.2545   21.6415 O   0  0  0  0  0  0  0  0  0  0  0  0
   12.2101  -18.7782   23.4775 O   0  0  0  0  0  0  0  0  0  0  0  0
   10.8456  -18.9257   23.7159 C   0  0  0  0  0  0  0  0  0  0  0  0
   10.1240  -17.6245   23.5702 C   0  0  2  0  0  0  0  0  0  0  0  0
   10.3168  -17.1095   22.2381 N   0  0  0  0  0  0  0  0  0  0  0  0
   10.4452  -16.6533   24.6264 C   0  0  0  0  0  0  0  0  0  0  0  0
   11.2925  -15.7646   24.4329 O   0  0  0  0  0  0  0  0  0  0  0  0
    9.7857  -16.7289   25.8740 N   0  0  0  0  0  0  0  0  0  0  0  0
   10.1887  -15.9286   27.0298 C   0  0  1  0  0  0  0  0  0  0  0  0
    8.9107  -15.5417   27.7364 C   0  0  0  0  0  0  0  0  0  0  0  0
    7.8693  -14.9813   26.8682 C   0  0  0  0  0  0  0  0  0  0  0  0
    6.8566  -15.7172   26.2335 C   0  0  0  0  0  0  0  0  0  0  0  0
    6.0493  -14.8880   25.5542 N   0  0  0  0  0  0  0  0  0  0  0  0
    6.4898  -13.6297   25.7145 C   0  0  0  0  0  0  0  0  0  0  0  0
    6.0162  -12.4361   25.2171 C   0  0  0  0  0  0  0  0  0  0  0  0
    6.6304  -11.2353   25.4939 C   0  0  0  0  0  0  0  0  0  0  0  0
    7.7649  -11.2646   26.3059 C   0  0  0  0  0  0  0  0  0  0  0  0
    8.2134  -12.4675   26.7871 C   0  0  0  0  0  0  0  0  0  0  0  0
    7.6250  -13.6822   26.5324 C   0  0  0  0  0  0  0  0  0  0  0  0
   11.1215  -16.6163   27.9234 C   0  0  0  0  0  0  0  0  0  0  0  0
   11.5123  -17.9339   27.6361 O   0  0  0  0  0  0  0  0  0  0  0  0
   11.5515  -16.0028   28.9333 O   0  0  0  0  0  0  0  0  0  0  0  0
  2  1  1  6
  2  3  1  0
  2  8  1  0
  4  5  1  0
  4  3  1  0
  6  5  1  0
  7  6  1  0
  8  9  2  0
 10 11  1  0
 12 11  1  1
 12 14  1  0
 13 12  1  0
 13  8  1  0
 14 15  2  0
 16 17  1  0
 16 14  1  0
 17 28  1  0
 17 18  1  1
 19 27  1  0
 19 18  1  0
 20 19  2  0
 21 20  1  0
 21 22  1  0
 22 27  2  0
 23 22  1  0
 23 24  2  0
 24 25  1  0
 25 26  2  0
 27 26  1  0
 28 30  2  0
 28 29  1  0
M  END
$$$$
