KSW.pdb
     RDKit          3D

 30 31  0  0  1  0  0  0  0  0999 V2000
    9.4653  -15.3187   18.7348 N   0  0  0  0  0  0  0  0  0  0  0  0
    8.8759  -14.5314   19.7399 C   0  0  1  0  0  0  0  0  0  0  0  0
    7.6843  -13.7777   19.2770 C   0  0  0  0  0  0  0  0  0  0  0  0
    7.6553  -13.1147   17.9906 C   0  0  0  0  0  0  0  0  0  0  0  0
    8.1667  -13.5952   16.7293 C   0  0  0  0  0  0  0  0  0  0  0  0
    8.0319  -12.9114   15.4469 C   0  0  0  0  0  0  0  0  0  0  0  0
    8.5873  -13.6713   14.3221 N   0  0  0  0  0  0  0  0  0  0  0  0
    8.5945  -15.3025   21.0006 C   0  0  0  0  0  0  0  0  0  0  0  0
    7.9199  -14.7434   21.9024 O   0  0  0  0  0  0  0  0  0  0  0  0
   10.3087  -19.1019   21.8186 O   0  0  0  0  0  0  0  0  0  0  0  0
    9.0297  -18.7842   22.2696 C   0  0  0  0  0  0  0  0  0  0  0  0
    8.8807  -17.3131   22.4912 C   0  0  2  0  0  0  0  0  0  0  0  0
    9.0386  -16.6156   21.2402 N   0  0  0  0  0  0  0  0  0  0  0  0
    9.7382  -16.7913   23.5657 C   0  0  0  0  0  0  0  0  0  0  0  0
   10.8393  -16.2775   23.3037 O   0  0  0  0  0  0  0  0  0  0  0  0
    9.3086  -16.8737   24.9095 N   0  0  0  0  0  0  0  0  0  0  0  0
   10.2198  -16.7074   26.0413 C   0  0  1  0  0  0  0  0  0  0  0  0
    9.7783  -15.4495   26.7520 C   0  0  0  0  0  0  0  0  0  0  0  0
    8.3956  -15.0398   26.4826 C   0  0  0  0  0  0  0  0  0  0  0  0
    7.3153  -15.9110   26.2728 C   0  0  0  0  0  0  0  0  0  0  0  0
    6.1878  -15.2042   26.1002 N   0  0  0  0  0  0  0  0  0  0  0  0
    6.4808  -13.8966   26.1869 C   0  0  0  0  0  0  0  0  0  0  0  0
    5.6809  -12.7816   26.0717 C   0  0  0  0  0  0  0  0  0  0  0  0
    6.1872  -11.5059   26.1818 C   0  0  0  0  0  0  0  0  0  0  0  0
    7.5564  -11.3748   26.4169 C   0  0  0  0  0  0  0  0  0  0  0  0
    8.3281  -12.5025   26.5273 C   0  0  0  0  0  0  0  0  0  0  0  0
    7.8564  -13.7885   26.4245 C   0  0  0  0  0  0  0  0  0  0  0  0
   10.2547  -17.8609   26.9411 C   0  0  0  0  0  0  0  0  0  0  0  0
   11.1594  -17.8750   28.0147 O   0  0  0  0  0  0  0  0  0  0  0  0
    9.4664  -18.8168   26.7262 O   0  0  0  0  0  0  0  0  0  0  0  0
  2  1  1  6
  2  3  1  0
  2  8  1  0
  4  5  1  0
  4  3  1  0
  6  5  1  0
  7  6  1  0
  8  9  2  0
 10 11  1  0
 12 11  1  6
 12 14  1  0
 13 12  1  0
 13  8  1  0
 14 15  2  0
 16 17  1  0
 16 14  1  0
 17 28  1  0
 17 18  1  1
 19 27  1  0
 19 18  1  0
 20 19  2  0
 21 20  1  0
 21 22  1  0
 22 27  2  0
 23 22  1  0
 23 24  2  0
 24 25  1  0
 25 26  2  0
 27 26  1  0
 28 30  2  0
 28 29  1  0
M  END
$$$$
