KSW.pdb
     RDKit          3D

 30 31  0  0  1  0  0  0  0  0999 V2000
    7.6837  -16.0315   19.7265 N   0  0  0  0  0  0  0  0  0  0  0  0
    8.3843  -15.1041   20.5180 C   0  0  1  0  0  0  0  0  0  0  0  0
    8.0675  -13.6914   20.1926 C   0  0  0  0  0  0  0  0  0  0  0  0
    7.7281  -13.2777   18.8476 C   0  0  0  0  0  0  0  0  0  0  0  0
    8.4578  -13.5286   17.6278 C   0  0  0  0  0  0  0  0  0  0  0  0
    8.0247  -13.1416   16.2888 C   0  0  0  0  0  0  0  0  0  0  0  0
    8.9496  -13.5675   15.2333 N   0  0  0  0  0  0  0  0  0  0  0  0
    8.2618  -15.3792   21.9920 C   0  0  0  0  0  0  0  0  0  0  0  0
    8.0949  -14.4038   22.7677 O   0  0  0  0  0  0  0  0  0  0  0  0
   11.6750  -18.0614   22.4318 O   0  0  0  0  0  0  0  0  0  0  0  0
   10.5426  -17.3764   21.9973 C   0  0  0  0  0  0  0  0  0  0  0  0
    9.5224  -17.2668   23.0848 C   0  0  2  0  0  0  0  0  0  0  0  0
    8.3220  -16.6627   22.5646 N   0  0  0  0  0  0  0  0  0  0  0  0
   10.0283  -16.6131   24.3009 C   0  0  0  0  0  0  0  0  0  0  0  0
   10.7463  -15.6014   24.2238 O   0  0  0  0  0  0  0  0  0  0  0  0
    9.6962  -17.1380   25.5702 N   0  0  0  0  0  0  0  0  0  0  0  0
   10.1957  -16.5620   26.8181 C   0  0  1  0  0  0  0  0  0  0  0  0
    8.9754  -16.2478   27.6515 C   0  0  0  0  0  0  0  0  0  0  0  0
    7.9218  -15.5059   26.9502 C   0  0  0  0  0  0  0  0  0  0  0  0
    6.8624  -16.0814   26.2315 C   0  0  0  0  0  0  0  0  0  0  0  0
    6.0585  -15.1177   25.7564 N   0  0  0  0  0  0  0  0  0  0  0  0
    6.5463  -13.9246   26.1327 C   0  0  0  0  0  0  0  0  0  0  0  0
    6.0946  -12.6463   25.8906 C   0  0  0  0  0  0  0  0  0  0  0  0
    6.7584  -11.5363   26.3630 C   0  0  0  0  0  0  0  0  0  0  0  0
    7.9205  -11.7487   27.1057 C   0  0  0  0  0  0  0  0  0  0  0  0
    8.3462  -13.0322   27.3312 C   0  0  0  0  0  0  0  0  0  0  0  0
    7.7087  -14.1609   26.8768 C   0  0  0  0  0  0  0  0  0  0  0  0
   11.1361  -17.4285   27.5296 C   0  0  0  0  0  0  0  0  0  0  0  0
   11.3870  -18.7228   27.0467 O   0  0  0  0  0  0  0  0  0  0  0  0
   11.6989  -16.9863   28.5636 O   0  0  0  0  0  0  0  0  0  0  0  0
  2  1  1  6
  2  3  1  0
  2  8  1  0
  4  5  1  0
  4  3  1  0
  6  5  1  0
  7  6  1  0
  8  9  2  0
 10 11  1  0
 12 11  1  6
 12 14  1  0
 13 12  1  0
 13  8  1  0
 14 15  2  0
 16 17  1  0
 16 14  1  0
 17 28  1  0
 17 18  1  1
 19 27  1  0
 19 18  1  0
 20 19  2  0
 21 20  1  0
 21 22  1  0
 22 27  2  0
 23 22  1  0
 23 24  2  0
 24 25  1  0
 25 26  2  0
 27 26  1  0
 28 30  2  0
 28 29  1  0
M  END
$$$$
