KSW.pdb
     RDKit          3D

 30 31  0  0  1  0  0  0  0  0999 V2000
    9.1095  -15.4148   19.3092 N   0  0  0  0  0  0  0  0  0  0  0  0
    8.7421  -14.4719   20.2857 C   0  0  1  0  0  0  0  0  0  0  0  0
    8.0858  -13.2652   19.7241 C   0  0  0  0  0  0  0  0  0  0  0  0
    8.1109  -12.9753   18.3062 C   0  0  0  0  0  0  0  0  0  0  0  0
    8.0860  -13.9089   17.2057 C   0  0  0  0  0  0  0  0  0  0  0  0
    8.0278  -13.5484   15.7925 C   0  0  0  0  0  0  0  0  0  0  0  0
    7.9931  -14.7098   14.8977 N   0  0  0  0  0  0  0  0  0  0  0  0
    7.9416  -15.0718   21.4093 C   0  0  0  0  0  0  0  0  0  0  0  0
    7.0825  -14.3515   21.9789 O   0  0  0  0  0  0  0  0  0  0  0  0
   11.5354  -17.5220   21.6076 O   0  0  0  0  0  0  0  0  0  0  0  0
   10.3627  -16.8599   21.2515 C   0  0  0  0  0  0  0  0  0  0  0  0
    9.3325  -16.9595   22.3304 C   0  0  2  0  0  0  0  0  0  0  0  0
    8.0905  -16.3930   21.8689 N   0  0  0  0  0  0  0  0  0  0  0  0
    9.7802  -16.4173   23.6218 C   0  0  0  0  0  0  0  0  0  0  0  0
   10.4089  -15.3463   23.6749 O   0  0  0  0  0  0  0  0  0  0  0  0
    9.4942  -17.1185   24.8150 N   0  0  0  0  0  0  0  0  0  0  0  0
    9.9791  -16.6810   26.1234 C   0  0  1  0  0  0  0  0  0  0  0  0
    8.7489  -16.4512   26.9696 C   0  0  0  0  0  0  0  0  0  0  0  0
    7.7539  -15.5474   26.3819 C   0  0  0  0  0  0  0  0  0  0  0  0
    6.6008  -15.9474   25.6888 C   0  0  0  0  0  0  0  0  0  0  0  0
    5.8903  -14.8682   25.3267 N   0  0  0  0  0  0  0  0  0  0  0  0
    6.5302  -13.7674   25.7535 C   0  0  0  0  0  0  0  0  0  0  0  0
    6.2169  -12.4326   25.6243 C   0  0  0  0  0  0  0  0  0  0  0  0
    7.0265  -11.4409   26.1309 C   0  0  0  0  0  0  0  0  0  0  0  0
    8.1922  -11.8349   26.7891 C   0  0  0  0  0  0  0  0  0  0  0  0
    8.4782  -13.1709   26.9029 C   0  0  0  0  0  0  0  0  0  0  0  0
    7.6933  -14.1853   26.4114 C   0  0  0  0  0  0  0  0  0  0  0  0
   10.9068  -17.6230   26.7507 C   0  0  0  0  0  0  0  0  0  0  0  0
   11.5860  -17.2507   27.9218 O   0  0  0  0  0  0  0  0  0  0  0  0
   11.0718  -18.7506   26.2190 O   0  0  0  0  0  0  0  0  0  0  0  0
  2  1  1  6
  2  3  1  0
  2  8  1  0
  4  5  1  0
  4  3  1  0
  6  5  1  0
  7  6  1  0
  8  9  2  0
 10 11  1  0
 12 11  1  6
 12 14  1  0
 13 12  1  0
 13  8  1  0
 14 15  2  0
 16 17  1  0
 16 14  1  0
 17 28  1  0
 17 18  1  1
 19 27  1  0
 19 18  1  0
 20 19  2  0
 21 20  1  0
 21 22  1  0
 22 27  2  0
 23 22  1  0
 23 24  2  0
 24 25  1  0
 25 26  2  0
 27 26  1  0
 28 30  2  0
 28 29  1  0
M  END
$$$$
