KSW.pdb
     RDKit          3D

 30 31  0  0  1  0  0  0  0  0999 V2000
    9.8852  -13.3510   19.3245 N   0  0  0  0  0  0  0  0  0  0  0  0
    8.5865  -13.6059   19.7997 C   0  0  1  0  0  0  0  0  0  0  0  0
    7.5790  -13.7454   18.7191 C   0  0  0  0  0  0  0  0  0  0  0  0
    7.7829  -14.6390   17.5989 C   0  0  0  0  0  0  0  0  0  0  0  0
    8.1508  -14.3002   16.2449 C   0  0  0  0  0  0  0  0  0  0  0  0
    8.2018  -15.2337   15.1240 C   0  0  0  0  0  0  0  0  0  0  0  0
    8.6198  -14.6079   13.8653 N   0  0  0  0  0  0  0  0  0  0  0  0
    8.5307  -14.7560   20.7678 C   0  0  0  0  0  0  0  0  0  0  0  0
    7.4207  -15.0489   21.2810 O   0  0  0  0  0  0  0  0  0  0  0  0
   11.8606  -17.2787   21.7370 O   0  0  0  0  0  0  0  0  0  0  0  0
   10.5298  -17.6890   21.7066 C   0  0  0  0  0  0  0  0  0  0  0  0
    9.6105  -16.5855   22.1219 C   0  0  2  0  0  0  0  0  0  0  0  0
    9.6440  -15.5309   21.1404 N   0  0  0  0  0  0  0  0  0  0  0  0
    9.8409  -16.1151   23.4959 C   0  0  0  0  0  0  0  0  0  0  0  0
   10.4301  -15.0411   23.7068 O   0  0  0  0  0  0  0  0  0  0  0  0
    9.3891  -16.8895   24.5883 N   0  0  0  0  0  0  0  0  0  0  0  0
    9.6971  -16.5506   25.9772 C   0  0  1  0  0  0  0  0  0  0  0  0
    8.3785  -16.5698   26.7143 C   0  0  0  0  0  0  0  0  0  0  0  0
    7.4208  -15.5403   26.2957 C   0  0  0  0  0  0  0  0  0  0  0  0
    6.2324  -15.7751   25.5869 C   0  0  0  0  0  0  0  0  0  0  0  0
    5.5733  -14.6199   25.4085 N   0  0  0  0  0  0  0  0  0  0  0  0
    6.2814  -13.6278   25.9721 C   0  0  0  0  0  0  0  0  0  0  0  0
    6.0380  -12.2745   26.0492 C   0  0  0  0  0  0  0  0  0  0  0  0
    6.9114  -11.4104   26.6708 C   0  0  0  0  0  0  0  0  0  0  0  0
    8.0687  -11.9555   27.2285 C   0  0  0  0  0  0  0  0  0  0  0  0
    8.2845  -13.3062   27.1367 C   0  0  0  0  0  0  0  0  0  0  0  0
    7.4348  -14.1962   26.5261 C   0  0  0  0  0  0  0  0  0  0  0  0
   10.6819  -17.4402   26.5939 C   0  0  0  0  0  0  0  0  0  0  0  0
   11.2139  -17.1182   27.8528 O   0  0  0  0  0  0  0  0  0  0  0  0
   11.0280  -18.4780   25.9739 O   0  0  0  0  0  0  0  0  0  0  0  0
  2  1  1  6
  2  3  1  0
  2  8  1  0
  4  5  1  0
  4  3  1  0
  6  5  1  0
  7  6  1  0
  8  9  2  0
 10 11  1  0
 12 11  1  6
 12 14  1  0
 13 12  1  0
 13  8  1  0
 14 15  2  0
 16 17  1  0
 16 14  1  0
 17 28  1  0
 17 18  1  1
 19 27  1  0
 19 18  1  0
 20 19  2  0
 21 20  1  0
 21 22  1  0
 22 27  2  0
 23 22  1  0
 23 24  2  0
 24 25  1  0
 25 26  2  0
 27 26  1  0
 28 30  2  0
 28 29  1  0
M  END
$$$$
