KSW.pdb
     RDKit          3D

 30 31  0  0  1  0  0  0  0  0999 V2000
    8.6998  -17.7040   19.2862 N   0  0  0  0  0  0  0  0  0  0  0  0
    9.5923  -17.0603   20.1618 C   0  0  1  0  0  0  0  0  0  0  0  0
    9.6379  -15.5880   19.9814 C   0  0  0  0  0  0  0  0  0  0  0  0
    8.4310  -14.7987   19.8561 C   0  0  0  0  0  0  0  0  0  0  0  0
    8.3150  -13.3865   19.5811 C   0  0  0  0  0  0  0  0  0  0  0  0
    7.0672  -12.6299   19.5562 C   0  0  0  0  0  0  0  0  0  0  0  0
    7.2483  -11.2225   19.1855 N   0  0  0  0  0  0  0  0  0  0  0  0
    9.3794  -17.4407   21.6016 C   0  0  0  0  0  0  0  0  0  0  0  0
    8.2006  -17.6153   22.0031 O   0  0  0  0  0  0  0  0  0  0  0  0
   12.3520  -19.1122   23.9599 O   0  0  0  0  0  0  0  0  0  0  0  0
   10.9847  -19.3001   24.1481 C   0  0  0  0  0  0  0  0  0  0  0  0
   10.2227  -18.0381   23.8991 C   0  0  2  0  0  0  0  0  0  0  0  0
   10.4170  -17.6153   22.5352 N   0  0  0  0  0  0  0  0  0  0  0  0
   10.4971  -16.9822   24.8850 C   0  0  0  0  0  0  0  0  0  0  0  0
   11.2917  -16.0629   24.6234 O   0  0  0  0  0  0  0  0  0  0  0  0
    9.8523  -17.0107   26.1422 N   0  0  0  0  0  0  0  0  0  0  0  0
   10.2117  -16.1070   27.2344 C   0  0  1  0  0  0  0  0  0  0  0  0
    8.9136  -15.7299   27.9091 C   0  0  0  0  0  0  0  0  0  0  0  0
    7.9120  -15.1213   27.0267 C   0  0  0  0  0  0  0  0  0  0  0  0
    6.8629  -15.8056   26.3934 C   0  0  0  0  0  0  0  0  0  0  0  0
    6.1090  -14.9398   25.6985 N   0  0  0  0  0  0  0  0  0  0  0  0
    6.6202  -13.7069   25.8470 C   0  0  0  0  0  0  0  0  0  0  0  0
    6.2193  -12.4943   25.3320 C   0  0  0  0  0  0  0  0  0  0  0  0
    6.8998  -11.3274   25.5990 C   0  0  0  0  0  0  0  0  0  0  0  0
    8.0253  -11.4119   26.4196 C   0  0  0  0  0  0  0  0  0  0  0  0
    8.4007  -12.6326   26.9183 C   0  0  0  0  0  0  0  0  0  0  0  0
    7.7450  -13.8146   26.6737 C   0  0  0  0  0  0  0  0  0  0  0  0
   11.1728  -16.6794   28.1778 C   0  0  0  0  0  0  0  0  0  0  0  0
   11.7440  -15.8621   29.1664 O   0  0  0  0  0  0  0  0  0  0  0  0
   11.4635  -17.8986   28.0765 O   0  0  0  0  0  0  0  0  0  0  0  0
  2  1  1  6
  2  3  1  0
  2  8  1  0
  4  5  1  0
  4  3  1  0
  6  5  1  0
  7  6  1  0
  8  9  2  0
 10 11  1  0
 12 11  1  1
 12 14  1  0
 13 12  1  0
 13  8  1  0
 14 15  2  0
 16 17  1  0
 16 14  1  0
 17 28  1  0
 17 18  1  1
 19 27  1  0
 19 18  1  0
 20 19  2  0
 21 20  1  0
 21 22  1  0
 22 27  2  0
 23 22  1  0
 23 24  2  0
 24 25  1  0
 25 26  2  0
 27 26  1  0
 28 30  2  0
 28 29  1  0
M  END
$$$$
