KSW.pdb
     RDKit          3D

 30 31  0  0  1  0  0  0  0  0999 V2000
    9.7389  -15.6016   17.6671 N   0  0  0  0  0  0  0  0  0  0  0  0
    9.1976  -14.7189   18.6185 C   0  0  1  0  0  0  0  0  0  0  0  0
    8.0492  -13.9307   18.1066 C   0  0  0  0  0  0  0  0  0  0  0  0
    7.5256  -14.1273   16.7715 C   0  0  0  0  0  0  0  0  0  0  0  0
    7.7499  -13.3167   15.5986 C   0  0  0  0  0  0  0  0  0  0  0  0
    7.0221  -13.4330   14.3388 C   0  0  0  0  0  0  0  0  0  0  0  0
    7.4149  -12.4276   13.3459 N   0  0  0  0  0  0  0  0  0  0  0  0
    8.8767  -15.3897   19.9262 C   0  0  0  0  0  0  0  0  0  0  0  0
    8.4061  -14.6864   20.8563 O   0  0  0  0  0  0  0  0  0  0  0  0
   10.4143  -19.1629   21.2809 O   0  0  0  0  0  0  0  0  0  0  0  0
    9.0539  -18.8672   21.3298 C   0  0  0  0  0  0  0  0  0  0  0  0
    8.8211  -17.3952   21.4498 C   0  0  2  0  0  0  0  0  0  0  0  0
    9.0690  -16.7598   20.1804 N   0  0  0  0  0  0  0  0  0  0  0  0
    9.5475  -16.7750   22.5677 C   0  0  0  0  0  0  0  0  0  0  0  0
   10.3888  -15.8840   22.3593 O   0  0  0  0  0  0  0  0  0  0  0  0
    9.2884  -17.1941   23.8922 N   0  0  0  0  0  0  0  0  0  0  0  0
    9.9844  -16.6313   25.0488 C   0  0  1  0  0  0  0  0  0  0  0  0
    9.7209  -15.1442   25.0122 C   0  0  0  0  0  0  0  0  0  0  0  0
    8.3399  -14.7531   25.3160 C   0  0  0  0  0  0  0  0  0  0  0  0
    7.2379  -15.6215   25.3519 C   0  0  0  0  0  0  0  0  0  0  0  0
    6.1355  -14.9432   25.7062 N   0  0  0  0  0  0  0  0  0  0  0  0
    6.4660  -13.6571   25.9058 C   0  0  0  0  0  0  0  0  0  0  0  0
    5.6985  -12.5725   26.2681 C   0  0  0  0  0  0  0  0  0  0  0  0
    6.2363  -11.3129   26.4093 C   0  0  0  0  0  0  0  0  0  0  0  0
    7.6033  -11.1659   26.1704 C   0  0  0  0  0  0  0  0  0  0  0  0
    8.3423  -12.2634   25.8114 C   0  0  0  0  0  0  0  0  0  0  0  0
    7.8393  -13.5329   25.6630 C   0  0  0  0  0  0  0  0  0  0  0  0
    9.5819  -17.2274   26.3232 C   0  0  0  0  0  0  0  0  0  0  0  0
    8.5288  -18.1555   26.3521 O   0  0  0  0  0  0  0  0  0  0  0  0
   10.1959  -16.8890   27.3672 O   0  0  0  0  0  0  0  0  0  0  0  0
  2  1  1  6
  2  3  1  0
  2  8  1  0
  4  5  1  0
  4  3  1  0
  6  5  1  0
  7  6  1  0
  8  9  2  0
 10 11  1  0
 12 11  1  6
 12 14  1  0
 13 12  1  0
 13  8  1  0
 14 15  2  0
 16 17  1  0
 16 14  1  0
 17 28  1  0
 17 18  1  1
 19 27  1  0
 19 18  1  0
 20 19  2  0
 21 20  1  0
 21 22  1  0
 22 27  2  0
 23 22  1  0
 23 24  2  0
 24 25  1  0
 25 26  2  0
 27 26  1  0
 28 30  2  0
 28 29  1  0
M  END
$$$$
