KSW.pdb
     RDKit          3D

 30 31  0  0  1  0  0  0  0  0999 V2000
    6.7223  -16.3143   19.5947 N   0  0  0  0  0  0  0  0  0  0  0  0
    7.9007  -15.7507   20.1154 C   0  0  1  0  0  0  0  0  0  0  0  0
    7.8256  -14.2786   20.2868 C   0  0  0  0  0  0  0  0  0  0  0  0
    8.1725  -13.3688   19.2157 C   0  0  0  0  0  0  0  0  0  0  0  0
    8.0008  -13.5587   17.7952 C   0  0  0  0  0  0  0  0  0  0  0  0
    8.4259  -12.6221   16.7597 C   0  0  0  0  0  0  0  0  0  0  0  0
    8.1492  -13.0952   15.3993 N   0  0  0  0  0  0  0  0  0  0  0  0
    8.3759  -16.4358   21.3676 C   0  0  0  0  0  0  0  0  0  0  0  0
    7.5421  -16.6427   22.2859 O   0  0  0  0  0  0  0  0  0  0  0  0
   12.3885  -17.8654   21.9919 O   0  0  0  0  0  0  0  0  0  0  0  0
   11.2279  -18.5431   22.3578 C   0  0  0  0  0  0  0  0  0  0  0  0
   10.1411  -17.5917   22.7439 C   0  0  2  0  0  0  0  0  0  0  0  0
    9.6988  -16.8631   21.5820 N   0  0  0  0  0  0  0  0  0  0  0  0
   10.4941  -16.7264   23.8792 C   0  0  0  0  0  0  0  0  0  0  0  0
   11.1818  -15.7054   23.7071 O   0  0  0  0  0  0  0  0  0  0  0  0
   10.0483  -17.0566   25.1790 N   0  0  0  0  0  0  0  0  0  0  0  0
   10.4848  -16.3311   26.3714 C   0  0  1  0  0  0  0  0  0  0  0  0
   10.0283  -14.9034   26.1824 C   0  0  0  0  0  0  0  0  0  0  0  0
    8.5737  -14.7219   26.1236 C   0  0  0  0  0  0  0  0  0  0  0  0
    7.6276  -15.7556   26.0448 C   0  0  0  0  0  0  0  0  0  0  0  0
    6.3887  -15.2400   26.0539 N   0  0  0  0  0  0  0  0  0  0  0  0
    6.4786  -13.9027   26.1350 C   0  0  0  0  0  0  0  0  0  0  0  0
    5.5027  -12.9315   26.1660 C   0  0  0  0  0  0  0  0  0  0  0  0
    5.8094  -11.5912   26.2391 C   0  0  0  0  0  0  0  0  0  0  0  0
    7.1596  -11.2411   26.2811 C   0  0  0  0  0  0  0  0  0  0  0  0
    8.1092  -12.2293   26.2491 C   0  0  0  0  0  0  0  0  0  0  0  0
    7.8389  -13.5742   26.1780 C   0  0  0  0  0  0  0  0  0  0  0  0
    9.9865  -16.9041   27.6223 C   0  0  0  0  0  0  0  0  0  0  0  0
   10.4245  -16.3780   28.8482 O   0  0  0  0  0  0  0  0  0  0  0  0
    9.1722  -17.8606   27.5647 O   0  0  0  0  0  0  0  0  0  0  0  0
  2  1  1  1
  2  3  1  0
  2  8  1  0
  4  5  1  0
  4  3  1  0
  6  5  1  0
  7  6  1  0
  8  9  2  0
 10 11  1  0
 12 11  1  6
 12 14  1  0
 13 12  1  0
 13  8  1  0
 14 15  2  0
 16 17  1  0
 16 14  1  0
 17 28  1  0
 17 18  1  6
 19 27  1  0
 19 18  1  0
 20 19  2  0
 21 20  1  0
 21 22  1  0
 22 27  2  0
 23 22  1  0
 23 24  2  0
 24 25  1  0
 25 26  2  0
 27 26  1  0
 28 30  2  0
 28 29  1  0
M  END
$$$$
