KSW.pdb
     RDKit          3D

 30 31  0  0  1  0  0  0  0  0999 V2000
    9.4211  -14.9775   18.6448 N   0  0  0  0  0  0  0  0  0  0  0  0
    8.7849  -14.3369   19.7228 C   0  0  1  0  0  0  0  0  0  0  0  0
    7.4768  -13.7352   19.3636 C   0  0  0  0  0  0  0  0  0  0  0  0
    6.9258  -13.8517   18.0301 C   0  0  0  0  0  0  0  0  0  0  0  0
    7.3682  -13.1952   16.8232 C   0  0  0  0  0  0  0  0  0  0  0  0
    7.8357  -13.8701   15.6165 C   0  0  0  0  0  0  0  0  0  0  0  0
    8.3127  -12.9464   14.5820 N   0  0  0  0  0  0  0  0  0  0  0  0
    8.6828  -15.2072   20.9457 C   0  0  0  0  0  0  0  0  0  0  0  0
    8.0139  -14.7846   21.9229 O   0  0  0  0  0  0  0  0  0  0  0  0
   11.1174  -18.5781   21.5288 O   0  0  0  0  0  0  0  0  0  0  0  0
    9.7980  -18.6361   21.9719 C   0  0  0  0  0  0  0  0  0  0  0  0
    9.2630  -17.2717   22.2677 C   0  0  2  0  0  0  0  0  0  0  0  0
    9.2896  -16.4701   21.0704 N   0  0  0  0  0  0  0  0  0  0  0  0
    9.9076  -16.6253   23.4204 C   0  0  0  0  0  0  0  0  0  0  0  0
   10.8647  -15.8492   23.2575 O   0  0  0  0  0  0  0  0  0  0  0  0
    9.4362  -16.8874   24.7267 N   0  0  0  0  0  0  0  0  0  0  0  0
   10.0999  -16.3721   25.9237 C   0  0  1  0  0  0  0  0  0  0  0  0
    9.0144  -16.1934   26.9591 C   0  0  0  0  0  0  0  0  0  0  0  0
    7.8499  -15.4236   26.5079 C   0  0  0  0  0  0  0  0  0  0  0  0
    6.6307  -15.9701   26.0778 C   0  0  0  0  0  0  0  0  0  0  0  0
    5.7700  -14.9843   25.7807 N   0  0  0  0  0  0  0  0  0  0  0  0
    6.3738  -13.8046   25.9972 C   0  0  0  0  0  0  0  0  0  0  0  0
    5.9212  -12.5143   25.8339 C   0  0  0  0  0  0  0  0  0  0  0  0
    6.7158  -11.4227   26.1041 C   0  0  0  0  0  0  0  0  0  0  0  0
    8.0136  -11.6671   26.5550 C   0  0  0  0  0  0  0  0  0  0  0  0
    8.4368  -12.9620   26.7084 C   0  0  0  0  0  0  0  0  0  0  0  0
    7.6713  -14.0728   26.4500 C   0  0  0  0  0  0  0  0  0  0  0  0
   11.1833  -17.2280   26.4086 C   0  0  0  0  0  0  0  0  0  0  0  0
   11.9949  -16.7862   27.4657 O   0  0  0  0  0  0  0  0  0  0  0  0
   11.3595  -18.3458   25.8603 O   0  0  0  0  0  0  0  0  0  0  0  0
  2  1  1  6
  2  3  1  0
  2  8  1  0
  4  5  1  0
  4  3  1  0
  6  5  1  0
  7  6  1  0
  8  9  2  0
 10 11  1  0
 12 11  1  6
 12 14  1  0
 13 12  1  0
 13  8  1  0
 14 15  2  0
 16 17  1  0
 16 14  1  0
 17 28  1  0
 17 18  1  1
 19 27  1  0
 19 18  1  0
 20 19  2  0
 21 20  1  0
 21 22  1  0
 22 27  2  0
 23 22  1  0
 23 24  2  0
 24 25  1  0
 25 26  2  0
 27 26  1  0
 28 30  2  0
 28 29  1  0
M  END
$$$$
