KSW.pdb
     RDKit          3D

 30 31  0  0  1  0  0  0  0  0999 V2000
    8.4856  -17.2126   18.9335 N   0  0  0  0  0  0  0  0  0  0  0  0
    9.2504  -16.4495   19.8336 C   0  0  1  0  0  0  0  0  0  0  0  0
    9.0368  -14.9873   19.6980 C   0  0  0  0  0  0  0  0  0  0  0  0
    8.3118  -14.4244   18.5787 C   0  0  0  0  0  0  0  0  0  0  0  0
    8.0371  -13.0343   18.3039 C   0  0  0  0  0  0  0  0  0  0  0  0
    7.2702  -12.5327   17.1679 C   0  0  0  0  0  0  0  0  0  0  0  0
    7.8021  -12.9651   15.8714 N   0  0  0  0  0  0  0  0  0  0  0  0
    9.1065  -16.9055   21.2599 C   0  0  0  0  0  0  0  0  0  0  0  0
    7.9549  -16.9276   21.7645 O   0  0  0  0  0  0  0  0  0  0  0  0
   12.2240  -18.8098   23.2632 O   0  0  0  0  0  0  0  0  0  0  0  0
   10.8844  -19.0911   23.5217 C   0  0  0  0  0  0  0  0  0  0  0  0
   10.0369  -17.8660   23.3950 C   0  0  2  0  0  0  0  0  0  0  0  0
   10.1805  -17.3114   22.0727 N   0  0  0  0  0  0  0  0  0  0  0  0
   10.2572  -16.8859   24.4688 C   0  0  0  0  0  0  0  0  0  0  0  0
   10.9675  -15.8843   24.2757 O   0  0  0  0  0  0  0  0  0  0  0  0
    9.6567  -17.0824   25.7329 N   0  0  0  0  0  0  0  0  0  0  0  0
   10.1374  -16.4228   26.9464 C   0  0  1  0  0  0  0  0  0  0  0  0
    8.9037  -15.9954   27.7065 C   0  0  0  0  0  0  0  0  0  0  0  0
    7.8967  -15.2911   26.9052 C   0  0  0  0  0  0  0  0  0  0  0  0
    6.8660  -15.9022   26.1743 C   0  0  0  0  0  0  0  0  0  0  0  0
    6.1002  -14.9640   25.5961 N   0  0  0  0  0  0  0  0  0  0  0  0
    6.5857  -13.7536   25.9161 C   0  0  0  0  0  0  0  0  0  0  0  0
    6.1647  -12.4898   25.5668 C   0  0  0  0  0  0  0  0  0  0  0  0
    6.8199  -11.3577   25.9968 C   0  0  0  0  0  0  0  0  0  0  0  0
    7.9409  -11.5321   26.8094 C   0  0  0  0  0  0  0  0  0  0  0  0
    8.3367  -12.8021   27.1411 C   0  0  0  0  0  0  0  0  0  0  0  0
    7.7064  -13.9518   26.7316 C   0  0  0  0  0  0  0  0  0  0  0  0
   11.0187  -17.2609   27.7602 C   0  0  0  0  0  0  0  0  0  0  0  0
   11.2590  -18.5901   27.3770 O   0  0  0  0  0  0  0  0  0  0  0  0
   11.5415  -16.7632   28.7900 O   0  0  0  0  0  0  0  0  0  0  0  0
  2  1  1  6
  2  3  1  0
  2  8  1  0
  4  5  1  0
  4  3  1  0
  6  5  1  0
  7  6  1  0
  8  9  2  0
 10 11  1  0
 12 11  1  1
 12 14  1  0
 13 12  1  0
 13  8  1  0
 14 15  2  0
 16 17  1  0
 16 14  1  0
 17 28  1  0
 17 18  1  1
 19 27  1  0
 19 18  1  0
 20 19  2  0
 21 20  1  0
 21 22  1  0
 22 27  2  0
 23 22  1  0
 23 24  2  0
 24 25  1  0
 25 26  2  0
 27 26  1  0
 28 30  2  0
 28 29  1  0
M  END
$$$$
