KSW.pdb
     RDKit          3D

 30 31  0  0  1  0  0  0  0  0999 V2000
    6.7630  -16.3554   20.2591 N   0  0  0  0  0  0  0  0  0  0  0  0
    7.9457  -15.7442   20.7118 C   0  0  1  0  0  0  0  0  0  0  0  0
    7.8578  -14.2644   20.7781 C   0  0  0  0  0  0  0  0  0  0  0  0
    7.6790  -13.4584   19.5891 C   0  0  0  0  0  0  0  0  0  0  0  0
    8.3723  -13.5660   18.3277 C   0  0  0  0  0  0  0  0  0  0  0  0
    8.2272  -12.6480   17.2023 C   0  0  0  0  0  0  0  0  0  0  0  0
    8.9554  -13.0780   16.0041 N   0  0  0  0  0  0  0  0  0  0  0  0
    8.4548  -16.3322   21.9996 C   0  0  0  0  0  0  0  0  0  0  0  0
    7.6238  -16.5812   22.9098 O   0  0  0  0  0  0  0  0  0  0  0  0
   12.5565  -17.1162   22.7331 O   0  0  0  0  0  0  0  0  0  0  0  0
   11.5648  -18.0217   23.1031 C   0  0  0  0  0  0  0  0  0  0  0  0
   10.2821  -17.3233   23.4227 C   0  0  2  0  0  0  0  0  0  0  0  0
    9.8069  -16.6238   22.2558 N   0  0  0  0  0  0  0  0  0  0  0  0
   10.3572  -16.4774   24.6231 C   0  0  0  0  0  0  0  0  0  0  0  0
   10.6654  -15.2766   24.5331 O   0  0  0  0  0  0  0  0  0  0  0  0
   10.0768  -17.0327   25.8920 N   0  0  0  0  0  0  0  0  0  0  0  0
   10.2859  -16.2980   27.1391 C   0  0  1  0  0  0  0  0  0  0  0  0
    8.9491  -16.2799   27.8427 C   0  0  0  0  0  0  0  0  0  0  0  0
    7.8964  -15.5275   27.1514 C   0  0  0  0  0  0  0  0  0  0  0  0
    6.8024  -16.0920   26.4771 C   0  0  0  0  0  0  0  0  0  0  0  0
    6.0113  -15.1191   25.9992 N   0  0  0  0  0  0  0  0  0  0  0  0
    6.5410  -13.9305   26.3309 C   0  0  0  0  0  0  0  0  0  0  0  0
    6.1167  -12.6470   26.0680 C   0  0  0  0  0  0  0  0  0  0  0  0
    6.8226  -11.5439   26.4930 C   0  0  0  0  0  0  0  0  0  0  0  0
    7.9991  -11.7690   27.2089 C   0  0  0  0  0  0  0  0  0  0  0  0
    8.3967  -13.0575   27.4560 C   0  0  0  0  0  0  0  0  0  0  0  0
    7.7170  -14.1795   27.0488 C   0  0  0  0  0  0  0  0  0  0  0  0
   11.3408  -16.8612   27.9825 C   0  0  0  0  0  0  0  0  0  0  0  0
   11.7197  -16.1924   29.1574 O   0  0  0  0  0  0  0  0  0  0  0  0
   11.8841  -17.9388   27.6287 O   0  0  0  0  0  0  0  0  0  0  0  0
  2  1  1  1
  2  3  1  0
  2  8  1  0
  4  5  1  0
  4  3  1  0
  6  5  1  0
  7  6  1  0
  8  9  2  0
 10 11  1  0
 12 11  1  6
 12 14  1  0
 13 12  1  0
 13  8  1  0
 14 15  2  0
 16 17  1  0
 16 14  1  0
 17 28  1  0
 17 18  1  1
 19 27  1  0
 19 18  1  0
 20 19  2  0
 21 20  1  0
 21 22  1  0
 22 27  2  0
 23 22  1  0
 23 24  2  0
 24 25  1  0
 25 26  2  0
 27 26  1  0
 28 30  2  0
 28 29  1  0
M  END
$$$$
