WPG.pdb
     RDKit          3D

 26 28  0  0  1  0  0  0  0  0999 V2000
    6.6803  -17.4371   23.2429 N   0  0  0  0  0  0  0  0  0  0  0  0
    7.1398  -16.0863   22.9266 C   0  0  1  0  0  0  0  0  0  0  0  0
    7.9463  -15.5108   24.0665 C   0  0  0  0  0  0  0  0  0  0  0  0
    7.1544  -14.9271   25.1518 C   0  0  0  0  0  0  0  0  0  0  0  0
    6.1889  -15.5932   25.8653 C   0  0  0  0  0  0  0  0  0  0  0  0
    5.6682  -14.7354   26.7467 N   0  0  0  0  0  0  0  0  0  0  0  0
    6.2583  -13.5282   26.6380 C   0  0  0  0  0  0  0  0  0  0  0  0
    6.0911  -12.3375   27.3043 C   0  0  0  0  0  0  0  0  0  0  0  0
    6.8659  -11.2541   26.9679 C   0  0  0  0  0  0  0  0  0  0  0  0
    7.8187  -11.3230   25.9706 C   0  0  0  0  0  0  0  0  0  0  0  0
    7.9779  -12.5227   25.3082 C   0  0  0  0  0  0  0  0  0  0  0  0
    7.1974  -13.6405   25.6346 C   0  0  0  0  0  0  0  0  0  0  0  0
    7.8460  -16.0614   21.6384 C   0  0  0  0  0  0  0  0  0  0  0  0
    8.3023  -17.1380   21.1804 O   0  0  0  0  0  0  0  0  0  0  0  0
    8.0505  -14.8849   20.8566 N   0  0  0  0  0  0  0  0  0  0  0  0
    7.6745  -13.5708   21.3305 C   0  0  0  0  0  0  0  0  0  0  0  0
    7.3998  -12.7917   20.0213 C   0  0  0  0  0  0  0  0  0  0  0  0
    8.5333  -13.3383   19.1445 C   0  0  0  0  0  0  0  0  0  0  0  0
    8.6039  -14.7679   19.5551 C   0  0  1  0  0  0  0  0  0  0  0  0
   10.0126  -15.2751   19.4764 C   0  0  0  0  0  0  0  0  0  0  0  0
   10.5452  -15.3099   18.3449 O   0  0  0  0  0  0  0  0  0  0  0  0
   10.7540  -15.7068   20.5936 N   0  0  0  0  0  0  0  0  0  0  0  0
   12.1309  -16.2045   20.4833 C   0  0  0  0  0  0  0  0  0  0  0  0
   12.6282  -16.4642   21.8639 C   0  0  0  0  0  0  0  0  0  0  0  0
   13.4013  -15.5418   22.5544 O   0  0  0  0  0  0  0  0  0  0  0  0
   12.3683  -17.5383   22.4704 O   0  0  0  0  0  0  0  0  0  0  0  0
  2  1  1  1
  2  3  1  0
  4  3  1  0
  5  4  2  0
  6  5  1  0
  7  6  1  0
  7 12  2  0
  8  9  2  0
  8  7  1  0
  9 10  1  0
 10 11  2  0
 12 11  1  0
 12  4  1  0
 13 15  1  0
 13  2  1  0
 14 13  2  0
 15 19  1  0
 16 15  1  0
 17 16  1  0
 17 18  1  0
 18 19  1  0
 19 20  1  1
 20 21  2  0
 20 22  1  0
 22 23  1  0
 23 24  1  0
 24 25  1  0
 26 24  2  0
M  END
$$$$
