WPG.pdb
     RDKit          3D

 26 28  0  0  1  0  0  0  0  0999 V2000
    6.3011  -17.3207   23.4450 N   0  0  0  0  0  0  0  0  0  0  0  0
    7.0033  -16.0604   23.2124 C   0  0  1  0  0  0  0  0  0  0  0  0
    7.9368  -15.7445   24.3570 C   0  0  0  0  0  0  0  0  0  0  0  0
    7.3058  -15.0963   25.5090 C   0  0  0  0  0  0  0  0  0  0  0  0
    6.6654  -15.7567   26.5284 C   0  0  0  0  0  0  0  0  0  0  0  0
    6.1970  -14.8391   27.3783 N   0  0  0  0  0  0  0  0  0  0  0  0
    6.5075  -13.5979   26.9535 C   0  0  0  0  0  0  0  0  0  0  0  0
    6.2666  -12.3436   27.4616 C   0  0  0  0  0  0  0  0  0  0  0  0
    6.7276  -11.2369   26.7908 C   0  0  0  0  0  0  0  0  0  0  0  0
    7.4336  -11.3447   25.6088 C   0  0  0  0  0  0  0  0  0  0  0  0
    7.6695  -12.6083   25.1078 C   0  0  0  0  0  0  0  0  0  0  0  0
    7.2074  -13.7510   25.7754 C   0  0  0  0  0  0  0  0  0  0  0  0
    7.6653  -16.0638   21.9007 C   0  0  0  0  0  0  0  0  0  0  0  0
    8.0823  -17.1545   21.4389 O   0  0  0  0  0  0  0  0  0  0  0  0
    7.8682  -14.8998   21.0999 N   0  0  0  0  0  0  0  0  0  0  0  0
    7.4740  -13.5810   21.5450 C   0  0  0  0  0  0  0  0  0  0  0  0
    7.2079  -12.8287   20.2184 C   0  0  0  0  0  0  0  0  0  0  0  0
    8.3571  -13.3802   19.3654 C   0  0  0  0  0  0  0  0  0  0  0  0
    8.4362  -14.8013   19.8031 C   0  0  1  0  0  0  0  0  0  0  0  0
    9.8504  -15.2962   19.7507 C   0  0  0  0  0  0  0  0  0  0  0  0
   10.3736  -15.4130   18.6203 O   0  0  0  0  0  0  0  0  0  0  0  0
   10.6070  -15.6303   20.8910 N   0  0  0  0  0  0  0  0  0  0  0  0
   12.0150  -16.0391   20.8127 C   0  0  0  0  0  0  0  0  0  0  0  0
   12.4812  -16.3176   22.2004 C   0  0  0  0  0  0  0  0  0  0  0  0
   13.8284  -16.3876   22.5251 O   0  0  0  0  0  0  0  0  0  0  0  0
   11.6697  -16.5033   23.1470 O   0  0  0  0  0  0  0  0  0  0  0  0
  2  1  1  1
  2  3  1  0
  4  3  1  0
  5  4  2  0
  6  5  1  0
  7  6  1  0
  7 12  2  0
  8  9  2  0
  8  7  1  0
  9 10  1  0
 10 11  2  0
 12 11  1  0
 12  4  1  0
 13 15  1  0
 13  2  1  0
 14 13  2  0
 15 19  1  0
 16 15  1  0
 17 16  1  0
 17 18  1  0
 18 19  1  0
 19 20  1  1
 20 21  2  0
 20 22  1  0
 22 23  1  0
 23 24  1  0
 24 25  1  0
 26 24  2  0
M  END
$$$$
