WPG.pdb
     RDKit          3D

 26 28  0  0  1  0  0  0  0  0999 V2000
    6.5380  -17.6608   23.5263 N   0  0  0  0  0  0  0  0  0  0  0  0
    7.0621  -16.3291   23.2304 C   0  0  1  0  0  0  0  0  0  0  0  0
    7.8290  -15.7778   24.4090 C   0  0  0  0  0  0  0  0  0  0  0  0
    7.0379  -14.9665   25.3371 C   0  0  0  0  0  0  0  0  0  0  0  0
    5.9136  -15.3989   25.9961 C   0  0  0  0  0  0  0  0  0  0  0  0
    5.4524  -14.3810   26.7275 N   0  0  0  0  0  0  0  0  0  0  0  0
    6.2348  -13.2941   26.5728 C   0  0  0  0  0  0  0  0  0  0  0  0
    6.1948  -12.0252   27.1002 C   0  0  0  0  0  0  0  0  0  0  0  0
    7.1612  -11.1127   26.7531 C   0  0  0  0  0  0  0  0  0  0  0  0
    8.1837  -11.4321   25.8816 C   0  0  0  0  0  0  0  0  0  0  0  0
    8.2140  -12.7082   25.3580 C   0  0  0  0  0  0  0  0  0  0  0  0
    7.2375  -13.6549   25.6979 C   0  0  0  0  0  0  0  0  0  0  0  0
    7.8344  -16.3358   21.9805 C   0  0  0  0  0  0  0  0  0  0  0  0
    8.3396  -17.4171   21.5901 O   0  0  0  0  0  0  0  0  0  0  0  0
    8.0518  -15.1855   21.1640 N   0  0  0  0  0  0  0  0  0  0  0  0
    7.5207  -13.8849   21.5093 C   0  0  0  0  0  0  0  0  0  0  0  0
    7.3628  -13.1944   20.1328 C   0  0  0  0  0  0  0  0  0  0  0  0
    8.6386  -13.6889   19.4399 C   0  0  0  0  0  0  0  0  0  0  0  0
    8.7605  -15.0868   19.9385 C   0  0  1  0  0  0  0  0  0  0  0  0
   10.2010  -15.4815   20.0685 C   0  0  0  0  0  0  0  0  0  0  0  0
   10.8147  -15.0790   21.0817 O   0  0  0  0  0  0  0  0  0  0  0  0
   10.8864  -16.2697   19.1235 N   0  0  0  0  0  0  0  0  0  0  0  0
   12.2990  -16.6390   19.2787 C   0  0  0  0  0  0  0  0  0  0  0  0
   12.7124  -17.3675   18.0462 C   0  0  0  0  0  0  0  0  0  0  0  0
   13.0773  -16.7024   16.8844 O   0  0  0  0  0  0  0  0  0  0  0  0
   12.7496  -18.6268   18.0022 O   0  0  0  0  0  0  0  0  0  0  0  0
  2  1  1  1
  2  3  1  0
  4  3  1  0
  5  4  2  0
  6  5  1  0
  7  6  1  0
  7 12  2  0
  8  9  2  0
  8  7  1  0
  9 10  1  0
 10 11  2  0
 12 11  1  0
 12  4  1  0
 13 15  1  0
 13  2  1  0
 14 13  2  0
 15 19  1  0
 16 15  1  0
 17 16  1  0
 17 18  1  0
 18 19  1  0
 19 20  1  1
 20 21  2  0
 20 22  1  0
 22 23  1  0
 23 24  1  0
 24 25  1  0
 26 24  2  0
M  END
$$$$
