WPG.pdb
     RDKit          3D

 26 28  0  0  1  0  0  0  0  0999 V2000
    6.2588  -17.2683   23.3630 N   0  0  0  0  0  0  0  0  0  0  0  0
    6.9239  -16.0146   23.0141 C   0  0  1  0  0  0  0  0  0  0  0  0
    7.7328  -15.4919   24.1776 C   0  0  0  0  0  0  0  0  0  0  0  0
    6.9548  -14.8132   25.2167 C   0  0  0  0  0  0  0  0  0  0  0  0
    5.8966  -15.3677   25.8935 C   0  0  0  0  0  0  0  0  0  0  0  0
    5.4246  -14.4468   26.7378 N   0  0  0  0  0  0  0  0  0  0  0  0
    6.1361  -13.3059   26.6403 C   0  0  0  0  0  0  0  0  0  0  0  0
    6.0583  -12.0926   27.2817 C   0  0  0  0  0  0  0  0  0  0  0  0
    6.9514  -11.0973   26.9671 C   0  0  0  0  0  0  0  0  0  0  0  0
    7.9366  -11.2780   26.0164 C   0  0  0  0  0  0  0  0  0  0  0  0
    8.0053  -12.4995   25.3786 C   0  0  0  0  0  0  0  0  0  0  0  0
    7.1036  -13.5286   25.6834 C   0  0  0  0  0  0  0  0  0  0  0  0
    7.7039  -16.1616   21.7777 C   0  0  0  0  0  0  0  0  0  0  0  0
    8.0767  -17.3103   21.4334 O   0  0  0  0  0  0  0  0  0  0  0  0
    8.0705  -15.0773   20.9251 N   0  0  0  0  0  0  0  0  0  0  0  0
    7.6973  -13.7100   21.2149 C   0  0  0  0  0  0  0  0  0  0  0  0
    7.6429  -13.0570   19.8123 C   0  0  0  0  0  0  0  0  0  0  0  0
    8.8580  -13.7280   19.1600 C   0  0  0  0  0  0  0  0  0  0  0  0
    8.8022  -15.1108   19.7096 C   0  0  1  0  0  0  0  0  0  0  0  0
   10.1821  -15.6722   19.8789 C   0  0  0  0  0  0  0  0  0  0  0  0
   10.8407  -15.2812   20.8681 O   0  0  0  0  0  0  0  0  0  0  0  0
   10.7640  -16.6021   18.9954 N   0  0  0  0  0  0  0  0  0  0  0  0
   12.0452  -17.2626   19.2753 C   0  0  0  0  0  0  0  0  0  0  0  0
   13.0992  -16.5478   18.5013 C   0  0  0  0  0  0  0  0  0  0  0  0
   12.8114  -15.4473   17.7069 O   0  0  0  0  0  0  0  0  0  0  0  0
   14.3057  -16.9119   18.5330 O   0  0  0  0  0  0  0  0  0  0  0  0
  2  1  1  1
  2  3  1  0
  4  3  1  0
  5  4  2  0
  6  5  1  0
  7  6  1  0
  7 12  2  0
  8  9  2  0
  8  7  1  0
  9 10  1  0
 10 11  2  0
 12 11  1  0
 12  4  1  0
 13 15  1  0
 13  2  1  0
 14 13  2  0
 15 19  1  0
 16 15  1  0
 17 16  1  0
 17 18  1  0
 18 19  1  0
 19 20  1  1
 20 21  2  0
 20 22  1  0
 22 23  1  0
 23 24  1  0
 24 25  1  0
 26 24  2  0
M  END
$$$$
