WPG.pdb
     RDKit          3D

 26 28  0  0  1  0  0  0  0  0999 V2000
    6.8663  -17.5084   24.8458 N   0  0  0  0  0  0  0  0  0  0  0  0
    6.5290  -16.6213   23.7345 C   0  0  1  0  0  0  0  0  0  0  0  0
    6.1968  -15.2350   24.2335 C   0  0  0  0  0  0  0  0  0  0  0  0
    7.0324  -14.7583   25.3380 C   0  0  0  0  0  0  0  0  0  0  0  0
    8.0356  -15.4826   25.9330 C   0  0  0  0  0  0  0  0  0  0  0  0
    8.5520  -14.7361   26.9128 N   0  0  0  0  0  0  0  0  0  0  0  0
    7.9235  -13.5455   26.9824 C   0  0  0  0  0  0  0  0  0  0  0  0
    8.0798  -12.4469   27.7937 C   0  0  0  0  0  0  0  0  0  0  0  0
    7.2749  -11.3482   27.6150 C   0  0  0  0  0  0  0  0  0  0  0  0
    6.3024  -11.3107   26.6351 C   0  0  0  0  0  0  0  0  0  0  0  0
    6.1540  -12.4188   25.8267 C   0  0  0  0  0  0  0  0  0  0  0  0
    6.9639  -13.5510   25.9923 C   0  0  0  0  0  0  0  0  0  0  0  0
    7.5836  -16.6385   22.7117 C   0  0  0  0  0  0  0  0  0  0  0  0
    8.3455  -17.6348   22.6483 O   0  0  0  0  0  0  0  0  0  0  0  0
    7.8056  -15.5905   21.7685 N   0  0  0  0  0  0  0  0  0  0  0  0
    6.9997  -14.3893   21.7487 C   0  0  0  0  0  0  0  0  0  0  0  0
    7.0778  -13.9395   20.2694 C   0  0  0  0  0  0  0  0  0  0  0  0
    8.5490  -14.2561   19.9732 C   0  0  0  0  0  0  0  0  0  0  0  0
    8.7705  -15.5190   20.7304 C   0  0  1  0  0  0  0  0  0  0  0  0
   10.1781  -15.5931   21.2413 C   0  0  0  0  0  0  0  0  0  0  0  0
   10.3924  -15.1517   22.3921 O   0  0  0  0  0  0  0  0  0  0  0  0
   11.2531  -16.1260   20.5033 N   0  0  0  0  0  0  0  0  0  0  0  0
   12.6137  -16.2216   21.0467 C   0  0  0  0  0  0  0  0  0  0  0  0
   13.4833  -16.8023   19.9849 C   0  0  0  0  0  0  0  0  0  0  0  0
   13.1727  -17.9958   19.3490 O   0  0  0  0  0  0  0  0  0  0  0  0
   14.5455  -16.2336   19.6142 O   0  0  0  0  0  0  0  0  0  0  0  0
  2  1  1  1
  2  3  1  0
  4  3  1  0
  5  4  2  0
  6  5  1  0
  7  6  1  0
  7 12  2  0
  8  9  2  0
  8  7  1  0
  9 10  1  0
 10 11  2  0
 12 11  1  0
 12  4  1  0
 13 15  1  0
 13  2  1  0
 14 13  2  0
 15 19  1  0
 16 15  1  0
 17 16  1  0
 17 18  1  0
 18 19  1  0
 19 20  1  1
 20 21  2  0
 20 22  1  0
 22 23  1  0
 23 24  1  0
 24 25  1  0
 26 24  2  0
M  END
$$$$
