WPG.pdb
     RDKit          3D

 26 28  0  0  1  0  0  0  0  0999 V2000
    6.8965  -18.2425   24.5948 N   0  0  0  0  0  0  0  0  0  0  0  0
    7.2574  -16.9164   24.0977 C   0  0  1  0  0  0  0  0  0  0  0  0
    7.9945  -16.1273   25.1538 C   0  0  0  0  0  0  0  0  0  0  0  0
    7.1688  -15.1814   25.9081 C   0  0  0  0  0  0  0  0  0  0  0  0
    5.9967  -15.4993   26.5487 C   0  0  0  0  0  0  0  0  0  0  0  0
    5.5171  -14.3817   27.1006 N   0  0  0  0  0  0  0  0  0  0  0  0
    6.3335  -13.3396   26.8456 C   0  0  0  0  0  0  0  0  0  0  0  0
    6.2926  -12.0088   27.1874 C   0  0  0  0  0  0  0  0  0  0  0  0
    7.2999  -11.1692   26.7782 C   0  0  0  0  0  0  0  0  0  0  0  0
    8.3651  -11.6239   26.0258 C   0  0  0  0  0  0  0  0  0  0  0  0
    8.3959  -12.9612   25.6882 C   0  0  0  0  0  0  0  0  0  0  0  0
    7.3781  -13.8354   26.0944 C   0  0  0  0  0  0  0  0  0  0  0  0
    7.9853  -17.0141   22.8252 C   0  0  0  0  0  0  0  0  0  0  0  0
    8.6525  -18.0518   22.5907 O   0  0  0  0  0  0  0  0  0  0  0  0
    7.9856  -16.0011   21.8197 N   0  0  0  0  0  0  0  0  0  0  0  0
    7.2048  -14.7899   21.9470 C   0  0  0  0  0  0  0  0  0  0  0  0
    6.9357  -14.3904   20.4758 C   0  0  0  0  0  0  0  0  0  0  0  0
    8.2941  -14.7373   19.8539 C   0  0  0  0  0  0  0  0  0  0  0  0
    8.6799  -15.9776   20.5822 C   0  0  1  0  0  0  0  0  0  0  0  0
   10.1676  -16.0546   20.7508 C   0  0  0  0  0  0  0  0  0  0  0  0
   10.6508  -15.5633   21.7951 O   0  0  0  0  0  0  0  0  0  0  0  0
   11.0341  -16.6426   19.8086 N   0  0  0  0  0  0  0  0  0  0  0  0
   12.4954  -16.5412   19.9084 C   0  0  0  0  0  0  0  0  0  0  0  0
   13.0451  -17.9263   19.8953 C   0  0  0  0  0  0  0  0  0  0  0  0
   12.9618  -18.7627   20.9992 O   0  0  0  0  0  0  0  0  0  0  0  0
   13.6135  -18.4037   18.8763 O   0  0  0  0  0  0  0  0  0  0  0  0
  2  1  1  1
  2  3  1  0
  4  3  1  0
  5  4  2  0
  6  5  1  0
  7  6  1  0
  7 12  2  0
  8  9  2  0
  8  7  1  0
  9 10  1  0
 10 11  2  0
 12 11  1  0
 12  4  1  0
 13 15  1  0
 13  2  1  0
 14 13  2  0
 15 19  1  0
 16 15  1  0
 17 16  1  0
 17 18  1  0
 18 19  1  0
 19 20  1  1
 20 21  2  0
 20 22  1  0
 22 23  1  0
 23 24  1  0
 24 25  1  0
 26 24  2  0
M  END
$$$$
