WPG.pdb
     RDKit          3D

 26 28  0  0  1  0  0  0  0  0999 V2000
    6.8543  -17.5043   23.1644 N   0  0  0  0  0  0  0  0  0  0  0  0
    7.2308  -16.1250   22.8616 C   0  0  1  0  0  0  0  0  0  0  0  0
    7.9671  -15.5001   24.0229 C   0  0  0  0  0  0  0  0  0  0  0  0
    7.1094  -14.9443   25.0722 C   0  0  0  0  0  0  0  0  0  0  0  0
    6.1175  -15.6350   25.7235 C   0  0  0  0  0  0  0  0  0  0  0  0
    5.5373  -14.7981   26.5876 N   0  0  0  0  0  0  0  0  0  0  0  0
    6.1137  -13.5809   26.5277 C   0  0  0  0  0  0  0  0  0  0  0  0
    5.8929  -12.4029   27.2008 C   0  0  0  0  0  0  0  0  0  0  0  0
    6.6677  -11.3034   26.9218 C   0  0  0  0  0  0  0  0  0  0  0  0
    7.6734  -11.3435   25.9762 C   0  0  0  0  0  0  0  0  0  0  0  0
    7.8862  -12.5308   25.3064 C   0  0  0  0  0  0  0  0  0  0  0  0
    7.1067  -13.6645   25.5747 C   0  0  0  0  0  0  0  0  0  0  0  0
    7.9671  -16.0496   21.5924 C   0  0  0  0  0  0  0  0  0  0  0  0
    8.5293  -17.0856   21.1593 O   0  0  0  0  0  0  0  0  0  0  0  0
    8.0881  -14.8669   20.8025 N   0  0  0  0  0  0  0  0  0  0  0  0
    7.5352  -13.5988   21.2256 C   0  0  0  0  0  0  0  0  0  0  0  0
    7.2608  -12.8721   19.8865 C   0  0  0  0  0  0  0  0  0  0  0  0
    8.5042  -13.2961   19.0950 C   0  0  0  0  0  0  0  0  0  0  0  0
    8.7091  -14.7032   19.5371 C   0  0  1  0  0  0  0  0  0  0  0  0
   10.1683  -15.0469   19.5587 C   0  0  0  0  0  0  0  0  0  0  0  0
   10.8087  -14.7562   20.5934 O   0  0  0  0  0  0  0  0  0  0  0  0
   10.8429  -15.6703   18.4908 N   0  0  0  0  0  0  0  0  0  0  0  0
   12.3071  -15.7559   18.4240 C   0  0  0  0  0  0  0  0  0  0  0  0
   12.7115  -17.0503   19.0419 C   0  0  0  0  0  0  0  0  0  0  0  0
   11.7841  -17.9336   19.5757 O   0  0  0  0  0  0  0  0  0  0  0  0
   13.9198  -17.4037   19.1084 O   0  0  0  0  0  0  0  0  0  0  0  0
  2  1  1  1
  2  3  1  0
  4  3  1  0
  5  4  2  0
  6  5  1  0
  7  6  1  0
  7 12  2  0
  8  9  2  0
  8  7  1  0
  9 10  1  0
 10 11  2  0
 12 11  1  0
 12  4  1  0
 13 15  1  0
 13  2  1  0
 14 13  2  0
 15 19  1  0
 16 15  1  0
 17 16  1  0
 17 18  1  0
 18 19  1  0
 19 20  1  1
 20 21  2  0
 20 22  1  0
 22 23  1  0
 23 24  1  0
 24 25  1  0
 26 24  2  0
M  END
$$$$
