WPG.pdb
     RDKit          3D

 26 28  0  0  1  0  0  0  0  0999 V2000
    6.5778  -17.2959   23.0917 N   0  0  0  0  0  0  0  0  0  0  0  0
    7.0953  -15.9821   22.7152 C   0  0  1  0  0  0  0  0  0  0  0  0
    8.0309  -15.4479   23.7738 C   0  0  0  0  0  0  0  0  0  0  0  0
    7.3719  -14.8468   24.9356 C   0  0  0  0  0  0  0  0  0  0  0  0
    6.4674  -15.4889   25.7449 C   0  0  0  0  0  0  0  0  0  0  0  0
    6.0645  -14.6204   26.6760 N   0  0  0  0  0  0  0  0  0  0  0  0
    6.6730  -13.4293   26.5076 C   0  0  0  0  0  0  0  0  0  0  0  0
    6.6084  -12.2369   27.1885 C   0  0  0  0  0  0  0  0  0  0  0  0
    7.3736  -11.1738   26.7745 C   0  0  0  0  0  0  0  0  0  0  0  0
    8.2158  -11.2650   25.6838 C   0  0  0  0  0  0  0  0  0  0  0  0
    8.2727  -12.4663   25.0077 C   0  0  0  0  0  0  0  0  0  0  0  0
    7.4998  -13.5635   25.4123 C   0  0  0  0  0  0  0  0  0  0  0  0
    7.6901  -16.0184   21.3723 C   0  0  0  0  0  0  0  0  0  0  0  0
    8.1100  -17.1156   20.9286 O   0  0  0  0  0  0  0  0  0  0  0  0
    7.8235  -14.8803   20.5213 N   0  0  0  0  0  0  0  0  0  0  0  0
    7.2589  -13.5930   20.8633 C   0  0  0  0  0  0  0  0  0  0  0  0
    7.0094  -12.9418   19.4812 C   0  0  0  0  0  0  0  0  0  0  0  0
    8.2694  -13.4037   18.7388 C   0  0  0  0  0  0  0  0  0  0  0  0
    8.4693  -14.7837   19.2613 C   0  0  1  0  0  0  0  0  0  0  0  0
    9.9287  -15.1202   19.3306 C   0  0  0  0  0  0  0  0  0  0  0  0
   10.5719  -14.6761   20.3075 O   0  0  0  0  0  0  0  0  0  0  0  0
   10.6005  -15.8983   18.3676 N   0  0  0  0  0  0  0  0  0  0  0  0
   12.0333  -16.2055   18.4601 C   0  0  0  0  0  0  0  0  0  0  0  0
   12.4225  -16.9197   17.2114 C   0  0  0  0  0  0  0  0  0  0  0  0
   13.0266  -16.2665   16.1467 O   0  0  0  0  0  0  0  0  0  0  0  0
   12.2199  -18.1552   17.0645 O   0  0  0  0  0  0  0  0  0  0  0  0
  2  1  1  1
  2  3  1  0
  4  3  1  0
  5  4  2  0
  6  5  1  0
  7  6  1  0
  7 12  2  0
  8  9  2  0
  8  7  1  0
  9 10  1  0
 10 11  2  0
 12 11  1  0
 12  4  1  0
 13 15  1  0
 13  2  1  0
 14 13  2  0
 15 19  1  0
 16 15  1  0
 17 16  1  0
 17 18  1  0
 18 19  1  0
 19 20  1  1
 20 21  2  0
 20 22  1  0
 22 23  1  0
 23 24  1  0
 24 25  1  0
 26 24  2  0
M  END
$$$$
