WPG.pdb
     RDKit          3D

 26 28  0  0  1  0  0  0  0  0999 V2000
    6.8338  -17.4031   23.3032 N   0  0  0  0  0  0  0  0  0  0  0  0
    7.1864  -16.0535   22.8672 C   0  0  1  0  0  0  0  0  0  0  0  0
    7.9955  -15.3400   23.9243 C   0  0  0  0  0  0  0  0  0  0  0  0
    7.2112  -14.7589   25.0164 C   0  0  0  0  0  0  0  0  0  0  0  0
    6.1957  -15.4004   25.6817 C   0  0  0  0  0  0  0  0  0  0  0  0
    5.7013  -14.5522   26.5871 N   0  0  0  0  0  0  0  0  0  0  0  0
    6.3568  -13.3751   26.5409 C   0  0  0  0  0  0  0  0  0  0  0  0
    6.2378  -12.2051   27.2525 C   0  0  0  0  0  0  0  0  0  0  0  0
    7.0763  -11.1523   26.9776 C   0  0  0  0  0  0  0  0  0  0  0  0
    8.0466  -11.2320   25.9980 C   0  0  0  0  0  0  0  0  0  0  0  0
    8.1570  -12.4107   25.2897 C   0  0  0  0  0  0  0  0  0  0  0  0
    7.3112  -13.4971   25.5532 C   0  0  0  0  0  0  0  0  0  0  0  0
    7.8380  -16.0818   21.5507 C   0  0  0  0  0  0  0  0  0  0  0  0
    8.2706  -17.1775   21.1157 O   0  0  0  0  0  0  0  0  0  0  0  0
    8.0141  -14.9371   20.7164 N   0  0  0  0  0  0  0  0  0  0  0  0
    7.4943  -13.6357   21.0755 C   0  0  0  0  0  0  0  0  0  0  0  0
    7.2719  -12.9564   19.7022 C   0  0  0  0  0  0  0  0  0  0  0  0
    8.5170  -13.4521   18.9563 C   0  0  0  0  0  0  0  0  0  0  0  0
    8.6665  -14.8456   19.4595 C   0  0  1  0  0  0  0  0  0  0  0  0
   10.1128  -15.2344   19.5274 C   0  0  0  0  0  0  0  0  0  0  0  0
   10.7597  -14.8570   20.5296 O   0  0  0  0  0  0  0  0  0  0  0  0
   10.7687  -15.9908   18.5366 N   0  0  0  0  0  0  0  0  0  0  0  0
   12.1914  -16.3431   18.6245 C   0  0  0  0  0  0  0  0  0  0  0  0
   12.5668  -17.0225   17.3524 C   0  0  0  0  0  0  0  0  0  0  0  0
   12.9077  -16.3121   16.2103 O   0  0  0  0  0  0  0  0  0  0  0  0
   12.5920  -18.2791   17.2550 O   0  0  0  0  0  0  0  0  0  0  0  0
  2  1  1  1
  2  3  1  0
  4  3  1  0
  5  4  2  0
  6  5  1  0
  7  6  1  0
  7 12  2  0
  8  9  2  0
  8  7  1  0
  9 10  1  0
 10 11  2  0
 12 11  1  0
 12  4  1  0
 13 15  1  0
 13  2  1  0
 14 13  2  0
 15 19  1  0
 16 15  1  0
 17 16  1  0
 17 18  1  0
 18 19  1  0
 19 20  1  1
 20 21  2  0
 20 22  1  0
 22 23  1  0
 23 24  1  0
 24 25  1  0
 26 24  2  0
M  END
$$$$
