WPG.pdb
     RDKit          3D

 26 28  0  0  1  0  0  0  0  0999 V2000
    6.3930  -18.2324   24.5851 N   0  0  0  0  0  0  0  0  0  0  0  0
    6.9546  -16.9413   24.1933 C   0  0  1  0  0  0  0  0  0  0  0  0
    7.6447  -16.2771   25.3611 C   0  0  0  0  0  0  0  0  0  0  0  0
    6.8847  -15.1984   25.9969 C   0  0  0  0  0  0  0  0  0  0  0  0
    5.6148  -15.3253   26.5033 C   0  0  0  0  0  0  0  0  0  0  0  0
    5.2424  -14.1326   26.9750 N   0  0  0  0  0  0  0  0  0  0  0  0
    6.2237  -13.2256   26.7968 C   0  0  0  0  0  0  0  0  0  0  0  0
    6.3370  -11.8911   27.1067 C   0  0  0  0  0  0  0  0  0  0  0  0
    7.4941  -11.2167   26.8012 C   0  0  0  0  0  0  0  0  0  0  0  0
    8.5601  -11.8430   26.1859 C   0  0  0  0  0  0  0  0  0  0  0  0
    8.4355  -13.1824   25.8791 C   0  0  0  0  0  0  0  0  0  0  0  0
    7.2635  -13.8896   26.1810 C   0  0  0  0  0  0  0  0  0  0  0  0
    7.8121  -17.0808   23.0084 C   0  0  0  0  0  0  0  0  0  0  0  0
    8.3191  -18.2025   22.7602 O   0  0  0  0  0  0  0  0  0  0  0  0
    8.1118  -16.0184   22.1036 N   0  0  0  0  0  0  0  0  0  0  0  0
    7.4712  -14.7246   22.1964 C   0  0  0  0  0  0  0  0  0  0  0  0
    7.5171  -14.2058   20.7385 C   0  0  0  0  0  0  0  0  0  0  0  0
    8.9129  -14.6910   20.3280 C   0  0  0  0  0  0  0  0  0  0  0  0
    9.0124  -16.0126   21.0069 C   0  0  1  0  0  0  0  0  0  0  0  0
   10.4266  -16.2952   21.4167 C   0  0  0  0  0  0  0  0  0  0  0  0
   10.8234  -15.7870   22.4889 O   0  0  0  0  0  0  0  0  0  0  0  0
   11.3158  -17.0908   20.6681 N   0  0  0  0  0  0  0  0  0  0  0  0
   12.6112  -17.5375   21.1954 C   0  0  0  0  0  0  0  0  0  0  0  0
   13.5929  -16.4395   20.9687 C   0  0  0  0  0  0  0  0  0  0  0  0
   14.3139  -15.8693   22.0080 O   0  0  0  0  0  0  0  0  0  0  0  0
   13.8143  -15.9763   19.8173 O   0  0  0  0  0  0  0  0  0  0  0  0
  2  1  1  1
  2  3  1  0
  4  3  1  0
  5  4  2  0
  6  5  1  0
  7  6  1  0
  7 12  2  0
  8  9  2  0
  8  7  1  0
  9 10  1  0
 10 11  2  0
 12 11  1  0
 12  4  1  0
 13 15  1  0
 13  2  1  0
 14 13  2  0
 15 19  1  0
 16 15  1  0
 17 16  1  0
 17 18  1  0
 18 19  1  0
 19 20  1  1
 20 21  2  0
 20 22  1  0
 22 23  1  0
 23 24  1  0
 24 25  1  0
 26 24  2  0
M  END
$$$$
