QTC.pdb
     RDKit          3D

 23 22  0  0  1  0  0  0  0  0999 V2000
   16.0463  -21.0444   17.6257 N   0  0  0  0  0  0  0  0  0  0  0  0
   16.5039  -19.8412   16.9883 C   0  0  0  0  0  0  0  0  0  0  0  0
   17.4562  -19.1736   17.4263 O   0  0  0  0  0  0  0  0  0  0  0  0
   15.7647  -19.4394   15.7645 C   0  0  0  0  0  0  0  0  0  0  0  0
   14.7914  -18.3525   16.1440 C   0  0  0  0  0  0  0  0  0  0  0  0
   13.3898  -18.7115   15.6332 C   0  0  2  0  0  0  0  0  0  0  0  0
   13.1676  -18.0924   14.3426 N   0  0  0  0  0  0  0  0  0  0  0  0
   12.3476  -18.2743   16.5618 C   0  0  0  0  0  0  0  0  0  0  0  0
   11.7328  -17.1779   16.3449 O   0  0  0  0  0  0  0  0  0  0  0  0
    9.2140  -19.8494   17.3988 C   0  0  0  0  0  0  0  0  0  0  0  0
    9.9016  -19.6088   18.7019 C   0  0  1  0  0  0  0  0  0  0  0  0
   10.6826  -20.7417   19.0484 O   0  0  0  0  0  0  0  0  0  0  0  0
   10.9179  -18.4632   18.6544 C   0  0  2  0  0  0  0  0  0  0  0  0
   11.9370  -18.9655   17.7151 N   0  0  0  0  0  0  0  0  0  0  0  0
   11.5143  -18.1558   19.9555 C   0  0  0  0  0  0  0  0  0  0  0  0
   12.6431  -18.6910   20.2363 O   0  0  0  0  0  0  0  0  0  0  0  0
   10.9881  -17.3231   20.9602 N   0  0  0  0  0  0  0  0  0  0  0  0
   11.6269  -17.1265   22.2507 C   0  0  1  0  0  0  0  0  0  0  0  0
   10.7201  -16.1585   23.0210 C   0  0  0  0  0  0  0  0  0  0  0  0
   11.4523  -15.7909   24.6294 S   0  0  0  0  0  0  0  0  0  0  0  0
   11.7340  -18.4148   22.9527 C   0  0  0  0  0  0  0  0  0  0  0  0
   10.8179  -19.2526   22.8660 O   0  0  0  0  0  0  0  0  0  0  0  0
   12.8490  -18.6964   23.7078 O   0  0  0  0  0  0  0  0  0  0  0  0
  2  1  1  0
  2  4  1  0
  3  2  2  0
  5  4  1  0
  6  7  1  6
  6  5  1  0
  8  6  1  0
  9  8  2  0
 11 10  1  6
 11 13  1  0
 12 11  1  0
 13 14  1  6
 13 15  1  0
 14  8  1  0
 15 17  1  0
 16 15  2  0
 17 18  1  0
 18 19  1  1
 18 21  1  0
 20 19  1  0
 21 22  2  0
 21 23  1  0
M  END
$$$$
