QTC.pdb
     RDKit          3D

 23 22  0  0  1  0  0  0  0  0999 V2000
   12.0912  -19.4651   22.3087 N   0  0  0  0  0  0  0  0  0  0  0  0
   12.7712  -19.7498   21.0758 C   0  0  0  0  0  0  0  0  0  0  0  0
   13.1943  -20.8834   20.7924 O   0  0  0  0  0  0  0  0  0  0  0  0
   12.9397  -18.5988   20.1526 C   0  0  0  0  0  0  0  0  0  0  0  0
   12.3611  -17.3774   20.8204 C   0  0  0  0  0  0  0  0  0  0  0  0
   11.0011  -17.0410   20.1948 C   0  0  2  0  0  0  0  0  0  0  0  0
   11.1847  -16.6403   18.8150 N   0  0  0  0  0  0  0  0  0  0  0  0
   10.3228  -15.9674   20.9209 C   0  0  0  0  0  0  0  0  0  0  0  0
   10.7146  -14.7629   20.7712 O   0  0  0  0  0  0  0  0  0  0  0  0
    6.6792  -15.1064   20.8364 C   0  0  0  0  0  0  0  0  0  0  0  0
    7.0905  -15.2951   22.2590 C   0  0  1  0  0  0  0  0  0  0  0  0
    6.9302  -16.6558   22.6281 O   0  0  0  0  0  0  0  0  0  0  0  0
    8.5773  -15.0205   22.5070 C   0  0  2  0  0  0  0  0  0  0  0  0
    9.2400  -16.1329   21.8022 N   0  0  0  0  0  0  0  0  0  0  0  0
    8.9421  -15.0105   23.9247 C   0  0  0  0  0  0  0  0  0  0  0  0
    9.8744  -15.8004   24.3070 O   0  0  0  0  0  0  0  0  0  0  0  0
    8.3816  -14.2195   24.9445 N   0  0  0  0  0  0  0  0  0  0  0  0
    8.8046  -14.2890   26.3331 C   0  0  1  0  0  0  0  0  0  0  0  0
    8.0384  -13.1753   27.0580 C   0  0  0  0  0  0  0  0  0  0  0  0
    8.3152  -11.6020   26.2175 S   0  0  0  0  0  0  0  0  0  0  0  0
    8.4640  -15.6072   26.8901 C   0  0  0  0  0  0  0  0  0  0  0  0
    7.6960  -16.3677   26.2733 O   0  0  0  0  0  0  0  0  0  0  0  0
    8.9949  -16.0027   28.0962 O   0  0  0  0  0  0  0  0  0  0  0  0
  2  1  1  0
  2  4  1  0
  3  2  2  0
  5  4  1  0
  6  7  1  6
  6  5  1  0
  8  6  1  0
  9  8  2  0
 11 10  1  6
 11 13  1  0
 12 11  1  0
 13 14  1  6
 13 15  1  0
 14  8  1  0
 15 17  1  0
 16 15  2  0
 17 18  1  0
 18 19  1  1
 18 21  1  0
 20 19  1  0
 21 22  2  0
 21 23  1  0
M  END
$$$$
