QTC.pdb
     RDKit          3D

 23 22  0  0  1  0  0  0  0  0999 V2000
   16.4293  -14.9615   19.1588 N   0  0  0  0  0  0  0  0  0  0  0  0
   16.1738  -15.0466   17.7477 C   0  0  0  0  0  0  0  0  0  0  0  0
   17.0848  -15.0471   16.9025 O   0  0  0  0  0  0  0  0  0  0  0  0
   14.7439  -15.1347   17.3563 C   0  0  0  0  0  0  0  0  0  0  0  0
   13.9235  -15.2628   18.6146 C   0  0  0  0  0  0  0  0  0  0  0  0
   12.4321  -15.3083   18.2575 C   0  0  2  0  0  0  0  0  0  0  0  0
   12.2285  -14.7428   16.9396 N   0  0  0  0  0  0  0  0  0  0  0  0
   11.6214  -14.5718   19.2271 C   0  0  0  0  0  0  0  0  0  0  0  0
   11.9253  -13.3665   19.5132 O   0  0  0  0  0  0  0  0  0  0  0  0
    8.2750  -13.4389   18.9241 C   0  0  0  0  0  0  0  0  0  0  0  0
    8.3085  -14.2562   20.1729 C   0  0  1  0  0  0  0  0  0  0  0  0
    8.0525  -15.6169   19.8625 O   0  0  0  0  0  0  0  0  0  0  0  0
    9.6840  -14.2862   20.8470 C   0  0  2  0  0  0  0  0  0  0  0  0
   10.4964  -15.0754   19.9033 N   0  0  0  0  0  0  0  0  0  0  0  0
    9.6728  -14.9083   22.1721 C   0  0  0  0  0  0  0  0  0  0  0  0
   10.2637  -16.0362   22.3073 O   0  0  0  0  0  0  0  0  0  0  0  0
    9.0793  -14.4070   23.3452 N   0  0  0  0  0  0  0  0  0  0  0  0
    9.0015  -15.1600   24.5859 C   0  0  1  0  0  0  0  0  0  0  0  0
    8.3780  -14.2067   25.6131 C   0  0  0  0  0  0  0  0  0  0  0  0
    6.7182  -13.7400   25.0788 S   0  0  0  0  0  0  0  0  0  0  0  0
    8.1557  -16.3480   24.3929 C   0  0  0  0  0  0  0  0  0  0  0  0
    7.4553  -16.4581   23.3702 O   0  0  0  0  0  0  0  0  0  0  0  0
    8.1372  -17.3415   25.3445 O   0  0  0  0  0  0  0  0  0  0  0  0
  2  1  1  0
  2  4  1  0
  3  2  2  0
  5  4  1  0
  6  7  1  6
  6  5  1  0
  8  6  1  0
  9  8  2  0
 11 10  1  6
 11 13  1  0
 12 11  1  0
 13 14  1  6
 13 15  1  0
 14  8  1  0
 15 17  1  0
 16 15  2  0
 17 18  1  0
 18 19  1  1
 18 21  1  0
 20 19  1  0
 21 22  2  0
 21 23  1  0
M  END
$$$$
