QTC.pdb
     RDKit          3D

 23 22  0  0  1  0  0  0  0  0999 V2000
   15.2302  -15.2132   20.3827 N   0  0  0  0  0  0  0  0  0  0  0  0
   15.0270  -14.6222   19.0893 C   0  0  0  0  0  0  0  0  0  0  0  0
   15.9688  -14.3273   18.3339 O   0  0  0  0  0  0  0  0  0  0  0  0
   13.6125  -14.3827   18.7057 C   0  0  0  0  0  0  0  0  0  0  0  0
   12.8954  -15.7087   18.7186 C   0  0  0  0  0  0  0  0  0  0  0  0
   11.4113  -15.4976   18.3913 C   0  0  2  0  0  0  0  0  0  0  0  0
   11.2795  -14.9446   17.0590 N   0  0  0  0  0  0  0  0  0  0  0  0
   10.7687  -14.5992   19.3503 C   0  0  0  0  0  0  0  0  0  0  0  0
   11.1723  -13.3933   19.4489 O   0  0  0  0  0  0  0  0  0  0  0  0
    7.4860  -13.2867   19.1346 C   0  0  0  0  0  0  0  0  0  0  0  0
    7.5780  -13.9787   20.4541 C   0  0  1  0  0  0  0  0  0  0  0  0
    7.2854  -15.3579   20.2938 O   0  0  0  0  0  0  0  0  0  0  0  0
    8.9888  -13.9701   21.0518 C   0  0  2  0  0  0  0  0  0  0  0  0
    9.7096  -14.9416   20.2091 N   0  0  0  0  0  0  0  0  0  0  0  0
    9.0303  -14.3692   22.4596 C   0  0  0  0  0  0  0  0  0  0  0  0
    9.5721  -15.4935   22.7458 O   0  0  0  0  0  0  0  0  0  0  0  0
    8.5373  -13.6517   23.5650 N   0  0  0  0  0  0  0  0  0  0  0  0
    8.4319  -14.2148   24.9006 C   0  0  1  0  0  0  0  0  0  0  0  0
    7.6357  -13.1929   25.7217 C   0  0  0  0  0  0  0  0  0  0  0  0
    7.5567  -13.7275   27.4441 S   0  0  0  0  0  0  0  0  0  0  0  0
    7.7254  -15.5038   24.8411 C   0  0  0  0  0  0  0  0  0  0  0  0
    6.7618  -15.6541   24.0683 O   0  0  0  0  0  0  0  0  0  0  0  0
    8.1294  -16.5475   25.6413 O   0  0  0  0  0  0  0  0  0  0  0  0
  2  1  1  0
  2  4  1  0
  3  2  2  0
  5  4  1  0
  6  7  1  6
  6  5  1  0
  8  6  1  0
  9  8  2  0
 11 10  1  6
 11 13  1  0
 12 11  1  0
 13 14  1  6
 13 15  1  0
 14  8  1  0
 15 17  1  0
 16 15  2  0
 17 18  1  0
 18 19  1  1
 18 21  1  0
 20 19  1  0
 21 22  2  0
 21 23  1  0
M  END
$$$$
