QTC.pdb
     RDKit          3D

 23 22  0  0  1  0  0  0  0  0999 V2000
   12.5450  -19.0484   23.1903 N   0  0  0  0  0  0  0  0  0  0  0  0
   12.4145  -19.9773   22.1023 C   0  0  0  0  0  0  0  0  0  0  0  0
   12.5558  -21.2032   22.2498 O   0  0  0  0  0  0  0  0  0  0  0  0
   12.0980  -19.3801   20.7800 C   0  0  0  0  0  0  0  0  0  0  0  0
   11.9251  -17.8945   20.9692 C   0  0  0  0  0  0  0  0  0  0  0  0
   10.7789  -17.3899   20.0828 C   0  0  2  0  0  0  0  0  0  0  0  0
   11.2764  -17.1183   18.7498 N   0  0  0  0  0  0  0  0  0  0  0  0
   10.1703  -16.1754   20.6254 C   0  0  0  0  0  0  0  0  0  0  0  0
   10.6970  -15.0417   20.3717 O   0  0  0  0  0  0  0  0  0  0  0  0
    6.8334  -14.7196   20.0567 C   0  0  0  0  0  0  0  0  0  0  0  0
    6.9989  -14.9256   21.5260 C   0  0  1  0  0  0  0  0  0  0  0  0
    6.5692  -16.2311   21.8787 O   0  0  0  0  0  0  0  0  0  0  0  0
    8.4589  -14.8824   21.9886 C   0  0  2  0  0  0  0  0  0  0  0  0
    9.0185  -16.1267   21.4301 N   0  0  0  0  0  0  0  0  0  0  0  0
    8.6108  -14.8498   23.4443 C   0  0  0  0  0  0  0  0  0  0  0  0
    9.0818  -15.8926   24.0190 O   0  0  0  0  0  0  0  0  0  0  0  0
    8.2964  -13.7874   24.3115 N   0  0  0  0  0  0  0  0  0  0  0  0
    8.3945  -13.8814   25.7585 C   0  0  1  0  0  0  0  0  0  0  0  0
    7.7774  -12.5869   26.3026 C   0  0  0  0  0  0  0  0  0  0  0  0
    7.9502  -12.5404   28.0988 S   0  0  0  0  0  0  0  0  0  0  0  0
    7.6470  -15.0570   26.2310 C   0  0  0  0  0  0  0  0  0  0  0  0
    6.5511  -15.3490   25.7189 O   0  0  0  0  0  0  0  0  0  0  0  0
    8.1590  -15.8374   27.2418 O   0  0  0  0  0  0  0  0  0  0  0  0
  2  1  1  0
  2  4  1  0
  3  2  2  0
  5  4  1  0
  6  7  1  6
  6  5  1  0
  8  6  1  0
  9  8  2  0
 11 10  1  6
 11 13  1  0
 12 11  1  0
 13 14  1  1
 13 15  1  0
 14  8  1  0
 15 17  1  0
 16 15  2  0
 17 18  1  0
 18 19  1  1
 18 21  1  0
 20 19  1  0
 21 22  2  0
 21 23  1  0
M  END
$$$$
