QTC.pdb
     RDKit          3D

 23 22  0  0  1  0  0  0  0  0999 V2000
   12.0620  -17.6466   14.1044 N   0  0  0  0  0  0  0  0  0  0  0  0
   10.7915  -18.1039   13.6143 C   0  0  0  0  0  0  0  0  0  0  0  0
   10.6852  -18.8420   12.6201 O   0  0  0  0  0  0  0  0  0  0  0  0
    9.6029  -17.6381   14.3731 C   0  0  0  0  0  0  0  0  0  0  0  0
   10.0866  -16.7906   15.5222 C   0  0  0  0  0  0  0  0  0  0  0  0
    9.3229  -17.1655   16.7990 C   0  0  2  0  0  0  0  0  0  0  0  0
    7.8983  -17.1508   16.5374 N   0  0  0  0  0  0  0  0  0  0  0  0
    9.6196  -16.2448   17.8963 C   0  0  0  0  0  0  0  0  0  0  0  0
   10.7304  -15.6181   17.9074 O   0  0  0  0  0  0  0  0  0  0  0  0
    7.4096  -13.4667   19.2457 C   0  0  0  0  0  0  0  0  0  0  0  0
    7.8474  -14.3234   20.3872 C   0  0  1  0  0  0  0  0  0  0  0  0
    6.8879  -15.3432   20.6170 O   0  0  0  0  0  0  0  0  0  0  0  0
    9.1428  -15.0938   20.1115 C   0  0  2  0  0  0  0  0  0  0  0  0
    8.7725  -15.9682   18.9838 N   0  0  0  0  0  0  0  0  0  0  0  0
    9.6080  -15.8837   21.2528 C   0  0  0  0  0  0  0  0  0  0  0  0
    9.7914  -17.1385   21.0756 O   0  0  0  0  0  0  0  0  0  0  0  0
    9.8867  -15.4229   22.5527 N   0  0  0  0  0  0  0  0  0  0  0  0
   10.2700  -16.3000   23.6463 C   0  0  1  0  0  0  0  0  0  0  0  0
   11.7118  -15.9163   24.0021 C   0  0  0  0  0  0  0  0  0  0  0  0
   12.2677  -16.8905   25.4164 S   0  0  0  0  0  0  0  0  0  0  0  0
    9.3728  -16.0854   24.7921 C   0  0  0  0  0  0  0  0  0  0  0  0
    8.7012  -15.0410   24.8740 O   0  0  0  0  0  0  0  0  0  0  0  0
    9.2744  -17.0406   25.7774 O   0  0  0  0  0  0  0  0  0  0  0  0
  2  1  1  0
  2  4  1  0
  3  2  2  0
  5  4  1  0
  6  7  1  6
  6  5  1  0
  8  6  1  0
  9  8  2  0
 11 10  1  6
 11 13  1  0
 12 11  1  0
 13 14  1  6
 13 15  1  0
 14  8  1  0
 15 17  1  0
 16 15  2  0
 17 18  1  0
 18 19  1  1
 18 21  1  0
 20 19  1  0
 21 22  2  0
 21 23  1  0
M  END
$$$$
