QTC.pdb
     RDKit          3D

 23 22  0  0  1  0  0  0  0  0999 V2000
   11.4523  -20.5815   23.1182 N   0  0  0  0  0  0  0  0  0  0  0  0
   12.6321  -19.8051   22.8560 C   0  0  0  0  0  0  0  0  0  0  0  0
   13.7329  -20.0682   23.3692 O   0  0  0  0  0  0  0  0  0  0  0  0
   12.4560  -18.6597   21.9272 C   0  0  0  0  0  0  0  0  0  0  0  0
   11.0063  -18.6116   21.5165 C   0  0  0  0  0  0  0  0  0  0  0  0
   10.7704  -17.4112   20.5906 C   0  0  2  0  0  0  0  0  0  0  0  0
   11.9991  -17.0799   19.8988 N   0  0  0  0  0  0  0  0  0  0  0  0
   10.3056  -16.2393   21.3325 C   0  0  0  0  0  0  0  0  0  0  0  0
   11.1190  -15.2880   21.5777 O   0  0  0  0  0  0  0  0  0  0  0  0
    7.1854  -14.3605   20.3042 C   0  0  0  0  0  0  0  0  0  0  0  0
    7.1405  -14.6095   21.7754 C   0  0  1  0  0  0  0  0  0  0  0  0
    6.4946  -15.8464   22.0330 O   0  0  0  0  0  0  0  0  0  0  0  0
    8.5251  -14.7798   22.4090 C   0  0  2  0  0  0  0  0  0  0  0  0
    9.0023  -16.0456   21.8230 N   0  0  0  0  0  0  0  0  0  0  0  0
    8.4940  -14.8609   23.8703 C   0  0  0  0  0  0  0  0  0  0  0  0
    8.9488  -15.9245   24.4192 O   0  0  0  0  0  0  0  0  0  0  0  0
    8.0153  -13.8897   24.7689 N   0  0  0  0  0  0  0  0  0  0  0  0
    7.9810  -14.0816   26.2091 C   0  0  1  0  0  0  0  0  0  0  0  0
    7.4008  -12.7852   26.7882 C   0  0  0  0  0  0  0  0  0  0  0  0
    5.7449  -12.5115   26.1237 S   0  0  0  0  0  0  0  0  0  0  0  0
    7.1235  -15.2313   26.5361 C   0  0  0  0  0  0  0  0  0  0  0  0
    6.3168  -15.6692   25.6959 O   0  0  0  0  0  0  0  0  0  0  0  0
    7.2118  -15.8256   27.7738 O   0  0  0  0  0  0  0  0  0  0  0  0
  2  1  1  0
  2  4  1  0
  3  2  2  0
  5  4  1  0
  6  7  1  1
  6  5  1  0
  8  6  1  0
  9  8  2  0
 11 10  1  6
 11 13  1  0
 12 11  1  0
 13 14  1  6
 13 15  1  0
 14  8  1  0
 15 17  1  0
 16 15  2  0
 17 18  1  0
 18 19  1  1
 18 21  1  0
 20 19  1  0
 21 22  2  0
 21 23  1  0
M  END
$$$$
