QTC.pdb
     RDKit          3D

 23 22  0  0  1  0  0  0  0  0999 V2000
   15.0836  -14.9998   19.9555 N   0  0  0  0  0  0  0  0  0  0  0  0
   14.7921  -14.8768   18.5543 C   0  0  0  0  0  0  0  0  0  0  0  0
   15.6804  -14.7328   17.6971 O   0  0  0  0  0  0  0  0  0  0  0  0
   13.3539  -14.9325   18.1884 C   0  0  0  0  0  0  0  0  0  0  0  0
   12.5607  -15.1592   19.4501 C   0  0  0  0  0  0  0  0  0  0  0  0
   11.0652  -15.2326   19.1150 C   0  0  2  0  0  0  0  0  0  0  0  0
   10.8361  -14.6996   17.7877 N   0  0  0  0  0  0  0  0  0  0  0  0
   10.2579  -14.4851   20.0790 C   0  0  0  0  0  0  0  0  0  0  0  0
   10.2757  -13.2098   20.0581 O   0  0  0  0  0  0  0  0  0  0  0  0
    6.7348  -14.1798   20.3816 C   0  0  0  0  0  0  0  0  0  0  0  0
    7.2050  -14.6585   21.7152 C   0  0  1  0  0  0  0  0  0  0  0  0
    7.2332  -16.0770   21.7330 O   0  0  0  0  0  0  0  0  0  0  0  0
    8.6494  -14.2587   22.0336 C   0  0  2  0  0  0  0  0  0  0  0  0
    9.4312  -15.0499   21.0659 N   0  0  0  0  0  0  0  0  0  0  0  0
    9.0529  -14.5676   23.4065 C   0  0  0  0  0  0  0  0  0  0  0  0
    9.8412  -15.5601   23.5882 O   0  0  0  0  0  0  0  0  0  0  0  0
    8.6731  -13.8911   24.5803 N   0  0  0  0  0  0  0  0  0  0  0  0
    9.0839  -14.3074   25.9107 C   0  0  1  0  0  0  0  0  0  0  0  0
    8.5575  -13.2286   26.8656 C   0  0  0  0  0  0  0  0  0  0  0  0
    9.1524  -13.5558   28.5382 S   0  0  0  0  0  0  0  0  0  0  0  0
    8.4940  -15.6179   26.2248 C   0  0  0  0  0  0  0  0  0  0  0  0
    7.3557  -15.9065   25.8131 O   0  0  0  0  0  0  0  0  0  0  0  0
    9.2008  -16.5286   26.9756 O   0  0  0  0  0  0  0  0  0  0  0  0
  2  1  1  0
  2  4  1  0
  3  2  2  0
  5  4  1  0
  6  7  1  6
  6  5  1  0
  8  6  1  0
  9  8  2  0
 11 10  1  6
 11 13  1  0
 12 11  1  0
 13 14  1  6
 13 15  1  0
 14  8  1  0
 15 17  1  0
 16 15  2  0
 17 18  1  0
 18 19  1  1
 18 21  1  0
 20 19  1  0
 21 22  2  0
 21 23  1  0
M  END
$$$$
