QTC.pdb
     RDKit          3D

 23 22  0  0  1  0  0  0  0  0999 V2000
   13.3387  -20.2774   19.7146 N   0  0  0  0  0  0  0  0  0  0  0  0
   13.7055  -19.0262   19.1118 C   0  0  0  0  0  0  0  0  0  0  0  0
   14.6336  -18.9263   18.2914 O   0  0  0  0  0  0  0  0  0  0  0  0
   12.9026  -17.8494   19.5313 C   0  0  0  0  0  0  0  0  0  0  0  0
   11.9126  -18.3078   20.5717 C   0  0  0  0  0  0  0  0  0  0  0  0
   10.5472  -17.6595   20.3080 C   0  0  2  0  0  0  0  0  0  0  0  0
   10.4652  -17.2409   18.9237 N   0  0  0  0  0  0  0  0  0  0  0  0
   10.3220  -16.5023   21.1740 C   0  0  0  0  0  0  0  0  0  0  0  0
   10.9938  -15.4350   20.9835 O   0  0  0  0  0  0  0  0  0  0  0  0
    7.1345  -14.7176   21.5873 C   0  0  0  0  0  0  0  0  0  0  0  0
    7.6241  -15.0813   22.9499 C   0  0  1  0  0  0  0  0  0  0  0  0
    7.1385  -16.3658   23.3070 O   0  0  0  0  0  0  0  0  0  0  0  0
    9.1469  -15.2285   23.0330 C   0  0  2  0  0  0  0  0  0  0  0  0
    9.4045  -16.4428   22.2376 N   0  0  0  0  0  0  0  0  0  0  0  0
    9.6459  -15.3854   24.4003 C   0  0  0  0  0  0  0  0  0  0  0  0
   10.2273  -16.4857   24.7013 O   0  0  0  0  0  0  0  0  0  0  0  0
    9.5646  -14.4526   25.4506 N   0  0  0  0  0  0  0  0  0  0  0  0
   10.0196  -14.7303   26.8027 C   0  0  1  0  0  0  0  0  0  0  0  0
    9.7421  -13.4533   27.6058 C   0  0  0  0  0  0  0  0  0  0  0  0
   10.4422  -13.6138   29.2619 S   0  0  0  0  0  0  0  0  0  0  0  0
    9.2698  -15.8693   27.3543 C   0  0  0  0  0  0  0  0  0  0  0  0
    8.0596  -16.0050   27.0981 O   0  0  0  0  0  0  0  0  0  0  0  0
    9.9061  -16.7886   28.1562 O   0  0  0  0  0  0  0  0  0  0  0  0
  2  1  1  0
  2  4  1  0
  3  2  2  0
  5  4  1  0
  6  7  1  6
  6  5  1  0
  8  6  1  0
  9  8  2  0
 11 10  1  6
 11 13  1  0
 12 11  1  0
 13 14  1  6
 13 15  1  0
 14  8  1  0
 15 17  1  0
 16 15  2  0
 17 18  1  0
 18 19  1  1
 18 21  1  0
 20 19  1  0
 21 22  2  0
 21 23  1  0
M  END
$$$$
