QTC.pdb
     RDKit          3D

 23 22  0  0  1  0  0  0  0  0999 V2000
    6.2492  -21.4788   27.2699 N   0  0  0  0  0  0  0  0  0  0  0  0
    7.1080  -20.4458   27.7787 C   0  0  0  0  0  0  0  0  0  0  0  0
    7.7953  -20.5928   28.8036 O   0  0  0  0  0  0  0  0  0  0  0  0
    7.1252  -19.1811   27.0004 C   0  0  0  0  0  0  0  0  0  0  0  0
    6.0392  -19.2609   25.9578 C   0  0  0  0  0  0  0  0  0  0  0  0
    6.6488  -19.6494   24.6045 C   0  0  2  0  0  0  0  0  0  0  0  0
    6.9462  -21.0671   24.5924 N   0  0  0  0  0  0  0  0  0  0  0  0
    7.8735  -18.8990   24.3278 C   0  0  0  0  0  0  0  0  0  0  0  0
    9.0062  -19.4581   24.5050 O   0  0  0  0  0  0  0  0  0  0  0  0
    8.8005  -17.2518   21.1953 C   0  0  0  0  0  0  0  0  0  0  0  0
    9.0057  -16.2286   22.2629 C   0  0  1  0  0  0  0  0  0  0  0  0
    7.8411  -15.4280   22.3900 O   0  0  0  0  0  0  0  0  0  0  0  0
    9.1910  -16.8310   23.6594 C   0  0  2  0  0  0  0  0  0  0  0  0
    7.9335  -17.5717   23.8683 N   0  0  0  0  0  0  0  0  0  0  0  0
    9.3859  -15.8283   24.7081 C   0  0  0  0  0  0  0  0  0  0  0  0
    8.3868  -15.0922   25.0234 O   0  0  0  0  0  0  0  0  0  0  0  0
   10.5644  -15.5678   25.4312 N   0  0  0  0  0  0  0  0  0  0  0  0
   10.6461  -14.5846   26.4983 C   0  0  1  0  0  0  0  0  0  0  0  0
    9.7226  -15.0987   27.6098 C   0  0  0  0  0  0  0  0  0  0  0  0
    9.9461  -14.0984   29.0957 S   0  0  0  0  0  0  0  0  0  0  0  0
   12.0341  -14.4841   26.9752 C   0  0  0  0  0  0  0  0  0  0  0  0
   12.8511  -15.3868   26.7176 O   0  0  0  0  0  0  0  0  0  0  0  0
   12.4324  -13.3901   27.7082 O   0  0  0  0  0  0  0  0  0  0  0  0
  2  1  1  0
  2  4  1  0
  3  2  2  0
  5  4  1  0
  6  7  1  1
  6  5  1  0
  8  6  1  0
  9  8  2  0
 11 10  1  6
 11 13  1  0
 12 11  1  0
 13 14  1  1
 13 15  1  0
 14  8  1  0
 15 17  1  0
 16 15  2  0
 17 18  1  0
 18 19  1  1
 18 21  1  0
 20 19  1  0
 21 22  2  0
 21 23  1  0
M  END
$$$$
