QTC.pdb
     RDKit          3D

 23 22  0  0  1  0  0  0  0  0999 V2000
   13.9013  -17.9000   18.9288 N   0  0  0  0  0  0  0  0  0  0  0  0
   13.2040  -18.4792   17.8144 C   0  0  0  0  0  0  0  0  0  0  0  0
   13.7436  -19.2791   17.0312 O   0  0  0  0  0  0  0  0  0  0  0  0
   11.7881  -18.0613   17.6529 C   0  0  0  0  0  0  0  0  0  0  0  0
   11.4456  -17.1284   18.7866 C   0  0  0  0  0  0  0  0  0  0  0  0
    9.9820  -16.6837   18.6666 C   0  0  2  0  0  0  0  0  0  0  0  0
    9.7324  -16.1827   17.3306 N   0  0  0  0  0  0  0  0  0  0  0  0
    9.6518  -15.6428   19.6398 C   0  0  0  0  0  0  0  0  0  0  0  0
   10.0877  -14.4571   19.4635 O   0  0  0  0  0  0  0  0  0  0  0  0
    6.8686  -13.8584   19.9452 C   0  0  0  0  0  0  0  0  0  0  0  0
    7.0186  -14.4651   21.3010 C   0  0  1  0  0  0  0  0  0  0  0  0
    6.4278  -15.7551   21.3172 O   0  0  0  0  0  0  0  0  0  0  0  0
    8.4759  -14.7240   21.6970 C   0  0  2  0  0  0  0  0  0  0  0  0
    8.8721  -15.8215   20.7960 N   0  0  0  0  0  0  0  0  0  0  0  0
    8.6410  -15.1143   23.0982 C   0  0  0  0  0  0  0  0  0  0  0  0
    9.1992  -16.2405   23.3426 O   0  0  0  0  0  0  0  0  0  0  0  0
    8.2536  -14.3863   24.2382 N   0  0  0  0  0  0  0  0  0  0  0  0
    8.3417  -14.9123   25.5901 C   0  0  1  0  0  0  0  0  0  0  0  0
    7.8088  -13.8021   26.5044 C   0  0  0  0  0  0  0  0  0  0  0  0
    8.8168  -12.3177   26.3076 S   0  0  0  0  0  0  0  0  0  0  0  0
    7.5182  -16.1258   25.7049 C   0  0  0  0  0  0  0  0  0  0  0  0
    6.6968  -16.4111   24.8147 O   0  0  0  0  0  0  0  0  0  0  0  0
    7.6547  -16.9492   26.7986 O   0  0  0  0  0  0  0  0  0  0  0  0
  2  1  1  0
  2  4  1  0
  3  2  2  0
  5  4  1  0
  6  7  1  6
  6  5  1  0
  8  6  1  0
  9  8  2  0
 11 10  1  6
 11 13  1  0
 12 11  1  0
 13 14  1  6
 13 15  1  0
 14  8  1  0
 15 17  1  0
 16 15  2  0
 17 18  1  0
 18 19  1  1
 18 21  1  0
 20 19  1  0
 21 22  2  0
 21 23  1  0
M  END
$$$$
