QTC.pdb
     RDKit          3D

 23 22  0  0  1  0  0  0  0  0999 V2000
   12.9139  -20.2770   18.2658 N   0  0  0  0  0  0  0  0  0  0  0  0
   12.0892  -19.1923   17.8110 C   0  0  0  0  0  0  0  0  0  0  0  0
   12.2972  -18.5987   16.7391 O   0  0  0  0  0  0  0  0  0  0  0  0
   10.9641  -18.8196   18.7057 C   0  0  0  0  0  0  0  0  0  0  0  0
   11.0483  -17.3373   18.9673 C   0  0  0  0  0  0  0  0  0  0  0  0
   11.0265  -17.0766   20.4791 C   0  0  2  0  0  0  0  0  0  0  0  0
   10.6559  -18.2900   21.1780 N   0  0  0  0  0  0  0  0  0  0  0  0
   10.0856  -16.0131   20.8307 C   0  0  0  0  0  0  0  0  0  0  0  0
   10.1714  -14.8811   20.2492 O   0  0  0  0  0  0  0  0  0  0  0  0
    6.5481  -15.8100   20.2921 C   0  0  0  0  0  0  0  0  0  0  0  0
    6.7574  -15.6134   21.7571 C   0  0  1  0  0  0  0  0  0  0  0  0
    6.7587  -16.8709   22.4144 O   0  0  0  0  0  0  0  0  0  0  0  0
    8.1251  -15.0165   22.1044 C   0  0  2  0  0  0  0  0  0  0  0  0
    9.0551  -16.1139   21.7818 N   0  0  0  0  0  0  0  0  0  0  0  0
    8.2518  -14.6215   23.5083 C   0  0  0  0  0  0  0  0  0  0  0  0
    9.1080  -15.2437   24.2288 O   0  0  0  0  0  0  0  0  0  0  0  0
    7.5318  -13.6167   24.1804 N   0  0  0  0  0  0  0  0  0  0  0  0
    7.6293  -13.3854   25.6119 C   0  0  1  0  0  0  0  0  0  0  0  0
    6.6741  -12.2236   25.9120 C   0  0  0  0  0  0  0  0  0  0  0  0
    6.7462  -11.8170   27.6693 S   0  0  0  0  0  0  0  0  0  0  0  0
    7.2238  -14.5982   26.3390 C   0  0  0  0  0  0  0  0  0  0  0  0
    6.2998  -15.3091   25.9039 O   0  0  0  0  0  0  0  0  0  0  0  0
    7.8664  -14.9495   27.5037 O   0  0  0  0  0  0  0  0  0  0  0  0
  2  1  1  0
  2  4  1  0
  3  2  2  0
  5  4  1  0
  6  7  1  1
  6  5  1  0
  8  6  1  0
  9  8  2  0
 11 10  1  6
 11 13  1  0
 12 11  1  0
 13 14  1  1
 13 15  1  0
 14  8  1  0
 15 17  1  0
 16 15  2  0
 17 18  1  0
 18 19  1  1
 18 21  1  0
 20 19  1  0
 21 22  2  0
 21 23  1  0
M  END
$$$$
