QTC.pdb
     RDKit          3D

 23 22  0  0  1  0  0  0  0  0999 V2000
   11.4857  -19.3861   24.0930 N   0  0  0  0  0  0  0  0  0  0  0  0
   12.5374  -18.4928   23.6938 C   0  0  0  0  0  0  0  0  0  0  0  0
   13.4730  -18.1817   24.4503 O   0  0  0  0  0  0  0  0  0  0  0  0
   12.4389  -17.9590   22.3115 C   0  0  0  0  0  0  0  0  0  0  0  0
   11.2202  -18.5654   21.6637 C   0  0  0  0  0  0  0  0  0  0  0  0
   10.6299  -17.5795   20.6470 C   0  0  2  0  0  0  0  0  0  0  0  0
   11.6121  -17.2882   19.6231 N   0  0  0  0  0  0  0  0  0  0  0  0
   10.2147  -16.3299   21.2842 C   0  0  0  0  0  0  0  0  0  0  0  0
   11.0134  -15.3355   21.2963 O   0  0  0  0  0  0  0  0  0  0  0  0
    7.1991  -14.4120   20.2911 C   0  0  0  0  0  0  0  0  0  0  0  0
    7.1527  -14.6244   21.7681 C   0  0  1  0  0  0  0  0  0  0  0  0
    6.5005  -15.8512   22.0559 O   0  0  0  0  0  0  0  0  0  0  0  0
    8.5364  -14.7860   22.4060 C   0  0  2  0  0  0  0  0  0  0  0  0
    8.9763  -16.1026   21.9097 N   0  0  0  0  0  0  0  0  0  0  0  0
    8.5123  -14.7619   23.8696 C   0  0  0  0  0  0  0  0  0  0  0  0
    8.8285  -15.8366   24.4898 O   0  0  0  0  0  0  0  0  0  0  0  0
    8.1775  -13.6764   24.6998 N   0  0  0  0  0  0  0  0  0  0  0  0
    7.9819  -13.7987   26.1347 C   0  0  1  0  0  0  0  0  0  0  0  0
    7.4005  -12.4548   26.5916 C   0  0  0  0  0  0  0  0  0  0  0  0
    5.6050  -12.4761   26.4068 S   0  0  0  0  0  0  0  0  0  0  0  0
    7.0450  -14.8974   26.4158 C   0  0  0  0  0  0  0  0  0  0  0  0
    6.1915  -15.2236   25.5709 O   0  0  0  0  0  0  0  0  0  0  0  0
    7.1106  -15.5678   27.6154 O   0  0  0  0  0  0  0  0  0  0  0  0
  2  1  1  0
  2  4  1  0
  3  2  2  0
  5  4  1  0
  6  7  1  6
  6  5  1  0
  8  6  1  0
  9  8  2  0
 11 10  1  6
 11 13  1  0
 12 11  1  0
 13 14  1  1
 13 15  1  0
 14  8  1  0
 15 17  1  0
 16 15  2  0
 17 18  1  0
 18 19  1  6
 18 21  1  0
 20 19  1  0
 21 22  2  0
 21 23  1  0
M  END
$$$$
