QTC.pdb
     RDKit          3D

 23 22  0  0  1  0  0  0  0  0999 V2000
    7.9439  -21.0134   18.7795 N   0  0  0  0  0  0  0  0  0  0  0  0
    7.5034  -20.8165   17.4265 C   0  0  0  0  0  0  0  0  0  0  0  0
    6.8729  -21.6824   16.7962 O   0  0  0  0  0  0  0  0  0  0  0  0
    7.8493  -19.5053   16.8210 C   0  0  0  0  0  0  0  0  0  0  0  0
    8.4834  -18.6516   17.8895 C   0  0  0  0  0  0  0  0  0  0  0  0
    8.3404  -17.1693   17.5200 C   0  0  2  0  0  0  0  0  0  0  0  0
    9.0224  -16.9105   16.2686 N   0  0  0  0  0  0  0  0  0  0  0  0
    8.8924  -16.2980   18.5573 C   0  0  0  0  0  0  0  0  0  0  0  0
   10.1034  -15.9070   18.4701 O   0  0  0  0  0  0  0  0  0  0  0  0
    7.4507  -13.0321   19.9529 C   0  0  0  0  0  0  0  0  0  0  0  0
    7.7192  -13.9870   21.0685 C   0  0  1  0  0  0  0  0  0  0  0  0
    6.5688  -14.7828   21.3061 O   0  0  0  0  0  0  0  0  0  0  0  0
    8.8132  -15.0104   20.7470 C   0  0  2  0  0  0  0  0  0  0  0  0
    8.1980  -15.8281   19.6858 N   0  0  0  0  0  0  0  0  0  0  0  0
    9.1923  -15.8408   21.8915 C   0  0  0  0  0  0  0  0  0  0  0  0
    8.6060  -16.9707   22.0296 O   0  0  0  0  0  0  0  0  0  0  0  0
   10.1458  -15.5440   22.8826 N   0  0  0  0  0  0  0  0  0  0  0  0
   10.4936  -16.4596   23.9563 C   0  0  1  0  0  0  0  0  0  0  0  0
   11.9754  -16.2032   24.2586 C   0  0  0  0  0  0  0  0  0  0  0  0
   12.9542  -16.4693   22.7654 S   0  0  0  0  0  0  0  0  0  0  0  0
    9.6620  -16.1787   25.1368 C   0  0  0  0  0  0  0  0  0  0  0  0
    8.9183  -15.1811   25.1552 O   0  0  0  0  0  0  0  0  0  0  0  0
    9.7049  -17.0197   26.2247 O   0  0  0  0  0  0  0  0  0  0  0  0
  2  1  1  0
  2  4  1  0
  3  2  2  0
  5  4  1  0
  6  7  1  6
  6  5  1  0
  8  6  1  0
  9  8  2  0
 11 10  1  6
 11 13  1  0
 12 11  1  0
 13 14  1  6
 13 15  1  0
 14  8  1  0
 15 17  1  0
 16 15  2  0
 17 18  1  0
 18 19  1  1
 18 21  1  0
 20 19  1  0
 21 22  2  0
 21 23  1  0
M  END
$$$$
