QTC.pdb
     RDKit          3D

 23 22  0  0  1  0  0  0  0  0999 V2000
    7.9359  -12.7908   16.3021 N   0  0  0  0  0  0  0  0  0  0  0  0
    8.0263  -13.6106   15.1260 C   0  0  0  0  0  0  0  0  0  0  0  0
    7.7814  -13.1757   13.9879 O   0  0  0  0  0  0  0  0  0  0  0  0
    8.4332  -15.0206   15.3535 C   0  0  0  0  0  0  0  0  0  0  0  0
    8.6552  -15.2086   16.8327 C   0  0  0  0  0  0  0  0  0  0  0  0
    9.1598  -16.6320   17.1036 C   0  0  2  0  0  0  0  0  0  0  0  0
    8.6126  -17.5396   16.1161 N   0  0  0  0  0  0  0  0  0  0  0  0
    8.7849  -17.0932   18.4401 C   0  0  0  0  0  0  0  0  0  0  0  0
    7.5953  -17.5014   18.6530 O   0  0  0  0  0  0  0  0  0  0  0  0
    9.5904  -19.9736   20.0932 C   0  0  0  0  0  0  0  0  0  0  0  0
    9.9961  -18.9100   21.0591 C   0  0  1  0  0  0  0  0  0  0  0  0
   11.3429  -18.5331   20.8197 O   0  0  0  0  0  0  0  0  0  0  0  0
    9.2143  -17.6028   20.8927 C   0  0  2  0  0  0  0  0  0  0  0  0
    9.6347  -17.1348   19.5594 N   0  0  0  0  0  0  0  0  0  0  0  0
    9.5212  -16.6030   21.9169 C   0  0  0  0  0  0  0  0  0  0  0  0
   10.5024  -15.8090   21.7013 O   0  0  0  0  0  0  0  0  0  0  0  0
    8.8540  -16.4006   23.1391 N   0  0  0  0  0  0  0  0  0  0  0  0
    9.2484  -15.3908   24.1070 C   0  0  1  0  0  0  0  0  0  0  0  0
    7.9464  -14.9060   24.7569 C   0  0  0  0  0  0  0  0  0  0  0  0
    7.1226  -13.7306   23.6623 S   0  0  0  0  0  0  0  0  0  0  0  0
   10.1438  -15.9878   25.1099 C   0  0  0  0  0  0  0  0  0  0  0  0
   10.3308  -17.2179   25.1285 O   0  0  0  0  0  0  0  0  0  0  0  0
   10.7775  -15.1859   26.0308 O   0  0  0  0  0  0  0  0  0  0  0  0
  2  1  1  0
  2  4  1  0
  3  2  2  0
  5  4  1  0
  6  7  1  6
  6  5  1  0
  8  6  1  0
  9  8  2  0
 11 10  1  6
 11 13  1  0
 12 11  1  0
 13 14  1  6
 13 15  1  0
 14  8  1  0
 15 17  1  0
 16 15  2  0
 17 18  1  0
 18 19  1  1
 18 21  1  0
 20 19  1  0
 21 22  2  0
 21 23  1  0
M  END
$$$$
