QTC.pdb
     RDKit          3D

 23 22  0  0  1  0  0  0  0  0999 V2000
   14.0808  -19.5487   22.8327 N   0  0  0  0  0  0  0  0  0  0  0  0
   14.3601  -19.0898   21.5004 C   0  0  0  0  0  0  0  0  0  0  0  0
   15.3351  -19.4948   20.8448 O   0  0  0  0  0  0  0  0  0  0  0  0
   13.4062  -18.0941   20.9491 C   0  0  0  0  0  0  0  0  0  0  0  0
   12.0094  -18.6206   21.1601 C   0  0  0  0  0  0  0  0  0  0  0  0
   10.9890  -17.6157   20.6096 C   0  0  2  0  0  0  0  0  0  0  0  0
   11.4724  -17.0643   19.3604 N   0  0  0  0  0  0  0  0  0  0  0  0
   10.7416  -16.5251   21.5525 C   0  0  0  0  0  0  0  0  0  0  0  0
   11.4704  -15.4792   21.5084 O   0  0  0  0  0  0  0  0  0  0  0  0
    7.4164  -14.8004   21.9122 C   0  0  0  0  0  0  0  0  0  0  0  0
    7.8935  -15.2446   23.2552 C   0  0  1  0  0  0  0  0  0  0  0  0
    7.4605  -16.5729   23.5028 O   0  0  0  0  0  0  0  0  0  0  0  0
    9.4194  -15.3298   23.3643 C   0  0  2  0  0  0  0  0  0  0  0  0
    9.7431  -16.5100   22.5422 N   0  0  0  0  0  0  0  0  0  0  0  0
    9.8993  -15.5027   24.7364 C   0  0  0  0  0  0  0  0  0  0  0  0
   10.3838  -16.6428   25.0604 O   0  0  0  0  0  0  0  0  0  0  0  0
    9.8948  -14.5468   25.7689 N   0  0  0  0  0  0  0  0  0  0  0  0
   10.3212  -14.8365   27.1277 C   0  0  1  0  0  0  0  0  0  0  0  0
   10.0253  -13.5672   27.9364 C   0  0  0  0  0  0  0  0  0  0  0  0
   10.6230  -13.7718   29.6274 S   0  0  0  0  0  0  0  0  0  0  0  0
    9.5610  -15.9812   27.6528 C   0  0  0  0  0  0  0  0  0  0  0  0
    8.3622  -16.1270   27.3523 O   0  0  0  0  0  0  0  0  0  0  0  0
   10.1749  -16.8945   28.4785 O   0  0  0  0  0  0  0  0  0  0  0  0
  2  1  1  0
  2  4  1  0
  3  2  2  0
  5  4  1  0
  6  7  1  6
  6  5  1  0
  8  6  1  0
  9  8  2  0
 11 10  1  6
 11 13  1  0
 12 11  1  0
 13 14  1  6
 13 15  1  0
 14  8  1  0
 15 17  1  0
 16 15  2  0
 17 18  1  0
 18 19  1  1
 18 21  1  0
 20 19  1  0
 21 22  2  0
 21 23  1  0
M  END
$$$$
