CTA.pdb
     RDKit          3D

 19 18  0  0  1  0  0  0  0  0999 V2000
   -1.3944  -22.8885   23.2982 N   0  0  0  0  0  0  0  0  0  0  0  0
   -2.1691  -22.1361   24.2652 C   0  0  1  0  0  0  0  0  0  0  0  0
   -2.8068  -20.9062   23.6624 C   0  0  0  0  0  0  0  0  0  0  0  0
   -1.5836  -19.5994   23.3723 S   0  0  0  0  0  0  0  0  0  0  0  0
   -3.2829  -22.9948   24.7705 C   0  0  0  0  0  0  0  0  0  0  0  0
   -3.8509  -23.8075   23.9984 O   0  0  0  0  0  0  0  0  0  0  0  0
   -3.2911  -24.2124   28.6645 C   0  0  0  0  0  0  0  0  0  0  0  0
   -4.0384  -24.7954   27.5099 C   0  0  1  0  0  0  0  0  0  0  0  0
   -5.0396  -25.6123   28.0608 O   0  0  0  0  0  0  0  0  0  0  0  0
   -4.7748  -23.7684   26.6640 C   0  0  2  0  0  0  0  0  0  0  0  0
   -3.7060  -22.8990   26.1230 N   0  0  0  0  0  0  0  0  0  0  0  0
   -5.7098  -22.9532   27.4621 C   0  0  0  0  0  0  0  0  0  0  0  0
   -5.2472  -22.0166   28.1855 O   0  0  0  0  0  0  0  0  0  0  0  0
   -9.4260  -22.6152   27.9566 C   0  0  0  0  0  0  0  0  0  0  0  0
   -7.9790  -22.2846   28.3133 C   0  0  2  0  0  0  0  0  0  0  0  0
   -7.1086  -23.1193   27.4974 N   0  0  0  0  0  0  0  0  0  0  0  0
   -7.7407  -22.5033   29.7471 C   0  0  0  0  0  0  0  0  0  0  0  0
   -8.1978  -21.6570   30.5573 O   0  0  0  0  0  0  0  0  0  0  0  0
   -7.0463  -23.5778   30.2774 O   0  0  0  0  0  0  0  0  0  0  0  0
  2  1  1  6
  3  2  1  0
  4  3  1  0
  5  2  1  0
  6  5  2  0
  8  7  1  1
  8 10  1  0
  9  8  1  0
 10 12  1  0
 10 11  1  1
 11  5  1  0
 12 13  2  0
 15 14  1  1
 16 15  1  0
 16 12  1  0
 17 19  1  0
 17 15  1  0
 18 17  2  0
M  END
$$$$
