CTA.pdb
     RDKit          3D

 19 18  0  0  1  0  0  0  0  0999 V2000
    5.0893  -13.0110   26.0982 N   0  0  0  0  0  0  0  0  0  0  0  0
    6.4525  -12.8543   25.6307 C   0  0  1  0  0  0  0  0  0  0  0  0
    7.4040  -12.4775   26.7422 C   0  0  0  0  0  0  0  0  0  0  0  0
    7.1012  -10.7892   27.3305 S   0  0  0  0  0  0  0  0  0  0  0  0
    6.9303  -14.1581   25.0784 C   0  0  0  0  0  0  0  0  0  0  0  0
    6.7338  -15.2221   25.7175 O   0  0  0  0  0  0  0  0  0  0  0  0
    7.0194  -14.4962   21.2047 C   0  0  0  0  0  0  0  0  0  0  0  0
    8.1957  -15.2230   21.7702 C   0  0  1  0  0  0  0  0  0  0  0  0
    9.3021  -14.3744   21.6001 O   0  0  0  0  0  0  0  0  0  0  0  0
    8.1080  -15.4777   23.2669 C   0  0  2  0  0  0  0  0  0  0  0  0
    7.6080  -14.2038   23.8309 N   0  0  0  0  0  0  0  0  0  0  0  0
    9.4222  -15.7909   23.8588 C   0  0  0  0  0  0  0  0  0  0  0  0
   10.1788  -14.8358   24.2191 O   0  0  0  0  0  0  0  0  0  0  0  0
   11.2133  -18.2746   25.7386 C   0  0  0  0  0  0  0  0  0  0  0  0
   11.2879  -17.3326   24.5395 C   0  0  2  0  0  0  0  0  0  0  0  0
    9.9316  -17.0877   24.0700 N   0  0  0  0  0  0  0  0  0  0  0  0
   12.1244  -17.9149   23.4804 C   0  0  0  0  0  0  0  0  0  0  0  0
   13.3293  -18.1577   23.7463 O   0  0  0  0  0  0  0  0  0  0  0  0
   11.6834  -18.2185   22.2031 O   0  0  0  0  0  0  0  0  0  0  0  0
  2  1  1  1
  3  2  1  0
  4  3  1  0
  5  2  1  0
  6  5  2  0
  8  7  1  1
  8 10  1  0
  9  8  1  0
 10 12  1  0
 10 11  1  1
 11  5  1  0
 12 13  2  0
 15 14  1  1
 16 15  1  0
 16 12  1  0
 17 19  1  0
 17 15  1  0
 18 17  2  0
M  END
$$$$
