CTA.pdb
     RDKit          3D

 19 18  0  0  1  0  0  0  0  0999 V2000
    4.8332  -13.4408   26.0485 N   0  0  0  0  0  0  0  0  0  0  0  0
    6.1719  -13.0671   25.6369 C   0  0  1  0  0  0  0  0  0  0  0  0
    6.8135  -12.0817   26.5855 C   0  0  0  0  0  0  0  0  0  0  0  0
    5.8672  -10.5376   26.6776 S   0  0  0  0  0  0  0  0  0  0  0  0
    7.0373  -14.2856   25.6316 C   0  0  0  0  0  0  0  0  0  0  0  0
    7.0565  -15.0480   26.6304 O   0  0  0  0  0  0  0  0  0  0  0  0
    8.0009  -15.7400   22.0147 C   0  0  0  0  0  0  0  0  0  0  0  0
    9.1125  -15.9142   22.9974 C   0  0  1  0  0  0  0  0  0  0  0  0
    9.9923  -14.8386   22.7919 O   0  0  0  0  0  0  0  0  0  0  0  0
    8.6787  -15.8094   24.4513 C   0  0  2  0  0  0  0  0  0  0  0  0
    7.8417  -14.5896   24.5011 N   0  0  0  0  0  0  0  0  0  0  0  0
    9.8245  -15.6527   25.3668 C   0  0  0  0  0  0  0  0  0  0  0  0
   10.4278  -14.5353   25.4129 O   0  0  0  0  0  0  0  0  0  0  0  0
   10.7972  -15.3316   28.1870 C   0  0  0  0  0  0  0  0  0  0  0  0
   11.3416  -16.3902   27.2311 C   0  0  2  0  0  0  0  0  0  0  0  0
   10.3265  -16.6545   26.2212 N   0  0  0  0  0  0  0  0  0  0  0  0
   11.6964  -17.6123   27.9665 C   0  0  0  0  0  0  0  0  0  0  0  0
   11.0121  -18.6465   27.7579 O   0  0  0  0  0  0  0  0  0  0  0  0
   12.7343  -17.7122   28.8781 O   0  0  0  0  0  0  0  0  0  0  0  0
  2  1  1  1
  3  2  1  0
  4  3  1  0
  5  2  1  0
  6  5  2  0
  8  7  1  6
  8 10  1  0
  9  8  1  0
 10 12  1  0
 10 11  1  6
 11  5  1  0
 12 13  2  0
 15 14  1  1
 16 15  1  0
 16 12  1  0
 17 19  1  0
 17 15  1  0
 18 17  2  0
M  END
$$$$
