CTA.pdb
     RDKit          3D

 19 18  0  0  1  0  0  0  0  0999 V2000
    8.4844  -17.3734   16.4510 N   0  0  0  0  0  0  0  0  0  0  0  0
    7.8036  -17.2794   17.7274 C   0  0  1  0  0  0  0  0  0  0  0  0
    7.5559  -18.6333   18.3504 C   0  0  0  0  0  0  0  0  0  0  0  0
    9.1054  -19.4147   18.8764 S   0  0  0  0  0  0  0  0  0  0  0  0
    8.6635  -16.5167   18.6825 C   0  0  0  0  0  0  0  0  0  0  0  0
    9.8666  -16.2876   18.4009 O   0  0  0  0  0  0  0  0  0  0  0  0
    7.6077  -13.1802   20.4299 C   0  0  0  0  0  0  0  0  0  0  0  0
    8.0068  -14.2220   21.4234 C   0  0  1  0  0  0  0  0  0  0  0  0
    6.8321  -14.9135   21.7625 O   0  0  0  0  0  0  0  0  0  0  0  0
    8.9522  -15.2775   20.8713 C   0  0  2  0  0  0  0  0  0  0  0  0
    8.1287  -16.0468   19.9116 N   0  0  0  0  0  0  0  0  0  0  0  0
    9.4526  -16.1843   21.9214 C   0  0  0  0  0  0  0  0  0  0  0  0
    8.7590  -17.2003   22.2397 O   0  0  0  0  0  0  0  0  0  0  0  0
   12.6259  -16.8364   23.7769 C   0  0  0  0  0  0  0  0  0  0  0  0
   11.1109  -16.9668   23.6416 C   0  0  2  0  0  0  0  0  0  0  0  0
   10.6637  -16.0261   22.6241 N   0  0  0  0  0  0  0  0  0  0  0  0
   10.4561  -16.7108   24.9324 C   0  0  0  0  0  0  0  0  0  0  0  0
    9.7687  -15.6642   25.0484 O   0  0  0  0  0  0  0  0  0  0  0  0
   10.5393  -17.5404   26.0383 O   0  0  0  0  0  0  0  0  0  0  0  0
  2  1  1  6
  3  2  1  0
  4  3  1  0
  5  2  1  0
  6  5  2  0
  8  7  1  6
  8 10  1  0
  9  8  1  0
 10 12  1  0
 10 11  1  6
 11  5  1  0
 12 13  2  0
 15 14  1  1
 16 15  1  0
 16 12  1  0
 17 19  1  0
 17 15  1  0
 18 17  2  0
M  END
$$$$
