CTA.pdb
     RDKit          3D

 19 18  0  0  1  0  0  0  0  0999 V2000
    8.1622  -17.8946   15.7539 N   0  0  0  0  0  0  0  0  0  0  0  0
    7.5512  -17.8096   17.0657 C   0  0  1  0  0  0  0  0  0  0  0  0
    7.6020  -19.1222   17.8122 C   0  0  0  0  0  0  0  0  0  0  0  0
    6.4118  -20.3137   17.1401 S   0  0  0  0  0  0  0  0  0  0  0  0
    8.3046  -16.8162   17.8898 C   0  0  0  0  0  0  0  0  0  0  0  0
    9.5610  -16.8038   17.8675 O   0  0  0  0  0  0  0  0  0  0  0  0
    7.9130  -12.5768   20.4503 C   0  0  0  0  0  0  0  0  0  0  0  0
    7.4166  -13.6868   19.5825 C   0  0  1  0  0  0  0  0  0  0  0  0
    7.4122  -13.1884   18.2692 O   0  0  0  0  0  0  0  0  0  0  0  0
    8.3270  -14.9045   19.5495 C   0  0  2  0  0  0  0  0  0  0  0  0
    7.6079  -15.8819   18.7018 N   0  0  0  0  0  0  0  0  0  0  0  0
    8.5364  -15.4826   20.8903 C   0  0  0  0  0  0  0  0  0  0  0  0
    7.5590  -16.0410   21.4798 O   0  0  0  0  0  0  0  0  0  0  0  0
    9.7222  -17.6558   22.6375 C   0  0  0  0  0  0  0  0  0  0  0  0
    9.9280  -16.1613   22.8711 C   0  0  2  0  0  0  0  0  0  0  0  0
    9.7545  -15.4751   21.5987 N   0  0  0  0  0  0  0  0  0  0  0  0
   11.2603  -15.9089   23.4384 C   0  0  0  0  0  0  0  0  0  0  0  0
   11.5514  -16.4612   24.5301 O   0  0  0  0  0  0  0  0  0  0  0  0
   12.2261  -15.1037   22.8580 O   0  0  0  0  0  0  0  0  0  0  0  0
  2  1  1  6
  3  2  1  0
  4  3  1  0
  5  2  1  0
  6  5  2  0
  8  7  1  1
  8 10  1  0
  9  8  1  0
 10 12  1  0
 10 11  1  6
 11  5  1  0
 12 13  2  0
 15 14  1  6
 16 15  1  0
 16 12  1  0
 17 19  1  0
 17 15  1  0
 18 17  2  0
M  END
$$$$
