CTA.pdb
     RDKit          3D

 19 18  0  0  1  0  0  0  0  0999 V2000
    8.0915  -17.0554   17.6612 N   0  0  0  0  0  0  0  0  0  0  0  0
    7.6199  -17.3893   18.9907 C   0  0  1  0  0  0  0  0  0  0  0  0
    7.6427  -18.8767   19.2544 C   0  0  0  0  0  0  0  0  0  0  0  0
    6.1219  -19.6764   18.6750 S   0  0  0  0  0  0  0  0  0  0  0  0
    8.5239  -16.7591   20.0001 C   0  0  0  0  0  0  0  0  0  0  0  0
    9.7604  -16.6956   19.7847 O   0  0  0  0  0  0  0  0  0  0  0  0
    7.5408  -13.4702   21.9643 C   0  0  0  0  0  0  0  0  0  0  0  0
    7.9893  -14.5550   22.8882 C   0  0  1  0  0  0  0  0  0  0  0  0
    6.8278  -15.2339   23.2920 O   0  0  0  0  0  0  0  0  0  0  0  0
    8.8654  -15.6093   22.2297 C   0  0  2  0  0  0  0  0  0  0  0  0
    7.9937  -16.2291   21.2066 N   0  0  0  0  0  0  0  0  0  0  0  0
    9.3092  -16.6430   23.1837 C   0  0  0  0  0  0  0  0  0  0  0  0
    8.5513  -17.6372   23.4113 O   0  0  0  0  0  0  0  0  0  0  0  0
   12.2780  -18.2114   24.4235 C   0  0  0  0  0  0  0  0  0  0  0  0
   10.9060  -17.6775   24.8272 C   0  0  2  0  0  0  0  0  0  0  0  0
   10.5310  -16.6322   23.8856 N   0  0  0  0  0  0  0  0  0  0  0  0
   10.9379  -17.1699   26.2062 C   0  0  0  0  0  0  0  0  0  0  0  0
   10.7956  -15.9330   26.3834 O   0  0  0  0  0  0  0  0  0  0  0  0
   11.1140  -17.9555   27.3331 O   0  0  0  0  0  0  0  0  0  0  0  0
  2  1  1  6
  3  2  1  0
  4  3  1  0
  5  2  1  0
  6  5  2  0
  8  7  1  6
  8 10  1  0
  9  8  1  0
 10 12  1  0
 10 11  1  6
 11  5  1  0
 12 13  2  0
 15 14  1  6
 16 15  1  0
 16 12  1  0
 17 19  1  0
 17 15  1  0
 18 17  2  0
M  END
$$$$
