CTA.pdb
     RDKit          3D

 19 18  0  0  1  0  0  0  0  0999 V2000
    5.1698  -12.5177   26.1897 N   0  0  0  0  0  0  0  0  0  0  0  0
    6.5869  -12.7084   25.9509 C   0  0  1  0  0  0  0  0  0  0  0  0
    7.3909  -12.7221   27.2300 C   0  0  0  0  0  0  0  0  0  0  0  0
    9.1529  -12.9985   26.9027 S   0  0  0  0  0  0  0  0  0  0  0  0
    6.7957  -14.0359   25.2969 C   0  0  0  0  0  0  0  0  0  0  0  0
    6.2312  -15.0599   25.7573 O   0  0  0  0  0  0  0  0  0  0  0  0
    6.9377  -14.3581   21.4580 C   0  0  0  0  0  0  0  0  0  0  0  0
    8.0681  -15.1405   22.0426 C   0  0  1  0  0  0  0  0  0  0  0  0
    9.2019  -14.3151   21.9617 O   0  0  0  0  0  0  0  0  0  0  0  0
    7.9046  -15.4589   23.5207 C   0  0  2  0  0  0  0  0  0  0  0  0
    7.6311  -14.1492   24.1537 N   0  0  0  0  0  0  0  0  0  0  0  0
    9.1280  -16.0380   24.1066 C   0  0  0  0  0  0  0  0  0  0  0  0
   10.0526  -15.2586   24.4971 O   0  0  0  0  0  0  0  0  0  0  0  0
   10.5423  -19.4492   24.8564 C   0  0  0  0  0  0  0  0  0  0  0  0
   10.6608  -17.9330   24.7238 C   0  0  2  0  0  0  0  0  0  0  0  0
    9.3744  -17.4145   24.2807 N   0  0  0  0  0  0  0  0  0  0  0  0
   11.7330  -17.5821   23.7815 C   0  0  0  0  0  0  0  0  0  0  0  0
   11.4093  -17.2842   22.6033 O   0  0  0  0  0  0  0  0  0  0  0  0
   13.0818  -17.5546   24.0946 O   0  0  0  0  0  0  0  0  0  0  0  0
  2  1  1  1
  3  2  1  0
  4  3  1  0
  5  2  1  0
  6  5  2  0
  8  7  1  1
  8 10  1  0
  9  8  1  0
 10 12  1  0
 10 11  1  1
 11  5  1  0
 12 13  2  0
 15 14  1  6
 16 15  1  0
 16 12  1  0
 17 19  1  0
 17 15  1  0
 18 17  2  0
M  END
$$$$
