CTA.pdb
     RDKit          3D

 19 18  0  0  1  0  0  0  0  0999 V2000
    9.7915  -14.6076   18.6674 N   0  0  0  0  0  0  0  0  0  0  0  0
   10.4412  -15.0009   19.9021 C   0  0  1  0  0  0  0  0  0  0  0  0
   11.8102  -14.3808   20.0569 C   0  0  0  0  0  0  0  0  0  0  0  0
   13.0510  -15.2573   19.0669 S   0  0  0  0  0  0  0  0  0  0  0  0
    9.6201  -14.5255   21.0568 C   0  0  0  0  0  0  0  0  0  0  0  0
    9.0806  -13.3911   21.0205 O   0  0  0  0  0  0  0  0  0  0  0  0
    6.5733  -15.9988   22.0711 C   0  0  0  0  0  0  0  0  0  0  0  0
    7.4465  -16.0335   23.2827 C   0  0  1  0  0  0  0  0  0  0  0  0
    8.1309  -17.2594   23.2401 O   0  0  0  0  0  0  0  0  0  0  0  0
    8.5297  -14.9661   23.2988 C   0  0  2  0  0  0  0  0  0  0  0  0
    9.4442  -15.3499   22.2001 N   0  0  0  0  0  0  0  0  0  0  0  0
    9.2763  -14.9462   24.5707 C   0  0  0  0  0  0  0  0  0  0  0  0
   10.3289  -15.6498   24.6781 O   0  0  0  0  0  0  0  0  0  0  0  0
    9.1657  -13.1774   27.8869 C   0  0  0  0  0  0  0  0  0  0  0  0
    9.6304  -14.3123   26.9777 C   0  0  2  0  0  0  0  0  0  0  0  0
    8.9226  -14.1970   25.7105 N   0  0  0  0  0  0  0  0  0  0  0  0
    9.3820  -15.6140   27.6135 C   0  0  0  0  0  0  0  0  0  0  0  0
   10.0455  -15.9051   28.6414 O   0  0  0  0  0  0  0  0  0  0  0  0
    8.4667  -16.5508   27.1634 O   0  0  0  0  0  0  0  0  0  0  0  0
  2  1  1  6
  3  2  1  0
  4  3  1  0
  5  2  1  0
  6  5  2  0
  8  7  1  6
  8 10  1  0
  9  8  1  0
 10 12  1  0
 10 11  1  6
 11  5  1  0
 12 13  2  0
 15 14  1  1
 16 15  1  0
 16 12  1  0
 17 19  1  0
 17 15  1  0
 18 17  2  0
M  END
$$$$
