CTA.pdb
     RDKit          3D

 19 18  0  0  1  0  0  0  0  0999 V2000
    7.9288  -12.1683   25.9017 N   0  0  0  0  0  0  0  0  0  0  0  0
    6.9241  -13.1239   26.3246 C   0  0  1  0  0  0  0  0  0  0  0  0
    5.5196  -12.5854   26.1828 C   0  0  0  0  0  0  0  0  0  0  0  0
    5.3718  -10.9235   26.8930 S   0  0  0  0  0  0  0  0  0  0  0  0
    7.0100  -14.3367   25.4556 C   0  0  0  0  0  0  0  0  0  0  0  0
    6.1393  -15.2384   25.5459 O   0  0  0  0  0  0  0  0  0  0  0  0
    7.3670  -14.3121   21.8587 C   0  0  0  0  0  0  0  0  0  0  0  0
    8.4241  -15.2648   22.3132 C   0  0  1  0  0  0  0  0  0  0  0  0
    9.6355  -14.5546   22.2794 O   0  0  0  0  0  0  0  0  0  0  0  0
    8.2665  -15.7271   23.7534 C   0  0  2  0  0  0  0  0  0  0  0  0
    8.0730  -14.4784   24.5242 N   0  0  0  0  0  0  0  0  0  0  0  0
    9.4661  -16.4266   24.2506 C   0  0  0  0  0  0  0  0  0  0  0  0
   10.4832  -15.7426   24.5860 O   0  0  0  0  0  0  0  0  0  0  0  0
   10.5430  -19.9286   25.1003 C   0  0  0  0  0  0  0  0  0  0  0  0
   10.8372  -18.4607   24.8016 C   0  0  2  0  0  0  0  0  0  0  0  0
    9.5934  -17.8225   24.3945 N   0  0  0  0  0  0  0  0  0  0  0  0
   11.8652  -18.3452   23.7574 C   0  0  0  0  0  0  0  0  0  0  0  0
   13.0519  -18.6271   24.0635 O   0  0  0  0  0  0  0  0  0  0  0  0
   11.6246  -17.9468   22.4529 O   0  0  0  0  0  0  0  0  0  0  0  0
  2  1  1  6
  3  2  1  0
  4  3  1  0
  5  2  1  0
  6  5  2  0
  8  7  1  1
  8 10  1  0
  9  8  1  0
 10 12  1  0
 10 11  1  1
 11  5  1  0
 12 13  2  0
 15 14  1  6
 16 15  1  0
 16 12  1  0
 17 19  1  0
 17 15  1  0
 18 17  2  0
M  END
$$$$
