CTA.pdb
     RDKit          3D

 19 18  0  0  1  0  0  0  0  0999 V2000
    9.4395  -16.4475   15.7033 N   0  0  0  0  0  0  0  0  0  0  0  0
    8.5832  -16.6791   16.8499 C   0  0  1  0  0  0  0  0  0  0  0  0
    8.4402  -18.1473   17.1761 C   0  0  0  0  0  0  0  0  0  0  0  0
    7.0953  -18.9094   16.2282 S   0  0  0  0  0  0  0  0  0  0  0  0
    9.1909  -16.0285   18.0502 C   0  0  0  0  0  0  0  0  0  0  0  0
   10.4257  -15.7974   18.0833 O   0  0  0  0  0  0  0  0  0  0  0  0
    7.3720  -13.0343   19.9944 C   0  0  0  0  0  0  0  0  0  0  0  0
    7.7951  -14.1531   20.8894 C   0  0  1  0  0  0  0  0  0  0  0  0
    6.7021  -15.0323   20.9647 O   0  0  0  0  0  0  0  0  0  0  0  0
    8.9456  -14.9844   20.3435 C   0  0  2  0  0  0  0  0  0  0  0  0
    8.3795  -15.6678   19.1589 N   0  0  0  0  0  0  0  0  0  0  0  0
    9.4147  -15.9937   21.3114 C   0  0  0  0  0  0  0  0  0  0  0  0
    8.8886  -17.1503   21.2989 O   0  0  0  0  0  0  0  0  0  0  0  0
   12.3746  -16.9894   23.0406 C   0  0  0  0  0  0  0  0  0  0  0  0
   10.8623  -16.8387   23.1853 C   0  0  2  0  0  0  0  0  0  0  0  0
   10.4219  -15.7905   22.2757 N   0  0  0  0  0  0  0  0  0  0  0  0
   10.5085  -16.5238   24.5767 C   0  0  0  0  0  0  0  0  0  0  0  0
   10.0486  -15.3799   24.8246 O   0  0  0  0  0  0  0  0  0  0  0  0
   10.6438  -17.3973   25.6430 O   0  0  0  0  0  0  0  0  0  0  0  0
  2  1  1  6
  3  2  1  0
  4  3  1  0
  5  2  1  0
  6  5  2  0
  8  7  1  6
  8 10  1  0
  9  8  1  0
 10 12  1  0
 10 11  1  6
 11  5  1  0
 12 13  2  0
 15 14  1  1
 16 15  1  0
 16 12  1  0
 17 19  1  0
 17 15  1  0
 18 17  2  0
M  END
$$$$
