CTA.pdb
     RDKit          3D

 19 18  0  0  1  0  0  0  0  0999 V2000
    8.7273  -13.6490   19.0568 N   0  0  0  0  0  0  0  0  0  0  0  0
    9.3113  -14.5555   20.0256 C   0  0  1  0  0  0  0  0  0  0  0  0
   10.7513  -14.2194   20.3355 C   0  0  0  0  0  0  0  0  0  0  0  0
   10.9539  -12.4583   20.7167 S   0  0  0  0  0  0  0  0  0  0  0  0
    8.5572  -14.4455   21.3111 C   0  0  0  0  0  0  0  0  0  0  0  0
    7.8670  -13.4229   21.5502 O   0  0  0  0  0  0  0  0  0  0  0  0
    6.0663  -16.9036   22.6219 C   0  0  0  0  0  0  0  0  0  0  0  0
    7.1352  -16.7300   23.6509 C   0  0  1  0  0  0  0  0  0  0  0  0
    8.0949  -17.7229   23.3934 O   0  0  0  0  0  0  0  0  0  0  0  0
    7.8834  -15.4096   23.5530 C   0  0  2  0  0  0  0  0  0  0  0  0
    8.6151  -15.4927   22.2690 N   0  0  0  0  0  0  0  0  0  0  0  0
    8.8486  -15.2309   24.6539 C   0  0  0  0  0  0  0  0  0  0  0  0
   10.0365  -15.6573   24.5069 O   0  0  0  0  0  0  0  0  0  0  0  0
    9.1038  -13.3122   27.8535 C   0  0  0  0  0  0  0  0  0  0  0  0
    9.5807  -14.4209   26.9186 C   0  0  2  0  0  0  0  0  0  0  0  0
    8.5694  -14.6121   25.8887 N   0  0  0  0  0  0  0  0  0  0  0  0
    9.8193  -15.6603   27.6718 C   0  0  0  0  0  0  0  0  0  0  0  0
   10.7331  -15.6595   28.5358 O   0  0  0  0  0  0  0  0  0  0  0  0
    9.1094  -16.8372   27.5010 O   0  0  0  0  0  0  0  0  0  0  0  0
  2  1  1  6
  3  2  1  0
  4  3  1  0
  5  2  1  0
  6  5  2  0
  8  7  1  6
  8 10  1  0
  9  8  1  0
 10 12  1  0
 10 11  1  6
 11  5  1  0
 12 13  2  0
 15 14  1  1
 16 15  1  0
 16 12  1  0
 17 19  1  0
 17 15  1  0
 18 17  2  0
M  END
$$$$
