VLQ.pdb
     RDKit          3D

 25 24  0  0  1  0  0  0  0  0999 V2000
   15.5215  -24.2524    0.0597 C   0  0  0  0  0  0  0  0  0  0  0  0
   15.2550  -22.8361   -0.3894 C   0  0  1  0  0  0  0  0  0  0  0  0
   14.3625  -22.7684   -1.5856 C   0  0  0  0  0  0  0  0  0  0  0  0
   14.7519  -22.0329    0.7756 C   0  0  2  0  0  0  0  0  0  0  0  0
   13.9711  -20.9076    0.3546 N   0  0  0  0  0  0  0  0  0  0  0  0
   15.9113  -21.6252    1.6258 C   0  0  0  0  0  0  0  0  0  0  0  0
   16.6976  -22.4863    2.0653 O   0  0  0  0  0  0  0  0  0  0  0  0
   19.1447  -17.0325    1.1059 C   0  0  0  0  0  0  0  0  0  0  0  0
   18.8260  -18.5256    1.4247 C   0  0  1  0  0  0  0  0  0  0  0  0
   20.1609  -19.0861    1.9121 C   0  0  0  0  0  0  0  0  0  0  0  0
   17.7339  -18.5618    2.4204 C   0  0  0  0  0  0  0  0  0  0  0  0
   17.2861  -19.8864    2.8738 C   0  0  2  0  0  0  0  0  0  0  0  0
   16.1374  -20.2737    1.9448 N   0  0  0  0  0  0  0  0  0  0  0  0
   16.6760  -19.9695    4.1900 C   0  0  0  0  0  0  0  0  0  0  0  0
   15.4499  -19.5764    4.3038 O   0  0  0  0  0  0  0  0  0  0  0  0
   17.6448  -23.4560    9.3054 N   0  0  0  0  0  0  0  0  0  0  0  0
   16.5000  -22.7104    9.6799 C   0  0  0  0  0  0  0  0  0  0  0  0
   15.8448  -22.9423   10.7006 O   0  0  0  0  0  0  0  0  0  0  0  0
   16.0586  -21.5692    8.7790 C   0  0  0  0  0  0  0  0  0  0  0  0
   16.9488  -21.4958    7.5769 C   0  0  0  0  0  0  0  0  0  0  0  0
   16.5169  -20.3678    6.6742 C   0  0  2  0  0  0  0  0  0  0  0  0
   17.2249  -20.4418    5.4044 N   0  0  0  0  0  0  0  0  0  0  0  0
   16.5583  -19.0989    7.3591 C   0  0  0  0  0  0  0  0  0  0  0  0
   15.4803  -18.3290    7.7708 O   0  0  0  0  0  0  0  0  0  0  0  0
   17.7011  -18.5853    7.6366 O   0  0  0  0  0  0  0  0  0  0  0  0
  2  1  1  1
  2  3  1  0
  4  2  1  0
  4  5  1  6
  6  4  1  0
  6  7  2  0
  9 11  1  0
  9  8  1  1
 10  9  1  0
 12 11  1  6
 12 13  1  0
 13  6  1  0
 14 12  1  0
 15 14  2  0
 17 16  1  0
 17 18  2  0
 19 20  1  0
 19 17  1  0
 21 20  1  1
 21 23  1  0
 21 22  1  0
 22 14  1  0
 23 24  1  0
 25 23  2  0
M  END
$$$$
