VLQ.pdb
     RDKit          3D

 25 24  0  0  1  0  0  0  0  0999 V2000
   17.3023  -14.0135  -17.1195 C   0  0  0  0  0  0  0  0  0  0  0  0
   18.5236  -14.3400  -17.9444 C   0  0  1  0  0  0  0  0  0  0  0  0
   18.2216  -15.2571  -19.0845 C   0  0  0  0  0  0  0  0  0  0  0  0
   19.1918  -13.0633  -18.3676 C   0  0  2  0  0  0  0  0  0  0  0  0
   20.0773  -13.2628  -19.4764 N   0  0  0  0  0  0  0  0  0  0  0  0
   19.8915  -12.4641  -17.1910 C   0  0  0  0  0  0  0  0  0  0  0  0
   19.2966  -12.3484  -16.1021 O   0  0  0  0  0  0  0  0  0  0  0  0
   25.4186  -12.7886  -16.0989 C   0  0  0  0  0  0  0  0  0  0  0  0
   23.8768  -12.8127  -15.8645 C   0  0  1  0  0  0  0  0  0  0  0  0
   23.7406  -13.1263  -14.3756 C   0  0  0  0  0  0  0  0  0  0  0  0
   23.3266  -11.5047  -16.2789 C   0  0  0  0  0  0  0  0  0  0  0  0
   21.8804  -11.3037  -16.1097 C   0  0  2  0  0  0  0  0  0  0  0  0
   21.2237  -12.0220  -17.2868 N   0  0  0  0  0  0  0  0  0  0  0  0
   21.3760   -9.9472  -16.2400 C   0  0  0  0  0  0  0  0  0  0  0  0
   21.4542   -9.3923  -17.4047 O   0  0  0  0  0  0  0  0  0  0  0  0
   16.6904   -7.3872  -17.1304 N   0  0  0  0  0  0  0  0  0  0  0  0
   17.2848   -6.1521  -16.7728 C   0  0  0  0  0  0  0  0  0  0  0  0
   16.8371   -5.0572  -17.1274 O   0  0  0  0  0  0  0  0  0  0  0  0
   18.5353   -6.1787  -15.9101 C   0  0  0  0  0  0  0  0  0  0  0  0
   18.9138   -7.5953  -15.6056 C   0  0  0  0  0  0  0  0  0  0  0  0
   20.4134   -7.7301  -15.5238 C   0  0  2  0  0  0  0  0  0  0  0  0
   20.7797   -9.1150  -15.2649 N   0  0  0  0  0  0  0  0  0  0  0  0
   20.9847   -6.7400  -14.6439 C   0  0  0  0  0  0  0  0  0  0  0  0
   21.6537   -6.9615  -13.4489 O   0  0  0  0  0  0  0  0  0  0  0  0
   20.8837   -5.5009  -14.9621 O   0  0  0  0  0  0  0  0  0  0  0  0
  2  1  1  6
  2  3  1  0
  4  2  1  0
  4  5  1  6
  6  4  1  0
  6  7  2  0
  9 11  1  0
  9  8  1  1
 10  9  1  0
 12 11  1  6
 12 13  1  0
 13  6  1  0
 14 12  1  0
 15 14  2  0
 17 16  1  0
 17 18  2  0
 19 20  1  0
 19 17  1  0
 21 20  1  1
 21 23  1  0
 21 22  1  0
 22 14  1  0
 23 24  1  0
 25 23  2  0
M  END
$$$$
