VLQ.pdb
     RDKit          3D

 25 24  0  0  1  0  0  0  0  0999 V2000
   28.1027  -17.9314  -15.6119 C   0  0  0  0  0  0  0  0  0  0  0  0
   26.9813  -18.7192  -14.9790 C   0  0  1  0  0  0  0  0  0  0  0  0
   25.9247  -19.1093  -15.9606 C   0  0  0  0  0  0  0  0  0  0  0  0
   27.5570  -19.8856  -14.2282 C   0  0  2  0  0  0  0  0  0  0  0  0
   28.2105  -20.8157  -15.1007 N   0  0  0  0  0  0  0  0  0  0  0  0
   26.4752  -20.5331  -13.4261 C   0  0  0  0  0  0  0  0  0  0  0  0
   25.9824  -21.6151  -13.7994 O   0  0  0  0  0  0  0  0  0  0  0  0
   26.4985  -19.6503   -8.0169 C   0  0  0  0  0  0  0  0  0  0  0  0
   26.4760  -20.3909   -9.3893 C   0  0  1  0  0  0  0  0  0  0  0  0
   26.7674  -21.8450   -9.0222 C   0  0  0  0  0  0  0  0  0  0  0  0
   25.1581  -20.1587  -10.0173 C   0  0  0  0  0  0  0  0  0  0  0  0
   24.9678  -20.6716  -11.3816 C   0  0  2  0  0  0  0  0  0  0  0  0
   25.9947  -19.9405  -12.2440 N   0  0  0  0  0  0  0  0  0  0  0  0
   23.7124  -20.3580  -12.0427 C   0  0  0  0  0  0  0  0  0  0  0  0
   23.6795  -19.3027  -12.7883 O   0  0  0  0  0  0  0  0  0  0  0  0
   20.6027  -19.3715  -16.5509 N   0  0  0  0  0  0  0  0  0  0  0  0
   21.4340  -20.5090  -16.4042 C   0  0  0  0  0  0  0  0  0  0  0  0
   22.4834  -20.6670  -17.0356 O   0  0  0  0  0  0  0  0  0  0  0  0
   21.0111  -21.5868  -15.4202 C   0  0  0  0  0  0  0  0  0  0  0  0
   22.0118  -21.6843  -14.3104 C   0  0  0  0  0  0  0  0  0  0  0  0
   21.5001  -20.9770  -13.0809 C   0  0  2  0  0  0  0  0  0  0  0  0
   22.4833  -21.0561  -12.0103 N   0  0  0  0  0  0  0  0  0  0  0  0
   20.1588  -21.3940  -12.7525 C   0  0  0  0  0  0  0  0  0  0  0  0
   18.9845  -21.0395  -13.4005 O   0  0  0  0  0  0  0  0  0  0  0  0
   19.9851  -22.1802  -11.7532 O   0  0  0  0  0  0  0  0  0  0  0  0
  2  1  1  6
  2  3  1  0
  4  2  1  0
  4  5  1  6
  6  4  1  0
  6  7  2  0
  9 11  1  0
  9  8  1  1
 10  9  1  0
 12 11  1  1
 12 13  1  0
 13  6  1  0
 14 12  1  0
 15 14  2  0
 17 16  1  0
 17 18  2  0
 19 20  1  0
 19 17  1  0
 21 20  1  6
 21 23  1  0
 21 22  1  0
 22 14  1  0
 23 24  1  0
 25 23  2  0
M  END
$$$$
