VLQ.pdb
     RDKit          3D

 25 24  0  0  1  0  0  0  0  0999 V2000
   25.8197  -36.2694   -2.6186 C   0  0  0  0  0  0  0  0  0  0  0  0
   25.9584  -35.1073   -3.5720 C   0  0  1  0  0  0  0  0  0  0  0  0
   25.5113  -35.4414   -4.9578 C   0  0  0  0  0  0  0  0  0  0  0  0
   25.2640  -33.9071   -2.9950 C   0  0  2  0  0  0  0  0  0  0  0  0
   25.2707  -32.7963   -3.9002 N   0  0  0  0  0  0  0  0  0  0  0  0
   25.8891  -33.5649   -1.6815 C   0  0  0  0  0  0  0  0  0  0  0  0
   26.9300  -32.8807   -1.6438 O   0  0  0  0  0  0  0  0  0  0  0  0
   23.6869  -30.8057    2.4179 C   0  0  0  0  0  0  0  0  0  0  0  0
   24.9265  -31.3441    1.6394 C   0  0  1  0  0  0  0  0  0  0  0  0
   26.1149  -30.8560    2.4661 C   0  0  0  0  0  0  0  0  0  0  0  0
   24.8024  -32.8133    1.5336 C   0  0  0  0  0  0  0  0  0  0  0  0
   25.8959  -33.5302    0.8621 C   0  0  2  0  0  0  0  0  0  0  0  0
   25.3211  -34.0036   -0.4714 N   0  0  0  0  0  0  0  0  0  0  0  0
   26.3550  -34.7672    1.4708 C   0  0  0  0  0  0  0  0  0  0  0  0
   25.5132  -35.7458    1.5381 O   0  0  0  0  0  0  0  0  0  0  0  0
   28.7984  -38.1709   -0.6511 N   0  0  0  0  0  0  0  0  0  0  0  0
   29.6590  -38.0133    0.4630 C   0  0  0  0  0  0  0  0  0  0  0  0
   30.3184  -38.9390    0.9458 O   0  0  0  0  0  0  0  0  0  0  0  0
   29.7744  -36.6356    1.0935 C   0  0  0  0  0  0  0  0  0  0  0  0
   29.3650  -36.6982    2.5326 C   0  0  0  0  0  0  0  0  0  0  0  0
   27.9058  -36.3467    2.6772 C   0  0  2  0  0  0  0  0  0  0  0  0
   27.6241  -35.0859    2.0062 N   0  0  0  0  0  0  0  0  0  0  0  0
   27.4705  -36.4552    4.0482 C   0  0  0  0  0  0  0  0  0  0  0  0
   27.6400  -37.5351    4.9023 O   0  0  0  0  0  0  0  0  0  0  0  0
   26.8495  -35.4649    4.5779 O   0  0  0  0  0  0  0  0  0  0  0  0
  2  1  1  1
  2  3  1  0
  4  2  1  0
  4  5  1  6
  6  4  1  0
  6  7  2  0
  9 11  1  0
  9  8  1  1
 10  9  1  0
 12 11  1  1
 12 13  1  0
 13  6  1  0
 14 12  1  0
 15 14  2  0
 17 16  1  0
 17 18  2  0
 19 20  1  0
 19 17  1  0
 21 20  1  1
 21 23  1  0
 21 22  1  0
 22 14  1  0
 23 24  1  0
 25 23  2  0
M  END
$$$$
