VLQ.pdb
     RDKit          3D

 25 24  0  0  1  0  0  0  0  0999 V2000
   18.3182  -12.2175  -21.0639 C   0  0  0  0  0  0  0  0  0  0  0  0
   18.6877  -11.5966  -19.7385 C   0  0  1  0  0  0  0  0  0  0  0  0
   17.5506  -10.8589  -19.1100 C   0  0  0  0  0  0  0  0  0  0  0  0
   19.2811  -12.6489  -18.8463 C   0  0  2  0  0  0  0  0  0  0  0  0
   18.3575  -13.7124  -18.5828 N   0  0  0  0  0  0  0  0  0  0  0  0
   19.7699  -12.0055  -17.5892 C   0  0  0  0  0  0  0  0  0  0  0  0
   19.0608  -12.0165  -16.5646 O   0  0  0  0  0  0  0  0  0  0  0  0
   24.7209  -12.7786  -15.6591 C   0  0  0  0  0  0  0  0  0  0  0  0
   23.1836  -12.5223  -15.6000 C   0  0  1  0  0  0  0  0  0  0  0  0
   22.8340  -12.7475  -14.1300 C   0  0  0  0  0  0  0  0  0  0  0  0
   22.9242  -11.1556  -16.1000 C   0  0  0  0  0  0  0  0  0  0  0  0
   21.5182  -10.7485  -16.2348 C   0  0  2  0  0  0  0  0  0  0  0  0
   21.0290  -11.3798  -17.5366 N   0  0  0  0  0  0  0  0  0  0  0  0
   21.2502   -9.3356  -16.4429 C   0  0  0  0  0  0  0  0  0  0  0  0
   21.7010   -8.7977  -17.5283 O   0  0  0  0  0  0  0  0  0  0  0  0
   16.2370   -7.6603  -16.9276 N   0  0  0  0  0  0  0  0  0  0  0  0
   16.7442   -6.3909  -16.5562 C   0  0  0  0  0  0  0  0  0  0  0  0
   16.0440   -5.4975  -16.0701 O   0  0  0  0  0  0  0  0  0  0  0  0
   18.2240   -6.1177  -16.7675 C   0  0  0  0  0  0  0  0  0  0  0  0
   18.9987   -6.5482  -15.5604 C   0  0  0  0  0  0  0  0  0  0  0  0
   20.3728   -7.0216  -15.9621 C   0  0  2  0  0  0  0  0  0  0  0  0
   20.5377   -8.4283  -15.6255 N   0  0  0  0  0  0  0  0  0  0  0  0
   21.3988   -6.1243  -15.4898 C   0  0  0  0  0  0  0  0  0  0  0  0
   22.4483   -6.4220  -14.6328 O   0  0  0  0  0  0  0  0  0  0  0  0
   21.3753   -4.9017  -15.8790 O   0  0  0  0  0  0  0  0  0  0  0  0
  2  1  1  6
  2  3  1  0
  4  2  1  0
  4  5  1  1
  6  4  1  0
  6  7  2  0
  9 11  1  0
  9  8  1  1
 10  9  1  0
 12 11  1  6
 12 13  1  0
 13  6  1  0
 14 12  1  0
 15 14  2  0
 17 16  1  0
 17 18  2  0
 19 20  1  0
 19 17  1  0
 21 20  1  1
 21 23  1  0
 21 22  1  0
 22 14  1  0
 23 24  1  0
 25 23  2  0
M  END
$$$$
