VLQ.pdb
     RDKit          3D

 25 24  0  0  1  0  0  0  0  0999 V2000
   20.5526  -12.2778  -19.3233 C   0  0  0  0  0  0  0  0  0  0  0  0
   20.3541  -13.6376  -18.6986 C   0  0  1  0  0  0  0  0  0  0  0  0
   19.6377  -14.5882  -19.6015 C   0  0  0  0  0  0  0  0  0  0  0  0
   21.6767  -14.1583  -18.2138 C   0  0  2  0  0  0  0  0  0  0  0  0
   21.5711  -15.4885  -17.6915 N   0  0  0  0  0  0  0  0  0  0  0  0
   22.2400  -13.2044  -17.2108 C   0  0  0  0  0  0  0  0  0  0  0  0
   21.7944  -13.1853  -16.0472 O   0  0  0  0  0  0  0  0  0  0  0  0
   26.3268  -10.5967  -14.7585 C   0  0  0  0  0  0  0  0  0  0  0  0
   26.0537  -10.1474  -16.2269 C   0  0  1  0  0  0  0  0  0  0  0  0
   27.4488   -9.8889  -16.7932 C   0  0  0  0  0  0  0  0  0  0  0  0
   25.2951  -11.2204  -16.9040 C   0  0  0  0  0  0  0  0  0  0  0  0
   23.8970  -11.4127  -16.4930 C   0  0  2  0  0  0  0  0  0  0  0  0
   23.2752  -12.3162  -17.5558 N   0  0  0  0  0  0  0  0  0  0  0  0
   23.0293  -10.2473  -16.5152 C   0  0  0  0  0  0  0  0  0  0  0  0
   22.7923   -9.7032  -17.6634 O   0  0  0  0  0  0  0  0  0  0  0  0
   18.0689   -8.7393  -13.1867 N   0  0  0  0  0  0  0  0  0  0  0  0
   18.1260   -7.6100  -14.0401 C   0  0  0  0  0  0  0  0  0  0  0  0
   17.2336   -6.7584  -14.0972 O   0  0  0  0  0  0  0  0  0  0  0  0
   19.3472   -7.4408  -14.9283 C   0  0  0  0  0  0  0  0  0  0  0  0
   20.3296   -8.5383  -14.6580 C   0  0  0  0  0  0  0  0  0  0  0  0
   21.4751   -8.4678  -15.6360 C   0  0  2  0  0  0  0  0  0  0  0  0
   22.3688   -9.6009  -15.4451 N   0  0  0  0  0  0  0  0  0  0  0  0
   22.0867   -7.1613  -15.6385 C   0  0  0  0  0  0  0  0  0  0  0  0
   21.7672   -6.0837  -16.4516 O   0  0  0  0  0  0  0  0  0  0  0  0
   23.0407   -6.9259  -14.8130 O   0  0  0  0  0  0  0  0  0  0  0  0
  2  1  1  6
  2  3  1  0
  4  2  1  0
  4  5  1  1
  6  4  1  0
  6  7  2  0
  9 11  1  0
  9  8  1  1
 10  9  1  0
 12 11  1  6
 12 13  1  0
 13  6  1  0
 14 12  1  0
 15 14  2  0
 17 16  1  0
 17 18  2  0
 19 20  1  0
 19 17  1  0
 21 20  1  1
 21 23  1  0
 21 22  1  0
 22 14  1  0
 23 24  1  0
 25 23  2  0
M  END
$$$$
