VLQ.pdb
     RDKit          3D

 25 24  0  0  1  0  0  0  0  0999 V2000
   18.2491  -10.1223  -19.3731 C   0  0  0  0  0  0  0  0  0  0  0  0
   17.7140  -11.3033  -18.6001 C   0  0  1  0  0  0  0  0  0  0  0  0
   17.1747  -12.3773  -19.4877 C   0  0  0  0  0  0  0  0  0  0  0  0
   18.7677  -11.7908  -17.6475 C   0  0  2  0  0  0  0  0  0  0  0  0
   18.3361  -12.9435  -16.9137 N   0  0  0  0  0  0  0  0  0  0  0  0
   19.1685  -10.6688  -16.7455 C   0  0  0  0  0  0  0  0  0  0  0  0
   18.3756  -10.2473  -15.8815 O   0  0  0  0  0  0  0  0  0  0  0  0
   24.0945  -10.3411  -14.3953 C   0  0  0  0  0  0  0  0  0  0  0  0
   22.5500  -10.1355  -14.4656 C   0  0  1  0  0  0  0  0  0  0  0  0
   22.1888   -9.6170  -13.0747 C   0  0  0  0  0  0  0  0  0  0  0  0
   22.2589   -9.2016  -15.5739 C   0  0  0  0  0  0  0  0  0  0  0  0
   20.8440   -8.9573  -15.8883 C   0  0  2  0  0  0  0  0  0  0  0  0
   20.4374  -10.0703  -16.8519 N   0  0  0  0  0  0  0  0  0  0  0  0
   20.5255   -7.7530  -16.6365 C   0  0  0  0  0  0  0  0  0  0  0  0
   20.7978   -7.7476  -17.9000 O   0  0  0  0  0  0  0  0  0  0  0  0
   18.3929   -6.0941  -20.2821 N   0  0  0  0  0  0  0  0  0  0  0  0
   18.1551   -4.7231  -20.0161 C   0  0  0  0  0  0  0  0  0  0  0  0
   17.9537   -3.8864  -20.9016 O   0  0  0  0  0  0  0  0  0  0  0  0
   18.1483   -4.2621  -18.5683 C   0  0  0  0  0  0  0  0  0  0  0  0
   18.3497   -5.4351  -17.6593 C   0  0  0  0  0  0  0  0  0  0  0  0
   19.7306   -5.3975  -17.0549 C   0  0  2  0  0  0  0  0  0  0  0  0
   19.9313   -6.5505  -16.1892 N   0  0  0  0  0  0  0  0  0  0  0  0
   20.0202   -4.1061  -16.4812 C   0  0  0  0  0  0  0  0  0  0  0  0
   20.4031   -2.9536  -17.1519 O   0  0  0  0  0  0  0  0  0  0  0  0
   19.9287   -3.9622  -15.2093 O   0  0  0  0  0  0  0  0  0  0  0  0
  2  1  1  6
  2  3  1  0
  4  2  1  0
  4  5  1  1
  6  4  1  0
  6  7  2  0
  9 11  1  0
  9  8  1  1
 10  9  1  0
 12 11  1  6
 12 13  1  0
 13  6  1  0
 14 12  1  0
 15 14  2  0
 17 16  1  0
 17 18  2  0
 19 20  1  0
 19 17  1  0
 21 20  1  1
 21 23  1  0
 21 22  1  0
 22 14  1  0
 23 24  1  0
 25 23  2  0
M  END
$$$$
