VLQ.pdb
     RDKit          3D

 25 24  0  0  1  0  0  0  0  0999 V2000
   29.0816  -21.0293  -17.5755 C   0  0  0  0  0  0  0  0  0  0  0  0
   28.3302  -21.5890  -16.3919 C   0  0  1  0  0  0  0  0  0  0  0  0
   29.2269  -21.9218  -15.2442 C   0  0  0  0  0  0  0  0  0  0  0  0
   27.2151  -20.6524  -16.0247 C   0  0  2  0  0  0  0  0  0  0  0  0
   27.6985  -19.3424  -15.7027 N   0  0  0  0  0  0  0  0  0  0  0  0
   26.4232  -21.2492  -14.9068 C   0  0  0  0  0  0  0  0  0  0  0  0
   25.8624  -22.3518  -15.0570 O   0  0  0  0  0  0  0  0  0  0  0  0
   26.3679  -20.5735   -8.8508 C   0  0  0  0  0  0  0  0  0  0  0  0
   25.5239  -21.1708  -10.0184 C   0  0  1  0  0  0  0  0  0  0  0  0
   24.1117  -20.6553   -9.7467 C   0  0  0  0  0  0  0  0  0  0  0  0
   26.1175  -20.7191  -11.2947 C   0  0  0  0  0  0  0  0  0  0  0  0
   25.5108  -21.2300  -12.5323 C   0  0  2  0  0  0  0  0  0  0  0  0
   26.2953  -20.5851  -13.6730 N   0  0  0  0  0  0  0  0  0  0  0  0
   24.1430  -20.8315  -12.8182 C   0  0  0  0  0  0  0  0  0  0  0  0
   23.9208  -19.5761  -13.0310 O   0  0  0  0  0  0  0  0  0  0  0  0
   19.5043  -23.7228  -15.7434 N   0  0  0  0  0  0  0  0  0  0  0  0
   18.9154  -22.4527  -15.5274 C   0  0  0  0  0  0  0  0  0  0  0  0
   17.8232  -22.1233  -16.0001 O   0  0  0  0  0  0  0  0  0  0  0  0
   19.6673  -21.4475  -14.6712 C   0  0  0  0  0  0  0  0  0  0  0  0
   20.9847  -22.0218  -14.2502 C   0  0  0  0  0  0  0  0  0  0  0  0
   21.6803  -21.0880  -13.2922 C   0  0  2  0  0  0  0  0  0  0  0  0
   22.9793  -21.6283  -12.9184 N   0  0  0  0  0  0  0  0  0  0  0  0
   20.8107  -20.7003  -12.2085 C   0  0  0  0  0  0  0  0  0  0  0  0
   19.8714  -19.6794  -12.2069 O   0  0  0  0  0  0  0  0  0  0  0  0
   20.8819  -21.3440  -11.1006 O   0  0  0  0  0  0  0  0  0  0  0  0
  2  1  1  6
  2  3  1  0
  4  2  1  0
  4  5  1  1
  6  4  1  0
  6  7  2  0
  9 11  1  0
  9  8  1  1
 10  9  1  0
 12 11  1  1
 12 13  1  0
 13  6  1  0
 14 12  1  0
 15 14  2  0
 17 16  1  0
 17 18  2  0
 19 20  1  0
 19 17  1  0
 21 20  1  1
 21 23  1  0
 21 22  1  0
 22 14  1  0
 23 24  1  0
 25 23  2  0
M  END
$$$$
