VLQ.pdb
     RDKit          3D

 25 24  0  0  1  0  0  0  0  0999 V2000
   19.9199  -15.6559  -19.1927 C   0  0  0  0  0  0  0  0  0  0  0  0
   20.7486  -14.9179  -18.1693 C   0  0  1  0  0  0  0  0  0  0  0  0
   22.0875  -15.5438  -17.9512 C   0  0  0  0  0  0  0  0  0  0  0  0
   20.8238  -13.4660  -18.5460 C   0  0  2  0  0  0  0  0  0  0  0  0
   21.5025  -13.2694  -19.7926 N   0  0  0  0  0  0  0  0  0  0  0  0
   21.4647  -12.7042  -17.4316 C   0  0  0  0  0  0  0  0  0  0  0  0
   20.9546  -12.7118  -16.2946 O   0  0  0  0  0  0  0  0  0  0  0  0
   25.7360  -10.9578  -14.5537 C   0  0  0  0  0  0  0  0  0  0  0  0
   25.5733  -10.2909  -15.9542 C   0  0  1  0  0  0  0  0  0  0  0  0
   27.0102  -10.1190  -16.4438 C   0  0  0  0  0  0  0  0  0  0  0  0
   24.7314  -11.1729  -16.7901 C   0  0  0  0  0  0  0  0  0  0  0  0
   23.2946  -11.2137  -16.4823 C   0  0  2  0  0  0  0  0  0  0  0  0
   22.6461  -11.9692  -17.6405 N   0  0  0  0  0  0  0  0  0  0  0  0
   22.5767   -9.9503  -16.4815 C   0  0  0  0  0  0  0  0  0  0  0  0
   22.5869   -9.2591  -17.5736 O   0  0  0  0  0  0  0  0  0  0  0  0
   16.9087   -5.8599  -16.8623 N   0  0  0  0  0  0  0  0  0  0  0  0
   17.6994   -7.0224  -16.6890 C   0  0  0  0  0  0  0  0  0  0  0  0
   17.2811   -8.1643  -16.9037 O   0  0  0  0  0  0  0  0  0  0  0  0
   19.1333   -6.8531  -16.2154 C   0  0  0  0  0  0  0  0  0  0  0  0
   19.7719   -8.1956  -16.0351 C   0  0  0  0  0  0  0  0  0  0  0  0
   21.2016   -8.0382  -15.5825 C   0  0  2  0  0  0  0  0  0  0  0  0
   21.8312   -9.3435  -15.4447 N   0  0  0  0  0  0  0  0  0  0  0  0
   21.3010   -7.1546  -14.4466 C   0  0  0  0  0  0  0  0  0  0  0  0
   21.7270   -7.4749  -13.1658 O   0  0  0  0  0  0  0  0  0  0  0  0
   20.9651   -5.9246  -14.5913 O   0  0  0  0  0  0  0  0  0  0  0  0
  2  1  1  6
  2  3  1  0
  4  2  1  0
  4  5  1  6
  6  4  1  0
  6  7  2  0
  9 11  1  0
  9  8  1  1
 10  9  1  0
 12 11  1  6
 12 13  1  0
 13  6  1  0
 14 12  1  0
 15 14  2  0
 17 16  1  0
 17 18  2  0
 19 20  1  0
 19 17  1  0
 21 20  1  1
 21 23  1  0
 21 22  1  0
 22 14  1  0
 23 24  1  0
 25 23  2  0
M  END
$$$$
