VLQ.pdb
     RDKit          3D

 25 24  0  0  1  0  0  0  0  0999 V2000
   25.2194  -20.6587  -15.5593 C   0  0  0  0  0  0  0  0  0  0  0  0
   25.5584  -21.0643  -14.1454 C   0  0  1  0  0  0  0  0  0  0  0  0
   26.9629  -20.7225  -13.7680 C   0  0  0  0  0  0  0  0  0  0  0  0
   24.5337  -20.4941  -13.2070 C   0  0  2  0  0  0  0  0  0  0  0  0
   24.4731  -19.0645  -13.2828 N   0  0  0  0  0  0  0  0  0  0  0  0
   24.8213  -20.9712  -11.8203 C   0  0  0  0  0  0  0  0  0  0  0  0
   24.8517  -22.1921  -11.5728 O   0  0  0  0  0  0  0  0  0  0  0  0
   27.5715  -20.9800   -7.2358 C   0  0  0  0  0  0  0  0  0  0  0  0
   26.5791  -19.7801   -7.3249 C   0  0  1  0  0  0  0  0  0  0  0  0
   27.3455  -18.6260   -6.6811 C   0  0  0  0  0  0  0  0  0  0  0  0
   26.2261  -19.5779   -8.7461 C   0  0  0  0  0  0  0  0  0  0  0  0
   25.3326  -20.5700   -9.3608 C   0  0  2  0  0  0  0  0  0  0  0  0
   25.0615  -20.0606  -10.7750 N   0  0  0  0  0  0  0  0  0  0  0  0
   23.9963  -20.6989   -8.8047 C   0  0  0  0  0  0  0  0  0  0  0  0
   23.2079  -19.6798   -8.9073 O   0  0  0  0  0  0  0  0  0  0  0  0
   17.9298  -24.2339   -7.7803 N   0  0  0  0  0  0  0  0  0  0  0  0
   18.7321  -23.2771   -8.4493 C   0  0  0  0  0  0  0  0  0  0  0  0
   18.6481  -23.0507   -9.6604 O   0  0  0  0  0  0  0  0  0  0  0  0
   19.7455  -22.4918   -7.6339 C   0  0  0  0  0  0  0  0  0  0  0  0
   21.0913  -22.5655   -8.2866 C   0  0  0  0  0  0  0  0  0  0  0  0
   22.0904  -21.7354   -7.5208 C   0  0  2  0  0  0  0  0  0  0  0  0
   23.3963  -21.8051   -8.1602 N   0  0  0  0  0  0  0  0  0  0  0  0
   22.0503  -22.0312   -6.1095 C   0  0  0  0  0  0  0  0  0  0  0  0
   21.0362  -21.7251   -5.2137 O   0  0  0  0  0  0  0  0  0  0  0  0
   23.0458  -22.6436   -5.5796 O   0  0  0  0  0  0  0  0  0  0  0  0
  2  1  1  6
  2  3  1  0
  4  2  1  0
  4  5  1  1
  6  4  1  0
  6  7  2  0
  9 11  1  0
  9  8  1  6
 10  9  1  0
 12 11  1  1
 12 13  1  0
 13  6  1  0
 14 12  1  0
 15 14  2  0
 17 16  1  0
 17 18  2  0
 19 20  1  0
 19 17  1  0
 21 20  1  6
 21 23  1  0
 21 22  1  0
 22 14  1  0
 23 24  1  0
 25 23  2  0
M  END
$$$$
