VLQ.pdb
     RDKit          3D

 25 24  0  0  1  0  0  0  0  0999 V2000
   20.0565  -20.0896  -17.7519 C   0  0  0  0  0  0  0  0  0  0  0  0
   20.5449  -18.7870  -17.1658 C   0  0  1  0  0  0  0  0  0  0  0  0
   19.4642  -18.0269  -16.4684 C   0  0  0  0  0  0  0  0  0  0  0  0
   21.7422  -19.0516  -16.2985 C   0  0  2  0  0  0  0  0  0  0  0  0
   21.4221  -19.8933  -15.1839 N   0  0  0  0  0  0  0  0  0  0  0  0
   22.3311  -17.7478  -15.8667 C   0  0  0  0  0  0  0  0  0  0  0  0
   22.0672  -17.2851  -14.7402 O   0  0  0  0  0  0  0  0  0  0  0  0
   27.5970  -16.2971  -16.2314 C   0  0  0  0  0  0  0  0  0  0  0  0
   26.1770  -16.2349  -15.5892 C   0  0  1  0  0  0  0  0  0  0  0  0
   26.3540  -15.2830  -14.4076 C   0  0  0  0  0  0  0  0  0  0  0  0
   25.2236  -15.7764  -16.6217 C   0  0  0  0  0  0  0  0  0  0  0  0
   23.8058  -15.7088  -16.2397 C   0  0  2  0  0  0  0  0  0  0  0  0
   23.1876  -17.0222  -16.7148 N   0  0  0  0  0  0  0  0  0  0  0  0
   22.9838  -14.7097  -16.9013 C   0  0  0  0  0  0  0  0  0  0  0  0
   22.6560  -14.9287  -18.1323 O   0  0  0  0  0  0  0  0  0  0  0  0
   18.5062  -10.8960  -14.9649 N   0  0  0  0  0  0  0  0  0  0  0  0
   18.2227  -12.1312  -15.5977 C   0  0  0  0  0  0  0  0  0  0  0  0
   17.1309  -12.7017  -15.5113 O   0  0  0  0  0  0  0  0  0  0  0  0
   19.3185  -12.7846  -16.4231 C   0  0  0  0  0  0  0  0  0  0  0  0
   20.5712  -11.9678  -16.3441 C   0  0  0  0  0  0  0  0  0  0  0  0
   21.6541  -12.5876  -17.1907 C   0  0  2  0  0  0  0  0  0  0  0  0
   22.4558  -13.5018  -16.3903 N   0  0  0  0  0  0  0  0  0  0  0  0
   22.3761  -11.5875  -17.9386 C   0  0  0  0  0  0  0  0  0  0  0  0
   22.0036  -11.0030  -19.1403 O   0  0  0  0  0  0  0  0  0  0  0  0
   23.4965  -11.1633  -17.4785 O   0  0  0  0  0  0  0  0  0  0  0  0
  2  1  1  1
  2  3  1  0
  4  2  1  0
  4  5  1  1
  6  4  1  0
  6  7  2  0
  9 11  1  0
  9  8  1  6
 10  9  1  0
 12 11  1  6
 12 13  1  0
 13  6  1  0
 14 12  1  0
 15 14  2  0
 17 16  1  0
 17 18  2  0
 19 20  1  0
 19 17  1  0
 21 20  1  1
 21 23  1  0
 21 22  1  0
 22 14  1  0
 23 24  1  0
 25 23  2  0
M  END
$$$$
