HLG.pdb
     RDKit          3D

 23 23  0  0  1  0  0  0  0  0999 V2000
    7.4660  -16.0686   21.3912 N   0  0  0  0  0  0  0  0  0  0  0  0
    8.2434  -14.8498   21.3271 C   0  0  1  0  0  0  0  0  0  0  0  0
    7.5079  -13.8659   20.4678 C   0  0  0  0  0  0  0  0  0  0  0  0
    7.9309  -14.0956   19.0605 C   0  0  0  0  0  0  0  0  0  0  0  0
    8.8197  -15.0421   18.5974 C   0  0  0  0  0  0  0  0  0  0  0  0
    8.9418  -14.9335   17.2512 N   0  0  0  0  0  0  0  0  0  0  0  0
    8.1364  -13.9266   16.8683 C   0  0  0  0  0  0  0  0  0  0  0  0
    7.5244  -13.4198   17.9662 N   0  0  0  0  0  0  0  0  0  0  0  0
    8.5371  -14.3175   22.6855 C   0  0  0  0  0  0  0  0  0  0  0  0
    9.2616  -13.3041   22.8561 O   0  0  0  0  0  0  0  0  0  0  0  0
    7.4432  -11.5196   25.9960 C   0  0  0  0  0  0  0  0  0  0  0  0
    6.5429  -12.6753   25.7241 C   0  0  2  0  0  0  0  0  0  0  0  0
    5.3255  -12.5231   26.6526 C   0  0  0  0  0  0  0  0  0  0  0  0
    7.0955  -14.0241   25.9886 C   0  0  0  0  0  0  0  0  0  0  0  0
    8.2518  -14.4786   25.1837 C   0  0  2  0  0  0  0  0  0  0  0  0
    8.0089  -14.9337   23.8629 N   0  0  0  0  0  0  0  0  0  0  0  0
    9.0498  -15.4548   25.9501 C   0  0  0  0  0  0  0  0  0  0  0  0
    9.3365  -15.3353   27.1598 O   0  0  0  0  0  0  0  0  0  0  0  0
    9.5311  -16.6132   25.2801 N   0  0  0  0  0  0  0  0  0  0  0  0
   10.7140  -17.3116   25.7448 C   0  0  0  0  0  0  0  0  0  0  0  0
   10.3799  -18.6358   26.2976 C   0  0  0  0  0  0  0  0  0  0  0  0
   11.4214  -19.4953   26.6159 O   0  0  0  0  0  0  0  0  0  0  0  0
    9.1715  -18.9340   26.4584 O   0  0  0  0  0  0  0  0  0  0  0  0
  2  3  1  0
  2  9  1  0
  2  1  1  1
  4  5  2  0
  4  3  1  0
  6  5  1  0
  7  8  2  0
  7  6  1  0
  8  4  1  0
  9 10  2  0
 12 11  1  1
 12 13  1  0
 14 12  1  0
 15 14  1  1
 15 17  1  0
 16 15  1  0
 16  9  1  0
 17 18  2  0
 19 17  1  0
 19 20  1  0
 21 20  1  0
 21 22  1  0
 23 21  2  0
M  END
$$$$
