HLG.pdb
     RDKit          3D

 23 23  0  0  1  0  0  0  0  0999 V2000
   10.7942  -15.7728   21.4122 N   0  0  0  0  0  0  0  0  0  0  0  0
    9.5512  -15.1052   21.7336 C   0  0  1  0  0  0  0  0  0  0  0  0
    8.4453  -15.7782   20.9777 C   0  0  0  0  0  0  0  0  0  0  0  0
    8.1137  -14.9199   19.8092 C   0  0  0  0  0  0  0  0  0  0  0  0
    8.7080  -13.7291   19.4497 C   0  0  0  0  0  0  0  0  0  0  0  0
    8.1257  -13.2504   18.3225 N   0  0  0  0  0  0  0  0  0  0  0  0
    7.1717  -14.1322   17.9738 C   0  0  0  0  0  0  0  0  0  0  0  0
    7.1658  -15.1435   18.8760 N   0  0  0  0  0  0  0  0  0  0  0  0
    9.3092  -15.0792   23.2018 C   0  0  0  0  0  0  0  0  0  0  0  0
   10.1394  -15.5557   24.0171 O   0  0  0  0  0  0  0  0  0  0  0  0
    5.4213  -12.1928   27.2830 C   0  0  0  0  0  0  0  0  0  0  0  0
    6.6342  -12.9862   26.9373 C   0  0  2  0  0  0  0  0  0  0  0  0
    7.8521  -12.1665   27.3979 C   0  0  0  0  0  0  0  0  0  0  0  0
    6.8520  -13.2742   25.5006 C   0  0  0  0  0  0  0  0  0  0  0  0
    7.9426  -14.2037   25.1290 C   0  0  2  0  0  0  0  0  0  0  0  0
    8.1199  -14.5107   23.7560 N   0  0  0  0  0  0  0  0  0  0  0  0
    7.8650  -15.4287   25.9477 C   0  0  0  0  0  0  0  0  0  0  0  0
    7.9174  -15.4464   27.1955 O   0  0  0  0  0  0  0  0  0  0  0  0
    7.7209  -16.6793   25.2860 N   0  0  0  0  0  0  0  0  0  0  0  0
    7.3139  -17.8684   26.0095 C   0  0  0  0  0  0  0  0  0  0  0  0
    8.4730  -18.5887   26.5648 C   0  0  0  0  0  0  0  0  0  0  0  0
    8.2368  -19.7310   27.3159 O   0  0  0  0  0  0  0  0  0  0  0  0
    9.6241  -18.1433   26.3380 O   0  0  0  0  0  0  0  0  0  0  0  0
  2  3  1  0
  2  9  1  0
  2  1  1  1
  4  5  2  0
  4  3  1  0
  6  5  1  0
  7  8  2  0
  7  6  1  0
  8  4  1  0
  9 10  2  0
 12 11  1  6
 12 13  1  0
 14 12  1  0
 15 14  1  6
 15 17  1  0
 16 15  1  0
 16  9  1  0
 17 18  2  0
 19 17  1  0
 19 20  1  0
 21 20  1  0
 21 22  1  0
 23 21  2  0
M  END
$$$$
