HLG.pdb
     RDKit          3D

 23 23  0  0  1  0  0  0  0  0999 V2000
   10.2892  -14.9800   21.5182 N   0  0  0  0  0  0  0  0  0  0  0  0
    8.9421  -14.6592   21.9380 C   0  0  1  0  0  0  0  0  0  0  0  0
    7.9857  -15.2537   20.9484 C   0  0  0  0  0  0  0  0  0  0  0  0
    8.1183  -14.4874   19.6806 C   0  0  0  0  0  0  0  0  0  0  0  0
    8.9453  -13.4124   19.4348 C   0  0  0  0  0  0  0  0  0  0  0  0
    8.7769  -12.9896   18.1574 N   0  0  0  0  0  0  0  0  0  0  0  0
    7.8510  -13.7916   17.6019 C   0  0  0  0  0  0  0  0  0  0  0  0
    7.4528  -14.6989   18.5265 N   0  0  0  0  0  0  0  0  0  0  0  0
    8.6817  -15.1132   23.3311 C   0  0  0  0  0  0  0  0  0  0  0  0
    9.3990  -15.9828   23.8880 O   0  0  0  0  0  0  0  0  0  0  0  0
    7.8868  -12.0887   27.0275 C   0  0  0  0  0  0  0  0  0  0  0  0
    6.7231  -12.5595   26.2247 C   0  0  2  0  0  0  0  0  0  0  0  0
    5.4704  -11.8903   26.8164 C   0  0  0  0  0  0  0  0  0  0  0  0
    6.4549  -14.0164   26.2355 C   0  0  0  0  0  0  0  0  0  0  0  0
    7.3558  -14.9013   25.4631 C   0  0  2  0  0  0  0  0  0  0  0  0
    7.6021  -14.5816   24.1038 N   0  0  0  0  0  0  0  0  0  0  0  0
    6.9381  -16.3081   25.6170 C   0  0  0  0  0  0  0  0  0  0  0  0
    5.8902  -16.7882   25.1360 O   0  0  0  0  0  0  0  0  0  0  0  0
    7.7739  -17.1870   26.3596 N   0  0  0  0  0  0  0  0  0  0  0  0
    7.4057  -18.5739   26.5692 C   0  0  0  0  0  0  0  0  0  0  0  0
    8.4183  -19.2896   27.3648 C   0  0  0  0  0  0  0  0  0  0  0  0
    8.1469  -20.5941   27.7511 O   0  0  0  0  0  0  0  0  0  0  0  0
    9.4827  -18.6942   27.6611 O   0  0  0  0  0  0  0  0  0  0  0  0
  2  3  1  0
  2  9  1  0
  2  1  1  6
  4  5  2  0
  4  3  1  0
  6  5  1  0
  7  8  2  0
  7  6  1  0
  8  4  1  0
  9 10  2  0
 12 11  1  1
 12 13  1  0
 14 12  1  0
 15 14  1  6
 15 17  1  0
 16 15  1  0
 16  9  1  0
 17 18  2  0
 19 17  1  0
 19 20  1  0
 21 20  1  0
 21 22  1  0
 23 21  2  0
M  END
$$$$
