HLG.pdb
     RDKit          3D

 23 23  0  0  1  0  0  0  0  0999 V2000
    7.4366  -15.1998   20.9795 N   0  0  0  0  0  0  0  0  0  0  0  0
    8.8017  -14.9371   21.3813 C   0  0  1  0  0  0  0  0  0  0  0  0
    9.3205  -13.7903   20.5671 C   0  0  0  0  0  0  0  0  0  0  0  0
    8.8620  -13.9909   19.1666 C   0  0  0  0  0  0  0  0  0  0  0  0
    7.8424  -13.3290   18.5166 C   0  0  0  0  0  0  0  0  0  0  0  0
    7.7312  -13.7953   17.2481 N   0  0  0  0  0  0  0  0  0  0  0  0
    8.6732  -14.7438   17.0993 C   0  0  0  0  0  0  0  0  0  0  0  0
    9.3577  -14.8611   18.2630 N   0  0  0  0  0  0  0  0  0  0  0  0
    8.9021  -14.6924   22.8459 C   0  0  0  0  0  0  0  0  0  0  0  0
    9.9976  -14.4121   23.3957 O   0  0  0  0  0  0  0  0  0  0  0  0
    5.3368  -12.1681   27.2383 C   0  0  0  0  0  0  0  0  0  0  0  0
    6.5732  -12.8847   26.8163 C   0  0  2  0  0  0  0  0  0  0  0  0
    7.7287  -11.8723   26.9004 C   0  0  0  0  0  0  0  0  0  0  0  0
    6.5929  -13.4171   25.4340 C   0  0  0  0  0  0  0  0  0  0  0  0
    7.7202  -14.2894   25.0343 C   0  0  2  0  0  0  0  0  0  0  0  0
    7.7564  -14.7643   23.6986 N   0  0  0  0  0  0  0  0  0  0  0  0
    7.8741  -15.3931   26.0013 C   0  0  0  0  0  0  0  0  0  0  0  0
    7.9360  -15.2412   27.2394 O   0  0  0  0  0  0  0  0  0  0  0  0
    7.9588  -16.7233   25.5052 N   0  0  0  0  0  0  0  0  0  0  0  0
    7.8583  -17.8637   26.3952 C   0  0  0  0  0  0  0  0  0  0  0  0
    9.1842  -18.3083   26.8590 C   0  0  0  0  0  0  0  0  0  0  0  0
    9.2472  -19.3914   27.7237 O   0  0  0  0  0  0  0  0  0  0  0  0
   10.2009  -17.6930   26.4557 O   0  0  0  0  0  0  0  0  0  0  0  0
  2  3  1  0
  2  9  1  0
  2  1  1  6
  4  5  2  0
  4  3  1  0
  6  5  1  0
  7  8  2  0
  7  6  1  0
  8  4  1  0
  9 10  2  0
 12 11  1  6
 12 13  1  0
 14 12  1  0
 15 14  1  1
 15 17  1  0
 16 15  1  0
 16  9  1  0
 17 18  2  0
 19 17  1  0
 19 20  1  0
 21 20  1  0
 21 22  1  0
 23 21  2  0
M  END
$$$$
