HLG.pdb
     RDKit          3D

 23 23  0  0  1  0  0  0  0  0999 V2000
    7.5538  -15.5779   21.2779 N   0  0  0  0  0  0  0  0  0  0  0  0
    8.5825  -14.5881   21.5147 C   0  0  1  0  0  0  0  0  0  0  0  0
    8.1968  -13.3273   20.8013 C   0  0  0  0  0  0  0  0  0  0  0  0
    8.2212  -13.6123   19.3419 C   0  0  0  0  0  0  0  0  0  0  0  0
    9.2295  -14.2194   18.6242 C   0  0  0  0  0  0  0  0  0  0  0  0
    8.8758  -14.2986   17.3175 N   0  0  0  0  0  0  0  0  0  0  0  0
    7.6541  -13.7459   17.2118 C   0  0  0  0  0  0  0  0  0  0  0  0
    7.2588  -13.3305   18.4397 N   0  0  0  0  0  0  0  0  0  0  0  0
    8.8119  -14.3766   22.9698 C   0  0  0  0  0  0  0  0  0  0  0  0
    9.7915  -13.7128   23.3950 O   0  0  0  0  0  0  0  0  0  0  0  0
    7.8249  -11.7247   26.4169 C   0  0  0  0  0  0  0  0  0  0  0  0
    6.7531  -12.6218   25.9005 C   0  0  2  0  0  0  0  0  0  0  0  0
    5.4672  -12.2726   26.6697 C   0  0  0  0  0  0  0  0  0  0  0  0
    6.9598  -14.0772   26.0843 C   0  0  0  0  0  0  0  0  0  0  0  0
    8.0712  -14.7259   25.3526 C   0  0  2  0  0  0  0  0  0  0  0  0
    7.9284  -14.9186   23.9550 N   0  0  0  0  0  0  0  0  0  0  0  0
    8.4616  -15.9770   26.0303 C   0  0  0  0  0  0  0  0  0  0  0  0
    8.4083  -16.1552   27.2654 O   0  0  0  0  0  0  0  0  0  0  0  0
    8.9317  -17.0602   25.2376 N   0  0  0  0  0  0  0  0  0  0  0  0
    9.2490  -18.3435   25.8335 C   0  0  0  0  0  0  0  0  0  0  0  0
   10.6227  -18.3698   26.3653 C   0  0  0  0  0  0  0  0  0  0  0  0
   11.3710  -17.2030   26.3070 O   0  0  0  0  0  0  0  0  0  0  0  0
   11.0612  -19.4419   26.8485 O   0  0  0  0  0  0  0  0  0  0  0  0
  2  3  1  0
  2  9  1  0
  2  1  1  1
  4  5  2  0
  4  3  1  0
  6  5  1  0
  7  8  2  0
  7  6  1  0
  8  4  1  0
  9 10  2  0
 12 11  1  1
 12 13  1  0
 14 12  1  0
 15 14  1  1
 15 17  1  0
 16 15  1  0
 16  9  1  0
 17 18  2  0
 19 17  1  0
 19 20  1  0
 21 20  1  0
 21 22  1  0
 23 21  2  0
M  END
$$$$
