HLG.pdb
     RDKit          3D

 23 23  0  0  1  0  0  0  0  0999 V2000
    7.8076  -16.7650   21.9285 N   0  0  0  0  0  0  0  0  0  0  0  0
    9.0308  -15.9942   21.9876 C   0  0  1  0  0  0  0  0  0  0  0  0
    9.0408  -15.0364   20.8344 C   0  0  0  0  0  0  0  0  0  0  0  0
    8.9640  -15.8387   19.5845 C   0  0  0  0  0  0  0  0  0  0  0  0
    9.4174  -17.1253   19.3863 C   0  0  0  0  0  0  0  0  0  0  0  0
    9.1635  -17.5074   18.1103 N   0  0  0  0  0  0  0  0  0  0  0  0
    8.5547  -16.4700   17.5083 C   0  0  0  0  0  0  0  0  0  0  0  0
    8.4345  -15.4594   18.4033 N   0  0  0  0  0  0  0  0  0  0  0  0
    9.1830  -15.3116   23.3013 C   0  0  0  0  0  0  0  0  0  0  0  0
   10.1456  -14.5376   23.5366 O   0  0  0  0  0  0  0  0  0  0  0  0
    7.8253  -11.8131   25.6209 C   0  0  0  0  0  0  0  0  0  0  0  0
    6.8447  -12.9333   25.5582 C   0  0  2  0  0  0  0  0  0  0  0  0
    5.5700  -12.4534   26.2737 C   0  0  0  0  0  0  0  0  0  0  0  0
    7.2378  -14.1977   26.2224 C   0  0  0  0  0  0  0  0  0  0  0  0
    8.3768  -14.9597   25.6623 C   0  0  2  0  0  0  0  0  0  0  0  0
    8.2408  -15.5035   24.3598 N   0  0  0  0  0  0  0  0  0  0  0  0
    8.8256  -15.9818   26.6272 C   0  0  0  0  0  0  0  0  0  0  0  0
    8.8900  -15.8047   27.8619 O   0  0  0  0  0  0  0  0  0  0  0  0
    9.2136  -17.2577   26.1331 N   0  0  0  0  0  0  0  0  0  0  0  0
    9.5730  -18.3342   27.0357 C   0  0  0  0  0  0  0  0  0  0  0  0
   10.9788  -18.2355   27.4652 C   0  0  0  0  0  0  0  0  0  0  0  0
   11.4770  -19.2170   28.3096 O   0  0  0  0  0  0  0  0  0  0  0  0
   11.6684  -17.2717   27.0524 O   0  0  0  0  0  0  0  0  0  0  0  0
  2  3  1  0
  2  9  1  0
  2  1  1  1
  4  5  2  0
  4  3  1  0
  6  5  1  0
  7  8  2  0
  7  6  1  0
  8  4  1  0
  9 10  2  0
 12 11  1  1
 12 13  1  0
 14 12  1  0
 15 14  1  1
 15 17  1  0
 16 15  1  0
 16  9  1  0
 17 18  2  0
 19 17  1  0
 19 20  1  0
 21 20  1  0
 21 22  1  0
 23 21  2  0
M  END
$$$$
