HLG.pdb
     RDKit          3D

 23 23  0  0  1  0  0  0  0  0999 V2000
    7.4527  -15.4191   21.4910 N   0  0  0  0  0  0  0  0  0  0  0  0
    8.7216  -14.8184   21.8416 C   0  0  1  0  0  0  0  0  0  0  0  0
    8.8413  -13.5119   21.1163 C   0  0  0  0  0  0  0  0  0  0  0  0
    8.5967  -13.7760   19.6733 C   0  0  0  0  0  0  0  0  0  0  0  0
    7.6164  -13.2253   18.8758 C   0  0  0  0  0  0  0  0  0  0  0  0
    7.7216  -13.7183   17.6170 N   0  0  0  0  0  0  0  0  0  0  0  0
    8.7601  -14.5732   17.6204 C   0  0  0  0  0  0  0  0  0  0  0  0
    9.2893  -14.6070   18.8675 N   0  0  0  0  0  0  0  0  0  0  0  0
    8.8674  -14.6716   23.3154 C   0  0  0  0  0  0  0  0  0  0  0  0
    9.9321  -14.2515   23.8358 O   0  0  0  0  0  0  0  0  0  0  0  0
    7.8862  -11.9375   26.7005 C   0  0  0  0  0  0  0  0  0  0  0  0
    6.7591  -12.7632   26.1826 C   0  0  2  0  0  0  0  0  0  0  0  0
    5.4947  -12.3205   26.9392 C   0  0  0  0  0  0  0  0  0  0  0  0
    6.8641  -14.2278   26.3791 C   0  0  0  0  0  0  0  0  0  0  0  0
    7.9036  -14.9640   25.6249 C   0  0  2  0  0  0  0  0  0  0  0  0
    7.8026  -15.0016   24.2110 N   0  0  0  0  0  0  0  0  0  0  0  0
    8.0744  -16.3174   26.1875 C   0  0  0  0  0  0  0  0  0  0  0  0
    7.9206  -16.6033   27.3935 O   0  0  0  0  0  0  0  0  0  0  0  0
    8.4381  -17.3761   25.3104 N   0  0  0  0  0  0  0  0  0  0  0  0
    8.5539  -18.7402   25.7885 C   0  0  0  0  0  0  0  0  0  0  0  0
    9.9080  -19.2782   25.5710 C   0  0  0  0  0  0  0  0  0  0  0  0
   10.0527  -20.3672   24.7236 O   0  0  0  0  0  0  0  0  0  0  0  0
   10.8742  -18.7331   26.1579 O   0  0  0  0  0  0  0  0  0  0  0  0
  2  3  1  0
  2  9  1  0
  2  1  1  1
  4  5  2  0
  4  3  1  0
  6  5  1  0
  7  8  2  0
  7  6  1  0
  8  4  1  0
  9 10  2  0
 12 11  1  1
 12 13  1  0
 14 12  1  0
 15 14  1  1
 15 17  1  0
 16 15  1  0
 16  9  1  0
 17 18  2  0
 19 17  1  0
 19 20  1  0
 21 20  1  0
 21 22  1  0
 23 21  2  0
M  END
$$$$
