HLG.pdb
     RDKit          3D

 23 23  0  0  1  0  0  0  0  0999 V2000
    7.5646  -15.1864   21.3988 N   0  0  0  0  0  0  0  0  0  0  0  0
    8.9461  -14.8246   21.6323 C   0  0  1  0  0  0  0  0  0  0  0  0
    9.2469  -13.5819   20.8497 C   0  0  0  0  0  0  0  0  0  0  0  0
    8.7711  -13.8024   19.4579 C   0  0  0  0  0  0  0  0  0  0  0  0
    7.6799  -13.2247   18.8448 C   0  0  0  0  0  0  0  0  0  0  0  0
    7.5770  -13.6806   17.5719 N   0  0  0  0  0  0  0  0  0  0  0  0
    8.5953  -14.5390   17.3835 C   0  0  0  0  0  0  0  0  0  0  0  0
    9.3181  -14.6116   18.5276 N   0  0  0  0  0  0  0  0  0  0  0  0
    9.2321  -14.6709   23.0847 C   0  0  0  0  0  0  0  0  0  0  0  0
   10.3686  -14.3320   23.5024 O   0  0  0  0  0  0  0  0  0  0  0  0
    7.7979  -11.6821   26.5277 C   0  0  0  0  0  0  0  0  0  0  0  0
    6.8366  -12.7059   26.0296 C   0  0  2  0  0  0  0  0  0  0  0  0
    5.5294  -12.5143   26.8183 C   0  0  0  0  0  0  0  0  0  0  0  0
    7.2231  -14.1242   26.2128 C   0  0  0  0  0  0  0  0  0  0  0  0
    8.3897  -14.6363   25.4590 C   0  0  2  0  0  0  0  0  0  0  0  0
    8.2272  -14.9016   24.0756 N   0  0  0  0  0  0  0  0  0  0  0  0
    8.9792  -15.7919   26.1620 C   0  0  0  0  0  0  0  0  0  0  0  0
    9.3508  -15.7763   27.3544 O   0  0  0  0  0  0  0  0  0  0  0  0
    9.1411  -17.0108   25.4474 N   0  0  0  0  0  0  0  0  0  0  0  0
    9.7133  -18.1823   26.0821 C   0  0  0  0  0  0  0  0  0  0  0  0
    8.7481  -18.8373   26.9822 C   0  0  0  0  0  0  0  0  0  0  0  0
    9.2174  -19.8152   27.8473 O   0  0  0  0  0  0  0  0  0  0  0  0
    7.5441  -18.4870   26.9320 O   0  0  0  0  0  0  0  0  0  0  0  0
  2  3  1  0
  2  9  1  0
  2  1  1  1
  4  5  2  0
  4  3  1  0
  6  5  1  0
  7  8  2  0
  7  6  1  0
  8  4  1  0
  9 10  2  0
 12 11  1  1
 12 13  1  0
 14 12  1  0
 15 14  1  1
 15 17  1  0
 16 15  1  0
 16  9  1  0
 17 18  2  0
 19 17  1  0
 19 20  1  0
 21 20  1  0
 21 22  1  0
 23 21  2  0
M  END
$$$$
