HLG.pdb
     RDKit          3D

 23 23  0  0  1  0  0  0  0  0999 V2000
    7.4680  -15.7566   21.3076 N   0  0  0  0  0  0  0  0  0  0  0  0
    8.3508  -14.7088   21.7733 C   0  0  1  0  0  0  0  0  0  0  0  0
    7.8939  -13.4095   21.1812 C   0  0  0  0  0  0  0  0  0  0  0  0
    8.0151  -13.5230   19.7033 C   0  0  0  0  0  0  0  0  0  0  0  0
    9.1390  -13.3026   18.9361 C   0  0  0  0  0  0  0  0  0  0  0  0
    8.8463  -13.5083   17.6281 N   0  0  0  0  0  0  0  0  0  0  0  0
    7.5481  -13.8557   17.5707 C   0  0  0  0  0  0  0  0  0  0  0  0
    7.0458  -13.8641   18.8294 N   0  0  0  0  0  0  0  0  0  0  0  0
    8.4160  -14.6703   23.2596 C   0  0  0  0  0  0  0  0  0  0  0  0
    9.3659  -14.1122   23.8654 O   0  0  0  0  0  0  0  0  0  0  0  0
    8.0586  -12.2791   26.7333 C   0  0  0  0  0  0  0  0  0  0  0  0
    6.9022  -12.8459   25.9836 C   0  0  2  0  0  0  0  0  0  0  0  0
    5.6517  -12.0729   26.4376 C   0  0  0  0  0  0  0  0  0  0  0  0
    6.6036  -14.2793   26.2084 C   0  0  0  0  0  0  0  0  0  0  0  0
    7.4153  -15.2863   25.4884 C   0  0  2  0  0  0  0  0  0  0  0  0
    7.4003  -15.2667   24.0706 N   0  0  0  0  0  0  0  0  0  0  0  0
    7.1271  -16.6361   26.0100 C   0  0  0  0  0  0  0  0  0  0  0  0
    6.0184  -17.2041   25.9199 O   0  0  0  0  0  0  0  0  0  0  0  0
    8.1712  -17.3495   26.6609 N   0  0  0  0  0  0  0  0  0  0  0  0
    7.9514  -18.6797   27.1948 C   0  0  0  0  0  0  0  0  0  0  0  0
    9.0411  -19.0884   28.0981 C   0  0  0  0  0  0  0  0  0  0  0  0
    8.9724  -20.3451   28.6820 O   0  0  0  0  0  0  0  0  0  0  0  0
    9.9854  -18.2878   28.3037 O   0  0  0  0  0  0  0  0  0  0  0  0
  2  3  1  0
  2  9  1  0
  2  1  1  1
  4  5  2  0
  4  3  1  0
  6  5  1  0
  7  8  2  0
  7  6  1  0
  8  4  1  0
  9 10  2  0
 12 11  1  1
 12 13  1  0
 14 12  1  0
 15 14  1  1
 15 17  1  0
 16 15  1  0
 16  9  1  0
 17 18  2  0
 19 17  1  0
 19 20  1  0
 21 20  1  0
 21 22  1  0
 23 21  2  0
M  END
$$$$
