HLG.pdb
     RDKit          3D

 23 23  0  0  1  0  0  0  0  0999 V2000
    7.6312  -15.5394   21.3905 N   0  0  0  0  0  0  0  0  0  0  0  0
    8.9424  -14.9661   21.6050 C   0  0  1  0  0  0  0  0  0  0  0  0
    9.0945  -13.7836   20.6961 C   0  0  0  0  0  0  0  0  0  0  0  0
    8.6705  -14.2069   19.3349 C   0  0  0  0  0  0  0  0  0  0  0  0
    8.8525  -15.4405   18.7471 C   0  0  0  0  0  0  0  0  0  0  0  0
    8.3257  -15.4330   17.4976 N   0  0  0  0  0  0  0  0  0  0  0  0
    7.8154  -14.2045   17.2989 C   0  0  0  0  0  0  0  0  0  0  0  0
    8.0252  -13.4626   18.4134 N   0  0  0  0  0  0  0  0  0  0  0  0
    9.1599  -14.6209   23.0362 C   0  0  0  0  0  0  0  0  0  0  0  0
   10.1700  -13.9746   23.4143 O   0  0  0  0  0  0  0  0  0  0  0  0
    7.8443  -11.6084   26.0412 C   0  0  0  0  0  0  0  0  0  0  0  0
    6.8693  -12.6907   25.7275 C   0  0  2  0  0  0  0  0  0  0  0  0
    5.5751  -12.3634   26.4924 C   0  0  0  0  0  0  0  0  0  0  0  0
    7.2495  -14.0643   26.1315 C   0  0  0  0  0  0  0  0  0  0  0  0
    8.3793  -14.7145   25.4300 C   0  0  2  0  0  0  0  0  0  0  0  0
    8.2295  -15.0080   24.0508 N   0  0  0  0  0  0  0  0  0  0  0  0
    8.8302  -15.8991   26.1855 C   0  0  0  0  0  0  0  0  0  0  0  0
    9.1851  -15.8777   27.3828 O   0  0  0  0  0  0  0  0  0  0  0  0
    8.8683  -17.1549   25.5192 N   0  0  0  0  0  0  0  0  0  0  0  0
   10.0768  -17.9561   25.4972 C   0  0  0  0  0  0  0  0  0  0  0  0
   10.3652  -18.5391   26.8192 C   0  0  0  0  0  0  0  0  0  0  0  0
   11.5206  -19.2931   26.9655 O   0  0  0  0  0  0  0  0  0  0  0  0
    9.5583  -18.3322   27.7578 O   0  0  0  0  0  0  0  0  0  0  0  0
  2  3  1  0
  2  9  1  0
  2  1  1  1
  4  5  2  0
  4  3  1  0
  6  5  1  0
  7  8  2  0
  7  6  1  0
  8  4  1  0
  9 10  2  0
 12 11  1  1
 12 13  1  0
 14 12  1  0
 15 14  1  1
 15 17  1  0
 16 15  1  0
 16  9  1  0
 17 18  2  0
 19 17  1  0
 19 20  1  0
 21 20  1  0
 21 22  1  0
 23 21  2  0
M  END
$$$$
