HLG.pdb
     RDKit          3D

 23 23  0  0  1  0  0  0  0  0999 V2000
    7.8027  -16.7361   21.6109 N   0  0  0  0  0  0  0  0  0  0  0  0
    9.0574  -16.0153   21.5916 C   0  0  1  0  0  0  0  0  0  0  0  0
    9.1660  -15.2926   20.2826 C   0  0  0  0  0  0  0  0  0  0  0  0
    8.8370  -16.2639   19.2055 C   0  0  0  0  0  0  0  0  0  0  0  0
    8.5088  -17.5950   19.3500 C   0  0  0  0  0  0  0  0  0  0  0  0
    8.2770  -18.1429   18.1315 N   0  0  0  0  0  0  0  0  0  0  0  0
    8.4575  -17.1652   17.2255 C   0  0  0  0  0  0  0  0  0  0  0  0
    8.7969  -16.0270   17.8782 N   0  0  0  0  0  0  0  0  0  0  0  0
    9.1816  -15.1042   22.7617 C   0  0  0  0  0  0  0  0  0  0  0  0
   10.1978  -14.3841   22.9339 O   0  0  0  0  0  0  0  0  0  0  0  0
    5.6989  -12.1053   27.0140 C   0  0  0  0  0  0  0  0  0  0  0  0
    7.0050  -12.5396   26.4430 C   0  0  2  0  0  0  0  0  0  0  0  0
    7.7156  -11.2728   25.9356 C   0  0  0  0  0  0  0  0  0  0  0  0
    6.9496  -13.4693   25.2911 C   0  0  0  0  0  0  0  0  0  0  0  0
    8.1991  -14.1450   24.8743 C   0  0  2  0  0  0  0  0  0  0  0  0
    8.1501  -15.0039   23.7471 N   0  0  0  0  0  0  0  0  0  0  0  0
    8.8239  -14.8131   26.0320 C   0  0  0  0  0  0  0  0  0  0  0  0
    8.8894  -14.3212   27.1782 O   0  0  0  0  0  0  0  0  0  0  0  0
    9.3934  -16.1028   25.8455 N   0  0  0  0  0  0  0  0  0  0  0  0
    9.9097  -16.8643   26.9664 C   0  0  0  0  0  0  0  0  0  0  0  0
   10.5131  -18.1346   26.5273 C   0  0  0  0  0  0  0  0  0  0  0  0
   10.6185  -18.3742   25.1649 O   0  0  0  0  0  0  0  0  0  0  0  0
   10.9068  -18.9474   27.3987 O   0  0  0  0  0  0  0  0  0  0  0  0
  2  3  1  0
  2  9  1  0
  2  1  1  6
  4  5  2  0
  4  3  1  0
  6  5  1  0
  7  8  2  0
  7  6  1  0
  8  4  1  0
  9 10  2  0
 12 11  1  6
 12 13  1  0
 14 12  1  0
 15 14  1  1
 15 17  1  0
 16 15  1  0
 16  9  1  0
 17 18  2  0
 19 17  1  0
 19 20  1  0
 21 20  1  0
 21 22  1  0
 23 21  2  0
M  END
$$$$
