HLG.pdb
     RDKit          3D

 23 23  0  0  1  0  0  0  0  0999 V2000
   10.1912  -15.0733   21.3047 N   0  0  0  0  0  0  0  0  0  0  0  0
    8.8994  -14.6599   21.8091 C   0  0  1  0  0  0  0  0  0  0  0  0
    7.8372  -15.3317   20.9921 C   0  0  0  0  0  0  0  0  0  0  0  0
    7.8235  -14.6831   19.6538 C   0  0  0  0  0  0  0  0  0  0  0  0
    8.2410  -13.4080   19.3371 C   0  0  0  0  0  0  0  0  0  0  0  0
    8.0689  -13.1877   18.0102 N   0  0  0  0  0  0  0  0  0  0  0  0
    7.5471  -14.3148   17.4940 C   0  0  0  0  0  0  0  0  0  0  0  0
    7.3990  -15.2202   18.4915 N   0  0  0  0  0  0  0  0  0  0  0  0
    8.7666  -14.9404   23.2646 C   0  0  0  0  0  0  0  0  0  0  0  0
    9.7125  -15.4305   23.9325 O   0  0  0  0  0  0  0  0  0  0  0  0
    7.5251  -11.8045   26.7561 C   0  0  0  0  0  0  0  0  0  0  0  0
    6.4500  -12.4432   25.9459 C   0  0  2  0  0  0  0  0  0  0  0  0
    5.1099  -11.9011   26.4727 C   0  0  0  0  0  0  0  0  0  0  0  0
    6.3530  -13.9197   26.0177 C   0  0  0  0  0  0  0  0  0  0  0  0
    7.4218  -14.7246   25.3844 C   0  0  2  0  0  0  0  0  0  0  0  0
    7.5556  -14.6658   23.9739 N   0  0  0  0  0  0  0  0  0  0  0  0
    7.3542  -16.1198   25.8599 C   0  0  0  0  0  0  0  0  0  0  0  0
    7.2243  -16.4502   27.0573 O   0  0  0  0  0  0  0  0  0  0  0  0
    7.4415  -17.1681   24.9028 N   0  0  0  0  0  0  0  0  0  0  0  0
    7.1749  -18.5449   25.2717 C   0  0  0  0  0  0  0  0  0  0  0  0
    8.3601  -19.1861   25.8672 C   0  0  0  0  0  0  0  0  0  0  0  0
    8.2567  -20.5096   26.2704 O   0  0  0  0  0  0  0  0  0  0  0  0
    9.4130  -18.5135   25.9862 O   0  0  0  0  0  0  0  0  0  0  0  0
  2  3  1  0
  2  9  1  0
  2  1  1  6
  4  5  2  0
  4  3  1  0
  6  5  1  0
  7  8  2  0
  7  6  1  0
  8  4  1  0
  9 10  2  0
 12 11  1  1
 12 13  1  0
 14 12  1  0
 15 14  1  6
 15 17  1  0
 16 15  1  0
 16  9  1  0
 17 18  2  0
 19 17  1  0
 19 20  1  0
 21 20  1  0
 21 22  1  0
 23 21  2  0
M  END
$$$$
