HLG.pdb
     RDKit          3D

 23 23  0  0  1  0  0  0  0  0999 V2000
   10.4427  -16.2266   21.1517 N   0  0  0  0  0  0  0  0  0  0  0  0
    9.1809  -16.3158   21.8543 C   0  0  1  0  0  0  0  0  0  0  0  0
    8.8527  -17.7651   22.0521 C   0  0  0  0  0  0  0  0  0  0  0  0
    8.5154  -18.3344   20.7201 C   0  0  0  0  0  0  0  0  0  0  0  0
    8.5896  -17.7032   19.4968 C   0  0  0  0  0  0  0  0  0  0  0  0
    8.1973  -18.5563   18.5185 N   0  0  0  0  0  0  0  0  0  0  0  0
    7.8781  -19.7163   19.1199 C   0  0  0  0  0  0  0  0  0  0  0  0
    8.0716  -19.5801   20.4543 N   0  0  0  0  0  0  0  0  0  0  0  0
    9.2132  -15.5555   23.1332 C   0  0  0  0  0  0  0  0  0  0  0  0
   10.2905  -15.3305   23.7415 O   0  0  0  0  0  0  0  0  0  0  0  0
    5.4879  -11.9959   26.7877 C   0  0  0  0  0  0  0  0  0  0  0  0
    6.7848  -12.6470   26.4494 C   0  0  2  0  0  0  0  0  0  0  0  0
    7.8296  -11.5248   26.3219 C   0  0  0  0  0  0  0  0  0  0  0  0
    6.8360  -13.4030   25.1765 C   0  0  0  0  0  0  0  0  0  0  0  0
    7.9823  -14.3107   24.9453 C   0  0  2  0  0  0  0  0  0  0  0  0
    8.0197  -15.0439   23.7321 N   0  0  0  0  0  0  0  0  0  0  0  0
    8.1730  -15.1930   26.1124 C   0  0  0  0  0  0  0  0  0  0  0  0
    8.2668  -14.7911   27.2913 O   0  0  0  0  0  0  0  0  0  0  0  0
    8.2574  -16.5961   25.8961 N   0  0  0  0  0  0  0  0  0  0  0  0
    8.2468  -17.5284   27.0067 C   0  0  0  0  0  0  0  0  0  0  0  0
    9.6114  -17.8392   27.4670 C   0  0  0  0  0  0  0  0  0  0  0  0
    9.7592  -18.6861   28.5559 O   0  0  0  0  0  0  0  0  0  0  0  0
   10.5831  -17.3283   26.8591 O   0  0  0  0  0  0  0  0  0  0  0  0
  2  3  1  0
  2  9  1  0
  2  1  1  1
  4  5  2  0
  4  3  1  0
  6  5  1  0
  7  8  2  0
  7  6  1  0
  8  4  1  0
  9 10  2  0
 12 11  1  6
 12 13  1  0
 14 12  1  0
 15 14  1  1
 15 17  1  0
 16 15  1  0
 16  9  1  0
 17 18  2  0
 19 17  1  0
 19 20  1  0
 21 20  1  0
 21 22  1  0
 23 21  2  0
M  END
$$$$
