CCL.pdb
     RDKit          3D

 21 20  0  0  1  0  0  0  0  0999 V2000
   27.7114  -34.8232   -9.3066 N   0  0  0  0  0  0  0  0  0  0  0  0
   26.8050  -35.0642  -10.4005 C   0  0  1  0  0  0  0  0  0  0  0  0
   25.3710  -35.0858   -9.9599 C   0  0  0  0  0  0  0  0  0  0  0  0
   25.1575  -36.5073   -8.8505 S   0  0  0  0  0  0  0  0  0  0  0  0
   27.0712  -34.0578  -11.4611 C   0  0  0  0  0  0  0  0  0  0  0  0
   27.6080  -32.9346  -11.1945 O   0  0  0  0  0  0  0  0  0  0  0  0
   26.7511  -34.2706  -12.8334 N   0  0  0  0  0  0  0  0  0  0  0  0
   27.1968  -33.4066  -13.8810 C   0  0  1  0  0  0  0  0  0  0  0  0
   28.6450  -33.7007  -14.2917 C   0  0  0  0  0  0  0  0  0  0  0  0
   28.7506  -35.4698  -14.6415 S   0  0  0  0  0  0  0  0  0  0  0  0
   26.3621  -33.4606  -15.0909 C   0  0  0  0  0  0  0  0  0  0  0  0
   25.7253  -34.5072  -15.3743 O   0  0  0  0  0  0  0  0  0  0  0  0
   22.9388  -29.5427  -17.3767 C   0  0  0  0  0  0  0  0  0  0  0  0
   23.5167  -30.8151  -16.8061 C   0  0  1  0  0  0  0  0  0  0  0  0
   22.4154  -31.8760  -16.9565 C   0  0  0  0  0  0  0  0  0  0  0  0
   24.6659  -31.2655  -17.6069 C   0  0  0  0  0  0  0  0  0  0  0  0
   25.4099  -32.4700  -17.1861 C   0  0  2  0  0  0  0  0  0  0  0  0
   26.2163  -32.3629  -16.0065 N   0  0  0  0  0  0  0  0  0  0  0  0
   26.2866  -32.8593  -18.3168 C   0  0  0  0  0  0  0  0  0  0  0  0
   25.7822  -33.2209  -19.3973 O   0  0  0  0  0  0  0  0  0  0  0  0
   27.6517  -32.8187  -18.1653 O   0  0  0  0  0  0  0  0  0  0  0  0
  2  1  1  1
  3  2  1  0
  4  3  1  0
  5  2  1  0
  6  5  2  0
  7  5  1  0
  8 11  1  0
  8  7  1  0
  8  9  1  6
 10  9  1  0
 11 12  2  0
 14 13  1  6
 14 15  1  0
 17 16  1  6
 16 14  1  0
 18 17  1  0
 18 11  1  0
 19 21  1  0
 19 17  1  0
 20 19  2  0
M  END
$$$$
