CCL.pdb
     RDKit          3D

 21 20  0  0  1  0  0  0  0  0999 V2000
   27.5987  -20.8528  -18.0122 N   0  0  0  0  0  0  0  0  0  0  0  0
   27.6455  -21.5827  -16.7707 C   0  0  1  0  0  0  0  0  0  0  0  0
   29.0261  -21.6257  -16.1850 C   0  0  0  0  0  0  0  0  0  0  0  0
   30.0612  -22.6289  -17.2891 S   0  0  0  0  0  0  0  0  0  0  0  0
   26.6402  -20.9988  -15.8448 C   0  0  0  0  0  0  0  0  0  0  0  0
   26.5029  -19.7394  -15.7183 O   0  0  0  0  0  0  0  0  0  0  0  0
   25.7688  -21.7911  -15.0424 N   0  0  0  0  0  0  0  0  0  0  0  0
   24.7477  -21.2314  -14.2139 C   0  0  1  0  0  0  0  0  0  0  0  0
   23.3422  -21.5603  -14.7324 C   0  0  0  0  0  0  0  0  0  0  0  0
   23.1199  -20.6549  -16.2796 S   0  0  0  0  0  0  0  0  0  0  0  0
   24.8238  -21.6571  -12.8080 C   0  0  0  0  0  0  0  0  0  0  0  0
   24.9010  -22.8786  -12.5198 O   0  0  0  0  0  0  0  0  0  0  0  0
   27.4913  -19.1079   -8.6233 C   0  0  0  0  0  0  0  0  0  0  0  0
   26.9583  -20.0719   -9.6553 C   0  0  1  0  0  0  0  0  0  0  0  0
   27.8042  -21.3464   -9.5098 C   0  0  0  0  0  0  0  0  0  0  0  0
   25.5661  -20.4377   -9.3507 C   0  0  0  0  0  0  0  0  0  0  0  0
   24.7895  -21.2078  -10.3433 C   0  0  2  0  0  0  0  0  0  0  0  0
   24.8161  -20.7439  -11.6988 N   0  0  0  0  0  0  0  0  0  0  0  0
   23.3803  -21.2196   -9.8818 C   0  0  0  0  0  0  0  0  0  0  0  0
   22.4970  -20.6741  -10.5707 O   0  0  0  0  0  0  0  0  0  0  0  0
   23.0576  -21.8332   -8.6955 O   0  0  0  0  0  0  0  0  0  0  0  0
  2  1  1  6
  3  2  1  0
  4  3  1  0
  5  2  1  0
  6  5  2  0
  7  5  1  0
  8 11  1  0
  8  7  1  0
  8  9  1  6
 10  9  1  0
 11 12  2  0
 14 13  1  1
 14 15  1  0
 17 16  1  1
 16 14  1  0
 18 17  1  0
 18 11  1  0
 19 21  1  0
 19 17  1  0
 20 19  2  0
M  END
$$$$
