CCL.pdb
     RDKit          3D

 21 20  0  0  1  0  0  0  0  0999 V2000
   18.4320  -12.9427  -16.3258 N   0  0  0  0  0  0  0  0  0  0  0  0
   19.5012  -12.1148  -16.8237 C   0  0  1  0  0  0  0  0  0  0  0  0
   20.2106  -12.7378  -17.9897 C   0  0  0  0  0  0  0  0  0  0  0  0
   21.2163  -14.1090  -17.3532 S   0  0  0  0  0  0  0  0  0  0  0  0
   18.9490  -10.7698  -17.1314 C   0  0  0  0  0  0  0  0  0  0  0  0
   18.4323  -10.5048  -18.2644 O   0  0  0  0  0  0  0  0  0  0  0  0
   18.9561   -9.6935  -16.1974 N   0  0  0  0  0  0  0  0  0  0  0  0
   18.3137   -8.4413  -16.4458 C   0  0  1  0  0  0  0  0  0  0  0  0
   17.6040   -7.9017  -15.1977 C   0  0  0  0  0  0  0  0  0  0  0  0
   16.2235   -9.0129  -14.8478 S   0  0  0  0  0  0  0  0  0  0  0  0
   19.2222   -7.3951  -16.9391 C   0  0  0  0  0  0  0  0  0  0  0  0
   20.3418   -7.2204  -16.3939 O   0  0  0  0  0  0  0  0  0  0  0  0
   19.7568   -5.7291  -22.3561 C   0  0  0  0  0  0  0  0  0  0  0  0
   20.0152   -6.2615  -20.9675 C   0  0  1  0  0  0  0  0  0  0  0  0
   21.5119   -6.6067  -20.9263 C   0  0  0  0  0  0  0  0  0  0  0  0
   19.7832   -5.2140  -19.9607 C   0  0  0  0  0  0  0  0  0  0  0  0
   19.8544   -5.5633  -18.5274 C   0  0  2  0  0  0  0  0  0  0  0  0
   18.9114   -6.5258  -18.0401 N   0  0  0  0  0  0  0  0  0  0  0  0
   19.6757   -4.3060  -17.7619 C   0  0  0  0  0  0  0  0  0  0  0  0
   20.5261   -3.3996  -17.8498 O   0  0  0  0  0  0  0  0  0  0  0  0
   18.5716   -4.1486  -16.9593 O   0  0  0  0  0  0  0  0  0  0  0  0
  2  1  1  6
  3  2  1  0
  4  3  1  0
  5  2  1  0
  6  5  2  0
  7  5  1  0
  8 11  1  0
  8  7  1  0
  8  9  1  1
 10  9  1  0
 11 12  2  0
 14 13  1  6
 14 15  1  0
 17 16  1  6
 16 14  1  0
 18 17  1  0
 18 11  1  0
 19 21  1  0
 19 17  1  0
 20 19  2  0
M  END
$$$$
