CCL.pdb
     RDKit          3D

 21 20  0  0  1  0  0  0  0  0999 V2000
   17.2951  -12.6370  -17.4564 N   0  0  0  0  0  0  0  0  0  0  0  0
   18.5577  -12.1389  -16.9724 C   0  0  1  0  0  0  0  0  0  0  0  0
   19.7197  -12.6635  -17.7632 C   0  0  0  0  0  0  0  0  0  0  0  0
   20.2385  -14.2300  -17.0055 S   0  0  0  0  0  0  0  0  0  0  0  0
   18.4972  -10.6542  -16.9452 C   0  0  0  0  0  0  0  0  0  0  0  0
   17.9925   -9.9900  -17.9070 O   0  0  0  0  0  0  0  0  0  0  0  0
   18.9912   -9.8752  -15.8590 N   0  0  0  0  0  0  0  0  0  0  0  0
   18.9650   -8.4463  -15.8488 C   0  0  1  0  0  0  0  0  0  0  0  0
   17.6995   -7.8993  -15.1767 C   0  0  0  0  0  0  0  0  0  0  0  0
   17.7840   -6.0972  -15.2690 S   0  0  0  0  0  0  0  0  0  0  0  0
   20.1293   -7.8356  -15.1893 C   0  0  0  0  0  0  0  0  0  0  0  0
   20.4471   -8.1779  -14.0218 O   0  0  0  0  0  0  0  0  0  0  0  0
   24.7484   -5.9137  -17.9254 C   0  0  0  0  0  0  0  0  0  0  0  0
   23.7473   -6.6721  -17.0881 C   0  0  1  0  0  0  0  0  0  0  0  0
   24.5409   -7.8008  -16.4119 C   0  0  0  0  0  0  0  0  0  0  0  0
   23.2137   -5.8149  -16.0179 C   0  0  0  0  0  0  0  0  0  0  0  0
   22.1311   -6.3292  -15.1547 C   0  0  2  0  0  0  0  0  0  0  0  0
   20.9607   -6.8390  -15.8055 N   0  0  0  0  0  0  0  0  0  0  0  0
   21.7217   -5.2202  -14.2597 C   0  0  0  0  0  0  0  0  0  0  0  0
   20.5871   -4.7177  -14.3732 O   0  0  0  0  0  0  0  0  0  0  0  0
   22.5976   -4.7533  -13.3096 O   0  0  0  0  0  0  0  0  0  0  0  0
  2  1  1  6
  3  2  1  0
  4  3  1  0
  5  2  1  0
  6  5  2  0
  7  5  1  0
  8 11  1  0
  8  7  1  0
  8  9  1  1
 10  9  1  0
 11 12  2  0
 14 13  1  6
 14 15  1  0
 17 16  1  6
 16 14  1  0
 18 17  1  0
 18 11  1  0
 19 21  1  0
 19 17  1  0
 20 19  2  0
M  END
$$$$
