CCL.pdb
     RDKit          3D

 21 20  0  0  1  0  0  0  0  0999 V2000
   14.5227  -13.5306  -12.2861 N   0  0  0  0  0  0  0  0  0  0  0  0
   14.3009  -12.1391  -12.5877 C   0  0  1  0  0  0  0  0  0  0  0  0
   12.8780  -11.7240  -12.3552 C   0  0  0  0  0  0  0  0  0  0  0  0
   12.4732  -12.0922  -10.6239 S   0  0  0  0  0  0  0  0  0  0  0  0
   15.2758  -11.3294  -11.8114 C   0  0  0  0  0  0  0  0  0  0  0  0
   15.9171  -11.8213  -10.8277 O   0  0  0  0  0  0  0  0  0  0  0  0
   15.5617   -9.9645  -12.1047 N   0  0  0  0  0  0  0  0  0  0  0  0
   16.4962   -9.1851  -11.3553 C   0  0  1  0  0  0  0  0  0  0  0  0
   17.8250   -9.0077  -12.1005 C   0  0  0  0  0  0  0  0  0  0  0  0
   18.9817   -8.2324  -10.9498 S   0  0  0  0  0  0  0  0  0  0  0  0
   15.9986   -7.8498  -10.9907 C   0  0  0  0  0  0  0  0  0  0  0  0
   15.4760   -7.1094  -11.8624 O   0  0  0  0  0  0  0  0  0  0  0  0
   13.4992   -6.3347   -6.0893 C   0  0  0  0  0  0  0  0  0  0  0  0
   13.7953   -6.5877   -7.5476 C   0  0  1  0  0  0  0  0  0  0  0  0
   12.6039   -6.0024   -8.3215 C   0  0  0  0  0  0  0  0  0  0  0  0
   14.9936   -5.8448   -7.9683 C   0  0  0  0  0  0  0  0  0  0  0  0
   15.5123   -6.0298   -9.3387 C   0  0  2  0  0  0  0  0  0  0  0  0
   16.0693   -7.3101   -9.6610 N   0  0  0  0  0  0  0  0  0  0  0  0
   16.5567   -4.9993   -9.5536 C   0  0  0  0  0  0  0  0  0  0  0  0
   17.7391   -5.3439   -9.7424 O   0  0  0  0  0  0  0  0  0  0  0  0
   16.2128   -3.6690   -9.5429 O   0  0  0  0  0  0  0  0  0  0  0  0
  2  1  1  1
  3  2  1  0
  4  3  1  0
  5  2  1  0
  6  5  2  0
  7  5  1  0
  8 11  1  0
  8  7  1  0
  8  9  1  6
 10  9  1  0
 11 12  2  0
 14 13  1  1
 14 15  1  0
 17 16  1  1
 16 14  1  0
 18 17  1  0
 18 11  1  0
 19 21  1  0
 19 17  1  0
 20 19  2  0
M  END
$$$$
