CCL.pdb
     RDKit          3D

 21 20  0  0  1  0  0  0  0  0999 V2000
   27.4572  -34.2813  -13.0716 N   0  0  0  0  0  0  0  0  0  0  0  0
   26.2553  -34.5954  -12.3413 C   0  0  1  0  0  0  0  0  0  0  0  0
   25.9004  -36.0508  -12.4242 C   0  0  0  0  0  0  0  0  0  0  0  0
   25.3183  -36.3798  -14.1124 S   0  0  0  0  0  0  0  0  0  0  0  0
   26.4165  -34.1160  -10.9438 C   0  0  0  0  0  0  0  0  0  0  0  0
   27.5083  -34.2713  -10.3077 O   0  0  0  0  0  0  0  0  0  0  0  0
   25.3786  -33.4576  -10.2226 N   0  0  0  0  0  0  0  0  0  0  0  0
   25.5308  -33.0059   -8.8753 C   0  0  1  0  0  0  0  0  0  0  0  0
   24.6058  -31.8245   -8.5571 C   0  0  0  0  0  0  0  0  0  0  0  0
   24.8689  -31.3942   -6.8226 S   0  0  0  0  0  0  0  0  0  0  0  0
   25.2944  -34.0514   -7.8681 C   0  0  0  0  0  0  0  0  0  0  0  0
   24.2388  -34.7340   -7.9000 O   0  0  0  0  0  0  0  0  0  0  0  0
   25.7110  -38.5467   -5.4218 C   0  0  0  0  0  0  0  0  0  0  0  0
   26.7528  -37.6114   -4.8579 C   0  0  1  0  0  0  0  0  0  0  0  0
   28.0553  -38.4247   -4.8021 C   0  0  0  0  0  0  0  0  0  0  0  0
   26.9843  -36.4830   -5.7733 C   0  0  0  0  0  0  0  0  0  0  0  0
   25.9647  -35.4197   -5.8790 C   0  0  2  0  0  0  0  0  0  0  0  0
   26.2168  -34.3607   -6.8108 N   0  0  0  0  0  0  0  0  0  0  0  0
   25.8105  -34.8263   -4.5289 C   0  0  0  0  0  0  0  0  0  0  0  0
   25.4678  -35.5450   -3.5705 O   0  0  0  0  0  0  0  0  0  0  0  0
   26.0471  -33.4855   -4.3434 O   0  0  0  0  0  0  0  0  0  0  0  0
  2  1  1  6
  3  2  1  0
  4  3  1  0
  5  2  1  0
  6  5  2  0
  7  5  1  0
  8 11  1  0
  8  7  1  0
  8  9  1  1
 10  9  1  0
 11 12  2  0
 14 13  1  6
 14 15  1  0
 17 16  1  1
 16 14  1  0
 18 17  1  0
 18 11  1  0
 19 21  1  0
 19 17  1  0
 20 19  2  0
M  END
$$$$
