CCL.pdb
     RDKit          3D

 21 20  0  0  1  0  0  0  0  0999 V2000
   18.0081  -12.0768  -16.8463 N   0  0  0  0  0  0  0  0  0  0  0  0
   18.7491  -11.6216  -15.6973 C   0  0  1  0  0  0  0  0  0  0  0  0
   20.1507  -12.1563  -15.6730 C   0  0  0  0  0  0  0  0  0  0  0  0
   21.0189  -11.4902  -17.1220 S   0  0  0  0  0  0  0  0  0  0  0  0
   18.6936  -10.1369  -15.6611 C   0  0  0  0  0  0  0  0  0  0  0  0
   18.3861   -9.4561  -16.6921 O   0  0  0  0  0  0  0  0  0  0  0  0
   18.9758   -9.3762  -14.4896 N   0  0  0  0  0  0  0  0  0  0  0  0
   18.8668   -7.9520  -14.4396 C   0  0  1  0  0  0  0  0  0  0  0  0
   17.7955   -7.4922  -13.4430 C   0  0  0  0  0  0  0  0  0  0  0  0
   18.1639   -8.2842  -11.8619 S   0  0  0  0  0  0  0  0  0  0  0  0
   20.1256   -7.2716  -14.0989 C   0  0  0  0  0  0  0  0  0  0  0  0
   20.8984   -7.7642  -13.2380 O   0  0  0  0  0  0  0  0  0  0  0  0
   23.5775   -5.2845  -17.8165 C   0  0  0  0  0  0  0  0  0  0  0  0
   22.8962   -5.9793  -16.6626 C   0  0  1  0  0  0  0  0  0  0  0  0
   23.9019   -7.0237  -16.1538 C   0  0  0  0  0  0  0  0  0  0  0  0
   22.6552   -5.0352  -15.5602 C   0  0  0  0  0  0  0  0  0  0  0  0
   21.8318   -5.4636  -14.4113 C   0  0  2  0  0  0  0  0  0  0  0  0
   20.5518   -6.0387  -14.7011 N   0  0  0  0  0  0  0  0  0  0  0  0
   21.6245   -4.2718  -13.5538 C   0  0  0  0  0  0  0  0  0  0  0  0
   20.4796   -3.8008  -13.4120 O   0  0  0  0  0  0  0  0  0  0  0  0
   22.6980   -3.6939  -12.9202 O   0  0  0  0  0  0  0  0  0  0  0  0
  2  1  1  6
  3  2  1  0
  4  3  1  0
  5  2  1  0
  6  5  2  0
  7  5  1  0
  8 11  1  0
  8  7  1  0
  8  9  1  1
 10  9  1  0
 11 12  2  0
 14 13  1  6
 14 15  1  0
 17 16  1  6
 16 14  1  0
 18 17  1  0
 18 11  1  0
 19 21  1  0
 19 17  1  0
 20 19  2  0
M  END
$$$$
