CCL.pdb
     RDKit          3D

 21 20  0  0  1  0  0  0  0  0999 V2000
   19.3279  -12.7767  -16.1812 N   0  0  0  0  0  0  0  0  0  0  0  0
   18.9586  -11.5763  -16.8875 C   0  0  1  0  0  0  0  0  0  0  0  0
   17.5559  -11.6336  -17.4168 C   0  0  0  0  0  0  0  0  0  0  0  0
   17.5432  -12.7886  -18.8178 S   0  0  0  0  0  0  0  0  0  0  0  0
   19.1940  -10.4136  -15.9922 C   0  0  0  0  0  0  0  0  0  0  0  0
   18.6589  -10.3412  -14.8393 O   0  0  0  0  0  0  0  0  0  0  0  0
   20.0225   -9.3109  -16.3507 N   0  0  0  0  0  0  0  0  0  0  0  0
   20.2067   -8.1689  -15.5114 C   0  0  1  0  0  0  0  0  0  0  0  0
   21.6909   -7.8523  -15.2891 C   0  0  0  0  0  0  0  0  0  0  0  0
   22.2909   -8.9809  -14.0126 S   0  0  0  0  0  0  0  0  0  0  0  0
   19.5533   -6.9508  -16.0140 C   0  0  0  0  0  0  0  0  0  0  0  0
   19.6037   -6.6642  -17.2374 O   0  0  0  0  0  0  0  0  0  0  0  0
   14.4363   -5.1988  -15.4995 C   0  0  0  0  0  0  0  0  0  0  0  0
   15.8017   -5.4314  -16.0994 C   0  0  1  0  0  0  0  0  0  0  0  0
   15.7100   -4.9300  -17.5489 C   0  0  0  0  0  0  0  0  0  0  0  0
   16.8128   -4.6077  -15.4182 C   0  0  0  0  0  0  0  0  0  0  0  0
   18.2431   -4.8374  -15.7064 C   0  0  2  0  0  0  0  0  0  0  0  0
   18.8346   -6.0303  -15.1770 N   0  0  0  0  0  0  0  0  0  0  0  0
   18.9887   -3.6712  -15.1746 C   0  0  0  0  0  0  0  0  0  0  0  0
   19.6109   -3.7701  -14.0996 O   0  0  0  0  0  0  0  0  0  0  0  0
   18.9886   -2.4874  -15.8721 O   0  0  0  0  0  0  0  0  0  0  0  0
  2  1  1  1
  3  2  1  0
  4  3  1  0
  5  2  1  0
  6  5  2  0
  7  5  1  0
  8 11  1  0
  8  7  1  0
  8  9  1  6
 10  9  1  0
 11 12  2  0
 14 13  1  1
 14 15  1  0
 17 16  1  1
 16 14  1  0
 18 17  1  0
 18 11  1  0
 19 21  1  0
 19 17  1  0
 20 19  2  0
M  END
$$$$
