CCL.pdb
     RDKit          3D

 21 20  0  0  1  0  0  0  0  0999 V2000
   15.3735  -14.2466  -17.0330 N   0  0  0  0  0  0  0  0  0  0  0  0
   16.2657  -13.7176  -16.0326 C   0  0  1  0  0  0  0  0  0  0  0  0
   17.3165  -14.7074  -15.6237 C   0  0  0  0  0  0  0  0  0  0  0  0
   16.5582  -15.8580  -14.4413 S   0  0  0  0  0  0  0  0  0  0  0  0
   16.8356  -12.4420  -16.5393 C   0  0  0  0  0  0  0  0  0  0  0  0
   17.2285  -12.3197  -17.7441 O   0  0  0  0  0  0  0  0  0  0  0  0
   16.9828  -11.2794  -15.7286 N   0  0  0  0  0  0  0  0  0  0  0  0
   17.5659  -10.0648  -16.2056 C   0  0  1  0  0  0  0  0  0  0  0  0
   16.5153   -8.9681  -16.4196 C   0  0  0  0  0  0  0  0  0  0  0  0
   17.3606   -7.5605  -17.1727 S   0  0  0  0  0  0  0  0  0  0  0  0
   18.6140   -9.5240  -15.3268 C   0  0  0  0  0  0  0  0  0  0  0  0
   18.4152   -9.4289  -14.0888 O   0  0  0  0  0  0  0  0  0  0  0  0
   24.1347  -10.4987  -15.6632 C   0  0  0  0  0  0  0  0  0  0  0  0
   22.7194  -10.3483  -15.1605 C   0  0  1  0  0  0  0  0  0  0  0  0
   22.7562  -10.7676  -13.6827 C   0  0  0  0  0  0  0  0  0  0  0  0
   22.3034   -8.9376  -15.2014 C   0  0  0  0  0  0  0  0  0  0  0  0
   20.8998   -8.5910  -14.8995 C   0  0  2  0  0  0  0  0  0  0  0  0
   19.8965   -9.0798  -15.7982 N   0  0  0  0  0  0  0  0  0  0  0  0
   20.8132   -7.1111  -14.8638 C   0  0  0  0  0  0  0  0  0  0  0  0
   20.1656   -6.5060  -15.7396 O   0  0  0  0  0  0  0  0  0  0  0  0
   21.4486   -6.4159  -13.8633 O   0  0  0  0  0  0  0  0  0  0  0  0
  2  1  1  6
  3  2  1  0
  4  3  1  0
  5  2  1  0
  6  5  2  0
  7  5  1  0
  8 11  1  0
  8  7  1  0
  8  9  1  1
 10  9  1  0
 11 12  2  0
 14 13  1  1
 14 15  1  0
 17 16  1  6
 16 14  1  0
 18 17  1  0
 18 11  1  0
 19 21  1  0
 19 17  1  0
 20 19  2  0
M  END
$$$$
