CCL.pdb
     RDKit          3D

 21 20  0  0  1  0  0  0  0  0999 V2000
   24.8681  -12.1094  -19.5380 N   0  0  0  0  0  0  0  0  0  0  0  0
   23.5914  -11.4647  -19.7145 C   0  0  1  0  0  0  0  0  0  0  0  0
   22.4429  -12.4137  -19.5371 C   0  0  0  0  0  0  0  0  0  0  0  0
   22.3095  -13.4052  -21.0524 S   0  0  0  0  0  0  0  0  0  0  0  0
   23.5253  -10.2959  -18.7989 C   0  0  0  0  0  0  0  0  0  0  0  0
   23.9035  -10.3773  -17.5859 O   0  0  0  0  0  0  0  0  0  0  0  0
   23.0417   -9.0177  -19.2027 N   0  0  0  0  0  0  0  0  0  0  0  0
   22.9852   -7.8921  -18.3238 C   0  0  1  0  0  0  0  0  0  0  0  0
   22.9306   -6.5655  -19.0916 C   0  0  0  0  0  0  0  0  0  0  0  0
   24.5723   -6.2877  -19.7924 S   0  0  0  0  0  0  0  0  0  0  0  0
   21.8486   -7.9235  -17.3908 C   0  0  0  0  0  0  0  0  0  0  0  0
   20.7272   -8.3445  -17.7732 O   0  0  0  0  0  0  0  0  0  0  0  0
   18.9435   -9.4720  -13.2857 C   0  0  0  0  0  0  0  0  0  0  0  0
   19.9589   -8.4323  -12.8778 C   0  0  1  0  0  0  0  0  0  0  0  0
   20.5768   -8.9459  -11.5681 C   0  0  0  0  0  0  0  0  0  0  0  0
   21.0441   -8.3531  -13.8682 C   0  0  0  0  0  0  0  0  0  0  0  0
   20.8181   -7.6157  -15.1278 C   0  0  2  0  0  0  0  0  0  0  0  0
   21.9302   -7.4917  -16.0228 N   0  0  0  0  0  0  0  0  0  0  0  0
   20.3604   -6.2539  -14.7608 C   0  0  0  0  0  0  0  0  0  0  0  0
   21.1620   -5.3005  -14.7912 O   0  0  0  0  0  0  0  0  0  0  0  0
   19.0531   -6.0522  -14.3890 O   0  0  0  0  0  0  0  0  0  0  0  0
  2  1  1  1
  3  2  1  0
  4  3  1  0
  5  2  1  0
  6  5  2  0
  7  5  1  0
  8 11  1  0
  8  7  1  0
  8  9  1  6
 10  9  1  0
 11 12  2  0
 14 13  1  6
 14 15  1  0
 17 16  1  1
 16 14  1  0
 18 17  1  0
 18 11  1  0
 19 21  1  0
 19 17  1  0
 20 19  2  0
M  END
$$$$
