CCL.pdb
     RDKit          3D

 21 20  0  0  1  0  0  0  0  0999 V2000
   16.6979   -9.7653  -15.0987 N   0  0  0  0  0  0  0  0  0  0  0  0
   17.4953   -8.9608  -15.9894 C   0  0  1  0  0  0  0  0  0  0  0  0
   16.6619   -8.0247  -16.8141 C   0  0  0  0  0  0  0  0  0  0  0  0
   16.0747   -8.9442  -18.2655 S   0  0  0  0  0  0  0  0  0  0  0  0
   18.5329   -8.2612  -15.1879 C   0  0  0  0  0  0  0  0  0  0  0  0
   18.2670   -7.7537  -14.0509 O   0  0  0  0  0  0  0  0  0  0  0  0
   19.8809   -8.1081  -15.6240 N   0  0  0  0  0  0  0  0  0  0  0  0
   20.8584   -7.3669  -14.8906 C   0  0  1  0  0  0  0  0  0  0  0  0
   22.2771   -7.9025  -15.1201 C   0  0  0  0  0  0  0  0  0  0  0  0
   22.3386   -9.5658  -14.4182 S   0  0  0  0  0  0  0  0  0  0  0  0
   20.8623   -5.9275  -15.1930 C   0  0  0  0  0  0  0  0  0  0  0  0
   21.6125   -5.1481  -14.5519 O   0  0  0  0  0  0  0  0  0  0  0  0
   21.5342   -1.3507  -17.7002 C   0  0  0  0  0  0  0  0  0  0  0  0
   20.2461   -2.0154  -18.1214 C   0  0  1  0  0  0  0  0  0  0  0  0
   20.1841   -1.8710  -19.6499 C   0  0  0  0  0  0  0  0  0  0  0  0
   20.2858   -3.4555  -17.8225 C   0  0  0  0  0  0  0  0  0  0  0  0
   20.0483   -3.9111  -16.4378 C   0  0  2  0  0  0  0  0  0  0  0  0
   20.0402   -5.3251  -16.2057 N   0  0  0  0  0  0  0  0  0  0  0  0
   18.7375   -3.3614  -16.0156 C   0  0  0  0  0  0  0  0  0  0  0  0
   17.6839   -3.9010  -16.4046 O   0  0  0  0  0  0  0  0  0  0  0  0
   18.6934   -2.2587  -15.1970 O   0  0  0  0  0  0  0  0  0  0  0  0
  2  1  1  1
  3  2  1  0
  4  3  1  0
  5  2  1  0
  6  5  2  0
  7  5  1  0
  8 11  1  0
  8  7  1  0
  8  9  1  6
 10  9  1  0
 11 12  2  0
 14 13  1  6
 14 15  1  0
 17 16  1  6
 16 14  1  0
 18 17  1  0
 18 11  1  0
 19 21  1  0
 19 17  1  0
 20 19  2  0
M  END
$$$$
