EFN.pdb
     RDKit          3D

 29 29  0  0  1  0  0  0  0  0999 V2000
   28.5533  -22.6693  -17.3267 N   0  0  0  0  0  0  0  0  0  0  0  0
   28.1864  -21.4615  -16.6304 C   0  0  1  0  0  0  0  0  0  0  0  0
   27.8386  -20.3439  -17.5665 C   0  0  0  0  0  0  0  0  0  0  0  0
   26.5207  -20.5083  -18.2556 C   0  0  0  0  0  0  0  0  0  0  0  0
   26.3102  -19.3613  -19.1616 C   0  0  0  0  0  0  0  0  0  0  0  0
   25.1867  -18.7731  -19.1998 O   0  0  0  0  0  0  0  0  0  0  0  0
   27.1389  -21.7769  -15.6360 C   0  0  0  0  0  0  0  0  0  0  0  0
   26.3255  -22.7115  -15.8437 O   0  0  0  0  0  0  0  0  0  0  0  0
   27.3282  -18.9172  -19.9734 O   0  0  0  0  0  0  0  0  0  0  0  0
   27.0263  -21.0498  -14.4428 N   0  0  0  0  0  0  0  0  0  0  0  0
   26.0746  -21.2789  -13.3792 C   0  0  1  0  0  0  0  0  0  0  0  0
   26.5672  -20.4729  -12.1963 C   0  0  0  0  0  0  0  0  0  0  0  0
   25.7354  -20.5694  -10.9994 C   0  0  0  0  0  0  0  0  0  0  0  0
   26.0945  -21.2746   -9.8747 C   0  0  0  0  0  0  0  0  0  0  0  0
   25.2385  -21.2934   -8.8035 C   0  0  0  0  0  0  0  0  0  0  0  0
   24.0276  -20.6313   -8.8064 C   0  0  0  0  0  0  0  0  0  0  0  0
   23.6462  -19.9132   -9.9326 C   0  0  0  0  0  0  0  0  0  0  0  0
   24.5104  -19.9028  -10.9963 C   0  0  0  0  0  0  0  0  0  0  0  0
   24.7865  -20.6465  -13.7797 C   0  0  0  0  0  0  0  0  0  0  0  0
   24.6947  -19.5866  -14.4233 O   0  0  0  0  0  0  0  0  0  0  0  0
   19.8808  -21.0696  -16.5304 N   0  0  0  0  0  0  0  0  0  0  0  0
   20.7838  -20.3799  -15.6453 C   0  0  0  0  0  0  0  0  0  0  0  0
   20.3736  -19.2900  -15.1760 O   0  0  0  0  0  0  0  0  0  0  0  0
   22.1073  -20.9849  -15.3471 C   0  0  0  0  0  0  0  0  0  0  0  0
   22.2763  -20.9186  -13.8503 C   0  0  2  0  0  0  0  0  0  0  0  0
   23.5727  -21.2996  -13.3970 N   0  0  0  0  0  0  0  0  0  0  0  0
   21.2902  -21.8737  -13.2977 C   0  0  0  0  0  0  0  0  0  0  0  0
   21.6360  -23.0156  -12.9473 O   0  0  0  0  0  0  0  0  0  0  0  0
   19.9755  -21.4932  -13.1702 O   0  0  0  0  0  0  0  0  0  0  0  0
  2  1  1  6
  2  7  1  0
  2  3  1  0
  3  4  1  0
  4  5  1  0
  5  6  2  0
  5  9  1  0
  7  8  2  0
  7 10  1  0
 10 11  1  0
 11 12  1  1
 12 13  1  0
 13 14  2  0
 13 18  1  0
 14 15  1  0
 15 16  2  0
 17 16  1  0
 18 17  2  0
 19 26  1  0
 19 11  1  0
 20 19  2  0
 21 22  1  0
 22 23  2  0
 22 24  1  0
 25 24  1  6
 25 26  1  0
 25 27  1  0
 27 29  1  0
 28 27  2  0
M  END
$$$$
