EFN.pdb
     RDKit          3D

 29 29  0  0  1  0  0  0  0  0999 V2000
   30.7872  -24.1313  -16.7256 N   0  0  0  0  0  0  0  0  0  0  0  0
   29.3819  -23.9308  -16.9772 C   0  0  1  0  0  0  0  0  0  0  0  0
   28.5782  -25.1777  -16.7636 C   0  0  0  0  0  0  0  0  0  0  0  0
   28.9984  -26.3324  -17.6174 C   0  0  0  0  0  0  0  0  0  0  0  0
   28.0436  -27.4419  -17.4220 C   0  0  0  0  0  0  0  0  0  0  0  0
   27.0315  -27.2912  -16.6718 O   0  0  0  0  0  0  0  0  0  0  0  0
   28.9153  -22.7605  -16.2037 C   0  0  0  0  0  0  0  0  0  0  0  0
   29.4256  -22.4913  -15.0877 O   0  0  0  0  0  0  0  0  0  0  0  0
   28.2395  -28.6500  -18.0502 O   0  0  0  0  0  0  0  0  0  0  0  0
   27.9010  -21.9244  -16.6905 N   0  0  0  0  0  0  0  0  0  0  0  0
   27.3310  -20.7782  -16.0192 C   0  0  1  0  0  0  0  0  0  0  0  0
   27.6454  -19.5826  -16.8928 C   0  0  0  0  0  0  0  0  0  0  0  0
   27.0030  -18.3368  -16.4816 C   0  0  0  0  0  0  0  0  0  0  0  0
   27.3533  -17.6334  -15.3529 C   0  0  0  0  0  0  0  0  0  0  0  0
   26.6869  -16.4702  -15.0643 C   0  0  0  0  0  0  0  0  0  0  0  0
   25.6762  -15.9734  -15.8621 C   0  0  0  0  0  0  0  0  0  0  0  0
   25.3074  -16.6687  -17.0066 C   0  0  0  0  0  0  0  0  0  0  0  0
   25.9808  -17.8298  -17.2835 C   0  0  0  0  0  0  0  0  0  0  0  0
   25.8485  -20.9195  -16.0608 C   0  0  0  0  0  0  0  0  0  0  0  0
   25.1989  -21.2078  -17.0812 O   0  0  0  0  0  0  0  0  0  0  0  0
   20.8822  -19.6535  -13.8059 N   0  0  0  0  0  0  0  0  0  0  0  0
   21.7049  -20.7766  -13.4367 C   0  0  0  0  0  0  0  0  0  0  0  0
   21.1016  -21.8553  -13.2156 O   0  0  0  0  0  0  0  0  0  0  0  0
   23.1765  -20.5962  -13.3458 C   0  0  0  0  0  0  0  0  0  0  0  0
   23.6997  -20.6608  -14.7584 C   0  0  2  0  0  0  0  0  0  0  0  0
   25.1214  -20.7073  -14.8473 N   0  0  0  0  0  0  0  0  0  0  0  0
   23.2325  -19.4175  -15.4110 C   0  0  0  0  0  0  0  0  0  0  0  0
   23.4253  -18.3088  -14.8820 O   0  0  0  0  0  0  0  0  0  0  0  0
   22.5775  -19.4898  -16.6173 O   0  0  0  0  0  0  0  0  0  0  0  0
  2  1  1  1
  2  7  1  0
  2  3  1  0
  3  4  1  0
  4  5  1  0
  5  6  2  0
  5  9  1  0
  7  8  2  0
  7 10  1  0
 10 11  1  0
 11 12  1  6
 12 13  1  0
 13 14  2  0
 13 18  1  0
 14 15  1  0
 15 16  2  0
 17 16  1  0
 18 17  2  0
 19 26  1  0
 19 11  1  0
 20 19  2  0
 21 22  1  0
 22 23  2  0
 22 24  1  0
 25 24  1  1
 25 26  1  0
 25 27  1  0
 27 29  1  0
 28 27  2  0
M  END
$$$$
