EFN.pdb
     RDKit          3D

 29 29  0  0  1  0  0  0  0  0999 V2000
   20.0898  -10.9809  -16.5075 N   0  0  0  0  0  0  0  0  0  0  0  0
   19.7500   -9.6881  -17.0473 C   0  0  1  0  0  0  0  0  0  0  0  0
   18.4959   -9.7216  -17.8674 C   0  0  0  0  0  0  0  0  0  0  0  0
   18.4539  -10.8226  -18.8797 C   0  0  0  0  0  0  0  0  0  0  0  0
   17.2121  -10.6971  -19.6690 C   0  0  0  0  0  0  0  0  0  0  0  0
   17.1497   -9.8821  -20.6394 O   0  0  0  0  0  0  0  0  0  0  0  0
   19.7401   -8.6952  -15.9521 C   0  0  0  0  0  0  0  0  0  0  0  0
   19.0070   -8.8651  -14.9461 O   0  0  0  0  0  0  0  0  0  0  0  0
   16.1100  -11.4612  -19.3624 O   0  0  0  0  0  0  0  0  0  0  0  0
   20.5433   -7.5475  -16.0037 N   0  0  0  0  0  0  0  0  0  0  0  0
   20.5874   -6.4805  -15.0295 C   0  0  1  0  0  0  0  0  0  0  0  0
   21.9597   -6.5504  -14.3943 C   0  0  0  0  0  0  0  0  0  0  0  0
   22.1595   -7.6790  -13.4886 C   0  0  0  0  0  0  0  0  0  0  0  0
   21.5658   -7.7804  -12.2523 C   0  0  0  0  0  0  0  0  0  0  0  0
   21.8188   -8.8885  -11.4852 C   0  0  0  0  0  0  0  0  0  0  0  0
   22.6466   -9.9105  -11.9035 C   0  0  0  0  0  0  0  0  0  0  0  0
   23.2559   -9.8274  -13.1490 C   0  0  0  0  0  0  0  0  0  0  0  0
   22.9952   -8.7148  -13.9055 C   0  0  0  0  0  0  0  0  0  0  0  0
   20.5600   -5.1886  -15.7707 C   0  0  0  0  0  0  0  0  0  0  0  0
   21.1274   -4.9914  -16.8595 O   0  0  0  0  0  0  0  0  0  0  0  0
   17.9266   -2.2842  -18.9084 N   0  0  0  0  0  0  0  0  0  0  0  0
   17.5223   -2.4032  -17.5311 C   0  0  0  0  0  0  0  0  0  0  0  0
   16.7761   -1.4934  -17.0932 O   0  0  0  0  0  0  0  0  0  0  0  0
   17.9969   -3.5644  -16.7357 C   0  0  0  0  0  0  0  0  0  0  0  0
   19.1825   -3.0782  -15.9413 C   0  0  2  0  0  0  0  0  0  0  0  0
   19.8350   -4.0997  -15.1917 N   0  0  0  0  0  0  0  0  0  0  0  0
   18.6413   -2.0786  -14.9937 C   0  0  0  0  0  0  0  0  0  0  0  0
   18.6800   -0.8640  -15.2575 O   0  0  0  0  0  0  0  0  0  0  0  0
   18.0887   -2.4986  -13.8073 O   0  0  0  0  0  0  0  0  0  0  0  0
  2  1  1  1
  2  7  1  0
  2  3  1  0
  3  4  1  0
  4  5  1  0
  5  6  2  0
  5  9  1  0
  7  8  2  0
  7 10  1  0
 10 11  1  0
 11 12  1  6
 12 13  1  0
 13 14  2  0
 13 18  1  0
 14 15  1  0
 15 16  2  0
 17 16  1  0
 18 17  2  0
 19 26  1  0
 19 11  1  0
 20 19  2  0
 21 22  1  0
 22 23  2  0
 22 24  1  0
 25 24  1  1
 25 26  1  0
 25 27  1  0
 27 29  1  0
 28 27  2  0
M  END
$$$$
