EFN.pdb
     RDKit          3D

 29 29  0  0  1  0  0  0  0  0999 V2000
   27.9064  -21.7291  -15.3956 N   0  0  0  0  0  0  0  0  0  0  0  0
   27.4546  -20.6217  -14.5908 C   0  0  1  0  0  0  0  0  0  0  0  0
   26.9499  -19.4796  -15.4198 C   0  0  0  0  0  0  0  0  0  0  0  0
   26.9615  -19.7388  -16.8934 C   0  0  0  0  0  0  0  0  0  0  0  0
   28.2240  -19.2216  -17.4584 C   0  0  0  0  0  0  0  0  0  0  0  0
   28.4653  -17.9760  -17.4529 O   0  0  0  0  0  0  0  0  0  0  0  0
   26.4948  -21.1182  -13.5819 C   0  0  0  0  0  0  0  0  0  0  0  0
   25.8610  -22.1851  -13.7779 O   0  0  0  0  0  0  0  0  0  0  0  0
   29.1523  -20.0827  -17.9962 O   0  0  0  0  0  0  0  0  0  0  0  0
   26.2687  -20.4198  -12.3877 N   0  0  0  0  0  0  0  0  0  0  0  0
   25.3179  -20.7627  -11.3543 C   0  0  1  0  0  0  0  0  0  0  0  0
   25.7137  -19.9548  -10.1368 C   0  0  0  0  0  0  0  0  0  0  0  0
   26.9489  -20.3881   -9.4885 C   0  0  0  0  0  0  0  0  0  0  0  0
   27.9102  -21.1509  -10.1091 C   0  0  0  0  0  0  0  0  0  0  0  0
   29.0363  -21.4966   -9.4071 C   0  0  0  0  0  0  0  0  0  0  0  0
   29.2467  -21.1092   -8.0993 C   0  0  0  0  0  0  0  0  0  0  0  0
   28.2880  -20.3384   -7.4543 C   0  0  0  0  0  0  0  0  0  0  0  0
   27.1672  -20.0000   -8.1668 C   0  0  0  0  0  0  0  0  0  0  0  0
   23.9888  -20.2309  -11.7667 C   0  0  0  0  0  0  0  0  0  0  0  0
   23.7066  -19.0218  -11.8350 O   0  0  0  0  0  0  0  0  0  0  0  0
   20.6607  -19.4041  -15.5105 N   0  0  0  0  0  0  0  0  0  0  0  0
   21.1312  -20.7478  -15.2923 C   0  0  0  0  0  0  0  0  0  0  0  0
   20.4558  -21.6634  -15.8232 O   0  0  0  0  0  0  0  0  0  0  0  0
   22.3548  -20.9623  -14.4779 C   0  0  0  0  0  0  0  0  0  0  0  0
   21.9168  -20.9215  -13.0357 C   0  0  2  0  0  0  0  0  0  0  0  0
   22.9665  -21.1726  -12.1049 N   0  0  0  0  0  0  0  0  0  0  0  0
   20.9060  -21.9936  -12.8984 C   0  0  0  0  0  0  0  0  0  0  0  0
   19.7323  -21.8141  -13.2681 O   0  0  0  0  0  0  0  0  0  0  0  0
   21.2695  -23.2028  -12.3554 O   0  0  0  0  0  0  0  0  0  0  0  0
  2  1  1  6
  2  7  1  0
  2  3  1  0
  3  4  1  0
  4  5  1  0
  5  6  2  0
  5  9  1  0
  7  8  2  0
  7 10  1  0
 10 11  1  0
 11 12  1  1
 12 13  1  0
 13 14  2  0
 13 18  1  0
 14 15  1  0
 15 16  2  0
 17 16  1  0
 18 17  2  0
 19 26  1  0
 19 11  1  0
 20 19  2  0
 21 22  1  0
 22 23  2  0
 22 24  1  0
 25 24  1  6
 25 26  1  0
 25 27  1  0
 27 29  1  0
 28 27  2  0
M  END
$$$$
