EFN.pdb
     RDKit          3D

 29 29  0  0  1  0  0  0  0  0999 V2000
   34.7617  -23.4822    9.3510 N   0  0  0  0  0  0  0  0  0  0  0  0
   33.4002  -23.6301    9.8011 C   0  0  1  0  0  0  0  0  0  0  0  0
   33.2940  -24.4688   11.0386 C   0  0  0  0  0  0  0  0  0  0  0  0
   33.5004  -25.9326   10.8074 C   0  0  0  0  0  0  0  0  0  0  0  0
   32.1825  -26.5816   10.6560 C   0  0  0  0  0  0  0  0  0  0  0  0
   32.0286  -27.8004   10.9732 O   0  0  0  0  0  0  0  0  0  0  0  0
   32.7805  -22.2924    9.9119 C   0  0  0  0  0  0  0  0  0  0  0  0
   33.4702  -21.2979   10.2488 O   0  0  0  0  0  0  0  0  0  0  0  0
   31.1076  -25.8736   10.1704 O   0  0  0  0  0  0  0  0  0  0  0  0
   31.4184  -22.0975    9.6443 N   0  0  0  0  0  0  0  0  0  0  0  0
   30.7030  -20.8420    9.6799 C   0  0  1  0  0  0  0  0  0  0  0  0
   30.1683  -20.6253    8.2803 C   0  0  0  0  0  0  0  0  0  0  0  0
   31.1146  -20.0144    7.3501 C   0  0  0  0  0  0  0  0  0  0  0  0
   31.5326  -18.7070    7.4347 C   0  0  0  0  0  0  0  0  0  0  0  0
   32.4301  -18.2377    6.5103 C   0  0  0  0  0  0  0  0  0  0  0  0
   32.9341  -19.0254    5.4952 C   0  0  0  0  0  0  0  0  0  0  0  0
   32.5247  -20.3487    5.3923 C   0  0  0  0  0  0  0  0  0  0  0  0
   31.6272  -20.8052    6.3220 C   0  0  0  0  0  0  0  0  0  0  0  0
   29.4999  -21.0300   10.5381 C   0  0  0  0  0  0  0  0  0  0  0  0
   28.7843  -22.0469   10.5312 O   0  0  0  0  0  0  0  0  0  0  0  0
   26.7833  -20.5977   14.6487 N   0  0  0  0  0  0  0  0  0  0  0  0
   28.1655  -20.9414   14.8630 C   0  0  0  0  0  0  0  0  0  0  0  0
   28.4417  -21.4557   15.9746 O   0  0  0  0  0  0  0  0  0  0  0  0
   29.1522  -20.6770   13.7846 C   0  0  0  0  0  0  0  0  0  0  0  0
   28.3674  -20.1415   12.6138 C   0  0  2  0  0  0  0  0  0  0  0  0
   29.1406  -19.9700   11.4289 N   0  0  0  0  0  0  0  0  0  0  0  0
   27.8717  -18.8148   13.0429 C   0  0  0  0  0  0  0  0  0  0  0  0
   28.2849  -17.7744   12.5014 O   0  0  0  0  0  0  0  0  0  0  0  0
   26.9427  -18.7322   14.0525 O   0  0  0  0  0  0  0  0  0  0  0  0
  2  1  1  1
  2  7  1  0
  2  3  1  0
  3  4  1  0
  4  5  1  0
  5  6  2  0
  5  9  1  0
  7  8  2  0
  7 10  1  0
 10 11  1  0
 11 12  1  6
 12 13  1  0
 13 14  2  0
 13 18  1  0
 14 15  1  0
 15 16  2  0
 17 16  1  0
 18 17  2  0
 19 26  1  0
 19 11  1  0
 20 19  2  0
 21 22  1  0
 22 23  2  0
 22 24  1  0
 25 24  1  1
 25 26  1  0
 25 27  1  0
 27 29  1  0
 28 27  2  0
M  END
$$$$
