EFN.pdb
     RDKit          3D

 29 29  0  0  1  0  0  0  0  0999 V2000
   28.0576  -23.1585  -17.2029 N   0  0  0  0  0  0  0  0  0  0  0  0
   27.7480  -21.8898  -16.5925 C   0  0  1  0  0  0  0  0  0  0  0  0
   27.1553  -20.9157  -17.5651 C   0  0  0  0  0  0  0  0  0  0  0  0
   28.0779  -20.5171  -18.6737 C   0  0  0  0  0  0  0  0  0  0  0  0
   27.3149  -20.4766  -19.9374 C   0  0  0  0  0  0  0  0  0  0  0  0
   27.8438  -20.8795  -21.0180 O   0  0  0  0  0  0  0  0  0  0  0  0
   26.9304  -22.1229  -15.3830 C   0  0  0  0  0  0  0  0  0  0  0  0
   26.0477  -23.0168  -15.3745 O   0  0  0  0  0  0  0  0  0  0  0  0
   26.0236  -20.0027  -19.9580 O   0  0  0  0  0  0  0  0  0  0  0  0
   27.1172  -21.3613  -14.2210 N   0  0  0  0  0  0  0  0  0  0  0  0
   26.2942  -21.3838  -13.0329 C   0  0  1  0  0  0  0  0  0  0  0  0
   27.0501  -20.5946  -11.9854 C   0  0  0  0  0  0  0  0  0  0  0  0
   26.3364  -20.4083  -10.7245 C   0  0  0  0  0  0  0  0  0  0  0  0
   25.8289  -19.2008  -10.3055 C   0  0  0  0  0  0  0  0  0  0  0  0
   25.1697  -19.1405   -9.1046 C   0  0  0  0  0  0  0  0  0  0  0  0
   24.9927  -20.2449   -8.2961 C   0  0  0  0  0  0  0  0  0  0  0  0
   25.4976  -21.4739   -8.7011 C   0  0  0  0  0  0  0  0  0  0  0  0
   26.1546  -21.5205   -9.9029 C   0  0  0  0  0  0  0  0  0  0  0  0
   25.0664  -20.5894  -13.3169 C   0  0  0  0  0  0  0  0  0  0  0  0
   25.0674  -19.4436  -13.8000 O   0  0  0  0  0  0  0  0  0  0  0  0
   23.2367  -20.0980  -15.6611 N   0  0  0  0  0  0  0  0  0  0  0  0
   22.0992  -20.9636  -15.4841 C   0  0  0  0  0  0  0  0  0  0  0  0
   21.6010  -21.4434  -16.5320 O   0  0  0  0  0  0  0  0  0  0  0  0
   21.6006  -21.2311  -14.1108 C   0  0  0  0  0  0  0  0  0  0  0  0
   22.5455  -20.5251  -13.1715 C   0  0  2  0  0  0  0  0  0  0  0  0
   23.8004  -21.1815  -13.0119 N   0  0  0  0  0  0  0  0  0  0  0  0
   21.8596  -20.5057  -11.8604 C   0  0  0  0  0  0  0  0  0  0  0  0
   22.3036  -21.1579  -10.8991 O   0  0  0  0  0  0  0  0  0  0  0  0
   20.7176  -19.7570  -11.7035 O   0  0  0  0  0  0  0  0  0  0  0  0
  2  1  1  6
  2  7  1  0
  2  3  1  0
  3  4  1  0
  4  5  1  0
  5  6  2  0
  5  9  1  0
  7  8  2  0
  7 10  1  0
 10 11  1  0
 11 12  1  1
 12 13  1  0
 13 14  2  0
 13 18  1  0
 14 15  1  0
 15 16  2  0
 17 16  1  0
 18 17  2  0
 19 26  1  0
 19 11  1  0
 20 19  2  0
 21 22  1  0
 22 23  2  0
 22 24  1  0
 25 24  1  6
 25 26  1  0
 25 27  1  0
 27 29  1  0
 28 27  2  0
M  END
$$$$
