EFN.pdb
     RDKit          3D

 29 29  0  0  1  0  0  0  0  0999 V2000
   20.0569   -9.0570  -17.3096 N   0  0  0  0  0  0  0  0  0  0  0  0
   18.8552   -8.3955  -16.8664 C   0  0  1  0  0  0  0  0  0  0  0  0
   17.6261   -8.9319  -17.5356 C   0  0  0  0  0  0  0  0  0  0  0  0
   17.4831   -8.5297  -18.9697 C   0  0  0  0  0  0  0  0  0  0  0  0
   17.2797   -7.0686  -19.0369 C   0  0  0  0  0  0  0  0  0  0  0  0
   16.2017   -6.5518  -18.6119 O   0  0  0  0  0  0  0  0  0  0  0  0
   18.8085   -8.4184  -15.3889 C   0  0  0  0  0  0  0  0  0  0  0  0
   18.4982   -9.4718  -14.7787 O   0  0  0  0  0  0  0  0  0  0  0  0
   18.2551   -6.2515  -19.5599 O   0  0  0  0  0  0  0  0  0  0  0  0
   19.1088   -7.2761  -14.6340 N   0  0  0  0  0  0  0  0  0  0  0  0
   19.2265   -7.1989  -13.1954 C   0  0  1  0  0  0  0  0  0  0  0  0
   20.6671   -6.8297  -12.9127 C   0  0  0  0  0  0  0  0  0  0  0  0
   21.6335   -7.8969  -13.1600 C   0  0  0  0  0  0  0  0  0  0  0  0
   21.7478   -9.0205  -12.3752 C   0  0  0  0  0  0  0  0  0  0  0  0
   22.6872   -9.9641  -12.7029 C   0  0  0  0  0  0  0  0  0  0  0  0
   23.5255   -9.8337  -13.7915 C   0  0  0  0  0  0  0  0  0  0  0  0
   23.4261   -8.7064  -14.5968 C   0  0  0  0  0  0  0  0  0  0  0  0
   22.4836   -7.7707  -14.2584 C   0  0  0  0  0  0  0  0  0  0  0  0
   18.4220   -6.0319  -12.7368 C   0  0  0  0  0  0  0  0  0  0  0  0
   18.4332   -4.9138  -13.2810 O   0  0  0  0  0  0  0  0  0  0  0  0
   15.0603   -3.2875  -10.3951 N   0  0  0  0  0  0  0  0  0  0  0  0
   14.6498   -4.6086   -9.9940 C   0  0  0  0  0  0  0  0  0  0  0  0
   13.5718   -4.6826   -9.3546 O   0  0  0  0  0  0  0  0  0  0  0  0
   15.5014   -5.7711  -10.3542 C   0  0  0  0  0  0  0  0  0  0  0  0
   16.6954   -5.2118  -11.0856 C   0  0  2  0  0  0  0  0  0  0  0  0
   17.5814   -6.2063  -11.5926 N   0  0  0  0  0  0  0  0  0  0  0  0
   17.4273   -4.4010  -10.0872 C   0  0  0  0  0  0  0  0  0  0  0  0
   18.3912   -4.8772   -9.4623 O   0  0  0  0  0  0  0  0  0  0  0  0
   17.0363   -3.1051   -9.8479 O   0  0  0  0  0  0  0  0  0  0  0  0
  2  1  1  6
  2  7  1  0
  2  3  1  0
  3  4  1  0
  4  5  1  0
  5  6  2  0
  5  9  1  0
  7  8  2  0
  7 10  1  0
 10 11  1  0
 11 12  1  6
 12 13  1  0
 13 14  2  0
 13 18  1  0
 14 15  1  0
 15 16  2  0
 17 16  1  0
 18 17  2  0
 19 26  1  0
 19 11  1  0
 20 19  2  0
 21 22  1  0
 22 23  2  0
 22 24  1  0
 25 24  1  1
 25 26  1  0
 25 27  1  0
 27 29  1  0
 28 27  2  0
M  END
$$$$
