EFN.pdb
     RDKit          3D

 29 29  0  0  1  0  0  0  0  0999 V2000
   15.5401  -19.6598    2.6167 N   0  0  0  0  0  0  0  0  0  0  0  0
   15.1436  -18.8996    3.7756 C   0  0  1  0  0  0  0  0  0  0  0  0
   14.2279  -19.6685    4.6791 C   0  0  0  0  0  0  0  0  0  0  0  0
   12.7963  -19.2386    4.6122 C   0  0  0  0  0  0  0  0  0  0  0  0
   12.5302  -18.2942    5.7159 C   0  0  0  0  0  0  0  0  0  0  0  0
   13.4635  -17.9502    6.5035 O   0  0  0  0  0  0  0  0  0  0  0  0
   16.3519  -18.3645    4.4385 C   0  0  0  0  0  0  0  0  0  0  0  0
   17.4722  -18.8995    4.2465 O   0  0  0  0  0  0  0  0  0  0  0  0
   11.2694  -17.7766    5.9027 O   0  0  0  0  0  0  0  0  0  0  0  0
   16.2824  -17.2535    5.2904 N   0  0  0  0  0  0  0  0  0  0  0  0
   17.3797  -16.6489    6.0114 C   0  0  1  0  0  0  0  0  0  0  0  0
   17.1070  -15.1599    6.0166 C   0  0  0  0  0  0  0  0  0  0  0  0
   17.8042  -14.4051    4.9784 C   0  0  0  0  0  0  0  0  0  0  0  0
   17.8172  -14.7649    3.6511 C   0  0  0  0  0  0  0  0  0  0  0  0
   18.5000  -13.9789    2.7587 C   0  0  0  0  0  0  0  0  0  0  0  0
   19.1768  -12.8374    3.1377 C   0  0  0  0  0  0  0  0  0  0  0  0
   19.1759  -12.4566    4.4736 C   0  0  0  0  0  0  0  0  0  0  0  0
   18.4902  -13.2507    5.3552 C   0  0  0  0  0  0  0  0  0  0  0  0
   17.2760  -17.0750    7.4352 C   0  0  0  0  0  0  0  0  0  0  0  0
   16.2096  -17.3632    8.0061 O   0  0  0  0  0  0  0  0  0  0  0  0
   19.0952  -20.3046   11.7170 N   0  0  0  0  0  0  0  0  0  0  0  0
   18.1929  -19.3104   11.1954 C   0  0  0  0  0  0  0  0  0  0  0  0
   17.4770  -18.7164   12.0387 O   0  0  0  0  0  0  0  0  0  0  0  0
   18.1672  -19.0533    9.7327 C   0  0  0  0  0  0  0  0  0  0  0  0
   18.5513  -17.6067    9.5497 C   0  0  2  0  0  0  0  0  0  0  0  0
   18.4826  -17.1563    8.1993 N   0  0  0  0  0  0  0  0  0  0  0  0
   19.9569  -17.5099   10.0022 C   0  0  0  0  0  0  0  0  0  0  0  0
   20.8912  -17.4958    9.1816 O   0  0  0  0  0  0  0  0  0  0  0  0
   20.2328  -17.4343   11.3466 O   0  0  0  0  0  0  0  0  0  0  0  0
  2  1  1  6
  2  7  1  0
  2  3  1  0
  3  4  1  0
  4  5  1  0
  5  6  2  0
  5  9  1  0
  7  8  2  0
  7 10  1  0
 10 11  1  0
 11 12  1  1
 12 13  1  0
 13 14  2  0
 13 18  1  0
 14 15  1  0
 15 16  2  0
 17 16  1  0
 18 17  2  0
 19 26  1  0
 19 11  1  0
 20 19  2  0
 21 22  1  0
 22 23  2  0
 22 24  1  0
 25 24  1  6
 25 26  1  0
 25 27  1  0
 27 29  1  0
 28 27  2  0
M  END
$$$$
