EFN.pdb
     RDKit          3D

 29 29  0  0  1  0  0  0  0  0999 V2000
   22.4048  -18.0068  -16.4999 N   0  0  0  0  0  0  0  0  0  0  0  0
   21.9991  -16.7889  -17.1559 C   0  0  1  0  0  0  0  0  0  0  0  0
   20.5401  -16.7816  -17.4987 C   0  0  0  0  0  0  0  0  0  0  0  0
   19.6977  -17.6459  -16.6144 C   0  0  0  0  0  0  0  0  0  0  0  0
   18.5766  -16.8409  -16.0890 C   0  0  0  0  0  0  0  0  0  0  0  0
   17.7804  -16.2556  -16.8847 O   0  0  0  0  0  0  0  0  0  0  0  0
   22.4449  -15.6339  -16.3479 C   0  0  0  0  0  0  0  0  0  0  0  0
   22.1713  -15.5708  -15.1234 O   0  0  0  0  0  0  0  0  0  0  0  0
   18.3824  -16.7163  -14.7328 O   0  0  0  0  0  0  0  0  0  0  0  0
   23.1810  -14.5870  -16.9198 N   0  0  0  0  0  0  0  0  0  0  0  0
   23.5997  -13.3682  -16.2651 C   0  0  1  0  0  0  0  0  0  0  0  0
   25.0045  -13.0908  -16.7561 C   0  0  0  0  0  0  0  0  0  0  0  0
   25.5826  -11.8352  -16.2837 C   0  0  0  0  0  0  0  0  0  0  0  0
   25.7704  -10.7324  -17.0835 C   0  0  0  0  0  0  0  0  0  0  0  0
   26.3171   -9.6013  -16.5338 C   0  0  0  0  0  0  0  0  0  0  0  0
   26.6874   -9.5225  -15.2066 C   0  0  0  0  0  0  0  0  0  0  0  0
   26.5059  -10.6253  -14.3819 C   0  0  0  0  0  0  0  0  0  0  0  0
   25.9590  -11.7495  -14.9435 C   0  0  0  0  0  0  0  0  0  0  0  0
   22.7664  -12.2560  -16.8019 C   0  0  0  0  0  0  0  0  0  0  0  0
   22.3780  -12.1751  -17.9804 O   0  0  0  0  0  0  0  0  0  0  0  0
   18.9618   -9.0241  -17.8476 N   0  0  0  0  0  0  0  0  0  0  0  0
   19.4597   -9.0235  -16.4960 C   0  0  0  0  0  0  0  0  0  0  0  0
   19.2849   -7.9657  -15.8427 O   0  0  0  0  0  0  0  0  0  0  0  0
   20.1281  -10.2416  -15.9710 C   0  0  0  0  0  0  0  0  0  0  0  0
   21.5974  -10.0812  -16.2693 C   0  0  2  0  0  0  0  0  0  0  0  0
   22.3886  -11.2088  -15.9037 N   0  0  0  0  0  0  0  0  0  0  0  0
   22.0404   -8.9206  -15.4650 C   0  0  0  0  0  0  0  0  0  0  0  0
   22.5660   -9.0815  -14.3496 O   0  0  0  0  0  0  0  0  0  0  0  0
   21.8687   -7.6490  -15.9578 O   0  0  0  0  0  0  0  0  0  0  0  0
  2  1  1  1
  2  7  1  0
  2  3  1  0
  3  4  1  0
  4  5  1  0
  5  6  2  0
  5  9  1  0
  7  8  2  0
  7 10  1  0
 10 11  1  0
 11 12  1  6
 12 13  1  0
 13 14  2  0
 13 18  1  0
 14 15  1  0
 15 16  2  0
 17 16  1  0
 18 17  2  0
 19 26  1  0
 19 11  1  0
 20 19  2  0
 21 22  1  0
 22 23  2  0
 22 24  1  0
 25 24  1  1
 25 26  1  0
 25 27  1  0
 27 29  1  0
 28 27  2  0
M  END
$$$$
