EFN.pdb
     RDKit          3D

 29 29  0  0  1  0  0  0  0  0999 V2000
   29.0365  -20.9880  -14.0785 N   0  0  0  0  0  0  0  0  0  0  0  0
   28.0260  -20.0391  -13.6828 C   0  0  1  0  0  0  0  0  0  0  0  0
   27.4717  -19.2741  -14.8463 C   0  0  0  0  0  0  0  0  0  0  0  0
   28.4957  -18.5023  -15.6172 C   0  0  0  0  0  0  0  0  0  0  0  0
   27.8187  -17.7635  -16.7020 C   0  0  0  0  0  0  0  0  0  0  0  0
   27.2705  -16.6433  -16.4688 O   0  0  0  0  0  0  0  0  0  0  0  0
   27.0086  -20.7310  -12.8631 C   0  0  0  0  0  0  0  0  0  0  0  0
   26.5877  -21.8666  -13.1971 O   0  0  0  0  0  0  0  0  0  0  0  0
   27.7746  -18.2800  -17.9762 O   0  0  0  0  0  0  0  0  0  0  0  0
   26.4914  -20.1456  -11.6992 N   0  0  0  0  0  0  0  0  0  0  0  0
   25.4378  -20.6738  -10.8624 C   0  0  1  0  0  0  0  0  0  0  0  0
   25.4777  -19.8686   -9.5812 C   0  0  0  0  0  0  0  0  0  0  0  0
   26.6633  -20.0870   -8.7564 C   0  0  0  0  0  0  0  0  0  0  0  0
   27.1077  -19.1967   -7.8071 C   0  0  0  0  0  0  0  0  0  0  0  0
   28.2311  -19.5057   -7.0840 C   0  0  0  0  0  0  0  0  0  0  0  0
   28.9368  -20.6773   -7.2689 C   0  0  0  0  0  0  0  0  0  0  0  0
   28.5045  -21.5899   -8.2227 C   0  0  0  0  0  0  0  0  0  0  0  0
   27.3809  -21.2689   -8.9388 C   0  0  0  0  0  0  0  0  0  0  0  0
   24.1366  -20.3334  -11.5030 C   0  0  0  0  0  0  0  0  0  0  0  0
   23.9210  -19.2898  -12.1439 O   0  0  0  0  0  0  0  0  0  0  0  0
   20.9599  -22.5921  -15.2111 N   0  0  0  0  0  0  0  0  0  0  0  0
   20.7061  -22.7667  -13.8041 C   0  0  0  0  0  0  0  0  0  0  0  0
   19.5012  -22.8778  -13.4690 O   0  0  0  0  0  0  0  0  0  0  0  0
   21.8535  -22.8068  -12.8617 C   0  0  0  0  0  0  0  0  0  0  0  0
   21.9997  -21.4105  -12.3118 C   0  0  2  0  0  0  0  0  0  0  0  0
   23.0609  -21.2672  -11.3713 N   0  0  0  0  0  0  0  0  0  0  0  0
   20.7231  -21.1210  -11.6216 C   0  0  0  0  0  0  0  0  0  0  0  0
   20.5504  -21.4523  -10.4355 O   0  0  0  0  0  0  0  0  0  0  0  0
   19.7159  -20.4776  -12.3005 O   0  0  0  0  0  0  0  0  0  0  0  0
  2  1  1  6
  2  7  1  0
  2  3  1  0
  3  4  1  0
  4  5  1  0
  5  6  2  0
  5  9  1  0
  7  8  2  0
  7 10  1  0
 10 11  1  0
 11 12  1  1
 12 13  1  0
 13 14  2  0
 13 18  1  0
 14 15  1  0
 15 16  2  0
 17 16  1  0
 18 17  2  0
 19 26  1  0
 19 11  1  0
 20 19  2  0
 21 22  1  0
 22 23  2  0
 22 24  1  0
 25 24  1  1
 25 26  1  0
 25 27  1  0
 27 29  1  0
 28 27  2  0
M  END
$$$$
