EFN.pdb
     RDKit          3D

 29 29  0  0  1  0  0  0  0  0999 V2000
   20.6491  -13.7272  -18.9016 N   0  0  0  0  0  0  0  0  0  0  0  0
   21.4137  -12.5386  -18.6174 C   0  0  1  0  0  0  0  0  0  0  0  0
   22.2811  -12.1268  -19.7681 C   0  0  0  0  0  0  0  0  0  0  0  0
   23.5388  -12.9256  -19.9052 C   0  0  0  0  0  0  0  0  0  0  0  0
   24.6196  -12.2435  -19.1653 C   0  0  0  0  0  0  0  0  0  0  0  0
   24.9629  -12.6503  -18.0136 O   0  0  0  0  0  0  0  0  0  0  0  0
   20.5010  -11.4830  -18.1290 C   0  0  0  0  0  0  0  0  0  0  0  0
   19.4690  -11.1835  -18.7798 O   0  0  0  0  0  0  0  0  0  0  0  0
   25.2663  -11.1609  -19.7151 O   0  0  0  0  0  0  0  0  0  0  0  0
   20.7580  -10.7945  -16.9353 N   0  0  0  0  0  0  0  0  0  0  0  0
   19.9603   -9.7343  -16.3617 C   0  0  1  0  0  0  0  0  0  0  0  0
   19.2308  -10.3489  -15.1862 C   0  0  0  0  0  0  0  0  0  0  0  0
   18.0306  -11.1043  -15.5364 C   0  0  0  0  0  0  0  0  0  0  0  0
   17.9774  -12.4780  -15.5761 C   0  0  0  0  0  0  0  0  0  0  0  0
   16.7948  -13.0853  -15.9122 C   0  0  0  0  0  0  0  0  0  0  0  0
   15.6512  -12.3735  -16.2127 C   0  0  0  0  0  0  0  0  0  0  0  0
   15.6839  -10.9853  -16.1783 C   0  0  0  0  0  0  0  0  0  0  0  0
   16.8718  -10.3907  -15.8414 C   0  0  0  0  0  0  0  0  0  0  0  0
   20.8931   -8.7350  -15.7696 C   0  0  0  0  0  0  0  0  0  0  0  0
   21.9455   -9.0235  -15.1735 O   0  0  0  0  0  0  0  0  0  0  0  0
   23.0107   -4.4220  -14.5759 N   0  0  0  0  0  0  0  0  0  0  0  0
   21.9291   -3.9466  -15.3996 C   0  0  0  0  0  0  0  0  0  0  0  0
   21.9005   -2.7101  -15.6156 O   0  0  0  0  0  0  0  0  0  0  0  0
   20.9425   -4.9214  -15.9315 C   0  0  0  0  0  0  0  0  0  0  0  0
   21.3805   -6.2783  -15.4412 C   0  0  2  0  0  0  0  0  0  0  0  0
   20.5561   -7.3501  -15.8917 N   0  0  0  0  0  0  0  0  0  0  0  0
   21.2945   -6.2129  -13.9653 C   0  0  0  0  0  0  0  0  0  0  0  0
   20.3964   -6.8158  -13.3518 O   0  0  0  0  0  0  0  0  0  0  0  0
   22.2193   -5.4764  -13.2642 O   0  0  0  0  0  0  0  0  0  0  0  0
  2  1  1  6
  2  7  1  0
  2  3  1  0
  3  4  1  0
  4  5  1  0
  5  6  2  0
  5  9  1  0
  7  8  2  0
  7 10  1  0
 10 11  1  0
 11 12  1  1
 12 13  1  0
 13 14  2  0
 13 18  1  0
 14 15  1  0
 15 16  2  0
 17 16  1  0
 18 17  2  0
 19 26  1  0
 19 11  1  0
 20 19  2  0
 21 22  1  0
 22 23  2  0
 22 24  1  0
 25 24  1  6
 25 26  1  0
 25 27  1  0
 27 29  1  0
 28 27  2  0
M  END
$$$$
