EFN.pdb
     RDKit          3D

 29 29  0  0  1  0  0  0  0  0999 V2000
   27.6499  -22.5199  -17.2328 N   0  0  0  0  0  0  0  0  0  0  0  0
   27.7510  -21.3966  -16.3349 C   0  0  1  0  0  0  0  0  0  0  0  0
   27.5628  -20.0850  -17.0352 C   0  0  0  0  0  0  0  0  0  0  0  0
   26.6327  -20.1423  -18.2059 C   0  0  0  0  0  0  0  0  0  0  0  0
   25.2525  -19.9218  -17.7293 C   0  0  0  0  0  0  0  0  0  0  0  0
   24.9016  -18.7858  -17.2866 O   0  0  0  0  0  0  0  0  0  0  0  0
   26.8461  -21.6139  -15.1862 C   0  0  0  0  0  0  0  0  0  0  0  0
   25.8370  -22.3531  -15.3025 O   0  0  0  0  0  0  0  0  0  0  0  0
   24.3320  -20.9437  -17.7599 O   0  0  0  0  0  0  0  0  0  0  0  0
   27.0879  -21.0085  -13.9452 N   0  0  0  0  0  0  0  0  0  0  0  0
   26.3165  -21.1825  -12.7353 C   0  0  1  0  0  0  0  0  0  0  0  0
   27.1756  -20.6454  -11.6105 C   0  0  0  0  0  0  0  0  0  0  0  0
   26.4817  -20.4753  -10.3364 C   0  0  0  0  0  0  0  0  0  0  0  0
   26.2744  -19.2552   -9.7366 C   0  0  0  0  0  0  0  0  0  0  0  0
   25.6042  -19.2105   -8.5411 C   0  0  0  0  0  0  0  0  0  0  0  0
   25.1265  -20.3425   -7.9125 C   0  0  0  0  0  0  0  0  0  0  0  0
   25.3253  -21.5845   -8.5018 C   0  0  0  0  0  0  0  0  0  0  0  0
   25.9968  -21.6155   -9.6961 C   0  0  0  0  0  0  0  0  0  0  0  0
   25.1441  -20.2664  -12.8095 C   0  0  0  0  0  0  0  0  0  0  0  0
   25.2075  -19.0703  -13.1434 O   0  0  0  0  0  0  0  0  0  0  0  0
   20.4465  -18.6376  -12.6303 N   0  0  0  0  0  0  0  0  0  0  0  0
   20.9468  -19.0282  -13.9232 C   0  0  0  0  0  0  0  0  0  0  0  0
   20.2871  -18.6308  -14.9148 O   0  0  0  0  0  0  0  0  0  0  0  0
   22.1804  -19.8518  -14.0027 C   0  0  0  0  0  0  0  0  0  0  0  0
   22.6360  -20.0714  -12.5823 C   0  0  2  0  0  0  0  0  0  0  0  0
   23.8585  -20.7955  -12.4722 N   0  0  0  0  0  0  0  0  0  0  0  0
   21.5646  -20.8657  -11.9411 C   0  0  0  0  0  0  0  0  0  0  0  0
   21.7288  -22.0727  -11.6910 O   0  0  0  0  0  0  0  0  0  0  0  0
   20.3732  -20.2612  -11.6179 O   0  0  0  0  0  0  0  0  0  0  0  0
  2  1  1  6
  2  7  1  0
  2  3  1  0
  3  4  1  0
  4  5  1  0
  5  6  2  0
  5  9  1  0
  7  8  2  0
  7 10  1  0
 10 11  1  0
 11 12  1  1
 12 13  1  0
 13 14  2  0
 13 18  1  0
 14 15  1  0
 15 16  2  0
 17 16  1  0
 18 17  2  0
 19 26  1  0
 19 11  1  0
 20 19  2  0
 21 22  1  0
 22 23  2  0
 22 24  1  0
 25 24  1  6
 25 26  1  0
 25 27  1  0
 27 29  1  0
 28 27  2  0
M  END
$$$$
