EFN.pdb
     RDKit          3D

 29 29  0  0  1  0  0  0  0  0999 V2000
   21.6708  -12.8648  -16.4824 N   0  0  0  0  0  0  0  0  0  0  0  0
   21.3551  -11.5078  -16.8526 C   0  0  1  0  0  0  0  0  0  0  0  0
   19.8845  -11.2946  -17.0474 C   0  0  0  0  0  0  0  0  0  0  0  0
   19.2663  -12.1863  -18.0776 C   0  0  0  0  0  0  0  0  0  0  0  0
   17.8254  -11.8769  -18.1731 C   0  0  0  0  0  0  0  0  0  0  0  0
   17.4399  -10.7546  -18.6221 O   0  0  0  0  0  0  0  0  0  0  0  0
   21.9858  -10.5845  -15.8855 C   0  0  0  0  0  0  0  0  0  0  0  0
   22.0343  -10.8778  -14.6649 O   0  0  0  0  0  0  0  0  0  0  0  0
   16.8856  -12.8002  -17.7774 O   0  0  0  0  0  0  0  0  0  0  0  0
   22.5445   -9.3675  -16.2999 N   0  0  0  0  0  0  0  0  0  0  0  0
   23.2336   -8.4067  -15.4684 C   0  0  1  0  0  0  0  0  0  0  0  0
   24.5676   -8.1545  -16.1381 C   0  0  0  0  0  0  0  0  0  0  0  0
   25.4503   -9.3166  -16.2036 C   0  0  0  0  0  0  0  0  0  0  0  0
   25.6851  -10.0333  -17.3536 C   0  0  0  0  0  0  0  0  0  0  0  0
   26.5385  -11.1055  -17.3029 C   0  0  0  0  0  0  0  0  0  0  0  0
   27.1746  -11.4966  -16.1422 C   0  0  0  0  0  0  0  0  0  0  0  0
   26.9509  -10.7860  -14.9699 C   0  0  0  0  0  0  0  0  0  0  0  0
   26.0957   -9.7170  -15.0339 C   0  0  0  0  0  0  0  0  0  0  0  0
   22.4951   -7.1161  -15.5597 C   0  0  0  0  0  0  0  0  0  0  0  0
   22.8118   -6.0809  -14.9479 O   0  0  0  0  0  0  0  0  0  0  0  0
   19.6896   -3.1653  -18.7554 N   0  0  0  0  0  0  0  0  0  0  0  0
   19.4023   -4.2805  -17.8904 C   0  0  0  0  0  0  0  0  0  0  0  0
   18.4163   -4.1469  -17.1247 O   0  0  0  0  0  0  0  0  0  0  0  0
   20.2640   -5.4885  -17.9573 C   0  0  0  0  0  0  0  0  0  0  0  0
   20.4896   -5.9280  -16.5327 C   0  0  2  0  0  0  0  0  0  0  0  0
   21.3426   -7.0626  -16.4054 N   0  0  0  0  0  0  0  0  0  0  0  0
   19.1520   -6.2900  -16.0134 C   0  0  0  0  0  0  0  0  0  0  0  0
   18.5382   -7.2733  -16.4637 O   0  0  0  0  0  0  0  0  0  0  0  0
   18.5814   -5.5296  -15.0207 O   0  0  0  0  0  0  0  0  0  0  0  0
  2  1  1  1
  2  7  1  0
  2  3  1  0
  3  4  1  0
  4  5  1  0
  5  6  2  0
  5  9  1  0
  7  8  2  0
  7 10  1  0
 10 11  1  0
 11 12  1  6
 12 13  1  0
 13 14  2  0
 13 18  1  0
 14 15  1  0
 15 16  2  0
 17 16  1  0
 18 17  2  0
 19 26  1  0
 19 11  1  0
 20 19  2  0
 21 22  1  0
 22 23  2  0
 22 24  1  0
 25 24  1  6
 25 26  1  0
 25 27  1  0
 27 29  1  0
 28 27  2  0
M  END
$$$$
