EFN.pdb
     RDKit          3D

 29 29  0  0  1  0  0  0  0  0999 V2000
   26.5518  -19.6646  -15.2701 N   0  0  0  0  0  0  0  0  0  0  0  0
   26.7800  -21.0850  -15.1767 C   0  0  1  0  0  0  0  0  0  0  0  0
   28.1269  -21.4842  -15.6988 C   0  0  0  0  0  0  0  0  0  0  0  0
   28.6092  -20.6571  -16.8487 C   0  0  0  0  0  0  0  0  0  0  0  0
   27.6470  -20.7817  -17.9620 C   0  0  0  0  0  0  0  0  0  0  0  0
   27.5259  -21.8810  -18.5838 O   0  0  0  0  0  0  0  0  0  0  0  0
   26.5021  -21.5286  -13.7941 C   0  0  0  0  0  0  0  0  0  0  0  0
   26.6526  -22.7330  -13.4702 O   0  0  0  0  0  0  0  0  0  0  0  0
   26.8714  -19.7093  -18.3373 O   0  0  0  0  0  0  0  0  0  0  0  0
   26.0689  -20.6252  -12.8137 N   0  0  0  0  0  0  0  0  0  0  0  0
   25.7271  -20.9364  -11.4441 C   0  0  1  0  0  0  0  0  0  0  0  0
   26.3782  -19.8644  -10.5965 C   0  0  0  0  0  0  0  0  0  0  0  0
   27.3088  -20.3623   -9.5865 C   0  0  0  0  0  0  0  0  0  0  0  0
   28.4419  -21.0835   -9.8816 C   0  0  0  0  0  0  0  0  0  0  0  0
   29.2499  -21.4971   -8.8537 C   0  0  0  0  0  0  0  0  0  0  0  0
   28.9731  -21.2185   -7.5306 C   0  0  0  0  0  0  0  0  0  0  0  0
   27.8335  -20.4913   -7.2114 C   0  0  0  0  0  0  0  0  0  0  0  0
   27.0344  -20.0842   -8.2477 C   0  0  0  0  0  0  0  0  0  0  0  0
   24.2603  -20.7298  -11.2849 C   0  0  0  0  0  0  0  0  0  0  0  0
   23.7467  -19.9312  -10.4820 O   0  0  0  0  0  0  0  0  0  0  0  0
   21.0104  -19.0884  -15.6085 N   0  0  0  0  0  0  0  0  0  0  0  0
   21.2482  -19.3354  -14.2096 C   0  0  0  0  0  0  0  0  0  0  0  0
   20.3097  -19.0422  -13.4288 O   0  0  0  0  0  0  0  0  0  0  0  0
   22.5517  -19.9093  -13.7877 C   0  0  0  0  0  0  0  0  0  0  0  0
   22.2357  -20.9800  -12.7743 C   0  0  2  0  0  0  0  0  0  0  0  0
   23.3821  -21.5026  -12.1082 N   0  0  0  0  0  0  0  0  0  0  0  0
   21.6021  -22.0760  -13.5407 C   0  0  0  0  0  0  0  0  0  0  0  0
   22.1735  -22.5795  -14.5238 O   0  0  0  0  0  0  0  0  0  0  0  0
   20.3666  -22.5432  -13.1605 O   0  0  0  0  0  0  0  0  0  0  0  0
  2  1  1  1
  2  7  1  0
  2  3  1  0
  3  4  1  0
  4  5  1  0
  5  6  2  0
  5  9  1  0
  7  8  2  0
  7 10  1  0
 10 11  1  0
 11 12  1  1
 12 13  1  0
 13 14  2  0
 13 18  1  0
 14 15  1  0
 15 16  2  0
 17 16  1  0
 18 17  2  0
 19 26  1  0
 19 11  1  0
 20 19  2  0
 21 22  1  0
 22 23  2  0
 22 24  1  0
 25 24  1  6
 25 26  1  0
 25 27  1  0
 27 29  1  0
 28 27  2  0
M  END
$$$$
