YDP.pdb
     RDKit          3D

 28 29  0  0  1  0  0  0  0  0999 V2000
   10.9446  -14.4058   30.8160 O   0  0  0  0  0  0  0  0  0  0  0  0
   10.9124  -15.3335   29.7971 C   0  0  0  0  0  0  0  0  0  0  0  0
   11.5500  -16.5606   29.9568 C   0  0  0  0  0  0  0  0  0  0  0  0
   11.5169  -17.4822   28.9420 C   0  0  0  0  0  0  0  0  0  0  0  0
   10.8394  -17.1559   27.7739 C   0  0  0  0  0  0  0  0  0  0  0  0
   10.8020  -18.1490   26.6768 C   0  0  0  0  0  0  0  0  0  0  0  0
   11.8609  -17.8561   25.6389 C   0  0  2  0  0  0  0  0  0  0  0  0
   13.0716  -17.4870   26.3145 N   0  0  0  0  0  0  0  0  0  0  0  0
   11.3429  -16.7533   24.7798 C   0  0  0  0  0  0  0  0  0  0  0  0
   11.8164  -15.5960   24.8846 O   0  0  0  0  0  0  0  0  0  0  0  0
   10.2103  -15.9496   27.6118 C   0  0  0  0  0  0  0  0  0  0  0  0
   10.2507  -15.0391   28.6314 C   0  0  0  0  0  0  0  0  0  0  0  0
   10.3224  -16.9997   23.8474 N   0  0  0  0  0  0  0  0  0  0  0  0
    9.5335  -15.9389   23.2205 C   0  0  1  0  0  0  0  0  0  0  0  0
    8.8243  -16.4950   22.0087 C   0  0  0  0  0  0  0  0  0  0  0  0
    8.0391  -15.5055   21.2645 C   0  0  0  0  0  0  0  0  0  0  0  0
    8.7149  -14.6488   20.6065 O   0  0  0  0  0  0  0  0  0  0  0  0
    8.6371  -15.3734   24.2368 C   0  0  0  0  0  0  0  0  0  0  0  0
    8.5381  -16.0796   25.3170 O   0  0  0  0  0  0  0  0  0  0  0  0
    6.6809  -15.3937   21.1935 O   0  0  0  0  0  0  0  0  0  0  0  0
    7.8957  -14.1914   24.1830 N   0  0  0  0  0  0  0  0  0  0  0  0
    7.7208  -13.3699   23.0126 C   0  0  0  0  0  0  0  0  0  0  0  0
    7.7264  -11.9647   23.6123 C   0  0  0  0  0  0  0  0  0  0  0  0
    7.6598  -12.1416   25.1151 C   0  0  0  0  0  0  0  0  0  0  0  0
    7.1388  -13.5661   25.2129 C   0  0  1  0  0  0  0  0  0  0  0  0
    5.6757  -13.6254   24.9838 C   0  0  0  0  0  0  0  0  0  0  0  0
    4.7969  -13.2260   25.9413 O   0  0  0  0  0  0  0  0  0  0  0  0
    5.2563  -14.0510   23.8879 O   0  0  0  0  0  0  0  0  0  0  0  0
  1  2  1  0
  2  3  2  0
  3  4  1  0
  5  4  2  0
  5  6  1  0
  7  6  1  0
  7  8  1  1
  9  7  1  0
  9 13  1  0
 10  9  2  0
 11  5  1  0
 12  2  1  0
 12 11  2  0
 14 13  1  0
 14 18  1  0
 14 15  1  6
 15 16  1  0
 16 17  2  0
 16 20  1  0
 18 19  2  0
 21 18  1  0
 21 22  1  0
 22 23  1  0
 24 23  1  0
 25 24  1  0
 25 21  1  0
 25 26  1  6
 27 26  1  0
 28 26  2  0
M  END
$$$$
