YDP.pdb
     RDKit          3D

 28 29  0  0  1  0  0  0  0  0999 V2000
    8.7027  -12.5194   16.6903 O   0  0  0  0  0  0  0  0  0  0  0  0
    8.3070  -12.9750   17.9296 C   0  0  0  0  0  0  0  0  0  0  0  0
    7.0360  -13.5183   18.0945 C   0  0  0  0  0  0  0  0  0  0  0  0
    6.6440  -13.9711   19.3281 C   0  0  0  0  0  0  0  0  0  0  0  0
    7.5401  -13.8708   20.3850 C   0  0  0  0  0  0  0  0  0  0  0  0
    7.1196  -14.3588   21.7177 C   0  0  0  0  0  0  0  0  0  0  0  0
    7.4285  -15.8291   21.8833 C   0  0  2  0  0  0  0  0  0  0  0  0
    6.6054  -16.5729   20.9735 N   0  0  0  0  0  0  0  0  0  0  0  0
    7.1483  -16.1810   23.3046 C   0  0  0  0  0  0  0  0  0  0  0  0
    5.9833  -16.4788   23.6632 O   0  0  0  0  0  0  0  0  0  0  0  0
    8.7920  -13.3369   20.2278 C   0  0  0  0  0  0  0  0  0  0  0  0
    9.1708  -12.8889   18.9924 C   0  0  0  0  0  0  0  0  0  0  0  0
    8.1839  -16.1824   24.2527 N   0  0  0  0  0  0  0  0  0  0  0  0
    7.9968  -16.5865   25.6464 C   0  0  1  0  0  0  0  0  0  0  0  0
    7.3669  -17.9584   25.6873 C   0  0  0  0  0  0  0  0  0  0  0  0
    7.1688  -18.4893   27.0394 C   0  0  0  0  0  0  0  0  0  0  0  0
    7.5280  -17.7210   27.9903 O   0  0  0  0  0  0  0  0  0  0  0  0
    9.2952  -16.4988   26.3267 C   0  0  0  0  0  0  0  0  0  0  0  0
   10.2343  -17.2039   25.7825 O   0  0  0  0  0  0  0  0  0  0  0  0
    6.6495  -19.6994   27.3979 O   0  0  0  0  0  0  0  0  0  0  0  0
    9.6344  -15.7621   27.4633 N   0  0  0  0  0  0  0  0  0  0  0  0
    8.7240  -14.9575   28.2373 C   0  0  0  0  0  0  0  0  0  0  0  0
    9.6103  -13.7795   28.6385 C   0  0  0  0  0  0  0  0  0  0  0  0
   11.0246  -14.1575   28.2498 C   0  0  0  0  0  0  0  0  0  0  0  0
   10.8925  -15.6662   28.1210 C   0  0  1  0  0  0  0  0  0  0  0  0
   10.9131  -16.3277   29.4471 C   0  0  0  0  0  0  0  0  0  0  0  0
    9.8593  -17.0702   29.8793 O   0  0  0  0  0  0  0  0  0  0  0  0
   11.9220  -16.1930   30.1697 O   0  0  0  0  0  0  0  0  0  0  0  0
  1  2  1  0
  2  3  2  0
  3  4  1  0
  5  4  2  0
  5  6  1  0
  7  6  1  0
  7  8  1  6
  9  7  1  0
  9 13  1  0
 10  9  2  0
 11  5  1  0
 12  2  1  0
 12 11  2  0
 14 13  1  0
 14 18  1  0
 14 15  1  6
 15 16  1  0
 16 17  2  0
 16 20  1  0
 18 19  2  0
 21 18  1  0
 21 22  1  0
 22 23  1  0
 24 23  1  0
 25 24  1  0
 25 21  1  0
 25 26  1  1
 27 26  1  0
 28 26  2  0
M  END
$$$$
