YDP.pdb
     RDKit          3D

 28 29  0  0  1  0  0  0  0  0999 V2000
   10.6101  -14.2892   30.8448 O   0  0  0  0  0  0  0  0  0  0  0  0
    9.9299  -14.6301   29.6954 C   0  0  0  0  0  0  0  0  0  0  0  0
    9.4919  -13.6333   28.8281 C   0  0  0  0  0  0  0  0  0  0  0  0
    8.8154  -13.9743   27.6851 C   0  0  0  0  0  0  0  0  0  0  0  0
    8.5871  -15.3204   27.4281 C   0  0  0  0  0  0  0  0  0  0  0  0
    7.8572  -15.6914   26.1950 C   0  0  0  0  0  0  0  0  0  0  0  0
    8.5791  -16.7845   25.4412 C   0  0  2  0  0  0  0  0  0  0  0  0
    9.4977  -17.4260   26.3373 N   0  0  0  0  0  0  0  0  0  0  0  0
    9.2779  -16.1404   24.2926 C   0  0  0  0  0  0  0  0  0  0  0  0
   10.0713  -15.1885   24.4899 O   0  0  0  0  0  0  0  0  0  0  0  0
    9.0162  -16.3052   28.2786 C   0  0  0  0  0  0  0  0  0  0  0  0
    9.6897  -15.9519   29.4152 C   0  0  0  0  0  0  0  0  0  0  0  0
    9.0546  -16.5925   22.9821 N   0  0  0  0  0  0  0  0  0  0  0  0
    9.6453  -15.9602   21.8023 C   0  0  1  0  0  0  0  0  0  0  0  0
   10.8185  -16.7852   21.3294 C   0  0  0  0  0  0  0  0  0  0  0  0
   12.0055  -16.6885   22.1845 C   0  0  0  0  0  0  0  0  0  0  0  0
   12.6493  -15.5915   22.1101 O   0  0  0  0  0  0  0  0  0  0  0  0
    8.5877  -15.7854   20.7988 C   0  0  0  0  0  0  0  0  0  0  0  0
    7.5826  -16.5897   20.9335 O   0  0  0  0  0  0  0  0  0  0  0  0
   12.4991  -17.6268   23.0438 O   0  0  0  0  0  0  0  0  0  0  0  0
    8.5334  -14.8758   19.7408 N   0  0  0  0  0  0  0  0  0  0  0  0
    9.5344  -13.8838   19.4424 C   0  0  0  0  0  0  0  0  0  0  0  0
    8.6808  -12.7134   18.9569 C   0  0  0  0  0  0  0  0  0  0  0  0
    7.2733  -13.2494   18.7957 C   0  0  0  0  0  0  0  0  0  0  0  0
    7.5422  -14.7439   18.7285 C   0  0  1  0  0  0  0  0  0  0  0  0
    8.0185  -15.1494   17.3848 C   0  0  0  0  0  0  0  0  0  0  0  0
    9.2924  -15.5830   17.1913 O   0  0  0  0  0  0  0  0  0  0  0  0
    7.2256  -15.0873   16.4228 O   0  0  0  0  0  0  0  0  0  0  0  0
  1  2  1  0
  2  3  2  0
  3  4  1  0
  5  4  2  0
  5  6  1  0
  7  6  1  0
  7  8  1  1
  9  7  1  0
  9 13  1  0
 10  9  2  0
 11  5  1  0
 12  2  1  0
 12 11  2  0
 14 13  1  0
 14 18  1  0
 14 15  1  6
 15 16  1  0
 16 17  2  0
 16 20  1  0
 18 19  2  0
 21 18  1  0
 21 22  1  0
 22 23  1  0
 24 23  1  0
 25 24  1  0
 25 21  1  0
 25 26  1  6
 27 26  1  0
 28 26  2  0
M  END
$$$$
