YDP.pdb
     RDKit          3D

 28 29  0  0  1  0  0  0  0  0999 V2000
    5.4849  -10.3883   27.5466 O   0  0  0  0  0  0  0  0  0  0  0  0
    6.1315  -11.4210   26.9021 C   0  0  0  0  0  0  0  0  0  0  0  0
    7.2053  -12.0578   27.5180 C   0  0  0  0  0  0  0  0  0  0  0  0
    7.8474  -13.0850   26.8754 C   0  0  0  0  0  0  0  0  0  0  0  0
    7.3988  -13.4601   25.6152 C   0  0  0  0  0  0  0  0  0  0  0  0
    8.0900  -14.5686   24.9192 C   0  0  0  0  0  0  0  0  0  0  0  0
    7.1045  -15.6046   24.4293 C   0  0  2  0  0  0  0  0  0  0  0  0
    6.4953  -16.2287   25.5684 N   0  0  0  0  0  0  0  0  0  0  0  0
    7.8670  -16.5806   23.5995 C   0  0  0  0  0  0  0  0  0  0  0  0
    8.2130  -17.6855   24.0832 O   0  0  0  0  0  0  0  0  0  0  0  0
    6.3425  -12.8366   25.0048 C   0  0  0  0  0  0  0  0  0  0  0  0
    5.7106  -11.8135   25.6563 C   0  0  0  0  0  0  0  0  0  0  0  0
    8.2041  -16.2724   22.2718 N   0  0  0  0  0  0  0  0  0  0  0  0
    9.0034  -17.1538   21.4204 C   0  0  1  0  0  0  0  0  0  0  0  0
    8.8502  -16.7283   19.9795 C   0  0  0  0  0  0  0  0  0  0  0  0
    7.6440  -17.2442   19.3249 C   0  0  0  0  0  0  0  0  0  0  0  0
    7.3004  -18.4255   19.6567 O   0  0  0  0  0  0  0  0  0  0  0  0
   10.3871  -17.1332   21.9112 C   0  0  0  0  0  0  0  0  0  0  0  0
   10.7404  -16.0216   22.4723 O   0  0  0  0  0  0  0  0  0  0  0  0
    6.8518  -16.6145   18.4093 O   0  0  0  0  0  0  0  0  0  0  0  0
   11.3477  -18.1448   21.8500 N   0  0  0  0  0  0  0  0  0  0  0  0
   11.1706  -19.4247   21.2130 C   0  0  0  0  0  0  0  0  0  0  0  0
   11.9467  -20.3503   22.1485 C   0  0  0  0  0  0  0  0  0  0  0  0
   12.7022  -19.4531   23.1069 C   0  0  0  0  0  0  0  0  0  0  0  0
   12.6819  -18.1384   22.3444 C   0  0  1  0  0  0  0  0  0  0  0  0
   13.7047  -18.1176   21.2719 C   0  0  0  0  0  0  0  0  0  0  0  0
   15.0051  -17.8303   21.5454 O   0  0  0  0  0  0  0  0  0  0  0  0
   13.3525  -18.3706   20.1014 O   0  0  0  0  0  0  0  0  0  0  0  0
  1  2  1  0
  2  3  2  0
  3  4  1  0
  5  4  2  0
  5  6  1  0
  7  6  1  0
  7  8  1  1
  9  7  1  0
  9 13  1  0
 10  9  2  0
 11  5  1  0
 12  2  1  0
 12 11  2  0
 14 13  1  0
 14 18  1  0
 14 15  1  6
 15 16  1  0
 16 17  2  0
 16 20  1  0
 18 19  2  0
 21 18  1  0
 21 22  1  0
 22 23  1  0
 24 23  1  0
 25 24  1  0
 25 21  1  0
 25 26  1  6
 27 26  1  0
 28 26  2  0
M  END
$$$$
