YDP.pdb
     RDKit          3D

 28 29  0  0  1  0  0  0  0  0999 V2000
    8.8915  -13.1334   16.1263 O   0  0  0  0  0  0  0  0  0  0  0  0
    8.5552  -13.4172   17.4326 C   0  0  0  0  0  0  0  0  0  0  0  0
    7.3231  -13.0085   17.9352 C   0  0  0  0  0  0  0  0  0  0  0  0
    6.9902  -13.2917   19.2350 C   0  0  0  0  0  0  0  0  0  0  0  0
    7.9057  -13.9858   20.0161 C   0  0  0  0  0  0  0  0  0  0  0  0
    7.5490  -14.2930   21.4194 C   0  0  0  0  0  0  0  0  0  0  0  0
    7.1894  -15.7517   21.5847 C   0  0  2  0  0  0  0  0  0  0  0  0
    5.9749  -16.0061   20.8646 N   0  0  0  0  0  0  0  0  0  0  0  0
    7.0353  -16.0049   23.0458 C   0  0  0  0  0  0  0  0  0  0  0  0
    5.9429  -15.7678   23.6157 O   0  0  0  0  0  0  0  0  0  0  0  0
    9.1195  -14.3902   19.5260 C   0  0  0  0  0  0  0  0  0  0  0  0
    9.4395  -14.1015   18.2281 C   0  0  0  0  0  0  0  0  0  0  0  0
    8.1096  -16.5101   23.7956 N   0  0  0  0  0  0  0  0  0  0  0  0
    8.0277  -16.7895   25.2294 C   0  0  1  0  0  0  0  0  0  0  0  0
    7.8576  -18.2754   25.4387 C   0  0  0  0  0  0  0  0  0  0  0  0
    7.8342  -18.6859   26.8460 C   0  0  0  0  0  0  0  0  0  0  0  0
    8.6936  -19.5666   27.1766 O   0  0  0  0  0  0  0  0  0  0  0  0
    9.2182  -16.2222   25.8751 C   0  0  0  0  0  0  0  0  0  0  0  0
   10.3329  -16.4896   25.2741 O   0  0  0  0  0  0  0  0  0  0  0  0
    7.0075  -18.2404   27.8362 O   0  0  0  0  0  0  0  0  0  0  0  0
    9.2935  -15.4443   27.0323 N   0  0  0  0  0  0  0  0  0  0  0  0
    8.1672  -15.0017   27.8137 C   0  0  0  0  0  0  0  0  0  0  0  0
    8.6179  -13.6094   28.2524 C   0  0  0  0  0  0  0  0  0  0  0  0
   10.0794  -13.4940   27.8718 C   0  0  0  0  0  0  0  0  0  0  0  0
   10.4487  -14.9591   27.7068 C   0  0  1  0  0  0  0  0  0  0  0  0
   10.6797  -15.6112   29.0176 C   0  0  0  0  0  0  0  0  0  0  0  0
    9.8779  -16.6193   29.4528 O   0  0  0  0  0  0  0  0  0  0  0  0
   11.6309  -15.2187   29.7241 O   0  0  0  0  0  0  0  0  0  0  0  0
  1  2  1  0
  2  3  2  0
  3  4  1  0
  5  4  2  0
  5  6  1  0
  7  6  1  0
  7  8  1  6
  9  7  1  0
  9 13  1  0
 10  9  2  0
 11  5  1  0
 12  2  1  0
 12 11  2  0
 14 13  1  0
 14 18  1  0
 14 15  1  6
 15 16  1  0
 16 17  2  0
 16 20  1  0
 18 19  2  0
 21 18  1  0
 21 22  1  0
 22 23  1  0
 24 23  1  0
 25 24  1  0
 25 21  1  0
 25 26  1  1
 27 26  1  0
 28 26  2  0
M  END
$$$$
