YDP.pdb
     RDKit          3D

 28 29  0  0  1  0  0  0  0  0999 V2000
    9.0282  -12.7017   16.1546 O   0  0  0  0  0  0  0  0  0  0  0  0
    8.5571  -13.0720   17.3959 C   0  0  0  0  0  0  0  0  0  0  0  0
    7.2290  -13.4618   17.5450 C   0  0  0  0  0  0  0  0  0  0  0  0
    6.7621  -13.8298   18.7806 C   0  0  0  0  0  0  0  0  0  0  0  0
    7.6415  -13.8009   19.8557 C   0  0  0  0  0  0  0  0  0  0  0  0
    7.1402  -14.1977   21.1907 C   0  0  0  0  0  0  0  0  0  0  0  0
    7.4299  -15.6543   21.4719 C   0  0  2  0  0  0  0  0  0  0  0  0
    6.5510  -16.4566   20.6706 N   0  0  0  0  0  0  0  0  0  0  0  0
    7.2114  -15.8736   22.9302 C   0  0  0  0  0  0  0  0  0  0  0  0
    6.0811  -15.6721   23.4364 O   0  0  0  0  0  0  0  0  0  0  0  0
    8.9494  -13.4181   19.7142 C   0  0  0  0  0  0  0  0  0  0  0  0
    9.4027  -13.0533   18.4766 C   0  0  0  0  0  0  0  0  0  0  0  0
    8.2670  -16.3067   23.7486 N   0  0  0  0  0  0  0  0  0  0  0  0
    8.1077  -16.6135   25.1703 C   0  0  1  0  0  0  0  0  0  0  0  0
    7.8757  -18.0963   25.3372 C   0  0  0  0  0  0  0  0  0  0  0  0
    6.6413  -18.5857   24.7158 C   0  0  0  0  0  0  0  0  0  0  0  0
    5.5580  -18.1722   25.2438 O   0  0  0  0  0  0  0  0  0  0  0  0
    9.2857  -16.1035   25.8834 C   0  0  0  0  0  0  0  0  0  0  0  0
   10.4107  -16.3127   25.2786 O   0  0  0  0  0  0  0  0  0  0  0  0
    6.5157  -19.4254   23.6473 O   0  0  0  0  0  0  0  0  0  0  0  0
    9.3398  -15.4331   27.1070 N   0  0  0  0  0  0  0  0  0  0  0  0
    8.2000  -15.0714   27.9103 C   0  0  0  0  0  0  0  0  0  0  0  0
    8.6331  -13.7211   28.4789 C   0  0  0  0  0  0  0  0  0  0  0  0
   10.0982  -13.5609   28.1297 C   0  0  0  0  0  0  0  0  0  0  0  0
   10.4821  -15.0023   27.8379 C   0  0  1  0  0  0  0  0  0  0  0  0
   10.7023  -15.7686   29.0873 C   0  0  0  0  0  0  0  0  0  0  0  0
   11.7806  -15.5276   29.8796 O   0  0  0  0  0  0  0  0  0  0  0  0
    9.8752  -16.6474   29.4062 O   0  0  0  0  0  0  0  0  0  0  0  0
  1  2  1  0
  2  3  2  0
  3  4  1  0
  5  4  2  0
  5  6  1  0
  7  6  1  0
  7  8  1  6
  9  7  1  0
  9 13  1  0
 10  9  2  0
 11  5  1  0
 12  2  1  0
 12 11  2  0
 14 13  1  0
 14 18  1  0
 14 15  1  6
 15 16  1  0
 16 17  2  0
 16 20  1  0
 18 19  2  0
 21 18  1  0
 21 22  1  0
 22 23  1  0
 24 23  1  0
 25 24  1  0
 25 21  1  0
 25 26  1  1
 27 26  1  0
 28 26  2  0
M  END
$$$$
