YDP.pdb
     RDKit          3D

 28 29  0  0  1  0  0  0  0  0999 V2000
    6.3450  -12.1823   27.1924 O   0  0  0  0  0  0  0  0  0  0  0  0
    6.8010  -12.4269   25.9149 C   0  0  0  0  0  0  0  0  0  0  0  0
    5.8910  -12.6453   24.8844 C   0  0  0  0  0  0  0  0  0  0  0  0
    6.3465  -12.8885   23.6140 C   0  0  0  0  0  0  0  0  0  0  0  0
    7.7183  -12.9088   23.3957 C   0  0  0  0  0  0  0  0  0  0  0  0
    8.2127  -13.1709   22.0254 C   0  0  0  0  0  0  0  0  0  0  0  0
    7.7074  -14.4978   21.5071 C   0  0  2  0  0  0  0  0  0  0  0  0
    6.2757  -14.5071   21.5980 N   0  0  0  0  0  0  0  0  0  0  0  0
    8.3267  -15.5634   22.3459 C   0  0  0  0  0  0  0  0  0  0  0  0
    7.6081  -16.2948   23.0691 O   0  0  0  0  0  0  0  0  0  0  0  0
    8.6180  -12.6944   24.4065 C   0  0  0  0  0  0  0  0  0  0  0  0
    8.1509  -12.4530   25.6690 C   0  0  0  0  0  0  0  0  0  0  0  0
    9.7173  -15.7574   22.3338 N   0  0  0  0  0  0  0  0  0  0  0  0
   10.3809  -16.8599   23.0302 C   0  0  1  0  0  0  0  0  0  0  0  0
   11.6961  -17.1588   22.3511 C   0  0  0  0  0  0  0  0  0  0  0  0
   12.4021  -18.3236   22.8934 C   0  0  0  0  0  0  0  0  0  0  0  0
   13.6628  -18.3377   22.7094 O   0  0  0  0  0  0  0  0  0  0  0  0
   10.5030  -16.4982   24.4481 C   0  0  0  0  0  0  0  0  0  0  0  0
   11.3398  -15.5401   24.6869 O   0  0  0  0  0  0  0  0  0  0  0  0
   11.8734  -19.3866   23.5664 O   0  0  0  0  0  0  0  0  0  0  0  0
    9.8397  -17.0481   25.5470 N   0  0  0  0  0  0  0  0  0  0  0  0
    8.7884  -18.0306   25.4797 C   0  0  0  0  0  0  0  0  0  0  0  0
    7.8783  -17.5948   26.6269 C   0  0  0  0  0  0  0  0  0  0  0  0
    8.6397  -16.5361   27.3973 C   0  0  0  0  0  0  0  0  0  0  0  0
   10.0606  -16.8100   26.9324 C   0  0  1  0  0  0  0  0  0  0  0  0
   10.6486  -17.9716   27.6406 C   0  0  0  0  0  0  0  0  0  0  0  0
   10.9297  -19.1279   26.9830 O   0  0  0  0  0  0  0  0  0  0  0  0
   10.8855  -17.8729   28.8622 O   0  0  0  0  0  0  0  0  0  0  0  0
  1  2  1  0
  2  3  2  0
  3  4  1  0
  5  4  2  0
  5  6  1  0
  7  6  1  0
  7  8  1  1
  9  7  1  0
  9 13  1  0
 10  9  2  0
 11  5  1  0
 12  2  1  0
 12 11  2  0
 14 13  1  0
 14 18  1  0
 14 15  1  6
 15 16  1  0
 16 17  2  0
 16 20  1  0
 18 19  2  0
 21 18  1  0
 21 22  1  0
 22 23  1  0
 24 23  1  0
 25 24  1  0
 25 21  1  0
 25 26  1  1
 27 26  1  0
 28 26  2  0
M  END
$$$$
