YDP.pdb
     RDKit          3D

 28 29  0  0  1  0  0  0  0  0999 V2000
   10.4723  -14.7706   31.1485 O   0  0  0  0  0  0  0  0  0  0  0  0
   10.2106  -14.8390   29.7969 C   0  0  0  0  0  0  0  0  0  0  0  0
   10.0240  -13.6683   29.0672 C   0  0  0  0  0  0  0  0  0  0  0  0
    9.7638  -13.7382   27.7227 C   0  0  0  0  0  0  0  0  0  0  0  0
    9.6942  -14.9912   27.1267 C   0  0  0  0  0  0  0  0  0  0  0  0
    9.4135  -15.0697   25.6755 C   0  0  0  0  0  0  0  0  0  0  0  0
    9.4929  -16.4955   25.1802 C   0  0  2  0  0  0  0  0  0  0  0  0
   10.8369  -16.9653   25.3576 N   0  0  0  0  0  0  0  0  0  0  0  0
    9.0898  -16.4867   23.7450 C   0  0  0  0  0  0  0  0  0  0  0  0
    9.9443  -16.2763   22.8506 O   0  0  0  0  0  0  0  0  0  0  0  0
    9.8770  -16.1463   27.8404 C   0  0  0  0  0  0  0  0  0  0  0  0
   10.1360  -16.0629   29.1807 C   0  0  0  0  0  0  0  0  0  0  0  0
    7.7524  -16.7135   23.3822 N   0  0  0  0  0  0  0  0  0  0  0  0
    7.3027  -16.8154   21.9937 C   0  0  1  0  0  0  0  0  0  0  0  0
    6.0228  -17.6152   21.9417 C   0  0  0  0  0  0  0  0  0  0  0  0
    6.1706  -19.0143   22.3539 C   0  0  0  0  0  0  0  0  0  0  0  0
    7.2197  -19.6035   21.9347 O   0  0  0  0  0  0  0  0  0  0  0  0
    7.1871  -15.4566   21.4491 C   0  0  0  0  0  0  0  0  0  0  0  0
    6.5691  -14.6207   22.2202 O   0  0  0  0  0  0  0  0  0  0  0  0
    5.3245  -19.7550   23.1271 O   0  0  0  0  0  0  0  0  0  0  0  0
    7.6539  -14.9655   20.2281 N   0  0  0  0  0  0  0  0  0  0  0  0
    8.5959  -15.6330   19.3667 C   0  0  0  0  0  0  0  0  0  0  0  0
    9.4049  -14.4590   18.8176 C   0  0  0  0  0  0  0  0  0  0  0  0
    8.6740  -13.2018   19.2409 C   0  0  0  0  0  0  0  0  0  0  0  0
    7.2971  -13.7633   19.5557 C   0  0  1  0  0  0  0  0  0  0  0  0
    6.5100  -13.9933   18.3211 C   0  0  0  0  0  0  0  0  0  0  0  0
    6.3196  -15.2473   17.8315 O   0  0  0  0  0  0  0  0  0  0  0  0
    6.0182  -13.0096   17.7307 O   0  0  0  0  0  0  0  0  0  0  0  0
  1  2  1  0
  2  3  2  0
  3  4  1  0
  5  4  2  0
  5  6  1  0
  7  6  1  0
  7  8  1  6
  9  7  1  0
  9 13  1  0
 10  9  2  0
 11  5  1  0
 12  2  1  0
 12 11  2  0
 14 13  1  0
 14 18  1  0
 14 15  1  1
 15 16  1  0
 16 17  2  0
 16 20  1  0
 18 19  2  0
 21 18  1  0
 21 22  1  0
 22 23  1  0
 24 23  1  0
 25 24  1  0
 25 21  1  0
 25 26  1  6
 27 26  1  0
 28 26  2  0
M  END
$$$$
