YDP.pdb
     RDKit          3D

 28 29  0  0  1  0  0  0  0  0999 V2000
    9.3721  -12.9119   16.7180 O   0  0  0  0  0  0  0  0  0  0  0  0
    8.8353  -13.2896   17.9301 C   0  0  0  0  0  0  0  0  0  0  0  0
    7.4556  -13.2679   18.1137 C   0  0  0  0  0  0  0  0  0  0  0  0
    6.9233  -13.6440   19.3202 C   0  0  0  0  0  0  0  0  0  0  0  0
    7.7902  -14.0390   20.3314 C   0  0  0  0  0  0  0  0  0  0  0  0
    7.2184  -14.4456   21.6347 C   0  0  0  0  0  0  0  0  0  0  0  0
    7.1466  -15.9506   21.7538 C   0  0  2  0  0  0  0  0  0  0  0  0
    6.0348  -16.4168   20.9761 N   0  0  0  0  0  0  0  0  0  0  0  0
    6.9885  -16.2712   23.2012 C   0  0  0  0  0  0  0  0  0  0  0  0
    5.8488  -16.2744   23.7261 O   0  0  0  0  0  0  0  0  0  0  0  0
    9.1488  -14.0622   20.1556 C   0  0  0  0  0  0  0  0  0  0  0  0
    9.6670  -13.6848   18.9477 C   0  0  0  0  0  0  0  0  0  0  0  0
    8.1118  -16.5717   23.9882 N   0  0  0  0  0  0  0  0  0  0  0  0
    8.0365  -16.8514   25.4224 C   0  0  1  0  0  0  0  0  0  0  0  0
    7.6806  -18.3045   25.6288 C   0  0  0  0  0  0  0  0  0  0  0  0
    7.6523  -18.7231   27.0336 C   0  0  0  0  0  0  0  0  0  0  0  0
    8.6819  -19.3539   27.4406 O   0  0  0  0  0  0  0  0  0  0  0  0
    9.3093  -16.4496   26.0346 C   0  0  0  0  0  0  0  0  0  0  0  0
   10.3610  -16.9030   25.4316 O   0  0  0  0  0  0  0  0  0  0  0  0
    6.6618  -18.5193   27.9500 O   0  0  0  0  0  0  0  0  0  0  0  0
    9.5198  -15.6536   27.1624 N   0  0  0  0  0  0  0  0  0  0  0  0
    8.4867  -15.0092   27.9322 C   0  0  0  0  0  0  0  0  0  0  0  0
    9.1586  -13.6924   28.3179 C   0  0  0  0  0  0  0  0  0  0  0  0
   10.6158  -13.8259   27.9268 C   0  0  0  0  0  0  0  0  0  0  0  0
   10.7445  -15.3362   27.8135 C   0  0  1  0  0  0  0  0  0  0  0  0
   10.8818  -15.9703   29.1461 C   0  0  0  0  0  0  0  0  0  0  0  0
    9.9667  -16.8702   29.5945 O   0  0  0  0  0  0  0  0  0  0  0  0
   11.8598  -15.6642   29.8587 O   0  0  0  0  0  0  0  0  0  0  0  0
  1  2  1  0
  2  3  2  0
  3  4  1  0
  5  4  2  0
  5  6  1  0
  7  6  1  0
  7  8  1  6
  9  7  1  0
  9 13  1  0
 10  9  2  0
 11  5  1  0
 12  2  1  0
 12 11  2  0
 14 13  1  0
 14 18  1  0
 14 15  1  6
 15 16  1  0
 16 17  2  0
 16 20  1  0
 18 19  2  0
 21 18  1  0
 21 22  1  0
 22 23  1  0
 24 23  1  0
 25 24  1  0
 25 21  1  0
 25 26  1  1
 27 26  1  0
 28 26  2  0
M  END
$$$$
