YDP.pdb
     RDKit          3D

 28 29  0  0  1  0  0  0  0  0999 V2000
    8.6239  -12.2352   16.3811 O   0  0  0  0  0  0  0  0  0  0  0  0
    8.3497  -12.7462   17.6316 C   0  0  0  0  0  0  0  0  0  0  0  0
    9.3712  -12.8683   18.5694 C   0  0  0  0  0  0  0  0  0  0  0  0
    9.0967  -13.3768   19.8129 C   0  0  0  0  0  0  0  0  0  0  0  0
    7.7915  -13.7579   20.0983 C   0  0  0  0  0  0  0  0  0  0  0  0
    7.4923  -14.3071   21.4399 C   0  0  0  0  0  0  0  0  0  0  0  0
    7.8645  -15.7695   21.5266 C   0  0  2  0  0  0  0  0  0  0  0  0
    6.9722  -16.5174   20.6884 N   0  0  0  0  0  0  0  0  0  0  0  0
    7.7513  -16.1689   22.9585 C   0  0  0  0  0  0  0  0  0  0  0  0
    6.6223  -16.2976   23.4905 O   0  0  0  0  0  0  0  0  0  0  0  0
    6.7827  -13.6398   19.1788 C   0  0  0  0  0  0  0  0  0  0  0  0
    7.0696  -13.1311   17.9422 C   0  0  0  0  0  0  0  0  0  0  0  0
    8.9054  -16.4042   23.7229 N   0  0  0  0  0  0  0  0  0  0  0  0
    8.8699  -16.7845   25.1353 C   0  0  1  0  0  0  0  0  0  0  0  0
    9.0502  -18.2792   25.2536 C   0  0  0  0  0  0  0  0  0  0  0  0
   10.2480  -18.7955   24.5842 C   0  0  0  0  0  0  0  0  0  0  0  0
   10.3420  -18.5291   23.3418 O   0  0  0  0  0  0  0  0  0  0  0  0
    9.8843  -15.9967   25.8471 C   0  0  0  0  0  0  0  0  0  0  0  0
   11.0348  -15.9452   25.2565 O   0  0  0  0  0  0  0  0  0  0  0  0
   11.2664  -19.5222   25.1295 O   0  0  0  0  0  0  0  0  0  0  0  0
    9.7619  -15.3093   27.0563 N   0  0  0  0  0  0  0  0  0  0  0  0
    8.5366  -15.1285   27.7920 C   0  0  0  0  0  0  0  0  0  0  0  0
    8.7119  -13.7175   28.3510 C   0  0  0  0  0  0  0  0  0  0  0  0
   10.1478  -13.3236   28.0734 C   0  0  0  0  0  0  0  0  0  0  0  0
   10.7774  -14.6863   27.8344 C   0  0  1  0  0  0  0  0  0  0  0  0
   11.0520  -15.3882   29.1106 C   0  0  0  0  0  0  0  0  0  0  0  0
   10.4284  -16.5562   29.4193 O   0  0  0  0  0  0  0  0  0  0  0  0
   11.8728  -14.8876   29.9066 O   0  0  0  0  0  0  0  0  0  0  0  0
  1  2  1  0
  2  3  2  0
  3  4  1  0
  5  4  2  0
  5  6  1  0
  7  6  1  0
  7  8  1  6
  9  7  1  0
  9 13  1  0
 10  9  2  0
 11  5  1  0
 12  2  1  0
 12 11  2  0
 14 13  1  0
 14 18  1  0
 14 15  1  6
 15 16  1  0
 16 17  2  0
 16 20  1  0
 18 19  2  0
 21 18  1  0
 21 22  1  0
 22 23  1  0
 24 23  1  0
 25 24  1  0
 25 21  1  0
 25 26  1  1
 27 26  1  0
 28 26  2  0
M  END
$$$$
