YDP.pdb
     RDKit          3D

 28 29  0  0  1  0  0  0  0  0999 V2000
    9.0383  -12.7577   16.6511 O   0  0  0  0  0  0  0  0  0  0  0  0
    8.6393  -13.1109   17.9223 C   0  0  0  0  0  0  0  0  0  0  0  0
    7.3141  -12.9298   18.3080 C   0  0  0  0  0  0  0  0  0  0  0  0
    6.9190  -13.2818   19.5730 C   0  0  0  0  0  0  0  0  0  0  0  0
    7.8669  -13.8140   20.4380 C   0  0  0  0  0  0  0  0  0  0  0  0
    7.4431  -14.1949   21.8042 C   0  0  0  0  0  0  0  0  0  0  0  0
    7.0723  -15.6585   21.8727 C   0  0  2  0  0  0  0  0  0  0  0  0
    5.8350  -15.8485   21.1717 N   0  0  0  0  0  0  0  0  0  0  0  0
    6.9571  -16.0170   23.3152 C   0  0  0  0  0  0  0  0  0  0  0  0
    5.9218  -15.7196   23.9587 O   0  0  0  0  0  0  0  0  0  0  0  0
    9.1723  -13.9942   20.0633 C   0  0  0  0  0  0  0  0  0  0  0  0
    9.5536  -13.6392   18.7989 C   0  0  0  0  0  0  0  0  0  0  0  0
    8.0044  -16.6894   23.9651 N   0  0  0  0  0  0  0  0  0  0  0  0
    8.0003  -16.9896   25.3971 C   0  0  1  0  0  0  0  0  0  0  0  0
    7.6560  -18.4459   25.6000 C   0  0  0  0  0  0  0  0  0  0  0  0
    7.7006  -18.8855   26.9979 C   0  0  0  0  0  0  0  0  0  0  0  0
    8.7824  -19.4513   27.3626 O   0  0  0  0  0  0  0  0  0  0  0  0
    9.3015  -16.5949   25.9513 C   0  0  0  0  0  0  0  0  0  0  0  0
   10.3153  -16.8931   25.2040 O   0  0  0  0  0  0  0  0  0  0  0  0
    6.7284  -18.7618   27.9477 O   0  0  0  0  0  0  0  0  0  0  0  0
    9.5735  -15.9491   27.1591 N   0  0  0  0  0  0  0  0  0  0  0  0
    8.5844  -15.5018   28.1061 C   0  0  0  0  0  0  0  0  0  0  0  0
    9.2046  -14.2022   28.6167 C   0  0  0  0  0  0  0  0  0  0  0  0
   10.6199  -14.1643   28.0785 C   0  0  0  0  0  0  0  0  0  0  0  0
   10.8348  -15.6291   27.7348 C   0  0  1  0  0  0  0  0  0  0  0  0
   11.1483  -16.4293   28.9423 C   0  0  0  0  0  0  0  0  0  0  0  0
   12.3472  -16.3114   29.5726 O   0  0  0  0  0  0  0  0  0  0  0  0
   10.2874  -17.2212   29.3779 O   0  0  0  0  0  0  0  0  0  0  0  0
  1  2  1  0
  2  3  2  0
  3  4  1  0
  5  4  2  0
  5  6  1  0
  7  6  1  0
  7  8  1  6
  9  7  1  0
  9 13  1  0
 10  9  2  0
 11  5  1  0
 12  2  1  0
 12 11  2  0
 14 13  1  0
 14 18  1  0
 14 15  1  6
 15 16  1  0
 16 17  2  0
 16 20  1  0
 18 19  2  0
 21 18  1  0
 21 22  1  0
 22 23  1  0
 24 23  1  0
 25 24  1  0
 25 21  1  0
 25 26  1  1
 27 26  1  0
 28 26  2  0
M  END
$$$$
