YDP.pdb
     RDKit          3D

 28 29  0  0  1  0  0  0  0  0999 V2000
   12.4944  -21.5354   28.5209 O   0  0  0  0  0  0  0  0  0  0  0  0
   12.2831  -20.4297   27.7255 C   0  0  0  0  0  0  0  0  0  0  0  0
   13.3438  -19.8737   27.0159 C   0  0  0  0  0  0  0  0  0  0  0  0
   13.1317  -18.7737   26.2250 C   0  0  0  0  0  0  0  0  0  0  0  0
   11.8488  -18.2447   26.1580 C   0  0  0  0  0  0  0  0  0  0  0  0
   11.6170  -17.0574   25.3050 C   0  0  0  0  0  0  0  0  0  0  0  0
   11.3028  -17.4600   23.8824 C   0  0  2  0  0  0  0  0  0  0  0  0
   12.5321  -17.5271   23.1458 N   0  0  0  0  0  0  0  0  0  0  0  0
   10.3755  -16.4327   23.3281 C   0  0  0  0  0  0  0  0  0  0  0  0
   10.8320  -15.3978   22.7849 O   0  0  0  0  0  0  0  0  0  0  0  0
   10.8016  -18.7882   26.8544 C   0  0  0  0  0  0  0  0  0  0  0  0
   11.0263  -19.8851   27.6395 C   0  0  0  0  0  0  0  0  0  0  0  0
    8.9855  -16.6140   23.4090 N   0  0  0  0  0  0  0  0  0  0  0  0
    8.0241  -15.5170   23.2947 C   0  0  1  0  0  0  0  0  0  0  0  0
    6.7072  -16.0588   22.7920 C   0  0  0  0  0  0  0  0  0  0  0  0
    6.3334  -17.3564   23.3628 C   0  0  0  0  0  0  0  0  0  0  0  0
    7.1982  -18.2834   23.2350 O   0  0  0  0  0  0  0  0  0  0  0  0
    7.9413  -14.8434   24.5969 C   0  0  0  0  0  0  0  0  0  0  0  0
    8.4627  -15.5072   25.5780 O   0  0  0  0  0  0  0  0  0  0  0  0
    5.1780  -17.6870   24.0095 O   0  0  0  0  0  0  0  0  0  0  0  0
    7.3827  -13.6000   24.8997 N   0  0  0  0  0  0  0  0  0  0  0  0
    6.6748  -12.7559   23.9714 C   0  0  0  0  0  0  0  0  0  0  0  0
    7.1118  -11.3621   24.4192 C   0  0  0  0  0  0  0  0  0  0  0  0
    7.8454  -11.5457   25.7315 C   0  0  0  0  0  0  0  0  0  0  0  0
    7.3462  -12.9194   26.1488 C   0  0  1  0  0  0  0  0  0  0  0  0
    5.9881  -12.8471   26.7379 C   0  0  0  0  0  0  0  0  0  0  0  0
    4.9071  -13.3384   26.0758 O   0  0  0  0  0  0  0  0  0  0  0  0
    5.8486  -12.3238   27.8625 O   0  0  0  0  0  0  0  0  0  0  0  0
  1  2  1  0
  2  3  2  0
  3  4  1  0
  5  4  2  0
  5  6  1  0
  7  6  1  0
  7  8  1  6
  9  7  1  0
  9 13  1  0
 10  9  2  0
 11  5  1  0
 12  2  1  0
 12 11  2  0
 14 13  1  0
 14 18  1  0
 14 15  1  1
 15 16  1  0
 16 17  2  0
 16 20  1  0
 18 19  2  0
 21 18  1  0
 21 22  1  0
 22 23  1  0
 24 23  1  0
 25 24  1  0
 25 21  1  0
 25 26  1  6
 27 26  1  0
 28 26  2  0
M  END
$$$$
