YDP.pdb
     RDKit          3D

 28 29  0  0  1  0  0  0  0  0999 V2000
   10.4061  -14.5611   30.7209 O   0  0  0  0  0  0  0  0  0  0  0  0
   10.0918  -14.7608   29.3938 C   0  0  0  0  0  0  0  0  0  0  0  0
    9.6398  -13.6949   28.6208 C   0  0  0  0  0  0  0  0  0  0  0  0
    9.3276  -13.8955   27.3007 C   0  0  0  0  0  0  0  0  0  0  0  0
    9.4749  -15.1720   26.7726 C   0  0  0  0  0  0  0  0  0  0  0  0
    9.1387  -15.3913   25.3479 C   0  0  0  0  0  0  0  0  0  0  0  0
    7.6422  -15.4113   25.1369 C   0  0  2  0  0  0  0  0  0  0  0  0
    7.0819  -16.4557   25.9454 N   0  0  0  0  0  0  0  0  0  0  0  0
    7.4051  -15.6429   23.6834 C   0  0  0  0  0  0  0  0  0  0  0  0
    7.0982  -16.7865   23.2682 O   0  0  0  0  0  0  0  0  0  0  0  0
    9.9193  -16.2242   27.5292 C   0  0  0  0  0  0  0  0  0  0  0  0
   10.2273  -16.0111   28.8445 C   0  0  0  0  0  0  0  0  0  0  0  0
    7.5229  -14.5849   22.7678 N   0  0  0  0  0  0  0  0  0  0  0  0
    7.6626  -14.7828   21.3249 C   0  0  1  0  0  0  0  0  0  0  0  0
    7.6558  -13.4396   20.6346 C   0  0  0  0  0  0  0  0  0  0  0  0
    7.8141  -13.5107   19.1788 C   0  0  0  0  0  0  0  0  0  0  0  0
    7.9968  -14.6778   18.7015 O   0  0  0  0  0  0  0  0  0  0  0  0
    8.8748  -15.5767   21.0869 C   0  0  0  0  0  0  0  0  0  0  0  0
    9.8703  -15.2797   21.8589 O   0  0  0  0  0  0  0  0  0  0  0  0
    7.7896  -12.4831   18.2811 O   0  0  0  0  0  0  0  0  0  0  0  0
    9.0802  -16.5926   20.1512 N   0  0  0  0  0  0  0  0  0  0  0  0
    8.1287  -17.0126   19.1546 C   0  0  0  0  0  0  0  0  0  0  0  0
    8.3683  -18.5208   19.1084 C   0  0  0  0  0  0  0  0  0  0  0  0
    9.6201  -18.7793   19.9211 C   0  0  0  0  0  0  0  0  0  0  0  0
   10.2392  -17.3913   19.9425 C   0  0  1  0  0  0  0  0  0  0  0  0
   10.9382  -17.0896   18.6708 C   0  0  0  0  0  0  0  0  0  0  0  0
   12.1790  -17.5833   18.4158 O   0  0  0  0  0  0  0  0  0  0  0  0
   10.3660  -16.3687   17.8276 O   0  0  0  0  0  0  0  0  0  0  0  0
  1  2  1  0
  2  3  2  0
  3  4  1  0
  5  4  2  0
  5  6  1  0
  7  6  1  0
  7  8  1  1
  9  7  1  0
  9 13  1  0
 10  9  2  0
 11  5  1  0
 12  2  1  0
 12 11  2  0
 14 13  1  0
 14 18  1  0
 14 15  1  6
 15 16  1  0
 16 17  2  0
 16 20  1  0
 18 19  2  0
 21 18  1  0
 21 22  1  0
 22 23  1  0
 24 23  1  0
 25 24  1  0
 25 21  1  0
 25 26  1  6
 27 26  1  0
 28 26  2  0
M  END
$$$$
