YDP.pdb
     RDKit          3D

 28 29  0  0  1  0  0  0  0  0999 V2000
    8.8735  -12.9107   16.5764 O   0  0  0  0  0  0  0  0  0  0  0  0
    8.3373  -13.3405   17.7713 C   0  0  0  0  0  0  0  0  0  0  0  0
    7.7031  -14.5777   17.8409 C   0  0  0  0  0  0  0  0  0  0  0  0
    7.1703  -15.0037   19.0304 C   0  0  0  0  0  0  0  0  0  0  0  0
    7.2830  -14.1754   20.1401 C   0  0  0  0  0  0  0  0  0  0  0  0
    6.7088  -14.6328   21.4254 C   0  0  0  0  0  0  0  0  0  0  0  0
    6.8966  -16.1213   21.6085 C   0  0  2  0  0  0  0  0  0  0  0  0
    5.8909  -16.8046   20.8470 N   0  0  0  0  0  0  0  0  0  0  0  0
    6.7801  -16.4042   23.0675 C   0  0  0  0  0  0  0  0  0  0  0  0
    5.6506  -16.4615   23.6111 O   0  0  0  0  0  0  0  0  0  0  0  0
    7.9063  -12.9570   20.0767 C   0  0  0  0  0  0  0  0  0  0  0  0
    8.4335  -12.5437   18.8845 C   0  0  0  0  0  0  0  0  0  0  0  0
    7.9314  -16.6086   23.8449 N   0  0  0  0  0  0  0  0  0  0  0  0
    7.8919  -16.8981   25.2785 C   0  0  1  0  0  0  0  0  0  0  0  0
    7.6827  -18.3797   25.4823 C   0  0  0  0  0  0  0  0  0  0  0  0
    7.6407  -18.7936   26.8882 C   0  0  0  0  0  0  0  0  0  0  0  0
    7.3447  -17.8775   27.7228 O   0  0  0  0  0  0  0  0  0  0  0  0
    9.1220  -16.3738   25.8854 C   0  0  0  0  0  0  0  0  0  0  0  0
   10.2083  -16.6988   25.2614 O   0  0  0  0  0  0  0  0  0  0  0  0
    7.8795  -20.0338   27.4051 O   0  0  0  0  0  0  0  0  0  0  0  0
    9.2604  -15.5828   27.0278 N   0  0  0  0  0  0  0  0  0  0  0  0
    8.1741  -15.0226   27.7902 C   0  0  0  0  0  0  0  0  0  0  0  0
    8.7481  -13.6690   28.2055 C   0  0  0  0  0  0  0  0  0  0  0  0
   10.2167  -13.6965   27.8359 C   0  0  0  0  0  0  0  0  0  0  0  0
   10.4505  -15.1924   27.7030 C   0  0  1  0  0  0  0  0  0  0  0  0
   10.6110  -15.8362   29.0283 C   0  0  0  0  0  0  0  0  0  0  0  0
    9.7124  -16.7515   29.4792 O   0  0  0  0  0  0  0  0  0  0  0  0
   11.5931  -15.5238   29.7325 O   0  0  0  0  0  0  0  0  0  0  0  0
  1  2  1  0
  2  3  2  0
  3  4  1  0
  5  4  2  0
  5  6  1  0
  7  6  1  0
  7  8  1  6
  9  7  1  0
  9 13  1  0
 10  9  2  0
 11  5  1  0
 12  2  1  0
 12 11  2  0
 14 13  1  0
 14 18  1  0
 14 15  1  6
 15 16  1  0
 16 17  2  0
 16 20  1  0
 18 19  2  0
 21 18  1  0
 21 22  1  0
 22 23  1  0
 24 23  1  0
 25 24  1  0
 25 21  1  0
 25 26  1  1
 27 26  1  0
 28 26  2  0
M  END
$$$$
