LTN.pdb
     RDKit          3D

 24 23  0  0  1  0  0  0  0  0999 V2000
   22.6579  -14.0116  -14.5875 C   0  0  0  0  0  0  0  0  0  0  0  0
   23.5264  -13.6951  -15.7912 C   0  0  2  0  0  0  0  0  0  0  0  0
   24.9469  -13.6099  -15.3364 C   0  0  0  0  0  0  0  0  0  0  0  0
   23.0794  -12.3707  -16.3983 C   0  0  0  0  0  0  0  0  0  0  0  0
   21.6414  -12.5138  -16.8560 C   0  0  2  0  0  0  0  0  0  0  0  0
   21.5664  -13.5012  -17.8975 N   0  0  0  0  0  0  0  0  0  0  0  0
   21.0642  -11.2149  -17.2439 C   0  0  0  0  0  0  0  0  0  0  0  0
   21.3675  -10.7462  -18.3698 O   0  0  0  0  0  0  0  0  0  0  0  0
   17.6329   -7.8057  -17.3732 C   0  0  0  0  0  0  0  0  0  0  0  0
   18.1878   -9.1796  -17.0584 C   0  0  1  0  0  0  0  0  0  0  0  0
   17.9428   -9.9951  -18.1644 O   0  0  0  0  0  0  0  0  0  0  0  0
   19.6810   -9.1438  -16.8488 C   0  0  2  0  0  0  0  0  0  0  0  0
   20.1814  -10.4462  -16.4305 N   0  0  0  0  0  0  0  0  0  0  0  0
   20.1185   -8.1432  -15.8845 C   0  0  0  0  0  0  0  0  0  0  0  0
   19.9706   -8.3340  -14.6471 O   0  0  0  0  0  0  0  0  0  0  0  0
   23.0860   -4.2018  -13.6761 N   0  0  0  0  0  0  0  0  0  0  0  0
   22.4379   -3.8930  -14.9013 C   0  0  0  0  0  0  0  0  0  0  0  0
   22.1772   -2.6941  -15.1753 O   0  0  0  0  0  0  0  0  0  0  0  0
   22.0518   -4.9348  -15.8812 C   0  0  0  0  0  0  0  0  0  0  0  0
   21.0712   -5.9136  -15.2464 C   0  0  2  0  0  0  0  0  0  0  0  0
   20.7308   -6.9022  -16.2402 N   0  0  0  0  0  0  0  0  0  0  0  0
   19.8850   -5.1888  -14.7442 C   0  0  0  0  0  0  0  0  0  0  0  0
   19.0586   -4.6845  -15.5470 O   0  0  0  0  0  0  0  0  0  0  0  0
   19.6390   -5.0373  -13.3895 O   0  0  0  0  0  0  0  0  0  0  0  0
  2  1  1  1
  2  3  1  0
  4  2  1  0
  4  5  1  0
  5  6  1  6
  5  7  1  0
  7  8  2  0
 10  9  1  6
 11 10  1  0
 12 10  1  0
 13  7  1  0
 12 13  1  1
 14 12  1  0
 14 15  2  0
 16 17  1  0
 17 18  2  0
 17 19  1  0
 20 19  1  6
 20 21  1  0
 21 14  1  0
 22 20  1  0
 22 24  1  0
 23 22  2  0
M  END
$$$$
