LTN.pdb
     RDKit          3D

 24 23  0  0  1  0  0  0  0  0999 V2000
   16.8718  -11.3843  -18.3262 C   0  0  0  0  0  0  0  0  0  0  0  0
   17.1527  -12.2482  -17.1104 C   0  0  2  0  0  0  0  0  0  0  0  0
   15.9955  -12.1307  -16.1729 C   0  0  0  0  0  0  0  0  0  0  0  0
   18.4346  -11.7691  -16.4397 C   0  0  0  0  0  0  0  0  0  0  0  0
   19.5829  -11.9552  -17.4114 C   0  0  2  0  0  0  0  0  0  0  0  0
   19.7699  -13.3565  -17.6693 N   0  0  0  0  0  0  0  0  0  0  0  0
   20.8062  -11.2827  -16.9401 C   0  0  0  0  0  0  0  0  0  0  0  0
   21.4879  -11.8518  -16.0509 O   0  0  0  0  0  0  0  0  0  0  0  0
   23.7292  -10.6397  -18.8540 C   0  0  0  0  0  0  0  0  0  0  0  0
   23.4966   -9.3163  -18.1547 C   0  0  1  0  0  0  0  0  0  0  0  0
   22.8999   -8.4539  -19.0757 O   0  0  0  0  0  0  0  0  0  0  0  0
   22.5467   -9.4588  -16.9920 C   0  0  2  0  0  0  0  0  0  0  0  0
   21.2759  -10.0260  -17.4218 N   0  0  0  0  0  0  0  0  0  0  0  0
   22.2868   -8.2118  -16.2850 C   0  0  0  0  0  0  0  0  0  0  0  0
   21.3013   -7.4894  -16.5954 O   0  0  0  0  0  0  0  0  0  0  0  0
   22.2734   -3.9242  -13.5682 N   0  0  0  0  0  0  0  0  0  0  0  0
   22.4304   -4.0717  -14.9718 C   0  0  0  0  0  0  0  0  0  0  0  0
   22.3000   -3.0664  -15.7153 O   0  0  0  0  0  0  0  0  0  0  0  0
   22.7450   -5.3739  -15.6042 C   0  0  0  0  0  0  0  0  0  0  0  0
   22.7852   -6.4727  -14.5491 C   0  0  2  0  0  0  0  0  0  0  0  0
   23.0947   -7.7132  -15.2171 N   0  0  0  0  0  0  0  0  0  0  0  0
   21.4972   -6.5289  -13.8262 C   0  0  0  0  0  0  0  0  0  0  0  0
   21.4727   -6.6760  -12.5774 O   0  0  0  0  0  0  0  0  0  0  0  0
   20.2832   -6.4237  -14.4846 O   0  0  0  0  0  0  0  0  0  0  0  0
  2  1  1  6
  2  3  1  0
  4  2  1  0
  4  5  1  0
  5  6  1  1
  5  7  1  0
  7  8  2  0
 10  9  1  6
 11 10  1  0
 12 10  1  0
 13  7  1  0
 12 13  1  6
 14 12  1  0
 14 15  2  0
 16 17  1  0
 17 18  2  0
 17 19  1  0
 20 19  1  6
 20 21  1  0
 21 14  1  0
 22 20  1  0
 22 24  1  0
 23 22  2  0
M  END
$$$$
