LTN.pdb
     RDKit          3D

 24 23  0  0  1  0  0  0  0  0999 V2000
   18.2711  -13.5330  -15.6659 C   0  0  0  0  0  0  0  0  0  0  0  0
   16.8765  -13.1088  -16.0887 C   0  0  2  0  0  0  0  0  0  0  0  0
   16.4064  -14.0394  -17.1586 C   0  0  0  0  0  0  0  0  0  0  0  0
   16.9234  -11.6770  -16.6085 C   0  0  0  0  0  0  0  0  0  0  0  0
   17.3401  -10.7668  -15.4703 C   0  0  2  0  0  0  0  0  0  0  0  0
   16.4291  -10.9274  -14.3705 N   0  0  0  0  0  0  0  0  0  0  0  0
   17.4732   -9.3686  -15.9153 C   0  0  0  0  0  0  0  0  0  0  0  0
   18.2360   -9.1272  -16.8844 O   0  0  0  0  0  0  0  0  0  0  0  0
   15.6556   -4.8308  -16.4591 C   0  0  0  0  0  0  0  0  0  0  0  0
   15.5533   -6.2534  -15.9490 C   0  0  1  0  0  0  0  0  0  0  0  0
   14.8005   -6.9782  -16.8742 O   0  0  0  0  0  0  0  0  0  0  0  0
   16.9070   -6.9120  -15.8570 C   0  0  2  0  0  0  0  0  0  0  0  0
   16.7958   -8.2628  -15.3235 N   0  0  0  0  0  0  0  0  0  0  0  0
   17.8715   -6.1706  -15.0553 C   0  0  0  0  0  0  0  0  0  0  0  0
   17.8026   -6.1777  -13.7965 O   0  0  0  0  0  0  0  0  0  0  0  0
   21.7353   -3.2521  -13.2930 N   0  0  0  0  0  0  0  0  0  0  0  0
   22.1174   -4.4629  -13.9292 C   0  0  0  0  0  0  0  0  0  0  0  0
   23.2985   -4.8763  -13.8082 O   0  0  0  0  0  0  0  0  0  0  0  0
   21.1732   -5.2685  -14.7378 C   0  0  0  0  0  0  0  0  0  0  0  0
   19.8040   -4.5999  -14.7652 C   0  0  2  0  0  0  0  0  0  0  0  0
   18.9415   -5.3975  -15.6021 N   0  0  0  0  0  0  0  0  0  0  0  0
   19.9287   -3.2089  -15.2492 C   0  0  0  0  0  0  0  0  0  0  0  0
   19.9399   -2.9613  -16.4821 O   0  0  0  0  0  0  0  0  0  0  0  0
   20.0370   -2.1377  -14.3778 O   0  0  0  0  0  0  0  0  0  0  0  0
  2  1  1  6
  2  3  1  0
  4  2  1  0
  4  5  1  0
  5  6  1  1
  5  7  1  0
  7  8  2  0
 10  9  1  6
 11 10  1  0
 12 10  1  0
 13  7  1  0
 12 13  1  1
 14 12  1  0
 14 15  2  0
 16 17  1  0
 17 18  2  0
 17 19  1  0
 20 19  1  6
 20 21  1  0
 21 14  1  0
 22 20  1  0
 22 24  1  0
 23 22  2  0
M  END
$$$$
