LTN.pdb
     RDKit          3D

 24 23  0  0  1  0  0  0  0  0999 V2000
   29.9027  -29.0642  -21.7563 C   0  0  0  0  0  0  0  0  0  0  0  0
   29.2779  -30.0215  -20.7579 C   0  0  2  0  0  0  0  0  0  0  0  0
   28.1117  -30.6877  -21.4120 C   0  0  0  0  0  0  0  0  0  0  0  0
   28.8274  -29.2412  -19.5288 C   0  0  0  0  0  0  0  0  0  0  0  0
   30.0491  -28.6234  -18.8782 C   0  0  2  0  0  0  0  0  0  0  0  0
   30.8685  -29.6614  -18.3155 N   0  0  0  0  0  0  0  0  0  0  0  0
   29.6766  -27.5839  -17.9028 C   0  0  0  0  0  0  0  0  0  0  0  0
   29.5339  -27.9248  -16.7017 O   0  0  0  0  0  0  0  0  0  0  0  0
   31.5214  -25.0311  -16.4701 C   0  0  0  0  0  0  0  0  0  0  0  0
   30.2987  -24.2880  -16.9675 C   0  0  1  0  0  0  0  0  0  0  0  0
   30.6285  -23.7107  -18.1947 O   0  0  0  0  0  0  0  0  0  0  0  0
   29.1380  -25.2207  -17.2073 C   0  0  2  0  0  0  0  0  0  0  0  0
   29.4650  -26.2113  -18.2238 N   0  0  0  0  0  0  0  0  0  0  0  0
   27.9064  -24.5445  -17.5926 C   0  0  0  0  0  0  0  0  0  0  0  0
   27.5462  -24.5020  -18.8000 O   0  0  0  0  0  0  0  0  0  0  0  0
   24.2293  -25.1430  -14.4932 N   0  0  0  0  0  0  0  0  0  0  0  0
   24.3313  -24.5532  -15.7810 C   0  0  0  0  0  0  0  0  0  0  0  0
   23.9743  -25.2120  -16.7904 O   0  0  0  0  0  0  0  0  0  0  0  0
   24.8457  -23.1794  -15.9878 C   0  0  0  0  0  0  0  0  0  0  0  0
   25.8657  -23.1667  -17.1200 C   0  0  2  0  0  0  0  0  0  0  0  0
   27.0291  -23.8925  -16.6723 N   0  0  0  0  0  0  0  0  0  0  0  0
   26.1831  -21.7742  -17.5009 C   0  0  0  0  0  0  0  0  0  0  0  0
   25.3087  -21.0437  -18.0333 O   0  0  0  0  0  0  0  0  0  0  0  0
   27.4374  -21.2257  -17.2906 O   0  0  0  0  0  0  0  0  0  0  0  0
  2  1  1  6
  2  3  1  0
  4  2  1  0
  4  5  1  0
  5  6  1  1
  5  7  1  0
  7  8  2  0
 10  9  1  6
 11 10  1  0
 12 10  1  0
 13  7  1  0
 12 13  1  6
 14 12  1  0
 14 15  2  0
 16 17  1  0
 17 18  2  0
 17 19  1  0
 20 19  1  1
 20 21  1  0
 21 14  1  0
 22 20  1  0
 22 24  1  0
 23 22  2  0
M  END
$$$$
