LTN.pdb
     RDKit          3D

 24 23  0  0  1  0  0  0  0  0999 V2000
   20.4364  -13.5756  -15.6518 C   0  0  0  0  0  0  0  0  0  0  0  0
   19.6313  -13.6460  -16.9364 C   0  0  2  0  0  0  0  0  0  0  0  0
   20.5790  -13.8382  -18.0751 C   0  0  0  0  0  0  0  0  0  0  0  0
   18.8455  -12.3516  -17.1078 C   0  0  0  0  0  0  0  0  0  0  0  0
   17.8430  -12.2454  -15.9759 C   0  0  2  0  0  0  0  0  0  0  0  0
   16.9776  -13.3926  -15.9933 N   0  0  0  0  0  0  0  0  0  0  0  0
   17.1132  -10.9661  -16.0164 C   0  0  0  0  0  0  0  0  0  0  0  0
   16.3241  -10.7663  -16.9739 O   0  0  0  0  0  0  0  0  0  0  0  0
   14.4979   -9.7992  -13.8952 C   0  0  0  0  0  0  0  0  0  0  0  0
   15.4947   -8.6587  -13.8965 C   0  0  1  0  0  0  0  0  0  0  0  0
   16.2809   -8.7867  -12.7504 O   0  0  0  0  0  0  0  0  0  0  0  0
   16.4199   -8.7274  -15.0857 C   0  0  2  0  0  0  0  0  0  0  0  0
   17.2373   -9.9322  -15.0430 N   0  0  0  0  0  0  0  0  0  0  0  0
   17.2969   -7.5719  -15.2196 C   0  0  0  0  0  0  0  0  0  0  0  0
   18.5470   -7.7179  -15.2932 O   0  0  0  0  0  0  0  0  0  0  0  0
   20.5027   -4.1212  -17.1940 N   0  0  0  0  0  0  0  0  0  0  0  0
   19.0987   -4.1873  -17.3969 C   0  0  0  0  0  0  0  0  0  0  0  0
   18.5107   -3.2254  -17.9532 O   0  0  0  0  0  0  0  0  0  0  0  0
   18.2887   -5.3542  -16.9766 C   0  0  0  0  0  0  0  0  0  0  0  0
   17.7319   -5.1285  -15.5760 C   0  0  2  0  0  0  0  0  0  0  0  0
   16.8376   -6.2201  -15.2769 N   0  0  0  0  0  0  0  0  0  0  0  0
   17.0597   -3.8141  -15.5035 C   0  0  0  0  0  0  0  0  0  0  0  0
   15.8207   -3.7200  -15.6975 O   0  0  0  0  0  0  0  0  0  0  0  0
   17.7564   -2.6502  -15.2234 O   0  0  0  0  0  0  0  0  0  0  0  0
  2  1  1  1
  2  3  1  0
  4  2  1  0
  4  5  1  0
  5  6  1  6
  5  7  1  0
  7  8  2  0
 10  9  1  6
 11 10  1  0
 12 10  1  0
 13  7  1  0
 12 13  1  1
 14 12  1  0
 14 15  2  0
 16 17  1  0
 17 18  2  0
 17 19  1  0
 20 19  1  6
 20 21  1  0
 21 14  1  0
 22 20  1  0
 22 24  1  0
 23 22  2  0
M  END
$$$$
