LTN.pdb
     RDKit          3D

 24 23  0  0  1  0  0  0  0  0999 V2000
   19.5078  -13.1666  -19.2871 C   0  0  0  0  0  0  0  0  0  0  0  0
   19.3700  -13.4789  -17.8083 C   0  0  2  0  0  0  0  0  0  0  0  0
   18.3497  -14.5584  -17.6489 C   0  0  0  0  0  0  0  0  0  0  0  0
   18.9358  -12.2197  -17.0678 C   0  0  0  0  0  0  0  0  0  0  0  0
   20.0668  -11.2124  -17.1300 C   0  0  2  0  0  0  0  0  0  0  0  0
   21.2646  -11.8039  -16.6003 N   0  0  0  0  0  0  0  0  0  0  0  0
   19.7024   -9.9467  -16.4696 C   0  0  0  0  0  0  0  0  0  0  0  0
   18.6470   -9.3715  -16.8366 O   0  0  0  0  0  0  0  0  0  0  0  0
   18.8484   -9.1970  -12.9217 C   0  0  0  0  0  0  0  0  0  0  0  0
   19.9454   -8.2295  -13.3155 C   0  0  1  0  0  0  0  0  0  0  0  0
   21.1559   -8.7640  -12.8716 O   0  0  0  0  0  0  0  0  0  0  0  0
   20.0439   -8.0768  -14.8127 C   0  0  2  0  0  0  0  0  0  0  0  0
   20.4640   -9.3232  -15.4386 N   0  0  0  0  0  0  0  0  0  0  0  0
   20.9426   -7.0128  -15.2403 C   0  0  0  0  0  0  0  0  0  0  0  0
   22.0438   -7.2833  -15.7912 O   0  0  0  0  0  0  0  0  0  0  0  0
   23.0223   -5.2778  -17.7776 N   0  0  0  0  0  0  0  0  0  0  0  0
   21.9111   -4.4038  -17.9126 C   0  0  0  0  0  0  0  0  0  0  0  0
   21.5918   -3.9850  -19.0541 O   0  0  0  0  0  0  0  0  0  0  0  0
   21.1031   -3.9601  -16.7529 C   0  0  0  0  0  0  0  0  0  0  0  0
   21.6194   -4.6102  -15.4750 C   0  0  2  0  0  0  0  0  0  0  0  0
   20.6682   -5.6199  -15.0796 N   0  0  0  0  0  0  0  0  0  0  0  0
   21.8191   -3.5847  -14.4294 C   0  0  0  0  0  0  0  0  0  0  0  0
   22.7120   -2.7084  -14.5579 O   0  0  0  0  0  0  0  0  0  0  0  0
   21.0431   -3.5478  -13.2827 O   0  0  0  0  0  0  0  0  0  0  0  0
  2  1  1  6
  2  3  1  0
  4  2  1  0
  4  5  1  0
  5  6  1  1
  5  7  1  0
  7  8  2  0
 10  9  1  6
 11 10  1  0
 12 10  1  0
 13  7  1  0
 12 13  1  6
 14 12  1  0
 14 15  2  0
 16 17  1  0
 17 18  2  0
 17 19  1  0
 20 19  1  6
 20 21  1  0
 21 14  1  0
 22 20  1  0
 22 24  1  0
 23 22  2  0
M  END
$$$$
