LTN.pdb
     RDKit          3D

 24 23  0  0  1  0  0  0  0  0999 V2000
   23.3605  -14.9860  -14.8954 C   0  0  0  0  0  0  0  0  0  0  0  0
   24.1820  -14.4540  -16.0553 C   0  0  2  0  0  0  0  0  0  0  0  0
   25.6092  -14.3715  -15.6217 C   0  0  0  0  0  0  0  0  0  0  0  0
   23.6623  -13.0763  -16.4481 C   0  0  0  0  0  0  0  0  0  0  0  0
   22.2206  -13.2166  -16.8947 C   0  0  2  0  0  0  0  0  0  0  0  0
   22.1448  -14.1550  -17.9805 N   0  0  0  0  0  0  0  0  0  0  0  0
   21.6222  -11.9087  -17.2139 C   0  0  0  0  0  0  0  0  0  0  0  0
   21.9423  -11.3617  -18.2991 O   0  0  0  0  0  0  0  0  0  0  0  0
   18.3354  -10.9266  -18.1685 C   0  0  0  0  0  0  0  0  0  0  0  0
   18.6513  -10.0318  -16.9877 C   0  0  1  0  0  0  0  0  0  0  0  0
   18.0908  -10.6204  -15.8530 O   0  0  0  0  0  0  0  0  0  0  0  0
   20.1369   -9.9243  -16.7507 C   0  0  2  0  0  0  0  0  0  0  0  0
   20.7011  -11.2140  -16.3767 N   0  0  0  0  0  0  0  0  0  0  0  0
   20.5043   -8.9422  -15.7393 C   0  0  0  0  0  0  0  0  0  0  0  0
   20.7019   -9.2923  -14.5443 O   0  0  0  0  0  0  0  0  0  0  0  0
   21.6683   -4.6047  -13.1551 N   0  0  0  0  0  0  0  0  0  0  0  0
   22.4228   -4.7246  -14.3522 C   0  0  0  0  0  0  0  0  0  0  0  0
   23.4045   -3.9624  -14.5406 O   0  0  0  0  0  0  0  0  0  0  0  0
   22.0989   -5.7208  -15.3997 C   0  0  0  0  0  0  0  0  0  0  0  0
   20.9464   -6.6067  -14.9419 C   0  0  2  0  0  0  0  0  0  0  0  0
   20.6671   -7.5468  -15.9997 N   0  0  0  0  0  0  0  0  0  0  0  0
   19.7720   -5.7757  -14.6027 C   0  0  0  0  0  0  0  0  0  0  0  0
   18.9434   -5.4500  -15.4909 O   0  0  0  0  0  0  0  0  0  0  0  0
   19.5400   -5.3284  -13.3126 O   0  0  0  0  0  0  0  0  0  0  0  0
  2  1  1  1
  2  3  1  0
  4  2  1  0
  4  5  1  0
  5  6  1  6
  5  7  1  0
  7  8  2  0
 10  9  1  6
 11 10  1  0
 12 10  1  0
 13  7  1  0
 12 13  1  1
 14 12  1  0
 14 15  2  0
 16 17  1  0
 17 18  2  0
 17 19  1  0
 20 19  1  6
 20 21  1  0
 21 14  1  0
 22 20  1  0
 22 24  1  0
 23 22  2  0
M  END
$$$$
