LTN.pdb
     RDKit          3D

 24 23  0  0  1  0  0  0  0  0999 V2000
   19.0135  -20.3688  -12.1800 C   0  0  0  0  0  0  0  0  0  0  0  0
   20.2034  -19.4756  -11.8809 C   0  0  2  0  0  0  0  0  0  0  0  0
   20.0749  -18.9752  -10.4791 C   0  0  0  0  0  0  0  0  0  0  0  0
   20.2172  -18.3117  -12.8646 C   0  0  0  0  0  0  0  0  0  0  0  0
   20.4385  -18.8643  -14.2586 C   0  0  2  0  0  0  0  0  0  0  0  0
   21.7180  -19.5159  -14.3179 N   0  0  0  0  0  0  0  0  0  0  0  0
   20.2680  -17.8236  -15.2876 C   0  0  0  0  0  0  0  0  0  0  0  0
   21.2521  -17.0885  -15.5530 O   0  0  0  0  0  0  0  0  0  0  0  0
   18.1241  -15.9742  -19.3082 C   0  0  0  0  0  0  0  0  0  0  0  0
   18.2458  -17.0500  -18.2487 C   0  0  1  0  0  0  0  0  0  0  0  0
   19.0242  -18.0785  -18.7820 O   0  0  0  0  0  0  0  0  0  0  0  0
   18.9540  -16.5431  -17.0173 C   0  0  2  0  0  0  0  0  0  0  0  0
   19.0611  -17.5882  -16.0086 N   0  0  0  0  0  0  0  0  0  0  0  0
   18.3275  -15.3740  -16.4146 C   0  0  0  0  0  0  0  0  0  0  0  0
   17.7671  -15.4532  -15.2881 O   0  0  0  0  0  0  0  0  0  0  0  0
   16.4236  -12.1823  -13.0310 N   0  0  0  0  0  0  0  0  0  0  0  0
   16.2730  -12.3572  -14.4322 C   0  0  0  0  0  0  0  0  0  0  0  0
   15.5829  -11.5339  -15.0851 O   0  0  0  0  0  0  0  0  0  0  0  0
   16.9015  -13.4806  -15.1653 C   0  0  0  0  0  0  0  0  0  0  0  0
   17.6733  -12.9540  -16.3693 C   0  0  2  0  0  0  0  0  0  0  0  0
   18.2922  -14.0814  -17.0226 N   0  0  0  0  0  0  0  0  0  0  0  0
   18.6606  -11.9430  -15.9359 C   0  0  0  0  0  0  0  0  0  0  0  0
   19.8929  -12.1589  -16.0647 O   0  0  0  0  0  0  0  0  0  0  0  0
   18.2749  -10.7352  -15.3784 O   0  0  0  0  0  0  0  0  0  0  0  0
  2  1  1  6
  2  3  1  0
  4  2  1  0
  4  5  1  0
  5  6  1  1
  5  7  1  0
  7  8  2  0
 10  9  1  6
 11 10  1  0
 12 10  1  0
 13  7  1  0
 12 13  1  1
 14 12  1  0
 14 15  2  0
 16 17  1  0
 17 18  2  0
 17 19  1  0
 20 19  1  1
 20 21  1  0
 21 14  1  0
 22 20  1  0
 22 24  1  0
 23 22  2  0
M  END
$$$$
