LTN.pdb
     RDKit          3D

 24 23  0  0  1  0  0  0  0  0999 V2000
   27.7691  -13.0188  -14.9950 C   0  0  0  0  0  0  0  0  0  0  0  0
   27.4901  -13.3277  -16.4545 C   0  0  2  0  0  0  0  0  0  0  0  0
   28.7961  -13.4127  -17.1749 C   0  0  0  0  0  0  0  0  0  0  0  0
   26.6250  -12.2209  -17.0453 C   0  0  0  0  0  0  0  0  0  0  0  0
   25.2815  -12.2359  -16.3436 C   0  0  2  0  0  0  0  0  0  0  0  0
   24.6924  -13.5411  -16.4649 N   0  0  0  0  0  0  0  0  0  0  0  0
   24.4049  -11.1553  -16.8280 C   0  0  0  0  0  0  0  0  0  0  0  0
   23.8581  -11.2967  -17.9507 O   0  0  0  0  0  0  0  0  0  0  0  0
   21.7382  -10.8735  -17.4882 C   0  0  0  0  0  0  0  0  0  0  0  0
   21.7529   -9.6515  -16.5932 C   0  0  1  0  0  0  0  0  0  0  0  0
   21.4553  -10.0764  -15.2974 O   0  0  0  0  0  0  0  0  0  0  0  0
   23.1153   -9.0059  -16.5524 C   0  0  2  0  0  0  0  0  0  0  0  0
   24.1298   -9.9538  -16.1121 N   0  0  0  0  0  0  0  0  0  0  0  0
   23.1831   -7.8219  -15.7063 C   0  0  0  0  0  0  0  0  0  0  0  0
   23.7827   -7.8566  -14.5978 O   0  0  0  0  0  0  0  0  0  0  0  0
   24.6181   -4.4940  -17.0313 N   0  0  0  0  0  0  0  0  0  0  0  0
   23.3704   -3.8187  -16.9682 C   0  0  0  0  0  0  0  0  0  0  0  0
   23.1394   -2.8753  -17.7664 O   0  0  0  0  0  0  0  0  0  0  0  0
   22.3178   -4.1828  -15.9915 C   0  0  0  0  0  0  0  0  0  0  0  0
   22.7461   -5.4073  -15.1917 C   0  0  2  0  0  0  0  0  0  0  0  0
   22.5981   -6.5625  -16.0428 N   0  0  0  0  0  0  0  0  0  0  0  0
   21.9423   -5.5121  -13.9557 C   0  0  0  0  0  0  0  0  0  0  0  0
   20.8596   -6.1520  -13.9514 O   0  0  0  0  0  0  0  0  0  0  0  0
   22.3424   -4.9185  -12.7699 O   0  0  0  0  0  0  0  0  0  0  0  0
  2  1  1  1
  2  3  1  0
  4  2  1  0
  4  5  1  0
  5  6  1  6
  5  7  1  0
  7  8  2  0
 10  9  1  6
 11 10  1  0
 12 10  1  0
 13  7  1  0
 12 13  1  1
 14 12  1  0
 14 15  2  0
 16 17  1  0
 17 18  2  0
 17 19  1  0
 20 19  1  6
 20 21  1  0
 21 14  1  0
 22 20  1  0
 22 24  1  0
 23 22  2  0
M  END
$$$$
