LTN.pdb
     RDKit          3D

 24 23  0  0  1  0  0  0  0  0999 V2000
   17.0015  -13.2218  -17.7339 C   0  0  0  0  0  0  0  0  0  0  0  0
   18.1538  -14.0403  -17.1813 C   0  0  2  0  0  0  0  0  0  0  0  0
   17.5980  -15.2936  -16.5879 C   0  0  0  0  0  0  0  0  0  0  0  0
   18.8851  -13.2257  -16.1210 C   0  0  0  0  0  0  0  0  0  0  0  0
   19.4722  -11.9946  -16.7823 C   0  0  2  0  0  0  0  0  0  0  0  0
   20.2861  -12.3923  -17.8979 N   0  0  0  0  0  0  0  0  0  0  0  0
   20.1889  -11.1481  -15.8124 C   0  0  0  0  0  0  0  0  0  0  0  0
   19.8823  -11.2516  -14.5981 O   0  0  0  0  0  0  0  0  0  0  0  0
   23.4530  -11.4296  -14.6804 C   0  0  0  0  0  0  0  0  0  0  0  0
   23.3808   -9.9641  -15.0565 C   0  0  1  0  0  0  0  0  0  0  0  0
   23.9408   -9.8287  -16.3279 O   0  0  0  0  0  0  0  0  0  0  0  0
   21.9552   -9.4789  -15.1397 C   0  0  2  0  0  0  0  0  0  0  0  0
   21.2109  -10.2146  -16.1528 N   0  0  0  0  0  0  0  0  0  0  0  0
   21.8312   -8.0530  -15.4119 C   0  0  0  0  0  0  0  0  0  0  0  0
   21.4368   -7.6447  -16.5377 O   0  0  0  0  0  0  0  0  0  0  0  0
   20.2403   -3.3847  -16.5389 N   0  0  0  0  0  0  0  0  0  0  0  0
   20.1929   -3.9651  -15.2437 C   0  0  0  0  0  0  0  0  0  0  0  0
   19.9171   -3.2410  -14.2538 O   0  0  0  0  0  0  0  0  0  0  0  0
   20.4572   -5.4034  -15.0068 C   0  0  0  0  0  0  0  0  0  0  0  0
   21.9459   -5.6311  -14.7737 C   0  0  2  0  0  0  0  0  0  0  0  0
   22.1343   -7.0274  -14.4645 N   0  0  0  0  0  0  0  0  0  0  0  0
   22.4316   -4.7451  -13.6949 C   0  0  0  0  0  0  0  0  0  0  0  0
   22.4074   -5.1270  -12.4968 O   0  0  0  0  0  0  0  0  0  0  0  0
   22.9251   -3.4774  -13.9553 O   0  0  0  0  0  0  0  0  0  0  0  0
  2  1  1  1
  2  3  1  0
  4  2  1  0
  4  5  1  0
  5  6  1  6
  5  7  1  0
  7  8  2  0
 10  9  1  6
 11 10  1  0
 12 10  1  0
 13  7  1  0
 12 13  1  6
 14 12  1  0
 14 15  2  0
 16 17  1  0
 17 18  2  0
 17 19  1  0
 20 19  1  1
 20 21  1  0
 21 14  1  0
 22 20  1  0
 22 24  1  0
 23 22  2  0
M  END
$$$$
