LTN.pdb
     RDKit          3D

 24 23  0  0  1  0  0  0  0  0999 V2000
   19.4274  -16.4797  -15.9686 C   0  0  0  0  0  0  0  0  0  0  0  0
   19.4356  -15.9807  -17.4019 C   0  0  2  0  0  0  0  0  0  0  0  0
   19.9195  -17.0867  -18.2819 C   0  0  0  0  0  0  0  0  0  0  0  0
   20.3575  -14.7717  -17.5071 C   0  0  0  0  0  0  0  0  0  0  0  0
   19.6288  -13.5631  -16.9541 C   0  0  2  0  0  0  0  0  0  0  0  0
   18.3222  -13.4792  -17.5464 N   0  0  0  0  0  0  0  0  0  0  0  0
   20.4208  -12.3314  -17.1166 C   0  0  0  0  0  0  0  0  0  0  0  0
   21.6737  -12.4275  -17.0938 O   0  0  0  0  0  0  0  0  0  0  0  0
   20.8793  -10.3257  -20.0524 C   0  0  0  0  0  0  0  0  0  0  0  0
   20.4185   -9.3522  -18.9872 C   0  0  1  0  0  0  0  0  0  0  0  0
   19.0348   -9.2175  -19.1117 O   0  0  0  0  0  0  0  0  0  0  0  0
   20.6961   -9.8717  -17.5988 C   0  0  2  0  0  0  0  0  0  0  0  0
   19.8667  -11.0309  -17.2989 N   0  0  0  0  0  0  0  0  0  0  0  0
   20.5100   -8.8794  -16.5484 C   0  0  0  0  0  0  0  0  0  0  0  0
   19.4169   -8.7991  -15.9253 O   0  0  0  0  0  0  0  0  0  0  0  0
   21.0606   -4.9291  -13.2371 N   0  0  0  0  0  0  0  0  0  0  0  0
   22.3475   -5.2324  -13.7552 C   0  0  0  0  0  0  0  0  0  0  0  0
   23.3500   -4.6140  -13.3160 O   0  0  0  0  0  0  0  0  0  0  0  0
   22.5614   -6.2581  -14.8025 C   0  0  0  0  0  0  0  0  0  0  0  0
   21.2360   -6.9126  -15.1734 C   0  0  2  0  0  0  0  0  0  0  0  0
   21.5107   -7.9426  -16.1452 N   0  0  0  0  0  0  0  0  0  0  0  0
   20.2932   -5.8948  -15.6832 C   0  0  0  0  0  0  0  0  0  0  0  0
   20.4836   -5.3525  -16.8018 O   0  0  0  0  0  0  0  0  0  0  0  0
   19.1786   -5.5025  -14.9605 O   0  0  0  0  0  0  0  0  0  0  0  0
  2  1  1  1
  2  3  1  0
  4  2  1  0
  4  5  1  0
  5  6  1  6
  5  7  1  0
  7  8  2  0
 10  9  1  6
 11 10  1  0
 12 10  1  0
 13  7  1  0
 12 13  1  1
 14 12  1  0
 14 15  2  0
 16 17  1  0
 17 18  2  0
 17 19  1  0
 20 19  1  6
 20 21  1  0
 21 14  1  0
 22 20  1  0
 22 24  1  0
 23 22  2  0
M  END
$$$$
