LTN.pdb
     RDKit          3D

 24 23  0  0  1  0  0  0  0  0999 V2000
   17.3613  -14.5656  -18.6157 C   0  0  0  0  0  0  0  0  0  0  0  0
   17.7167  -15.0468  -17.2210 C   0  0  2  0  0  0  0  0  0  0  0  0
   16.4482  -15.3073  -16.4762 C   0  0  0  0  0  0  0  0  0  0  0  0
   18.5405  -13.9763  -16.5154 C   0  0  0  0  0  0  0  0  0  0  0  0
   19.8331  -13.7821  -17.2828 C   0  0  2  0  0  0  0  0  0  0  0  0
   20.5648  -15.0187  -17.3092 N   0  0  0  0  0  0  0  0  0  0  0  0
   20.6165  -12.6544  -16.7486 C   0  0  0  0  0  0  0  0  0  0  0  0
   21.1368  -12.7827  -15.6118 O   0  0  0  0  0  0  0  0  0  0  0  0
   23.6618  -11.2976  -18.0526 C   0  0  0  0  0  0  0  0  0  0  0  0
   22.8293  -10.0615  -17.7809 C   0  0  1  0  0  0  0  0  0  0  0  0
   22.3080   -9.6297  -19.0015 O   0  0  0  0  0  0  0  0  0  0  0  0
   21.6616  -10.3631  -16.8753 C   0  0  2  0  0  0  0  0  0  0  0  0
   20.8289  -11.4211  -17.4309 N   0  0  0  0  0  0  0  0  0  0  0  0
   20.8211   -9.2077  -16.5902 C   0  0  0  0  0  0  0  0  0  0  0  0
   19.6158   -9.1821  -16.9589 O   0  0  0  0  0  0  0  0  0  0  0  0
   17.1886   -6.0870  -15.0093 N   0  0  0  0  0  0  0  0  0  0  0  0
   18.3506   -6.4321  -14.2694 C   0  0  0  0  0  0  0  0  0  0  0  0
   18.6224   -5.7986  -13.2182 O   0  0  0  0  0  0  0  0  0  0  0  0
   19.2660   -7.5190  -14.6881 C   0  0  0  0  0  0  0  0  0  0  0  0
   20.3727   -6.9599  -15.5742 C   0  0  2  0  0  0  0  0  0  0  0  0
   21.2697   -8.0432  -15.8942 N   0  0  0  0  0  0  0  0  0  0  0  0
   21.0585   -5.8457  -14.8865 C   0  0  0  0  0  0  0  0  0  0  0  0
   22.1290   -6.0467  -14.2579 O   0  0  0  0  0  0  0  0  0  0  0  0
   20.5575   -4.5545  -14.9057 O   0  0  0  0  0  0  0  0  0  0  0  0
  2  1  1  6
  2  3  1  0
  4  2  1  0
  4  5  1  0
  5  6  1  1
  5  7  1  0
  7  8  2  0
 10  9  1  6
 11 10  1  0
 12 10  1  0
 13  7  1  0
 12 13  1  6
 14 12  1  0
 14 15  2  0
 16 17  1  0
 17 18  2  0
 17 19  1  0
 20 19  1  1
 20 21  1  0
 21 14  1  0
 22 20  1  0
 22 24  1  0
 23 22  2  0
M  END
$$$$
