LTN.pdb
     RDKit          3D

 24 23  0  0  1  0  0  0  0  0999 V2000
   24.2720  -20.5513   -9.7797 C   0  0  0  0  0  0  0  0  0  0  0  0
   25.0364  -21.4418  -10.7420 C   0  0  2  0  0  0  0  0  0  0  0  0
   26.2350  -21.9813  -10.0319 C   0  0  0  0  0  0  0  0  0  0  0  0
   25.4582  -20.6231  -11.9562 C   0  0  0  0  0  0  0  0  0  0  0  0
   24.2093  -20.1454  -12.6701 C   0  0  2  0  0  0  0  0  0  0  0  0
   23.2160  -21.1836  -12.6441 N   0  0  0  0  0  0  0  0  0  0  0  0
   24.5123  -19.6648  -14.0295 C   0  0  0  0  0  0  0  0  0  0  0  0
   25.5128  -18.9200  -14.1834 O   0  0  0  0  0  0  0  0  0  0  0  0
   25.4652  -21.5294  -16.9971 C   0  0  0  0  0  0  0  0  0  0  0  0
   24.3474  -20.6240  -17.4717 C   0  0  1  0  0  0  0  0  0  0  0  0
   23.1793  -21.3867  -17.5159 O   0  0  0  0  0  0  0  0  0  0  0  0
   24.1049  -19.4864  -16.5116 C   0  0  2  0  0  0  0  0  0  0  0  0
   23.7490  -19.9847  -15.1901 N   0  0  0  0  0  0  0  0  0  0  0  0
   23.0779  -18.5512  -16.9509 C   0  0  0  0  0  0  0  0  0  0  0  0
   21.9722  -18.4804  -16.3493 O   0  0  0  0  0  0  0  0  0  0  0  0
   20.7971  -14.2504  -18.4818 N   0  0  0  0  0  0  0  0  0  0  0  0
   21.4818  -14.4899  -17.2609 C   0  0  0  0  0  0  0  0  0  0  0  0
   21.3687  -13.6650  -16.3190 O   0  0  0  0  0  0  0  0  0  0  0  0
   22.3326  -15.6837  -17.0474 C   0  0  0  0  0  0  0  0  0  0  0  0
   22.3078  -16.5729  -18.2848 C   0  0  2  0  0  0  0  0  0  0  0  0
   23.2246  -17.6639  -18.0611 N   0  0  0  0  0  0  0  0  0  0  0  0
   22.6557  -15.7823  -19.4843 C   0  0  0  0  0  0  0  0  0  0  0  0
   21.9342  -14.8166  -19.8428 O   0  0  0  0  0  0  0  0  0  0  0  0
   23.7732  -16.0686  -20.2509 O   0  0  0  0  0  0  0  0  0  0  0  0
  2  1  1  1
  2  3  1  0
  4  2  1  0
  4  5  1  0
  5  6  1  6
  5  7  1  0
  7  8  2  0
 10  9  1  1
 11 10  1  0
 12 10  1  0
 13  7  1  0
 12 13  1  1
 14 12  1  0
 14 15  2  0
 16 17  1  0
 17 18  2  0
 17 19  1  0
 20 19  1  1
 20 21  1  0
 21 14  1  0
 22 20  1  0
 22 24  1  0
 23 22  2  0
M  END
$$$$
