LTN.pdb
     RDKit          3D

 24 23  0  0  1  0  0  0  0  0999 V2000
   17.6568  -19.5727    3.4852 C   0  0  0  0  0  0  0  0  0  0  0  0
   16.8140  -18.3628    3.1255 C   0  0  2  0  0  0  0  0  0  0  0  0
   15.9963  -18.7008    1.9218 C   0  0  0  0  0  0  0  0  0  0  0  0
   17.7310  -17.1811    2.8340 C   0  0  0  0  0  0  0  0  0  0  0  0
   17.2381  -15.9850    3.6240 C   0  0  2  0  0  0  0  0  0  0  0  0
   16.3681  -15.1921    2.7996 N   0  0  0  0  0  0  0  0  0  0  0  0
   18.3564  -15.2156    4.1969 C   0  0  0  0  0  0  0  0  0  0  0  0
   19.2539  -14.8083    3.4173 O   0  0  0  0  0  0  0  0  0  0  0  0
   18.9359  -11.9811    5.0057 C   0  0  0  0  0  0  0  0  0  0  0  0
   19.2423  -12.6881    6.3098 C   0  0  1  0  0  0  0  0  0  0  0  0
   18.0752  -12.6814    7.0754 O   0  0  0  0  0  0  0  0  0  0  0  0
   19.6248  -14.1298    6.0866 C   0  0  2  0  0  0  0  0  0  0  0  0
   18.4957  -14.8976    5.5794 N   0  0  0  0  0  0  0  0  0  0  0  0
   20.1458  -14.7936    7.2742 C   0  0  0  0  0  0  0  0  0  0  0  0
   19.8104  -15.9775    7.5491 O   0  0  0  0  0  0  0  0  0  0  0  0
   23.4039  -18.2621    9.4846 N   0  0  0  0  0  0  0  0  0  0  0  0
   23.0250  -16.9175    9.7401 C   0  0  0  0  0  0  0  0  0  0  0  0
   23.1191  -16.4622   10.9081 O   0  0  0  0  0  0  0  0  0  0  0  0
   22.5183  -16.0186    8.6772 C   0  0  0  0  0  0  0  0  0  0  0  0
   21.6375  -14.9333    9.2845 C   0  0  2  0  0  0  0  0  0  0  0  0
   21.0488  -14.1863    8.2000 N   0  0  0  0  0  0  0  0  0  0  0  0
   22.4362  -14.0789   10.1882 C   0  0  0  0  0  0  0  0  0  0  0  0
   22.7448  -14.4814   11.3391 O   0  0  0  0  0  0  0  0  0  0  0  0
   22.8705  -12.8191    9.8103 O   0  0  0  0  0  0  0  0  0  0  0  0
  2  1  1  6
  2  3  1  0
  4  2  1  0
  4  5  1  0
  5  6  1  6
  5  7  1  0
  7  8  2  0
 10  9  1  6
 11 10  1  0
 12 10  1  0
 13  7  1  0
 12 13  1  1
 14 12  1  0
 14 15  2  0
 16 17  1  0
 17 18  2  0
 17 19  1  0
 20 19  1  6
 20 21  1  0
 21 14  1  0
 22 20  1  0
 22 24  1  0
 23 22  2  0
M  END
$$$$
