RIK.pdb
     RDKit          3D

 29 28  0  0  1  0  0  0  0  0999 V2000
   22.3155  -20.8516  -16.9163 N   0  0  0  0  0  0  0  0  0  0  0  0
   22.3582  -19.4175  -17.0147 C   0  0  0  0  0  0  0  0  0  0  0  0
   21.6665  -18.8046  -17.9030 N   0  0  0  0  0  0  0  0  0  0  0  0
   23.1753  -18.6855  -16.1182 N   0  0  0  0  0  0  0  0  0  0  0  0
   23.6729  -19.3253  -14.9022 C   0  0  0  0  0  0  0  0  0  0  0  0
   22.5414  -19.3410  -13.9180 C   0  0  0  0  0  0  0  0  0  0  0  0
   22.8221  -20.0212  -12.6338 C   0  0  0  0  0  0  0  0  0  0  0  0
   24.2408  -19.9772  -12.1409 C   0  0  2  0  0  0  0  0  0  0  0  0
   25.1849  -20.5453  -13.0694 N   0  0  0  0  0  0  0  0  0  0  0  0
   24.2482  -20.7843  -10.8673 C   0  0  0  0  0  0  0  0  0  0  0  0
   24.3847  -22.0274  -10.9489 O   0  0  0  0  0  0  0  0  0  0  0  0
   21.6853  -17.7822  -18.0300 C   0  0  0  0  0  0  0  0  0  0  0  0
   26.7323  -18.5348   -7.0511 C   0  0  0  0  0  0  0  0  0  0  0  0
   26.3191  -19.8970   -7.6485 C   0  0  2  0  0  0  0  0  0  0  0  0
   24.8969  -20.1905   -7.3265 C   0  0  0  0  0  0  0  0  0  0  0  0
   24.8886  -20.8961   -5.9622 C   0  0  2  0  0  0  0  0  0  0  0  0
   24.1265  -20.9726   -8.3449 N   0  0  0  0  0  0  0  0  0  0  0  0
   24.1062  -20.1764   -9.6038 C   0  0  0  0  0  0  0  0  0  0  0  0
   22.7248  -21.2728   -7.9737 O   0  0  0  0  0  0  0  0  0  0  0  0
   21.8521  -20.3278   -8.0192 N   0  0  0  0  0  0  0  0  0  0  0  0
   22.2387  -22.5339   -7.5673 C   0  0  1  0  0  0  0  0  0  0  0  0
   20.7761  -22.7272   -7.2246 C   0  0  0  0  0  0  0  0  0  0  0  0
   20.3882  -23.8929   -8.0172 C   0  0  0  0  0  0  0  0  0  0  0  0
   19.0926  -24.5428   -8.0235 C   0  0  0  0  0  0  0  0  0  0  0  0
   18.9323  -25.6845   -8.9638 C   0  0  0  0  0  0  0  0  0  0  0  0
   17.4865  -26.2148   -8.8665 N   0  0  0  0  0  0  0  0  0  0  0  0
   17.2957  -27.2215   -9.8696 C   0  0  0  0  0  0  0  0  0  0  0  0
   20.6298  -22.6654   -5.7873 O   0  0  0  0  0  0  0  0  0  0  0  0
   19.5738  -22.4582   -5.1247 O   0  0  0  0  0  0  0  0  0  0  0  0
  1  2  1  0
  2  3  2  0
  4  5  1  0
  4  2  1  0
  6  5  1  0
  7  6  1  0
  8  7  1  0
  8  9  1  6
 10  8  1  0
 10 17  1  0
 11 10  2  0
 12 13  1  0
 13 14  1  0
 14 16  1  0
 14 15  1  6
 16 17  1  6
 18 16  1  0
 19 18  2  0
 20 18  1  0
 21 20  1  0
 21 27  1  0
 21 22  1  1
 23 22  1  0
 24 23  1  0
 25 24  1  0
 26 25  1  0
 27 29  1  0
 28 27  2  0
M  END
$$$$
