RIK.pdb
     RDKit          3D

 29 28  0  0  1  0  0  0  0  0999 V2000
   23.0012  -20.2591  -24.3836 N   0  0  0  0  0  0  0  0  0  0  0  0
   22.9402  -20.8936  -23.0945 C   0  0  0  0  0  0  0  0  0  0  0  0
   23.3454  -22.1001  -22.9424 N   0  0  0  0  0  0  0  0  0  0  0  0
   22.4254  -20.1707  -21.9901 N   0  0  0  0  0  0  0  0  0  0  0  0
   22.1702  -18.7373  -22.1160 C   0  0  0  0  0  0  0  0  0  0  0  0
   23.3783  -18.0262  -21.5830 C   0  0  0  0  0  0  0  0  0  0  0  0
   23.8242  -18.4477  -20.2361 C   0  0  0  0  0  0  0  0  0  0  0  0
   22.9901  -17.9899  -19.0732 C   0  0  2  0  0  0  0  0  0  0  0  0
   23.1857  -16.6011  -18.7430 N   0  0  0  0  0  0  0  0  0  0  0  0
   23.4225  -18.8441  -17.9084 C   0  0  0  0  0  0  0  0  0  0  0  0
   23.2932  -20.0874  -17.9992 O   0  0  0  0  0  0  0  0  0  0  0  0
   23.2438  -22.6254  -22.0618 C   0  0  0  0  0  0  0  0  0  0  0  0
   27.3512  -16.7172  -15.5964 C   0  0  0  0  0  0  0  0  0  0  0  0
   26.8188  -18.1494  -15.8168 C   0  0  2  0  0  0  0  0  0  0  0  0
   25.6115  -18.3845  -14.9804 C   0  0  0  0  0  0  0  0  0  0  0  0
   26.0879  -19.0976  -13.7061 C   0  0  2  0  0  0  0  0  0  0  0  0
   24.4826  -19.1269  -15.6260 N   0  0  0  0  0  0  0  0  0  0  0  0
   23.9617  -18.2796  -16.7350 C   0  0  0  0  0  0  0  0  0  0  0  0
   23.3500  -19.4475  -14.7278 O   0  0  0  0  0  0  0  0  0  0  0  0
   22.6806  -18.4829  -14.2004 N   0  0  0  0  0  0  0  0  0  0  0  0
   22.9184  -20.7476  -14.3880 C   0  0  1  0  0  0  0  0  0  0  0  0
   21.7875  -20.9562  -13.4024 C   0  0  0  0  0  0  0  0  0  0  0  0
   21.1645  -22.2001  -13.8517 C   0  0  0  0  0  0  0  0  0  0  0  0
   19.9545  -22.8009  -13.3263 C   0  0  0  0  0  0  0  0  0  0  0  0
   19.4804  -24.0343  -14.0098 C   0  0  0  0  0  0  0  0  0  0  0  0
   18.1720  -24.5063  -13.3416 N   0  0  0  0  0  0  0  0  0  0  0  0
   17.7617  -25.7384  -13.9495 C   0  0  0  0  0  0  0  0  0  0  0  0
   22.3048  -20.7702  -12.0648 O   0  0  0  0  0  0  0  0  0  0  0  0
   23.4713  -21.0147  -11.6449 O   0  0  0  0  0  0  0  0  0  0  0  0
  1  2  1  0
  2  3  2  0
  4  5  1  0
  4  2  1  0
  6  5  1  0
  7  6  1  0
  8  7  1  0
  8  9  1  1
 10  8  1  0
 10 17  1  0
 11 10  2  0
 12 13  1  0
 13 14  1  0
 14 16  1  0
 14 15  1  6
 16 17  1  6
 18 16  1  0
 19 18  2  0
 20 18  1  0
 21 20  1  0
 21 27  1  0
 21 22  1  1
 23 22  1  0
 24 23  1  0
 25 24  1  0
 26 25  1  0
 27 29  1  0
 28 27  2  0
M  END
$$$$
