RIK.pdb
     RDKit          3D

 29 28  0  0  1  0  0  0  0  0999 V2000
   20.2243  -21.2025  -11.6849 N   0  0  0  0  0  0  0  0  0  0  0  0
   19.6064  -21.0744  -10.3926 C   0  0  0  0  0  0  0  0  0  0  0  0
   18.3891  -21.4338  -10.2141 N   0  0  0  0  0  0  0  0  0  0  0  0
   20.3580  -20.5448   -9.3146 N   0  0  0  0  0  0  0  0  0  0  0  0
   21.7666  -20.2073   -9.5085 C   0  0  0  0  0  0  0  0  0  0  0  0
   22.5688  -21.3958   -9.0689 C   0  0  0  0  0  0  0  0  0  0  0  0
   23.6805  -21.7825   -9.9662 C   0  0  0  0  0  0  0  0  0  0  0  0
   25.0558  -21.3181   -9.5784 C   0  0  2  0  0  0  0  0  0  0  0  0
   25.0778  -20.5629   -8.3514 N   0  0  0  0  0  0  0  0  0  0  0  0
   25.5169  -20.4381  -10.7126 C   0  0  0  0  0  0  0  0  0  0  0  0
   25.4205  -19.1954  -10.5816 O   0  0  0  0  0  0  0  0  0  0  0  0
   17.9032  -21.3595   -9.3084 C   0  0  0  0  0  0  0  0  0  0  0  0
   30.3384  -20.8579  -12.4228 C   0  0  0  0  0  0  0  0  0  0  0  0
   28.9449  -20.2900  -12.0779 C   0  0  2  0  0  0  0  0  0  0  0  0
   28.0092  -20.4950  -13.2158 C   0  0  0  0  0  0  0  0  0  0  0  0
   28.6018  -19.7434  -14.4171 C   0  0  2  0  0  0  0  0  0  0  0  0
   26.5805  -20.1087  -12.9871 N   0  0  0  0  0  0  0  0  0  0  0  0
   26.0467  -20.9782  -11.9016 C   0  0  0  0  0  0  0  0  0  0  0  0
   25.6961  -20.2571  -14.1654 O   0  0  0  0  0  0  0  0  0  0  0  0
   25.4643  -21.4365  -14.6258 N   0  0  0  0  0  0  0  0  0  0  0  0
   25.0606  -19.1987  -14.8492 C   0  0  1  0  0  0  0  0  0  0  0  0
   24.1355  -19.4746  -16.0163 C   0  0  0  0  0  0  0  0  0  0  0  0
   23.1755  -18.3733  -15.9621 C   0  0  0  0  0  0  0  0  0  0  0  0
   22.0622  -18.1506  -16.8632 C   0  0  0  0  0  0  0  0  0  0  0  0
   21.2775  -16.9054  -16.6466 C   0  0  0  0  0  0  0  0  0  0  0  0
   20.0851  -16.8876  -17.6259 N   0  0  0  0  0  0  0  0  0  0  0  0
   19.2656  -15.7476  -17.3345 C   0  0  0  0  0  0  0  0  0  0  0  0
   24.9412  -19.7632  -17.1819 O   0  0  0  0  0  0  0  0  0  0  0  0
   26.0669  -19.2756  -17.4851 O   0  0  0  0  0  0  0  0  0  0  0  0
  1  2  1  0
  2  3  2  0
  4  5  1  0
  4  2  1  0
  6  5  1  0
  7  6  1  0
  8  7  1  0
  8  9  1  1
 10  8  1  0
 10 17  1  0
 11 10  2  0
 12 13  1  0
 13 14  1  0
 14 16  1  0
 14 15  1  6
 16 17  1  1
 18 16  1  0
 19 18  2  0
 20 18  1  0
 21 20  1  0
 21 27  1  0
 21 22  1  6
 23 22  1  0
 24 23  1  0
 25 24  1  0
 26 25  1  0
 27 29  1  0
 28 27  2  0
M  END
$$$$
