RIK.pdb
     RDKit          3D

 29 28  0  0  1  0  0  0  0  0999 V2000
   20.3172  -26.2451  -12.8055 N   0  0  0  0  0  0  0  0  0  0  0  0
   20.7868  -27.4979  -12.2784 C   0  0  0  0  0  0  0  0  0  0  0  0
   21.6356  -28.2023  -12.9313 N   0  0  0  0  0  0  0  0  0  0  0  0
   20.3003  -27.9488  -11.0264 N   0  0  0  0  0  0  0  0  0  0  0  0
   19.7428  -26.9890  -10.0759 C   0  0  0  0  0  0  0  0  0  0  0  0
   18.2848  -26.8467  -10.3974 C   0  0  0  0  0  0  0  0  0  0  0  0
   17.6238  -25.6437   -9.8439 C   0  0  0  0  0  0  0  0  0  0  0  0
   18.4720  -24.7322   -9.0028 C   0  0  2  0  0  0  0  0  0  0  0  0
   18.0529  -24.6732   -7.6255 N   0  0  0  0  0  0  0  0  0  0  0  0
   18.3313  -23.3660   -9.6249 C   0  0  0  0  0  0  0  0  0  0  0  0
   17.3181  -22.6836   -9.3446 O   0  0  0  0  0  0  0  0  0  0  0  0
   22.0033  -29.1037  -12.5936 C   0  0  0  0  0  0  0  0  0  0  0  0
   21.7032  -18.5926  -10.4966 C   0  0  0  0  0  0  0  0  0  0  0  0
   20.5045  -19.3092  -11.1543 C   0  0  2  0  0  0  0  0  0  0  0  0
   20.3754  -20.6919  -10.6213 C   0  0  0  0  0  0  0  0  0  0  0  0
   21.6867  -21.4189  -10.9547 C   0  0  2  0  0  0  0  0  0  0  0  0
   19.1879  -21.4797  -11.0814 N   0  0  0  0  0  0  0  0  0  0  0  0
   19.3036  -22.8480  -10.5039 C   0  0  0  0  0  0  0  0  0  0  0  0
   19.0580  -21.6152  -12.5501 O   0  0  0  0  0  0  0  0  0  0  0  0
   19.7343  -22.5288  -13.1538 N   0  0  0  0  0  0  0  0  0  0  0  0
   18.2360  -20.8181  -13.3752 C   0  0  1  0  0  0  0  0  0  0  0  0
   18.1858  -21.0463  -14.8717 C   0  0  0  0  0  0  0  0  0  0  0  0
   16.7679  -20.8977  -15.1951 C   0  0  0  0  0  0  0  0  0  0  0  0
   16.1646  -21.0000  -16.5091 C   0  0  0  0  0  0  0  0  0  0  0  0
   14.7029  -20.7341  -16.5860 C   0  0  0  0  0  0  0  0  0  0  0  0
   14.2360  -20.9181  -18.0453 N   0  0  0  0  0  0  0  0  0  0  0  0
   12.8115  -20.7627  -18.0971 C   0  0  0  0  0  0  0  0  0  0  0  0
   19.2245  -20.2537  -15.4916 O   0  0  0  0  0  0  0  0  0  0  0  0
   19.7224  -19.1689  -15.0764 O   0  0  0  0  0  0  0  0  0  0  0  0
  1  2  1  0
  2  3  2  0
  4  5  1  0
  4  2  1  0
  6  5  1  0
  7  6  1  0
  8  7  1  0
  8  9  1  1
 10  8  1  0
 10 17  1  0
 11 10  2  0
 12 13  1  0
 13 14  1  0
 14 16  1  0
 14 15  1  1
 16 17  1  6
 18 16  1  0
 19 18  2  0
 20 18  1  0
 21 20  1  0
 21 27  1  0
 21 22  1  6
 23 22  1  0
 24 23  1  0
 25 24  1  0
 26 25  1  0
 27 29  1  0
 28 27  2  0
M  END
$$$$
