RIK.pdb
     RDKit          3D

 29 28  0  0  1  0  0  0  0  0999 V2000
   27.4053  -21.4713  -17.1508 N   0  0  0  0  0  0  0  0  0  0  0  0
   28.0421  -21.7584  -15.8937 C   0  0  0  0  0  0  0  0  0  0  0  0
   28.9225  -22.6858  -15.8063 N   0  0  0  0  0  0  0  0  0  0  0  0
   27.6856  -21.0044  -14.7484 N   0  0  0  0  0  0  0  0  0  0  0  0
   26.2993  -20.9979  -14.2862 C   0  0  0  0  0  0  0  0  0  0  0  0
   25.5185  -20.1521  -15.2474 C   0  0  0  0  0  0  0  0  0  0  0  0
   24.0513  -20.1535  -15.0524 C   0  0  0  0  0  0  0  0  0  0  0  0
   23.4739  -21.2991  -14.2702 C   0  0  2  0  0  0  0  0  0  0  0  0
   23.8261  -22.5898  -14.8052 N   0  0  0  0  0  0  0  0  0  0  0  0
   21.9784  -21.1214  -14.3432 C   0  0  0  0  0  0  0  0  0  0  0  0
   21.3498  -21.7169  -15.2492 O   0  0  0  0  0  0  0  0  0  0  0  0
   29.3420  -22.9867  -14.9145 C   0  0  0  0  0  0  0  0  0  0  0  0
   18.8687  -21.9411  -10.1520 C   0  0  0  0  0  0  0  0  0  0  0  0
   19.4648  -21.8213  -11.5709 C   0  0  2  0  0  0  0  0  0  0  0  0
   19.2774  -20.4414  -12.0936 C   0  0  0  0  0  0  0  0  0  0  0  0
   17.7758  -20.1326  -11.9992 C   0  0  2  0  0  0  0  0  0  0  0  0
   19.8004  -20.1690  -13.4701 N   0  0  0  0  0  0  0  0  0  0  0  0
   21.2828  -20.3094  -13.4250 C   0  0  0  0  0  0  0  0  0  0  0  0
   19.4868  -18.8238  -14.0035 O   0  0  0  0  0  0  0  0  0  0  0  0
   19.9405  -17.7882  -13.3883 N   0  0  0  0  0  0  0  0  0  0  0  0
   18.7193  -18.5606  -15.1583 C   0  0  1  0  0  0  0  0  0  0  0  0
   18.4182  -17.1378  -15.5813 C   0  0  0  0  0  0  0  0  0  0  0  0
   18.3735  -17.2148  -17.0405 C   0  0  0  0  0  0  0  0  0  0  0  0
   18.0541  -16.1362  -17.9547 C   0  0  0  0  0  0  0  0  0  0  0  0
   18.0981  -16.4660  -19.4046 C   0  0  0  0  0  0  0  0  0  0  0  0
   17.7359  -15.2049  -20.2168 N   0  0  0  0  0  0  0  0  0  0  0  0
   17.9946  -15.4594  -21.6040 C   0  0  0  0  0  0  0  0  0  0  0  0
   17.3181  -16.6449  -14.7824 O   0  0  0  0  0  0  0  0  0  0  0  0
   16.4075  -17.3170  -14.2202 O   0  0  0  0  0  0  0  0  0  0  0  0
  1  2  1  0
  2  3  2  0
  4  5  1  0
  4  2  1  0
  6  5  1  0
  7  6  1  0
  8  7  1  0
  8  9  1  6
 10  8  1  0
 10 17  1  0
 11 10  2  0
 12 13  1  0
 13 14  1  0
 14 16  1  0
 14 15  1  1
 16 17  1  6
 18 16  1  0
 19 18  2  0
 20 18  1  0
 21 20  1  0
 21 27  1  0
 21 22  1  1
 23 22  1  0
 24 23  1  0
 25 24  1  0
 26 25  1  0
 27 29  1  0
 28 27  2  0
M  END
$$$$
