RIK.pdb
     RDKit          3D

 29 28  0  0  1  0  0  0  0  0999 V2000
   28.5408  -16.2058  -17.4582 N   0  0  0  0  0  0  0  0  0  0  0  0
   27.2170  -16.5317  -17.0006 C   0  0  0  0  0  0  0  0  0  0  0  0
   26.5241  -15.6740  -16.3470 N   0  0  0  0  0  0  0  0  0  0  0  0
   26.6838  -17.8145  -17.2792 N   0  0  0  0  0  0  0  0  0  0  0  0
   27.4799  -18.7845  -18.0280 C   0  0  0  0  0  0  0  0  0  0  0  0
   28.0904  -19.7197  -17.0271 C   0  0  0  0  0  0  0  0  0  0  0  0
   27.1615  -20.2606  -16.0097 C   0  0  0  0  0  0  0  0  0  0  0  0
   27.7433  -21.2056  -14.9967 C   0  0  2  0  0  0  0  0  0  0  0  0
   28.2552  -22.4205  -15.5782 N   0  0  0  0  0  0  0  0  0  0  0  0
   26.6083  -21.5408  -14.0625 C   0  0  0  0  0  0  0  0  0  0  0  0
   25.8160  -22.4553  -14.3893 O   0  0  0  0  0  0  0  0  0  0  0  0
   25.5764  -15.8646  -15.9901 C   0  0  0  0  0  0  0  0  0  0  0  0
   27.3735  -20.8970   -8.6571 C   0  0  0  0  0  0  0  0  0  0  0  0
   26.9221  -21.5410   -9.9855 C   0  0  2  0  0  0  0  0  0  0  0  0
   25.7422  -20.8196  -10.5330 C   0  0  0  0  0  0  0  0  0  0  0  0
   24.6002  -21.0089   -9.5233 C   0  0  2  0  0  0  0  0  0  0  0  0
   25.3091  -21.1951  -11.9164 N   0  0  0  0  0  0  0  0  0  0  0  0
   26.4229  -20.8549  -12.8453 C   0  0  0  0  0  0  0  0  0  0  0  0
   24.0890  -20.5082  -12.3980 O   0  0  0  0  0  0  0  0  0  0  0  0
   24.0747  -19.2219  -12.4427 N   0  0  0  0  0  0  0  0  0  0  0  0
   22.9071  -21.1474  -12.8297 C   0  0  1  0  0  0  0  0  0  0  0  0
   21.6952  -20.3387  -13.2435 C   0  0  0  0  0  0  0  0  0  0  0  0
   21.4110  -20.8128  -14.5969 C   0  0  0  0  0  0  0  0  0  0  0  0
   20.2999  -20.4139  -15.4381 C   0  0  0  0  0  0  0  0  0  0  0  0
   20.2348  -21.0410  -16.7855 C   0  0  0  0  0  0  0  0  0  0  0  0
   19.5169  -20.0767  -17.7530 N   0  0  0  0  0  0  0  0  0  0  0  0
   18.1258  -20.0285  -17.4089 C   0  0  0  0  0  0  0  0  0  0  0  0
   20.7260  -20.3838  -12.1712 O   0  0  0  0  0  0  0  0  0  0  0  0
   20.6437  -21.2308  -11.2369 O   0  0  0  0  0  0  0  0  0  0  0  0
  1  2  1  0
  2  3  2  0
  4  5  1  0
  4  2  1  0
  6  5  1  0
  7  6  1  0
  8  7  1  0
  8  9  1  6
 10  8  1  0
 10 17  1  0
 11 10  2  0
 12 13  1  0
 13 14  1  0
 14 16  1  0
 14 15  1  6
 16 17  1  6
 18 16  1  0
 19 18  2  0
 20 18  1  0
 21 20  1  0
 21 27  1  0
 21 22  1  1
 23 22  1  0
 24 23  1  0
 25 24  1  0
 26 25  1  0
 27 29  1  0
 28 27  2  0
M  END
$$$$
