RIK.pdb
     RDKit          3D

 29 28  0  0  1  0  0  0  0  0999 V2000
   19.1102  -28.9395   -6.6481 N   0  0  0  0  0  0  0  0  0  0  0  0
   18.2585  -29.1688   -7.7839 C   0  0  0  0  0  0  0  0  0  0  0  0
   17.9767  -30.3624   -8.1565 N   0  0  0  0  0  0  0  0  0  0  0  0
   17.7324  -28.0592   -8.4907 N   0  0  0  0  0  0  0  0  0  0  0  0
   18.0336  -26.7022   -8.0396 C   0  0  0  0  0  0  0  0  0  0  0  0
   17.3358  -25.7616   -8.9764 C   0  0  0  0  0  0  0  0  0  0  0  0
   17.6120  -24.3237   -8.7599 C   0  0  0  0  0  0  0  0  0  0  0  0
   18.9875  -23.9648   -8.2733 C   0  0  2  0  0  0  0  0  0  0  0  0
   19.0363  -23.6781   -6.8621 N   0  0  0  0  0  0  0  0  0  0  0  0
   19.3769  -22.7299   -9.0459 C   0  0  0  0  0  0  0  0  0  0  0  0
   18.7237  -21.6770   -8.8574 O   0  0  0  0  0  0  0  0  0  0  0  0
   17.4376  -30.5780   -9.0077 C   0  0  0  0  0  0  0  0  0  0  0  0
   24.1240  -20.6586   -8.8537 C   0  0  0  0  0  0  0  0  0  0  0  0
   22.5986  -20.8243   -9.0240 C   0  0  2  0  0  0  0  0  0  0  0  0
   22.2776  -21.2354  -10.4170 C   0  0  0  0  0  0  0  0  0  0  0  0
   22.8378  -20.1437  -11.3408 C   0  0  2  0  0  0  0  0  0  0  0  0
   20.8374  -21.5132  -10.7190 N   0  0  0  0  0  0  0  0  0  0  0  0
   20.4463  -22.7362   -9.9637 C   0  0  0  0  0  0  0  0  0  0  0  0
   20.5316  -21.7445  -12.1492 O   0  0  0  0  0  0  0  0  0  0  0  0
   21.1323  -22.6997  -12.7683 N   0  0  0  0  0  0  0  0  0  0  0  0
   19.6143  -20.9989  -12.9202 C   0  0  2  0  0  0  0  0  0  0  0  0
   19.4539  -21.2622  -14.4031 C   0  0  0  0  0  0  0  0  0  0  0  0
   18.2458  -20.5183  -14.7559 C   0  0  0  0  0  0  0  0  0  0  0  0
   18.1202  -19.0793  -14.8776 C   0  0  0  0  0  0  0  0  0  0  0  0
   16.7637  -18.5609  -15.2003 C   0  0  0  0  0  0  0  0  0  0  0  0
   16.8311  -17.0244  -15.3263 N   0  0  0  0  0  0  0  0  0  0  0  0
   15.5382  -16.5354  -15.7075 C   0  0  0  0  0  0  0  0  0  0  0  0
   20.7303  -21.0471  -15.0477 O   0  0  0  0  0  0  0  0  0  0  0  0
   21.5967  -20.1682  -14.7758 O   0  0  0  0  0  0  0  0  0  0  0  0
  1  2  1  0
  2  3  2  0
  4  5  1  0
  4  2  1  0
  6  5  1  0
  7  6  1  0
  8  7  1  0
  8  9  1  1
 10  8  1  0
 10 17  1  0
 11 10  2  0
 12 13  1  0
 13 14  1  0
 14 16  1  0
 14 15  1  6
 16 17  1  1
 18 16  1  0
 19 18  2  0
 20 18  1  0
 21 20  1  0
 21 27  1  0
 21 22  1  6
 23 22  1  0
 24 23  1  0
 25 24  1  0
 26 25  1  0
 27 29  1  0
 28 27  2  0
M  END
$$$$
