RIK.pdb
     RDKit          3D

 29 28  0  0  1  0  0  0  0  0999 V2000
   17.3767  -23.3335  -16.6568 N   0  0  0  0  0  0  0  0  0  0  0  0
   18.3934  -22.4338  -17.1310 C   0  0  0  0  0  0  0  0  0  0  0  0
   18.1087  -21.5207  -17.9843 N   0  0  0  0  0  0  0  0  0  0  0  0
   19.7177  -22.5668  -16.6454 N   0  0  0  0  0  0  0  0  0  0  0  0
   20.0476  -23.6528  -15.7248 C   0  0  0  0  0  0  0  0  0  0  0  0
   20.1482  -23.0530  -14.3540 C   0  0  0  0  0  0  0  0  0  0  0  0
   21.1202  -21.9460  -14.2116 C   0  0  0  0  0  0  0  0  0  0  0  0
   21.2373  -21.3194  -12.8510 C   0  0  2  0  0  0  0  0  0  0  0  0
   20.2662  -20.2812  -12.6158 N   0  0  0  0  0  0  0  0  0  0  0  0
   22.6225  -20.7259  -12.8005 C   0  0  0  0  0  0  0  0  0  0  0  0
   22.7527  -19.4956  -13.0007 O   0  0  0  0  0  0  0  0  0  0  0  0
   17.1772  -21.4153  -18.4121 C   0  0  0  0  0  0  0  0  0  0  0  0
   25.7229  -20.8817   -8.7321 C   0  0  0  0  0  0  0  0  0  0  0  0
   25.0426  -20.4953  -10.0628 C   0  0  2  0  0  0  0  0  0  0  0  0
   25.7344  -21.1514  -11.2045 C   0  0  0  0  0  0  0  0  0  0  0  0
   27.1956  -20.6794  -11.1668 C   0  0  2  0  0  0  0  0  0  0  0  0
   25.1340  -20.9450  -12.5607 N   0  0  0  0  0  0  0  0  0  0  0  0
   23.7586  -21.5169  -12.5365 C   0  0  0  0  0  0  0  0  0  0  0  0
   25.8721  -21.5819  -13.6751 O   0  0  0  0  0  0  0  0  0  0  0  0
   25.4395  -22.6961  -14.1527 N   0  0  0  0  0  0  0  0  0  0  0  0
   27.0361  -21.0671  -14.2849 C   0  0  1  0  0  0  0  0  0  0  0  0
   27.2024  -21.1007  -15.7899 C   0  0  0  0  0  0  0  0  0  0  0  0
   25.9169  -20.6154  -16.2891 C   0  0  0  0  0  0  0  0  0  0  0  0
   25.3284  -20.8985  -17.5832 C   0  0  0  0  0  0  0  0  0  0  0  0
   23.9786  -20.3251  -17.8333 C   0  0  0  0  0  0  0  0  0  0  0  0
   23.5384  -20.6863  -19.2674 N   0  0  0  0  0  0  0  0  0  0  0  0
   22.1882  -20.2440  -19.4609 C   0  0  0  0  0  0  0  0  0  0  0  0
   28.4650  -20.4807  -16.1257 O   0  0  0  0  0  0  0  0  0  0  0  0
   28.9483  -19.4086  -15.6632 O   0  0  0  0  0  0  0  0  0  0  0  0
  1  2  1  0
  2  3  2  0
  4  5  1  0
  4  2  1  0
  6  5  1  0
  7  6  1  0
  8  7  1  0
  8  9  1  6
 10  8  1  0
 10 17  1  0
 11 10  2  0
 12 13  1  0
 13 14  1  0
 14 16  1  0
 14 15  1  6
 16 17  1  6
 18 16  1  0
 19 18  2  0
 20 18  1  0
 21 20  1  0
 21 27  1  0
 21 22  1  6
 23 22  1  0
 24 23  1  0
 25 24  1  0
 26 25  1  0
 27 29  1  0
 28 27  2  0
M  END
$$$$
