RIK.pdb
     RDKit          3D

 29 28  0  0  1  0  0  0  0  0999 V2000
   26.7945  -19.0147  -20.0910 N   0  0  0  0  0  0  0  0  0  0  0  0
   28.1888  -19.2466  -20.3559 C   0  0  0  0  0  0  0  0  0  0  0  0
   28.6842  -18.9894  -21.5098 N   0  0  0  0  0  0  0  0  0  0  0  0
   29.0130  -19.7645  -19.3264 N   0  0  0  0  0  0  0  0  0  0  0  0
   28.5063  -19.8356  -17.9576 C   0  0  0  0  0  0  0  0  0  0  0  0
   27.1766  -20.5267  -18.0154 C   0  0  0  0  0  0  0  0  0  0  0  0
   26.5284  -20.7737  -16.7079 C   0  0  0  0  0  0  0  0  0  0  0  0
   27.3467  -21.4915  -15.6720 C   0  0  2  0  0  0  0  0  0  0  0  0
   27.8554  -22.7608  -16.1263 N   0  0  0  0  0  0  0  0  0  0  0  0
   26.4138  -21.7165  -14.5091 C   0  0  0  0  0  0  0  0  0  0  0  0
   25.6698  -22.7250  -14.5268 O   0  0  0  0  0  0  0  0  0  0  0  0
   29.6679  -19.1704  -21.7574 C   0  0  0  0  0  0  0  0  0  0  0  0
   28.1863  -20.7893   -9.5764 C   0  0  0  0  0  0  0  0  0  0  0  0
   27.4065  -21.4497  -10.7335 C   0  0  2  0  0  0  0  0  0  0  0  0
   26.1629  -20.6853  -11.0189 C   0  0  0  0  0  0  0  0  0  0  0  0
   25.2582  -20.8361   -9.7869 C   0  0  2  0  0  0  0  0  0  0  0  0
   25.4301  -21.0418  -12.2753 N   0  0  0  0  0  0  0  0  0  0  0  0
   26.3623  -20.8270  -13.4172 C   0  0  0  0  0  0  0  0  0  0  0  0
   24.2060  -20.2491  -12.5318 O   0  0  0  0  0  0  0  0  0  0  0  0
   24.3241  -19.0448  -12.9704 N   0  0  0  0  0  0  0  0  0  0  0  0
   22.8833  -20.7023  -12.3401 C   0  0  1  0  0  0  0  0  0  0  0  0
   21.7560  -20.1967  -13.2163 C   0  0  0  0  0  0  0  0  0  0  0  0
   22.2850  -20.3360  -14.5720 C   0  0  0  0  0  0  0  0  0  0  0  0
   21.5790  -20.0647  -15.8086 C   0  0  0  0  0  0  0  0  0  0  0  0
   22.2078  -19.0741  -16.7232 C   0  0  0  0  0  0  0  0  0  0  0  0
   21.3114  -18.9008  -17.9672 N   0  0  0  0  0  0  0  0  0  0  0  0
   21.8289  -17.8259  -18.7627 C   0  0  0  0  0  0  0  0  0  0  0  0
   20.5240  -20.8167  -12.7817 O   0  0  0  0  0  0  0  0  0  0  0  0
   20.3737  -21.9573  -12.2586 O   0  0  0  0  0  0  0  0  0  0  0  0
  1  2  1  0
  2  3  2  0
  4  5  1  0
  4  2  1  0
  6  5  1  0
  7  6  1  0
  8  7  1  0
  8  9  1  6
 10  8  1  0
 10 17  1  0
 11 10  2  0
 12 13  1  0
 13 14  1  0
 14 16  1  0
 14 15  1  6
 16 17  1  6
 18 16  1  0
 19 18  2  0
 20 18  1  0
 21 20  1  0
 21 27  1  0
 21 22  1  1
 23 22  1  0
 24 23  1  0
 25 24  1  0
 26 25  1  0
 27 29  1  0
 28 27  2  0
M  END
$$$$
