RIK.pdb
     RDKit          3D

 29 28  0  0  1  0  0  0  0  0999 V2000
   17.6649  -24.4311  -10.1503 N   0  0  0  0  0  0  0  0  0  0  0  0
   16.5128  -23.6428  -10.4955 C   0  0  0  0  0  0  0  0  0  0  0  0
   15.4062  -23.7967   -9.8673 N   0  0  0  0  0  0  0  0  0  0  0  0
   16.6121  -22.6914  -11.5407 N   0  0  0  0  0  0  0  0  0  0  0  0
   17.9235  -22.3433  -12.0833 C   0  0  0  0  0  0  0  0  0  0  0  0
   18.4058  -21.1387  -11.3313 C   0  0  0  0  0  0  0  0  0  0  0  0
   19.6411  -20.5127  -11.8537 C   0  0  0  0  0  0  0  0  0  0  0  0
   20.3744  -21.2597  -12.9316 C   0  0  2  0  0  0  0  0  0  0  0  0
   20.6732  -22.6242  -12.5775 N   0  0  0  0  0  0  0  0  0  0  0  0
   21.6636  -20.5051  -13.1367 C   0  0  0  0  0  0  0  0  0  0  0  0
   21.6287  -19.2523  -13.1364 O   0  0  0  0  0  0  0  0  0  0  0  0
   14.5451  -23.2814  -10.1014 C   0  0  0  0  0  0  0  0  0  0  0  0
   26.3415  -21.9692  -10.7956 C   0  0  0  0  0  0  0  0  0  0  0  0
   25.1743  -21.1498  -11.3866 C   0  0  2  0  0  0  0  0  0  0  0  0
   25.2576  -21.1318  -12.8716 C   0  0  0  0  0  0  0  0  0  0  0  0
   26.6262  -20.5342  -13.2308 C   0  0  2  0  0  0  0  0  0  0  0  0
   24.1526  -20.4278  -13.5967 N   0  0  0  0  0  0  0  0  0  0  0  0
   22.8906  -21.1718  -13.3267 C   0  0  0  0  0  0  0  0  0  0  0  0
   24.3241  -20.3405  -15.0649 O   0  0  0  0  0  0  0  0  0  0  0  0
   24.3629  -21.4272  -15.7535 N   0  0  0  0  0  0  0  0  0  0  0  0
   24.4482  -19.1445  -15.8039 C   0  0  1  0  0  0  0  0  0  0  0  0
   24.5186  -19.1718  -17.3166 C   0  0  0  0  0  0  0  0  0  0  0  0
   23.7127  -18.0203  -17.7194 C   0  0  0  0  0  0  0  0  0  0  0  0
   23.4247  -17.5975  -19.0756 C   0  0  0  0  0  0  0  0  0  0  0  0
   22.5805  -16.3813  -19.2218 C   0  0  0  0  0  0  0  0  0  0  0  0
   22.4528  -16.0370  -20.7206 N   0  0  0  0  0  0  0  0  0  0  0  0
   21.6575  -14.8516  -20.8556 C   0  0  0  0  0  0  0  0  0  0  0  0
   25.8998  -19.3448  -17.7084 O   0  0  0  0  0  0  0  0  0  0  0  0
   26.9349  -19.0170  -17.0617 O   0  0  0  0  0  0  0  0  0  0  0  0
  1  2  1  0
  2  3  2  0
  4  5  1  0
  4  2  1  0
  6  5  1  0
  7  6  1  0
  8  7  1  0
  8  9  1  1
 10  8  1  0
 10 17  1  0
 11 10  2  0
 12 13  1  0
 13 14  1  0
 14 16  1  0
 14 15  1  6
 16 17  1  1
 18 16  1  0
 19 18  2  0
 20 18  1  0
 21 20  1  0
 21 27  1  0
 21 22  1  6
 23 22  1  0
 24 23  1  0
 25 24  1  0
 26 25  1  0
 27 29  1  0
 28 27  2  0
M  END
$$$$
