RIK.pdb
     RDKit          3D

 29 28  0  0  1  0  0  0  0  0999 V2000
   28.4224  -23.8104  -18.1127 N   0  0  0  0  0  0  0  0  0  0  0  0
   29.2089  -22.9105  -18.9125 C   0  0  0  0  0  0  0  0  0  0  0  0
   29.6974  -23.2931  -20.0340 N   0  0  0  0  0  0  0  0  0  0  0  0
   29.4406  -21.5924  -18.4473 N   0  0  0  0  0  0  0  0  0  0  0  0
   28.8016  -21.1345  -17.2154 C   0  0  0  0  0  0  0  0  0  0  0  0
   27.3555  -20.8946  -17.5322 C   0  0  0  0  0  0  0  0  0  0  0  0
   26.4035  -21.2053  -16.4423 C   0  0  0  0  0  0  0  0  0  0  0  0
   26.9748  -21.8374  -15.2047 C   0  0  2  0  0  0  0  0  0  0  0  0
   27.5406  -23.1416  -15.4397 N   0  0  0  0  0  0  0  0  0  0  0  0
   25.8170  -21.9625  -14.2470 C   0  0  0  0  0  0  0  0  0  0  0  0
   25.0316  -22.9297  -14.3827 O   0  0  0  0  0  0  0  0  0  0  0  0
   30.3519  -22.7244  -20.5907 C   0  0  0  0  0  0  0  0  0  0  0  0
   26.1065  -22.3232  -10.0918 C   0  0  0  0  0  0  0  0  0  0  0  0
   26.0924  -20.8029  -10.3594 C   0  0  1  0  0  0  0  0  0  0  0  0
   24.8202  -20.4083  -11.0213 C   0  0  0  0  0  0  0  0  0  0  0  0
   23.7139  -20.5317   -9.9629 C   0  0  2  0  0  0  0  0  0  0  0  0
   24.4575  -21.1478  -12.2719 N   0  0  0  0  0  0  0  0  0  0  0  0
   25.6032  -21.0256  -13.2162 C   0  0  0  0  0  0  0  0  0  0  0  0
   23.2444  -20.6527  -12.9618 O   0  0  0  0  0  0  0  0  0  0  0  0
   23.2111  -19.4303  -13.3634 N   0  0  0  0  0  0  0  0  0  0  0  0
   22.0891  -21.4164  -13.2333 C   0  0  1  0  0  0  0  0  0  0  0  0
   20.8665  -20.7772  -13.8585 C   0  0  0  0  0  0  0  0  0  0  0  0
   20.7177  -21.4878  -15.1274 C   0  0  0  0  0  0  0  0  0  0  0  0
   19.6850  -21.2755  -16.1222 C   0  0  0  0  0  0  0  0  0  0  0  0
   19.6649  -22.2274  -17.2653 C   0  0  0  0  0  0  0  0  0  0  0  0
   18.4968  -21.8591  -18.2039 N   0  0  0  0  0  0  0  0  0  0  0  0
   18.5444  -22.7113  -19.3561 C   0  0  0  0  0  0  0  0  0  0  0  0
   19.8212  -20.7144  -12.8612 O   0  0  0  0  0  0  0  0  0  0  0  0
   19.7549  -21.3455  -11.7683 O   0  0  0  0  0  0  0  0  0  0  0  0
  1  2  1  0
  2  3  2  0
  4  5  1  0
  4  2  1  0
  6  5  1  0
  7  6  1  0
  8  7  1  0
  8  9  1  6
 10  8  1  0
 10 17  1  0
 11 10  2  0
 12 13  1  0
 13 14  1  0
 14 16  1  0
 14 15  1  1
 16 17  1  1
 18 16  1  0
 19 18  2  0
 20 18  1  0
 21 20  1  0
 21 27  1  0
 21 22  1  1
 23 22  1  0
 24 23  1  0
 25 24  1  0
 26 25  1  0
 27 29  1  0
 28 27  2  0
M  END
$$$$
