RIK.pdb
     RDKit          3D

 29 28  0  0  1  0  0  0  0  0999 V2000
   27.2044  -19.2439  -19.7553 N   0  0  0  0  0  0  0  0  0  0  0  0
   27.0592  -17.8992  -19.2666 C   0  0  0  0  0  0  0  0  0  0  0  0
   26.2865  -17.0690  -19.8637 N   0  0  0  0  0  0  0  0  0  0  0  0
   27.7814  -17.4987  -18.1154 N   0  0  0  0  0  0  0  0  0  0  0  0
   28.6233  -18.4654  -17.4137 C   0  0  0  0  0  0  0  0  0  0  0  0
   27.7988  -19.7015  -17.2100 C   0  0  0  0  0  0  0  0  0  0  0  0
   27.1361  -19.8163  -15.8915 C   0  0  0  0  0  0  0  0  0  0  0  0
   27.7875  -20.7200  -14.8833 C   0  0  2  0  0  0  0  0  0  0  0  0
   28.4544  -21.8505  -15.4777 N   0  0  0  0  0  0  0  0  0  0  0  0
   26.6673  -21.2102  -14.0011 C   0  0  0  0  0  0  0  0  0  0  0  0
   26.0389  -22.2372  -14.3492 O   0  0  0  0  0  0  0  0  0  0  0  0
   26.1210  -16.1082  -19.5302 C   0  0  0  0  0  0  0  0  0  0  0  0
   26.8945  -19.8841   -8.6188 C   0  0  0  0  0  0  0  0  0  0  0  0
   26.7218  -20.7722   -9.8696 C   0  0  2  0  0  0  0  0  0  0  0  0
   25.4475  -20.4435  -10.5628 C   0  0  0  0  0  0  0  0  0  0  0  0
   24.3106  -20.8230   -9.6024 C   0  0  2  0  0  0  0  0  0  0  0  0
   25.2417  -21.0559  -11.9138 N   0  0  0  0  0  0  0  0  0  0  0  0
   26.3175  -20.5452  -12.8088 C   0  0  0  0  0  0  0  0  0  0  0  0
   23.9390  -20.7497  -12.5475 O   0  0  0  0  0  0  0  0  0  0  0  0
   23.6212  -19.5199  -12.7558 N   0  0  0  0  0  0  0  0  0  0  0  0
   22.9863  -21.7052  -12.9614 C   0  0  1  0  0  0  0  0  0  0  0  0
   21.6868  -21.2740  -13.6089 C   0  0  0  0  0  0  0  0  0  0  0  0
   21.3726  -22.3759  -14.5169 C   0  0  0  0  0  0  0  0  0  0  0  0
   22.3065  -23.3416  -15.0614 C   0  0  0  0  0  0  0  0  0  0  0  0
   21.7475  -24.3295  -16.0231 C   0  0  0  0  0  0  0  0  0  0  0  0
   22.8825  -25.2571  -16.5053 N   0  0  0  0  0  0  0  0  0  0  0  0
   22.3319  -26.2336  -17.3993 C   0  0  0  0  0  0  0  0  0  0  0  0
   20.7850  -20.8236  -12.5720 O   0  0  0  0  0  0  0  0  0  0  0  0
   20.7793  -21.1560  -11.3528 O   0  0  0  0  0  0  0  0  0  0  0  0
  1  2  1  0
  2  3  2  0
  4  5  1  0
  4  2  1  0
  6  5  1  0
  7  6  1  0
  8  7  1  0
  8  9  1  6
 10  8  1  0
 10 17  1  0
 11 10  2  0
 12 13  1  0
 13 14  1  0
 14 16  1  0
 14 15  1  6
 16 17  1  6
 18 16  1  0
 19 18  2  0
 20 18  1  0
 21 20  1  0
 21 27  1  0
 21 22  1  6
 23 22  1  0
 24 23  1  0
 25 24  1  0
 26 25  1  0
 27 29  1  0
 28 27  2  0
M  END
$$$$
