RIK.pdb
     RDKit          3D

 29 28  0  0  1  0  0  0  0  0999 V2000
   28.9011  -22.0121  -15.0952 N   0  0  0  0  0  0  0  0  0  0  0  0
   28.1796  -21.7576  -16.3129 C   0  0  0  0  0  0  0  0  0  0  0  0
   28.7414  -21.9324  -17.4516 N   0  0  0  0  0  0  0  0  0  0  0  0
   26.8375  -21.3093  -16.2423 N   0  0  0  0  0  0  0  0  0  0  0  0
   26.4912  -20.1890  -15.3701 C   0  0  0  0  0  0  0  0  0  0  0  0
   26.5383  -20.6975  -13.9600 C   0  0  0  0  0  0  0  0  0  0  0  0
   25.3991  -21.5490  -13.5504 C   0  0  0  0  0  0  0  0  0  0  0  0
   24.2343  -20.8551  -12.9028 C   0  0  2  0  0  0  0  0  0  0  0  0
   24.4172  -19.4314  -12.7764 N   0  0  0  0  0  0  0  0  0  0  0  0
   24.1166  -21.4657  -11.5293 C   0  0  0  0  0  0  0  0  0  0  0  0
   24.0523  -22.7138  -11.4341 O   0  0  0  0  0  0  0  0  0  0  0  0
   28.2721  -21.7457  -18.3498 C   0  0  0  0  0  0  0  0  0  0  0  0
   26.7675  -19.2738   -7.3924 C   0  0  0  0  0  0  0  0  0  0  0  0
   26.1450  -20.3927   -8.2548 C   0  0  2  0  0  0  0  0  0  0  0  0
   24.6742  -20.4501   -8.0405 C   0  0  0  0  0  0  0  0  0  0  0  0
   24.4555  -20.9380   -6.6006 C   0  0  2  0  0  0  0  0  0  0  0  0
   23.8861  -21.2697   -9.0150 N   0  0  0  0  0  0  0  0  0  0  0  0
   24.0777  -20.6714  -10.3658 C   0  0  0  0  0  0  0  0  0  0  0  0
   22.4311  -21.3319   -8.7472 O   0  0  0  0  0  0  0  0  0  0  0  0
   21.7173  -20.2774   -8.9349 N   0  0  0  0  0  0  0  0  0  0  0  0
   21.7305  -22.4714   -8.2970 C   0  0  1  0  0  0  0  0  0  0  0  0
   20.2460  -22.4032   -8.0046 C   0  0  0  0  0  0  0  0  0  0  0  0
   19.6371  -23.0577   -9.1614 C   0  0  0  0  0  0  0  0  0  0  0  0
   18.2199  -23.2370   -9.4077 C   0  0  0  0  0  0  0  0  0  0  0  0
   17.8545  -23.9867  -10.6395 C   0  0  0  0  0  0  0  0  0  0  0  0
   16.3167  -24.0656  -10.7407 N   0  0  0  0  0  0  0  0  0  0  0  0
   15.9648  -24.5754  -12.0339 C   0  0  0  0  0  0  0  0  0  0  0  0
   20.0261  -22.8400   -6.6437 O   0  0  0  0  0  0  0  0  0  0  0  0
   20.8503  -23.4028   -5.8685 O   0  0  0  0  0  0  0  0  0  0  0  0
  1  2  1  0
  2  3  2  0
  4  5  1  0
  4  2  1  0
  6  5  1  0
  7  6  1  0
  8  7  1  0
  8  9  1  1
 10  8  1  0
 10 17  1  0
 11 10  2  0
 12 13  1  0
 13 14  1  0
 14 16  1  0
 14 15  1  6
 16 17  1  6
 18 16  1  0
 19 18  2  0
 20 18  1  0
 21 20  1  0
 21 27  1  0
 21 22  1  1
 23 22  1  0
 24 23  1  0
 25 24  1  0
 26 25  1  0
 27 29  1  0
 28 27  2  0
M  END
$$$$
