RIK.pdb
     RDKit          3D

 29 28  0  0  1  0  0  0  0  0999 V2000
   25.1278  -18.3149  -17.4858 N   0  0  0  0  0  0  0  0  0  0  0  0
   26.0309  -17.2227  -17.2413 C   0  0  0  0  0  0  0  0  0  0  0  0
   25.8876  -16.1084  -17.8583 N   0  0  0  0  0  0  0  0  0  0  0  0
   27.0849  -17.3905  -16.3095 N   0  0  0  0  0  0  0  0  0  0  0  0
   27.0561  -18.5139  -15.3754 C   0  0  0  0  0  0  0  0  0  0  0  0
   25.8578  -18.3233  -14.4940 C   0  0  0  0  0  0  0  0  0  0  0  0
   25.6079  -19.4041  -13.5141 C   0  0  0  0  0  0  0  0  0  0  0  0
   26.8048  -19.9468  -12.7856 C   0  0  2  0  0  0  0  0  0  0  0  0
   27.5772  -20.8759  -13.5707 N   0  0  0  0  0  0  0  0  0  0  0  0
   26.2505  -20.6572  -11.5767 C   0  0  0  0  0  0  0  0  0  0  0  0
   26.0167  -21.8856  -11.6609 O   0  0  0  0  0  0  0  0  0  0  0  0
   26.5320  -15.3120  -17.7470 C   0  0  0  0  0  0  0  0  0  0  0  0
   27.8976  -19.3017   -6.8472 C   0  0  0  0  0  0  0  0  0  0  0  0
   27.2990  -20.3692   -7.7880 C   0  0  2  0  0  0  0  0  0  0  0  0
   25.8411  -20.1366   -7.9694 C   0  0  0  0  0  0  0  0  0  0  0  0
   25.1381  -20.7687   -6.7588 C   0  0  2  0  0  0  0  0  0  0  0  0
   25.2404  -20.6156   -9.2548 N   0  0  0  0  0  0  0  0  0  0  0  0
   25.9932  -19.9761  -10.3700 C   0  0  0  0  0  0  0  0  0  0  0  0
   23.8056  -20.2958   -9.4322 O   0  0  0  0  0  0  0  0  0  0  0  0
   23.4769  -19.2978  -10.1757 N   0  0  0  0  0  0  0  0  0  0  0  0
   22.7321  -21.0040   -8.8509 C   0  0  1  0  0  0  0  0  0  0  0  0
   21.4344  -21.2020   -9.6065 C   0  0  0  0  0  0  0  0  0  0  0  0
   21.8666  -21.7268  -10.9008 C   0  0  0  0  0  0  0  0  0  0  0  0
   21.0124  -22.1221  -12.0032 C   0  0  0  0  0  0  0  0  0  0  0  0
   21.6983  -22.6620  -13.2079 C   0  0  0  0  0  0  0  0  0  0  0  0
   20.6445  -22.9501  -14.2977 N   0  0  0  0  0  0  0  0  0  0  0  0
   21.3078  -23.4845  -15.4512 C   0  0  0  0  0  0  0  0  0  0  0  0
   20.5030  -21.8952   -8.7444 O   0  0  0  0  0  0  0  0  0  0  0  0
   20.7491  -22.8326   -7.9335 O   0  0  0  0  0  0  0  0  0  0  0  0
  1  2  1  0
  2  3  2  0
  4  5  1  0
  4  2  1  0
  6  5  1  0
  7  6  1  0
  8  7  1  0
  8  9  1  6
 10  8  1  0
 10 17  1  0
 11 10  2  0
 12 13  1  0
 13 14  1  0
 14 16  1  0
 14 15  1  6
 16 17  1  6
 18 16  1  0
 19 18  2  0
 20 18  1  0
 21 20  1  0
 21 27  1  0
 21 22  1  1
 23 22  1  0
 24 23  1  0
 25 24  1  0
 26 25  1  0
 27 29  1  0
 28 27  2  0
M  END
$$$$
