PQQ.pdb
     RDKit          3D

 26 26  0  0  1  0  0  0  0  0999 V2000
   28.6481  -21.3463  -12.9981 N   0  0  0  0  0  0  0  0  0  0  0  0
   29.9977  -21.5596  -12.4469 C   0  0  0  0  0  0  0  0  0  0  0  0
   30.3336  -20.2325  -11.7693 C   0  0  0  0  0  0  0  0  0  0  0  0
   29.0046  -19.5495  -11.6067 C   0  0  0  0  0  0  0  0  0  0  0  0
   28.0222  -20.6623  -11.8800 C   0  0  1  0  0  0  0  0  0  0  0  0
   26.6749  -20.1549  -12.2240 C   0  0  0  0  0  0  0  0  0  0  0  0
   26.0852  -19.4275  -11.3836 O   0  0  0  0  0  0  0  0  0  0  0  0
   28.5977  -18.8004  -17.2426 N   0  0  0  0  0  0  0  0  0  0  0  0
   27.8254  -17.6760  -16.8464 C   0  0  0  0  0  0  0  0  0  0  0  0
   28.0603  -16.5635  -17.3646 O   0  0  0  0  0  0  0  0  0  0  0  0
   26.7798  -17.8420  -15.8567 C   0  0  0  0  0  0  0  0  0  0  0  0
   26.4900  -19.1817  -15.3288 C   0  0  0  0  0  0  0  0  0  0  0  0
   25.4418  -19.4166  -14.3276 C   0  0  2  0  0  0  0  0  0  0  0  0
   26.0698  -20.4684  -13.4402 N   0  0  0  0  0  0  0  0  0  0  0  0
   24.1499  -19.9544  -14.6649 C   0  0  0  0  0  0  0  0  0  0  0  0
   23.9784  -21.2140  -14.7213 O   0  0  0  0  0  0  0  0  0  0  0  0
   20.4307  -22.6961  -12.8407 N   0  0  0  0  0  0  0  0  0  0  0  0
   19.3903  -21.7165  -13.1006 C   0  0  0  0  0  0  0  0  0  0  0  0
   18.2250  -22.1958  -12.9584 O   0  0  0  0  0  0  0  0  0  0  0  0
   19.6972  -20.3636  -13.4882 C   0  0  0  0  0  0  0  0  0  0  0  0
   21.0350  -19.8533  -13.7082 C   0  0  0  0  0  0  0  0  0  0  0  0
   21.6502  -19.9233  -15.0587 C   0  0  2  0  0  0  0  0  0  0  0  0
   22.9689  -19.2028  -14.9480 N   0  0  0  0  0  0  0  0  0  0  0  0
   20.9293  -19.0879  -16.0331 C   0  0  0  0  0  0  0  0  0  0  0  0
   20.0265  -19.6568  -16.9383 O   0  0  0  0  0  0  0  0  0  0  0  0
   21.0678  -17.8658  -16.1213 O   0  0  0  0  0  0  0  0  0  0  0  0
  2  1  1  0
  3  4  1  0
  3  2  1  0
  4  5  1  0
  5  1  1  0
  5  6  1  6
  7  6  2  0
  8  9  1  0
  9 10  2  0
  9 11  1  0
 11 12  1  0
 13 12  1  6
 13 15  1  0
 13 14  1  0
 14  6  1  0
 15 23  1  0
 16 15  2  0
 18 17  1  0
 19 18  2  0
 20 18  1  0
 21 20  1  0
 22 21  1  1
 23 22  1  0
 24 25  1  0
 24 22  1  0
 26 24  2  0
M  END
$$$$
