PQQ.pdb
     RDKit          3D

 26 26  0  0  1  0  0  0  0  0999 V2000
   16.0502  -10.6856  -12.0999 N   0  0  0  0  0  0  0  0  0  0  0  0
   15.4364  -11.8307  -12.7947 C   0  0  0  0  0  0  0  0  0  0  0  0
   14.1992  -11.2361  -13.4645 C   0  0  0  0  0  0  0  0  0  0  0  0
   14.4522   -9.7545  -13.4679 C   0  0  0  0  0  0  0  0  0  0  0  0
   15.9198   -9.6662  -13.1263 C   0  0  1  0  0  0  0  0  0  0  0  0
   16.3047   -8.3262  -12.6292 C   0  0  0  0  0  0  0  0  0  0  0  0
   16.3002   -7.3692  -13.4462 O   0  0  0  0  0  0  0  0  0  0  0  0
   15.0915   -7.1096   -6.8325 N   0  0  0  0  0  0  0  0  0  0  0  0
   14.2560   -6.8228   -7.9449 C   0  0  0  0  0  0  0  0  0  0  0  0
   13.0216   -6.7345   -7.7719 O   0  0  0  0  0  0  0  0  0  0  0  0
   14.8502   -6.6330   -9.2530 C   0  0  0  0  0  0  0  0  0  0  0  0
   16.2998   -6.8012   -9.4200 C   0  0  0  0  0  0  0  0  0  0  0  0
   16.9459   -6.7447  -10.7374 C   0  0  2  0  0  0  0  0  0  0  0  0
   16.6628   -8.1211  -11.2976 N   0  0  0  0  0  0  0  0  0  0  0  0
   18.3659   -6.5742  -10.9012 C   0  0  0  0  0  0  0  0  0  0  0  0
   19.1756   -7.2534  -10.1926 O   0  0  0  0  0  0  0  0  0  0  0  0
   21.4908   -9.7654  -13.8520 N   0  0  0  0  0  0  0  0  0  0  0  0
   20.8189   -8.6872  -14.5561 C   0  0  0  0  0  0  0  0  0  0  0  0
   20.5525   -8.9845  -15.7596 O   0  0  0  0  0  0  0  0  0  0  0  0
   20.5208   -7.4302  -13.9189 C   0  0  0  0  0  0  0  0  0  0  0  0
   20.7841   -7.1300  -12.5264 C   0  0  0  0  0  0  0  0  0  0  0  0
   20.5066   -5.7735  -11.9877 C   0  0  2  0  0  0  0  0  0  0  0  0
   19.0110   -5.6943  -11.8228 N   0  0  0  0  0  0  0  0  0  0  0  0
   20.7569   -4.7244  -12.9896 C   0  0  0  0  0  0  0  0  0  0  0  0
   22.0511   -4.2447  -13.2195 O   0  0  0  0  0  0  0  0  0  0  0  0
   19.8714   -4.2068  -13.6739 O   0  0  0  0  0  0  0  0  0  0  0  0
  2  1  1  0
  3  4  1  0
  3  2  1  0
  4  5  1  0
  5  1  1  0
  5  6  1  1
  7  6  2  0
  8  9  1  0
  9 10  2  0
  9 11  1  0
 11 12  1  0
 13 12  1  1
 13 15  1  0
 13 14  1  0
 14  6  1  0
 15 23  1  0
 16 15  2  0
 18 17  1  0
 19 18  2  0
 20 18  1  0
 21 20  1  0
 22 21  1  6
 23 22  1  0
 24 25  1  0
 24 22  1  0
 26 24  2  0
M  END
$$$$
