PQQ.pdb
     RDKit          3D

 26 26  0  0  1  0  0  0  0  0999 V2000
   24.0164  -17.7516  -18.8084 N   0  0  0  0  0  0  0  0  0  0  0  0
   23.6917  -19.1422  -18.4458 C   0  0  0  0  0  0  0  0  0  0  0  0
   24.3355  -19.3256  -17.0728 C   0  0  0  0  0  0  0  0  0  0  0  0
   24.5789  -17.9250  -16.5845 C   0  0  0  0  0  0  0  0  0  0  0  0
   23.7598  -17.0918  -17.5401 C   0  0  1  0  0  0  0  0  0  0  0  0
   24.1817  -15.6732  -17.5575 C   0  0  0  0  0  0  0  0  0  0  0  0
   25.2987  -15.3828  -17.0560 O   0  0  0  0  0  0  0  0  0  0  0  0
   26.9480  -11.0443  -21.5280 N   0  0  0  0  0  0  0  0  0  0  0  0
   26.3236  -12.2105  -21.0103 C   0  0  0  0  0  0  0  0  0  0  0  0
   26.5505  -13.3135  -21.5519 O   0  0  0  0  0  0  0  0  0  0  0  0
   25.4435  -12.0992  -19.8643 C   0  0  0  0  0  0  0  0  0  0  0  0
   24.7530  -13.2952  -19.3640 C   0  0  0  0  0  0  0  0  0  0  0  0
   23.8218  -13.2422  -18.2298 C   0  0  2  0  0  0  0  0  0  0  0  0
   23.3726  -14.6818  -18.1106 N   0  0  0  0  0  0  0  0  0  0  0  0
   22.5984  -12.4845  -18.2621 C   0  0  0  0  0  0  0  0  0  0  0  0
   21.5878  -12.9317  -18.8928 O   0  0  0  0  0  0  0  0  0  0  0  0
   17.6596  -10.8398  -14.6410 N   0  0  0  0  0  0  0  0  0  0  0  0
   18.4271  -11.9135  -15.2475 C   0  0  0  0  0  0  0  0  0  0  0  0
   18.3057  -13.0104  -14.6232 O   0  0  0  0  0  0  0  0  0  0  0  0
   19.2344  -11.7038  -16.4219 C   0  0  0  0  0  0  0  0  0  0  0  0
   20.3069  -10.7351  -16.5219 C   0  0  0  0  0  0  0  0  0  0  0  0
   21.0314  -10.5504  -17.8057 C   0  0  2  0  0  0  0  0  0  0  0  0
   22.3657  -11.2270  -17.6262 N   0  0  0  0  0  0  0  0  0  0  0  0
   21.4283   -9.1482  -18.0140 C   0  0  0  0  0  0  0  0  0  0  0  0
   20.5235   -8.2148  -18.5315 O   0  0  0  0  0  0  0  0  0  0  0  0
   22.5524   -8.7104  -17.7589 O   0  0  0  0  0  0  0  0  0  0  0  0
  2  1  1  0
  3  4  1  0
  3  2  1  0
  4  5  1  0
  5  1  1  0
  5  6  1  6
  7  6  2  0
  8  9  1  0
  9 10  2  0
  9 11  1  0
 11 12  1  0
 13 12  1  6
 13 15  1  0
 13 14  1  0
 14  6  1  0
 15 23  1  0
 16 15  2  0
 18 17  1  0
 19 18  2  0
 20 18  1  0
 21 20  1  0
 22 21  1  1
 23 22  1  0
 24 25  1  0
 24 22  1  0
 26 24  2  0
M  END
$$$$
