PQQ.pdb
     RDKit          3D

 26 26  0  0  1  0  0  0  0  0999 V2000
   27.8435  -19.4598  -17.0169 N   0  0  0  0  0  0  0  0  0  0  0  0
   28.4430  -18.2356  -17.5758 C   0  0  0  0  0  0  0  0  0  0  0  0
   27.6573  -17.1048  -16.9147 C   0  0  0  0  0  0  0  0  0  0  0  0
   26.9990  -17.7516  -15.7283 C   0  0  0  0  0  0  0  0  0  0  0  0
   27.7246  -19.0708  -15.6225 C   0  0  1  0  0  0  0  0  0  0  0  0
   26.9707  -20.0686  -14.8307 C   0  0  0  0  0  0  0  0  0  0  0  0
   26.3634  -20.9790  -15.4517 O   0  0  0  0  0  0  0  0  0  0  0  0
   24.9640  -19.3477   -9.4951 N   0  0  0  0  0  0  0  0  0  0  0  0
   25.1907  -20.7236   -9.2239 C   0  0  0  0  0  0  0  0  0  0  0  0
   24.6711  -21.2376   -8.2105 O   0  0  0  0  0  0  0  0  0  0  0  0
   26.0125  -21.5027  -10.1284 C   0  0  0  0  0  0  0  0  0  0  0  0
   26.6232  -20.8504  -11.2941 C   0  0  0  0  0  0  0  0  0  0  0  0
   25.9895  -20.8656  -12.6186 C   0  0  2  0  0  0  0  0  0  0  0  0
   26.9293  -20.0093  -13.4384 N   0  0  0  0  0  0  0  0  0  0  0  0
   24.6860  -20.3066  -12.8642 C   0  0  0  0  0  0  0  0  0  0  0  0
   24.5343  -19.0446  -12.9243 O   0  0  0  0  0  0  0  0  0  0  0  0
   21.4011  -20.5450  -17.7998 N   0  0  0  0  0  0  0  0  0  0  0  0
   20.5040  -19.9110  -16.8497 C   0  0  0  0  0  0  0  0  0  0  0  0
   19.4728  -19.4248  -17.4048 O   0  0  0  0  0  0  0  0  0  0  0  0
   20.8022  -19.8534  -15.4416 C   0  0  0  0  0  0  0  0  0  0  0  0
   22.0095  -20.3742  -14.8335 C   0  0  0  0  0  0  0  0  0  0  0  0
   22.2051  -20.2862  -13.3634 C   0  0  2  0  0  0  0  0  0  0  0  0
   23.4774  -21.0388  -13.0718 N   0  0  0  0  0  0  0  0  0  0  0  0
   21.2075  -21.0819  -12.6294 C   0  0  0  0  0  0  0  0  0  0  0  0
   20.0028  -20.5099  -12.2058 O   0  0  0  0  0  0  0  0  0  0  0  0
   21.3588  -22.2712  -12.3410 O   0  0  0  0  0  0  0  0  0  0  0  0
  2  1  1  0
  3  4  1  0
  3  2  1  0
  4  5  1  0
  5  1  1  0
  5  6  1  1
  7  6  2  0
  8  9  1  0
  9 10  2  0
  9 11  1  0
 11 12  1  0
 13 12  1  1
 13 15  1  0
 13 14  1  0
 14  6  1  0
 15 23  1  0
 16 15  2  0
 18 17  1  0
 19 18  2  0
 20 18  1  0
 21 20  1  0
 22 21  1  6
 23 22  1  0
 24 25  1  0
 24 22  1  0
 26 24  2  0
M  END
$$$$
