PQQ.pdb
     RDKit          3D

 26 26  0  0  1  0  0  0  0  0999 V2000
   26.2642  -17.5695  -15.8035 N   0  0  0  0  0  0  0  0  0  0  0  0
   27.3349  -16.9387  -16.5948 C   0  0  0  0  0  0  0  0  0  0  0  0
   28.5294  -17.8726  -16.4101 C   0  0  0  0  0  0  0  0  0  0  0  0
   27.9264  -19.1561  -15.9119 C   0  0  0  0  0  0  0  0  0  0  0  0
   26.4543  -18.9592  -16.1809 C   0  0  1  0  0  0  0  0  0  0  0  0
   25.6067  -19.8720  -15.3815 C   0  0  0  0  0  0  0  0  0  0  0  0
   25.3027  -20.9859  -15.8818 O   0  0  0  0  0  0  0  0  0  0  0  0
   26.2234  -20.0011   -9.3970 N   0  0  0  0  0  0  0  0  0  0  0  0
   25.0839  -20.8447   -9.4845 C   0  0  0  0  0  0  0  0  0  0  0  0
   24.6739  -21.4221   -8.4550 O   0  0  0  0  0  0  0  0  0  0  0  0
   24.4180  -21.0138  -10.7606 C   0  0  0  0  0  0  0  0  0  0  0  0
   24.9744  -20.3694  -11.9575 C   0  0  0  0  0  0  0  0  0  0  0  0
   24.3090  -20.4424  -13.2644 C   0  0  2  0  0  0  0  0  0  0  0  0
   25.1541  -19.5169  -14.1116 N   0  0  0  0  0  0  0  0  0  0  0  0
   22.9584  -19.9918  -13.4763 C   0  0  0  0  0  0  0  0  0  0  0  0
   22.6752  -18.7555  -13.3748 O   0  0  0  0  0  0  0  0  0  0  0  0
   22.0548  -21.0330  -17.7187 N   0  0  0  0  0  0  0  0  0  0  0  0
   21.7114  -19.6486  -17.4445 C   0  0  0  0  0  0  0  0  0  0  0  0
   22.2697  -18.8413  -18.2471 O   0  0  0  0  0  0  0  0  0  0  0  0
   20.8386  -19.2806  -16.3594 C   0  0  0  0  0  0  0  0  0  0  0  0
   20.2054  -20.2203  -15.4568 C   0  0  0  0  0  0  0  0  0  0  0  0
   20.4883  -20.1649  -13.9993 C   0  0  2  0  0  0  0  0  0  0  0  0
   21.8381  -20.8094  -13.8174 N   0  0  0  0  0  0  0  0  0  0  0  0
   19.6144  -21.0715  -13.2367 C   0  0  0  0  0  0  0  0  0  0  0  0
   20.0401  -22.3594  -12.8932 O   0  0  0  0  0  0  0  0  0  0  0  0
   18.4790  -20.7716  -12.8610 O   0  0  0  0  0  0  0  0  0  0  0  0
  2  1  1  0
  3  4  1  0
  3  2  1  0
  4  5  1  0
  5  1  1  0
  5  6  1  1
  7  6  2  0
  8  9  1  0
  9 10  2  0
  9 11  1  0
 11 12  1  0
 13 12  1  1
 13 15  1  0
 13 14  1  0
 14  6  1  0
 15 23  1  0
 16 15  2  0
 18 17  1  0
 19 18  2  0
 20 18  1  0
 21 20  1  0
 22 21  1  6
 23 22  1  0
 24 25  1  0
 24 22  1  0
 26 24  2  0
M  END
$$$$
