PQQ.pdb
     RDKit          3D

 26 26  0  0  1  0  0  0  0  0999 V2000
   20.7066  -11.9173  -18.7781 N   0  0  0  0  0  0  0  0  0  0  0  0
   20.5571  -13.1917  -19.5020 C   0  0  0  0  0  0  0  0  0  0  0  0
   19.5632  -13.9833  -18.6543 C   0  0  0  0  0  0  0  0  0  0  0  0
   18.9045  -12.9475  -17.7867 C   0  0  0  0  0  0  0  0  0  0  0  0
   19.3188  -11.6521  -18.4412 C   0  0  1  0  0  0  0  0  0  0  0  0
   19.1804  -10.4909  -17.5339 C   0  0  0  0  0  0  0  0  0  0  0  0
   18.0221  -10.1603  -17.1699 O   0  0  0  0  0  0  0  0  0  0  0  0
   19.2285   -8.7572  -12.7678 N   0  0  0  0  0  0  0  0  0  0  0  0
   20.4557   -8.0417  -12.7641 C   0  0  0  0  0  0  0  0  0  0  0  0
   20.7296   -7.3087  -11.7899 O   0  0  0  0  0  0  0  0  0  0  0  0
   21.3652   -8.1801  -13.8838 C   0  0  0  0  0  0  0  0  0  0  0  0
   21.0113   -9.0704  -14.9972 C   0  0  0  0  0  0  0  0  0  0  0  0
   20.1834   -8.6211  -16.1236 C   0  0  2  0  0  0  0  0  0  0  0  0
   20.2941   -9.7791  -17.0907 N   0  0  0  0  0  0  0  0  0  0  0  0
   20.5058   -7.4609  -16.9124 C   0  0  0  0  0  0  0  0  0  0  0  0
   21.5560   -7.4500  -17.6307 O   0  0  0  0  0  0  0  0  0  0  0  0
   16.0034   -4.0911  -17.8958 N   0  0  0  0  0  0  0  0  0  0  0  0
   16.5958   -4.7513  -19.0460 C   0  0  0  0  0  0  0  0  0  0  0  0
   15.7288   -5.1201  -19.8946 O   0  0  0  0  0  0  0  0  0  0  0  0
   18.0173   -4.9543  -19.1595 C   0  0  0  0  0  0  0  0  0  0  0  0
   19.0053   -4.3763  -18.2716 C   0  0  0  0  0  0  0  0  0  0  0  0
   20.2189   -5.1479  -17.8985 C   0  0  2  0  0  0  0  0  0  0  0  0
   19.7401   -6.2585  -16.9997 N   0  0  0  0  0  0  0  0  0  0  0  0
   21.0971   -4.3853  -16.9962 C   0  0  0  0  0  0  0  0  0  0  0  0
   21.7892   -3.2574  -17.4512 O   0  0  0  0  0  0  0  0  0  0  0  0
   21.2830   -4.6786  -15.8131 O   0  0  0  0  0  0  0  0  0  0  0  0
  2  1  1  0
  3  4  1  0
  3  2  1  0
  4  5  1  0
  5  1  1  0
  5  6  1  1
  7  6  2  0
  8  9  1  0
  9 10  2  0
  9 11  1  0
 11 12  1  0
 13 12  1  1
 13 15  1  0
 13 14  1  0
 14  6  1  0
 15 23  1  0
 16 15  2  0
 18 17  1  0
 19 18  2  0
 20 18  1  0
 21 20  1  0
 22 21  1  1
 23 22  1  0
 24 25  1  0
 24 22  1  0
 26 24  2  0
M  END
$$$$
