PQQ.pdb
     RDKit          3D

 26 26  0  0  1  0  0  0  0  0999 V2000
   25.3426  -19.7534  -16.3443 N   0  0  0  0  0  0  0  0  0  0  0  0
   26.6406  -19.5527  -17.0118 C   0  0  0  0  0  0  0  0  0  0  0  0
   26.5004  -18.1912  -17.6897 C   0  0  0  0  0  0  0  0  0  0  0  0
   25.3325  -17.5474  -16.9964 C   0  0  0  0  0  0  0  0  0  0  0  0
   25.1362  -18.4282  -15.7865 C   0  0  1  0  0  0  0  0  0  0  0  0
   23.7886  -18.2803  -15.1924 C   0  0  0  0  0  0  0  0  0  0  0  0
   23.4770  -17.1625  -14.7057 O   0  0  0  0  0  0  0  0  0  0  0  0
   19.0309  -17.3793  -17.7065 N   0  0  0  0  0  0  0  0  0  0  0  0
   19.8554  -18.4743  -18.0791 C   0  0  0  0  0  0  0  0  0  0  0  0
   19.8164  -18.8924  -19.2560 O   0  0  0  0  0  0  0  0  0  0  0  0
   20.7271  -19.0791  -17.0918 C   0  0  0  0  0  0  0  0  0  0  0  0
   20.7918  -18.5102  -15.7391 C   0  0  0  0  0  0  0  0  0  0  0  0
   21.4769  -19.1953  -14.6358 C   0  0  2  0  0  0  0  0  0  0  0  0
   22.8851  -19.3418  -15.1685 N   0  0  0  0  0  0  0  0  0  0  0  0
   21.1176  -20.5190  -14.1988 C   0  0  0  0  0  0  0  0  0  0  0  0
   21.4822  -21.5342  -14.8736 O   0  0  0  0  0  0  0  0  0  0  0  0
   17.6168  -22.8415   -9.2770 N   0  0  0  0  0  0  0  0  0  0  0  0
   18.6210  -23.8412   -9.5959 C   0  0  0  0  0  0  0  0  0  0  0  0
   18.4362  -24.9311   -8.9747 O   0  0  0  0  0  0  0  0  0  0  0  0
   19.6986  -23.5732  -10.5134 C   0  0  0  0  0  0  0  0  0  0  0  0
   19.8992  -22.3153  -11.2033 C   0  0  0  0  0  0  0  0  0  0  0  0
   20.1812  -22.2983  -12.6620 C   0  0  2  0  0  0  0  0  0  0  0  0
   20.3695  -20.8488  -13.0277 N   0  0  0  0  0  0  0  0  0  0  0  0
   18.9938  -22.6588  -13.4539 C   0  0  0  0  0  0  0  0  0  0  0  0
   18.8258  -23.9578  -13.9460 O   0  0  0  0  0  0  0  0  0  0  0  0
   18.0922  -21.8658  -13.7346 O   0  0  0  0  0  0  0  0  0  0  0  0
  2  1  1  0
  3  4  1  0
  3  2  1  0
  4  5  1  0
  5  1  1  0
  5  6  1  6
  7  6  2  0
  8  9  1  0
  9 10  2  0
  9 11  1  0
 11 12  1  0
 13 12  1  6
 13 15  1  0
 13 14  1  0
 14  6  1  0
 15 23  1  0
 16 15  2  0
 18 17  1  0
 19 18  2  0
 20 18  1  0
 21 20  1  0
 22 21  1  1
 23 22  1  0
 24 25  1  0
 24 22  1  0
 26 24  2  0
M  END
$$$$
