PQQ.pdb
     RDKit          3D

 26 26  0  0  1  0  0  0  0  0999 V2000
   35.8798  -27.6671    3.2284 N   0  0  0  0  0  0  0  0  0  0  0  0
   35.4334  -28.9620    2.6857 C   0  0  0  0  0  0  0  0  0  0  0  0
   35.9520  -29.9839    3.6955 C   0  0  0  0  0  0  0  0  0  0  0  0
   36.2508  -29.1743    4.9262 C   0  0  0  0  0  0  0  0  0  0  0  0
   35.5689  -27.8598    4.6341 C   0  0  1  0  0  0  0  0  0  0  0  0
   36.0866  -26.7559    5.4731 C   0  0  0  0  0  0  0  0  0  0  0  0
   35.8783  -26.8084    6.7130 O   0  0  0  0  0  0  0  0  0  0  0  0
   41.2359  -23.9827    3.5660 N   0  0  0  0  0  0  0  0  0  0  0  0
   41.1020  -25.2156    4.2587 C   0  0  0  0  0  0  0  0  0  0  0  0
   42.0500  -26.0294    4.2410 O   0  0  0  0  0  0  0  0  0  0  0  0
   39.8749  -25.5016    4.9747 C   0  0  0  0  0  0  0  0  0  0  0  0
   38.7895  -24.5120    4.9734 C   0  0  0  0  0  0  0  0  0  0  0  0
   37.5619  -24.6983    5.7574 C   0  0  2  0  0  0  0  0  0  0  0  0
   36.7852  -25.6861    4.9153 N   0  0  0  0  0  0  0  0  0  0  0  0
   36.6307  -23.6302    6.0107 C   0  0  0  0  0  0  0  0  0  0  0  0
   35.6914  -23.3941    5.1856 O   0  0  0  0  0  0  0  0  0  0  0  0
   31.5673  -24.0042    7.2984 N   0  0  0  0  0  0  0  0  0  0  0  0
   31.7619  -22.7486    8.0022 C   0  0  0  0  0  0  0  0  0  0  0  0
   30.6687  -22.2277    8.3783 O   0  0  0  0  0  0  0  0  0  0  0  0
   33.0721  -22.1887    8.2137 C   0  0  0  0  0  0  0  0  0  0  0  0
   34.2999  -22.7414    7.6793 C   0  0  0  0  0  0  0  0  0  0  0  0
   35.4481  -21.8514    7.3679 C   0  0  2  0  0  0  0  0  0  0  0  0
   36.6269  -22.7632    7.1457 N   0  0  0  0  0  0  0  0  0  0  0  0
   35.8790  -21.0807    8.5457 C   0  0  0  0  0  0  0  0  0  0  0  0
   35.3127  -19.8343    8.8352 O   0  0  0  0  0  0  0  0  0  0  0  0
   36.7453  -21.4644    9.3349 O   0  0  0  0  0  0  0  0  0  0  0  0
  2  1  1  0
  3  4  1  0
  3  2  1  0
  4  5  1  0
  5  1  1  0
  5  6  1  1
  7  6  2  0
  8  9  1  0
  9 10  2  0
  9 11  1  0
 11 12  1  0
 13 12  1  6
 13 15  1  0
 13 14  1  0
 14  6  1  0
 15 23  1  0
 16 15  2  0
 18 17  1  0
 19 18  2  0
 20 18  1  0
 21 20  1  0
 22 21  1  1
 23 22  1  0
 24 25  1  0
 24 22  1  0
 26 24  2  0
M  END
$$$$
