PQQ.pdb
     RDKit          3D

 26 26  0  0  1  0  0  0  0  0999 V2000
   29.4895  -22.2120  -11.5712 N   0  0  0  0  0  0  0  0  0  0  0  0
   30.6098  -22.3240  -10.6209 C   0  0  0  0  0  0  0  0  0  0  0  0
   30.9417  -20.8751  -10.2692 C   0  0  0  0  0  0  0  0  0  0  0  0
   29.7234  -20.1008  -10.6882 C   0  0  0  0  0  0  0  0  0  0  0  0
   28.6993  -21.1865  -10.9127 C   0  0  1  0  0  0  0  0  0  0  0  0
   27.5690  -20.7321  -11.7534 C   0  0  0  0  0  0  0  0  0  0  0  0
   26.8831  -19.7592  -11.3455 O   0  0  0  0  0  0  0  0  0  0  0  0
   28.2085  -22.0373  -17.7627 N   0  0  0  0  0  0  0  0  0  0  0  0
   27.2683  -20.9724  -17.7637 C   0  0  0  0  0  0  0  0  0  0  0  0
   27.1173  -20.2951  -18.8028 O   0  0  0  0  0  0  0  0  0  0  0  0
   26.5011  -20.6974  -16.5653 C   0  0  0  0  0  0  0  0  0  0  0  0
   27.0840  -20.9928  -15.2498 C   0  0  0  0  0  0  0  0  0  0  0  0
   26.3646  -20.7232  -13.9985 C   0  0  2  0  0  0  0  0  0  0  0  0
   27.2661  -21.3571  -12.9622 N   0  0  0  0  0  0  0  0  0  0  0  0
   25.0596  -21.2629  -13.7193 C   0  0  0  0  0  0  0  0  0  0  0  0
   24.9400  -22.4594  -13.3034 O   0  0  0  0  0  0  0  0  0  0  0  0
   19.9614  -18.2358  -11.2893 N   0  0  0  0  0  0  0  0  0  0  0  0
   19.5644  -19.6121  -11.5296 C   0  0  0  0  0  0  0  0  0  0  0  0
   18.4073  -19.8698  -11.0797 O   0  0  0  0  0  0  0  0  0  0  0  0
   20.4302  -20.5493  -12.1981 C   0  0  0  0  0  0  0  0  0  0  0  0
   21.7684  -20.2470  -12.6633 C   0  0  0  0  0  0  0  0  0  0  0  0
   22.5472  -21.2645  -13.4152 C   0  0  2  0  0  0  0  0  0  0  0  0
   23.8148  -20.5748  -13.8487 N   0  0  0  0  0  0  0  0  0  0  0  0
   21.9213  -21.5885  -14.7076 C   0  0  0  0  0  0  0  0  0  0  0  0
   21.0963  -22.7103  -14.8451 O   0  0  0  0  0  0  0  0  0  0  0  0
   22.0773  -20.9177  -15.7305 O   0  0  0  0  0  0  0  0  0  0  0  0
  2  1  1  0
  3  4  1  0
  3  2  1  0
  4  5  1  0
  5  1  1  0
  5  6  1  6
  7  6  2  0
  8  9  1  0
  9 10  2  0
  9 11  1  0
 11 12  1  0
 13 12  1  6
 13 15  1  0
 13 14  1  0
 14  6  1  0
 15 23  1  0
 16 15  2  0
 18 17  1  0
 19 18  2  0
 20 18  1  0
 21 20  1  0
 22 21  1  1
 23 22  1  0
 24 25  1  0
 24 22  1  0
 26 24  2  0
M  END
$$$$
