SIV.pdb
     RDKit          3D

 22 21  0  0  1  0  0  0  0  0999 V2000
   19.3514  -11.2383  -20.8271 O   0  0  0  0  0  0  0  0  0  0  0  0
   19.7065  -10.7856  -19.5585 C   0  0  0  0  0  0  0  0  0  0  0  0
   20.7354  -11.7117  -18.9455 C   0  0  2  0  0  0  0  0  0  0  0  0
   20.1468  -13.0105  -18.7751 N   0  0  0  0  0  0  0  0  0  0  0  0
   21.2789  -11.1784  -17.6812 C   0  0  0  0  0  0  0  0  0  0  0  0
   20.6282  -11.3588  -16.6144 O   0  0  0  0  0  0  0  0  0  0  0  0
   26.5252  -10.1364  -14.8627 C   0  0  0  0  0  0  0  0  0  0  0  0
   25.0437   -9.8641  -14.9804 C   0  0  0  0  0  0  0  0  0  0  0  0
   24.5046  -10.3191  -16.3288 C   0  0  2  0  0  0  0  0  0  0  0  0
   25.2015   -9.6416  -17.4561 C   0  0  0  0  0  0  0  0  0  0  0  0
   23.0182   -9.9791  -16.3272 C   0  0  2  0  0  0  0  0  0  0  0  0
   22.4911  -10.4808  -17.6313 N   0  0  0  0  0  0  0  0  0  0  0  0
   22.8752   -8.5129  -16.2931 C   0  0  0  0  0  0  0  0  0  0  0  0
   23.3035   -7.8571  -17.3046 O   0  0  0  0  0  0  0  0  0  0  0  0
   20.3764   -4.5712  -15.5396 C   0  0  0  0  0  0  0  0  0  0  0  0
   20.6345   -6.0428  -15.6189 C   0  0  1  0  0  0  0  0  0  0  0  0
   20.2111   -6.6624  -16.9139 C   0  0  0  0  0  0  0  0  0  0  0  0
   22.1172   -6.3539  -15.3816 C   0  0  2  0  0  0  0  0  0  0  0  0
   22.3016   -7.7896  -15.2401 N   0  0  0  0  0  0  0  0  0  0  0  0
   22.6152   -5.6873  -14.1807 C   0  0  0  0  0  0  0  0  0  0  0  0
   23.2402   -4.4300  -14.2100 O   0  0  0  0  0  0  0  0  0  0  0  0
   22.5060   -6.2131  -13.0583 O   0  0  0  0  0  0  0  0  0  0  0  0
  1  2  1  0
  3  2  1  0
  3  4  1  1
  5  3  1  0
  6  5  2  0
  7  8  1  0
  8  9  1  0
  9 11  1  0
  9 10  1  6
 11 12  1  6
 12  5  1  0
 13 11  1  0
 13 19  1  0
 14 13  2  0
 16 15  1  6
 17 16  1  0
 18 20  1  0
 18 16  1  0
 18 19  1  1
 20 22  2  0
 20 21  1  0
M  END
$$$$
