SIV.pdb
     RDKit          3D

 22 21  0  0  1  0  0  0  0  0999 V2000
   28.2281  -19.1499  -17.0369 O   0  0  0  0  0  0  0  0  0  0  0  0
   27.7469  -19.1325  -15.7297 C   0  0  0  0  0  0  0  0  0  0  0  0
   27.9887  -20.4731  -15.0692 C   0  0  2  0  0  0  0  0  0  0  0  0
   28.5308  -21.3787  -16.0432 N   0  0  0  0  0  0  0  0  0  0  0  0
   26.7683  -21.0070  -14.4337 C   0  0  0  0  0  0  0  0  0  0  0  0
   26.2281  -22.0380  -14.9227 O   0  0  0  0  0  0  0  0  0  0  0  0
   26.3196  -20.6944   -9.1826 C   0  0  0  0  0  0  0  0  0  0  0  0
   26.1276  -21.1805  -10.6002 C   0  0  0  0  0  0  0  0  0  0  0  0
   24.9386  -20.4982  -11.2611 C   0  0  2  0  0  0  0  0  0  0  0  0
   23.6579  -20.8583  -10.5937 C   0  0  0  0  0  0  0  0  0  0  0  0
   24.9407  -20.9581  -12.7149 C   0  0  2  0  0  0  0  0  0  0  0  0
   26.1946  -20.4049  -13.3081 N   0  0  0  0  0  0  0  0  0  0  0  0
   23.7864  -20.3486  -13.3985 C   0  0  0  0  0  0  0  0  0  0  0  0
   23.7444  -19.0712  -13.4551 O   0  0  0  0  0  0  0  0  0  0  0  0
   20.4193  -20.3296  -16.8698 C   0  0  0  0  0  0  0  0  0  0  0  0
   21.5207  -20.9995  -16.1104 C   0  0  1  0  0  0  0  0  0  0  0  0
   22.8310  -21.0163  -16.8336 C   0  0  0  0  0  0  0  0  0  0  0  0
   21.7198  -20.3436  -14.7386 C   0  0  2  0  0  0  0  0  0  0  0  0
   22.7397  -21.0641  -13.9928 N   0  0  0  0  0  0  0  0  0  0  0  0
   20.4792  -20.3363  -13.9672 C   0  0  0  0  0  0  0  0  0  0  0  0
   19.6165  -19.2291  -13.9209 O   0  0  0  0  0  0  0  0  0  0  0  0
   20.1249  -21.3284  -13.3049 O   0  0  0  0  0  0  0  0  0  0  0  0
  1  2  1  0
  3  2  1  0
  3  4  1  6
  5  3  1  0
  6  5  2  0
  7  8  1  0
  8  9  1  0
  9 11  1  0
  9 10  1  1
 11 12  1  6
 12  5  1  0
 13 11  1  0
 13 19  1  0
 14 13  2  0
 16 15  1  6
 17 16  1  0
 18 20  1  0
 18 16  1  0
 18 19  1  1
 20 22  2  0
 20 21  1  0
M  END
$$$$
