SIV.pdb
     RDKit          3D

 22 21  0  0  1  0  0  0  0  0999 V2000
   26.7263  -19.2512  -16.3344 O   0  0  0  0  0  0  0  0  0  0  0  0
   27.7413  -19.1533  -15.3853 C   0  0  0  0  0  0  0  0  0  0  0  0
   27.9771  -20.5004  -14.7359 C   0  0  2  0  0  0  0  0  0  0  0  0
   28.4598  -21.4165  -15.7310 N   0  0  0  0  0  0  0  0  0  0  0  0
   26.7700  -21.0069  -14.0543 C   0  0  0  0  0  0  0  0  0  0  0  0
   26.2019  -22.0389  -14.5084 O   0  0  0  0  0  0  0  0  0  0  0  0
   26.6321  -20.4879   -8.8083 C   0  0  0  0  0  0  0  0  0  0  0  0
   26.3520  -21.0643  -10.1766 C   0  0  0  0  0  0  0  0  0  0  0  0
   25.1151  -20.4327  -10.7986 C   0  0  2  0  0  0  0  0  0  0  0  0
   23.8802  -20.7875  -10.0473 C   0  0  0  0  0  0  0  0  0  0  0  0
   25.0477  -20.9539  -12.2301 C   0  0  2  0  0  0  0  0  0  0  0  0
   26.2389  -20.3779  -12.9225 N   0  0  0  0  0  0  0  0  0  0  0  0
   23.8294  -20.4199  -12.8639 C   0  0  0  0  0  0  0  0  0  0  0  0
   23.7463  -19.1506  -13.0007 O   0  0  0  0  0  0  0  0  0  0  0  0
   22.5311  -20.8988  -16.2931 C   0  0  0  0  0  0  0  0  0  0  0  0
   21.3994  -21.1895  -15.3586 C   0  0  1  0  0  0  0  0  0  0  0  0
   21.1311  -22.6497  -15.1690 C   0  0  0  0  0  0  0  0  0  0  0  0
   21.6410  -20.5474  -13.9871 C   0  0  2  0  0  0  0  0  0  0  0  0
   22.7634  -21.1989  -13.3304 N   0  0  0  0  0  0  0  0  0  0  0  0
   20.4600  -20.6548  -13.1338 C   0  0  0  0  0  0  0  0  0  0  0  0
   19.3795  -19.7610  -13.2113 O   0  0  0  0  0  0  0  0  0  0  0  0
   20.3567  -21.5589  -12.2852 O   0  0  0  0  0  0  0  0  0  0  0  0
  1  2  1  0
  3  2  1  0
  3  4  1  6
  5  3  1  0
  6  5  2  0
  7  8  1  0
  8  9  1  0
  9 11  1  0
  9 10  1  1
 11 12  1  6
 12  5  1  0
 13 11  1  0
 13 19  1  0
 14 13  2  0
 16 15  1  6
 17 16  1  0
 18 20  1  0
 18 16  1  0
 18 19  1  1
 20 22  2  0
 20 21  1  0
M  END
$$$$
