SIV.pdb
     RDKit          3D

 22 21  0  0  1  0  0  0  0  0999 V2000
   28.5235  -18.0099  -15.4173 O   0  0  0  0  0  0  0  0  0  0  0  0
   27.6841  -19.1204  -15.4697 C   0  0  0  0  0  0  0  0  0  0  0  0
   28.2369  -20.2310  -14.6019 C   0  0  2  0  0  0  0  0  0  0  0  0
   28.9390  -21.1654  -15.4365 N   0  0  0  0  0  0  0  0  0  0  0  0
   27.1845  -20.8850  -13.8000 C   0  0  0  0  0  0  0  0  0  0  0  0
   26.6190  -21.9151  -14.2614 O   0  0  0  0  0  0  0  0  0  0  0  0
   27.1245  -20.2362   -8.4470 C   0  0  0  0  0  0  0  0  0  0  0  0
   26.8997  -20.8888   -9.7911 C   0  0  0  0  0  0  0  0  0  0  0  0
   25.6265  -20.3752  -10.4477 C   0  0  2  0  0  0  0  0  0  0  0  0
   24.4139  -20.7774   -9.6841 C   0  0  0  0  0  0  0  0  0  0  0  0
   25.6050  -20.9689  -11.8520 C   0  0  2  0  0  0  0  0  0  0  0  0
   26.7969  -20.3972  -12.5468 N   0  0  0  0  0  0  0  0  0  0  0  0
   24.3885  -20.4994  -12.5382 C   0  0  0  0  0  0  0  0  0  0  0  0
   24.2810  -19.2422  -12.7492 O   0  0  0  0  0  0  0  0  0  0  0  0
   20.7614  -21.0245  -15.6989 C   0  0  0  0  0  0  0  0  0  0  0  0
   21.9976  -21.5071  -15.0078 C   0  0  1  0  0  0  0  0  0  0  0  0
   23.2337  -21.4184  -15.8469 C   0  0  0  0  0  0  0  0  0  0  0  0
   22.2300  -20.7411  -13.6998 C   0  0  2  0  0  0  0  0  0  0  0  0
   23.3489  -21.3275  -12.9790 N   0  0  0  0  0  0  0  0  0  0  0  0
   21.0438  -20.7711  -12.8476 C   0  0  0  0  0  0  0  0  0  0  0  0
   20.6825  -21.8922  -12.0828 O   0  0  0  0  0  0  0  0  0  0  0  0
   20.2871  -19.7873  -12.7595 O   0  0  0  0  0  0  0  0  0  0  0  0
  1  2  1  0
  3  2  1  0
  3  4  1  6
  5  3  1  0
  6  5  2  0
  7  8  1  0
  8  9  1  0
  9 11  1  0
  9 10  1  1
 11 12  1  6
 12  5  1  0
 13 11  1  0
 13 19  1  0
 14 13  2  0
 16 15  1  6
 17 16  1  0
 18 20  1  0
 18 16  1  0
 18 19  1  1
 20 22  2  0
 20 21  1  0
M  END
$$$$
