SIV.pdb
     RDKit          3D

 22 21  0  0  1  0  0  0  0  0999 V2000
   21.4348  -22.6945   -6.7222 O   0  0  0  0  0  0  0  0  0  0  0  0
   21.4623  -22.6305   -8.1135 C   0  0  0  0  0  0  0  0  0  0  0  0
   20.0522  -22.5452   -8.6578 C   0  0  2  0  0  0  0  0  0  0  0  0
   19.3612  -23.7655   -8.3480 N   0  0  0  0  0  0  0  0  0  0  0  0
   20.0322  -22.2477  -10.1033 C   0  0  0  0  0  0  0  0  0  0  0  0
   19.7374  -23.1719  -10.9113 O   0  0  0  0  0  0  0  0  0  0  0  0
   18.3310  -18.0012  -13.9510 C   0  0  0  0  0  0  0  0  0  0  0  0
   19.2793  -19.1461  -13.6810 C   0  0  0  0  0  0  0  0  0  0  0  0
   19.3602  -19.4562  -12.1934 C   0  0  2  0  0  0  0  0  0  0  0  0
   19.9395  -18.3200  -11.4260 C   0  0  0  0  0  0  0  0  0  0  0  0
   20.2353  -20.6985  -12.0668 C   0  0  2  0  0  0  0  0  0  0  0  0
   20.3297  -20.9744  -10.6022 N   0  0  0  0  0  0  0  0  0  0  0  0
   21.5806  -20.3749  -12.5736 C   0  0  0  0  0  0  0  0  0  0  0  0
   22.3387  -19.6714  -11.8206 O   0  0  0  0  0  0  0  0  0  0  0  0
   25.5339  -21.2967  -15.2413 C   0  0  0  0  0  0  0  0  0  0  0  0
   24.1924  -21.6658  -14.6912 C   0  0  1  0  0  0  0  0  0  0  0  0
   24.2467  -22.6866  -13.5980 C   0  0  0  0  0  0  0  0  0  0  0  0
   23.4503  -20.4266  -14.1761 C   0  0  2  0  0  0  0  0  0  0  0  0
   22.0885  -20.7852  -13.8124 N   0  0  0  0  0  0  0  0  0  0  0  0
   23.4133  -19.3708  -15.1853 C   0  0  0  0  0  0  0  0  0  0  0  0
   22.2767  -19.1004  -15.9647 O   0  0  0  0  0  0  0  0  0  0  0  0
   24.4046  -18.6512  -15.4034 O   0  0  0  0  0  0  0  0  0  0  0  0
  1  2  1  0
  3  2  1  0
  3  4  1  6
  5  3  1  0
  6  5  2  0
  7  8  1  0
  8  9  1  0
  9 11  1  0
  9 10  1  1
 11 12  1  1
 12  5  1  0
 13 11  1  0
 13 19  1  0
 14 13  2  0
 16 15  1  1
 17 16  1  0
 18 20  1  0
 18 16  1  0
 18 19  1  6
 20 22  2  0
 20 21  1  0
M  END
$$$$
