SIV.pdb
     RDKit          3D

 22 21  0  0  1  0  0  0  0  0999 V2000
   15.6193  -11.6512  -16.3601 O   0  0  0  0  0  0  0  0  0  0  0  0
   16.4090  -10.5493  -16.0396 C   0  0  0  0  0  0  0  0  0  0  0  0
   17.5234  -10.9637  -15.1023 C   0  0  2  0  0  0  0  0  0  0  0  0
   16.9446  -11.4704  -13.8896 N   0  0  0  0  0  0  0  0  0  0  0  0
   18.4720   -9.8623  -14.8466 C   0  0  0  0  0  0  0  0  0  0  0  0
   18.2928   -9.1264  -13.8365 O   0  0  0  0  0  0  0  0  0  0  0  0
   23.4159  -10.4859  -14.1578 C   0  0  0  0  0  0  0  0  0  0  0  0
   22.0235   -9.9071  -14.2534 C   0  0  0  0  0  0  0  0  0  0  0  0
   21.8797   -9.0153  -15.4781 C   0  0  2  0  0  0  0  0  0  0  0  0
   22.8867   -7.9193  -15.4809 C   0  0  0  0  0  0  0  0  0  0  0  0
   20.4640   -8.4511  -15.4272 C   0  0  2  0  0  0  0  0  0  0  0  0
   19.5608   -9.6112  -15.6892 N   0  0  0  0  0  0  0  0  0  0  0  0
   20.3107   -7.4770  -16.5221 C   0  0  0  0  0  0  0  0  0  0  0  0
   20.5573   -7.8841  -17.7096 O   0  0  0  0  0  0  0  0  0  0  0  0
   17.6188   -6.2505  -18.2630 C   0  0  0  0  0  0  0  0  0  0  0  0
   18.3232   -5.0052  -17.8255 C   0  0  1  0  0  0  0  0  0  0  0  0
   17.7042   -4.3474  -16.6320 C   0  0  0  0  0  0  0  0  0  0  0  0
   19.8007   -5.2864  -17.5261 C   0  0  2  0  0  0  0  0  0  0  0  0
   19.9105   -6.1452  -16.3574 N   0  0  0  0  0  0  0  0  0  0  0  0
   20.5388   -4.0496  -17.2815 C   0  0  0  0  0  0  0  0  0  0  0  0
   21.0415   -3.2441  -18.3163 O   0  0  0  0  0  0  0  0  0  0  0  0
   20.7591   -3.6473  -16.1248 O   0  0  0  0  0  0  0  0  0  0  0  0
  1  2  1  0
  3  2  1  0
  3  4  1  1
  5  3  1  0
  6  5  2  0
  7  8  1  0
  8  9  1  0
  9 11  1  0
  9 10  1  1
 11 12  1  6
 12  5  1  0
 13 11  1  0
 13 19  1  0
 14 13  2  0
 16 15  1  1
 17 16  1  0
 18 20  1  0
 18 16  1  0
 18 19  1  1
 20 22  2  0
 20 21  1  0
M  END
$$$$
