SIV.pdb
     RDKit          3D

 22 21  0  0  1  0  0  0  0  0999 V2000
   18.3855  -23.8030  -11.9966 O   0  0  0  0  0  0  0  0  0  0  0  0
   19.0601  -22.6856  -12.4831 C   0  0  0  0  0  0  0  0  0  0  0  0
   19.6260  -21.8790  -11.3337 C   0  0  2  0  0  0  0  0  0  0  0  0
   18.5515  -21.1836  -10.6822 N   0  0  0  0  0  0  0  0  0  0  0  0
   20.6953  -20.9614  -11.7729 C   0  0  0  0  0  0  0  0  0  0  0  0
   20.4049  -19.7553  -12.0069 O   0  0  0  0  0  0  0  0  0  0  0  0
   25.2699  -20.9777   -9.3472 C   0  0  0  0  0  0  0  0  0  0  0  0
   24.0600  -20.6369  -10.1856 C   0  0  0  0  0  0  0  0  0  0  0  0
   24.3416  -20.8371  -11.6676 C   0  0  2  0  0  0  0  0  0  0  0  0
   25.4971  -20.0169  -12.1230 C   0  0  0  0  0  0  0  0  0  0  0  0
   23.0668  -20.4319  -12.3995 C   0  0  2  0  0  0  0  0  0  0  0  0
   22.0179  -21.3889  -11.9367 N   0  0  0  0  0  0  0  0  0  0  0  0
   23.2774  -20.6254  -13.8450 C   0  0  0  0  0  0  0  0  0  0  0  0
   23.7259  -21.7611  -14.2266 O   0  0  0  0  0  0  0  0  0  0  0  0
   20.9042  -20.7373  -16.6569 C   0  0  0  0  0  0  0  0  0  0  0  0
   21.9653  -19.7512  -17.0314 C   0  0  1  0  0  0  0  0  0  0  0  0
   21.5496  -18.3229  -16.8658 C   0  0  0  0  0  0  0  0  0  0  0  0
   23.2473  -19.9913  -16.2249 C   0  0  2  0  0  0  0  0  0  0  0  0
   23.0175  -19.6616  -14.8270 N   0  0  0  0  0  0  0  0  0  0  0  0
   24.3537  -19.1827  -16.7311 C   0  0  0  0  0  0  0  0  0  0  0  0
   24.7307  -17.9592  -16.1538 O   0  0  0  0  0  0  0  0  0  0  0  0
   25.0236  -19.5483  -17.7140 O   0  0  0  0  0  0  0  0  0  0  0  0
  1  2  1  0
  3  2  1  0
  3  4  1  6
  5  3  1  0
  6  5  2  0
  7  8  1  0
  8  9  1  0
  9 11  1  0
  9 10  1  6
 11 12  1  1
 12  5  1  0
 13 11  1  0
 13 19  1  0
 14 13  2  0
 16 15  1  1
 17 16  1  0
 18 20  1  0
 18 16  1  0
 18 19  1  1
 20 22  2  0
 20 21  1  0
M  END
$$$$
