SIV.pdb
     RDKit          3D

 22 21  0  0  1  0  0  0  0  0999 V2000
   20.8976  -18.6879  -11.3222 O   0  0  0  0  0  0  0  0  0  0  0  0
   21.9461  -19.2277  -10.5808 C   0  0  0  0  0  0  0  0  0  0  0  0
   22.6870  -20.2600  -11.4039 C   0  0  2  0  0  0  0  0  0  0  0  0
   21.7577  -21.2706  -11.8255 N   0  0  0  0  0  0  0  0  0  0  0  0
   23.8354  -20.8318  -10.6741 C   0  0  0  0  0  0  0  0  0  0  0  0
   23.6571  -21.8655   -9.9717 O   0  0  0  0  0  0  0  0  0  0  0  0
   28.2999  -21.3573  -13.2234 C   0  0  0  0  0  0  0  0  0  0  0  0
   27.1606  -21.4662  -12.2370 C   0  0  0  0  0  0  0  0  0  0  0  0
   27.4650  -20.7028  -10.9562 C   0  0  2  0  0  0  0  0  0  0  0  0
   28.7133  -21.1911  -10.3091 C   0  0  0  0  0  0  0  0  0  0  0  0
   26.2625  -20.9124  -10.0423 C   0  0  2  0  0  0  0  0  0  0  0  0
   25.1123  -20.2625  -10.7384 N   0  0  0  0  0  0  0  0  0  0  0  0
   26.5101  -20.2017   -8.7755 C   0  0  0  0  0  0  0  0  0  0  0  0
   26.2573  -18.9479   -8.7460 O   0  0  0  0  0  0  0  0  0  0  0  0
   27.9393  -20.0760   -4.0394 C   0  0  0  0  0  0  0  0  0  0  0  0
   27.4256  -20.8679   -5.2002 C   0  0  1  0  0  0  0  0  0  0  0  0
   26.1486  -21.5958   -4.9183 C   0  0  0  0  0  0  0  0  0  0  0  0
   27.2257  -19.9736   -6.4297 C   0  0  2  0  0  0  0  0  0  0  0  0
   26.9947  -20.7985   -7.6051 N   0  0  0  0  0  0  0  0  0  0  0  0
   28.3902  -19.1231   -6.6640 C   0  0  0  0  0  0  0  0  0  0  0  0
   28.5133  -17.8327   -6.1235 O   0  0  0  0  0  0  0  0  0  0  0  0
   29.3421  -19.5107   -7.3655 O   0  0  0  0  0  0  0  0  0  0  0  0
  1  2  1  0
  3  2  1  0
  3  4  1  1
  5  3  1  0
  6  5  2  0
  7  8  1  0
  8  9  1  0
  9 11  1  0
  9 10  1  1
 11 12  1  6
 12  5  1  0
 13 11  1  0
 13 19  1  0
 14 13  2  0
 16 15  1  1
 17 16  1  0
 18 20  1  0
 18 16  1  0
 18 19  1  6
 20 22  2  0
 20 21  1  0
M  END
$$$$
