SIV.pdb
     RDKit          3D

 22 21  0  0  1  0  0  0  0  0999 V2000
   28.0268  -17.3443  -16.4759 O   0  0  0  0  0  0  0  0  0  0  0  0
   27.2090  -18.4474  -16.2412 C   0  0  0  0  0  0  0  0  0  0  0  0
   28.0018  -19.5485  -15.5695 C   0  0  2  0  0  0  0  0  0  0  0  0
   28.7148  -20.2856  -16.5749 N   0  0  0  0  0  0  0  0  0  0  0  0
   27.1473  -20.4222  -14.7421 C   0  0  0  0  0  0  0  0  0  0  0  0
   26.8354  -21.5634  -15.1830 O   0  0  0  0  0  0  0  0  0  0  0  0
   25.3729  -21.2856   -8.9299 C   0  0  0  0  0  0  0  0  0  0  0  0
   25.2002  -21.5339  -10.4102 C   0  0  0  0  0  0  0  0  0  0  0  0
   26.0458  -20.5729  -11.2331 C   0  0  2  0  0  0  0  0  0  0  0  0
   25.6875  -19.1542  -10.9605 C   0  0  0  0  0  0  0  0  0  0  0  0
   25.7882  -20.9263  -12.6939 C   0  0  2  0  0  0  0  0  0  0  0  0
   26.6745  -20.0231  -13.4868 N   0  0  0  0  0  0  0  0  0  0  0  0
   24.3848  -20.6073  -13.0103 C   0  0  0  0  0  0  0  0  0  0  0  0
   24.0892  -19.3763  -13.1942 O   0  0  0  0  0  0  0  0  0  0  0  0
   20.2797  -21.6150  -15.3017 C   0  0  0  0  0  0  0  0  0  0  0  0
   21.6632  -21.9546  -14.8444 C   0  0  1  0  0  0  0  0  0  0  0  0
   22.7098  -21.7778  -15.8997 C   0  0  0  0  0  0  0  0  0  0  0  0
   22.0540  -21.1258  -13.6147 C   0  0  2  0  0  0  0  0  0  0  0  0
   23.3574  -21.5513  -13.1293 N   0  0  0  0  0  0  0  0  0  0  0  0
   21.0735  -21.2712  -12.5415 C   0  0  0  0  0  0  0  0  0  0  0  0
   20.1799  -20.2494  -12.1814 O   0  0  0  0  0  0  0  0  0  0  0  0
   20.9845  -22.3256  -11.8868 O   0  0  0  0  0  0  0  0  0  0  0  0
  1  2  1  0
  3  2  1  0
  3  4  1  6
  5  3  1  0
  6  5  2  0
  7  8  1  0
  8  9  1  0
  9 11  1  0
  9 10  1  6
 11 12  1  6
 12  5  1  0
 13 11  1  0
 13 19  1  0
 14 13  2  0
 16 15  1  6
 17 16  1  0
 18 20  1  0
 18 16  1  0
 18 19  1  1
 20 22  2  0
 20 21  1  0
M  END
$$$$
