SIV.pdb
     RDKit          3D

 22 21  0  0  1  0  0  0  0  0999 V2000
   19.6053   -9.5552  -13.0840 O   0  0  0  0  0  0  0  0  0  0  0  0
   18.3691   -8.9646  -12.8321 C   0  0  0  0  0  0  0  0  0  0  0  0
   17.4283   -9.9738  -12.2090 C   0  0  2  0  0  0  0  0  0  0  0  0
   17.1722  -11.0181  -13.1610 N   0  0  0  0  0  0  0  0  0  0  0  0
   16.1832   -9.3467  -11.7247 C   0  0  0  0  0  0  0  0  0  0  0  0
   15.2624   -9.1019  -12.5530 O   0  0  0  0  0  0  0  0  0  0  0  0
   12.7467  -11.1135   -8.6367 C   0  0  0  0  0  0  0  0  0  0  0  0
   13.4846  -10.2161   -9.6025 C   0  0  0  0  0  0  0  0  0  0  0  0
   14.1115   -9.0299   -8.8843 C   0  0  2  0  0  0  0  0  0  0  0  0
   13.0886   -8.2140   -8.1749 C   0  0  0  0  0  0  0  0  0  0  0  0
   14.8123   -8.2061   -9.9592 C   0  0  2  0  0  0  0  0  0  0  0  0
   15.9947   -9.0167  -10.3777 N   0  0  0  0  0  0  0  0  0  0  0  0
   15.2912   -6.9535   -9.3486 C   0  0  0  0  0  0  0  0  0  0  0  0
   16.2457   -7.0403   -8.5012 O   0  0  0  0  0  0  0  0  0  0  0  0
   17.0077   -4.0910  -10.7270 C   0  0  0  0  0  0  0  0  0  0  0  0
   15.8674   -3.5129   -9.9499 C   0  0  1  0  0  0  0  0  0  0  0  0
   14.7360   -3.0314  -10.8032 C   0  0  0  0  0  0  0  0  0  0  0  0
   15.3260   -4.5259   -8.9337 C   0  0  2  0  0  0  0  0  0  0  0  0
   14.7825   -5.6801   -9.6323 N   0  0  0  0  0  0  0  0  0  0  0  0
   14.2814   -3.9364   -8.0997 C   0  0  0  0  0  0  0  0  0  0  0  0
   14.5605   -3.1362   -6.9798 O   0  0  0  0  0  0  0  0  0  0  0  0
   13.0761   -4.1202   -8.3485 O   0  0  0  0  0  0  0  0  0  0  0  0
  1  2  1  0
  3  2  1  0
  3  4  1  6
  5  3  1  0
  6  5  2  0
  7  8  1  0
  8  9  1  0
  9 11  1  0
  9 10  1  6
 11 12  1  1
 12  5  1  0
 13 11  1  0
 13 19  1  0
 14 13  2  0
 16 15  1  6
 17 16  1  0
 18 20  1  0
 18 16  1  0
 18 19  1  6
 20 22  2  0
 20 21  1  0
M  END
$$$$
