SIV.pdb
     RDKit          3D

 22 21  0  0  1  0  0  0  0  0999 V2000
   21.3459  -12.8761  -22.1920 O   0  0  0  0  0  0  0  0  0  0  0  0
   21.1109  -12.3374  -20.9291 C   0  0  0  0  0  0  0  0  0  0  0  0
   21.4549  -13.3519  -19.8592 C   0  0  2  0  0  0  0  0  0  0  0  0
   20.4892  -14.4141  -19.9001 N   0  0  0  0  0  0  0  0  0  0  0  0
   21.5475  -12.7372  -18.5206 C   0  0  0  0  0  0  0  0  0  0  0  0
   20.5555  -12.8169  -17.7438 O   0  0  0  0  0  0  0  0  0  0  0  0
   25.8813  -13.5788  -15.9343 C   0  0  0  0  0  0  0  0  0  0  0  0
   24.4467  -13.2391  -16.2648 C   0  0  0  0  0  0  0  0  0  0  0  0
   24.2206  -11.7342  -16.2585 C   0  0  2  0  0  0  0  0  0  0  0  0
   24.4510  -11.1496  -14.9092 C   0  0  0  0  0  0  0  0  0  0  0  0
   22.7776  -11.5208  -16.7029 C   0  0  2  0  0  0  0  0  0  0  0  0
   22.7000  -12.0706  -18.0892 N   0  0  0  0  0  0  0  0  0  0  0  0
   22.5150  -10.0718  -16.7545 C   0  0  0  0  0  0  0  0  0  0  0  0
   23.2391   -9.3711  -17.5428 O   0  0  0  0  0  0  0  0  0  0  0  0
   19.8308   -8.3038  -18.2035 C   0  0  0  0  0  0  0  0  0  0  0  0
   19.9203   -7.7564  -16.8139 C   0  0  1  0  0  0  0  0  0  0  0  0
   18.8972   -8.3165  -15.8759 C   0  0  0  0  0  0  0  0  0  0  0  0
   21.3156   -7.9876  -16.2214 C   0  0  2  0  0  0  0  0  0  0  0  0
   21.5303   -9.4105  -16.0103 N   0  0  0  0  0  0  0  0  0  0  0  0
   21.4769   -7.2860  -14.9501 C   0  0  0  0  0  0  0  0  0  0  0  0
   21.7545   -5.9119  -14.8672 O   0  0  0  0  0  0  0  0  0  0  0  0
   21.3735   -7.8853  -13.8645 O   0  0  0  0  0  0  0  0  0  0  0  0
  1  2  1  0
  3  2  1  0
  3  4  1  1
  5  3  1  0
  6  5  2  0
  7  8  1  0
  8  9  1  0
  9 11  1  0
  9 10  1  1
 11 12  1  6
 12  5  1  0
 13 11  1  0
 13 19  1  0
 14 13  2  0
 16 15  1  6
 17 16  1  0
 18 20  1  0
 18 16  1  0
 18 19  1  1
 20 22  2  0
 20 21  1  0
M  END
$$$$
