SIV.pdb
     RDKit          3D

 22 21  0  0  1  0  0  0  0  0999 V2000
   29.5327  -20.5149  -13.6391 O   0  0  0  0  0  0  0  0  0  0  0  0
   30.2862  -19.9699  -12.6019 C   0  0  0  0  0  0  0  0  0  0  0  0
   30.3558  -20.9422  -11.4436 C   0  0  2  0  0  0  0  0  0  0  0  0
   31.1385  -22.0794  -11.8394 N   0  0  0  0  0  0  0  0  0  0  0  0
   29.0152  -21.3309  -10.9639 C   0  0  0  0  0  0  0  0  0  0  0  0
   28.6186  -22.5138  -11.1571 O   0  0  0  0  0  0  0  0  0  0  0  0
   27.4195  -19.1962   -6.5335 C   0  0  0  0  0  0  0  0  0  0  0  0
   27.4768  -20.2302   -7.6336 C   0  0  0  0  0  0  0  0  0  0  0  0
   26.4392  -19.9483   -8.7104 C   0  0  2  0  0  0  0  0  0  0  0  0
   25.0591  -20.2336   -8.2316 C   0  0  0  0  0  0  0  0  0  0  0  0
   26.7998  -20.8435   -9.8909 C   0  0  2  0  0  0  0  0  0  0  0  0
   28.1739  -20.4286  -10.3031 N   0  0  0  0  0  0  0  0  0  0  0  0
   25.8686  -20.5557  -10.9960 C   0  0  0  0  0  0  0  0  0  0  0  0
   25.9213  -19.3899  -11.5203 O   0  0  0  0  0  0  0  0  0  0  0  0
   23.1891  -21.9238  -14.8203 C   0  0  0  0  0  0  0  0  0  0  0  0
   24.0920  -22.2448  -13.6712 C   0  0  1  0  0  0  0  0  0  0  0  0
   25.4896  -22.5923  -14.0786 C   0  0  0  0  0  0  0  0  0  0  0  0
   24.1412  -21.0838  -12.6706 C   0  0  2  0  0  0  0  0  0  0  0  0
   24.9382  -21.4645  -11.5150 N   0  0  0  0  0  0  0  0  0  0  0  0
   22.8016  -20.7084  -12.2246 C   0  0  0  0  0  0  0  0  0  0  0  0
   22.1319  -21.3690  -11.1818 O   0  0  0  0  0  0  0  0  0  0  0  0
   22.1829  -19.7699  -12.7583 O   0  0  0  0  0  0  0  0  0  0  0  0
  1  2  1  0
  3  2  1  0
  3  4  1  6
  5  3  1  0
  6  5  2  0
  7  8  1  0
  8  9  1  0
  9 11  1  0
  9 10  1  1
 11 12  1  6
 12  5  1  0
 13 11  1  0
 13 19  1  0
 14 13  2  0
 16 15  1  6
 17 16  1  0
 18 20  1  0
 18 16  1  0
 18 19  1  1
 20 22  2  0
 20 21  1  0
M  END
$$$$
