SIV.pdb
     RDKit          3D

 22 21  0  0  1  0  0  0  0  0999 V2000
   20.7368  -11.1442  -21.4593 O   0  0  0  0  0  0  0  0  0  0  0  0
   20.3162  -10.9313  -20.1485 C   0  0  0  0  0  0  0  0  0  0  0  0
   21.3381  -11.4851  -19.1784 C   0  0  2  0  0  0  0  0  0  0  0  0
   21.2132  -12.9153  -19.1400 N   0  0  0  0  0  0  0  0  0  0  0  0
   21.2149  -10.8810  -17.8374 C   0  0  0  0  0  0  0  0  0  0  0  0
   20.3533  -11.3426  -17.0383 O   0  0  0  0  0  0  0  0  0  0  0  0
   24.9840  -10.3114  -14.4929 C   0  0  0  0  0  0  0  0  0  0  0  0
   23.6196  -10.3506  -15.1407 C   0  0  0  0  0  0  0  0  0  0  0  0
   23.1275   -8.9501  -15.4758 C   0  0  2  0  0  0  0  0  0  0  0  0
   23.0275   -8.0974  -14.2600 C   0  0  0  0  0  0  0  0  0  0  0  0
   21.7608   -9.1263  -16.1287 C   0  0  2  0  0  0  0  0  0  0  0  0
   22.0233   -9.8146  -17.4278 N   0  0  0  0  0  0  0  0  0  0  0  0
   21.2012   -7.7918  -16.4064 C   0  0  0  0  0  0  0  0  0  0  0  0
   21.8273   -7.0546  -17.2438 O   0  0  0  0  0  0  0  0  0  0  0  0
   17.6484   -4.6176  -17.0090 C   0  0  0  0  0  0  0  0  0  0  0  0
   18.2074   -5.9922  -16.8175 C   0  0  1  0  0  0  0  0  0  0  0  0
   18.2875   -6.7939  -18.0788 C   0  0  0  0  0  0  0  0  0  0  0  0
   19.5997   -5.9345  -16.1773 C   0  0  2  0  0  0  0  0  0  0  0  0
   20.0352   -7.2771  -15.8263 N   0  0  0  0  0  0  0  0  0  0  0  0
   19.5990   -5.1029  -14.9761 C   0  0  0  0  0  0  0  0  0  0  0  0
   20.0115   -3.7604  -14.9778 O   0  0  0  0  0  0  0  0  0  0  0  0
   19.2262   -5.5547  -13.8783 O   0  0  0  0  0  0  0  0  0  0  0  0
  1  2  1  0
  3  2  1  0
  3  4  1  1
  5  3  1  0
  6  5  2  0
  7  8  1  0
  8  9  1  0
  9 11  1  0
  9 10  1  1
 11 12  1  6
 12  5  1  0
 13 11  1  0
 13 19  1  0
 14 13  2  0
 16 15  1  6
 17 16  1  0
 18 20  1  0
 18 16  1  0
 18 19  1  1
 20 22  2  0
 20 21  1  0
M  END
$$$$
