SIV.pdb
     RDKit          3D

 22 21  0  0  1  0  0  0  0  0999 V2000
   28.5656  -18.9819  -16.3654 O   0  0  0  0  0  0  0  0  0  0  0  0
   27.5154  -19.7297  -15.8377 C   0  0  0  0  0  0  0  0  0  0  0  0
   28.0436  -20.7281  -14.8296 C   0  0  2  0  0  0  0  0  0  0  0  0
   28.7755  -21.7481  -15.5271 N   0  0  0  0  0  0  0  0  0  0  0  0
   26.9680  -21.2920  -13.9909 C   0  0  0  0  0  0  0  0  0  0  0  0
   26.3637  -22.3263  -14.3896 O   0  0  0  0  0  0  0  0  0  0  0  0
   26.9258  -20.3958   -8.6767 C   0  0  0  0  0  0  0  0  0  0  0  0
   26.6809  -21.0724  -10.0053 C   0  0  0  0  0  0  0  0  0  0  0  0
   25.4298  -20.5281  -10.6792 C   0  0  2  0  0  0  0  0  0  0  0  0
   24.2036  -20.8399   -9.8953 C   0  0  0  0  0  0  0  0  0  0  0  0
   25.3733  -21.1796  -12.0568 C   0  0  2  0  0  0  0  0  0  0  0  0
   26.6001  -20.7148  -12.7702 N   0  0  0  0  0  0  0  0  0  0  0  0
   24.1901  -20.6644  -12.7680 C   0  0  0  0  0  0  0  0  0  0  0  0
   24.1848  -19.4231  -13.0775 O   0  0  0  0  0  0  0  0  0  0  0  0
   20.5859  -20.9833  -15.9229 C   0  0  0  0  0  0  0  0  0  0  0  0
   21.7548  -21.5546  -15.1841 C   0  0  1  0  0  0  0  0  0  0  0  0
   23.0268  -21.5568  -15.9729 C   0  0  0  0  0  0  0  0  0  0  0  0
   21.9898  -20.8071  -13.8659 C   0  0  2  0  0  0  0  0  0  0  0  0
   23.0785  -21.4340  -13.1329 N   0  0  0  0  0  0  0  0  0  0  0  0
   20.7899  -20.8077  -13.0326 C   0  0  0  0  0  0  0  0  0  0  0  0
   19.9004  -19.7223  -12.9758 O   0  0  0  0  0  0  0  0  0  0  0  0
   20.4970  -21.7871  -12.3232 O   0  0  0  0  0  0  0  0  0  0  0  0
  1  2  1  0
  3  2  1  0
  3  4  1  6
  5  3  1  0
  6  5  2  0
  7  8  1  0
  8  9  1  0
  9 11  1  0
  9 10  1  1
 11 12  1  6
 12  5  1  0
 13 11  1  0
 13 19  1  0
 14 13  2  0
 16 15  1  6
 17 16  1  0
 18 20  1  0
 18 16  1  0
 18 19  1  1
 20 22  2  0
 20 21  1  0
M  END
$$$$
