ALP.pdb
     RDKit          3D

 21 21  0  0  1  0  0  0  0  0999 V2000
   26.3564  -17.4327  -17.2750 C   0  0  0  0  0  0  0  0  0  0  0  0
   27.4865  -18.1429  -16.5528 C   0  0  2  0  0  0  0  0  0  0  0  0
   28.5184  -18.5982  -17.4310 N   0  0  0  0  0  0  0  0  0  0  0  0
   26.8947  -19.2715  -15.7763 C   0  0  0  0  0  0  0  0  0  0  0  0
   26.7818  -20.3776  -16.3171 O   0  0  0  0  0  0  0  0  0  0  0  0
   26.4361  -22.0693  -11.0032 C   0  0  0  0  0  0  0  0  0  0  0  0
   25.4962  -20.9065  -11.2846 C   0  0  1  0  0  0  0  0  0  0  0  0
   25.0979  -20.3503   -9.9582 C   0  0  0  0  0  0  0  0  0  0  0  0
   26.1879  -19.9854  -12.1936 C   0  0  0  0  0  0  0  0  0  0  0  0
   25.9083  -20.1670  -13.6643 C   0  0  2  0  0  0  0  0  0  0  0  0
   26.4697  -19.0831  -14.4463 N   0  0  0  0  0  0  0  0  0  0  0  0
   24.4289  -20.2172  -13.8118 C   0  0  0  0  0  0  0  0  0  0  0  0
   23.7848  -19.1260  -13.7814 O   0  0  0  0  0  0  0  0  0  0  0  0
   23.6943  -21.4167  -13.9863 N   0  0  0  0  0  0  0  0  0  0  0  0
   24.1045  -22.8054  -13.8714 C   0  0  0  0  0  0  0  0  0  0  0  0
   23.2836  -23.5695  -14.9215 C   0  0  0  0  0  0  0  0  0  0  0  0
   22.0995  -22.7052  -15.1966 C   0  0  0  0  0  0  0  0  0  0  0  0
   22.2746  -21.5042  -14.3356 C   0  0  1  0  0  0  0  0  0  0  0  0
   21.4987  -21.6117  -13.0735 C   0  0  0  0  0  0  0  0  0  0  0  0
   22.0633  -21.9086  -11.9892 O   0  0  0  0  0  0  0  0  0  0  0  0
   20.1299  -21.3900  -13.0419 O   0  0  0  0  0  0  0  0  0  0  0  0
  2  1  1  6
  3  2  1  0
  4  5  2  0
  4  2  1  0
  7  6  1  1
  7  8  1  0
  7  9  1  0
 10  9  1  1
 10 11  1  0
 10 12  1  0
 11  4  1  0
 12 14  1  0
 13 12  2  0
 14 15  1  0
 14 18  1  0
 15 16  1  0
 16 17  1  0
 18 17  1  0
 18 19  1  1
 19 21  1  0
 20 19  2  0
M  END
$$$$
