ALP.pdb
     RDKit          3D

 21 21  0  0  1  0  0  0  0  0999 V2000
   17.8116  -12.9658  -18.6593 C   0  0  0  0  0  0  0  0  0  0  0  0
   18.9462  -13.8393  -18.1563 C   0  0  2  0  0  0  0  0  0  0  0  0
   18.5287  -15.1623  -17.8119 N   0  0  0  0  0  0  0  0  0  0  0  0
   19.5754  -13.1465  -16.9940 C   0  0  0  0  0  0  0  0  0  0  0  0
   19.0330  -13.2215  -15.8854 O   0  0  0  0  0  0  0  0  0  0  0  0
   24.9045  -13.0355  -15.8785 C   0  0  0  0  0  0  0  0  0  0  0  0
   23.3952  -13.0932  -15.6969 C   0  0  1  0  0  0  0  0  0  0  0  0
   23.1518  -13.5526  -14.2980 C   0  0  0  0  0  0  0  0  0  0  0  0
   22.8538  -11.7761  -16.0510 C   0  0  0  0  0  0  0  0  0  0  0  0
   21.3505  -11.6565  -16.0643 C   0  0  2  0  0  0  0  0  0  0  0  0
   20.7699  -12.4167  -17.1536 N   0  0  0  0  0  0  0  0  0  0  0  0
   21.0415  -10.2081  -16.2041 C   0  0  0  0  0  0  0  0  0  0  0  0
   20.9026   -9.7333  -17.3710 O   0  0  0  0  0  0  0  0  0  0  0  0
   20.8914   -9.3245  -15.1061 N   0  0  0  0  0  0  0  0  0  0  0  0
   21.1128   -9.5308  -13.6854 C   0  0  0  0  0  0  0  0  0  0  0  0
   20.0593   -8.6701  -12.9713 C   0  0  0  0  0  0  0  0  0  0  0  0
   19.6600   -7.6345  -13.9676 C   0  0  0  0  0  0  0  0  0  0  0  0
   20.4588   -7.9276  -15.1884 C   0  0  1  0  0  0  0  0  0  0  0  0
   21.6735   -7.0767  -15.2711 C   0  0  0  0  0  0  0  0  0  0  0  0
   22.8171   -7.5581  -15.0639 O   0  0  0  0  0  0  0  0  0  0  0  0
   21.5943   -5.7263  -15.5782 O   0  0  0  0  0  0  0  0  0  0  0  0
  2  1  1  1
  3  2  1  0
  4  5  2  0
  4  2  1  0
  7  6  1  1
  7  8  1  0
  7  9  1  0
 10  9  1  6
 10 11  1  0
 10 12  1  0
 11  4  1  0
 12 14  1  0
 13 12  2  0
 14 15  1  0
 14 18  1  0
 15 16  1  0
 16 17  1  0
 18 17  1  0
 18 19  1  1
 19 21  1  0
 20 19  2  0
M  END
$$$$
