ALP.pdb
     RDKit          3D

 21 21  0  0  1  0  0  0  0  0999 V2000
   17.9685  -11.1163  -13.1765 C   0  0  0  0  0  0  0  0  0  0  0  0
   16.8257  -11.1557  -12.1788 C   0  0  2  0  0  0  0  0  0  0  0  0
   15.8518  -12.1587  -12.4766 N   0  0  0  0  0  0  0  0  0  0  0  0
   16.2117   -9.7964  -12.1335 C   0  0  0  0  0  0  0  0  0  0  0  0
   15.4465   -9.4531  -13.0419 O   0  0  0  0  0  0  0  0  0  0  0  0
   15.0889   -6.9532   -7.2888 C   0  0  0  0  0  0  0  0  0  0  0  0
   14.8470   -7.5716   -8.6576 C   0  0  1  0  0  0  0  0  0  0  0  0
   13.4479   -7.2220   -9.0416 C   0  0  0  0  0  0  0  0  0  0  0  0
   15.9051   -7.0937   -9.5550 C   0  0  0  0  0  0  0  0  0  0  0  0
   15.8632   -7.6147  -10.9696 C   0  0  2  0  0  0  0  0  0  0  0  0
   16.4974   -8.9143  -11.0726 N   0  0  0  0  0  0  0  0  0  0  0  0
   16.5684   -6.6118  -11.8120 C   0  0  0  0  0  0  0  0  0  0  0  0
   17.8319   -6.6748  -11.8905 O   0  0  0  0  0  0  0  0  0  0  0  0
   15.9091   -5.5870  -12.5359 N   0  0  0  0  0  0  0  0  0  0  0  0
   14.5052   -5.2182  -12.5922 C   0  0  0  0  0  0  0  0  0  0  0  0
   14.2618   -4.7269  -14.0275 C   0  0  0  0  0  0  0  0  0  0  0  0
   15.6074   -4.3404  -14.5418 C   0  0  0  0  0  0  0  0  0  0  0  0
   16.5550   -4.6232  -13.4298 C   0  0  1  0  0  0  0  0  0  0  0  0
   16.8613   -3.4021  -12.6413 C   0  0  0  0  0  0  0  0  0  0  0  0
   16.3331   -3.2079  -11.5162 O   0  0  0  0  0  0  0  0  0  0  0  0
   17.7364   -2.4345  -13.1123 O   0  0  0  0  0  0  0  0  0  0  0  0
  2  1  1  6
  3  2  1  0
  4  5  2  0
  4  2  1  0
  7  6  1  1
  7  8  1  0
  7  9  1  0
 10  9  1  1
 10 11  1  0
 10 12  1  0
 11  4  1  0
 12 14  1  0
 13 12  2  0
 14 15  1  0
 14 18  1  0
 15 16  1  0
 16 17  1  0
 18 17  1  0
 18 19  1  1
 19 21  1  0
 20 19  2  0
M  END
$$$$
