ALP.pdb
     RDKit          3D

 21 21  0  0  1  0  0  0  0  0999 V2000
   20.4807  -21.1482  -16.4463 C   0  0  0  0  0  0  0  0  0  0  0  0
   20.2909  -20.5760  -15.0536 C   0  0  2  0  0  0  0  0  0  0  0  0
   19.2720  -19.5756  -14.9894 N   0  0  0  0  0  0  0  0  0  0  0  0
   21.6073  -20.0432  -14.5953 C   0  0  0  0  0  0  0  0  0  0  0  0
   21.9518  -18.9096  -14.9489 O   0  0  0  0  0  0  0  0  0  0  0  0
   23.7273  -21.4527   -9.6730 C   0  0  0  0  0  0  0  0  0  0  0  0
   23.1880  -20.7104  -10.8865 C   0  0  1  0  0  0  0  0  0  0  0  0
   22.9903  -19.2924  -10.4652 C   0  0  0  0  0  0  0  0  0  0  0  0
   24.1221  -20.9338  -11.9959 C   0  0  0  0  0  0  0  0  0  0  0  0
   23.7366  -20.3282  -13.3222 C   0  0  2  0  0  0  0  0  0  0  0  0
   22.4480  -20.8176  -13.7715 N   0  0  0  0  0  0  0  0  0  0  0  0
   24.8093  -20.6969  -14.2846 C   0  0  0  0  0  0  0  0  0  0  0  0
   24.6363  -21.7183  -15.0149 O   0  0  0  0  0  0  0  0  0  0  0  0
   26.0172  -19.9706  -14.4350 N   0  0  0  0  0  0  0  0  0  0  0  0
   26.5987  -18.9180  -13.6204 C   0  0  0  0  0  0  0  0  0  0  0  0
   27.3262  -17.9866  -14.6021 C   0  0  0  0  0  0  0  0  0  0  0  0
   27.5755  -18.8164  -15.8162 C   0  0  0  0  0  0  0  0  0  0  0  0
   26.9925  -20.1514  -15.5126 C   0  0  1  0  0  0  0  0  0  0  0  0
   28.0241  -21.1100  -15.0399 C   0  0  0  0  0  0  0  0  0  0  0  0
   28.1196  -21.4106  -13.8220 O   0  0  0  0  0  0  0  0  0  0  0  0
   28.9166  -21.7072  -15.9177 O   0  0  0  0  0  0  0  0  0  0  0  0
  2  1  1  6
  3  2  1  0
  4  5  2  0
  4  2  1  0
  7  6  1  1
  7  8  1  0
  7  9  1  0
 10  9  1  1
 10 11  1  0
 10 12  1  0
 11  4  1  0
 12 14  1  0
 13 12  2  0
 14 15  1  0
 14 18  1  0
 15 16  1  0
 16 17  1  0
 18 17  1  0
 18 19  1  1
 19 21  1  0
 20 19  2  0
M  END
$$$$
