ALP.pdb
     RDKit          3D

 21 21  0  0  1  0  0  0  0  0999 V2000
   24.4052  -23.9338  -17.1323 C   0  0  0  0  0  0  0  0  0  0  0  0
   25.4375  -22.9031  -17.5506 C   0  0  2  0  0  0  0  0  0  0  0  0
   26.5213  -23.4615  -18.2969 N   0  0  0  0  0  0  0  0  0  0  0  0
   25.9220  -22.2153  -16.3181 C   0  0  0  0  0  0  0  0  0  0  0  0
   26.7314  -22.7960  -15.5858 O   0  0  0  0  0  0  0  0  0  0  0  0
   25.9482  -16.5869  -15.9061 C   0  0  0  0  0  0  0  0  0  0  0  0
   26.4043  -18.0381  -15.9290 C   0  0  1  0  0  0  0  0  0  0  0  0
   27.8901  -18.0197  -15.7898 C   0  0  0  0  0  0  0  0  0  0  0  0
   25.6633  -18.7539  -14.8842 C   0  0  0  0  0  0  0  0  0  0  0  0
   25.9102  -20.2387  -14.7921 C   0  0  2  0  0  0  0  0  0  0  0  0
   25.4660  -20.9231  -15.9904 N   0  0  0  0  0  0  0  0  0  0  0  0
   25.1636  -20.7196  -13.5987 C   0  0  0  0  0  0  0  0  0  0  0  0
   24.0305  -21.2592  -13.7760 O   0  0  0  0  0  0  0  0  0  0  0  0
   25.6462  -20.6111  -12.2704 N   0  0  0  0  0  0  0  0  0  0  0  0
   26.8585  -20.0048  -11.7483 C   0  0  0  0  0  0  0  0  0  0  0  0
   27.2698  -20.8674  -10.5453 C   0  0  0  0  0  0  0  0  0  0  0  0
   26.0238  -21.5709  -10.1246 C   0  0  0  0  0  0  0  0  0  0  0  0
   24.9710  -21.1179  -11.0736 C   0  0  1  0  0  0  0  0  0  0  0  0
   24.1547  -20.0137  -10.5068 C   0  0  0  0  0  0  0  0  0  0  0  0
   24.3502  -18.8201  -10.8527 O   0  0  0  0  0  0  0  0  0  0  0  0
   23.1515  -20.2547   -9.5798 O   0  0  0  0  0  0  0  0  0  0  0  0
  2  1  1  1
  3  2  1  0
  4  5  2  0
  4  2  1  0
  7  6  1  1
  7  8  1  0
  7  9  1  0
 10  9  1  6
 10 11  1  0
 10 12  1  0
 11  4  1  0
 12 14  1  0
 13 12  2  0
 14 15  1  0
 14 18  1  0
 15 16  1  0
 16 17  1  0
 18 17  1  0
 18 19  1  1
 19 21  1  0
 20 19  2  0
M  END
$$$$
