ALP.pdb
     RDKit          3D

 21 21  0  0  1  0  0  0  0  0999 V2000
   26.7839  -16.9673  -15.2111 C   0  0  0  0  0  0  0  0  0  0  0  0
   27.7434  -18.1412  -15.1429 C   0  0  2  0  0  0  0  0  0  0  0  0
   28.5557  -18.2738  -16.3116 N   0  0  0  0  0  0  0  0  0  0  0  0
   26.9401  -19.3741  -14.8949 C   0  0  0  0  0  0  0  0  0  0  0  0
   26.6031  -20.0741  -15.8567 O   0  0  0  0  0  0  0  0  0  0  0  0
   25.4147  -21.3460   -9.5600 C   0  0  0  0  0  0  0  0  0  0  0  0
   25.5052  -20.5348  -10.8438 C   0  0  1  0  0  0  0  0  0  0  0  0
   26.3146  -19.3221  -10.5252 C   0  0  0  0  0  0  0  0  0  0  0  0
   26.0389  -21.4150  -11.8895 C   0  0  0  0  0  0  0  0  0  0  0  0
   25.8347  -20.9579  -13.3120 C   0  0  2  0  0  0  0  0  0  0  0  0
   26.5693  -19.7383  -13.5853 N   0  0  0  0  0  0  0  0  0  0  0  0
   24.3723  -20.7463  -13.4837 C   0  0  0  0  0  0  0  0  0  0  0  0
   23.9193  -19.5672  -13.3786 O   0  0  0  0  0  0  0  0  0  0  0  0
   23.4521  -21.7883  -13.7602 N   0  0  0  0  0  0  0  0  0  0  0  0
   23.5900  -23.2300  -13.6480 C   0  0  0  0  0  0  0  0  0  0  0  0
   22.7489  -23.8181  -14.7914 C   0  0  0  0  0  0  0  0  0  0  0  0
   21.7739  -22.7479  -15.1498 C   0  0  0  0  0  0  0  0  0  0  0  0
   22.0806  -21.6095  -14.2420 C   0  0  1  0  0  0  0  0  0  0  0  0
   21.1801  -21.5870  -13.0608 C   0  0  0  0  0  0  0  0  0  0  0  0
   21.5706  -22.0050  -11.9403 O   0  0  0  0  0  0  0  0  0  0  0  0
   19.8815  -21.1071  -13.1470 O   0  0  0  0  0  0  0  0  0  0  0  0
  2  1  1  6
  3  2  1  0
  4  5  2  0
  4  2  1  0
  7  6  1  1
  7  8  1  0
  7  9  1  0
 10  9  1  1
 10 11  1  0
 10 12  1  0
 11  4  1  0
 12 14  1  0
 13 12  2  0
 14 15  1  0
 14 18  1  0
 15 16  1  0
 16 17  1  0
 18 17  1  0
 18 19  1  1
 19 21  1  0
 20 19  2  0
M  END
$$$$
