ALP.pdb
     RDKit          3D

 21 21  0  0  1  0  0  0  0  0999 V2000
   20.2266  -21.0629  -16.3382 C   0  0  0  0  0  0  0  0  0  0  0  0
   20.7478  -19.7008  -15.9186 C   0  0  2  0  0  0  0  0  0  0  0  0
   19.9777  -18.6167  -16.4430 N   0  0  0  0  0  0  0  0  0  0  0  0
   22.1763  -19.6084  -16.3403 C   0  0  0  0  0  0  0  0  0  0  0  0
   22.4387  -19.4261  -17.5347 O   0  0  0  0  0  0  0  0  0  0  0  0
   26.7242  -17.2164  -15.5522 C   0  0  0  0  0  0  0  0  0  0  0  0
   26.7978  -18.6212  -14.9731 C   0  0  1  0  0  0  0  0  0  0  0  0
   27.7681  -18.5647  -13.8405 C   0  0  0  0  0  0  0  0  0  0  0  0
   25.4310  -19.0359  -14.6367 C   0  0  0  0  0  0  0  0  0  0  0  0
   24.6073  -19.5942  -15.7699 C   0  0  2  0  0  0  0  0  0  0  0  0
   23.2135  -19.7267  -15.3941 N   0  0  0  0  0  0  0  0  0  0  0  0
   25.1940  -20.9187  -16.1083 C   0  0  0  0  0  0  0  0  0  0  0  0
   24.7985  -21.9341  -15.4610 O   0  0  0  0  0  0  0  0  0  0  0  0
   26.1715  -21.1136  -17.1160 N   0  0  0  0  0  0  0  0  0  0  0  0
   26.8256  -20.1639  -17.9992 C   0  0  0  0  0  0  0  0  0  0  0  0
   27.0570  -20.9153  -19.3193 C   0  0  0  0  0  0  0  0  0  0  0  0
   27.0199  -22.3617  -18.9574 C   0  0  0  0  0  0  0  0  0  0  0  0
   26.7642  -22.3991  -17.4920 C   0  0  1  0  0  0  0  0  0  0  0  0
   28.0198  -22.5681  -16.7164 C   0  0  0  0  0  0  0  0  0  0  0  0
   28.5537  -21.5931  -16.1275 O   0  0  0  0  0  0  0  0  0  0  0  0
   28.6483  -23.8002  -16.6123 O   0  0  0  0  0  0  0  0  0  0  0  0
  2  1  1  6
  3  2  1  0
  4  5  2  0
  4  2  1  0
  7  6  1  1
  7  8  1  0
  7  9  1  0
 10  9  1  1
 10 11  1  0
 10 12  1  0
 11  4  1  0
 12 14  1  0
 13 12  2  0
 14 15  1  0
 14 18  1  0
 15 16  1  0
 16 17  1  0
 18 17  1  0
 18 19  1  1
 19 21  1  0
 20 19  2  0
M  END
$$$$
