ALP.pdb
     RDKit          3D

 21 21  0  0  1  0  0  0  0  0999 V2000
   20.9382  -21.2719  -16.0851 C   0  0  0  0  0  0  0  0  0  0  0  0
   20.8274  -20.7893  -14.6506 C   0  0  2  0  0  0  0  0  0  0  0  0
   19.7679  -19.8504  -14.4522 N   0  0  0  0  0  0  0  0  0  0  0  0
   22.1469  -20.2125  -14.2593 C   0  0  0  0  0  0  0  0  0  0  0  0
   22.3623  -19.0128  -14.4662 O   0  0  0  0  0  0  0  0  0  0  0  0
   25.2045  -21.7335   -9.8592 C   0  0  0  0  0  0  0  0  0  0  0  0
   24.4536  -20.9365  -10.9153 C   0  0  1  0  0  0  0  0  0  0  0  0
   24.4554  -19.5159  -10.4580 C   0  0  0  0  0  0  0  0  0  0  0  0
   25.0910  -21.2024  -12.2100 C   0  0  0  0  0  0  0  0  0  0  0  0
   24.4733  -20.5245  -13.4072 C   0  0  2  0  0  0  0  0  0  0  0  0
   23.1351  -21.0202  -13.6626 N   0  0  0  0  0  0  0  0  0  0  0  0
   25.3708  -20.8009  -14.5610 C   0  0  0  0  0  0  0  0  0  0  0  0
   25.0623  -21.7438  -15.3498 O   0  0  0  0  0  0  0  0  0  0  0  0
   26.5538  -20.0690  -14.8324 N   0  0  0  0  0  0  0  0  0  0  0  0
   27.2483  -19.0635  -14.0471 C   0  0  0  0  0  0  0  0  0  0  0  0
   27.8459  -18.0805  -15.0655 C   0  0  0  0  0  0  0  0  0  0  0  0
   27.9231  -18.8424  -16.3453 C   0  0  0  0  0  0  0  0  0  0  0  0
   27.3744  -20.1914  -16.0394 C   0  0  1  0  0  0  0  0  0  0  0  0
   28.4516  -21.1759  -15.7623 C   0  0  0  0  0  0  0  0  0  0  0  0
   28.6870  -21.5658  -14.5896 O   0  0  0  0  0  0  0  0  0  0  0  0
   29.2350  -21.7003  -16.7797 O   0  0  0  0  0  0  0  0  0  0  0  0
  2  1  1  6
  3  2  1  0
  4  5  2  0
  4  2  1  0
  7  6  1  1
  7  8  1  0
  7  9  1  0
 10  9  1  1
 10 11  1  0
 10 12  1  0
 11  4  1  0
 12 14  1  0
 13 12  2  0
 14 15  1  0
 14 18  1  0
 15 16  1  0
 16 17  1  0
 18 17  1  0
 18 19  1  1
 19 21  1  0
 20 19  2  0
M  END
$$$$
