ALP.pdb
     RDKit          3D

 21 21  0  0  1  0  0  0  0  0999 V2000
   11.8250  -14.0094    6.7951 C   0  0  0  0  0  0  0  0  0  0  0  0
   12.5245  -13.4699    5.5611 C   0  0  2  0  0  0  0  0  0  0  0  0
   11.6843  -13.4395    4.4050 N   0  0  0  0  0  0  0  0  0  0  0  0
   13.7430  -14.2991    5.3274 C   0  0  0  0  0  0  0  0  0  0  0  0
   13.6371  -15.3563    4.6951 O   0  0  0  0  0  0  0  0  0  0  0  0
   19.0688  -12.2472    4.9339 C   0  0  0  0  0  0  0  0  0  0  0  0
   17.8627  -13.0917    4.5514 C   0  0  1  0  0  0  0  0  0  0  0  0
   18.2754  -13.9171    3.3785 C   0  0  0  0  0  0  0  0  0  0  0  0
   17.4388  -13.8292    5.7471 C   0  0  0  0  0  0  0  0  0  0  0  0
   16.1967  -14.6722    5.6032 C   0  0  2  0  0  0  0  0  0  0  0  0
   14.9974  -13.8865    5.8185 N   0  0  0  0  0  0  0  0  0  0  0  0
   16.3049  -15.7622    6.6098 C   0  0  0  0  0  0  0  0  0  0  0  0
   15.8064  -15.5703    7.7592 O   0  0  0  0  0  0  0  0  0  0  0  0
   16.9333  -17.0076    6.3586 N   0  0  0  0  0  0  0  0  0  0  0  0
   17.6005  -17.5108    5.1705 C   0  0  0  0  0  0  0  0  0  0  0  0
   17.3083  -19.0188    5.1370 C   0  0  0  0  0  0  0  0  0  0  0  0
   16.9624  -19.3812    6.5418 C   0  0  0  0  0  0  0  0  0  0  0  0
   17.0500  -18.1119    7.3136 C   0  0  1  0  0  0  0  0  0  0  0  0
   18.3552  -17.9782    8.0102 C   0  0  0  0  0  0  0  0  0  0  0  0
   19.2518  -17.2159    7.5656 O   0  0  0  0  0  0  0  0  0  0  0  0
   18.6341  -18.6845    9.1709 O   0  0  0  0  0  0  0  0  0  0  0  0
  2  1  1  1
  3  2  1  0
  4  5  2  0
  4  2  1  0
  7  6  1  1
  7  8  1  0
  7  9  1  0
 10  9  1  1
 10 11  1  0
 10 12  1  0
 11  4  1  0
 12 14  1  0
 13 12  2  0
 14 15  1  0
 14 18  1  0
 15 16  1  0
 16 17  1  0
 18 17  1  0
 18 19  1  6
 19 21  1  0
 20 19  2  0
M  END
$$$$
