ALP.pdb
     RDKit          3D

 21 21  0  0  1  0  0  0  0  0999 V2000
   21.2789  -22.1934  -14.4013 C   0  0  0  0  0  0  0  0  0  0  0  0
   21.1607  -21.0876  -13.3686 C   0  0  2  0  0  0  0  0  0  0  0  0
   19.9985  -20.2743  -13.5442 N   0  0  0  0  0  0  0  0  0  0  0  0
   22.4097  -20.2730  -13.4266 C   0  0  0  0  0  0  0  0  0  0  0  0
   22.4206  -19.2390  -14.1044 O   0  0  0  0  0  0  0  0  0  0  0  0
   26.3200  -21.1335   -9.5748 C   0  0  0  0  0  0  0  0  0  0  0  0
   25.1686  -20.9517  -10.5524 C   0  0  1  0  0  0  0  0  0  0  0  0
   23.9691  -20.6002   -9.7371 C   0  0  0  0  0  0  0  0  0  0  0  0
   25.5862  -19.9626  -11.5526 C   0  0  0  0  0  0  0  0  0  0  0  0
   24.8203  -19.9660  -12.8517 C   0  0  2  0  0  0  0  0  0  0  0  0
   23.5615  -20.6731  -12.7206 N   0  0  0  0  0  0  0  0  0  0  0  0
   25.6959  -20.6234  -13.8587 C   0  0  0  0  0  0  0  0  0  0  0  0
   25.4763  -21.8387  -14.1437 O   0  0  0  0  0  0  0  0  0  0  0  0
   26.7641  -19.9690  -14.5216 N   0  0  0  0  0  0  0  0  0  0  0  0
   27.6220  -18.8788  -14.0909 C   0  0  0  0  0  0  0  0  0  0  0  0
   27.9329  -18.0688  -15.3588 C   0  0  0  0  0  0  0  0  0  0  0  0
   27.6948  -19.0092  -16.4917 C   0  0  0  0  0  0  0  0  0  0  0  0
   27.2563  -20.2853  -15.8643 C   0  0  1  0  0  0  0  0  0  0  0  0
   28.3800  -21.2468  -15.7249 C   0  0  0  0  0  0  0  0  0  0  0  0
   28.8793  -21.8103  -16.7327 O   0  0  0  0  0  0  0  0  0  0  0  0
   28.9189  -21.5587  -14.4854 O   0  0  0  0  0  0  0  0  0  0  0  0
  2  1  1  6
  3  2  1  0
  4  5  2  0
  4  2  1  0
  7  6  1  1
  7  8  1  0
  7  9  1  0
 10  9  1  1
 10 11  1  0
 10 12  1  0
 11  4  1  0
 12 14  1  0
 13 12  2  0
 14 15  1  0
 14 18  1  0
 15 16  1  0
 16 17  1  0
 18 17  1  0
 18 19  1  1
 19 21  1  0
 20 19  2  0
M  END
$$$$
