ALP.pdb
     RDKit          3D

 21 21  0  0  1  0  0  0  0  0999 V2000
   24.7494  -39.4068   -9.1540 C   0  0  0  0  0  0  0  0  0  0  0  0
   25.2006  -38.3714  -10.1675 C   0  0  2  0  0  0  0  0  0  0  0  0
   25.9989  -38.9214  -11.2180 N   0  0  0  0  0  0  0  0  0  0  0  0
   25.9327  -37.2997   -9.4310 C   0  0  0  0  0  0  0  0  0  0  0  0
   27.1522  -37.4132   -9.2625 O   0  0  0  0  0  0  0  0  0  0  0  0
   23.7159  -32.2058   -9.4156 C   0  0  0  0  0  0  0  0  0  0  0  0
   24.6555  -33.3834   -9.6274 C   0  0  1  0  0  0  0  0  0  0  0  0
   25.7002  -32.9267  -10.5904 C   0  0  0  0  0  0  0  0  0  0  0  0
   25.1326  -33.8147   -8.3085 C   0  0  0  0  0  0  0  0  0  0  0  0
   25.9448  -35.0849   -8.2776 C   0  0  2  0  0  0  0  0  0  0  0  0
   25.2475  -36.1736   -8.9334 N   0  0  0  0  0  0  0  0  0  0  0  0
   26.1884  -35.3979   -6.8439 C   0  0  0  0  0  0  0  0  0  0  0  0
   25.3492  -36.1289   -6.2375 O   0  0  0  0  0  0  0  0  0  0  0  0
   27.3078  -34.9267   -6.1132 N   0  0  0  0  0  0  0  0  0  0  0  0
   28.3183  -33.9414   -6.4569 C   0  0  0  0  0  0  0  0  0  0  0  0
   29.6177  -34.4323   -5.8005 C   0  0  0  0  0  0  0  0  0  0  0  0
   29.1815  -35.3461   -4.7055 C   0  0  0  0  0  0  0  0  0  0  0  0
   27.6949  -35.3636   -4.7700 C   0  0  1  0  0  0  0  0  0  0  0  0
   27.0886  -34.4250   -3.7912 C   0  0  0  0  0  0  0  0  0  0  0  0
   26.5252  -33.3666   -4.1719 O   0  0  0  0  0  0  0  0  0  0  0  0
   27.1201  -34.6777   -2.4277 O   0  0  0  0  0  0  0  0  0  0  0  0
  2  1  1  1
  3  2  1  0
  4  5  2  0
  4  2  1  0
  7  6  1  1
  7  8  1  0
  7  9  1  0
 10  9  1  1
 10 11  1  0
 10 12  1  0
 11  4  1  0
 12 14  1  0
 13 12  2  0
 14 15  1  0
 14 18  1  0
 15 16  1  0
 16 17  1  0
 18 17  1  0
 18 19  1  1
 19 21  1  0
 20 19  2  0
M  END
$$$$
