ALP.pdb
     RDKit          3D

 21 21  0  0  1  0  0  0  0  0999 V2000
   24.8873  -20.0754  -18.9183 C   0  0  0  0  0  0  0  0  0  0  0  0
   25.9597  -19.3545  -18.1224 C   0  0  2  0  0  0  0  0  0  0  0  0
   25.4369  -18.6003  -17.0265 N   0  0  0  0  0  0  0  0  0  0  0  0
   26.7233  -18.4866  -19.0661 C   0  0  0  0  0  0  0  0  0  0  0  0
   27.3999  -19.0166  -19.9548 O   0  0  0  0  0  0  0  0  0  0  0  0
   25.5524  -15.1635  -21.8542 C   0  0  0  0  0  0  0  0  0  0  0  0
   26.5369  -14.2357  -21.1581 C   0  0  1  0  0  0  0  0  0  0  0  0
   25.9114  -12.8807  -21.1487 C   0  0  0  0  0  0  0  0  0  0  0  0
   26.8453  -14.8174  -19.8467 C   0  0  0  0  0  0  0  0  0  0  0  0
   27.4052  -16.2177  -19.8552 C   0  0  2  0  0  0  0  0  0  0  0  0
   26.6762  -17.0833  -18.9492 N   0  0  0  0  0  0  0  0  0  0  0  0
   28.8322  -16.1064  -19.4499 C   0  0  0  0  0  0  0  0  0  0  0  0
   29.1150  -16.1911  -18.2173 O   0  0  0  0  0  0  0  0  0  0  0  0
   29.8983  -15.9118  -20.3634 N   0  0  0  0  0  0  0  0  0  0  0  0
   29.8901  -15.7135  -21.8024 C   0  0  0  0  0  0  0  0  0  0  0  0
   31.1654  -16.3940  -22.3230 C   0  0  0  0  0  0  0  0  0  0  0  0
   32.0771  -16.4691  -21.1449 C   0  0  0  0  0  0  0  0  0  0  0  0
   31.3204  -15.8621  -20.0165 C   0  0  1  0  0  0  0  0  0  0  0  0
   31.6903  -14.4390  -19.8057 C   0  0  0  0  0  0  0  0  0  0  0  0
   30.9577  -13.5092  -20.2316 O   0  0  0  0  0  0  0  0  0  0  0  0
   32.8509  -14.0824  -19.1351 O   0  0  0  0  0  0  0  0  0  0  0  0
  2  1  1  6
  3  2  1  0
  4  5  2  0
  4  2  1  0
  7  6  1  1
  7  8  1  0
  7  9  1  0
 10  9  1  1
 10 11  1  0
 10 12  1  0
 11  4  1  0
 12 14  1  0
 13 12  2  0
 14 15  1  0
 14 18  1  0
 15 16  1  0
 16 17  1  0
 18 17  1  0
 18 19  1  6
 19 21  1  0
 20 19  2  0
M  END
$$$$
