ALP.pdb
     RDKit          3D

 21 21  0  0  1  0  0  0  0  0999 V2000
   27.4256  -17.6870  -16.8749 C   0  0  0  0  0  0  0  0  0  0  0  0
   28.2770  -18.8259  -16.3447 C   0  0  2  0  0  0  0  0  0  0  0  0
   28.9742  -19.5340  -17.3722 N   0  0  0  0  0  0  0  0  0  0  0  0
   27.3885  -19.7350  -15.5631 C   0  0  0  0  0  0  0  0  0  0  0  0
   26.9037  -20.7259  -16.1213 O   0  0  0  0  0  0  0  0  0  0  0  0
   25.9295  -22.1664  -10.7145 C   0  0  0  0  0  0  0  0  0  0  0  0
   25.4857  -20.7514  -11.0536 C   0  0  1  0  0  0  0  0  0  0  0  0
   25.2748  -20.0483   -9.7542 C   0  0  0  0  0  0  0  0  0  0  0  0
   26.4932  -20.1717  -11.9493 C   0  0  0  0  0  0  0  0  0  0  0  0
   26.2438  -20.3379  -13.4272 C   0  0  2  0  0  0  0  0  0  0  0  0
   27.1040  -19.4712  -14.2086 N   0  0  0  0  0  0  0  0  0  0  0  0
   24.8110  -20.0091  -13.6552 C   0  0  0  0  0  0  0  0  0  0  0  0
   24.4728  -18.7880  -13.6894 O   0  0  0  0  0  0  0  0  0  0  0  0
   23.7981  -20.9834  -13.8386 N   0  0  0  0  0  0  0  0  0  0  0  0
   23.8408  -22.4303  -13.7175 C   0  0  0  0  0  0  0  0  0  0  0  0
   22.8659  -22.9651  -14.7777 C   0  0  0  0  0  0  0  0  0  0  0  0
   21.9437  -21.8296  -15.0689 C   0  0  0  0  0  0  0  0  0  0  0  0
   22.4073  -20.7090  -14.2065 C   0  0  1  0  0  0  0  0  0  0  0  0
   21.6137  -20.6109  -12.9546 C   0  0  0  0  0  0  0  0  0  0  0  0
   22.0535  -21.0743  -11.8708 O   0  0  0  0  0  0  0  0  0  0  0  0
   20.3647  -20.0082  -12.9322 O   0  0  0  0  0  0  0  0  0  0  0  0
  2  1  1  6
  3  2  1  0
  4  5  2  0
  4  2  1  0
  7  6  1  1
  7  8  1  0
  7  9  1  0
 10  9  1  1
 10 11  1  0
 10 12  1  0
 11  4  1  0
 12 14  1  0
 13 12  2  0
 14 15  1  0
 14 18  1  0
 15 16  1  0
 16 17  1  0
 18 17  1  0
 18 19  1  1
 19 21  1  0
 20 19  2  0
M  END
$$$$
