DLS.pdb
     RDKit          3D

 23 22  0  0  1  0  0  0  0  0999 V2000
   16.2015   -9.6312  -15.7014 N   0  0  0  0  0  0  0  0  0  0  0  0
   17.4498   -9.2358  -16.2834 C   0  0  1  0  0  0  0  0  0  0  0  0
   17.2365   -8.4197  -17.5376 C   0  0  0  0  0  0  0  0  0  0  0  0
   16.7599   -9.2500  -18.6616 C   0  0  0  0  0  0  0  0  0  0  0  0
   16.5584  -10.4613  -18.4943 O   0  0  0  0  0  0  0  0  0  0  0  0
   18.2845   -8.4415  -15.3402 C   0  0  0  0  0  0  0  0  0  0  0  0
   17.7161   -7.6588  -14.5371 O   0  0  0  0  0  0  0  0  0  0  0  0
   16.5463   -8.6514  -19.8901 O   0  0  0  0  0  0  0  0  0  0  0  0
   21.0520   -9.4625  -11.9729 C   0  0  0  0  0  0  0  0  0  0  0  0
   21.7639   -9.5217  -13.2602 C   0  0  2  0  0  0  0  0  0  0  0  0
   23.1651  -10.0733  -13.0089 C   0  0  0  0  0  0  0  0  0  0  0  0
   21.7993   -8.2991  -14.0888 C   0  0  0  0  0  0  0  0  0  0  0  0
   20.4749   -7.7235  -14.4861 C   0  0  2  0  0  0  0  0  0  0  0  0
   19.7131   -8.5824  -15.3643 N   0  0  0  0  0  0  0  0  0  0  0  0
   20.7494   -6.4700  -15.2237 C   0  0  0  0  0  0  0  0  0  0  0  0
   21.1524   -6.4535  -16.4196 O   0  0  0  0  0  0  0  0  0  0  0  0
   18.5409   -3.4780  -15.5243 O   0  0  0  0  0  0  0  0  0  0  0  0
   19.6831   -2.9688  -14.9241 C   0  0  0  0  0  0  0  0  0  0  0  0
   20.8236   -3.9537  -15.2094 C   0  0  2  0  0  0  0  0  0  0  0  0
   20.5570   -5.2269  -14.5748 N   0  0  0  0  0  0  0  0  0  0  0  0
   22.1200   -3.3972  -14.7790 C   0  0  0  0  0  0  0  0  0  0  0  0
   22.5870   -2.2418  -15.3737 O   0  0  0  0  0  0  0  0  0  0  0  0
   22.7945   -3.9481  -13.8951 O   0  0  0  0  0  0  0  0  0  0  0  0
  2  1  1  1
  2  3  1  0
  3  4  1  0
  4  5  2  0
  4  8  1  0
  6 14  1  0
  6  2  1  0
  7  6  2  0
 10  9  1  1
 10 12  1  0
 11 10  1  0
 13 12  1  6
 13 14  1  0
 13 15  1  0
 15 16  2  0
 18 17  1  0
 19 18  1  1
 20 15  1  0
 20 19  1  0
 21 19  1  0
 21 22  1  0
 23 21  2  0
M  END
$$$$
