DLS.pdb
     RDKit          3D

 23 22  0  0  1  0  0  0  0  0999 V2000
   19.4912  -12.1842  -16.1141 N   0  0  0  0  0  0  0  0  0  0  0  0
   19.8545  -11.0051  -16.8431 C   0  0  1  0  0  0  0  0  0  0  0  0
   18.6328  -10.2153  -17.2530 C   0  0  0  0  0  0  0  0  0  0  0  0
   17.7436  -10.9942  -18.1376 C   0  0  0  0  0  0  0  0  0  0  0  0
   16.5155  -10.8428  -18.0693 O   0  0  0  0  0  0  0  0  0  0  0  0
   20.7520  -10.1124  -16.0590 C   0  0  0  0  0  0  0  0  0  0  0  0
   20.3960   -9.7516  -14.9084 O   0  0  0  0  0  0  0  0  0  0  0  0
   18.3066  -11.8855  -19.0330 O   0  0  0  0  0  0  0  0  0  0  0  0
   24.6243  -10.8402  -14.1791 C   0  0  0  0  0  0  0  0  0  0  0  0
   24.8193  -10.4452  -15.5839 C   0  0  2  0  0  0  0  0  0  0  0  0
   26.2949  -10.6239  -15.9324 C   0  0  0  0  0  0  0  0  0  0  0  0
   24.3147   -9.1230  -16.0078 C   0  0  0  0  0  0  0  0  0  0  0  0
   22.8545   -8.8663  -15.7954 C   0  0  2  0  0  0  0  0  0  0  0  0
   21.9988   -9.6826  -16.6265 N   0  0  0  0  0  0  0  0  0  0  0  0
   22.6044   -7.4533  -16.1577 C   0  0  0  0  0  0  0  0  0  0  0  0
   22.9022   -6.9729  -17.2862 O   0  0  0  0  0  0  0  0  0  0  0  0
   19.6150   -5.4784  -14.4465 O   0  0  0  0  0  0  0  0  0  0  0  0
   20.1942   -4.9951  -15.6104 C   0  0  0  0  0  0  0  0  0  0  0  0
   21.7089   -5.1995  -15.4827 C   0  0  2  0  0  0  0  0  0  0  0  0
   22.0059   -6.5895  -15.2096 N   0  0  0  0  0  0  0  0  0  0  0  0
   22.2745   -4.3135  -14.4479 C   0  0  0  0  0  0  0  0  0  0  0  0
   22.1967   -2.9453  -14.6179 O   0  0  0  0  0  0  0  0  0  0  0  0
   22.8165   -4.7757  -13.4319 O   0  0  0  0  0  0  0  0  0  0  0  0
  2  1  1  1
  2  3  1  0
  3  4  1  0
  4  5  2  0
  4  8  1  0
  6 14  1  0
  6  2  1  0
  7  6  2  0
 10  9  1  1
 10 12  1  0
 11 10  1  0
 13 12  1  6
 13 14  1  0
 13 15  1  0
 15 16  2  0
 18 17  1  0
 19 18  1  1
 20 15  1  0
 20 19  1  0
 21 19  1  0
 21 22  1  0
 23 21  2  0
M  END
$$$$
