DLS.pdb
     RDKit          3D

 23 22  0  0  1  0  0  0  0  0999 V2000
   15.7594  -11.0065  -13.8428 N   0  0  0  0  0  0  0  0  0  0  0  0
   16.7069   -9.9952  -13.4783 C   0  0  1  0  0  0  0  0  0  0  0  0
   17.5549   -9.5860  -14.6607 C   0  0  0  0  0  0  0  0  0  0  0  0
   18.4743  -10.6629  -15.0791 C   0  0  0  0  0  0  0  0  0  0  0  0
   18.1783  -11.3920  -16.0365 O   0  0  0  0  0  0  0  0  0  0  0  0
   16.0482   -8.7789  -12.9270 C   0  0  0  0  0  0  0  0  0  0  0  0
   15.0085   -8.3450  -13.4852 O   0  0  0  0  0  0  0  0  0  0  0  0
   19.6585  -10.8364  -14.3860 O   0  0  0  0  0  0  0  0  0  0  0  0
   13.6174   -7.3330   -9.1969 C   0  0  0  0  0  0  0  0  0  0  0  0
   15.0535   -7.5689   -8.9743 C   0  0  2  0  0  0  0  0  0  0  0  0
   15.3378   -7.4249   -7.4813 C   0  0  0  0  0  0  0  0  0  0  0  0
   16.0161   -6.8000   -9.7897 C   0  0  0  0  0  0  0  0  0  0  0  0
   15.9130   -6.9636  -11.2749 C   0  0  2  0  0  0  0  0  0  0  0  0
   16.6078   -8.1277  -11.7763 N   0  0  0  0  0  0  0  0  0  0  0  0
   16.5452   -5.7741  -11.8881 C   0  0  0  0  0  0  0  0  0  0  0  0
   17.7951   -5.6013  -11.9167 O   0  0  0  0  0  0  0  0  0  0  0  0
   14.2925   -3.5605  -14.4474 O   0  0  0  0  0  0  0  0  0  0  0  0
   15.6734   -3.5230  -14.5719 C   0  0  0  0  0  0  0  0  0  0  0  0
   16.2598   -3.6192  -13.1579 C   0  0  2  0  0  0  0  0  0  0  0  0
   15.7275   -4.7774  -12.4723 N   0  0  0  0  0  0  0  0  0  0  0  0
   16.0090   -2.3800  -12.3984 C   0  0  0  0  0  0  0  0  0  0  0  0
   16.6021   -1.2043  -12.8141 O   0  0  0  0  0  0  0  0  0  0  0  0
   15.2771   -2.3770  -11.3964 O   0  0  0  0  0  0  0  0  0  0  0  0
  2  1  1  6
  2  3  1  0
  3  4  1  0
  4  5  2  0
  4  8  1  0
  6 14  1  0
  6  2  1  0
  7  6  2  0
 10  9  1  1
 10 12  1  0
 11 10  1  0
 13 12  1  1
 13 14  1  0
 13 15  1  0
 15 16  2  0
 18 17  1  0
 19 18  1  6
 20 15  1  0
 20 19  1  0
 21 19  1  0
 21 22  1  0
 23 21  2  0
M  END
$$$$
