DLS.pdb
     RDKit          3D

 23 22  0  0  1  0  0  0  0  0999 V2000
   21.0473  -13.4329  -16.9943 N   0  0  0  0  0  0  0  0  0  0  0  0
   21.2265  -12.0807  -17.4333 C   0  0  1  0  0  0  0  0  0  0  0  0
   19.9036  -11.4357  -17.7777 C   0  0  0  0  0  0  0  0  0  0  0  0
   19.1997  -12.1613  -18.8538 C   0  0  0  0  0  0  0  0  0  0  0  0
   19.8305  -12.5735  -19.8377 O   0  0  0  0  0  0  0  0  0  0  0  0
   21.9077  -11.2416  -16.4091 C   0  0  0  0  0  0  0  0  0  0  0  0
   21.4706  -11.2473  -15.2303 O   0  0  0  0  0  0  0  0  0  0  0  0
   17.8368  -12.3675  -18.7391 O   0  0  0  0  0  0  0  0  0  0  0  0
   25.5597  -11.7359  -14.4631 C   0  0  0  0  0  0  0  0  0  0  0  0
   25.7782  -10.9355  -15.6794 C   0  0  2  0  0  0  0  0  0  0  0  0
   27.2816  -10.8379  -15.9261 C   0  0  0  0  0  0  0  0  0  0  0  0
   25.1242   -9.6136  -15.7652 C   0  0  0  0  0  0  0  0  0  0  0  0
   23.6264   -9.6084  -15.7599 C   0  0  2  0  0  0  0  0  0  0  0  0
   23.0433  -10.4466  -16.7829 N   0  0  0  0  0  0  0  0  0  0  0  0
   23.1957   -8.2183  -16.0296 C   0  0  0  0  0  0  0  0  0  0  0  0
   23.5724   -7.5696  -17.0445 O   0  0  0  0  0  0  0  0  0  0  0  0
   20.0211   -6.9384  -16.6699 O   0  0  0  0  0  0  0  0  0  0  0  0
   20.2935   -6.2598  -15.4913 C   0  0  0  0  0  0  0  0  0  0  0  0
   21.8179   -6.2328  -15.3247 C   0  0  2  0  0  0  0  0  0  0  0  0
   22.3237   -7.5734  -15.1202 N   0  0  0  0  0  0  0  0  0  0  0  0
   22.2115   -5.3338  -14.2236 C   0  0  0  0  0  0  0  0  0  0  0  0
   22.0288   -3.9727  -14.3683 O   0  0  0  0  0  0  0  0  0  0  0  0
   22.7018   -5.7789  -13.1742 O   0  0  0  0  0  0  0  0  0  0  0  0
  2  1  1  1
  2  3  1  0
  3  4  1  0
  4  5  2  0
  4  8  1  0
  6 14  1  0
  6  2  1  0
  7  6  2  0
 10  9  1  1
 10 12  1  0
 11 10  1  0
 13 12  1  6
 13 14  1  0
 13 15  1  0
 15 16  2  0
 18 17  1  0
 19 18  1  1
 20 15  1  0
 20 19  1  0
 21 19  1  0
 21 22  1  0
 23 21  2  0
M  END
$$$$
