DLS.pdb
     RDKit          3D

 23 22  0  0  1  0  0  0  0  0999 V2000
   21.3702  -11.2713  -18.8546 N   0  0  0  0  0  0  0  0  0  0  0  0
   20.5481  -11.0855  -17.6957 C   0  0  1  0  0  0  0  0  0  0  0  0
   20.1517  -12.4106  -17.0861 C   0  0  0  0  0  0  0  0  0  0  0  0
   19.2632  -13.1837  -17.9766 C   0  0  0  0  0  0  0  0  0  0  0  0
   18.8735  -12.6885  -19.0437 O   0  0  0  0  0  0  0  0  0  0  0  0
   21.2247  -10.2692  -16.6503 C   0  0  0  0  0  0  0  0  0  0  0  0
   20.5951   -9.9839  -15.6000 O   0  0  0  0  0  0  0  0  0  0  0  0
   18.8810  -14.4574  -17.5964 O   0  0  0  0  0  0  0  0  0  0  0  0
   24.8549  -11.0536  -14.1224 C   0  0  0  0  0  0  0  0  0  0  0  0
   25.2002  -10.4664  -15.4276 C   0  0  2  0  0  0  0  0  0  0  0  0
   26.7175  -10.5150  -15.5895 C   0  0  0  0  0  0  0  0  0  0  0  0
   24.6595   -9.1300  -15.7505 C   0  0  0  0  0  0  0  0  0  0  0  0
   23.1680   -9.0127  -15.8210 C   0  0  2  0  0  0  0  0  0  0  0  0
   22.5742   -9.8254  -16.8584 N   0  0  0  0  0  0  0  0  0  0  0  0
   22.8575   -7.6000  -16.1348 C   0  0  0  0  0  0  0  0  0  0  0  0
   23.2968   -7.0146  -17.1631 O   0  0  0  0  0  0  0  0  0  0  0  0
   19.5932   -5.7967  -14.4483 O   0  0  0  0  0  0  0  0  0  0  0  0
   20.1640   -5.3242  -15.6208 C   0  0  0  0  0  0  0  0  0  0  0  0
   21.6839   -5.4720  -15.4778 C   0  0  2  0  0  0  0  0  0  0  0  0
   22.0339   -6.8586  -15.2544 N   0  0  0  0  0  0  0  0  0  0  0  0
   22.1982   -4.6054  -14.4008 C   0  0  0  0  0  0  0  0  0  0  0  0
   22.8001   -5.1843  -13.3009 O   0  0  0  0  0  0  0  0  0  0  0  0
   22.0993   -3.3703  -14.4668 O   0  0  0  0  0  0  0  0  0  0  0  0
  2  1  1  6
  2  3  1  0
  3  4  1  0
  4  5  2  0
  4  8  1  0
  6 14  1  0
  6  2  1  0
  7  6  2  0
 10  9  1  1
 10 12  1  0
 11 10  1  0
 13 12  1  6
 13 14  1  0
 13 15  1  0
 15 16  2  0
 18 17  1  0
 19 18  1  1
 20 15  1  0
 20 19  1  0
 21 19  1  0
 21 22  1  0
 23 21  2  0
M  END
$$$$
