DLS.pdb
     RDKit          3D

 23 22  0  0  1  0  0  0  0  0999 V2000
   27.5399  -22.2245  -16.9514 N   0  0  0  0  0  0  0  0  0  0  0  0
   26.6910  -21.1484  -16.5331 C   0  0  1  0  0  0  0  0  0  0  0  0
   25.9009  -20.5897  -17.6942 C   0  0  0  0  0  0  0  0  0  0  0  0
   26.7718  -19.9313  -18.6882 C   0  0  0  0  0  0  0  0  0  0  0  0
   27.1207  -18.7539  -18.5219 O   0  0  0  0  0  0  0  0  0  0  0  0
   25.7357  -21.5653  -15.4698 C   0  0  0  0  0  0  0  0  0  0  0  0
   24.9878  -22.5542  -15.6785 O   0  0  0  0  0  0  0  0  0  0  0  0
   27.1839  -20.6508  -19.7953 O   0  0  0  0  0  0  0  0  0  0  0  0
   27.2841  -21.3488  -10.2811 C   0  0  0  0  0  0  0  0  0  0  0  0
   26.7533  -21.3049  -11.6537 C   0  0  2  0  0  0  0  0  0  0  0  0
   27.5144  -20.2321  -12.4286 C   0  0  0  0  0  0  0  0  0  0  0  0
   25.2923  -21.1701  -11.8270 C   0  0  0  0  0  0  0  0  0  0  0  0
   24.7698  -21.3144  -13.2232 C   0  0  2  0  0  0  0  0  0  0  0  0
   25.6858  -20.8363  -14.2340 N   0  0  0  0  0  0  0  0  0  0  0  0
   23.5426  -20.4921  -13.3151 C   0  0  0  0  0  0  0  0  0  0  0  0
   23.5434  -19.3070  -13.7493 O   0  0  0  0  0  0  0  0  0  0  0  0
   20.8593  -21.8221  -15.3290 O   0  0  0  0  0  0  0  0  0  0  0  0
   20.9863  -20.5116  -14.8927 C   0  0  0  0  0  0  0  0  0  0  0  0
   21.0261  -20.5451  -13.3598 C   0  0  2  0  0  0  0  0  0  0  0  0
   22.3058  -21.0430  -12.9024 N   0  0  0  0  0  0  0  0  0  0  0  0
   19.9114  -21.3469  -12.8215 C   0  0  0  0  0  0  0  0  0  0  0  0
   18.6234  -20.8580  -12.9167 O   0  0  0  0  0  0  0  0  0  0  0  0
   20.1114  -22.4487  -12.2868 O   0  0  0  0  0  0  0  0  0  0  0  0
  2  1  1  6
  2  3  1  0
  3  4  1  0
  4  5  2  0
  4  8  1  0
  6 14  1  0
  6  2  1  0
  7  6  2  0
 10  9  1  1
 10 12  1  0
 11 10  1  0
 13 12  1  1
 13 14  1  0
 13 15  1  0
 15 16  2  0
 18 17  1  0
 19 18  1  6
 20 15  1  0
 20 19  1  0
 21 19  1  0
 21 22  1  0
 23 21  2  0
M  END
$$$$
