DLS.pdb
     RDKit          3D

 23 22  0  0  1  0  0  0  0  0999 V2000
   15.7999  -10.5294  -13.5825 N   0  0  0  0  0  0  0  0  0  0  0  0
   16.6820   -9.8940  -12.6490 C   0  0  1  0  0  0  0  0  0  0  0  0
   17.9363   -9.3969  -13.3302 C   0  0  0  0  0  0  0  0  0  0  0  0
   18.7785  -10.5087  -13.8148 C   0  0  0  0  0  0  0  0  0  0  0  0
   18.4470  -11.6808  -13.5871 O   0  0  0  0  0  0  0  0  0  0  0  0
   16.0356   -8.7459  -11.9553 C   0  0  0  0  0  0  0  0  0  0  0  0
   15.3480   -7.9375  -12.6295 O   0  0  0  0  0  0  0  0  0  0  0  0
   19.9314  -10.2145  -14.5200 O   0  0  0  0  0  0  0  0  0  0  0  0
   14.5069   -6.5463   -6.3152 C   0  0  0  0  0  0  0  0  0  0  0  0
   14.6529   -6.4764   -7.7785 C   0  0  2  0  0  0  0  0  0  0  0  0
   13.2811   -6.1915   -8.3848 C   0  0  0  0  0  0  0  0  0  0  0  0
   15.3288   -7.5987   -8.4612 C   0  0  0  0  0  0  0  0  0  0  0  0
   15.5844   -7.4315   -9.9275 C   0  0  2  0  0  0  0  0  0  0  0  0
   16.2076   -8.5833  -10.5392 N   0  0  0  0  0  0  0  0  0  0  0  0
   16.5171   -6.2923  -10.0790 C   0  0  0  0  0  0  0  0  0  0  0  0
   17.7667   -6.4081   -9.9447 O   0  0  0  0  0  0  0  0  0  0  0  0
   18.2510   -3.3003  -12.6669 O   0  0  0  0  0  0  0  0  0  0  0  0
   17.5327   -4.3877  -12.1920 C   0  0  0  0  0  0  0  0  0  0  0  0
   16.8178   -3.9360  -10.9124 C   0  0  2  0  0  0  0  0  0  0  0  0
   16.0023   -5.0105  -10.3878 N   0  0  0  0  0  0  0  0  0  0  0  0
   16.0177   -2.7213  -11.1570 C   0  0  0  0  0  0  0  0  0  0  0  0
   16.5618   -1.4867  -10.8628 O   0  0  0  0  0  0  0  0  0  0  0  0
   14.8689   -2.7908  -11.6207 O   0  0  0  0  0  0  0  0  0  0  0  0
  2  1  1  6
  2  3  1  0
  3  4  1  0
  4  5  2  0
  4  8  1  0
  6 14  1  0
  6  2  1  0
  7  6  2  0
 10  9  1  1
 10 12  1  0
 11 10  1  0
 13 12  1  1
 13 14  1  0
 13 15  1  0
 15 16  2  0
 18 17  1  0
 19 18  1  6
 20 15  1  0
 20 19  1  0
 21 19  1  0
 21 22  1  0
 23 21  2  0
M  END
$$$$
