DLS.pdb
     RDKit          3D

 23 22  0  0  1  0  0  0  0  0999 V2000
   20.6164  -11.4539  -15.7994 N   0  0  0  0  0  0  0  0  0  0  0  0
   20.0664  -10.2544  -16.3579 C   0  0  1  0  0  0  0  0  0  0  0  0
   18.5822  -10.1546  -16.0898 C   0  0  0  0  0  0  0  0  0  0  0  0
   17.8388  -11.2890  -16.6732 C   0  0  0  0  0  0  0  0  0  0  0  0
   18.1882  -11.7625  -17.7639 O   0  0  0  0  0  0  0  0  0  0  0  0
   20.7254   -9.0307  -15.8236 C   0  0  0  0  0  0  0  0  0  0  0  0
   20.8242   -8.8882  -14.5783 O   0  0  0  0  0  0  0  0  0  0  0  0
   16.7569  -11.8041  -15.9824 O   0  0  0  0  0  0  0  0  0  0  0  0
   25.3080   -5.1778  -16.7246 C   0  0  0  0  0  0  0  0  0  0  0  0
   23.9517   -5.4380  -16.2145 C   0  0  2  0  0  0  0  0  0  0  0  0
   23.9689   -5.2692  -14.6973 C   0  0  0  0  0  0  0  0  0  0  0  0
   23.2905   -6.6966  -16.6161 C   0  0  0  0  0  0  0  0  0  0  0  0
   21.8778   -6.8848  -16.1556 C   0  0  2  0  0  0  0  0  0  0  0  0
   21.2326   -8.0423  -16.7330 N   0  0  0  0  0  0  0  0  0  0  0  0
   21.1164   -5.6923  -16.5902 C   0  0  0  0  0  0  0  0  0  0  0  0
   21.2006   -5.2133  -17.7549 O   0  0  0  0  0  0  0  0  0  0  0  0
   18.0744   -4.3250  -14.1315 O   0  0  0  0  0  0  0  0  0  0  0  0
   17.9797   -4.1577  -15.5052 C   0  0  0  0  0  0  0  0  0  0  0  0
   19.4018   -3.9348  -16.0347 C   0  0  2  0  0  0  0  0  0  0  0  0
   20.2518   -5.0489  -15.6727 N   0  0  0  0  0  0  0  0  0  0  0  0
   19.9511   -2.6560  -15.5466 C   0  0  0  0  0  0  0  0  0  0  0  0
   19.2837   -1.4825  -15.8369 O   0  0  0  0  0  0  0  0  0  0  0  0
   20.9985   -2.6179  -14.8823 O   0  0  0  0  0  0  0  0  0  0  0  0
  2  1  1  1
  2  3  1  0
  3  4  1  0
  4  5  2  0
  4  8  1  0
  6 14  1  0
  6  2  1  0
  7  6  2  0
 10  9  1  1
 10 12  1  0
 11 10  1  0
 13 12  1  6
 13 14  1  0
 13 15  1  0
 15 16  2  0
 18 17  1  0
 19 18  1  1
 20 15  1  0
 20 19  1  0
 21 19  1  0
 21 22  1  0
 23 21  2  0
M  END
$$$$
