DLS.pdb
     RDKit          3D

 23 22  0  0  1  0  0  0  0  0999 V2000
   22.4359  -20.2009  -11.3186 N   0  0  0  0  0  0  0  0  0  0  0  0
   22.7136  -20.9458  -12.5109 C   0  0  1  0  0  0  0  0  0  0  0  0
   21.5670  -20.8586  -13.4919 C   0  0  0  0  0  0  0  0  0  0  0  0
   20.3616  -21.5512  -12.9946 C   0  0  0  0  0  0  0  0  0  0  0  0
   19.6490  -21.0131  -12.1352 O   0  0  0  0  0  0  0  0  0  0  0  0
   23.9528  -20.4782  -13.1912 C   0  0  0  0  0  0  0  0  0  0  0  0
   23.9901  -19.3078  -13.6489 O   0  0  0  0  0  0  0  0  0  0  0  0
   20.0506  -22.7988  -13.5042 O   0  0  0  0  0  0  0  0  0  0  0  0
   28.2068  -19.3690  -11.8149 C   0  0  0  0  0  0  0  0  0  0  0  0
   27.9026  -20.8074  -11.8937 C   0  0  2  0  0  0  0  0  0  0  0  0
   29.0567  -21.5776  -11.2569 C   0  0  0  0  0  0  0  0  0  0  0  0
   27.5347  -21.3661  -13.2109 C   0  0  0  0  0  0  0  0  0  0  0  0
   26.2978  -20.8126  -13.8488 C   0  0  2  0  0  0  0  0  0  0  0  0
   25.0751  -21.3655  -13.3115 N   0  0  0  0  0  0  0  0  0  0  0  0
   26.3512  -21.1710  -15.2838 C   0  0  0  0  0  0  0  0  0  0  0  0
   26.3194  -22.3645  -15.6930 O   0  0  0  0  0  0  0  0  0  0  0  0
   24.7737  -18.8513  -18.0608 O   0  0  0  0  0  0  0  0  0  0  0  0
   25.1281  -20.1677  -18.3162 C   0  0  0  0  0  0  0  0  0  0  0  0
   26.5021  -20.4006  -17.6757 C   0  0  2  0  0  0  0  0  0  0  0  0
   26.4419  -20.1432  -16.2527 N   0  0  0  0  0  0  0  0  0  0  0  0
   27.5348  -19.5756  -18.3301 C   0  0  0  0  0  0  0  0  0  0  0  0
   27.8728  -19.8373  -19.6432 O   0  0  0  0  0  0  0  0  0  0  0  0
   28.1022  -18.6544  -17.7225 O   0  0  0  0  0  0  0  0  0  0  0  0
  2  1  1  1
  2  3  1  0
  3  4  1  0
  4  5  2  0
  4  8  1  0
  6 14  1  0
  6  2  1  0
  7  6  2  0
 10  9  1  6
 10 12  1  0
 11 10  1  0
 13 12  1  1
 13 14  1  0
 13 15  1  0
 15 16  2  0
 18 17  1  0
 19 18  1  6
 20 15  1  0
 20 19  1  0
 21 19  1  0
 21 22  1  0
 23 21  2  0
M  END
$$$$
