DLS.pdb
     RDKit          3D

 23 22  0  0  1  0  0  0  0  0999 V2000
   19.6622  -12.5096  -17.0047 N   0  0  0  0  0  0  0  0  0  0  0  0
   20.3032  -11.4691  -17.7531 C   0  0  1  0  0  0  0  0  0  0  0  0
   19.3509  -10.8388  -18.7432 C   0  0  0  0  0  0  0  0  0  0  0  0
   18.8451  -11.8201  -19.7236 C   0  0  0  0  0  0  0  0  0  0  0  0
   19.6371  -12.4163  -20.4674 O   0  0  0  0  0  0  0  0  0  0  0  0
   20.8478  -10.3972  -16.8746 C   0  0  0  0  0  0  0  0  0  0  0  0
   20.1147   -9.9214  -15.9708 O   0  0  0  0  0  0  0  0  0  0  0  0
   17.4838  -12.0553  -19.7913 O   0  0  0  0  0  0  0  0  0  0  0  0
   24.3699  -10.1425  -14.0083 C   0  0  0  0  0  0  0  0  0  0  0  0
   24.7774   -9.8730  -15.3972 C   0  0  2  0  0  0  0  0  0  0  0  0
   26.2988   -9.7543  -15.4367 C   0  0  0  0  0  0  0  0  0  0  0  0
   24.1240   -8.7532  -16.1055 C   0  0  0  0  0  0  0  0  0  0  0  0
   22.6349   -8.8305  -16.2465 C   0  0  2  0  0  0  0  0  0  0  0  0
   22.1904   -9.9294  -17.0737 N   0  0  0  0  0  0  0  0  0  0  0  0
   22.1948   -7.5785  -16.9017 C   0  0  0  0  0  0  0  0  0  0  0  0
   22.2531   -7.4019  -18.1500 O   0  0  0  0  0  0  0  0  0  0  0  0
   19.2064   -4.6539  -17.9922 O   0  0  0  0  0  0  0  0  0  0  0  0
   19.7977   -5.8042  -17.4914 C   0  0  0  0  0  0  0  0  0  0  0  0
   21.0148   -5.3672  -16.6667 C   0  0  2  0  0  0  0  0  0  0  0  0
   21.6836   -6.5232  -16.1089 N   0  0  0  0  0  0  0  0  0  0  0  0
   20.6221   -4.4111  -15.6145 C   0  0  0  0  0  0  0  0  0  0  0  0
   20.3406   -3.1050  -15.9632 O   0  0  0  0  0  0  0  0  0  0  0  0
   20.5410   -4.7600  -14.4265 O   0  0  0  0  0  0  0  0  0  0  0  0
  2  1  1  1
  2  3  1  0
  3  4  1  0
  4  5  2  0
  4  8  1  0
  6 14  1  0
  6  2  1  0
  7  6  2  0
 10  9  1  1
 10 12  1  0
 11 10  1  0
 13 12  1  6
 13 14  1  0
 13 15  1  0
 15 16  2  0
 18 17  1  0
 19 18  1  1
 20 15  1  0
 20 19  1  0
 21 19  1  0
 21 22  1  0
 23 21  2  0
M  END
$$$$
