DLS.pdb
     RDKit          3D

 23 22  0  0  1  0  0  0  0  0999 V2000
   17.4206  -12.3127  -15.3938 N   0  0  0  0  0  0  0  0  0  0  0  0
   17.6505  -11.1815  -16.2429 C   0  0  1  0  0  0  0  0  0  0  0  0
   16.3631  -10.6918  -16.8652 C   0  0  0  0  0  0  0  0  0  0  0  0
   15.8363  -11.6433  -17.8639 C   0  0  0  0  0  0  0  0  0  0  0  0
   16.5505  -12.5698  -18.2728 O   0  0  0  0  0  0  0  0  0  0  0  0
   18.2821  -10.0481  -15.5124 C   0  0  0  0  0  0  0  0  0  0  0  0
   17.7127   -9.5926  -14.4881 O   0  0  0  0  0  0  0  0  0  0  0  0
   14.5433  -11.4780  -18.3262 O   0  0  0  0  0  0  0  0  0  0  0  0
   21.7956   -9.6494  -12.8173 C   0  0  0  0  0  0  0  0  0  0  0  0
   22.1608   -9.6602  -14.2436 C   0  0  2  0  0  0  0  0  0  0  0  0
   23.6801   -9.7661  -14.3492 C   0  0  0  0  0  0  0  0  0  0  0  0
   21.6278   -8.5832  -15.1030 C   0  0  0  0  0  0  0  0  0  0  0  0
   20.1366   -8.4686  -15.1819 C   0  0  2  0  0  0  0  0  0  0  0  0
   19.5210   -9.4993  -15.9870 N   0  0  0  0  0  0  0  0  0  0  0  0
   19.8338   -7.1688  -15.8218 C   0  0  0  0  0  0  0  0  0  0  0  0
   20.0874   -6.9271  -17.0343 O   0  0  0  0  0  0  0  0  0  0  0  0
   17.2597   -3.1416  -15.5865 O   0  0  0  0  0  0  0  0  0  0  0  0
   17.5505   -4.3668  -15.0051 C   0  0  0  0  0  0  0  0  0  0  0  0
   18.8768   -4.8506  -15.6044 C   0  0  2  0  0  0  0  0  0  0  0  0
   19.2338   -6.1412  -15.0553 N   0  0  0  0  0  0  0  0  0  0  0  0
   19.9458   -3.8577  -15.3878 C   0  0  0  0  0  0  0  0  0  0  0  0
   21.0698   -4.2239  -14.6740 O   0  0  0  0  0  0  0  0  0  0  0  0
   19.8518   -2.7039  -15.8346 O   0  0  0  0  0  0  0  0  0  0  0  0
  2  1  1  1
  2  3  1  0
  3  4  1  0
  4  5  2  0
  4  8  1  0
  6 14  1  0
  6  2  1  0
  7  6  2  0
 10  9  1  1
 10 12  1  0
 11 10  1  0
 13 12  1  6
 13 14  1  0
 13 15  1  0
 15 16  2  0
 18 17  1  0
 19 18  1  1
 20 15  1  0
 20 19  1  0
 21 19  1  0
 21 22  1  0
 23 21  2  0
M  END
$$$$
