DLS.pdb
     RDKit          3D

 23 22  0  0  1  0  0  0  0  0999 V2000
   27.2735  -20.4639  -15.7825 N   0  0  0  0  0  0  0  0  0  0  0  0
   26.5085  -21.6293  -16.1141 C   0  0  1  0  0  0  0  0  0  0  0  0
   27.3849  -22.8585  -16.1875 C   0  0  0  0  0  0  0  0  0  0  0  0
   28.5851  -22.6315  -17.0171 C   0  0  0  0  0  0  0  0  0  0  0  0
   28.4712  -22.1394  -18.1487 O   0  0  0  0  0  0  0  0  0  0  0  0
   25.4184  -21.8854  -15.1327 C   0  0  0  0  0  0  0  0  0  0  0  0
   24.7612  -22.9538  -15.2194 O   0  0  0  0  0  0  0  0  0  0  0  0
   29.8238  -22.9768  -16.5076 O   0  0  0  0  0  0  0  0  0  0  0  0
   25.6328  -22.5027  -10.8036 C   0  0  0  0  0  0  0  0  0  0  0  0
   25.4809  -21.0696  -11.1051 C   0  0  2  0  0  0  0  0  0  0  0  0
   25.6765  -20.2835   -9.8111 C   0  0  0  0  0  0  0  0  0  0  0  0
   24.2661  -20.6389  -11.8270 C   0  0  0  0  0  0  0  0  0  0  0  0
   24.0629  -21.2148  -13.1946 C   0  0  2  0  0  0  0  0  0  0  0  0
   25.1388  -20.9150  -14.1121 N   0  0  0  0  0  0  0  0  0  0  0  0
   22.8313  -20.6052  -13.7443 C   0  0  0  0  0  0  0  0  0  0  0  0
   22.8495  -19.6551  -14.5749 O   0  0  0  0  0  0  0  0  0  0  0  0
   20.9886  -21.0990  -16.4898 O   0  0  0  0  0  0  0  0  0  0  0  0
   20.7457  -21.9897  -15.4547 C   0  0  0  0  0  0  0  0  0  0  0  0
   20.4195  -21.1586  -14.2076 C   0  0  2  0  0  0  0  0  0  0  0  0
   21.5699  -21.0969  -13.3314 N   0  0  0  0  0  0  0  0  0  0  0  0
   19.2378  -21.6984  -13.5093 C   0  0  0  0  0  0  0  0  0  0  0  0
   18.0383  -21.0193  -13.5931 O   0  0  0  0  0  0  0  0  0  0  0  0
   19.3038  -22.7481  -12.8509 O   0  0  0  0  0  0  0  0  0  0  0  0
  2  1  1  1
  2  3  1  0
  3  4  1  0
  4  5  2  0
  4  8  1  0
  6 14  1  0
  6  2  1  0
  7  6  2  0
 10  9  1  1
 10 12  1  0
 11 10  1  0
 13 12  1  1
 13 14  1  0
 13 15  1  0
 15 16  2  0
 18 17  1  0
 19 18  1  6
 20 15  1  0
 20 19  1  0
 21 19  1  0
 21 22  1  0
 23 21  2  0
M  END
$$$$
