YDL.pdb
     RDKit          3D

 29 29  0  0  1  0  0  0  0  0999 V2000
   12.9692  -17.1216  -17.4144 O   0  0  0  0  0  0  0  0  0  0  0  0
   13.5673  -16.0383  -16.7759 C   0  0  0  0  0  0  0  0  0  0  0  0
   13.5452  -15.9973  -15.3894 C   0  0  0  0  0  0  0  0  0  0  0  0
   14.1259  -14.9433  -14.7264 C   0  0  0  0  0  0  0  0  0  0  0  0
   14.7275  -13.9311  -15.4288 C   0  0  0  0  0  0  0  0  0  0  0  0
   15.3282  -12.8108  -14.6709 C   0  0  0  0  0  0  0  0  0  0  0  0
   16.8092  -12.6308  -14.9202 C   0  0  2  0  0  0  0  0  0  0  0  0
   17.4815  -13.8142  -14.3999 N   0  0  0  0  0  0  0  0  0  0  0  0
   17.2860  -11.4113  -14.2348 C   0  0  0  0  0  0  0  0  0  0  0  0
   17.5983  -11.4715  -13.0214 O   0  0  0  0  0  0  0  0  0  0  0  0
   14.7450  -13.9783  -16.7986 C   0  0  0  0  0  0  0  0  0  0  0  0
   14.1681  -15.0268  -17.4762 C   0  0  0  0  0  0  0  0  0  0  0  0
   17.4177  -10.1403  -14.8747 N   0  0  0  0  0  0  0  0  0  0  0  0
   17.8681   -8.9631  -14.1542 C   0  0  1  0  0  0  0  0  0  0  0  0
   18.2374   -7.9381  -15.2274 C   0  0  0  0  0  0  0  0  0  0  0  0
   18.6943   -6.6611  -14.6485 C   0  0  0  0  0  0  0  0  0  0  0  0
   18.4135   -5.5496  -15.1687 O   0  0  0  0  0  0  0  0  0  0  0  0
   16.7810   -8.3593  -13.3533 C   0  0  0  0  0  0  0  0  0  0  0  0
   15.6157   -8.3008  -13.8405 O   0  0  0  0  0  0  0  0  0  0  0  0
   19.4568   -6.6753  -13.4964 O   0  0  0  0  0  0  0  0  0  0  0  0
   13.7736   -7.3901   -9.0385 C   0  0  0  0  0  0  0  0  0  0  0  0
   15.1062   -6.6309   -8.9957 C   0  0  1  0  0  0  0  0  0  0  0  0
   15.5739   -6.5527   -7.5313 C   0  0  0  0  0  0  0  0  0  0  0  0
   16.1087   -7.3834   -9.8133 C   0  0  0  0  0  0  0  0  0  0  0  0
   15.8393   -7.2314  -11.2793 C   0  0  2  0  0  0  0  0  0  0  0  0
   16.9496   -7.8311  -12.0555 N   0  0  0  0  0  0  0  0  0  0  0  0
   15.7902   -5.8142  -11.6487 C   0  0  0  0  0  0  0  0  0  0  0  0
   16.9102   -5.1472  -12.1534 O   0  0  0  0  0  0  0  0  0  0  0  0
   14.7638   -5.1110  -11.5414 O   0  0  0  0  0  0  0  0  0  0  0  0
  2  1  1  0
  2 12  2  0
  3  2  1  0
  4  3  2  0
  4  5  1  0
  5 11  2  0
  6  7  1  0
  6  5  1  0
  7  8  1  1
  9  7  1  0
  9 10  2  0
 11 12  1  0
 13  9  1  0
 14 13  1  0
 14 18  1  0
 14 15  1  6
 16 15  1  0
 16 17  2  0
 18 19  2  0
 20 16  1  0
 22 21  1  1
 22 24  1  0
 22 23  1  0
 25 24  1  1
 25 27  1  0
 26 18  1  0
 26 25  1  0
 27 29  2  0
 27 28  1  0
M  END
$$$$
