YDL.pdb
     RDKit          3D

 29 29  0  0  1  0  0  0  0  0999 V2000
   20.6485  -13.6426  -21.6360 O   0  0  0  0  0  0  0  0  0  0  0  0
   20.0424  -12.4807  -21.1654 C   0  0  0  0  0  0  0  0  0  0  0  0
   18.7331  -12.2216  -21.5439 C   0  0  0  0  0  0  0  0  0  0  0  0
   18.1039  -11.0845  -21.0980 C   0  0  0  0  0  0  0  0  0  0  0  0
   18.7640  -10.2040  -20.2802 C   0  0  0  0  0  0  0  0  0  0  0  0
   18.0489   -8.9868  -19.8360 C   0  0  0  0  0  0  0  0  0  0  0  0
   17.6088   -9.0318  -18.3895 C   0  0  2  0  0  0  0  0  0  0  0  0
   16.5723  -10.0507  -18.2853 N   0  0  0  0  0  0  0  0  0  0  0  0
   17.0884   -7.7091  -17.9848 C   0  0  0  0  0  0  0  0  0  0  0  0
   15.9582   -7.3445  -18.3887 O   0  0  0  0  0  0  0  0  0  0  0  0
   20.0577  -10.4665  -19.9108 C   0  0  0  0  0  0  0  0  0  0  0  0
   20.7006  -11.6005  -20.3489 C   0  0  0  0  0  0  0  0  0  0  0  0
   17.8014   -6.7974  -17.1467 N   0  0  0  0  0  0  0  0  0  0  0  0
   17.2186   -5.5407  -16.7120 C   0  0  1  0  0  0  0  0  0  0  0  0
   17.2169   -5.5929  -15.1837 C   0  0  0  0  0  0  0  0  0  0  0  0
   16.1466   -6.4581  -14.6540 C   0  0  0  0  0  0  0  0  0  0  0  0
   16.3898   -7.5523  -14.0808 O   0  0  0  0  0  0  0  0  0  0  0  0
   18.0592   -4.3844  -17.0918 C   0  0  0  0  0  0  0  0  0  0  0  0
   19.3135   -4.4621  -16.9535 O   0  0  0  0  0  0  0  0  0  0  0  0
   14.8295   -6.0626  -14.7867 O   0  0  0  0  0  0  0  0  0  0  0  0
   16.6863   -0.5534  -20.9360 C   0  0  0  0  0  0  0  0  0  0  0  0
   17.5246   -1.5477  -20.1218 C   0  0  1  0  0  0  0  0  0  0  0  0
   18.9045   -1.6813  -20.7906 C   0  0  0  0  0  0  0  0  0  0  0  0
   17.6790   -1.0136  -18.7324 C   0  0  0  0  0  0  0  0  0  0  0  0
   18.4070   -1.9847  -17.8540 C   0  0  2  0  0  0  0  0  0  0  0  0
   17.5553   -3.1720  -17.6094 N   0  0  0  0  0  0  0  0  0  0  0  0
   18.6782   -1.3887  -16.5430 C   0  0  0  0  0  0  0  0  0  0  0  0
   19.5749   -0.3274  -16.3897 O   0  0  0  0  0  0  0  0  0  0  0  0
   18.1388   -1.7779  -15.4861 O   0  0  0  0  0  0  0  0  0  0  0  0
  2  1  1  0
  2 12  2  0
  3  2  1  0
  4  3  2  0
  4  5  1  0
  5 11  2  0
  6  7  1  0
  6  5  1  0
  7  8  1  6
  9  7  1  0
  9 10  2  0
 11 12  1  0
 13  9  1  0
 14 13  1  0
 14 18  1  0
 14 15  1  1
 16 15  1  0
 16 17  2  0
 18 19  2  0
 20 16  1  0
 22 21  1  6
 22 24  1  0
 22 23  1  0
 25 24  1  6
 25 27  1  0
 26 18  1  0
 26 25  1  0
 27 29  2  0
 27 28  1  0
M  END
$$$$
