YDL.pdb
     RDKit          3D

 29 29  0  0  1  0  0  0  0  0999 V2000
   25.6671  -32.9610   -5.2658 O   0  0  0  0  0  0  0  0  0  0  0  0
   25.7795  -32.8751   -3.8806 C   0  0  0  0  0  0  0  0  0  0  0  0
   26.9709  -33.2721   -3.2911 C   0  0  0  0  0  0  0  0  0  0  0  0
   27.1167  -33.2007   -1.9268 C   0  0  0  0  0  0  0  0  0  0  0  0
   26.0899  -32.7385   -1.1445 C   0  0  0  0  0  0  0  0  0  0  0  0
   26.2897  -32.6918    0.3212 C   0  0  0  0  0  0  0  0  0  0  0  0
   26.3582  -34.0561    0.9709 C   0  0  2  0  0  0  0  0  0  0  0  0
   25.1280  -34.7588    0.6301 N   0  0  0  0  0  0  0  0  0  0  0  0
   26.4892  -33.9054    2.4352 C   0  0  0  0  0  0  0  0  0  0  0  0
   25.4841  -33.5786    3.1109 O   0  0  0  0  0  0  0  0  0  0  0  0
   24.9156  -32.3483   -1.7341 C   0  0  0  0  0  0  0  0  0  0  0  0
   24.7548  -32.4140   -3.0984 C   0  0  0  0  0  0  0  0  0  0  0  0
   27.7100  -34.1108    3.1490 N   0  0  0  0  0  0  0  0  0  0  0  0
   27.7760  -34.0178    4.5964 C   0  0  1  0  0  0  0  0  0  0  0  0
   29.1355  -34.5995    4.9861 C   0  0  0  0  0  0  0  0  0  0  0  0
   29.2968  -34.7157    6.4473 C   0  0  0  0  0  0  0  0  0  0  0  0
   28.3885  -34.3797    7.2519 O   0  0  0  0  0  0  0  0  0  0  0  0
   27.7729  -32.6124    5.0575 C   0  0  0  0  0  0  0  0  0  0  0  0
   28.4836  -31.7621    4.4488 O   0  0  0  0  0  0  0  0  0  0  0  0
   30.4812  -35.2091    6.9599 O   0  0  0  0  0  0  0  0  0  0  0  0
   26.6418  -27.7790    6.0654 C   0  0  0  0  0  0  0  0  0  0  0  0
   25.6494  -28.6870    6.8035 C   0  0  1  0  0  0  0  0  0  0  0  0
   24.2314  -28.1242    6.5989 C   0  0  0  0  0  0  0  0  0  0  0  0
   25.7421  -30.0634    6.2234 C   0  0  0  0  0  0  0  0  0  0  0  0
   27.0374  -30.7216    6.5887 C   0  0  2  0  0  0  0  0  0  0  0  0
   27.0187  -32.1370    6.1516 N   0  0  0  0  0  0  0  0  0  0  0  0
   27.2140  -30.7368    8.0434 C   0  0  0  0  0  0  0  0  0  0  0  0
   27.0374  -31.9035    8.7929 O   0  0  0  0  0  0  0  0  0  0  0  0
   27.5288  -29.7277    8.7083 O   0  0  0  0  0  0  0  0  0  0  0  0
  2  1  1  0
  2 12  2  0
  3  2  1  0
  4  3  2  0
  4  5  1  0
  5 11  2  0
  6  7  1  0
  6  5  1  0
  7  8  1  1
  9  7  1  0
  9 10  2  0
 11 12  1  0
 13  9  1  0
 14 13  1  0
 14 18  1  0
 14 15  1  6
 16 15  1  0
 16 17  2  0
 18 19  2  0
 20 16  1  0
 22 21  1  6
 22 24  1  0
 22 23  1  0
 25 24  1  1
 25 27  1  0
 26 18  1  0
 26 25  1  0
 27 29  2  0
 27 28  1  0
M  END
$$$$
