YDL.pdb
     RDKit          3D

 29 29  0  0  1  0  0  0  0  0999 V2000
   28.8705  -25.4761  -17.2396 O   0  0  0  0  0  0  0  0  0  0  0  0
   27.8421  -24.8419  -16.5474 C   0  0  0  0  0  0  0  0  0  0  0  0
   28.0288  -23.5252  -16.1523 C   0  0  0  0  0  0  0  0  0  0  0  0
   27.0351  -22.8685  -15.4675 C   0  0  0  0  0  0  0  0  0  0  0  0
   25.8589  -23.5084  -15.1725 C   0  0  0  0  0  0  0  0  0  0  0  0
   24.8232  -22.7638  -14.4221 C   0  0  0  0  0  0  0  0  0  0  0  0
   23.7235  -22.2017  -15.2954 C   0  0  2  0  0  0  0  0  0  0  0  0
   24.3204  -21.1649  -16.1273 N   0  0  0  0  0  0  0  0  0  0  0  0
   22.6500  -21.6422  -14.4476 C   0  0  0  0  0  0  0  0  0  0  0  0
   22.7802  -20.4877  -13.9747 O   0  0  0  0  0  0  0  0  0  0  0  0
   25.6819  -24.8096  -15.5657 C   0  0  0  0  0  0  0  0  0  0  0  0
   26.6673  -25.4800  -16.2519 C   0  0  0  0  0  0  0  0  0  0  0  0
   21.4477  -22.3429  -14.1226 N   0  0  0  0  0  0  0  0  0  0  0  0
   20.3374  -21.6895  -13.4531 C   0  0  1  0  0  0  0  0  0  0  0  0
   19.7507  -20.7183  -14.4783 C   0  0  0  0  0  0  0  0  0  0  0  0
   18.6084  -19.9574  -13.9390 C   0  0  0  0  0  0  0  0  0  0  0  0
   18.5119  -19.6666  -12.7179 O   0  0  0  0  0  0  0  0  0  0  0  0
   19.2600  -22.6449  -13.1152 C   0  0  0  0  0  0  0  0  0  0  0  0
   18.7735  -23.3733  -14.0270 O   0  0  0  0  0  0  0  0  0  0  0  0
   17.6055  -19.5453  -14.7954 O   0  0  0  0  0  0  0  0  0  0  0  0
   18.8841  -25.1974   -8.2028 C   0  0  0  0  0  0  0  0  0  0  0  0
   18.8594  -24.9723   -9.7203 C   0  0  1  0  0  0  0  0  0  0  0  0
   18.7367  -26.3416  -10.4125 C   0  0  0  0  0  0  0  0  0  0  0  0
   17.6747  -24.1216  -10.0556 C   0  0  0  0  0  0  0  0  0  0  0  0
   17.6452  -23.7804  -11.5141 C   0  0  2  0  0  0  0  0  0  0  0  0
   18.7210  -22.8093  -11.8213 N   0  0  0  0  0  0  0  0  0  0  0  0
   16.3811  -23.1267  -11.8637 C   0  0  0  0  0  0  0  0  0  0  0  0
   15.3015  -23.8459  -12.3846 O   0  0  0  0  0  0  0  0  0  0  0  0
   16.1790  -21.9022  -11.7251 O   0  0  0  0  0  0  0  0  0  0  0  0
  2  1  1  0
  2 12  2  0
  3  2  1  0
  4  3  2  0
  4  5  1  0
  5 11  2  0
  6  7  1  0
  6  5  1  0
  7  8  1  6
  9  7  1  0
  9 10  2  0
 11 12  1  0
 13  9  1  0
 14 13  1  0
 14 18  1  0
 14 15  1  6
 16 15  1  0
 16 17  2  0
 18 19  2  0
 20 16  1  0
 22 21  1  1
 22 24  1  0
 22 23  1  0
 25 24  1  1
 25 27  1  0
 26 18  1  0
 26 25  1  0
 27 29  2  0
 27 28  1  0
M  END
$$$$
