YDL.pdb
     RDKit          3D

 29 29  0  0  1  0  0  0  0  0999 V2000
   22.8407  -13.7678  -19.7027 O   0  0  0  0  0  0  0  0  0  0  0  0
   22.4502  -14.8324  -18.8946 C   0  0  0  0  0  0  0  0  0  0  0  0
   21.9623  -15.9783  -19.5057 C   0  0  0  0  0  0  0  0  0  0  0  0
   21.5679  -17.0480  -18.7392 C   0  0  0  0  0  0  0  0  0  0  0  0
   21.6542  -16.9887  -17.3721 C   0  0  0  0  0  0  0  0  0  0  0  0
   21.2055  -18.1612  -16.5884 C   0  0  0  0  0  0  0  0  0  0  0  0
   22.3237  -18.8691  -15.8559 C   0  0  2  0  0  0  0  0  0  0  0  0
   23.2303  -19.4026  -16.8642 N   0  0  0  0  0  0  0  0  0  0  0  0
   21.7657  -19.9551  -15.0232 C   0  0  0  0  0  0  0  0  0  0  0  0
   21.3891  -21.0181  -15.5726 O   0  0  0  0  0  0  0  0  0  0  0  0
   22.1369  -15.8530  -16.7753 C   0  0  0  0  0  0  0  0  0  0  0  0
   22.5356  -14.7742  -17.5293 C   0  0  0  0  0  0  0  0  0  0  0  0
   21.6225  -19.8743  -13.6037 N   0  0  0  0  0  0  0  0  0  0  0  0
   21.1038  -20.9823  -12.8219 C   0  0  1  0  0  0  0  0  0  0  0  0
   21.5986  -20.7477  -11.3940 C   0  0  0  0  0  0  0  0  0  0  0  0
   23.0498  -20.9727  -11.2602 C   0  0  0  0  0  0  0  0  0  0  0  0
   23.7593  -21.3690  -12.2219 O   0  0  0  0  0  0  0  0  0  0  0  0
   19.6260  -20.9683  -12.7617 C   0  0  0  0  0  0  0  0  0  0  0  0
   19.0252  -19.8654  -12.6157 O   0  0  0  0  0  0  0  0  0  0  0  0
   23.6603  -20.7433  -10.0421 O   0  0  0  0  0  0  0  0  0  0  0  0
   17.3037  -21.1255  -15.5685 C   0  0  0  0  0  0  0  0  0  0  0  0
   16.2025  -22.0495  -15.0320 C   0  0  1  0  0  0  0  0  0  0  0  0
   15.7041  -22.9338  -16.1891 C   0  0  0  0  0  0  0  0  0  0  0  0
   16.7841  -22.9035  -13.9494 C   0  0  0  0  0  0  0  0  0  0  0  0
   17.3357  -22.0682  -12.8346 C   0  0  2  0  0  0  0  0  0  0  0  0
   18.8161  -22.1201  -12.8575 N   0  0  0  0  0  0  0  0  0  0  0  0
   16.9196  -22.6045  -11.5359 C   0  0  0  0  0  0  0  0  0  0  0  0
   15.7457  -22.1790  -10.9073 O   0  0  0  0  0  0  0  0  0  0  0  0
   17.5707  -23.4644  -10.9067 O   0  0  0  0  0  0  0  0  0  0  0  0
  2  1  1  0
  2 12  2  0
  3  2  1  0
  4  3  2  0
  4  5  1  0
  5 11  2  0
  6  7  1  0
  6  5  1  0
  7  8  1  6
  9  7  1  0
  9 10  2  0
 11 12  1  0
 13  9  1  0
 14 13  1  0
 14 18  1  0
 14 15  1  1
 16 15  1  0
 16 17  2  0
 18 19  2  0
 20 16  1  0
 22 21  1  6
 22 24  1  0
 22 23  1  0
 25 24  1  6
 25 27  1  0
 26 18  1  0
 26 25  1  0
 27 29  2  0
 27 28  1  0
M  END
$$$$
