YDL.pdb
     RDKit          3D

 29 29  0  0  1  0  0  0  0  0999 V2000
   29.9557  -11.2637  -16.2663 O   0  0  0  0  0  0  0  0  0  0  0  0
   28.7645  -10.5429  -16.2892 C   0  0  0  0  0  0  0  0  0  0  0  0
   27.7749  -10.8779  -15.3766 C   0  0  0  0  0  0  0  0  0  0  0  0
   26.5869  -10.1877  -15.3708 C   0  0  0  0  0  0  0  0  0  0  0  0
   26.3745   -9.1688  -16.2632 C   0  0  0  0  0  0  0  0  0  0  0  0
   25.0741   -8.4630  -16.2270 C   0  0  0  0  0  0  0  0  0  0  0  0
   23.9099   -9.3053  -16.6992 C   0  0  2  0  0  0  0  0  0  0  0  0
   24.2929   -9.8940  -17.9760 N   0  0  0  0  0  0  0  0  0  0  0  0
   22.7092   -8.4570  -16.8506 C   0  0  0  0  0  0  0  0  0  0  0  0
   22.5135   -7.8584  -17.9354 O   0  0  0  0  0  0  0  0  0  0  0  0
   27.3568   -8.8438  -17.1624 C   0  0  0  0  0  0  0  0  0  0  0  0
   28.5511   -9.5254  -17.1802 C   0  0  0  0  0  0  0  0  0  0  0  0
   21.7352   -8.2680  -15.8221 N   0  0  0  0  0  0  0  0  0  0  0  0
   20.5388   -7.4740  -16.0369 C   0  0  1  0  0  0  0  0  0  0  0  0
   19.5432   -7.9303  -14.9695 C   0  0  0  0  0  0  0  0  0  0  0  0
   18.9144   -9.2211  -15.3055 C   0  0  0  0  0  0  0  0  0  0  0  0
   18.8532   -9.6507  -16.4874 O   0  0  0  0  0  0  0  0  0  0  0  0
   20.7832   -6.0353  -15.7955 C   0  0  0  0  0  0  0  0  0  0  0  0
   21.5672   -5.6906  -14.8653 O   0  0  0  0  0  0  0  0  0  0  0  0
   18.3714   -9.9921  -14.2956 O   0  0  0  0  0  0  0  0  0  0  0  0
   22.5104   -1.3453  -16.2928 C   0  0  0  0  0  0  0  0  0  0  0  0
   21.4082   -1.5132  -17.3469 C   0  0  1  0  0  0  0  0  0  0  0  0
   21.9051   -0.9041  -18.6704 C   0  0  0  0  0  0  0  0  0  0  0  0
   21.1395   -2.9745  -17.5253 C   0  0  0  0  0  0  0  0  0  0  0  0
   20.4960   -3.5622  -16.3067 C   0  0  2  0  0  0  0  0  0  0  0  0
   20.1938   -4.9932  -16.5426 N   0  0  0  0  0  0  0  0  0  0  0  0
   19.2149   -2.9049  -16.0343 C   0  0  0  0  0  0  0  0  0  0  0  0
   19.1235   -1.7947  -15.1898 O   0  0  0  0  0  0  0  0  0  0  0  0
   18.1307   -3.2811  -16.5268 O   0  0  0  0  0  0  0  0  0  0  0  0
  2  1  1  0
  2 12  2  0
  3  2  1  0
  4  3  2  0
  4  5  1  0
  5 11  2  0
  6  7  1  0
  6  5  1  0
  7  8  1  6
  9  7  1  0
  9 10  2  0
 11 12  1  0
 13  9  1  0
 14 13  1  0
 14 18  1  0
 14 15  1  1
 16 15  1  0
 16 17  2  0
 18 19  2  0
 20 16  1  0
 22 21  1  1
 22 24  1  0
 22 23  1  0
 25 24  1  6
 25 27  1  0
 26 18  1  0
 26 25  1  0
 27 29  2  0
 27 28  1  0
M  END
$$$$
