YDL.pdb
     RDKit          3D

 29 29  0  0  1  0  0  0  0  0999 V2000
   33.8195  -23.1186  -11.3330 O   0  0  0  0  0  0  0  0  0  0  0  0
   32.7469  -22.3972  -11.8508 C   0  0  0  0  0  0  0  0  0  0  0  0
   31.7327  -22.0136  -10.9854 C   0  0  0  0  0  0  0  0  0  0  0  0
   30.6592  -21.3008  -11.4620 C   0  0  0  0  0  0  0  0  0  0  0  0
   30.5853  -20.9664  -12.7896 C   0  0  0  0  0  0  0  0  0  0  0  0
   29.4034  -20.2089  -13.2584 C   0  0  0  0  0  0  0  0  0  0  0  0
   28.2274  -21.0838  -13.6319 C   0  0  2  0  0  0  0  0  0  0  0  0
   28.6652  -21.9569  -14.7133 N   0  0  0  0  0  0  0  0  0  0  0  0
   27.0944  -20.2390  -14.0642 C   0  0  0  0  0  0  0  0  0  0  0  0
   26.6881  -19.3237  -13.3089 O   0  0  0  0  0  0  0  0  0  0  0  0
   31.5909  -21.3493  -13.6388 C   0  0  0  0  0  0  0  0  0  0  0  0
   32.6717  -22.0630  -13.1764 C   0  0  0  0  0  0  0  0  0  0  0  0
   26.4153  -20.3982  -15.3115 N   0  0  0  0  0  0  0  0  0  0  0  0
   25.1568  -19.7296  -15.5892 C   0  0  1  0  0  0  0  0  0  0  0  0
   24.9436  -19.8605  -17.0978 C   0  0  0  0  0  0  0  0  0  0  0  0
   25.9012  -19.0483  -17.8712 C   0  0  0  0  0  0  0  0  0  0  0  0
   26.0801  -17.8231  -17.6432 O   0  0  0  0  0  0  0  0  0  0  0  0
   24.0162  -20.4146  -14.9430 C   0  0  0  0  0  0  0  0  0  0  0  0
   23.9833  -21.6785  -14.9294 O   0  0  0  0  0  0  0  0  0  0  0  0
   26.6311  -19.6435  -18.8821 O   0  0  0  0  0  0  0  0  0  0  0  0
   23.4372  -20.6570   -9.5464 C   0  0  0  0  0  0  0  0  0  0  0  0
   22.4445  -20.7230  -10.7145 C   0  0  1  0  0  0  0  0  0  0  0  0
   21.1917  -19.9139  -10.3334 C   0  0  0  0  0  0  0  0  0  0  0  0
   23.0921  -20.1240  -11.9234 C   0  0  0  0  0  0  0  0  0  0  0  0
   22.2308  -20.2860  -13.1385 C   0  0  2  0  0  0  0  0  0  0  0  0
   22.9360  -19.7487  -14.3254 N   0  0  0  0  0  0  0  0  0  0  0  0
   20.9957  -19.5095  -13.0004 C   0  0  0  0  0  0  0  0  0  0  0  0
   19.8096  -20.0908  -12.5427 O   0  0  0  0  0  0  0  0  0  0  0  0
   20.9129  -18.2945  -13.2765 O   0  0  0  0  0  0  0  0  0  0  0  0
  2  1  1  0
  2 12  2  0
  3  2  1  0
  4  3  2  0
  4  5  1  0
  5 11  2  0
  6  7  1  0
  6  5  1  0
  7  8  1  6
  9  7  1  0
  9 10  2  0
 11 12  1  0
 13  9  1  0
 14 13  1  0
 14 18  1  0
 14 15  1  6
 16 15  1  0
 16 17  2  0
 18 19  2  0
 20 16  1  0
 22 21  1  1
 22 24  1  0
 22 23  1  0
 25 24  1  1
 25 27  1  0
 26 18  1  0
 26 25  1  0
 27 29  2  0
 27 28  1  0
M  END
$$$$
