YDL.pdb
     RDKit          3D

 29 29  0  0  1  0  0  0  0  0999 V2000
   19.7785  -21.1181  -14.1322 O   0  0  0  0  0  0  0  0  0  0  0  0
   20.0124  -19.8006  -14.5173 C   0  0  0  0  0  0  0  0  0  0  0  0
   21.3021  -19.4397  -14.8792 C   0  0  0  0  0  0  0  0  0  0  0  0
   21.5690  -18.1482  -15.2645 C   0  0  0  0  0  0  0  0  0  0  0  0
   20.5662  -17.2136  -15.2934 C   0  0  0  0  0  0  0  0  0  0  0  0
   20.9049  -15.8324  -15.7031 C   0  0  0  0  0  0  0  0  0  0  0  0
   20.4706  -15.4904  -17.1111 C   0  0  2  0  0  0  0  0  0  0  0  0
   21.2394  -16.3341  -18.0169 N   0  0  0  0  0  0  0  0  0  0  0  0
   20.7281  -14.0600  -17.3792 C   0  0  0  0  0  0  0  0  0  0  0  0
   21.8317  -13.7158  -17.8662 O   0  0  0  0  0  0  0  0  0  0  0  0
   19.2944  -17.5775  -14.9340 C   0  0  0  0  0  0  0  0  0  0  0  0
   19.0119  -18.8663  -14.5462 C   0  0  0  0  0  0  0  0  0  0  0  0
   19.7847  -13.0197  -17.1147 N   0  0  0  0  0  0  0  0  0  0  0  0
   20.0696  -11.6303  -17.4250 C   0  0  1  0  0  0  0  0  0  0  0  0
   18.7346  -10.8959  -17.2946 C   0  0  0  0  0  0  0  0  0  0  0  0
   18.8496   -9.4627  -17.6223 C   0  0  0  0  0  0  0  0  0  0  0  0
   19.6778   -9.0314  -18.4669 O   0  0  0  0  0  0  0  0  0  0  0  0
   20.9824  -11.0216  -16.4331 C   0  0  0  0  0  0  0  0  0  0  0  0
   20.7335  -11.1578  -15.2010 O   0  0  0  0  0  0  0  0  0  0  0  0
   18.0247   -8.5551  -16.9860 O   0  0  0  0  0  0  0  0  0  0  0  0
   26.0491  -10.8170  -14.2468 C   0  0  0  0  0  0  0  0  0  0  0  0
   25.4268   -9.6520  -15.0275 C   0  0  1  0  0  0  0  0  0  0  0  0
   26.5538   -8.8999  -15.7580 C   0  0  0  0  0  0  0  0  0  0  0  0
   24.4564  -10.2098  -16.0209 C   0  0  0  0  0  0  0  0  0  0  0  0
   23.0629   -9.7325  -15.7473 C   0  0  2  0  0  0  0  0  0  0  0  0
   22.1380  -10.2827  -16.7654 N   0  0  0  0  0  0  0  0  0  0  0  0
   22.9877   -8.2734  -15.8607 C   0  0  0  0  0  0  0  0  0  0  0  0
   23.1320   -7.4414  -14.7467 O   0  0  0  0  0  0  0  0  0  0  0  0
   22.7924   -7.6769  -16.9403 O   0  0  0  0  0  0  0  0  0  0  0  0
  2  1  1  0
  2 12  2  0
  3  2  1  0
  4  3  2  0
  4  5  1  0
  5 11  2  0
  6  7  1  0
  6  5  1  0
  7  8  1  6
  9  7  1  0
  9 10  2  0
 11 12  1  0
 13  9  1  0
 14 13  1  0
 14 18  1  0
 14 15  1  1
 16 15  1  0
 16 17  2  0
 18 19  2  0
 20 16  1  0
 22 21  1  6
 22 24  1  0
 22 23  1  0
 25 24  1  6
 25 27  1  0
 26 18  1  0
 26 25  1  0
 27 29  2  0
 27 28  1  0
M  END
$$$$
