YDL.pdb
     RDKit          3D

 29 29  0  0  1  0  0  0  0  0999 V2000
   16.6633  -17.8100  -13.1142 O   0  0  0  0  0  0  0  0  0  0  0  0
   17.8868  -18.4567  -12.9602 C   0  0  0  0  0  0  0  0  0  0  0  0
   19.0241  -17.6811  -12.7881 C   0  0  0  0  0  0  0  0  0  0  0  0
   20.2480  -18.2857  -12.6331 C   0  0  0  0  0  0  0  0  0  0  0  0
   20.3511  -19.6529  -12.6476 C   0  0  0  0  0  0  0  0  0  0  0  0
   21.6924  -20.2579  -12.4894 C   0  0  0  0  0  0  0  0  0  0  0  0
   22.4512  -20.4069  -13.7895 C   0  0  2  0  0  0  0  0  0  0  0  0
   21.6136  -21.1873  -14.6910 N   0  0  0  0  0  0  0  0  0  0  0  0
   23.7369  -21.0920  -13.5411 C   0  0  0  0  0  0  0  0  0  0  0  0
   24.1192  -21.9858  -14.3339 O   0  0  0  0  0  0  0  0  0  0  0  0
   19.2230  -20.4126  -12.8185 C   0  0  0  0  0  0  0  0  0  0  0  0
   17.9910  -19.8218  -12.9748 C   0  0  0  0  0  0  0  0  0  0  0  0
   24.5924  -20.7992  -12.4346 N   0  0  0  0  0  0  0  0  0  0  0  0
   25.9958  -21.1714  -12.4320 C   0  0  1  0  0  0  0  0  0  0  0  0
   26.6323  -20.3907  -13.5826 C   0  0  0  0  0  0  0  0  0  0  0  0
   28.0792  -20.6493  -13.7019 C   0  0  0  0  0  0  0  0  0  0  0  0
   28.6806  -21.4598  -12.9493 O   0  0  0  0  0  0  0  0  0  0  0  0
   26.6791  -20.7302  -11.1966 C   0  0  0  0  0  0  0  0  0  0  0  0
   27.1722  -19.5670  -11.1463 O   0  0  0  0  0  0  0  0  0  0  0  0
   28.8076  -19.9844  -14.6696 O   0  0  0  0  0  0  0  0  0  0  0  0
   28.3706  -18.5966   -6.8794 C   0  0  0  0  0  0  0  0  0  0  0  0
   27.9818  -19.9795   -7.4185 C   0  0  1  0  0  0  0  0  0  0  0  0
   27.6450  -20.8895   -6.2236 C   0  0  0  0  0  0  0  0  0  0  0  0
   26.7816  -19.8263   -8.2992 C   0  0  0  0  0  0  0  0  0  0  0  0
   26.2483  -21.1589   -8.7286 C   0  0  2  0  0  0  0  0  0  0  0  0
   26.8260  -21.5282  -10.0418 N   0  0  0  0  0  0  0  0  0  0  0  0
   24.7961  -21.0956   -8.9148 C   0  0  0  0  0  0  0  0  0  0  0  0
   24.2205  -20.3674   -9.9600 O   0  0  0  0  0  0  0  0  0  0  0  0
   23.9812  -21.6761   -8.1676 O   0  0  0  0  0  0  0  0  0  0  0  0
  2  1  1  0
  2 12  2  0
  3  2  1  0
  4  3  2  0
  4  5  1  0
  5 11  2  0
  6  7  1  0
  6  5  1  0
  7  8  1  6
  9  7  1  0
  9 10  2  0
 11 12  1  0
 13  9  1  0
 14 13  1  0
 14 18  1  0
 14 15  1  6
 16 15  1  0
 16 17  2  0
 18 19  2  0
 20 16  1  0
 22 21  1  1
 22 24  1  0
 22 23  1  0
 25 24  1  6
 25 27  1  0
 26 18  1  0
 26 25  1  0
 27 29  2  0
 27 28  1  0
M  END
$$$$
