YDL.pdb
     RDKit          3D

 29 29  0  0  1  0  0  0  0  0999 V2000
   14.7678  -17.2202  -17.2579 O   0  0  0  0  0  0  0  0  0  0  0  0
   15.6195  -16.1333  -17.0789 C   0  0  0  0  0  0  0  0  0  0  0  0
   15.5738  -15.1017  -18.0053 C   0  0  0  0  0  0  0  0  0  0  0  0
   16.4001  -14.0138  -17.8597 C   0  0  0  0  0  0  0  0  0  0  0  0
   17.2703  -13.9424  -16.8026 C   0  0  0  0  0  0  0  0  0  0  0  0
   18.1493  -12.7566  -16.6951 C   0  0  0  0  0  0  0  0  0  0  0  0
   19.2165  -12.6899  -17.7650 C   0  0  2  0  0  0  0  0  0  0  0  0
   20.1223  -13.8092  -17.5414 N   0  0  0  0  0  0  0  0  0  0  0  0
   19.9375  -11.4032  -17.6709 C   0  0  0  0  0  0  0  0  0  0  0  0
   20.9090  -11.3002  -16.8840 O   0  0  0  0  0  0  0  0  0  0  0  0
   17.3101  -14.9658  -15.8914 C   0  0  0  0  0  0  0  0  0  0  0  0
   16.4891  -16.0611  -16.0238 C   0  0  0  0  0  0  0  0  0  0  0  0
   19.5952  -10.2432  -18.4320 N   0  0  0  0  0  0  0  0  0  0  0  0
   20.3630   -9.0142  -18.3422 C   0  0  1  0  0  0  0  0  0  0  0  0
   19.8036   -8.0973  -19.4307 C   0  0  0  0  0  0  0  0  0  0  0  0
   20.5022   -6.7997  -19.4834 C   0  0  0  0  0  0  0  0  0  0  0  0
   19.9484   -5.7243  -19.1342 O   0  0  0  0  0  0  0  0  0  0  0  0
   20.1418   -8.3207  -17.0545 C   0  0  0  0  0  0  0  0  0  0  0  0
   18.9837   -8.3170  -16.5471 O   0  0  0  0  0  0  0  0  0  0  0  0
   21.8090   -6.7528  -19.9296 O   0  0  0  0  0  0  0  0  0  0  0  0
   22.2173   -5.7685  -12.6588 C   0  0  0  0  0  0  0  0  0  0  0  0
   21.7712   -7.2364  -12.6339 C   0  0  1  0  0  0  0  0  0  0  0  0
   20.3033   -7.2901  -12.1738 C   0  0  0  0  0  0  0  0  0  0  0  0
   21.8945   -7.7944  -14.0170 C   0  0  0  0  0  0  0  0  0  0  0  0
   20.9445   -7.1232  -14.9612 C   0  0  2  0  0  0  0  0  0  0  0  0
   21.1494   -7.6470  -16.3318 N   0  0  0  0  0  0  0  0  0  0  0  0
   21.2105   -5.6834  -15.0210 C   0  0  0  0  0  0  0  0  0  0  0  0
   20.5733   -4.7822  -14.1630 O   0  0  0  0  0  0  0  0  0  0  0  0
   22.0103   -5.1649  -15.8277 O   0  0  0  0  0  0  0  0  0  0  0  0
  2  1  1  0
  2 12  2  0
  3  2  1  0
  4  3  2  0
  4  5  1  0
  5 11  2  0
  6  7  1  0
  6  5  1  0
  7  8  1  1
  9  7  1  0
  9 10  2  0
 11 12  1  0
 13  9  1  0
 14 13  1  0
 14 18  1  0
 14 15  1  6
 16 15  1  0
 16 17  2  0
 18 19  2  0
 20 16  1  0
 22 21  1  6
 22 24  1  0
 22 23  1  0
 25 24  1  1
 25 27  1  0
 26 18  1  0
 26 25  1  0
 27 29  2  0
 27 28  1  0
M  END
$$$$
