YDL.pdb
     RDKit          3D

 29 29  0  0  1  0  0  0  0  0999 V2000
   32.4897  -18.5080  -19.2729 O   0  0  0  0  0  0  0  0  0  0  0  0
   31.2506  -18.4023  -18.6465 C   0  0  0  0  0  0  0  0  0  0  0  0
   30.8899  -17.1777  -18.1036 C   0  0  0  0  0  0  0  0  0  0  0  0
   29.6746  -17.0374  -17.4783 C   0  0  0  0  0  0  0  0  0  0  0  0
   28.8159  -18.1024  -17.3881 C   0  0  0  0  0  0  0  0  0  0  0  0
   27.5236  -17.9060  -16.6941 C   0  0  0  0  0  0  0  0  0  0  0  0
   26.3165  -18.1568  -17.5706 C   0  0  2  0  0  0  0  0  0  0  0  0
   26.2996  -17.1159  -18.5901 N   0  0  0  0  0  0  0  0  0  0  0  0
   25.0871  -18.1108  -16.7518 C   0  0  0  0  0  0  0  0  0  0  0  0
   24.5355  -17.0054  -16.5343 O   0  0  0  0  0  0  0  0  0  0  0  0
   29.1794  -19.3095  -17.9265 C   0  0  0  0  0  0  0  0  0  0  0  0
   30.3924  -19.4652  -18.5556 C   0  0  0  0  0  0  0  0  0  0  0  0
   24.4709  -19.2655  -16.1781 N   0  0  0  0  0  0  0  0  0  0  0  0
   23.2925  -19.1661  -15.3359 C   0  0  1  0  0  0  0  0  0  0  0  0
   22.1080  -19.5084  -16.2406 C   0  0  0  0  0  0  0  0  0  0  0  0
   20.8224  -19.4678  -15.5194 C   0  0  0  0  0  0  0  0  0  0  0  0
   20.4789  -18.4829  -14.8144 O   0  0  0  0  0  0  0  0  0  0  0  0
   23.3018  -20.1768  -14.2560 C   0  0  0  0  0  0  0  0  0  0  0  0
   23.2836  -21.4040  -14.5598 O   0  0  0  0  0  0  0  0  0  0  0  0
   19.9591  -20.5423  -15.6150 O   0  0  0  0  0  0  0  0  0  0  0  0
   25.9973  -21.2032  -11.6211 C   0  0  0  0  0  0  0  0  0  0  0  0
   25.1905  -21.1481  -10.3171 C   0  0  1  0  0  0  0  0  0  0  0  0
   26.0266  -20.4049   -9.2598 C   0  0  0  0  0  0  0  0  0  0  0  0
   23.9172  -20.4059  -10.5767 C   0  0  0  0  0  0  0  0  0  0  0  0
   23.2431  -20.9002  -11.8200 C   0  0  2  0  0  0  0  0  0  0  0  0
   23.3304  -19.8680  -12.8792 N   0  0  0  0  0  0  0  0  0  0  0  0
   21.8162  -21.1272  -11.5756 C   0  0  0  0  0  0  0  0  0  0  0  0
   21.3385  -22.3499  -11.0950 O   0  0  0  0  0  0  0  0  0  0  0  0
   20.9383  -20.2618  -11.7752 O   0  0  0  0  0  0  0  0  0  0  0  0
  2  1  1  0
  2 12  2  0
  3  2  1  0
  4  3  2  0
  4  5  1  0
  5 11  2  0
  6  7  1  0
  6  5  1  0
  7  8  1  6
  9  7  1  0
  9 10  2  0
 11 12  1  0
 13  9  1  0
 14 13  1  0
 14 18  1  0
 14 15  1  6
 16 15  1  0
 16 17  2  0
 18 19  2  0
 20 16  1  0
 22 21  1  6
 22 24  1  0
 22 23  1  0
 25 24  1  1
 25 27  1  0
 26 18  1  0
 26 25  1  0
 27 29  2  0
 27 28  1  0
M  END
$$$$
