YDL.pdb
     RDKit          3D

 29 29  0  0  1  0  0  0  0  0999 V2000
   23.0506  -36.1395  -14.4333 O   0  0  0  0  0  0  0  0  0  0  0  0
   24.0123  -35.1881  -14.7633 C   0  0  0  0  0  0  0  0  0  0  0  0
   24.3103  -34.2033  -13.8327 C   0  0  0  0  0  0  0  0  0  0  0  0
   25.2542  -33.2486  -14.1248 C   0  0  0  0  0  0  0  0  0  0  0  0
   25.9035  -33.2643  -15.3323 C   0  0  0  0  0  0  0  0  0  0  0  0
   26.9029  -32.2077  -15.6062 C   0  0  0  0  0  0  0  0  0  0  0  0
   28.3299  -32.7091  -15.6277 C   0  0  2  0  0  0  0  0  0  0  0  0
   28.7123  -32.9822  -14.2485 N   0  0  0  0  0  0  0  0  0  0  0  0
   29.2104  -31.6828  -16.2240 C   0  0  0  0  0  0  0  0  0  0  0  0
   30.1081  -31.1605  -15.5207 O   0  0  0  0  0  0  0  0  0  0  0  0
   25.6034  -34.2402  -16.2469 C   0  0  0  0  0  0  0  0  0  0  0  0
   24.6612  -35.2026  -15.9689 C   0  0  0  0  0  0  0  0  0  0  0  0
   29.1057  -31.2350  -17.5771 N   0  0  0  0  0  0  0  0  0  0  0  0
   30.0513  -30.2923  -18.1472 C   0  0  1  0  0  0  0  0  0  0  0  0
   31.4016  -31.0100  -18.1464 C   0  0  0  0  0  0  0  0  0  0  0  0
   32.5173  -30.1037  -17.8171 C   0  0  0  0  0  0  0  0  0  0  0  0
   32.3510  -28.8668  -17.6515 O   0  0  0  0  0  0  0  0  0  0  0  0
   29.7389  -29.9870  -19.5604 C   0  0  0  0  0  0  0  0  0  0  0  0
   29.5721  -30.9398  -20.3747 O   0  0  0  0  0  0  0  0  0  0  0  0
   33.7917  -30.6205  -17.6839 O   0  0  0  0  0  0  0  0  0  0  0  0
   28.8483  -26.3644  -23.6748 C   0  0  0  0  0  0  0  0  0  0  0  0
   27.7514  -27.2121  -23.0172 C   0  0  1  0  0  0  0  0  0  0  0  0
   27.6452  -28.5451  -23.7794 C   0  0  0  0  0  0  0  0  0  0  0  0
   28.1362  -27.4662  -21.5934 C   0  0  0  0  0  0  0  0  0  0  0  0
   29.2968  -28.4093  -21.5035 C   0  0  2  0  0  0  0  0  0  0  0  0
   29.6094  -28.6818  -20.0813 N   0  0  0  0  0  0  0  0  0  0  0  0
   30.4975  -27.8038  -22.0858 C   0  0  0  0  0  0  0  0  0  0  0  0
   31.2932  -26.9094  -21.3641 O   0  0  0  0  0  0  0  0  0  0  0  0
   30.8908  -28.0374  -23.2478 O   0  0  0  0  0  0  0  0  0  0  0  0
  2  1  1  0
  2 12  2  0
  3  2  1  0
  4  3  2  0
  4  5  1  0
  5 11  2  0
  6  7  1  0
  6  5  1  0
  7  8  1  1
  9  7  1  0
  9 10  2  0
 11 12  1  0
 13  9  1  0
 14 13  1  0
 14 18  1  0
 14 15  1  6
 16 15  1  0
 16 17  2  0
 18 19  2  0
 20 16  1  0
 22 21  1  6
 22 24  1  0
 22 23  1  0
 25 24  1  1
 25 27  1  0
 26 18  1  0
 26 25  1  0
 27 29  2  0
 27 28  1  0
M  END
$$$$
