YDL.pdb
     RDKit          3D

 29 29  0  0  1  0  0  0  0  0999 V2000
   18.6462  -18.4545  -15.2185 O   0  0  0  0  0  0  0  0  0  0  0  0
   18.8292  -17.1009  -15.4893 C   0  0  0  0  0  0  0  0  0  0  0  0
   17.9229  -16.1950  -14.9578 C   0  0  0  0  0  0  0  0  0  0  0  0
   18.0729  -14.8518  -15.2046 C   0  0  0  0  0  0  0  0  0  0  0  0
   19.1148  -14.4019  -15.9740 C   0  0  0  0  0  0  0  0  0  0  0  0
   19.2275  -12.9473  -16.2225 C   0  0  0  0  0  0  0  0  0  0  0  0
   18.2849  -12.4362  -17.2894 C   0  0  2  0  0  0  0  0  0  0  0  0
   18.7229  -13.0012  -18.5591 N   0  0  0  0  0  0  0  0  0  0  0  0
   18.3287  -10.9594  -17.3281 C   0  0  0  0  0  0  0  0  0  0  0  0
   19.2445  -10.3892  -17.9683 O   0  0  0  0  0  0  0  0  0  0  0  0
   20.0061  -15.3030  -16.4961 C   0  0  0  0  0  0  0  0  0  0  0  0
   19.8690  -16.6505  -16.2578 C   0  0  0  0  0  0  0  0  0  0  0  0
   17.3782  -10.1188  -16.6709 N   0  0  0  0  0  0  0  0  0  0  0  0
   17.3903   -8.6761  -16.8332 C   0  0  1  0  0  0  0  0  0  0  0  0
   15.9259   -8.2406  -16.7667 C   0  0  0  0  0  0  0  0  0  0  0  0
   15.1771   -8.6066  -17.9832 C   0  0  0  0  0  0  0  0  0  0  0  0
   15.7129   -8.6218  -19.1223 O   0  0  0  0  0  0  0  0  0  0  0  0
   18.0800   -8.0026  -15.7113 C   0  0  0  0  0  0  0  0  0  0  0  0
   17.7986   -8.3367  -14.5248 O   0  0  0  0  0  0  0  0  0  0  0  0
   13.8418   -8.9459  -17.8790 O   0  0  0  0  0  0  0  0  0  0  0  0
   22.3119   -5.8101  -13.2731 C   0  0  0  0  0  0  0  0  0  0  0  0
   21.5267   -4.7714  -14.0847 C   0  0  1  0  0  0  0  0  0  0  0  0
   22.5204   -3.7326  -14.6349 C   0  0  0  0  0  0  0  0  0  0  0  0
   20.8400   -5.4714  -15.2152 C   0  0  0  0  0  0  0  0  0  0  0  0
   19.7061   -6.3177  -14.7227 C   0  0  2  0  0  0  0  0  0  0  0  0
   19.0517   -6.9913  -15.8685 N   0  0  0  0  0  0  0  0  0  0  0  0
   18.6811   -5.4848  -14.0878 C   0  0  0  0  0  0  0  0  0  0  0  0
   18.4341   -5.5439  -12.7132 O   0  0  0  0  0  0  0  0  0  0  0  0
   17.9658   -4.6766  -14.7160 O   0  0  0  0  0  0  0  0  0  0  0  0
  2  1  1  0
  2 12  2  0
  3  2  1  0
  4  3  2  0
  4  5  1  0
  5 11  2  0
  6  7  1  0
  6  5  1  0
  7  8  1  6
  9  7  1  0
  9 10  2  0
 11 12  1  0
 13  9  1  0
 14 13  1  0
 14 18  1  0
 14 15  1  1
 16 15  1  0
 16 17  2  0
 18 19  2  0
 20 16  1  0
 22 21  1  6
 22 24  1  0
 22 23  1  0
 25 24  1  6
 25 27  1  0
 26 18  1  0
 26 25  1  0
 27 29  2  0
 27 28  1  0
M  END
$$$$
