PDE.pdb
     RDKit          3D

 25 25  0  0  1  0  0  0  0  0999 V2000
    9.0471  -14.4387   18.7207 N   0  0  0  0  0  0  0  0  0  0  0  0
    8.8707  -13.3231   17.8028 C   0  0  0  0  0  0  0  0  0  0  0  0
    7.5557  -12.7483   18.2817 C   0  0  0  0  0  0  0  0  0  0  0  0
    7.4509  -13.1302   19.7377 C   0  0  0  0  0  0  0  0  0  0  0  0
    8.7565  -13.8063   19.9958 C   0  0  1  0  0  0  0  0  0  0  0  0
    8.7126  -14.7830   21.1039 C   0  0  0  0  0  0  0  0  0  0  0  0
    8.3402  -14.3877   22.2375 O   0  0  0  0  0  0  0  0  0  0  0  0
    9.0690  -16.1270   20.9388 N   0  0  0  0  0  0  0  0  0  0  0  0
    8.9303  -17.1561   21.9863 C   0  0  1  0  0  0  0  0  0  0  0  0
    9.0672  -18.4649   21.2670 C   0  0  0  0  0  0  0  0  0  0  0  0
    9.0414  -19.6590   22.1071 C   0  0  0  0  0  0  0  0  0  0  0  0
    8.4277  -19.7682   23.1909 O   0  0  0  0  0  0  0  0  0  0  0  0
    9.9665  -16.8908   22.9928 C   0  0  0  0  0  0  0  0  0  0  0  0
   11.1742  -16.6746   22.6947 O   0  0  0  0  0  0  0  0  0  0  0  0
    9.7536  -20.7702   21.6767 O   0  0  0  0  0  0  0  0  0  0  0  0
    9.6187  -16.8731   24.3687 N   0  0  0  0  0  0  0  0  0  0  0  0
   10.5637  -16.5463   25.4399 C   0  0  1  0  0  0  0  0  0  0  0  0
    9.8487  -15.5985   26.3294 C   0  0  0  0  0  0  0  0  0  0  0  0
   10.5362  -15.2213   27.5800 C   0  0  0  0  0  0  0  0  0  0  0  0
    9.8002  -14.2262   28.3839 C   0  0  0  0  0  0  0  0  0  0  0  0
    8.6564  -13.7640   28.0679 O   0  0  0  0  0  0  0  0  0  0  0  0
   11.1777  -17.7304   25.9869 C   0  0  0  0  0  0  0  0  0  0  0  0
   10.5875  -18.8629   26.0069 O   0  0  0  0  0  0  0  0  0  0  0  0
   10.3795  -13.7611   29.5531 O   0  0  0  0  0  0  0  0  0  0  0  0
   12.4753  -17.6673   26.5270 O   0  0  0  0  0  0  0  0  0  0  0  0
  1  5  1  0
  2  1  1  0
  3  2  1  0
  4  3  1  0
  4  5  1  0
  5  6  1  1
  6  7  2  0
  8  6  1  0
  9  8  1  0
  9 13  1  0
  9 10  1  6
 11 12  2  0
 11 10  1  0
 13 14  2  0
 13 16  1  0
 15 11  1  0
 16 17  1  0
 17 22  1  0
 17 18  1  1
 19 18  1  0
 20 19  1  0
 20 21  2  0
 22 23  2  0
 22 25  1  0
 24 20  1  0
M  END
$$$$
