PDE.pdb
     RDKit          3D

 25 25  0  0  1  0  0  0  0  0999 V2000
    8.8582  -13.6905   18.6091 N   0  0  0  0  0  0  0  0  0  0  0  0
    8.0014  -12.5872   18.2006 C   0  0  0  0  0  0  0  0  0  0  0  0
    6.6468  -13.0730   18.6678 C   0  0  0  0  0  0  0  0  0  0  0  0
    6.9251  -14.0129   19.8150 C   0  0  0  0  0  0  0  0  0  0  0  0
    8.4062  -13.9118   19.9719 C   0  0  1  0  0  0  0  0  0  0  0  0
    9.0243  -15.1108   20.5752 C   0  0  0  0  0  0  0  0  0  0  0  0
    8.6119  -15.4980   21.6977 O   0  0  0  0  0  0  0  0  0  0  0  0
   10.0484  -15.8288   19.9456 N   0  0  0  0  0  0  0  0  0  0  0  0
   10.6740  -17.0424   20.5035 C   0  0  1  0  0  0  0  0  0  0  0  0
   11.3859  -17.6800   19.3478 C   0  0  0  0  0  0  0  0  0  0  0  0
   12.0269  -18.9627   19.6239 C   0  0  0  0  0  0  0  0  0  0  0  0
   12.8292  -19.1847   20.5568 O   0  0  0  0  0  0  0  0  0  0  0  0
   11.5437  -16.6126   21.6062 C   0  0  0  0  0  0  0  0  0  0  0  0
   12.2914  -15.5976   21.5357 O   0  0  0  0  0  0  0  0  0  0  0  0
   11.7282  -20.0301   18.7882 O   0  0  0  0  0  0  0  0  0  0  0  0
   11.5624  -17.3566   22.8147 N   0  0  0  0  0  0  0  0  0  0  0  0
   12.3046  -16.9446   24.0093 C   0  0  1  0  0  0  0  0  0  0  0  0
   11.6591  -17.6486   25.1444 C   0  0  0  0  0  0  0  0  0  0  0  0
   12.3192  -17.5242   26.4588 C   0  0  0  0  0  0  0  0  0  0  0  0
   11.6092  -18.2238   27.5471 C   0  0  0  0  0  0  0  0  0  0  0  0
   10.5198  -18.8637   27.3877 O   0  0  0  0  0  0  0  0  0  0  0  0
   13.7290  -17.0441   23.8108 C   0  0  0  0  0  0  0  0  0  0  0  0
   14.5422  -16.1438   24.2099 O   0  0  0  0  0  0  0  0  0  0  0  0
   12.1517  -18.1881   28.8212 O   0  0  0  0  0  0  0  0  0  0  0  0
   14.2738  -18.1636   23.1555 O   0  0  0  0  0  0  0  0  0  0  0  0
  1  5  1  0
  2  1  1  0
  3  2  1  0
  4  3  1  0
  4  5  1  0
  5  6  1  6
  6  7  2  0
  8  6  1  0
  9  8  1  0
  9 13  1  0
  9 10  1  6
 11 12  2  0
 11 10  1  0
 13 14  2  0
 13 16  1  0
 15 11  1  0
 16 17  1  0
 17 22  1  0
 17 18  1  1
 19 18  1  0
 20 19  1  0
 20 21  2  0
 22 23  2  0
 22 25  1  0
 24 20  1  0
M  END
$$$$
