PDE.pdb
     RDKit          3D

 25 25  0  0  1  0  0  0  0  0999 V2000
    9.1959  -14.3436   19.0382 N   0  0  0  0  0  0  0  0  0  0  0  0
    8.8918  -13.1782   18.2212 C   0  0  0  0  0  0  0  0  0  0  0  0
    7.4970  -12.8363   18.6972 C   0  0  0  0  0  0  0  0  0  0  0  0
    7.4059  -13.3688   20.1061 C   0  0  0  0  0  0  0  0  0  0  0  0
    8.7851  -13.8836   20.3535 C   0  0  1  0  0  0  0  0  0  0  0  0
    8.8465  -14.9604   21.3636 C   0  0  0  0  0  0  0  0  0  0  0  0
    8.3936  -14.7308   22.5135 O   0  0  0  0  0  0  0  0  0  0  0  0
    9.3883  -16.2220   21.0888 N   0  0  0  0  0  0  0  0  0  0  0  0
    9.5718  -17.2830   22.0968 C   0  0  1  0  0  0  0  0  0  0  0  0
    9.9636  -18.5005   21.3138 C   0  0  0  0  0  0  0  0  0  0  0  0
   10.2764  -19.6902   22.1007 C   0  0  0  0  0  0  0  0  0  0  0  0
    9.4355  -20.4592   22.6152 O   0  0  0  0  0  0  0  0  0  0  0  0
   10.5841  -16.8054   23.0478 C   0  0  0  0  0  0  0  0  0  0  0  0
   11.6601  -16.2530   22.6856 O   0  0  0  0  0  0  0  0  0  0  0  0
   11.6142  -20.0025   22.3002 O   0  0  0  0  0  0  0  0  0  0  0  0
   10.3656  -16.9624   24.4413 N   0  0  0  0  0  0  0  0  0  0  0  0
   11.3669  -16.6374   25.4608 C   0  0  1  0  0  0  0  0  0  0  0  0
   10.9988  -15.2934   25.9696 C   0  0  0  0  0  0  0  0  0  0  0  0
    9.9499  -15.2456   27.0071 C   0  0  0  0  0  0  0  0  0  0  0  0
    9.7574  -13.9051   27.5939 C   0  0  0  0  0  0  0  0  0  0  0  0
   10.4412  -12.8820   27.2663 O   0  0  0  0  0  0  0  0  0  0  0  0
   11.5645  -17.7307   26.3794 C   0  0  0  0  0  0  0  0  0  0  0  0
   10.7865  -18.7428   26.4196 O   0  0  0  0  0  0  0  0  0  0  0  0
    8.7776  -13.7399   28.5590 O   0  0  0  0  0  0  0  0  0  0  0  0
   12.6465  -17.7102   27.2786 O   0  0  0  0  0  0  0  0  0  0  0  0
  1  5  1  0
  2  1  1  0
  3  2  1  0
  4  3  1  0
  4  5  1  0
  5  6  1  1
  6  7  2  0
  8  6  1  0
  9  8  1  0
  9 13  1  0
  9 10  1  6
 11 12  2  0
 11 10  1  0
 13 14  2  0
 13 16  1  0
 15 11  1  0
 16 17  1  0
 17 22  1  0
 17 18  1  1
 19 18  1  0
 20 19  1  0
 20 21  2  0
 22 23  2  0
 22 25  1  0
 24 20  1  0
M  END
$$$$
