PDE.pdb
     RDKit          3D

 25 25  0  0  1  0  0  0  0  0999 V2000
    9.0498  -13.3956   19.6169 N   0  0  0  0  0  0  0  0  0  0  0  0
    8.3957  -12.2453   19.0111 C   0  0  0  0  0  0  0  0  0  0  0  0
    7.0792  -12.8480   18.5721 C   0  0  0  0  0  0  0  0  0  0  0  0
    6.8366  -14.0141   19.4985 C   0  0  0  0  0  0  0  0  0  0  0  0
    7.9831  -13.9229   20.4502 C   0  0  1  0  0  0  0  0  0  0  0  0
    8.3473  -15.2143   21.0692 C   0  0  0  0  0  0  0  0  0  0  0  0
    7.4668  -15.8419   21.7102 O   0  0  0  0  0  0  0  0  0  0  0  0
    9.6318  -15.7627   20.9690 N   0  0  0  0  0  0  0  0  0  0  0  0
   10.0062  -17.0956   21.4775 C   0  0  1  0  0  0  0  0  0  0  0  0
   11.2933  -17.4296   20.7842 C   0  0  0  0  0  0  0  0  0  0  0  0
   11.8655  -18.7360   21.0981 C   0  0  0  0  0  0  0  0  0  0  0  0
   11.2781  -19.6552   21.7091 O   0  0  0  0  0  0  0  0  0  0  0  0
   10.0990  -16.9901   22.9395 C   0  0  0  0  0  0  0  0  0  0  0  0
   10.7033  -16.0474   23.5231 O   0  0  0  0  0  0  0  0  0  0  0  0
   13.1678  -18.9887   20.6894 O   0  0  0  0  0  0  0  0  0  0  0  0
    9.4913  -17.9812   23.7535 N   0  0  0  0  0  0  0  0  0  0  0  0
    9.5914  -18.0032   25.2154 C   0  0  1  0  0  0  0  0  0  0  0  0
    8.4595  -18.8410   25.6817 C   0  0  0  0  0  0  0  0  0  0  0  0
    8.3572  -19.0598   27.1380 C   0  0  0  0  0  0  0  0  0  0  0  0
    7.2740  -19.9852   27.5235 C   0  0  0  0  0  0  0  0  0  0  0  0
    6.4790  -20.5329   26.6930 O   0  0  0  0  0  0  0  0  0  0  0  0
   10.9346  -18.2922   25.6520 C   0  0  0  0  0  0  0  0  0  0  0  0
   11.6952  -19.1126   25.0359 O   0  0  0  0  0  0  0  0  0  0  0  0
    7.1038  -20.2819   28.8658 O   0  0  0  0  0  0  0  0  0  0  0  0
   11.4552  -17.6623   26.7973 O   0  0  0  0  0  0  0  0  0  0  0  0
  1  5  1  0
  2  1  1  0
  3  2  1  0
  4  3  1  0
  4  5  1  0
  5  6  1  6
  6  7  2  0
  8  6  1  0
  9  8  1  0
  9 13  1  0
  9 10  1  6
 11 12  2  0
 11 10  1  0
 13 14  2  0
 13 16  1  0
 15 11  1  0
 16 17  1  0
 17 22  1  0
 17 18  1  6
 19 18  1  0
 20 19  1  0
 20 21  2  0
 22 23  2  0
 22 25  1  0
 24 20  1  0
M  END
$$$$
