PDE.pdb
     RDKit          3D

 25 25  0  0  1  0  0  0  0  0999 V2000
    7.4710  -15.9381   22.3069 N   0  0  0  0  0  0  0  0  0  0  0  0
    6.4466  -15.1406   21.6490 C   0  0  0  0  0  0  0  0  0  0  0  0
    7.2845  -14.0755   20.9763 C   0  0  0  0  0  0  0  0  0  0  0  0
    8.6398  -14.7017   20.7578 C   0  0  0  0  0  0  0  0  0  0  0  0
    8.4365  -16.1018   21.2339 C   0  0  1  0  0  0  0  0  0  0  0  0
    9.6762  -16.7595   21.6966 C   0  0  0  0  0  0  0  0  0  0  0  0
    9.8517  -17.9726   21.4183 O   0  0  0  0  0  0  0  0  0  0  0  0
   10.6590  -16.0842   22.4306 N   0  0  0  0  0  0  0  0  0  0  0  0
   11.8946  -16.7120   22.9353 C   0  0  1  0  0  0  0  0  0  0  0  0
   12.9922  -15.7551   22.5769 C   0  0  0  0  0  0  0  0  0  0  0  0
   14.3416  -16.1614   22.9596 C   0  0  0  0  0  0  0  0  0  0  0  0
   15.3230  -15.3951   23.0736 O   0  0  0  0  0  0  0  0  0  0  0  0
   11.7104  -16.9324   24.3757 C   0  0  0  0  0  0  0  0  0  0  0  0
   11.4295  -16.0024   25.1823 O   0  0  0  0  0  0  0  0  0  0  0  0
   14.5643  -17.5065   23.2206 O   0  0  0  0  0  0  0  0  0  0  0  0
   11.8508  -18.2405   24.9081 N   0  0  0  0  0  0  0  0  0  0  0  0
   11.6261  -18.5707   26.3180 C   0  0  1  0  0  0  0  0  0  0  0  0
   10.9384  -19.8851   26.3168 C   0  0  0  0  0  0  0  0  0  0  0  0
   10.5832  -20.4447   27.6358 C   0  0  0  0  0  0  0  0  0  0  0  0
    9.8621  -21.7301   27.5594 C   0  0  0  0  0  0  0  0  0  0  0  0
    9.4641  -22.3824   28.5781 O   0  0  0  0  0  0  0  0  0  0  0  0
   12.8179  -18.3772   27.1058 C   0  0  0  0  0  0  0  0  0  0  0  0
   13.9913  -18.4887   26.6141 O   0  0  0  0  0  0  0  0  0  0  0  0
    9.5981  -22.2674   26.3102 O   0  0  0  0  0  0  0  0  0  0  0  0
   12.7164  -18.0531   28.4711 O   0  0  0  0  0  0  0  0  0  0  0  0
  1  5  1  0
  2  1  1  0
  3  2  1  0
  4  3  1  0
  4  5  1  0
  5  6  1  1
  6  7  2  0
  8  6  1  0
  9  8  1  0
  9 13  1  0
  9 10  1  1
 11 12  2  0
 11 10  1  0
 13 14  2  0
 13 16  1  0
 15 11  1  0
 16 17  1  0
 17 22  1  0
 17 18  1  6
 19 18  1  0
 20 19  1  0
 20 21  2  0
 22 23  2  0
 22 25  1  0
 24 20  1  0
M  END
$$$$
