PDE.pdb
     RDKit          3D

 25 25  0  0  1  0  0  0  0  0999 V2000
    9.1950  -13.9368   19.5145 N   0  0  0  0  0  0  0  0  0  0  0  0
    8.6218  -12.8442   18.7426 C   0  0  0  0  0  0  0  0  0  0  0  0
    7.1606  -13.2351   18.7124 C   0  0  0  0  0  0  0  0  0  0  0  0
    6.9390  -14.0766   19.9452 C   0  0  0  0  0  0  0  0  0  0  0  0
    8.2652  -14.0166   20.6278 C   0  0  1  0  0  0  0  0  0  0  0  0
    8.5394  -15.1780   21.4994 C   0  0  0  0  0  0  0  0  0  0  0  0
    7.7134  -15.4568   22.4049 O   0  0  0  0  0  0  0  0  0  0  0  0
    9.6807  -15.9762   21.3549 N   0  0  0  0  0  0  0  0  0  0  0  0
   10.0554  -17.0623   22.2799 C   0  0  1  0  0  0  0  0  0  0  0  0
   11.0231  -17.9120   21.5114 C   0  0  0  0  0  0  0  0  0  0  0  0
   11.5855  -19.0493   22.2343 C   0  0  0  0  0  0  0  0  0  0  0  0
   11.0217  -19.6660   23.1643 O   0  0  0  0  0  0  0  0  0  0  0  0
   10.6068  -16.4316   23.4863 C   0  0  0  0  0  0  0  0  0  0  0  0
   11.3367  -15.4019   23.4505 O   0  0  0  0  0  0  0  0  0  0  0  0
   12.8496  -19.4901   21.8672 O   0  0  0  0  0  0  0  0  0  0  0  0
   10.3212  -16.9876   24.7605 N   0  0  0  0  0  0  0  0  0  0  0  0
   10.3447  -16.2155   26.0059 C   0  0  1  0  0  0  0  0  0  0  0  0
    9.3608  -15.1214   25.8173 C   0  0  0  0  0  0  0  0  0  0  0  0
    9.1742  -14.1991   26.9547 C   0  0  0  0  0  0  0  0  0  0  0  0
    8.2156  -13.1102   26.6835 C   0  0  0  0  0  0  0  0  0  0  0  0
    7.4064  -13.1053   25.7002 O   0  0  0  0  0  0  0  0  0  0  0  0
   10.2640  -17.0710   27.1634 C   0  0  0  0  0  0  0  0  0  0  0  0
   10.7240  -16.7275   28.3043 O   0  0  0  0  0  0  0  0  0  0  0  0
    8.1867  -12.0248   27.5437 O   0  0  0  0  0  0  0  0  0  0  0  0
    9.6617  -18.3385   27.0635 O   0  0  0  0  0  0  0  0  0  0  0  0
  1  5  1  0
  2  1  1  0
  3  2  1  0
  4  3  1  0
  4  5  1  0
  5  6  1  6
  6  7  2  0
  8  6  1  0
  9  8  1  0
  9 13  1  0
  9 10  1  6
 11 12  2  0
 11 10  1  0
 13 14  2  0
 13 16  1  0
 15 11  1  0
 16 17  1  0
 17 22  1  0
 17 18  1  6
 19 18  1  0
 20 19  1  0
 20 21  2  0
 22 23  2  0
 22 25  1  0
 24 20  1  0
M  END
$$$$
