PDE.pdb
     RDKit          3D

 25 25  0  0  1  0  0  0  0  0999 V2000
    8.5357  -14.0211   20.5952 N   0  0  0  0  0  0  0  0  0  0  0  0
    7.4235  -13.1270   20.8812 C   0  0  0  0  0  0  0  0  0  0  0  0
    7.7168  -11.9769   19.9430 C   0  0  0  0  0  0  0  0  0  0  0  0
    8.5160  -12.5705   18.8091 C   0  0  0  0  0  0  0  0  0  0  0  0
    8.5304  -14.0255   19.1425 C   0  0  1  0  0  0  0  0  0  0  0  0
    9.6892  -14.7530   18.5842 C   0  0  0  0  0  0  0  0  0  0  0  0
    9.7883  -14.8553   17.3353 O   0  0  0  0  0  0  0  0  0  0  0  0
   10.6771  -15.3303   19.3914 N   0  0  0  0  0  0  0  0  0  0  0  0
   11.9635  -15.8457   18.8865 C   0  0  1  0  0  0  0  0  0  0  0  0
   12.5541  -14.7145   18.0987 C   0  0  0  0  0  0  0  0  0  0  0  0
   13.9115  -14.9242   17.6028 C   0  0  0  0  0  0  0  0  0  0  0  0
   14.3987  -16.0272   17.2721 O   0  0  0  0  0  0  0  0  0  0  0  0
   12.7497  -16.2644   20.0543 C   0  0  0  0  0  0  0  0  0  0  0  0
   13.9414  -16.6728   19.9693 O   0  0  0  0  0  0  0  0  0  0  0  0
   14.7376  -13.8148   17.4852 O   0  0  0  0  0  0  0  0  0  0  0  0
   12.1643  -16.2180   21.3464 N   0  0  0  0  0  0  0  0  0  0  0  0
   12.8960  -16.5199   22.5796 C   0  0  1  0  0  0  0  0  0  0  0  0
   14.1878  -15.7994   22.4653 C   0  0  0  0  0  0  0  0  0  0  0  0
   15.0661  -15.8283   23.6513 C   0  0  0  0  0  0  0  0  0  0  0  0
   16.4795  -15.5296   23.3494 C   0  0  0  0  0  0  0  0  0  0  0  0
   16.8752  -14.4522   22.7977 O   0  0  0  0  0  0  0  0  0  0  0  0
   12.0681  -16.3421   23.7462 C   0  0  0  0  0  0  0  0  0  0  0  0
   12.4731  -16.6223   24.9246 O   0  0  0  0  0  0  0  0  0  0  0  0
   17.4402  -16.4705   23.6819 O   0  0  0  0  0  0  0  0  0  0  0  0
   10.7592  -15.8433   23.6134 O   0  0  0  0  0  0  0  0  0  0  0  0
  1  5  1  0
  2  1  1  0
  3  2  1  0
  4  3  1  0
  4  5  1  0
  5  6  1  6
  6  7  2  0
  8  6  1  0
  9  8  1  0
  9 13  1  0
  9 10  1  1
 11 12  2  0
 11 10  1  0
 13 14  2  0
 13 16  1  0
 15 11  1  0
 16 17  1  0
 17 22  1  0
 17 18  1  1
 19 18  1  0
 20 19  1  0
 20 21  2  0
 22 23  2  0
 22 25  1  0
 24 20  1  0
M  END
$$$$
