PDE.pdb
     RDKit          3D

 25 25  0  0  1  0  0  0  0  0999 V2000
    9.1422  -13.7245   19.4658 N   0  0  0  0  0  0  0  0  0  0  0  0
    8.5180  -12.6040   18.7780 C   0  0  0  0  0  0  0  0  0  0  0  0
    7.0516  -12.9507   18.9133 C   0  0  0  0  0  0  0  0  0  0  0  0
    6.9479  -13.8034   20.1538 C   0  0  0  0  0  0  0  0  0  0  0  0
    8.3454  -13.7931   20.6785 C   0  0  1  0  0  0  0  0  0  0  0  0
    8.6820  -14.9749   21.4992 C   0  0  0  0  0  0  0  0  0  0  0  0
    7.9400  -15.2603   22.4729 O   0  0  0  0  0  0  0  0  0  0  0  0
    9.7925  -15.7855   21.2339 N   0  0  0  0  0  0  0  0  0  0  0  0
   10.1492  -16.9847   22.0150 C   0  0  1  0  0  0  0  0  0  0  0  0
   11.1421  -17.7214   21.1662 C   0  0  0  0  0  0  0  0  0  0  0  0
   11.5972  -19.0067   21.6889 C   0  0  0  0  0  0  0  0  0  0  0  0
   11.0348  -19.6594   22.5949 O   0  0  0  0  0  0  0  0  0  0  0  0
   10.6646  -16.5199   23.3094 C   0  0  0  0  0  0  0  0  0  0  0  0
   11.4346  -15.5259   23.4252 O   0  0  0  0  0  0  0  0  0  0  0  0
   12.7478  -19.5583   21.1423 O   0  0  0  0  0  0  0  0  0  0  0  0
   10.2955  -17.2037   24.4971 N   0  0  0  0  0  0  0  0  0  0  0  0
   10.7480  -16.8094   25.8339 C   0  0  1  0  0  0  0  0  0  0  0  0
    9.5845  -16.1450   26.4707 C   0  0  0  0  0  0  0  0  0  0  0  0
    9.4242  -14.7013   26.2079 C   0  0  0  0  0  0  0  0  0  0  0  0
    9.3203  -13.8840   27.4323 C   0  0  0  0  0  0  0  0  0  0  0  0
    9.3406  -14.3655   28.6111 O   0  0  0  0  0  0  0  0  0  0  0  0
   11.4228  -17.8907   26.5073 C   0  0  0  0  0  0  0  0  0  0  0  0
   11.3754  -19.0963   26.0883 O   0  0  0  0  0  0  0  0  0  0  0  0
    9.1928  -12.5108   27.3023 O   0  0  0  0  0  0  0  0  0  0  0  0
   12.1693  -17.6397   27.6732 O   0  0  0  0  0  0  0  0  0  0  0  0
  1  5  1  0
  2  1  1  0
  3  2  1  0
  4  3  1  0
  4  5  1  0
  5  6  1  6
  6  7  2  0
  8  6  1  0
  9  8  1  0
  9 13  1  0
  9 10  1  6
 11 12  2  0
 11 10  1  0
 13 14  2  0
 13 16  1  0
 15 11  1  0
 16 17  1  0
 17 22  1  0
 17 18  1  1
 19 18  1  0
 20 19  1  0
 20 21  2  0
 22 23  2  0
 22 25  1  0
 24 20  1  0
M  END
$$$$
