PDE.pdb
     RDKit          3D

 25 25  0  0  1  0  0  0  0  0999 V2000
    8.4692  -14.5312   17.9977 N   0  0  0  0  0  0  0  0  0  0  0  0
    8.2080  -13.3829   17.1425 C   0  0  0  0  0  0  0  0  0  0  0  0
    7.4728  -12.4642   18.0936 C   0  0  0  0  0  0  0  0  0  0  0  0
    7.9440  -12.8471   19.4750 C   0  0  0  0  0  0  0  0  0  0  0  0
    8.9800  -13.8844   19.1939 C   0  0  1  0  0  0  0  0  0  0  0  0
    9.1799  -14.8417   20.3017 C   0  0  0  0  0  0  0  0  0  0  0  0
    9.6148  -14.4079   21.3984 O   0  0  0  0  0  0  0  0  0  0  0  0
    8.9042  -16.2088   20.1758 N   0  0  0  0  0  0  0  0  0  0  0  0
    8.9623  -17.1724   21.2909 C   0  0  1  0  0  0  0  0  0  0  0  0
    8.1447  -18.3444   20.8359 C   0  0  0  0  0  0  0  0  0  0  0  0
    8.1111  -19.4881   21.7431 C   0  0  0  0  0  0  0  0  0  0  0  0
    8.6101  -19.5175   22.8892 O   0  0  0  0  0  0  0  0  0  0  0  0
   10.3806  -17.4643   21.5365 C   0  0  0  0  0  0  0  0  0  0  0  0
   11.1015  -18.1041   20.7208 O   0  0  0  0  0  0  0  0  0  0  0  0
    7.4758  -20.6429   21.3076 O   0  0  0  0  0  0  0  0  0  0  0  0
   10.9898  -17.0186   22.7384 N   0  0  0  0  0  0  0  0  0  0  0  0
   12.3746  -17.3245   23.1077 C   0  0  1  0  0  0  0  0  0  0  0  0
   13.1901  -16.9921   21.9139 C   0  0  0  0  0  0  0  0  0  0  0  0
   13.4771  -15.5617   21.6889 C   0  0  0  0  0  0  0  0  0  0  0  0
   14.4366  -15.3148   20.5950 C   0  0  0  0  0  0  0  0  0  0  0  0
   14.0950  -15.0240   19.4032 O   0  0  0  0  0  0  0  0  0  0  0  0
   12.7159  -16.7725   24.3949 C   0  0  0  0  0  0  0  0  0  0  0  0
   13.8590  -16.9496   24.9365 O   0  0  0  0  0  0  0  0  0  0  0  0
   15.7913  -15.4023   20.8710 O   0  0  0  0  0  0  0  0  0  0  0  0
   11.7749  -16.0056   25.1060 O   0  0  0  0  0  0  0  0  0  0  0  0
  1  5  1  0
  2  1  1  0
  3  2  1  0
  4  3  1  0
  4  5  1  0
  5  6  1  1
  6  7  2  0
  8  6  1  0
  9  8  1  0
  9 13  1  0
  9 10  1  6
 11 12  2  0
 11 10  1  0
 13 14  2  0
 13 16  1  0
 15 11  1  0
 16 17  1  0
 17 22  1  0
 17 18  1  6
 19 18  1  0
 20 19  1  0
 20 21  2  0
 22 23  2  0
 22 25  1  0
 24 20  1  0
M  END
$$$$
