PDE.pdb
     RDKit          3D

 25 25  0  0  1  0  0  0  0  0999 V2000
    9.2426  -12.7377   18.6582 N   0  0  0  0  0  0  0  0  0  0  0  0
    7.8910  -12.1993   18.6191 C   0  0  0  0  0  0  0  0  0  0  0  0
    7.0886  -13.4334   18.2696 C   0  0  0  0  0  0  0  0  0  0  0  0
    7.8988  -14.6020   18.7745 C   0  0  0  0  0  0  0  0  0  0  0  0
    9.0481  -13.9362   19.4559 C   0  0  1  0  0  0  0  0  0  0  0  0
   10.2678  -14.7682   19.5163 C   0  0  0  0  0  0  0  0  0  0  0  0
   10.2029  -15.8875   20.0846 O   0  0  0  0  0  0  0  0  0  0  0  0
   11.4883  -14.3578   18.9663 N   0  0  0  0  0  0  0  0  0  0  0  0
   12.7277  -15.1563   19.0101 C   0  0  1  0  0  0  0  0  0  0  0  0
   13.5276  -14.6993   17.8268 C   0  0  0  0  0  0  0  0  0  0  0  0
   14.8461  -15.3085   17.6757 C   0  0  0  0  0  0  0  0  0  0  0  0
   15.1662  -16.4492   18.0750 O   0  0  0  0  0  0  0  0  0  0  0  0
   13.3551  -14.9095   20.3150 C   0  0  0  0  0  0  0  0  0  0  0  0
   13.7019  -13.7593   20.7037 O   0  0  0  0  0  0  0  0  0  0  0  0
   15.8328  -14.5690   17.0380 O   0  0  0  0  0  0  0  0  0  0  0  0
   13.5935  -15.9973   21.1949 N   0  0  0  0  0  0  0  0  0  0  0  0
   14.1268  -15.8416   22.5509 C   0  0  1  0  0  0  0  0  0  0  0  0
   13.2392  -16.6468   23.4252 C   0  0  0  0  0  0  0  0  0  0  0  0
   13.6069  -16.7166   24.8531 C   0  0  0  0  0  0  0  0  0  0  0  0
   12.6898  -17.5436   25.6614 C   0  0  0  0  0  0  0  0  0  0  0  0
   12.1528  -18.6210   25.2460 O   0  0  0  0  0  0  0  0  0  0  0  0
   15.5541  -16.0411   22.5870 C   0  0  0  0  0  0  0  0  0  0  0  0
   16.1797  -16.6903   21.6824 O   0  0  0  0  0  0  0  0  0  0  0  0
   12.3891  -17.1319   26.9494 O   0  0  0  0  0  0  0  0  0  0  0  0
   16.3139  -15.5128   23.6468 O   0  0  0  0  0  0  0  0  0  0  0  0
  1  5  1  0
  2  1  1  0
  3  2  1  0
  4  3  1  0
  4  5  1  0
  5  6  1  6
  6  7  2  0
  8  6  1  0
  9  8  1  0
  9 13  1  0
  9 10  1  6
 11 12  2  0
 11 10  1  0
 13 14  2  0
 13 16  1  0
 15 11  1  0
 16 17  1  0
 17 22  1  0
 17 18  1  1
 19 18  1  0
 20 19  1  0
 20 21  2  0
 22 23  2  0
 22 25  1  0
 24 20  1  0
M  END
$$$$
