PDE.pdb
     RDKit          3D

 25 25  0  0  1  0  0  0  0  0999 V2000
    9.0791  -14.3729   19.0846 N   0  0  0  0  0  0  0  0  0  0  0  0
    8.7141  -13.2533   18.2292 C   0  0  0  0  0  0  0  0  0  0  0  0
    7.3624  -12.8752   18.7938 C   0  0  0  0  0  0  0  0  0  0  0  0
    7.3820  -13.3267   20.2335 C   0  0  0  0  0  0  0  0  0  0  0  0
    8.7752  -13.8365   20.3999 C   0  0  1  0  0  0  0  0  0  0  0  0
    8.9137  -14.8550   21.4616 C   0  0  0  0  0  0  0  0  0  0  0  0
    8.4667  -14.5925   22.6068 O   0  0  0  0  0  0  0  0  0  0  0  0
    9.5220  -16.0966   21.2405 N   0  0  0  0  0  0  0  0  0  0  0  0
    9.6867  -17.1351   22.2748 C   0  0  1  0  0  0  0  0  0  0  0  0
    9.9981  -18.3921   21.5186 C   0  0  0  0  0  0  0  0  0  0  0  0
    8.9551  -18.8653   20.6127 C   0  0  0  0  0  0  0  0  0  0  0  0
    7.7691  -19.0978   20.9333 O   0  0  0  0  0  0  0  0  0  0  0  0
   10.7483  -16.6780   23.1811 C   0  0  0  0  0  0  0  0  0  0  0  0
   11.7800  -16.0709   22.7795 O   0  0  0  0  0  0  0  0  0  0  0  0
    9.2973  -19.0778   19.2843 O   0  0  0  0  0  0  0  0  0  0  0  0
   10.6319  -16.9195   24.5748 N   0  0  0  0  0  0  0  0  0  0  0  0
   11.6342  -16.4982   25.5574 C   0  0  1  0  0  0  0  0  0  0  0  0
   11.0727  -15.2896   26.2092 C   0  0  0  0  0  0  0  0  0  0  0  0
    9.9624  -15.5073   27.1571 C   0  0  0  0  0  0  0  0  0  0  0  0
    9.5083  -14.2753   27.8310 C   0  0  0  0  0  0  0  0  0  0  0  0
    9.9793  -13.8567   28.9376 O   0  0  0  0  0  0  0  0  0  0  0  0
   12.0927  -17.6061   26.3577 C   0  0  0  0  0  0  0  0  0  0  0  0
   11.5019  -18.7385   26.3651 O   0  0  0  0  0  0  0  0  0  0  0  0
    8.5111  -13.5229   27.2324 O   0  0  0  0  0  0  0  0  0  0  0  0
   13.2311  -17.4649   27.1723 O   0  0  0  0  0  0  0  0  0  0  0  0
  1  5  1  0
  2  1  1  0
  3  2  1  0
  4  3  1  0
  4  5  1  0
  5  6  1  1
  6  7  2  0
  8  6  1  0
  9  8  1  0
  9 13  1  0
  9 10  1  6
 11 12  2  0
 11 10  1  0
 13 14  2  0
 13 16  1  0
 15 11  1  0
 16 17  1  0
 17 22  1  0
 17 18  1  1
 19 18  1  0
 20 19  1  0
 20 21  2  0
 22 23  2  0
 22 25  1  0
 24 20  1  0
M  END
$$$$
