VRF.pdb
     RDKit          3D

 30 30  0  0  1  0  0  0  0  0999 V2000
   21.2995  -17.6879  -11.9198 C   0  0  0  0  0  0  0  0  0  0  0  0
   21.2890  -19.0380  -11.1920 C   0  0  1  0  0  0  0  0  0  0  0  0
   19.8620  -19.1903  -10.6635 C   0  0  0  0  0  0  0  0  0  0  0  0
   21.5242  -20.1008  -12.2212 C   0  0  2  0  0  0  0  0  0  0  0  0
   20.4581  -21.0539  -12.2862 N   0  0  0  0  0  0  0  0  0  0  0  0
   22.8001  -20.8127  -12.0016 C   0  0  0  0  0  0  0  0  0  0  0  0
   22.7908  -21.8979  -11.3648 O   0  0  0  0  0  0  0  0  0  0  0  0
   28.2402  -24.2831  -15.8215 N   0  0  0  0  0  0  0  0  0  0  0  0
   29.3218  -23.3025  -15.8644 C   0  0  0  0  0  0  0  0  0  0  0  0
   30.5209  -23.7025  -16.0143 N   0  0  0  0  0  0  0  0  0  0  0  0
   29.0502  -21.9332  -15.7404 N   0  0  0  0  0  0  0  0  0  0  0  0
   27.7919  -21.3497  -15.4511 C   0  0  0  0  0  0  0  0  0  0  0  0
   27.2097  -21.5235  -14.1087 C   0  0  0  0  0  0  0  0  0  0  0  0
   25.9782  -20.8473  -13.7097 C   0  0  0  0  0  0  0  0  0  0  0  0
   25.3034  -21.0591  -12.4215 C   0  0  2  0  0  0  0  0  0  0  0  0
   24.0032  -20.3022  -12.4867 N   0  0  0  0  0  0  0  0  0  0  0  0
   25.9379  -20.5687  -11.2011 C   0  0  0  0  0  0  0  0  0  0  0  0
   25.3817  -19.6047  -10.5396 O   0  0  0  0  0  0  0  0  0  0  0  0
   31.3157  -23.0734  -16.0707 N   0  0  0  0  0  0  0  0  0  0  0  0
   27.1324  -21.0352  -10.6061 C   0  0  1  0  0  0  0  0  0  0  0  0
   27.6948  -20.4457   -9.3842 C   0  0  0  0  0  0  0  0  0  0  0  0
   26.7031  -20.4210   -8.2790 C   0  0  0  0  0  0  0  0  0  0  0  0
   27.2656  -19.9868   -6.9818 C   0  0  0  0  0  0  0  0  0  0  0  0
   27.5108  -20.8693   -5.9457 C   0  0  0  0  0  0  0  0  0  0  0  0
   28.0365  -20.4812   -4.7296 C   0  0  0  0  0  0  0  0  0  0  0  0
   28.3251  -19.1569   -4.5505 C   0  0  0  0  0  0  0  0  0  0  0  0
   28.0884  -18.2707   -5.5649 C   0  0  0  0  0  0  0  0  0  0  0  0
   27.5672  -18.6565   -6.7711 C   0  0  0  0  0  0  0  0  0  0  0  0
   28.9543  -21.1231   -9.0185 O   0  0  0  0  0  0  0  0  0  0  0  0
   29.5563  -20.7965   -7.9894 O   0  0  0  0  0  0  0  0  0  0  0  0
  2  3  1  6
  2  1  1  0
  4  5  1  1
  4  2  1  0
  6  4  1  0
  7  6  2  0
  9  8  1  0
  9 11  1  0
 10  9  2  0
 11 12  1  0
 12 13  1  0
 13 14  1  0
 15 14  1  6
 15 17  1  0
 15 16  1  0
 16  6  1  0
 17 19  1  0
 18 17  2  0
 19 20  1  0
 20 28  1  0
 20 21  1  1
 22 21  1  0
 23 22  2  0
 24 23  1  0
 25 26  1  0
 25 24  2  0
 26 27  2  0
 27 22  1  0
 28 29  2  0
 28 30  1  0
M  END
$$$$
