VRF.pdb
     RDKit          3D

 30 30  0  0  1  0  0  0  0  0999 V2000
   25.3781  -16.6352  -14.4360 C   0  0  0  0  0  0  0  0  0  0  0  0
   26.8101  -16.9939  -14.8518 C   0  0  1  0  0  0  0  0  0  0  0  0
   27.6389  -16.8535  -13.5743 C   0  0  0  0  0  0  0  0  0  0  0  0
   26.8090  -18.4368  -15.2544 C   0  0  2  0  0  0  0  0  0  0  0  0
   26.2223  -18.6517  -16.5423 N   0  0  0  0  0  0  0  0  0  0  0  0
   26.1251  -19.2894  -14.2602 C   0  0  0  0  0  0  0  0  0  0  0  0
   24.8998  -19.1065  -14.0404 O   0  0  0  0  0  0  0  0  0  0  0  0
   25.0714  -24.9687  -16.4207 N   0  0  0  0  0  0  0  0  0  0  0  0
   23.9631  -25.3697  -15.5580 C   0  0  0  0  0  0  0  0  0  0  0  0
   23.4430  -26.5221  -15.7057 N   0  0  0  0  0  0  0  0  0  0  0  0
   23.4705  -24.4991  -14.5763 N   0  0  0  0  0  0  0  0  0  0  0  0
   24.2274  -23.5660  -13.8255 C   0  0  0  0  0  0  0  0  0  0  0  0
   25.6833  -23.4843  -14.0368 C   0  0  0  0  0  0  0  0  0  0  0  0
   26.5342  -22.6280  -13.2147 C   0  0  0  0  0  0  0  0  0  0  0  0
   26.1285  -21.3107  -12.7052 C   0  0  2  0  0  0  0  0  0  0  0  0
   26.8138  -20.2850  -13.5690 N   0  0  0  0  0  0  0  0  0  0  0  0
   26.5002  -20.9330  -11.3444 C   0  0  0  0  0  0  0  0  0  0  0  0
   27.6840  -20.4602  -11.1176 O   0  0  0  0  0  0  0  0  0  0  0  0
   22.6470  -26.8480  -15.1664 N   0  0  0  0  0  0  0  0  0  0  0  0
   25.6982  -21.0059  -10.1826 C   0  0  2  0  0  0  0  0  0  0  0  0
   26.2580  -20.9576   -8.8258 C   0  0  0  0  0  0  0  0  0  0  0  0
   27.1689  -19.7983   -8.6478 C   0  0  0  0  0  0  0  0  0  0  0  0
   27.6451  -19.6208   -7.2588 C   0  0  0  0  0  0  0  0  0  0  0  0
   28.5535  -20.4808   -6.6693 C   0  0  0  0  0  0  0  0  0  0  0  0
   29.0093  -20.3290   -5.3750 C   0  0  0  0  0  0  0  0  0  0  0  0
   28.5327  -19.2734   -4.6485 C   0  0  0  0  0  0  0  0  0  0  0  0
   27.6336  -18.4135   -5.2163 C   0  0  0  0  0  0  0  0  0  0  0  0
   27.1821  -18.5646   -6.5003 C   0  0  0  0  0  0  0  0  0  0  0  0
   25.1775  -21.0060   -7.8211 O   0  0  0  0  0  0  0  0  0  0  0  0
   25.3536  -21.5997   -6.7512 O   0  0  0  0  0  0  0  0  0  0  0  0
  2  3  1  1
  2  1  1  0
  4  5  1  6
  4  2  1  0
  6  4  1  0
  7  6  2  0
  9  8  1  0
  9 11  1  0
 10  9  2  0
 11 12  1  0
 12 13  1  0
 13 14  1  0
 15 14  1  6
 15 17  1  0
 15 16  1  0
 16  6  1  0
 17 19  1  0
 18 17  2  0
 19 20  1  0
 20 28  1  0
 20 21  1  1
 22 21  1  0
 23 22  2  0
 24 23  1  0
 25 26  1  0
 25 24  2  0
 26 27  2  0
 27 22  1  0
 28 29  2  0
 28 30  1  0
M  END
$$$$
