VRF.pdb
     RDKit          3D

 30 30  0  0  1  0  0  0  0  0999 V2000
   22.4841  -16.6071  -20.7940 C   0  0  0  0  0  0  0  0  0  0  0  0
   22.6394  -15.0869  -20.9251 C   0  0  1  0  0  0  0  0  0  0  0  0
   21.6273  -14.6776  -21.9961 C   0  0  0  0  0  0  0  0  0  0  0  0
   22.2147  -14.4816  -19.6223 C   0  0  2  0  0  0  0  0  0  0  0  0
   20.9202  -14.9251  -19.2018 N   0  0  0  0  0  0  0  0  0  0  0  0
   22.2324  -13.0048  -19.6651 C   0  0  0  0  0  0  0  0  0  0  0  0
   23.3095  -12.4159  -19.9413 O   0  0  0  0  0  0  0  0  0  0  0  0
   17.9639   -6.0671  -20.1797 N   0  0  0  0  0  0  0  0  0  0  0  0
   16.9011   -7.0677  -20.2311 C   0  0  0  0  0  0  0  0  0  0  0  0
   15.7986   -6.8378  -19.6378 N   0  0  0  0  0  0  0  0  0  0  0  0
   17.0867   -8.2723  -20.9231 N   0  0  0  0  0  0  0  0  0  0  0  0
   18.3064   -8.7522  -21.4609 C   0  0  0  0  0  0  0  0  0  0  0  0
   19.4269   -9.0487  -20.5511 C   0  0  0  0  0  0  0  0  0  0  0  0
   19.9368  -10.4058  -20.3737 C   0  0  0  0  0  0  0  0  0  0  0  0
   21.0412  -10.7583  -19.4705 C   0  0  2  0  0  0  0  0  0  0  0  0
   21.0814  -12.2623  -19.4058 N   0  0  0  0  0  0  0  0  0  0  0  0
   20.9707  -10.3453  -18.0716 C   0  0  0  0  0  0  0  0  0  0  0  0
   20.3267  -11.0821  -17.2238 O   0  0  0  0  0  0  0  0  0  0  0  0
   15.0189   -7.4880  -19.6382 N   0  0  0  0  0  0  0  0  0  0  0  0
   21.5497   -9.1975  -17.4840 C   0  0  2  0  0  0  0  0  0  0  0  0
   21.4079   -8.8770  -16.0578 C   0  0  0  0  0  0  0  0  0  0  0  0
   22.7207   -8.5902  -15.4256 C   0  0  0  0  0  0  0  0  0  0  0  0
   22.6242   -8.1848  -14.0064 C   0  0  0  0  0  0  0  0  0  0  0  0
   22.7274   -9.0904  -12.9665 C   0  0  0  0  0  0  0  0  0  0  0  0
   22.6410   -8.7289  -11.6368 C   0  0  0  0  0  0  0  0  0  0  0  0
   22.4432   -7.4081  -11.3444 C   0  0  0  0  0  0  0  0  0  0  0  0
   22.3386   -6.4994  -12.3610 C   0  0  0  0  0  0  0  0  0  0  0  0
   22.4247   -6.8587  -13.6797 C   0  0  0  0  0  0  0  0  0  0  0  0
   20.4241   -7.7926  -15.8692 O   0  0  0  0  0  0  0  0  0  0  0  0
   20.3297   -6.8900  -16.7085 O   0  0  0  0  0  0  0  0  0  0  0  0
  2  3  1  6
  2  1  1  0
  4  5  1  6
  4  2  1  0
  6  4  1  0
  7  6  2  0
  9  8  1  0
  9 11  1  0
 10  9  2  0
 11 12  1  0
 12 13  1  0
 13 14  1  0
 15 14  1  6
 15 17  1  0
 15 16  1  0
 16  6  1  0
 17 19  1  0
 18 17  2  0
 19 20  1  0
 20 28  1  0
 20 21  1  6
 22 21  1  0
 23 22  2  0
 24 23  1  0
 25 26  1  0
 25 24  2  0
 26 27  2  0
 27 22  1  0
 28 29  2  0
 28 30  1  0
M  END
$$$$
