VRF.pdb
     RDKit          3D

 30 30  0  0  1  0  0  0  0  0999 V2000
   23.6439  -20.8774  -19.7257 C   0  0  0  0  0  0  0  0  0  0  0  0
   24.9552  -20.1592  -19.3837 C   0  0  1  0  0  0  0  0  0  0  0  0
   24.5663  -19.0961  -18.3554 C   0  0  0  0  0  0  0  0  0  0  0  0
   25.8479  -21.1573  -18.7121 C   0  0  2  0  0  0  0  0  0  0  0  0
   26.0162  -22.3539  -19.4795 N   0  0  0  0  0  0  0  0  0  0  0  0
   25.3669  -21.5102  -17.3604 C   0  0  0  0  0  0  0  0  0  0  0  0
   24.5143  -22.4272  -17.2370 O   0  0  0  0  0  0  0  0  0  0  0  0
   26.1881  -20.0363   -9.3085 N   0  0  0  0  0  0  0  0  0  0  0  0
   24.9629  -20.8018   -9.5236 C   0  0  0  0  0  0  0  0  0  0  0  0
   24.2069  -21.0605   -8.5327 N   0  0  0  0  0  0  0  0  0  0  0  0
   24.6174  -21.2522  -10.8050 N   0  0  0  0  0  0  0  0  0  0  0  0
   25.5043  -21.7738  -11.7790 C   0  0  0  0  0  0  0  0  0  0  0  0
   26.4230  -20.8590  -12.4792 C   0  0  0  0  0  0  0  0  0  0  0  0
   26.4997  -20.8110  -13.9369 C   0  0  0  0  0  0  0  0  0  0  0  0
   25.3941  -21.1805  -14.8317 C   0  0  2  0  0  0  0  0  0  0  0  0
   25.8417  -20.8464  -16.2302 N   0  0  0  0  0  0  0  0  0  0  0  0
   24.1134  -20.4922  -14.6957 C   0  0  0  0  0  0  0  0  0  0  0  0
   23.9673  -19.3147  -15.2139 O   0  0  0  0  0  0  0  0  0  0  0  0
   23.3604  -21.6160   -8.6072 N   0  0  0  0  0  0  0  0  0  0  0  0
   22.9471  -20.9657  -14.0525 C   0  0  1  0  0  0  0  0  0  0  0  0
   21.7044  -20.1860  -13.9844 C   0  0  0  0  0  0  0  0  0  0  0  0
   21.0453  -20.0853  -15.3114 C   0  0  0  0  0  0  0  0  0  0  0  0
   21.4279  -18.8796  -16.0781 C   0  0  0  0  0  0  0  0  0  0  0  0
   22.7399  -18.5958  -16.4103 C   0  0  0  0  0  0  0  0  0  0  0  0
   23.1141  -17.4763  -17.1263 C   0  0  0  0  0  0  0  0  0  0  0  0
   22.1315  -16.6115  -17.5214 C   0  0  0  0  0  0  0  0  0  0  0  0
   20.8288  -16.8771  -17.2009 C   0  0  0  0  0  0  0  0  0  0  0  0
   20.4585  -17.9880  -16.4909 C   0  0  0  0  0  0  0  0  0  0  0  0
   20.8163  -20.7233  -12.9348 O   0  0  0  0  0  0  0  0  0  0  0  0
   19.7336  -20.1750  -12.7000 O   0  0  0  0  0  0  0  0  0  0  0  0
  2  3  1  1
  2  1  1  0
  4  5  1  6
  4  2  1  0
  6  4  1  0
  7  6  2  0
  9  8  1  0
  9 11  1  0
 10  9  2  0
 11 12  1  0
 12 13  1  0
 13 14  1  0
 15 14  1  1
 15 17  1  0
 15 16  1  0
 16  6  1  0
 17 19  1  0
 18 17  2  0
 19 20  1  0
 20 28  1  0
 20 21  1  6
 22 21  1  0
 23 22  2  0
 24 23  1  0
 25 26  1  0
 25 24  2  0
 26 27  2  0
 27 22  1  0
 28 29  2  0
 28 30  1  0
M  END
$$$$
