VRF.pdb
     RDKit          3D

 30 30  0  0  1  0  0  0  0  0999 V2000
   25.0016  -24.1456  -17.2872 C   0  0  0  0  0  0  0  0  0  0  0  0
   25.8425  -23.1155  -16.5230 C   0  0  1  0  0  0  0  0  0  0  0  0
   25.3381  -21.7558  -17.0085 C   0  0  0  0  0  0  0  0  0  0  0  0
   25.5016  -23.2512  -15.0706 C   0  0  2  0  0  0  0  0  0  0  0  0
   24.0911  -23.3259  -14.8378 N   0  0  0  0  0  0  0  0  0  0  0  0
   26.0702  -22.1527  -14.2626 C   0  0  0  0  0  0  0  0  0  0  0  0
   27.3052  -21.9219  -14.3308 O   0  0  0  0  0  0  0  0  0  0  0  0
   24.8515  -16.5718  -17.0632 N   0  0  0  0  0  0  0  0  0  0  0  0
   25.8955  -16.0786  -16.1688 C   0  0  0  0  0  0  0  0  0  0  0  0
   26.0284  -14.8243  -15.9968 N   0  0  0  0  0  0  0  0  0  0  0  0
   26.7477  -16.9712  -15.5044 N   0  0  0  0  0  0  0  0  0  0  0  0
   26.3545  -18.1107  -14.7599 C   0  0  0  0  0  0  0  0  0  0  0  0
   25.3638  -17.9580  -13.6800 C   0  0  0  0  0  0  0  0  0  0  0  0
   24.9561  -19.0839  -12.8438 C   0  0  0  0  0  0  0  0  0  0  0  0
   25.7984  -20.2582  -12.5771 C   0  0  2  0  0  0  0  0  0  0  0  0
   25.2630  -21.3755  -13.4332 N   0  0  0  0  0  0  0  0  0  0  0  0
   25.8198  -20.8227  -11.2305 C   0  0  0  0  0  0  0  0  0  0  0  0
   24.8336  -21.5637  -10.8370 O   0  0  0  0  0  0  0  0  0  0  0  0
   26.7580  -14.4144  -15.4221 N   0  0  0  0  0  0  0  0  0  0  0  0
   26.8282  -20.6725  -10.2514 C   0  0  2  0  0  0  0  0  0  0  0  0
   26.7381  -21.2804   -8.9176 C   0  0  0  0  0  0  0  0  0  0  0  0
   28.0766  -21.4384   -8.2939 C   0  0  0  0  0  0  0  0  0  0  0  0
   28.2707  -20.6156   -7.0803 C   0  0  0  0  0  0  0  0  0  0  0  0
   29.1745  -20.9541   -6.0899 C   0  0  0  0  0  0  0  0  0  0  0  0
   29.3691  -20.1970   -4.9520 C   0  0  0  0  0  0  0  0  0  0  0  0
   28.6264  -19.0584   -4.8062 C   0  0  0  0  0  0  0  0  0  0  0  0
   27.7278  -18.7092   -5.7762 C   0  0  0  0  0  0  0  0  0  0  0  0
   27.5356  -19.4606   -6.9048 C   0  0  0  0  0  0  0  0  0  0  0  0
   25.7894  -20.5290   -8.0724 O   0  0  0  0  0  0  0  0  0  0  0  0
   25.5836  -19.3295   -8.2892 O   0  0  0  0  0  0  0  0  0  0  0  0
  2  3  1  6
  2  1  1  0
  4  5  1  6
  4  2  1  0
  6  4  1  0
  7  6  2  0
  9  8  1  0
  9 11  1  0
 10  9  2  0
 11 12  1  0
 12 13  1  0
 13 14  1  0
 15 14  1  1
 15 17  1  0
 15 16  1  0
 16  6  1  0
 17 19  1  0
 18 17  2  0
 19 20  1  0
 20 28  1  0
 20 21  1  6
 22 21  1  0
 23 22  2  0
 24 23  1  0
 25 26  1  0
 25 24  2  0
 26 27  2  0
 27 22  1  0
 28 29  2  0
 28 30  1  0
M  END
$$$$
