VRF.pdb
     RDKit          3D

 30 30  0  0  1  0  0  0  0  0999 V2000
   18.4786  -18.9748  -16.0184 C   0  0  0  0  0  0  0  0  0  0  0  0
   19.9378  -18.5093  -15.9389 C   0  0  1  0  0  0  0  0  0  0  0  0
   20.3469  -18.2437  -17.3884 C   0  0  0  0  0  0  0  0  0  0  0  0
   19.9500  -17.2054  -15.2015 C   0  0  2  0  0  0  0  0  0  0  0  0
   19.4880  -17.3284  -13.8521 N   0  0  0  0  0  0  0  0  0  0  0  0
   19.1570  -16.1690  -15.8943 C   0  0  0  0  0  0  0  0  0  0  0  0
   19.5658  -15.7254  -16.9985 O   0  0  0  0  0  0  0  0  0  0  0  0
   12.1483  -12.0573  -16.8040 N   0  0  0  0  0  0  0  0  0  0  0  0
   12.2780  -12.7968  -18.0567 C   0  0  0  0  0  0  0  0  0  0  0  0
   11.2900  -12.8449  -18.8580 N   0  0  0  0  0  0  0  0  0  0  0  0
   13.4746  -13.4513  -18.3796 N   0  0  0  0  0  0  0  0  0  0  0  0
   14.6100  -13.5858  -17.5430 C   0  0  0  0  0  0  0  0  0  0  0  0
   14.6373  -14.6590  -16.5338 C   0  0  0  0  0  0  0  0  0  0  0  0
   15.7614  -14.8253  -15.6162 C   0  0  0  0  0  0  0  0  0  0  0  0
   17.1639  -14.5803  -15.9802 C   0  0  2  0  0  0  0  0  0  0  0  0
   17.9722  -15.6809  -15.3453 N   0  0  0  0  0  0  0  0  0  0  0  0
   17.8109  -13.3549  -15.5198 C   0  0  0  0  0  0  0  0  0  0  0  0
   18.0958  -13.2206  -14.2640 O   0  0  0  0  0  0  0  0  0  0  0  0
   11.2840  -13.4080  -19.7027 N   0  0  0  0  0  0  0  0  0  0  0  0
   18.1996  -12.2424  -16.3006 C   0  0  2  0  0  0  0  0  0  0  0  0
   18.9130  -11.0878  -15.7398 C   0  0  0  0  0  0  0  0  0  0  0  0
   20.1873  -10.8277  -16.4567 C   0  0  0  0  0  0  0  0  0  0  0  0
   20.0128  -10.5259  -17.8941 C   0  0  0  0  0  0  0  0  0  0  0  0
   19.8840  -11.5161  -18.8508 C   0  0  0  0  0  0  0  0  0  0  0  0
   19.7191  -11.2520  -20.1958 C   0  0  0  0  0  0  0  0  0  0  0  0
   19.6832   -9.9437  -20.5913 C   0  0  0  0  0  0  0  0  0  0  0  0
   19.8094   -8.9521  -19.6580 C   0  0  0  0  0  0  0  0  0  0  0  0
   19.9727   -9.2149  -18.3240 C   0  0  0  0  0  0  0  0  0  0  0  0
   18.0253   -9.9094  -15.6886 O   0  0  0  0  0  0  0  0  0  0  0  0
   16.9108   -9.9507  -16.2219 O   0  0  0  0  0  0  0  0  0  0  0  0
  2  3  1  6
  2  1  1  0
  4  5  1  1
  4  2  1  0
  6  4  1  0
  7  6  2  0
  9  8  1  0
  9 11  1  0
 10  9  2  0
 11 12  1  0
 12 13  1  0
 13 14  1  0
 15 14  1  1
 15 17  1  0
 15 16  1  0
 16  6  1  0
 17 19  1  0
 18 17  2  0
 19 20  1  0
 20 28  1  0
 20 21  1  6
 22 21  1  0
 23 22  2  0
 24 23  1  0
 25 26  1  0
 25 24  2  0
 26 27  2  0
 27 22  1  0
 28 29  2  0
 28 30  1  0
M  END
$$$$
