VRF.pdb
     RDKit          3D

 30 30  0  0  1  0  0  0  0  0999 V2000
   28.6347  -16.6472  -16.3308 C   0  0  0  0  0  0  0  0  0  0  0  0
   27.3254  -17.0634  -15.6491 C   0  0  1  0  0  0  0  0  0  0  0  0
   26.5023  -17.7328  -16.7506 C   0  0  0  0  0  0  0  0  0  0  0  0
   27.6671  -18.0999  -14.6230 C   0  0  2  0  0  0  0  0  0  0  0  0
   28.3286  -19.2382  -15.1851 N   0  0  0  0  0  0  0  0  0  0  0  0
   26.4769  -18.5508  -13.8725 C   0  0  0  0  0  0  0  0  0  0  0  0
   25.6461  -17.6936  -13.4749 O   0  0  0  0  0  0  0  0  0  0  0  0
   19.6228  -20.3265  -11.1025 N   0  0  0  0  0  0  0  0  0  0  0  0
   19.6938  -21.6920  -11.6159 C   0  0  0  0  0  0  0  0  0  0  0  0
   18.6758  -22.4498  -11.5160 N   0  0  0  0  0  0  0  0  0  0  0  0
   20.8682  -22.1711  -12.2121 N   0  0  0  0  0  0  0  0  0  0  0  0
   21.9844  -21.3947  -12.6108 C   0  0  0  0  0  0  0  0  0  0  0  0
   23.1849  -22.0736  -13.1293 C   0  0  0  0  0  0  0  0  0  0  0  0
   24.3513  -21.3278  -13.5944 C   0  0  0  0  0  0  0  0  0  0  0  0
   25.1238  -20.4013  -12.7550 C   0  0  2  0  0  0  0  0  0  0  0  0
   26.2644  -19.9018  -13.6020 N   0  0  0  0  0  0  0  0  0  0  0  0
   25.7736  -20.9113  -11.5509 C   0  0  0  0  0  0  0  0  0  0  0  0
   26.8560  -21.6132  -11.6624 O   0  0  0  0  0  0  0  0  0  0  0  0
   18.6481  -23.3972  -11.8798 N   0  0  0  0  0  0  0  0  0  0  0  0
   25.3678  -20.7237  -10.2099 C   0  0  2  0  0  0  0  0  0  0  0  0
   26.0411  -21.3724   -9.0773 C   0  0  0  0  0  0  0  0  0  0  0  0
   27.4132  -20.8412   -8.8759 C   0  0  0  0  0  0  0  0  0  0  0  0
   27.5854  -20.0972   -7.6092 C   0  0  0  0  0  0  0  0  0  0  0  0
   26.9974  -18.8658   -7.3850 C   0  0  0  0  0  0  0  0  0  0  0  0
   27.1465  -18.1588   -6.2086 C   0  0  0  0  0  0  0  0  0  0  0  0
   27.9158  -18.7118   -5.2229 C   0  0  0  0  0  0  0  0  0  0  0  0
   28.5048  -19.9289   -5.4284 C   0  0  0  0  0  0  0  0  0  0  0  0
   28.3561  -20.6296   -6.5955 C   0  0  0  0  0  0  0  0  0  0  0  0
   25.2033  -21.2900   -7.8646 O   0  0  0  0  0  0  0  0  0  0  0  0
   25.5765  -21.8295   -6.8170 O   0  0  0  0  0  0  0  0  0  0  0  0
  2  3  1  6
  2  1  1  0
  4  5  1  6
  4  2  1  0
  6  4  1  0
  7  6  2  0
  9  8  1  0
  9 11  1  0
 10  9  2  0
 11 12  1  0
 12 13  1  0
 13 14  1  0
 15 14  1  6
 15 17  1  0
 15 16  1  0
 16  6  1  0
 17 19  1  0
 18 17  2  0
 19 20  1  0
 20 28  1  0
 20 21  1  1
 22 21  1  0
 23 22  2  0
 24 23  1  0
 25 26  1  0
 25 24  2  0
 26 27  2  0
 27 22  1  0
 28 29  2  0
 28 30  1  0
M  END
$$$$
