PRG.pdb
     RDKit          3D

 23 23  0  0  1  0  0  0  0  0999 V2000
    8.4701  -14.6179   18.9211 N   0  0  0  0  0  0  0  0  0  0  0  0
    8.1329  -13.8155   17.7793 C   0  0  0  0  0  0  0  0  0  0  0  0
    7.6150  -12.4860   18.2717 C   0  0  0  0  0  0  0  0  0  0  0  0
    7.3320  -12.8061   19.7457 C   0  0  0  0  0  0  0  0  0  0  0  0
    8.5355  -13.7179   20.0265 C   0  0  1  0  0  0  0  0  0  0  0  0
    8.4210  -14.3690   21.3367 C   0  0  0  0  0  0  0  0  0  0  0  0
    8.3106  -13.6507   22.3624 O   0  0  0  0  0  0  0  0  0  0  0  0
    3.3163  -19.8093   23.0742 N   0  0  0  0  0  0  0  0  0  0  0  0
    3.3605  -19.2618   21.7436 C   0  0  0  0  0  0  0  0  0  0  0  0
    2.2896  -18.8253   21.1751 N   0  0  0  0  0  0  0  0  0  0  0  0
    4.5947  -19.1968   21.0355 N   0  0  0  0  0  0  0  0  0  0  0  0
    5.8847  -19.1816   21.6896 C   0  0  0  0  0  0  0  0  0  0  0  0
    6.3232  -17.7560   21.9558 C   0  0  0  0  0  0  0  0  0  0  0  0
    7.6882  -17.8118   22.5837 C   0  0  0  0  0  0  0  0  0  0  0  0
    8.3333  -16.4647   22.7464 C   0  0  2  0  0  0  0  0  0  0  0  0
    8.4317  -15.7582   21.4745 N   0  0  0  0  0  0  0  0  0  0  0  0
    9.6323  -16.5163   23.4427 C   0  0  0  0  0  0  0  0  0  0  0  0
   10.7298  -16.5908   22.8358 O   0  0  0  0  0  0  0  0  0  0  0  0
    2.2756  -18.4722   20.2010 N   0  0  0  0  0  0  0  0  0  0  0  0
    9.6975  -16.4826   24.8679 C   0  0  0  0  0  0  0  0  0  0  0  0
   10.9194  -16.4140   25.6024 C   0  0  0  0  0  0  0  0  0  0  0  0
   11.4925  -17.7658   25.8777 O   0  0  0  0  0  0  0  0  0  0  0  0
   12.5591  -18.1697   25.0981 O   0  0  0  0  0  0  0  0  0  0  0  0
  2  1  1  0
  2  3  1  0
  4  3  1  0
  5  4  1  0
  5  6  1  1
  5  1  1  0
  6  7  2  0
  8  9  1  0
  9 11  1  0
 10  9  2  0
 11 12  1  0
 12 13  1  0
 14 13  1  0
 15 14  1  6
 15 17  1  0
 16  6  1  0
 16 15  1  0
 17 19  1  0
 17 18  2  0
 19 20  1  0
 21 22  1  0
 21 20  1  0
 23 21  2  0
M  END
$$$$
