PRG.pdb
     RDKit          3D

 23 23  0  0  1  0  0  0  0  0999 V2000
    8.5317  -15.2392   17.8725 N   0  0  0  0  0  0  0  0  0  0  0  0
    7.3903  -14.9323   17.0575 C   0  0  0  0  0  0  0  0  0  0  0  0
    7.3392  -13.4369   16.8588 C   0  0  0  0  0  0  0  0  0  0  0  0
    8.3000  -12.9595   17.9562 C   0  0  0  0  0  0  0  0  0  0  0  0
    9.3530  -14.0725   17.8512 C   0  0  1  0  0  0  0  0  0  0  0  0
   10.3207  -14.0009   18.9521 C   0  0  0  0  0  0  0  0  0  0  0  0
   11.1587  -13.0640   18.9620 O   0  0  0  0  0  0  0  0  0  0  0  0
   10.0278  -15.9036   27.3312 N   0  0  0  0  0  0  0  0  0  0  0  0
   11.4386  -15.7881   27.0694 C   0  0  0  0  0  0  0  0  0  0  0  0
   12.2755  -15.6156   28.0340 N   0  0  0  0  0  0  0  0  0  0  0  0
   11.9286  -15.8624   25.7340 N   0  0  0  0  0  0  0  0  0  0  0  0
   11.0779  -15.7508   24.5695 C   0  0  0  0  0  0  0  0  0  0  0  0
   11.8883  -15.9487   23.3048 C   0  0  0  0  0  0  0  0  0  0  0  0
   10.9309  -15.9284   22.1456 C   0  0  0  0  0  0  0  0  0  0  0  0
   11.3362  -14.9900   21.0444 C   0  0  2  0  0  0  0  0  0  0  0  0
   10.3362  -14.9410   19.9841 N   0  0  0  0  0  0  0  0  0  0  0  0
   12.6840  -15.2596   20.5100 C   0  0  0  0  0  0  0  0  0  0  0  0
   12.9624  -16.2906   19.8483 O   0  0  0  0  0  0  0  0  0  0  0  0
   13.2966  -15.5273   27.8816 N   0  0  0  0  0  0  0  0  0  0  0  0
   13.7522  -14.3387   20.7274 C   0  0  0  0  0  0  0  0  0  0  0  0
   15.0360  -14.4575   20.1150 C   0  0  0  0  0  0  0  0  0  0  0  0
   16.0586  -15.0224   21.0460 O   0  0  0  0  0  0  0  0  0  0  0  0
   15.6104  -15.4939   22.2647 O   0  0  0  0  0  0  0  0  0  0  0  0
  2  1  1  0
  2  3  1  0
  4  3  1  0
  5  4  1  0
  5  6  1  1
  5  1  1  0
  6  7  2  0
  8  9  1  0
  9 11  1  0
 10  9  2  0
 11 12  1  0
 12 13  1  0
 14 13  1  0
 15 14  1  1
 15 17  1  0
 16  6  1  0
 16 15  1  0
 17 19  1  0
 17 18  2  0
 19 20  1  0
 21 22  1  0
 21 20  1  0
 23 21  2  0
M  END
$$$$
