PRG.pdb
     RDKit          3D

 23 23  0  0  1  0  0  0  0  0999 V2000
    7.2235  -15.3297   19.8291 N   0  0  0  0  0  0  0  0  0  0  0  0
    6.2603  -14.9152   18.8485 C   0  0  0  0  0  0  0  0  0  0  0  0
    6.5638  -13.4885   18.4606 C   0  0  0  0  0  0  0  0  0  0  0  0
    7.5012  -13.0651   19.5996 C   0  0  0  0  0  0  0  0  0  0  0  0
    8.2835  -14.3765   19.7637 C   0  0  1  0  0  0  0  0  0  0  0  0
    9.1365  -14.3464   20.9575 C   0  0  0  0  0  0  0  0  0  0  0  0
   10.1297  -13.5760   20.9729 O   0  0  0  0  0  0  0  0  0  0  0  0
   10.2611  -16.4019   28.5973 N   0  0  0  0  0  0  0  0  0  0  0  0
   10.0537  -15.0227   28.9535 C   0  0  0  0  0  0  0  0  0  0  0  0
   10.5411  -14.5442   30.0463 N   0  0  0  0  0  0  0  0  0  0  0  0
    9.3025  -14.1662   28.0985 N   0  0  0  0  0  0  0  0  0  0  0  0
    8.6395  -14.6268   26.8983 C   0  0  0  0  0  0  0  0  0  0  0  0
    9.6183  -14.6780   25.7430 C   0  0  0  0  0  0  0  0  0  0  0  0
    8.8542  -15.1057   24.5207 C   0  0  0  0  0  0  0  0  0  0  0  0
    9.6952  -15.1780   23.2778 C   0  0  2  0  0  0  0  0  0  0  0  0
    8.8764  -15.1466   22.0715 N   0  0  0  0  0  0  0  0  0  0  0  0
   10.6338  -16.3155   23.2695 C   0  0  0  0  0  0  0  0  0  0  0  0
   10.2598  -17.5100   23.3780 O   0  0  0  0  0  0  0  0  0  0  0  0
   10.3768  -13.5684   30.3539 N   0  0  0  0  0  0  0  0  0  0  0  0
   12.0381  -16.1011   23.1344 C   0  0  0  0  0  0  0  0  0  0  0  0
   13.0056  -16.5874   24.0643 C   0  0  0  0  0  0  0  0  0  0  0  0
   13.6512  -17.8527   23.6019 O   0  0  0  0  0  0  0  0  0  0  0  0
   13.1010  -19.0401   24.0444 O   0  0  0  0  0  0  0  0  0  0  0  0
  2  1  1  0
  2  3  1  0
  4  3  1  0
  5  4  1  0
  5  6  1  1
  5  1  1  0
  6  7  2  0
  8  9  1  0
  9 11  1  0
 10  9  2  0
 11 12  1  0
 12 13  1  0
 14 13  1  0
 15 14  1  1
 15 17  1  0
 16  6  1  0
 16 15  1  0
 17 19  1  0
 17 18  2  0
 19 20  1  0
 21 22  1  0
 21 20  1  0
 23 21  2  0
M  END
$$$$
