PRG.pdb
     RDKit          3D

 23 23  0  0  1  0  0  0  0  0999 V2000
    7.7661  -14.5227   18.5590 N   0  0  0  0  0  0  0  0  0  0  0  0
    7.1769  -13.2221   18.4084 C   0  0  0  0  0  0  0  0  0  0  0  0
    7.7096  -12.3315   19.5044 C   0  0  0  0  0  0  0  0  0  0  0  0
    8.3035  -13.3693   20.4666 C   0  0  0  0  0  0  0  0  0  0  0  0
    8.8800  -14.3488   19.4337 C   0  0  1  0  0  0  0  0  0  0  0  0
    9.3417  -15.5883   20.0694 C   0  0  0  0  0  0  0  0  0  0  0  0
    8.4868  -16.4044   20.4974 O   0  0  0  0  0  0  0  0  0  0  0  0
   10.6405  -17.8162   15.9658 N   0  0  0  0  0  0  0  0  0  0  0  0
   10.3421  -19.2236   16.0157 C   0  0  0  0  0  0  0  0  0  0  0  0
    9.5654  -19.7636   15.1407 N   0  0  0  0  0  0  0  0  0  0  0  0
   10.9039  -20.0400   17.0388 N   0  0  0  0  0  0  0  0  0  0  0  0
   11.7321  -19.5189   18.1042 C   0  0  0  0  0  0  0  0  0  0  0  0
   10.9473  -18.5349   18.9475 C   0  0  0  0  0  0  0  0  0  0  0  0
   11.8651  -18.0305   20.0264 C   0  0  0  0  0  0  0  0  0  0  0  0
   11.2236  -17.0299   20.9455 C   0  0  2  0  0  0  0  0  0  0  0  0
   10.6986  -15.8844   20.2115 N   0  0  0  0  0  0  0  0  0  0  0  0
   12.0966  -16.6106   22.0577 C   0  0  0  0  0  0  0  0  0  0  0  0
   12.9904  -15.7367   21.9320 O   0  0  0  0  0  0  0  0  0  0  0  0
    9.3708  -20.7811   15.1152 N   0  0  0  0  0  0  0  0  0  0  0  0
   11.9583  -17.1936   23.3529 C   0  0  0  0  0  0  0  0  0  0  0  0
   12.6661  -16.7375   24.5053 C   0  0  0  0  0  0  0  0  0  0  0  0
   14.0451  -17.3062   24.5862 O   0  0  0  0  0  0  0  0  0  0  0  0
   14.8390  -16.8892   25.6371 O   0  0  0  0  0  0  0  0  0  0  0  0
  2  1  1  0
  2  3  1  0
  4  3  1  0
  5  4  1  0
  5  6  1  1
  5  1  1  0
  6  7  2  0
  8  9  1  0
  9 11  1  0
 10  9  2  0
 11 12  1  0
 12 13  1  0
 14 13  1  0
 15 14  1  6
 15 17  1  0
 16  6  1  0
 16 15  1  0
 17 19  1  0
 17 18  2  0
 19 20  1  0
 21 22  1  0
 21 20  1  0
 23 21  2  0
M  END
$$$$
