PRG.pdb
     RDKit          3D

 23 23  0  0  1  0  0  0  0  0999 V2000
   10.1776  -19.4635   20.4109 N   0  0  0  0  0  0  0  0  0  0  0  0
   10.2780  -19.9941   19.0806 C   0  0  0  0  0  0  0  0  0  0  0  0
   11.3844  -19.2616   18.3613 C   0  0  0  0  0  0  0  0  0  0  0  0
   11.5792  -18.0460   19.2777 C   0  0  0  0  0  0  0  0  0  0  0  0
   11.3857  -18.7379   20.6351 C   0  0  1  0  0  0  0  0  0  0  0  0
   11.3042  -17.7617   21.7279 C   0  0  0  0  0  0  0  0  0  0  0  0
   12.3384  -17.1225   22.0473 O   0  0  0  0  0  0  0  0  0  0  0  0
    7.8698  -12.0345   20.5428 N   0  0  0  0  0  0  0  0  0  0  0  0
    7.9142  -13.0482   19.5216 C   0  0  0  0  0  0  0  0  0  0  0  0
    8.1042  -12.7315   18.2871 N   0  0  0  0  0  0  0  0  0  0  0  0
    7.7464  -14.4203   19.8654 N   0  0  0  0  0  0  0  0  0  0  0  0
    7.6770  -14.8933   21.2305 C   0  0  0  0  0  0  0  0  0  0  0  0
    9.0610  -14.9299   21.8458 C   0  0  0  0  0  0  0  0  0  0  0  0
    8.9313  -15.5339   23.2166 C   0  0  0  0  0  0  0  0  0  0  0  0
    9.9705  -16.5764   23.5177 C   0  0  2  0  0  0  0  0  0  0  0  0
   10.1149  -17.5250   22.4195 N   0  0  0  0  0  0  0  0  0  0  0  0
    9.7576  -17.2625   24.8057 C   0  0  0  0  0  0  0  0  0  0  0  0
    8.6176  -17.5668   25.2369 O   0  0  0  0  0  0  0  0  0  0  0  0
    8.1611  -13.4362   17.5295 N   0  0  0  0  0  0  0  0  0  0  0  0
   10.8639  -17.6175   25.6343 C   0  0  0  0  0  0  0  0  0  0  0  0
   10.7304  -18.2846   26.8889 C   0  0  0  0  0  0  0  0  0  0  0  0
   12.0502  -18.5294   27.5447 O   0  0  0  0  0  0  0  0  0  0  0  0
   12.0395  -19.1944   28.7555 O   0  0  0  0  0  0  0  0  0  0  0  0
  2  1  1  0
  2  3  1  0
  4  3  1  0
  5  4  1  0
  5  6  1  1
  5  1  1  0
  6  7  2  0
  8  9  1  0
  9 11  1  0
 10  9  2  0
 11 12  1  0
 12 13  1  0
 14 13  1  0
 15 14  1  6
 15 17  1  0
 16  6  1  0
 16 15  1  0
 17 19  1  0
 17 18  2  0
 19 20  1  0
 21 22  1  0
 21 20  1  0
 23 21  2  0
M  END
$$$$
