PRG.pdb
     RDKit          3D

 23 23  0  0  1  0  0  0  0  0999 V2000
    9.2072  -13.4832   19.4493 N   0  0  0  0  0  0  0  0  0  0  0  0
    8.8835  -12.3494   18.6301 C   0  0  0  0  0  0  0  0  0  0  0  0
    7.6497  -11.6917   19.1987 C   0  0  0  0  0  0  0  0  0  0  0  0
    7.1282  -12.7952   20.1293 C   0  0  0  0  0  0  0  0  0  0  0  0
    8.4727  -13.3132   20.6609 C   0  0  1  0  0  0  0  0  0  0  0  0
    8.3031  -14.5472   21.4368 C   0  0  0  0  0  0  0  0  0  0  0  0
    7.5410  -14.5342   22.4364 O   0  0  0  0  0  0  0  0  0  0  0  0
    8.9501  -20.2106   16.2976 N   0  0  0  0  0  0  0  0  0  0  0  0
    7.6799  -20.3595   16.9583 C   0  0  0  0  0  0  0  0  0  0  0  0
    6.7282  -21.0347   16.4115 N   0  0  0  0  0  0  0  0  0  0  0  0
    7.4582  -19.7581   18.2304 N   0  0  0  0  0  0  0  0  0  0  0  0
    7.8371  -18.3972   18.5412 C   0  0  0  0  0  0  0  0  0  0  0  0
    7.4212  -18.0449   19.9549 C   0  0  0  0  0  0  0  0  0  0  0  0
    8.6438  -18.1434   20.8245 C   0  0  0  0  0  0  0  0  0  0  0  0
    8.7915  -17.0016   21.7897 C   0  0  2  0  0  0  0  0  0  0  0  0
    8.9623  -15.7299   21.0968 N   0  0  0  0  0  0  0  0  0  0  0  0
    9.8457  -17.2182   22.7981 C   0  0  0  0  0  0  0  0  0  0  0  0
    9.8255  -18.1750   23.6122 O   0  0  0  0  0  0  0  0  0  0  0  0
    5.7884  -21.1264   16.8382 N   0  0  0  0  0  0  0  0  0  0  0  0
   10.9581  -16.3294   22.8926 C   0  0  0  0  0  0  0  0  0  0  0  0
   12.0407  -16.5113   23.8047 C   0  0  0  0  0  0  0  0  0  0  0  0
   13.1144  -17.3854   23.2439 O   0  0  0  0  0  0  0  0  0  0  0  0
   14.3020  -17.4557   23.9463 O   0  0  0  0  0  0  0  0  0  0  0  0
  2  1  1  0
  2  3  1  0
  4  3  1  0
  5  4  1  0
  5  6  1  6
  5  1  1  0
  6  7  2  0
  8  9  1  0
  9 11  1  0
 10  9  2  0
 11 12  1  0
 12 13  1  0
 14 13  1  0
 15 14  1  6
 15 17  1  0
 16  6  1  0
 16 15  1  0
 17 19  1  0
 17 18  2  0
 19 20  1  0
 21 22  1  0
 21 20  1  0
 23 21  2  0
M  END
$$$$
