PRG.pdb
     RDKit          3D

 23 23  0  0  1  0  0  0  0  0999 V2000
    7.7426  -15.1259   19.2243 N   0  0  0  0  0  0  0  0  0  0  0  0
    6.8565  -14.4723   18.3030 C   0  0  0  0  0  0  0  0  0  0  0  0
    6.9509  -12.9833   18.5313 C   0  0  0  0  0  0  0  0  0  0  0  0
    7.6433  -12.9370   19.9002 C   0  0  0  0  0  0  0  0  0  0  0  0
    8.6169  -14.1101   19.7141 C   0  0  1  0  0  0  0  0  0  0  0  0
    9.2892  -14.4538   20.9725 C   0  0  0  0  0  0  0  0  0  0  0  0
   10.1477  -13.6616   21.4366 O   0  0  0  0  0  0  0  0  0  0  0  0
   10.3415  -15.8870   28.3601 N   0  0  0  0  0  0  0  0  0  0  0  0
    9.7442  -14.5774   28.3434 C   0  0  0  0  0  0  0  0  0  0  0  0
   10.1583  -13.6544   29.1416 N   0  0  0  0  0  0  0  0  0  0  0  0
    8.6819  -14.2851   27.4405 N   0  0  0  0  0  0  0  0  0  0  0  0
    8.2838  -15.1728   26.3702 C   0  0  0  0  0  0  0  0  0  0  0  0
    9.2183  -15.0230   25.1870 C   0  0  0  0  0  0  0  0  0  0  0  0
    8.6911  -15.8938   24.0805 C   0  0  0  0  0  0  0  0  0  0  0  0
    9.6335  -16.0295   22.9182 C   0  0  2  0  0  0  0  0  0  0  0  0
    9.0029  -15.6318   21.6649 N   0  0  0  0  0  0  0  0  0  0  0  0
   10.2521  -17.3645   22.8171 C   0  0  0  0  0  0  0  0  0  0  0  0
    9.8250  -18.3643   23.4465 O   0  0  0  0  0  0  0  0  0  0  0  0
    9.7652  -12.6956   29.1425 N   0  0  0  0  0  0  0  0  0  0  0  0
   11.3876  -17.5804   21.9801 C   0  0  0  0  0  0  0  0  0  0  0  0
   12.6570  -18.0160   22.4660 C   0  0  0  0  0  0  0  0  0  0  0  0
   13.6884  -18.0732   21.3868 O   0  0  0  0  0  0  0  0  0  0  0  0
   13.5415  -17.1998   20.3266 O   0  0  0  0  0  0  0  0  0  0  0  0
  2  1  1  0
  2  3  1  0
  4  3  1  0
  5  4  1  0
  5  6  1  1
  5  1  1  0
  6  7  2  0
  8  9  1  0
  9 11  1  0
 10  9  2  0
 11 12  1  0
 12 13  1  0
 14 13  1  0
 15 14  1  1
 15 17  1  0
 16  6  1  0
 16 15  1  0
 17 19  1  0
 17 18  2  0
 19 20  1  0
 21 22  1  0
 21 20  1  0
 23 21  2  0
M  END
$$$$
