PRG.pdb
     RDKit          3D

 23 23  0  0  1  0  0  0  0  0999 V2000
    7.7868  -15.0279   18.5670 N   0  0  0  0  0  0  0  0  0  0  0  0
    7.1222  -14.4205   17.4487 C   0  0  0  0  0  0  0  0  0  0  0  0
    7.2918  -12.9244   17.5531 C   0  0  0  0  0  0  0  0  0  0  0  0
    7.7449  -12.7790   19.0122 C   0  0  0  0  0  0  0  0  0  0  0  0
    8.6421  -14.0218   19.1077 C   0  0  1  0  0  0  0  0  0  0  0  0
    9.0638  -14.2738   20.4906 C   0  0  0  0  0  0  0  0  0  0  0  0
    9.9387  -13.5301   21.0021 O   0  0  0  0  0  0  0  0  0  0  0  0
    9.3021  -18.4521   26.4404 N   0  0  0  0  0  0  0  0  0  0  0  0
    7.9370  -18.6259   26.8628 C   0  0  0  0  0  0  0  0  0  0  0  0
    7.5320  -19.7549   27.3340 N   0  0  0  0  0  0  0  0  0  0  0  0
    7.0125  -17.5468   26.7632 N   0  0  0  0  0  0  0  0  0  0  0  0
    6.7535  -16.8354   25.5308 C   0  0  0  0  0  0  0  0  0  0  0  0
    8.0515  -16.5582   24.8002 C   0  0  0  0  0  0  0  0  0  0  0  0
    7.7013  -15.9650   23.4638 C   0  0  0  0  0  0  0  0  0  0  0  0
    8.8985  -15.6150   22.6262 C   0  0  2  0  0  0  0  0  0  0  0  0
    8.5226  -15.3127   21.2501 N   0  0  0  0  0  0  0  0  0  0  0  0
    9.9732  -16.6230   22.6885 C   0  0  0  0  0  0  0  0  0  0  0  0
    9.7663  -17.8522   22.5316 O   0  0  0  0  0  0  0  0  0  0  0  0
    6.5574  -19.9147   27.6476 N   0  0  0  0  0  0  0  0  0  0  0  0
   11.3240  -16.2344   22.9348 C   0  0  0  0  0  0  0  0  0  0  0  0
   12.3356  -17.1333   23.3885 C   0  0  0  0  0  0  0  0  0  0  0  0
   13.6728  -16.4759   23.4947 O   0  0  0  0  0  0  0  0  0  0  0  0
   14.7268  -17.2560   23.9295 O   0  0  0  0  0  0  0  0  0  0  0  0
  2  1  1  0
  2  3  1  0
  4  3  1  0
  5  4  1  0
  5  6  1  1
  5  1  1  0
  6  7  2  0
  8  9  1  0
  9 11  1  0
 10  9  2  0
 11 12  1  0
 12 13  1  0
 14 13  1  0
 15 14  1  1
 15 17  1  0
 16  6  1  0
 16 15  1  0
 17 19  1  0
 17 18  2  0
 19 20  1  0
 21 22  1  0
 21 20  1  0
 23 21  2  0
M  END
$$$$
