PRG.pdb
     RDKit          3D

 23 23  0  0  1  0  0  0  0  0999 V2000
    7.9173  -15.0392   19.0803 N   0  0  0  0  0  0  0  0  0  0  0  0
    7.4737  -14.4662   17.8409 C   0  0  0  0  0  0  0  0  0  0  0  0
    7.5182  -12.9632   17.9717 C   0  0  0  0  0  0  0  0  0  0  0  0
    7.6323  -12.8018   19.4937 C   0  0  0  0  0  0  0  0  0  0  0  0
    8.5666  -13.9844   19.7889 C   0  0  1  0  0  0  0  0  0  0  0  0
    8.6929  -14.2210   21.2317 C   0  0  0  0  0  0  0  0  0  0  0  0
    9.3563  -13.4074   21.9231 O   0  0  0  0  0  0  0  0  0  0  0  0
    6.5131  -21.1003   25.9613 N   0  0  0  0  0  0  0  0  0  0  0  0
    6.8637  -20.1405   26.9753 C   0  0  0  0  0  0  0  0  0  0  0  0
    7.0025  -20.5019   28.2044 N   0  0  0  0  0  0  0  0  0  0  0  0
    7.0612  -18.7726   26.6305 N   0  0  0  0  0  0  0  0  0  0  0  0
    7.0099  -18.2820   25.2707 C   0  0  0  0  0  0  0  0  0  0  0  0
    7.1930  -16.7782   25.2465 C   0  0  0  0  0  0  0  0  0  0  0  0
    7.0394  -16.3262   23.8208 C   0  0  0  0  0  0  0  0  0  0  0  0
    8.2674  -15.6655   23.2614 C   0  0  2  0  0  0  0  0  0  0  0  0
    8.0991  -15.3203   21.8546 N   0  0  0  0  0  0  0  0  0  0  0  0
    9.5039  -16.4363   23.4890 C   0  0  0  0  0  0  0  0  0  0  0  0
    9.8212  -17.4371   22.7990 O   0  0  0  0  0  0  0  0  0  0  0  0
    7.2407  -19.8357   28.9615 N   0  0  0  0  0  0  0  0  0  0  0  0
   10.4121  -16.0681   24.5263 C   0  0  0  0  0  0  0  0  0  0  0  0
   11.7095  -16.6423   24.6823 C   0  0  0  0  0  0  0  0  0  0  0  0
   11.7595  -17.6371   25.7956 O   0  0  0  0  0  0  0  0  0  0  0  0
   13.0035  -18.1162   26.1583 O   0  0  0  0  0  0  0  0  0  0  0  0
  2  1  1  0
  2  3  1  0
  4  3  1  0
  5  4  1  0
  5  6  1  1
  5  1  1  0
  6  7  2  0
  8  9  1  0
  9 11  1  0
 10  9  2  0
 11 12  1  0
 12 13  1  0
 14 13  1  0
 15 14  1  6
 15 17  1  0
 16  6  1  0
 16 15  1  0
 17 19  1  0
 17 18  2  0
 19 20  1  0
 21 22  1  0
 21 20  1  0
 23 21  2  0
M  END
$$$$
