PRG.pdb
     RDKit          3D

 23 23  0  0  1  0  0  0  0  0999 V2000
   10.4208  -20.3698   19.2903 N   0  0  0  0  0  0  0  0  0  0  0  0
   10.1722  -21.3692   18.2900 C   0  0  0  0  0  0  0  0  0  0  0  0
   10.2798  -20.7175   16.9329 C   0  0  0  0  0  0  0  0  0  0  0  0
   10.2050  -19.2320   17.3112 C   0  0  0  0  0  0  0  0  0  0  0  0
   11.0287  -19.2746   18.6067 C   0  0  1  0  0  0  0  0  0  0  0  0
   10.9548  -18.0006   19.3313 C   0  0  0  0  0  0  0  0  0  0  0  0
   11.5735  -17.0067   18.8736 O   0  0  0  0  0  0  0  0  0  0  0  0
    7.6340  -11.4992   20.6154 N   0  0  0  0  0  0  0  0  0  0  0  0
    8.0454  -12.6567   19.8649 C   0  0  0  0  0  0  0  0  0  0  0  0
    8.5386  -12.5328   18.6808 N   0  0  0  0  0  0  0  0  0  0  0  0
    7.9103  -13.9596   20.4245 N   0  0  0  0  0  0  0  0  0  0  0  0
    7.5264  -14.1966   21.7988 C   0  0  0  0  0  0  0  0  0  0  0  0
    8.5497  -15.0770   22.4868 C   0  0  0  0  0  0  0  0  0  0  0  0
    8.7004  -16.3254   21.6624 C   0  0  0  0  0  0  0  0  0  0  0  0
   10.1222  -16.6323   21.2863 C   0  0  2  0  0  0  0  0  0  0  0  0
   10.2197  -17.8631   20.5102 N   0  0  0  0  0  0  0  0  0  0  0  0
   11.0452  -16.6391   22.4365 C   0  0  0  0  0  0  0  0  0  0  0  0
   11.1990  -15.6489   23.1943 O   0  0  0  0  0  0  0  0  0  0  0  0
    8.8447  -13.3437   18.1129 N   0  0  0  0  0  0  0  0  0  0  0  0
   11.8193  -17.7980   22.7434 C   0  0  0  0  0  0  0  0  0  0  0  0
   12.6914  -17.8914   23.8694 C   0  0  0  0  0  0  0  0  0  0  0  0
   11.9526  -18.1696   25.1377 O   0  0  0  0  0  0  0  0  0  0  0  0
   12.6968  -18.2374   26.2996 O   0  0  0  0  0  0  0  0  0  0  0  0
  2  1  1  0
  2  3  1  0
  4  3  1  0
  5  4  1  0
  5  6  1  1
  5  1  1  0
  6  7  2  0
  8  9  1  0
  9 11  1  0
 10  9  2  0
 11 12  1  0
 12 13  1  0
 14 13  1  0
 15 14  1  1
 15 17  1  0
 16  6  1  0
 16 15  1  0
 17 19  1  0
 17 18  2  0
 19 20  1  0
 21 22  1  0
 21 20  1  0
 23 21  2  0
M  END
$$$$
