PRG.pdb
     RDKit          3D

 23 23  0  0  1  0  0  0  0  0999 V2000
    7.8994  -15.5073   18.2587 N   0  0  0  0  0  0  0  0  0  0  0  0
    7.2416  -15.2968   17.0000 C   0  0  0  0  0  0  0  0  0  0  0  0
    7.2843  -13.8214   16.6847 C   0  0  0  0  0  0  0  0  0  0  0  0
    7.6544  -13.2366   18.0545 C   0  0  0  0  0  0  0  0  0  0  0  0
    8.6437  -14.3171   18.5152 C   0  0  1  0  0  0  0  0  0  0  0  0
    9.0183  -14.1364   19.9225 C   0  0  0  0  0  0  0  0  0  0  0  0
    9.7466  -13.1606   20.2349 O   0  0  0  0  0  0  0  0  0  0  0  0
    6.4139  -12.2802   28.7817 N   0  0  0  0  0  0  0  0  0  0  0  0
    6.4369  -12.0838   27.3558 C   0  0  0  0  0  0  0  0  0  0  0  0
    5.6837  -11.1977   26.8007 N   0  0  0  0  0  0  0  0  0  0  0  0
    7.2962  -12.8714   26.5371 N   0  0  0  0  0  0  0  0  0  0  0  0
    7.0414  -13.1284   25.1367 C   0  0  0  0  0  0  0  0  0  0  0  0
    8.1283  -14.0105   24.5571 C   0  0  0  0  0  0  0  0  0  0  0  0
    7.8111  -14.2239   23.1030 C   0  0  0  0  0  0  0  0  0  0  0  0
    8.9193  -14.8856   22.3342 C   0  0  2  0  0  0  0  0  0  0  0  0
    8.5901  -15.0149   20.9194 N   0  0  0  0  0  0  0  0  0  0  0  0
    9.3484  -16.1723   22.9133 C   0  0  0  0  0  0  0  0  0  0  0  0
    8.6899  -17.2340   22.7812 O   0  0  0  0  0  0  0  0  0  0  0  0
    5.7231  -10.9829   25.7878 N   0  0  0  0  0  0  0  0  0  0  0  0
   10.5579  -16.2663   23.6649 C   0  0  0  0  0  0  0  0  0  0  0  0
   10.9690  -17.4445   24.3578 C   0  0  0  0  0  0  0  0  0  0  0  0
   12.2239  -18.0261   23.7933 O   0  0  0  0  0  0  0  0  0  0  0  0
   12.7536  -19.1281   24.4362 O   0  0  0  0  0  0  0  0  0  0  0  0
  2  1  1  0
  2  3  1  0
  4  3  1  0
  5  4  1  0
  5  6  1  1
  5  1  1  0
  6  7  2  0
  8  9  1  0
  9 11  1  0
 10  9  2  0
 11 12  1  0
 12 13  1  0
 14 13  1  0
 15 14  1  1
 15 17  1  0
 16  6  1  0
 16 15  1  0
 17 19  1  0
 17 18  2  0
 19 20  1  0
 21 22  1  0
 21 20  1  0
 23 21  2  0
M  END
$$$$
