PRG.pdb
     RDKit          3D

 23 23  0  0  1  0  0  0  0  0999 V2000
    7.4666  -15.2216   19.9087 N   0  0  0  0  0  0  0  0  0  0  0  0
    6.5459  -14.6682   18.9562 C   0  0  0  0  0  0  0  0  0  0  0  0
    6.9236  -13.2269   18.7153 C   0  0  0  0  0  0  0  0  0  0  0  0
    7.8536  -12.9615   19.9069 C   0  0  0  0  0  0  0  0  0  0  0  0
    8.5707  -14.3187   19.9560 C   0  0  1  0  0  0  0  0  0  0  0  0
    9.3969  -14.4455   21.1622 C   0  0  0  0  0  0  0  0  0  0  0  0
   10.5041  -13.8516   21.2030 O   0  0  0  0  0  0  0  0  0  0  0  0
   11.3514  -15.1426   29.6063 N   0  0  0  0  0  0  0  0  0  0  0  0
   10.1518  -14.7848   28.8956 C   0  0  0  0  0  0  0  0  0  0  0  0
    9.8378  -13.5482   28.7140 N   0  0  0  0  0  0  0  0  0  0  0  0
    9.2924  -15.7986   28.3830 N   0  0  0  0  0  0  0  0  0  0  0  0
    8.6251  -15.7006   27.1035 C   0  0  0  0  0  0  0  0  0  0  0  0
    9.6426  -15.5914   25.9862 C   0  0  0  0  0  0  0  0  0  0  0  0
    8.8844  -15.4447   24.6961 C   0  0  0  0  0  0  0  0  0  0  0  0
    9.7667  -15.3783   23.4817 C   0  0  2  0  0  0  0  0  0  0  0  0
    8.9889  -15.2046   22.2605 N   0  0  0  0  0  0  0  0  0  0  0  0
   10.7035  -16.5122   23.3742 C   0  0  0  0  0  0  0  0  0  0  0  0
   10.3389  -17.6710   23.0537 O   0  0  0  0  0  0  0  0  0  0  0  0
    9.0107  -13.2545   28.1632 N   0  0  0  0  0  0  0  0  0  0  0  0
   12.0952  -16.3355   23.6357 C   0  0  0  0  0  0  0  0  0  0  0  0
   13.0568  -17.3863   23.5447 C   0  0  0  0  0  0  0  0  0  0  0  0
   14.4461  -16.9091   23.8163 O   0  0  0  0  0  0  0  0  0  0  0  0
   15.4538  -17.8539   23.7925 O   0  0  0  0  0  0  0  0  0  0  0  0
  2  1  1  0
  2  3  1  0
  4  3  1  0
  5  4  1  0
  5  6  1  1
  5  1  1  0
  6  7  2  0
  8  9  1  0
  9 11  1  0
 10  9  2  0
 11 12  1  0
 12 13  1  0
 14 13  1  0
 15 14  1  1
 15 17  1  0
 16  6  1  0
 16 15  1  0
 17 19  1  0
 17 18  2  0
 19 20  1  0
 21 22  1  0
 21 20  1  0
 23 21  2  0
M  END
$$$$
