PRG.pdb
     RDKit          3D

 23 23  0  0  1  0  0  0  0  0999 V2000
    9.5091  -19.6986   19.7406 N   0  0  0  0  0  0  0  0  0  0  0  0
    9.2516  -20.3371   18.4808 C   0  0  0  0  0  0  0  0  0  0  0  0
    9.7836  -19.4487   17.3827 C   0  0  0  0  0  0  0  0  0  0  0  0
    9.9730  -18.1260   18.1377 C   0  0  0  0  0  0  0  0  0  0  0  0
   10.4788  -18.6859   19.4753 C   0  0  1  0  0  0  0  0  0  0  0  0
   10.5490  -17.6400   20.5023 C   0  0  0  0  0  0  0  0  0  0  0  0
   11.5402  -16.8669   20.5126 O   0  0  0  0  0  0  0  0  0  0  0  0
    7.8363  -11.1762   19.3534 N   0  0  0  0  0  0  0  0  0  0  0  0
    8.4481  -12.4624   19.1451 C   0  0  0  0  0  0  0  0  0  0  0  0
    9.4801  -12.5853   18.3832 N   0  0  0  0  0  0  0  0  0  0  0  0
    7.9166  -13.6209   19.7811 N   0  0  0  0  0  0  0  0  0  0  0  0
    8.4036  -14.1250   21.0463 C   0  0  0  0  0  0  0  0  0  0  0  0
    7.5937  -15.3299   21.4796 C   0  0  0  0  0  0  0  0  0  0  0  0
    8.2182  -15.8668   22.7376 C   0  0  0  0  0  0  0  0  0  0  0  0
    9.5730  -16.4803   22.5246 C   0  0  2  0  0  0  0  0  0  0  0  0
    9.5498  -17.4810   21.4642 N   0  0  0  0  0  0  0  0  0  0  0  0
   10.1781  -17.0104   23.7607 C   0  0  0  0  0  0  0  0  0  0  0  0
    9.6727  -17.9545   24.4178 O   0  0  0  0  0  0  0  0  0  0  0  0
    9.9777  -13.4849   18.2534 N   0  0  0  0  0  0  0  0  0  0  0  0
   11.3911  -16.4602   24.2728 C   0  0  0  0  0  0  0  0  0  0  0  0
   11.9935  -16.8769   25.4978 C   0  0  0  0  0  0  0  0  0  0  0  0
   12.9122  -18.0400   25.3115 O   0  0  0  0  0  0  0  0  0  0  0  0
   13.6243  -18.4651   26.4164 O   0  0  0  0  0  0  0  0  0  0  0  0
  2  1  1  0
  2  3  1  0
  4  3  1  0
  5  4  1  0
  5  6  1  1
  5  1  1  0
  6  7  2  0
  8  9  1  0
  9 11  1  0
 10  9  2  0
 11 12  1  0
 12 13  1  0
 14 13  1  0
 15 14  1  1
 15 17  1  0
 16  6  1  0
 16 15  1  0
 17 19  1  0
 17 18  2  0
 19 20  1  0
 21 22  1  0
 21 20  1  0
 23 21  2  0
M  END
$$$$
