PRG.pdb
     RDKit          3D

 23 23  0  0  1  0  0  0  0  0999 V2000
    7.6244  -15.2605   18.6911 N   0  0  0  0  0  0  0  0  0  0  0  0
    6.9559  -14.8185   17.4999 C   0  0  0  0  0  0  0  0  0  0  0  0
    7.2270  -13.3440   17.3247 C   0  0  0  0  0  0  0  0  0  0  0  0
    7.7475  -12.9710   18.7194 C   0  0  0  0  0  0  0  0  0  0  0  0
    8.5648  -14.2372   19.0149 C   0  0  1  0  0  0  0  0  0  0  0  0
    9.0250  -14.2656   20.4080 C   0  0  0  0  0  0  0  0  0  0  0  0
    9.8299  -13.3824   20.7981 O   0  0  0  0  0  0  0  0  0  0  0  0
    5.6433  -12.2139   26.2276 N   0  0  0  0  0  0  0  0  0  0  0  0
    6.7761  -12.8527   26.8448 C   0  0  0  0  0  0  0  0  0  0  0  0
    7.7563  -12.1541   27.3048 N   0  0  0  0  0  0  0  0  0  0  0  0
    6.8277  -14.2720   26.9539 N   0  0  0  0  0  0  0  0  0  0  0  0
    6.7260  -15.1592   25.8161 C   0  0  0  0  0  0  0  0  0  0  0  0
    8.0432  -15.2106   25.0694 C   0  0  0  0  0  0  0  0  0  0  0  0
    7.7294  -15.2461   23.5994 C   0  0  0  0  0  0  0  0  0  0  0  0
    8.9489  -15.2782   22.7224 C   0  0  2  0  0  0  0  0  0  0  0  0
    8.5955  -15.2427   21.3080 N   0  0  0  0  0  0  0  0  0  0  0  0
    9.8620  -16.3953   23.0277 C   0  0  0  0  0  0  0  0  0  0  0  0
    9.4857  -17.5933   23.0681 O   0  0  0  0  0  0  0  0  0  0  0  0
    8.5661  -12.5773   27.7936 N   0  0  0  0  0  0  0  0  0  0  0  0
   11.2431  -16.1557   23.2958 C   0  0  0  0  0  0  0  0  0  0  0  0
   12.1399  -17.1550   23.7796 C   0  0  0  0  0  0  0  0  0  0  0  0
   13.5043  -16.6100   24.0499 O   0  0  0  0  0  0  0  0  0  0  0  0
   14.4400  -17.4818   24.5723 O   0  0  0  0  0  0  0  0  0  0  0  0
  2  1  1  0
  2  3  1  0
  4  3  1  0
  5  4  1  0
  5  6  1  1
  5  1  1  0
  6  7  2  0
  8  9  1  0
  9 11  1  0
 10  9  2  0
 11 12  1  0
 12 13  1  0
 14 13  1  0
 15 14  1  1
 15 17  1  0
 16  6  1  0
 16 15  1  0
 17 19  1  0
 17 18  2  0
 19 20  1  0
 21 22  1  0
 21 20  1  0
 23 21  2  0
M  END
$$$$
