EDS.pdb
     RDKit          3D

 24 23  0  0  1  0  0  0  0  0999 V2000
   13.1538  -15.9609   17.2238 N   0  0  0  0  0  0  0  0  0  0  0  0
   13.8750  -15.6941   18.4489 C   0  0  1  0  0  0  0  0  0  0  0  0
   14.6862  -14.4171   18.1993 C   0  0  0  0  0  0  0  0  0  0  0  0
   15.5442  -14.6356   16.9512 C   0  0  0  0  0  0  0  0  0  0  0  0
   16.3814  -13.4372   16.7255 C   0  0  0  0  0  0  0  0  0  0  0  0
   16.3927  -12.4867   17.5424 O   0  0  0  0  0  0  0  0  0  0  0  0
   12.9155  -15.3702   19.5200 C   0  0  0  0  0  0  0  0  0  0  0  0
   13.3655  -15.0061   20.6380 O   0  0  0  0  0  0  0  0  0  0  0  0
   17.1692  -13.3587   15.5924 O   0  0  0  0  0  0  0  0  0  0  0  0
   11.5066  -15.4503   19.3478 N   0  0  0  0  0  0  0  0  0  0  0  0
   10.6470  -15.0457   20.4497 C   0  0  1  0  0  0  0  0  0  0  0  0
    9.2959  -14.7354   19.8806 C   0  0  0  0  0  0  0  0  0  0  0  0
    9.3084  -13.6162   18.9480 C   0  0  0  0  0  0  0  0  0  0  0  0
   10.2529  -12.8345   18.7404 O   0  0  0  0  0  0  0  0  0  0  0  0
   10.5609  -16.1821   21.4338 C   0  0  0  0  0  0  0  0  0  0  0  0
   10.2104  -17.3428   21.1604 O   0  0  0  0  0  0  0  0  0  0  0  0
    8.1396  -13.3869   18.2012 O   0  0  0  0  0  0  0  0  0  0  0  0
   13.0797  -16.6850   24.4944 O   0  0  0  0  0  0  0  0  0  0  0  0
   12.1364  -17.6307   24.1269 C   0  0  0  0  0  0  0  0  0  0  0  0
   10.7878  -17.0249   23.8069 C   0  0  2  0  0  0  0  0  0  0  0  0
   10.9007  -15.9631   22.8200 N   0  0  0  0  0  0  0  0  0  0  0  0
   10.1443  -16.5451   25.0290 C   0  0  0  0  0  0  0  0  0  0  0  0
    9.8779  -17.4148   26.0639 O   0  0  0  0  0  0  0  0  0  0  0  0
    9.8297  -15.3250   25.1391 O   0  0  0  0  0  0  0  0  0  0  0  0
  2  1  1  6
  2  7  1  0
  2  3  1  0
  3  4  1  0
  4  5  1  0
  5  9  1  0
  6  5  2  0
  7  8  2  0
  7 10  1  0
 10 11  1  0
 11 15  1  0
 12 13  1  0
 11 12  1  6
 13 17  1  0
 14 13  2  0
 15 16  2  0
 15 21  1  0
 18 19  1  0
 20 19  1  1
 20 22  1  0
 21 20  1  0
 22 23  1  0
 24 22  2  0
M  END
$$$$
