EDS.pdb
     RDKit          3D

 24 23  0  0  1  0  0  0  0  0999 V2000
    7.4188  -17.5340   15.6773 N   0  0  0  0  0  0  0  0  0  0  0  0
    6.2428  -18.1062   16.2955 C   0  0  1  0  0  0  0  0  0  0  0  0
    5.3288  -18.5511   15.1475 C   0  0  0  0  0  0  0  0  0  0  0  0
    5.6596  -17.7001   13.9195 C   0  0  0  0  0  0  0  0  0  0  0  0
    4.7083  -18.0275   12.8352 C   0  0  0  0  0  0  0  0  0  0  0  0
    3.8734  -18.9540   12.9583 O   0  0  0  0  0  0  0  0  0  0  0  0
    6.6201  -19.3325   17.0210 C   0  0  0  0  0  0  0  0  0  0  0  0
    5.7173  -19.9808   17.6125 O   0  0  0  0  0  0  0  0  0  0  0  0
    4.7363  -17.2999   11.6602 O   0  0  0  0  0  0  0  0  0  0  0  0
    7.9556  -19.8158   17.0831 N   0  0  0  0  0  0  0  0  0  0  0  0
    8.2231  -21.0248   17.8471 C   0  0  1  0  0  0  0  0  0  0  0  0
    9.5757  -21.5269   17.4425 C   0  0  0  0  0  0  0  0  0  0  0  0
    9.9440  -22.7762   18.0953 C   0  0  0  0  0  0  0  0  0  0  0  0
    9.1700  -23.6788   18.4594 O   0  0  0  0  0  0  0  0  0  0  0  0
    8.2003  -20.6814   19.3129 C   0  0  0  0  0  0  0  0  0  0  0  0
    8.6834  -19.6528   19.8164 O   0  0  0  0  0  0  0  0  0  0  0  0
   11.3102  -22.9948   18.3441 O   0  0  0  0  0  0  0  0  0  0  0  0
    5.4373  -22.4873   21.9396 O   0  0  0  0  0  0  0  0  0  0  0  0
    6.0777  -21.2807   22.1697 C   0  0  0  0  0  0  0  0  0  0  0  0
    7.5064  -21.2671   21.6727 C   0  0  2  0  0  0  0  0  0  0  0  0
    7.5810  -21.5831   20.2555 N   0  0  0  0  0  0  0  0  0  0  0  0
    8.3271  -22.1835   22.4631 C   0  0  0  0  0  0  0  0  0  0  0  0
    8.4897  -21.9825   23.8165 O   0  0  0  0  0  0  0  0  0  0  0  0
    8.8919  -23.1671   21.9033 O   0  0  0  0  0  0  0  0  0  0  0  0
  2  1  1  6
  2  7  1  0
  2  3  1  0
  3  4  1  0
  4  5  1  0
  5  9  1  0
  6  5  2  0
  7  8  2  0
  7 10  1  0
 10 11  1  0
 11 15  1  0
 12 13  1  0
 11 12  1  6
 13 17  1  0
 14 13  2  0
 15 16  2  0
 15 21  1  0
 18 19  1  0
 20 19  1  1
 20 22  1  0
 21 20  1  0
 22 23  1  0
 24 22  2  0
M  END
$$$$
