EDS.pdb
     RDKit          3D

 24 23  0  0  1  0  0  0  0  0999 V2000
   13.3002  -15.8594   16.7651 N   0  0  0  0  0  0  0  0  0  0  0  0
   13.7966  -15.0165   17.8308 C   0  0  1  0  0  0  0  0  0  0  0  0
   12.6326  -14.1025   18.2318 C   0  0  0  0  0  0  0  0  0  0  0  0
   11.4002  -14.9784   18.4677 C   0  0  0  0  0  0  0  0  0  0  0  0
   10.2372  -14.1089   18.7493 C   0  0  0  0  0  0  0  0  0  0  0  0
    9.5320  -13.6434   17.8236 O   0  0  0  0  0  0  0  0  0  0  0  0
   14.0946  -15.8468   19.0117 C   0  0  0  0  0  0  0  0  0  0  0  0
   13.3958  -16.8744   19.2137 O   0  0  0  0  0  0  0  0  0  0  0  0
    9.9170  -13.8002   20.0581 O   0  0  0  0  0  0  0  0  0  0  0  0
   15.1340  -15.5400   19.9318 N   0  0  0  0  0  0  0  0  0  0  0  0
   15.3761  -16.4539   21.0378 C   0  0  1  0  0  0  0  0  0  0  0  0
   16.8555  -16.5016   21.2711 C   0  0  0  0  0  0  0  0  0  0  0  0
   17.5724  -17.2677   20.2603 C   0  0  0  0  0  0  0  0  0  0  0  0
   18.6520  -16.9611   19.7248 O   0  0  0  0  0  0  0  0  0  0  0  0
   14.6624  -15.9322   22.2567 C   0  0  0  0  0  0  0  0  0  0  0  0
   14.8549  -14.8214   22.7802 O   0  0  0  0  0  0  0  0  0  0  0  0
   16.9946  -18.4783   19.8396 O   0  0  0  0  0  0  0  0  0  0  0  0
   10.8554  -16.8712   23.0147 O   0  0  0  0  0  0  0  0  0  0  0  0
   11.5176  -15.8864   23.7293 C   0  0  0  0  0  0  0  0  0  0  0  0
   12.9399  -16.2660   24.0773 C   0  0  2  0  0  0  0  0  0  0  0  0
   13.6647  -16.7450   22.9114 N   0  0  0  0  0  0  0  0  0  0  0  0
   12.9518  -17.2576   25.1519 C   0  0  0  0  0  0  0  0  0  0  0  0
   13.5365  -18.4898   24.9566 O   0  0  0  0  0  0  0  0  0  0  0  0
   12.4230  -16.9847   26.2680 O   0  0  0  0  0  0  0  0  0  0  0  0
  2  1  1  6
  2  7  1  0
  2  3  1  0
  3  4  1  0
  4  5  1  0
  5  9  1  0
  6  5  2  0
  7  8  2  0
  7 10  1  0
 10 11  1  0
 11 15  1  0
 12 13  1  0
 11 12  1  1
 13 17  1  0
 14 13  2  0
 15 16  2  0
 15 21  1  0
 18 19  1  0
 20 19  1  6
 20 22  1  0
 21 20  1  0
 22 23  1  0
 24 22  2  0
M  END
$$$$
