EDS.pdb
     RDKit          3D

 24 23  0  0  1  0  0  0  0  0999 V2000
   12.0915  -14.8584   17.4165 N   0  0  0  0  0  0  0  0  0  0  0  0
   12.8127  -15.6875   18.3572 C   0  0  1  0  0  0  0  0  0  0  0  0
   13.8074  -14.7626   19.0688 C   0  0  0  0  0  0  0  0  0  0  0  0
   15.1517  -14.8636   18.3448 C   0  0  0  0  0  0  0  0  0  0  0  0
   16.1295  -13.9810   19.0177 C   0  0  0  0  0  0  0  0  0  0  0  0
   16.5049  -14.2006   20.1932 O   0  0  0  0  0  0  0  0  0  0  0  0
   11.8838  -16.1704   19.3948 C   0  0  0  0  0  0  0  0  0  0  0  0
   10.7590  -15.6142   19.4982 O   0  0  0  0  0  0  0  0  0  0  0  0
   16.6429  -12.8904   18.3411 O   0  0  0  0  0  0  0  0  0  0  0  0
   12.2002  -17.2342   20.2831 N   0  0  0  0  0  0  0  0  0  0  0  0
   11.1943  -17.6604   21.2442 C   0  0  1  0  0  0  0  0  0  0  0  0
   11.2978  -19.1493   21.3787 C   0  0  0  0  0  0  0  0  0  0  0  0
   10.8805  -19.8650   20.1803 C   0  0  0  0  0  0  0  0  0  0  0  0
   11.6231  -20.4223   19.3531 O   0  0  0  0  0  0  0  0  0  0  0  0
   11.4735  -16.9872   22.5617 C   0  0  0  0  0  0  0  0  0  0  0  0
   12.5934  -16.6199   22.9567 O   0  0  0  0  0  0  0  0  0  0  0  0
    9.5006  -19.9399   19.9223 O   0  0  0  0  0  0  0  0  0  0  0  0
    8.8986  -14.4942   24.5115 O   0  0  0  0  0  0  0  0  0  0  0  0
    9.3943  -15.4821   25.3466 C   0  0  0  0  0  0  0  0  0  0  0  0
   10.6331  -16.1531   24.7959 C   0  0  2  0  0  0  0  0  0  0  0  0
   10.3911  -16.7222   23.4800 N   0  0  0  0  0  0  0  0  0  0  0  0
   11.1182  -17.1679   25.7301 C   0  0  0  0  0  0  0  0  0  0  0  0
   11.4979  -16.8151   27.0068 O   0  0  0  0  0  0  0  0  0  0  0  0
   11.1904  -18.3771   25.3665 O   0  0  0  0  0  0  0  0  0  0  0  0
  2  1  1  6
  2  7  1  0
  2  3  1  0
  3  4  1  0
  4  5  1  0
  5  9  1  0
  6  5  2  0
  7  8  2  0
  7 10  1  0
 10 11  1  0
 11 15  1  0
 12 13  1  0
 11 12  1  1
 13 17  1  0
 14 13  2  0
 15 16  2  0
 15 21  1  0
 18 19  1  0
 20 19  1  1
 20 22  1  0
 21 20  1  0
 22 23  1  0
 24 22  2  0
M  END
$$$$
