EDS.pdb
     RDKit          3D

 24 23  0  0  1  0  0  0  0  0999 V2000
   13.9328  -18.6647   16.7683 N   0  0  0  0  0  0  0  0  0  0  0  0
   13.7555  -19.7337   17.7266 C   0  0  1  0  0  0  0  0  0  0  0  0
   15.1163  -19.9309   18.4052 C   0  0  0  0  0  0  0  0  0  0  0  0
   16.1823  -19.2598   17.5364 C   0  0  0  0  0  0  0  0  0  0  0  0
   17.4987  -19.3953   18.1972 C   0  0  0  0  0  0  0  0  0  0  0  0
   17.6993  -20.2635   19.0786 O   0  0  0  0  0  0  0  0  0  0  0  0
   12.8277  -19.2929   18.7838 C   0  0  0  0  0  0  0  0  0  0  0  0
   12.4742  -18.0848   18.8056 O   0  0  0  0  0  0  0  0  0  0  0  0
   18.5321  -18.5499   17.8392 O   0  0  0  0  0  0  0  0  0  0  0  0
   12.3146  -20.1693   19.7787 N   0  0  0  0  0  0  0  0  0  0  0  0
   11.2462  -19.6912   20.6429 C   0  0  1  0  0  0  0  0  0  0  0  0
   10.3829  -20.8661   20.9890 C   0  0  0  0  0  0  0  0  0  0  0  0
    9.3335  -21.1166   20.0099 C   0  0  0  0  0  0  0  0  0  0  0  0
    9.0551  -20.4110   19.0245 O   0  0  0  0  0  0  0  0  0  0  0  0
   11.8607  -19.0995   21.8836 C   0  0  0  0  0  0  0  0  0  0  0  0
   13.0047  -19.3433   22.3039 O   0  0  0  0  0  0  0  0  0  0  0  0
    8.5495  -22.2700   20.1865 O   0  0  0  0  0  0  0  0  0  0  0  0
    9.4802  -16.6279   24.3778 O   0  0  0  0  0  0  0  0  0  0  0  0
   10.8530  -16.4457   24.4162 C   0  0  0  0  0  0  0  0  0  0  0  0
   11.6225  -17.6616   23.9497 C   0  0  2  0  0  0  0  0  0  0  0  0
   11.1058  -18.1683   22.6886 N   0  0  0  0  0  0  0  0  0  0  0  0
   11.6083  -18.6975   24.9816 C   0  0  0  0  0  0  0  0  0  0  0  0
   12.2944  -18.5142   26.1624 O   0  0  0  0  0  0  0  0  0  0  0  0
   10.9633  -19.7686   24.7914 O   0  0  0  0  0  0  0  0  0  0  0  0
  2  1  1  6
  2  7  1  0
  2  3  1  0
  3  4  1  0
  4  5  1  0
  5  9  1  0
  6  5  2  0
  7  8  2  0
  7 10  1  0
 10 11  1  0
 11 15  1  0
 12 13  1  0
 11 12  1  1
 13 17  1  0
 14 13  2  0
 15 16  2  0
 15 21  1  0
 18 19  1  0
 20 19  1  1
 20 22  1  0
 21 20  1  0
 22 23  1  0
 24 22  2  0
M  END
$$$$
