EDS.pdb
     RDKit          3D

 24 23  0  0  1  0  0  0  0  0999 V2000
   13.5680  -19.2915   16.9317 N   0  0  0  0  0  0  0  0  0  0  0  0
   14.0476  -20.1775   17.9697 C   0  0  1  0  0  0  0  0  0  0  0  0
   15.4748  -19.7218   18.2965 C   0  0  0  0  0  0  0  0  0  0  0  0
   15.4202  -18.2502   18.7125 C   0  0  0  0  0  0  0  0  0  0  0  0
   16.7937  -17.7758   18.9889 C   0  0  0  0  0  0  0  0  0  0  0  0
   17.5633  -17.4316   18.0615 O   0  0  0  0  0  0  0  0  0  0  0  0
   13.2568  -19.9668   19.1956 C   0  0  0  0  0  0  0  0  0  0  0  0
   12.2279  -19.2444   19.1284 O   0  0  0  0  0  0  0  0  0  0  0  0
   17.2426  -17.7086   20.2945 O   0  0  0  0  0  0  0  0  0  0  0  0
   13.6029  -20.5417   20.4489 N   0  0  0  0  0  0  0  0  0  0  0  0
   12.6518  -20.4436   21.5456 C   0  0  1  0  0  0  0  0  0  0  0  0
   13.0643  -21.4323   22.5934 C   0  0  0  0  0  0  0  0  0  0  0  0
   12.1159  -21.5318   23.6949 C   0  0  0  0  0  0  0  0  0  0  0  0
   12.3762  -21.8357   24.8722 O   0  0  0  0  0  0  0  0  0  0  0  0
   12.6927  -19.0414   22.0927 C   0  0  0  0  0  0  0  0  0  0  0  0
   13.7213  -18.3607   22.2457 O   0  0  0  0  0  0  0  0  0  0  0  0
   10.7667  -21.2587   23.4100 O   0  0  0  0  0  0  0  0  0  0  0  0
   10.1477  -16.2942   21.0716 O   0  0  0  0  0  0  0  0  0  0  0  0
   10.2632  -16.2495   22.4514 C   0  0  0  0  0  0  0  0  0  0  0  0
   11.4628  -17.0128   22.9677 C   0  0  2  0  0  0  0  0  0  0  0  0
   11.4685  -18.3853   22.4878 N   0  0  0  0  0  0  0  0  0  0  0  0
   11.5054  -16.9630   24.4284 C   0  0  0  0  0  0  0  0  0  0  0  0
   11.5055  -18.1270   25.1657 O   0  0  0  0  0  0  0  0  0  0  0  0
   11.5425  -15.8461   25.0207 O   0  0  0  0  0  0  0  0  0  0  0  0
  2  1  1  6
  2  7  1  0
  2  3  1  0
  3  4  1  0
  4  5  1  0
  5  9  1  0
  6  5  2  0
  7  8  2  0
  7 10  1  0
 10 11  1  0
 11 15  1  0
 12 13  1  0
 11 12  1  1
 13 17  1  0
 14 13  2  0
 15 16  2  0
 15 21  1  0
 18 19  1  0
 20 19  1  1
 20 22  1  0
 21 20  1  0
 22 23  1  0
 24 22  2  0
M  END
$$$$
