EDS.pdb
     RDKit          3D

 24 23  0  0  1  0  0  0  0  0999 V2000
   12.2989  -15.7154   15.5322 N   0  0  0  0  0  0  0  0  0  0  0  0
   12.2483  -14.8351   16.6789 C   0  0  1  0  0  0  0  0  0  0  0  0
   10.9085  -15.1106   17.3718 C   0  0  0  0  0  0  0  0  0  0  0  0
   10.6216  -16.6104   17.2723 C   0  0  0  0  0  0  0  0  0  0  0  0
    9.3123  -16.8938   17.8994 C   0  0  0  0  0  0  0  0  0  0  0  0
    8.2597  -16.9356   17.2203 O   0  0  0  0  0  0  0  0  0  0  0  0
   13.2967  -15.2234   17.6394 C   0  0  0  0  0  0  0  0  0  0  0  0
   13.5572  -16.4471   17.7802 O   0  0  0  0  0  0  0  0  0  0  0  0
    9.2423  -17.1177   19.2617 O   0  0  0  0  0  0  0  0  0  0  0  0
   14.0262  -14.2798   18.4130 N   0  0  0  0  0  0  0  0  0  0  0  0
   14.9893  -14.7736   19.3854 C   0  0  1  0  0  0  0  0  0  0  0  0
   16.2201  -13.9259   19.2753 C   0  0  0  0  0  0  0  0  0  0  0  0
   16.9031  -14.0676   17.9963 C   0  0  0  0  0  0  0  0  0  0  0  0
   17.3353  -13.1472   17.2805 O   0  0  0  0  0  0  0  0  0  0  0  0
   14.3859  -14.6584   20.7601 C   0  0  0  0  0  0  0  0  0  0  0  0
   14.6535  -13.7718   21.5891 O   0  0  0  0  0  0  0  0  0  0  0  0
   17.0994  -15.3726   17.5119 O   0  0  0  0  0  0  0  0  0  0  0  0
   10.7668  -16.3706   21.6200 O   0  0  0  0  0  0  0  0  0  0  0  0
   11.3471  -15.4910   22.5192 C   0  0  0  0  0  0  0  0  0  0  0  0
   12.8564  -15.5864   22.5469 C   0  0  2  0  0  0  0  0  0  0  0  0
   13.4129  -15.6284   21.2043 N   0  0  0  0  0  0  0  0  0  0  0  0
   13.2771  -16.7471   23.3305 C   0  0  0  0  0  0  0  0  0  0  0  0
   12.8925  -16.8754   24.6473 O   0  0  0  0  0  0  0  0  0  0  0  0
   13.9980  -17.6398   22.7985 O   0  0  0  0  0  0  0  0  0  0  0  0
  2  1  1  6
  2  7  1  0
  2  3  1  0
  3  4  1  0
  4  5  1  0
  5  9  1  0
  6  5  2  0
  7  8  2  0
  7 10  1  0
 10 11  1  0
 11 15  1  0
 12 13  1  0
 11 12  1  1
 13 17  1  0
 14 13  2  0
 15 16  2  0
 15 21  1  0
 18 19  1  0
 20 19  1  6
 20 22  1  0
 21 20  1  0
 22 23  1  0
 24 22  2  0
M  END
$$$$
