EDS.pdb
     RDKit          3D

 24 23  0  0  1  0  0  0  0  0999 V2000
    9.7034  -13.1894   17.8850 N   0  0  0  0  0  0  0  0  0  0  0  0
    8.4174  -13.6063   18.3996 C   0  0  1  0  0  0  0  0  0  0  0  0
    7.6295  -14.1444   17.1992 C   0  0  0  0  0  0  0  0  0  0  0  0
    8.6325  -14.6603   16.1651 C   0  0  0  0  0  0  0  0  0  0  0  0
    7.8929  -15.2082   15.0072 C   0  0  0  0  0  0  0  0  0  0  0  0
    7.3451  -16.3344   15.0574 O   0  0  0  0  0  0  0  0  0  0  0  0
    8.6039  -14.7466   19.3149 C   0  0  0  0  0  0  0  0  0  0  0  0
    7.5832  -15.2811   19.8222 O   0  0  0  0  0  0  0  0  0  0  0  0
    7.8007  -14.4675   13.8438 O   0  0  0  0  0  0  0  0  0  0  0  0
    9.8827  -15.2693   19.6502 N   0  0  0  0  0  0  0  0  0  0  0  0
    9.9632  -16.3208   20.6526 C   0  0  1  0  0  0  0  0  0  0  0  0
   11.2241  -17.0908   20.4018 C   0  0  0  0  0  0  0  0  0  0  0  0
   11.1189  -18.0168   19.2820 C   0  0  0  0  0  0  0  0  0  0  0  0
   10.0698  -18.4478   18.7722 O   0  0  0  0  0  0  0  0  0  0  0  0
    9.9924  -15.6830   22.0163 C   0  0  0  0  0  0  0  0  0  0  0  0
   10.9032  -14.9563   22.4491 O   0  0  0  0  0  0  0  0  0  0  0  0
   12.3186  -18.4768   18.7116 O   0  0  0  0  0  0  0  0  0  0  0  0
    7.1073  -13.8153   23.8038 O   0  0  0  0  0  0  0  0  0  0  0  0
    7.5648  -14.7936   24.6714 C   0  0  0  0  0  0  0  0  0  0  0  0
    8.9191  -15.3423   24.2801 C   0  0  2  0  0  0  0  0  0  0  0  0
    8.9013  -15.8988   22.9370 N   0  0  0  0  0  0  0  0  0  0  0  0
    9.3665  -16.3334   25.2576 C   0  0  0  0  0  0  0  0  0  0  0  0
    9.4886  -15.9947   26.5876 O   0  0  0  0  0  0  0  0  0  0  0  0
    9.6436  -17.5090   24.8824 O   0  0  0  0  0  0  0  0  0  0  0  0
  2  1  1  6
  2  7  1  0
  2  3  1  0
  3  4  1  0
  4  5  1  0
  5  9  1  0
  6  5  2  0
  7  8  2  0
  7 10  1  0
 10 11  1  0
 11 15  1  0
 12 13  1  0
 11 12  1  6
 13 17  1  0
 14 13  2  0
 15 16  2  0
 15 21  1  0
 18 19  1  0
 20 19  1  1
 20 22  1  0
 21 20  1  0
 22 23  1  0
 24 22  2  0
M  END
$$$$
