EDS.pdb
     RDKit          3D

 24 23  0  0  1  0  0  0  0  0999 V2000
    7.5455  -17.2703   20.1456 N   0  0  0  0  0  0  0  0  0  0  0  0
    8.7571  -16.6003   20.5647 C   0  0  1  0  0  0  0  0  0  0  0  0
    8.5216  -15.1032   20.3314 C   0  0  0  0  0  0  0  0  0  0  0  0
    8.3854  -14.8728   18.8248 C   0  0  0  0  0  0  0  0  0  0  0  0
    8.1907  -13.4282   18.5734 C   0  0  0  0  0  0  0  0  0  0  0  0
    8.2513  -12.5907   19.5039 O   0  0  0  0  0  0  0  0  0  0  0  0
    8.9303  -16.7687   22.0188 C   0  0  0  0  0  0  0  0  0  0  0  0
    7.9014  -16.8381   22.7409 O   0  0  0  0  0  0  0  0  0  0  0  0
    7.9364  -12.9874   17.2882 O   0  0  0  0  0  0  0  0  0  0  0  0
   10.2051  -16.8562   22.6419 N   0  0  0  0  0  0  0  0  0  0  0  0
   10.2648  -16.9672   24.0914 C   0  0  1  0  0  0  0  0  0  0  0  0
   11.5878  -17.5754   24.4455 C   0  0  0  0  0  0  0  0  0  0  0  0
   11.8156  -18.8662   23.8096 C   0  0  0  0  0  0  0  0  0  0  0  0
   11.0826  -19.8682   23.8821 O   0  0  0  0  0  0  0  0  0  0  0  0
   10.1378  -15.5890   24.6841 C   0  0  0  0  0  0  0  0  0  0  0  0
   10.7705  -14.5863   24.3108 O   0  0  0  0  0  0  0  0  0  0  0  0
   12.9789  -19.0053   23.0327 O   0  0  0  0  0  0  0  0  0  0  0  0
    7.1406  -13.5576   25.1001 O   0  0  0  0  0  0  0  0  0  0  0  0
    7.6902  -13.5350   26.3715 C   0  0  0  0  0  0  0  0  0  0  0  0
    9.1119  -14.0505   26.4086 C   0  0  2  0  0  0  0  0  0  0  0  0
    9.2228  -15.3551   25.7765 N   0  0  0  0  0  0  0  0  0  0  0  0
    9.6026  -14.0863   27.7856 C   0  0  0  0  0  0  0  0  0  0  0  0
    9.6045  -12.9430   28.5546 O   0  0  0  0  0  0  0  0  0  0  0  0
   10.0283  -15.1718   28.2756 O   0  0  0  0  0  0  0  0  0  0  0  0
  2  1  1  1
  2  7  1  0
  2  3  1  0
  3  4  1  0
  4  5  1  0
  5  9  1  0
  6  5  2  0
  7  8  2  0
  7 10  1  0
 10 11  1  0
 11 15  1  0
 12 13  1  0
 11 12  1  6
 13 17  1  0
 14 13  2  0
 15 16  2  0
 15 21  1  0
 18 19  1  0
 20 19  1  1
 20 22  1  0
 21 20  1  0
 22 23  1  0
 24 22  2  0
M  END
$$$$
