EDS.pdb
     RDKit          3D

 24 23  0  0  1  0  0  0  0  0999 V2000
    9.1976  -12.9988   18.3067 N   0  0  0  0  0  0  0  0  0  0  0  0
    8.1763  -13.9678   18.6391 C   0  0  1  0  0  0  0  0  0  0  0  0
    7.8494  -14.7094   17.3374 C   0  0  0  0  0  0  0  0  0  0  0  0
    8.2722  -13.8211   16.1654 C   0  0  0  0  0  0  0  0  0  0  0  0
    7.9479  -14.5094   14.8969 C   0  0  0  0  0  0  0  0  0  0  0  0
    8.8380  -15.0619   14.2091 O   0  0  0  0  0  0  0  0  0  0  0  0
    8.7386  -14.9746   19.5572 C   0  0  0  0  0  0  0  0  0  0  0  0
    8.0043  -15.9304   19.9211 O   0  0  0  0  0  0  0  0  0  0  0  0
    6.6381  -14.5470   14.4565 O   0  0  0  0  0  0  0  0  0  0  0  0
   10.0709  -14.9153   20.0497 N   0  0  0  0  0  0  0  0  0  0  0  0
   10.4932  -15.9002   21.0338 C   0  0  1  0  0  0  0  0  0  0  0  0
   11.9709  -16.0930   20.8771 C   0  0  0  0  0  0  0  0  0  0  0  0
   12.5280  -17.0554   21.8185 C   0  0  0  0  0  0  0  0  0  0  0  0
   11.9041  -17.6882   22.6883 O   0  0  0  0  0  0  0  0  0  0  0  0
   10.1684  -15.3761   22.4075 C   0  0  0  0  0  0  0  0  0  0  0  0
   10.7559  -14.4395   22.9755 O   0  0  0  0  0  0  0  0  0  0  0  0
   13.9101  -17.3020   21.7456 O   0  0  0  0  0  0  0  0  0  0  0  0
    6.3964  -15.8131   24.2081 O   0  0  0  0  0  0  0  0  0  0  0  0
    7.3857  -14.9155   24.5750 C   0  0  0  0  0  0  0  0  0  0  0  0
    8.7748  -15.5111   24.5130 C   0  0  2  0  0  0  0  0  0  0  0  0
    9.0982  -15.9717   23.1723 N   0  0  0  0  0  0  0  0  0  0  0  0
    8.9078  -16.5909   25.4899 C   0  0  0  0  0  0  0  0  0  0  0  0
    8.7310  -16.3409   26.8333 O   0  0  0  0  0  0  0  0  0  0  0  0
    9.1866  -17.7619   25.1018 O   0  0  0  0  0  0  0  0  0  0  0  0
  2  1  1  6
  2  7  1  0
  2  3  1  0
  3  4  1  0
  4  5  1  0
  5  9  1  0
  6  5  2  0
  7  8  2  0
  7 10  1  0
 10 11  1  0
 11 15  1  0
 12 13  1  0
 11 12  1  1
 13 17  1  0
 14 13  2  0
 15 16  2  0
 15 21  1  0
 18 19  1  0
 20 19  1  6
 20 22  1  0
 21 20  1  0
 22 23  1  0
 24 22  2  0
M  END
$$$$
