EDS.pdb
     RDKit          3D

 24 23  0  0  1  0  0  0  0  0999 V2000
    8.9808  -17.5848   20.5553 N   0  0  0  0  0  0  0  0  0  0  0  0
    9.9403  -16.7016   21.1813 C   0  0  1  0  0  0  0  0  0  0  0  0
    9.3714  -15.2844   21.0438 C   0  0  0  0  0  0  0  0  0  0  0  0
    8.7880  -15.1410   19.6364 C   0  0  0  0  0  0  0  0  0  0  0  0
    8.1467  -13.8138   19.5130 C   0  0  0  0  0  0  0  0  0  0  0  0
    8.2017  -12.9744   20.4421 O   0  0  0  0  0  0  0  0  0  0  0  0
    9.9949  -16.9855   22.6267 C   0  0  0  0  0  0  0  0  0  0  0  0
    8.9485  -17.3899   23.1981 O   0  0  0  0  0  0  0  0  0  0  0  0
    7.4718  -13.4874   18.3516 O   0  0  0  0  0  0  0  0  0  0  0  0
   11.1743  -16.8234   23.4037 N   0  0  0  0  0  0  0  0  0  0  0  0
   11.1124  -17.1067   24.8295 C   0  0  1  0  0  0  0  0  0  0  0  0
   12.3205  -17.9197   25.1832 C   0  0  0  0  0  0  0  0  0  0  0  0
   12.3306  -19.2358   24.5585 C   0  0  0  0  0  0  0  0  0  0  0  0
   11.3839  -20.0406   24.5095 O   0  0  0  0  0  0  0  0  0  0  0  0
   11.1126  -15.8008   25.5790 C   0  0  0  0  0  0  0  0  0  0  0  0
   11.9928  -14.9269   25.4975 O   0  0  0  0  0  0  0  0  0  0  0  0
   13.5264  -19.6489   23.9456 O   0  0  0  0  0  0  0  0  0  0  0  0
    7.6209  -14.3112   27.1721 O   0  0  0  0  0  0  0  0  0  0  0  0
    8.7432  -13.5003   27.1299 C   0  0  0  0  0  0  0  0  0  0  0  0
   10.0349  -14.2729   27.2812 C   0  0  2  0  0  0  0  0  0  0  0  0
   10.0283  -15.4855   26.4789 N   0  0  0  0  0  0  0  0  0  0  0  0
   10.2848  -14.5723   28.6904 C   0  0  0  0  0  0  0  0  0  0  0  0
   10.4774  -15.8727   29.1030 O   0  0  0  0  0  0  0  0  0  0  0  0
   10.3249  -13.6337   29.5373 O   0  0  0  0  0  0  0  0  0  0  0  0
  2  1  1  6
  2  7  1  0
  2  3  1  0
  3  4  1  0
  4  5  1  0
  5  9  1  0
  6  5  2  0
  7  8  2  0
  7 10  1  0
 10 11  1  0
 11 15  1  0
 12 13  1  0
 11 12  1  1
 13 17  1  0
 14 13  2  0
 15 16  2  0
 15 21  1  0
 18 19  1  0
 20 19  1  1
 20 22  1  0
 21 20  1  0
 22 23  1  0
 24 22  2  0
M  END
$$$$
