HIN.pdb
     RDKit          3D

 27 27  0  0  1  0  0  0  0  0999 V2000
   19.3213  -12.6934  -18.7756 N   0  0  0  0  0  0  0  0  0  0  0  0
   19.8860  -11.3677  -18.8788 C   0  0  1  0  0  0  0  0  0  0  0  0
   18.7980  -10.4565  -19.4028 C   0  0  0  0  0  0  0  0  0  0  0  0
   18.5694  -10.8041  -20.8295 C   0  0  0  0  0  0  0  0  0  0  0  0
   19.0805  -10.1348  -21.9454 C   0  0  0  0  0  0  0  0  0  0  0  0
   18.6642  -10.7307  -23.0655 N   0  0  0  0  0  0  0  0  0  0  0  0
   17.8942  -11.7719  -22.6938 C   0  0  0  0  0  0  0  0  0  0  0  0
   17.8406  -11.8114  -21.3518 N   0  0  0  0  0  0  0  0  0  0  0  0
   20.4067  -10.8922  -17.5671 C   0  0  0  0  0  0  0  0  0  0  0  0
   19.7752  -11.2267  -16.5332 O   0  0  0  0  0  0  0  0  0  0  0  0
   25.0975  -12.1648  -15.8127 C   0  0  0  0  0  0  0  0  0  0  0  0
   23.7099  -11.6792  -15.8867 C   0  0  0  0  0  0  0  0  0  0  0  0
   23.4822  -10.2019  -15.9659 C   0  0  2  0  0  0  0  0  0  0  0  0
   24.0375   -9.6399  -14.6734 C   0  0  0  0  0  0  0  0  0  0  0  0
   22.0514   -9.7651  -16.1096 C   0  0  2  0  0  0  0  0  0  0  0  0
   21.5524  -10.1013  -17.4483 N   0  0  0  0  0  0  0  0  0  0  0  0
   22.0377   -8.2730  -16.0876 C   0  0  0  0  0  0  0  0  0  0  0  0
   22.5831   -7.6280  -17.0581 O   0  0  0  0  0  0  0  0  0  0  0  0
   21.4991   -3.2346  -15.4349 N   0  0  0  0  0  0  0  0  0  0  0  0
   20.2770   -3.9394  -15.6072 C   0  0  0  0  0  0  0  0  0  0  0  0
   19.2469   -3.2766  -15.8433 O   0  0  0  0  0  0  0  0  0  0  0  0
   20.1868   -5.4165  -15.5169 C   0  0  0  0  0  0  0  0  0  0  0  0
   21.5351   -6.0067  -15.1741 C   0  0  2  0  0  0  0  0  0  0  0  0
   21.4693   -7.4609  -15.0889 N   0  0  0  0  0  0  0  0  0  0  0  0
   21.9324   -5.4079  -13.8636 C   0  0  0  0  0  0  0  0  0  0  0  0
   21.5784   -6.0205  -12.8258 O   0  0  0  0  0  0  0  0  0  0  0  0
   22.6521   -4.2430  -13.7253 O   0  0  0  0  0  0  0  0  0  0  0  0
  2  1  1  1
  3  2  1  0
  4  3  1  0
  5  4  2  0
  6  7  1  0
  6  5  1  0
  7  8  2  0
  8  4  1  0
  9 16  1  0
  9  2  1  0
 10  9  2  0
 11 12  1  0
 13 15  1  0
 13 12  1  0
 13 14  1  1
 15 16  1  6
 17 18  2  0
 17 15  1  0
 20 19  1  0
 20 21  2  0
 23 22  1  1
 22 20  1  0
 23 24  1  0
 24 17  1  0
 25 23  1  0
 26 25  2  0
 27 25  1  0
M  END
$$$$
