HIN.pdb
     RDKit          3D

 27 27  0  0  1  0  0  0  0  0999 V2000
   25.7680  -21.8928  -13.3316 N   0  0  0  0  0  0  0  0  0  0  0  0
   24.8521  -21.1803  -14.1921 C   0  0  1  0  0  0  0  0  0  0  0  0
   23.4522  -21.6039  -13.8056 C   0  0  0  0  0  0  0  0  0  0  0  0
   23.2895  -23.0283  -14.1972 C   0  0  0  0  0  0  0  0  0  0  0  0
   24.2636  -23.8563  -14.7627 C   0  0  0  0  0  0  0  0  0  0  0  0
   23.7579  -25.0728  -14.9813 N   0  0  0  0  0  0  0  0  0  0  0  0
   22.4760  -25.0455  -14.5675 C   0  0  0  0  0  0  0  0  0  0  0  0
   22.2002  -23.8170  -14.0982 N   0  0  0  0  0  0  0  0  0  0  0  0
   25.0252  -19.7060  -14.0727 C   0  0  0  0  0  0  0  0  0  0  0  0
   25.2877  -19.2401  -12.9353 O   0  0  0  0  0  0  0  0  0  0  0  0
   27.2055  -14.8889  -14.6812 C   0  0  0  0  0  0  0  0  0  0  0  0
   26.7103  -15.5705  -15.8883 C   0  0  0  0  0  0  0  0  0  0  0  0
   26.4153  -17.0355  -15.8011 C   0  0  2  0  0  0  0  0  0  0  0  0
   26.1888  -17.4856  -17.2296 C   0  0  0  0  0  0  0  0  0  0  0  0
   25.2175  -17.4158  -14.9769 C   0  0  2  0  0  0  0  0  0  0  0  0
   24.9080  -18.8386  -15.1618 N   0  0  0  0  0  0  0  0  0  0  0  0
   24.0361  -16.7147  -15.5597 C   0  0  0  0  0  0  0  0  0  0  0  0
   23.5052  -17.1740  -16.6380 O   0  0  0  0  0  0  0  0  0  0  0  0
   19.8238  -13.9748  -16.6440 N   0  0  0  0  0  0  0  0  0  0  0  0
   20.2932  -13.5051  -15.3874 C   0  0  0  0  0  0  0  0  0  0  0  0
   19.6173  -12.6392  -14.7961 O   0  0  0  0  0  0  0  0  0  0  0  0
   21.5427  -14.0034  -14.7640 C   0  0  0  0  0  0  0  0  0  0  0  0
   22.2147  -15.0134  -15.6652 C   0  0  2  0  0  0  0  0  0  0  0  0
   23.4102  -15.5665  -15.0400 N   0  0  0  0  0  0  0  0  0  0  0  0
   22.5535  -14.2874  -16.9269 C   0  0  0  0  0  0  0  0  0  0  0  0
   23.4876  -13.4497  -16.8698 O   0  0  0  0  0  0  0  0  0  0  0  0
   21.9143  -14.4772  -18.1309 O   0  0  0  0  0  0  0  0  0  0  0  0
  2  1  1  1
  3  2  1  0
  4  3  1  0
  5  4  2  0
  6  7  1  0
  6  5  1  0
  7  8  2  0
  8  4  1  0
  9 16  1  0
  9  2  1  0
 10  9  2  0
 11 12  1  0
 13 15  1  0
 13 12  1  0
 13 14  1  6
 15 16  1  6
 17 18  2  0
 17 15  1  0
 20 19  1  0
 20 21  2  0
 23 22  1  1
 22 20  1  0
 23 24  1  0
 24 17  1  0
 25 23  1  0
 26 25  2  0
 27 25  1  0
M  END
$$$$
