HIN.pdb
     RDKit          3D

 27 27  0  0  1  0  0  0  0  0999 V2000
   22.7874  -15.5546  -17.9207 N   0  0  0  0  0  0  0  0  0  0  0  0
   23.0876  -14.2305  -18.4144 C   0  0  1  0  0  0  0  0  0  0  0  0
   21.8729  -13.7506  -19.1778 C   0  0  0  0  0  0  0  0  0  0  0  0
   21.7322  -14.6083  -20.3834 C   0  0  0  0  0  0  0  0  0  0  0  0
   22.5624  -14.6122  -21.5081 C   0  0  0  0  0  0  0  0  0  0  0  0
   22.1292  -15.5144  -22.3922 N   0  0  0  0  0  0  0  0  0  0  0  0
   21.0353  -16.0928  -21.8594 C   0  0  0  0  0  0  0  0  0  0  0  0
   20.8016  -15.5457  -20.6546 N   0  0  0  0  0  0  0  0  0  0  0  0
   23.4338  -13.2993  -17.3050 C   0  0  0  0  0  0  0  0  0  0  0  0
   22.8014  -13.4182  -16.2253 O   0  0  0  0  0  0  0  0  0  0  0  0
   28.3725  -12.8031  -15.6509 C   0  0  0  0  0  0  0  0  0  0  0  0
   26.9021  -12.7570  -15.7028 C   0  0  0  0  0  0  0  0  0  0  0  0
   26.2487  -11.4586  -16.0602 C   0  0  2  0  0  0  0  0  0  0  0  0
   26.5706  -10.5186  -14.9169 C   0  0  0  0  0  0  0  0  0  0  0  0
   24.7580  -11.5034  -16.2463 C   0  0  2  0  0  0  0  0  0  0  0  0
   24.4195  -12.3158  -17.4209 N   0  0  0  0  0  0  0  0  0  0  0  0
   24.3155  -10.1290  -16.6230 C   0  0  0  0  0  0  0  0  0  0  0  0
   24.5377   -9.7057  -17.8176 O   0  0  0  0  0  0  0  0  0  0  0  0
   21.1459   -6.2841  -17.5595 N   0  0  0  0  0  0  0  0  0  0  0  0
   20.7686   -7.6531  -17.6180 C   0  0  0  0  0  0  0  0  0  0  0  0
   19.6916   -7.9404  -18.1781 O   0  0  0  0  0  0  0  0  0  0  0  0
   21.6012   -8.7368  -17.0431 C   0  0  0  0  0  0  0  0  0  0  0  0
   22.8110   -8.1584  -16.3463 C   0  0  2  0  0  0  0  0  0  0  0  0
   23.6528   -9.2102  -15.7883 N   0  0  0  0  0  0  0  0  0  0  0  0
   22.2856   -7.2623  -15.2716 C   0  0  0  0  0  0  0  0  0  0  0  0
   21.9584   -7.8038  -14.1867 O   0  0  0  0  0  0  0  0  0  0  0  0
   22.1402   -5.8993  -15.3955 O   0  0  0  0  0  0  0  0  0  0  0  0
  2  1  1  1
  3  2  1  0
  4  3  1  0
  5  4  2  0
  6  7  1  0
  6  5  1  0
  7  8  2  0
  8  4  1  0
  9 16  1  0
  9  2  1  0
 10  9  2  0
 11 12  1  0
 13 15  1  0
 13 12  1  0
 13 14  1  1
 15 16  1  6
 17 18  2  0
 17 15  1  0
 20 19  1  0
 20 21  2  0
 23 22  1  1
 22 20  1  0
 23 24  1  0
 24 17  1  0
 25 23  1  0
 26 25  2  0
 27 25  1  0
M  END
$$$$
