HIN.pdb
     RDKit          3D

 27 27  0  0  1  0  0  0  0  0999 V2000
   14.0416  -20.2668    1.8323 N   0  0  0  0  0  0  0  0  0  0  0  0
   13.8015  -19.0555    2.5820 C   0  0  1  0  0  0  0  0  0  0  0  0
   12.8056  -19.3915    3.6700 C   0  0  0  0  0  0  0  0  0  0  0  0
   11.4955  -19.6473    3.0164 C   0  0  0  0  0  0  0  0  0  0  0  0
   10.8377  -18.8134    2.1074 C   0  0  0  0  0  0  0  0  0  0  0  0
    9.6833  -19.3689    1.7309 N   0  0  0  0  0  0  0  0  0  0  0  0
    9.5836  -20.5455    2.3796 C   0  0  0  0  0  0  0  0  0  0  0  0
   10.6730  -20.7076    3.1492 N   0  0  0  0  0  0  0  0  0  0  0  0
   15.0632  -18.5068    3.1522 C   0  0  0  0  0  0  0  0  0  0  0  0
   15.9375  -19.3271    3.5294 O   0  0  0  0  0  0  0  0  0  0  0  0
   19.0227  -13.9633    3.1507 C   0  0  0  0  0  0  0  0  0  0  0  0
   18.0710  -14.6370    4.0492 C   0  0  0  0  0  0  0  0  0  0  0  0
   16.8537  -15.2649    3.4456 C   0  0  2  0  0  0  0  0  0  0  0  0
   15.6929  -14.3986    3.8891 C   0  0  0  0  0  0  0  0  0  0  0  0
   16.5798  -16.6865    3.8490 C   0  0  2  0  0  0  0  0  0  0  0  0
   15.3040  -17.1365    3.2799 N   0  0  0  0  0  0  0  0  0  0  0  0
   16.3360  -16.6918    5.3212 C   0  0  0  0  0  0  0  0  0  0  0  0
   15.1550  -16.9550    5.7587 O   0  0  0  0  0  0  0  0  0  0  0  0
   16.3391  -17.2103   10.3827 N   0  0  0  0  0  0  0  0  0  0  0  0
   16.3955  -18.2913    9.4618 C   0  0  0  0  0  0  0  0  0  0  0  0
   16.1498  -19.4375    9.8884 O   0  0  0  0  0  0  0  0  0  0  0  0
   16.7321  -18.1047    8.0300 C   0  0  0  0  0  0  0  0  0  0  0  0
   16.9751  -16.6433    7.7320 C   0  0  2  0  0  0  0  0  0  0  0  0
   17.2900  -16.4363    6.3235 N   0  0  0  0  0  0  0  0  0  0  0  0
   18.1124  -16.2222    8.6056 C   0  0  0  0  0  0  0  0  0  0  0  0
   19.2569  -16.2154    8.0884 O   0  0  0  0  0  0  0  0  0  0  0  0
   17.9852  -15.8466    9.9236 O   0  0  0  0  0  0  0  0  0  0  0  0
  2  1  1  1
  3  2  1  0
  4  3  1  0
  5  4  2  0
  6  7  1  0
  6  5  1  0
  7  8  2  0
  8  4  1  0
  9 16  1  0
  9  2  1  0
 10  9  2  0
 11 12  1  0
 13 15  1  0
 13 12  1  0
 13 14  1  1
 15 16  1  6
 17 18  2  0
 17 15  1  0
 20 19  1  0
 20 21  2  0
 23 22  1  6
 22 20  1  0
 23 24  1  0
 24 17  1  0
 25 23  1  0
 26 25  2  0
 27 25  1  0
M  END
$$$$
