HIN.pdb
     RDKit          3D

 27 27  0  0  1  0  0  0  0  0999 V2000
   17.0264  -12.3086  -16.4439 N   0  0  0  0  0  0  0  0  0  0  0  0
   17.3696  -10.9146  -16.6049 C   0  0  1  0  0  0  0  0  0  0  0  0
   16.1653  -10.1042  -16.1789 C   0  0  0  0  0  0  0  0  0  0  0  0
   15.0927  -10.3324  -17.1820 C   0  0  0  0  0  0  0  0  0  0  0  0
   13.8103  -10.8317  -16.9359 C   0  0  0  0  0  0  0  0  0  0  0  0
   13.1204  -10.9008  -18.0771 N   0  0  0  0  0  0  0  0  0  0  0  0
   13.9332  -10.4557  -19.0551 C   0  0  0  0  0  0  0  0  0  0  0  0
   15.1147  -10.1161  -18.5129 N   0  0  0  0  0  0  0  0  0  0  0  0
   18.5755  -10.5535  -15.8090 C   0  0  0  0  0  0  0  0  0  0  0  0
   18.5708  -10.8339  -14.5839 O   0  0  0  0  0  0  0  0  0  0  0  0
   24.0132  -11.0744  -14.6715 C   0  0  0  0  0  0  0  0  0  0  0  0
   23.3911  -10.0116  -15.4779 C   0  0  0  0  0  0  0  0  0  0  0  0
   22.0871  -10.3076  -16.1507 C   0  0  2  0  0  0  0  0  0  0  0  0
   22.2352   -9.7811  -17.5633 C   0  0  0  0  0  0  0  0  0  0  0  0
   20.8701   -9.6851  -15.5261 C   0  0  2  0  0  0  0  0  0  0  0  0
   19.6916   -9.9251  -16.3673 N   0  0  0  0  0  0  0  0  0  0  0  0
   21.0512   -8.2048  -15.5787 C   0  0  0  0  0  0  0  0  0  0  0  0
   20.8456   -7.5886  -16.6894 O   0  0  0  0  0  0  0  0  0  0  0  0
   21.1227   -3.1631  -14.8922 N   0  0  0  0  0  0  0  0  0  0  0  0
   19.9663   -3.9189  -14.5584 C   0  0  0  0  0  0  0  0  0  0  0  0
   18.8932   -3.3049  -14.3924 O   0  0  0  0  0  0  0  0  0  0  0  0
   19.9924   -5.3931  -14.4031 C   0  0  0  0  0  0  0  0  0  0  0  0
   21.3895   -5.9222  -14.6311 C   0  0  2  0  0  0  0  0  0  0  0  0
   21.4312   -7.3745  -14.5082 N   0  0  0  0  0  0  0  0  0  0  0  0
   22.2563   -5.2696  -13.6031 C   0  0  0  0  0  0  0  0  0  0  0  0
   22.2447   -5.7654  -12.4492 O   0  0  0  0  0  0  0  0  0  0  0  0
   23.0554   -4.1742  -13.8392 O   0  0  0  0  0  0  0  0  0  0  0  0
  2  1  1  1
  3  2  1  0
  4  3  1  0
  5  4  2  0
  6  7  1  0
  6  5  1  0
  7  8  2  0
  8  4  1  0
  9 16  1  0
  9  2  1  0
 10  9  2  0
 11 12  1  0
 13 15  1  0
 13 12  1  0
 13 14  1  6
 15 16  1  6
 17 18  2  0
 17 15  1  0
 20 19  1  0
 20 21  2  0
 23 22  1  1
 22 20  1  0
 23 24  1  0
 24 17  1  0
 25 23  1  0
 26 25  2  0
 27 25  1  0
M  END
$$$$
