HIN.pdb
     RDKit          3D

 27 27  0  0  1  0  0  0  0  0999 V2000
   21.4467  -14.4239  -17.4570 N   0  0  0  0  0  0  0  0  0  0  0  0
   21.6383  -13.0166  -17.7208 C   0  0  1  0  0  0  0  0  0  0  0  0
   20.2727  -12.4186  -17.9780 C   0  0  0  0  0  0  0  0  0  0  0  0
   19.7588  -13.0010  -19.2451 C   0  0  0  0  0  0  0  0  0  0  0  0
   20.2598  -12.7788  -20.5311 C   0  0  0  0  0  0  0  0  0  0  0  0
   19.5464  -13.4685  -21.4246 N   0  0  0  0  0  0  0  0  0  0  0  0
   18.5945  -14.1318  -20.7397 C   0  0  0  0  0  0  0  0  0  0  0  0
   18.7263  -13.8479  -19.4330 N   0  0  0  0  0  0  0  0  0  0  0  0
   22.3233  -12.3365  -16.5866 C   0  0  0  0  0  0  0  0  0  0  0  0
   21.8953  -12.5631  -15.4268 O   0  0  0  0  0  0  0  0  0  0  0  0
   27.6981  -11.9026  -16.3291 C   0  0  0  0  0  0  0  0  0  0  0  0
   26.2670  -11.9897  -15.9956 C   0  0  0  0  0  0  0  0  0  0  0  0
   25.5093  -10.7140  -15.7980 C   0  0  2  0  0  0  0  0  0  0  0  0
   26.1194  -10.0703  -14.5699 C   0  0  0  0  0  0  0  0  0  0  0  0
   24.0282  -10.8563  -15.5859 C   0  0  2  0  0  0  0  0  0  0  0  0
   23.4058  -11.4711  -16.7643 N   0  0  0  0  0  0  0  0  0  0  0  0
   23.4497   -9.4812  -15.5527 C   0  0  0  0  0  0  0  0  0  0  0  0
   23.7198   -8.7127  -14.5568 O   0  0  0  0  0  0  0  0  0  0  0  0
   20.0316   -5.0183  -18.1257 N   0  0  0  0  0  0  0  0  0  0  0  0
   21.1657   -5.5828  -17.4815 C   0  0  0  0  0  0  0  0  0  0  0  0
   21.8492   -4.8435  -16.7450 O   0  0  0  0  0  0  0  0  0  0  0  0
   21.5584   -7.0020  -17.6533 C   0  0  0  0  0  0  0  0  0  0  0  0
   22.0471   -7.5757  -16.3435 C   0  0  2  0  0  0  0  0  0  0  0  0
   22.6137   -8.9065  -16.5280 N   0  0  0  0  0  0  0  0  0  0  0  0
   20.8598   -7.6169  -15.4365 C   0  0  0  0  0  0  0  0  0  0  0  0
   19.9633   -8.4536  -15.7080 O   0  0  0  0  0  0  0  0  0  0  0  0
   20.6903   -6.8062  -14.3374 O   0  0  0  0  0  0  0  0  0  0  0  0
  2  1  1  1
  3  2  1  0
  4  3  1  0
  5  4  2  0
  6  7  1  0
  6  5  1  0
  7  8  2  0
  8  4  1  0
  9 16  1  0
  9  2  1  0
 10  9  2  0
 11 12  1  0
 13 15  1  0
 13 12  1  0
 13 14  1  1
 15 16  1  6
 17 18  2  0
 17 15  1  0
 20 19  1  0
 20 21  2  0
 23 22  1  6
 22 20  1  0
 23 24  1  0
 24 17  1  0
 25 23  1  0
 26 25  2  0
 27 25  1  0
M  END
$$$$
