HIN.pdb
     RDKit          3D

 27 27  0  0  1  0  0  0  0  0999 V2000
   19.4067  -13.2472  -16.9153 N   0  0  0  0  0  0  0  0  0  0  0  0
   19.9925  -11.9762  -17.2734 C   0  0  1  0  0  0  0  0  0  0  0  0
   18.8536  -11.0195  -17.5496 C   0  0  0  0  0  0  0  0  0  0  0  0
   18.1913  -11.4600  -18.8050 C   0  0  0  0  0  0  0  0  0  0  0  0
   18.5779  -11.1421  -20.1103 C   0  0  0  0  0  0  0  0  0  0  0  0
   17.7474  -11.7152  -20.9849 N   0  0  0  0  0  0  0  0  0  0  0  0
   16.8322  -12.3970  -20.2688 C   0  0  0  0  0  0  0  0  0  0  0  0
   17.1029  -12.2406  -18.9621 N   0  0  0  0  0  0  0  0  0  0  0  0
   20.8835  -11.4624  -16.1963 C   0  0  0  0  0  0  0  0  0  0  0  0
   20.4997  -11.5998  -15.0074 O   0  0  0  0  0  0  0  0  0  0  0  0
   26.8648  -10.5019  -15.0219 C   0  0  0  0  0  0  0  0  0  0  0  0
   25.4403  -10.3858  -14.6690 C   0  0  0  0  0  0  0  0  0  0  0  0
   24.4242  -10.7445  -15.7080 C   0  0  2  0  0  0  0  0  0  0  0  0
   24.7649   -9.8936  -16.9139 C   0  0  0  0  0  0  0  0  0  0  0  0
   22.9890  -10.5025  -15.3334 C   0  0  2  0  0  0  0  0  0  0  0  0
   22.1089  -10.8441  -16.4572 N   0  0  0  0  0  0  0  0  0  0  0  0
   22.8128   -9.0290  -15.1768 C   0  0  0  0  0  0  0  0  0  0  0  0
   23.4809   -8.4123  -14.2664 O   0  0  0  0  0  0  0  0  0  0  0  0
   23.8155   -3.6416  -16.2082 N   0  0  0  0  0  0  0  0  0  0  0  0
   23.0730   -4.6425  -15.5251 C   0  0  0  0  0  0  0  0  0  0  0  0
   22.2911   -4.2789  -14.6236 O   0  0  0  0  0  0  0  0  0  0  0  0
   23.1950   -6.0853  -15.8439 C   0  0  0  0  0  0  0  0  0  0  0  0
   21.8620   -6.7769  -15.6741 C   0  0  2  0  0  0  0  0  0  0  0  0
   21.9695   -8.2055  -15.9454 N   0  0  0  0  0  0  0  0  0  0  0  0
   20.9235   -6.1160  -16.6314 C   0  0  0  0  0  0  0  0  0  0  0  0
   20.5690   -6.7830  -17.6349 O   0  0  0  0  0  0  0  0  0  0  0  0
   20.4304   -4.8397  -16.4836 O   0  0  0  0  0  0  0  0  0  0  0  0
  2  1  1  1
  3  2  1  0
  4  3  1  0
  5  4  2  0
  6  7  1  0
  6  5  1  0
  7  8  2  0
  8  4  1  0
  9 16  1  0
  9  2  1  0
 10  9  2  0
 11 12  1  0
 13 15  1  0
 13 12  1  0
 13 14  1  6
 15 16  1  6
 17 18  2  0
 17 15  1  0
 20 19  1  0
 20 21  2  0
 23 22  1  6
 22 20  1  0
 23 24  1  0
 24 17  1  0
 25 23  1  0
 26 25  2  0
 27 25  1  0
M  END
$$$$
