HIN.pdb
     RDKit          3D

 27 27  0  0  1  0  0  0  0  0999 V2000
   23.5877  -16.8702  -17.1558 N   0  0  0  0  0  0  0  0  0  0  0  0
   23.1445  -15.5687  -17.5991 C   0  0  1  0  0  0  0  0  0  0  0  0
   21.6684  -15.6800  -17.9111 C   0  0  0  0  0  0  0  0  0  0  0  0
   21.5242  -16.5777  -19.0868 C   0  0  0  0  0  0  0  0  0  0  0  0
   21.8418  -16.2746  -20.4140 C   0  0  0  0  0  0  0  0  0  0  0  0
   21.5808  -17.3242  -21.1971 N   0  0  0  0  0  0  0  0  0  0  0  0
   21.1008  -18.2990  -20.4005 C   0  0  0  0  0  0  0  0  0  0  0  0
   21.0689  -17.8461  -19.1359 N   0  0  0  0  0  0  0  0  0  0  0  0
   23.4042  -14.5235  -16.5705 C   0  0  0  0  0  0  0  0  0  0  0  0
   22.9167  -14.6987  -15.4254 O   0  0  0  0  0  0  0  0  0  0  0  0
   28.2919  -12.9312  -15.5708 C   0  0  0  0  0  0  0  0  0  0  0  0
   26.8506  -13.1917  -15.4235 C   0  0  0  0  0  0  0  0  0  0  0  0
   25.8974  -12.0778  -15.7255 C   0  0  2  0  0  0  0  0  0  0  0  0
   26.1364  -11.0410  -14.6473 C   0  0  0  0  0  0  0  0  0  0  0  0
   24.4400  -12.4446  -15.7312 C   0  0  2  0  0  0  0  0  0  0  0  0
   24.1574  -13.3757  -16.8300 N   0  0  0  0  0  0  0  0  0  0  0  0
   23.6741  -11.2172  -16.0971 C   0  0  0  0  0  0  0  0  0  0  0  0
   23.9393  -10.6219  -17.2065 O   0  0  0  0  0  0  0  0  0  0  0  0
   20.5233   -7.2085  -16.6924 N   0  0  0  0  0  0  0  0  0  0  0  0
   19.8199   -8.2540  -16.0351 C   0  0  0  0  0  0  0  0  0  0  0  0
   18.5919   -8.1163  -15.8639 O   0  0  0  0  0  0  0  0  0  0  0  0
   20.4879   -9.4864  -15.5526 C   0  0  0  0  0  0  0  0  0  0  0  0
   21.9758   -9.4132  -15.8066 C   0  0  2  0  0  0  0  0  0  0  0  0
   22.6519  -10.6174  -15.3387 N   0  0  0  0  0  0  0  0  0  0  0  0
   22.4650   -8.2033  -15.0780 C   0  0  0  0  0  0  0  0  0  0  0  0
   22.7847   -8.3537  -13.8727 O   0  0  0  0  0  0  0  0  0  0  0  0
   22.5853   -6.9519  -15.6381 O   0  0  0  0  0  0  0  0  0  0  0  0
  2  1  1  1
  3  2  1  0
  4  3  1  0
  5  4  2  0
  6  7  1  0
  6  5  1  0
  7  8  2  0
  8  4  1  0
  9 16  1  0
  9  2  1  0
 10  9  2  0
 11 12  1  0
 13 15  1  0
 13 12  1  0
 13 14  1  1
 15 16  1  6
 17 18  2  0
 17 15  1  0
 20 19  1  0
 20 21  2  0
 23 22  1  1
 22 20  1  0
 23 24  1  0
 24 17  1  0
 25 23  1  0
 26 25  2  0
 27 25  1  0
M  END
$$$$
