HIN.pdb
     RDKit          3D

 27 27  0  0  1  0  0  0  0  0999 V2000
   20.8121  -14.0503  -17.5804 N   0  0  0  0  0  0  0  0  0  0  0  0
   20.9588  -12.6428  -17.8709 C   0  0  1  0  0  0  0  0  0  0  0  0
   19.5740  -12.0918  -18.1302 C   0  0  0  0  0  0  0  0  0  0  0  0
   19.0947  -12.6672  -19.4140 C   0  0  0  0  0  0  0  0  0  0  0  0
   19.8513  -13.3921  -20.3394 C   0  0  0  0  0  0  0  0  0  0  0  0
   19.0868  -13.7495  -21.3743 N   0  0  0  0  0  0  0  0  0  0  0  0
   17.8512  -13.2689  -21.1344 C   0  0  0  0  0  0  0  0  0  0  0  0
   17.8614  -12.6207  -19.9575 N   0  0  0  0  0  0  0  0  0  0  0  0
   21.6291  -11.9214  -16.7537 C   0  0  0  0  0  0  0  0  0  0  0  0
   21.2803  -12.2097  -15.5811 O   0  0  0  0  0  0  0  0  0  0  0  0
   26.8864  -10.2887  -14.4850 C   0  0  0  0  0  0  0  0  0  0  0  0
   25.4618   -9.9515  -14.6394 C   0  0  0  0  0  0  0  0  0  0  0  0
   24.6855  -10.6424  -15.7168 C   0  0  2  0  0  0  0  0  0  0  0  0
   25.3555  -10.2414  -17.0148 C   0  0  0  0  0  0  0  0  0  0  0  0
   23.2251  -10.2970  -15.7979 C   0  0  2  0  0  0  0  0  0  0  0  0
   22.6146  -10.9527  -16.9604 N   0  0  0  0  0  0  0  0  0  0  0  0
   23.1293   -8.8424  -16.1170 C   0  0  0  0  0  0  0  0  0  0  0  0
   23.1525   -8.4691  -17.3481 O   0  0  0  0  0  0  0  0  0  0  0  0
   21.6634   -5.4898  -18.0231 N   0  0  0  0  0  0  0  0  0  0  0  0
   20.6582   -6.2035  -17.3159 C   0  0  0  0  0  0  0  0  0  0  0  0
   19.5299   -6.2993  -17.8393 O   0  0  0  0  0  0  0  0  0  0  0  0
   20.9025   -6.8296  -15.9944 C   0  0  0  0  0  0  0  0  0  0  0  0
   22.3162   -6.5568  -15.5354 C   0  0  2  0  0  0  0  0  0  0  0  0
   23.0068   -7.7930  -15.1875 N   0  0  0  0  0  0  0  0  0  0  0  0
   22.2038   -5.6513  -14.3516 C   0  0  0  0  0  0  0  0  0  0  0  0
   22.0676   -6.1956  -13.2280 O   0  0  0  0  0  0  0  0  0  0  0  0
   22.2399   -4.2770  -14.4156 O   0  0  0  0  0  0  0  0  0  0  0  0
  2  1  1  1
  3  2  1  0
  4  3  1  0
  5  4  2  0
  6  7  1  0
  6  5  1  0
  7  8  2  0
  8  4  1  0
  9 16  1  0
  9  2  1  0
 10  9  2  0
 11 12  1  0
 13 15  1  0
 13 12  1  0
 13 14  1  6
 15 16  1  6
 17 18  2  0
 17 15  1  0
 20 19  1  0
 20 21  2  0
 23 22  1  1
 22 20  1  0
 23 24  1  0
 24 17  1  0
 25 23  1  0
 26 25  2  0
 27 25  1  0
M  END
$$$$
