HIN.pdb
     RDKit          3D

 27 27  0  0  1  0  0  0  0  0999 V2000
   16.8832  -12.1944  -15.5047 N   0  0  0  0  0  0  0  0  0  0  0  0
   17.4432  -10.9682  -16.0242 C   0  0  1  0  0  0  0  0  0  0  0  0
   16.3380   -9.9352  -16.0240 C   0  0  0  0  0  0  0  0  0  0  0  0
   15.3403  -10.3446  -17.0467 C   0  0  0  0  0  0  0  0  0  0  0  0
   15.5162  -10.3441  -18.4335 C   0  0  0  0  0  0  0  0  0  0  0  0
   14.4048  -10.7755  -19.0350 N   0  0  0  0  0  0  0  0  0  0  0  0
   13.5149  -11.0543  -18.0626 C   0  0  0  0  0  0  0  0  0  0  0  0
   14.0810  -10.7941  -16.8721 N   0  0  0  0  0  0  0  0  0  0  0  0
   18.6094  -10.5150  -15.2164 C   0  0  0  0  0  0  0  0  0  0  0  0
   18.5206  -10.6004  -13.9656 O   0  0  0  0  0  0  0  0  0  0  0  0
   23.2950  -12.6520  -15.5067 C   0  0  0  0  0  0  0  0  0  0  0  0
   22.1225  -11.8666  -15.0878 C   0  0  0  0  0  0  0  0  0  0  0  0
   22.1386  -10.3897  -15.3309 C   0  0  2  0  0  0  0  0  0  0  0  0
   23.3145   -9.8640  -14.5337 C   0  0  0  0  0  0  0  0  0  0  0  0
   20.9009   -9.6433  -14.9191 C   0  0  2  0  0  0  0  0  0  0  0  0
   19.7776  -10.0075  -15.7908 N   0  0  0  0  0  0  0  0  0  0  0  0
   21.1320   -8.1997  -15.2187 C   0  0  0  0  0  0  0  0  0  0  0  0
   20.9299   -7.7687  -16.4140 O   0  0  0  0  0  0  0  0  0  0  0  0
   19.7227   -2.8177  -14.7843 N   0  0  0  0  0  0  0  0  0  0  0  0
   20.3187   -3.8860  -15.5078 C   0  0  0  0  0  0  0  0  0  0  0  0
   20.9325   -3.6111  -16.5585 O   0  0  0  0  0  0  0  0  0  0  0  0
   20.2366   -5.2974  -15.0614 C   0  0  0  0  0  0  0  0  0  0  0  0
   21.6063   -5.8103  -14.6813 C   0  0  2  0  0  0  0  0  0  0  0  0
   21.5578   -7.2182  -14.3048 N   0  0  0  0  0  0  0  0  0  0  0  0
   22.0677   -4.9632  -13.5396 C   0  0  0  0  0  0  0  0  0  0  0  0
   21.8131   -5.3783  -12.3819 O   0  0  0  0  0  0  0  0  0  0  0  0
   22.7449   -3.7729  -13.6763 O   0  0  0  0  0  0  0  0  0  0  0  0
  2  1  1  1
  3  2  1  0
  4  3  1  0
  5  4  2  0
  6  7  1  0
  6  5  1  0
  7  8  2  0
  8  4  1  0
  9 16  1  0
  9  2  1  0
 10  9  2  0
 11 12  1  0
 13 15  1  0
 13 12  1  0
 13 14  1  1
 15 16  1  6
 17 18  2  0
 17 15  1  0
 20 19  1  0
 20 21  2  0
 23 22  1  1
 22 20  1  0
 23 24  1  0
 24 17  1  0
 25 23  1  0
 26 25  2  0
 27 25  1  0
M  END
$$$$
