HIN.pdb
     RDKit          3D

 27 27  0  0  1  0  0  0  0  0999 V2000
   17.5837  -12.5661  -16.4919 N   0  0  0  0  0  0  0  0  0  0  0  0
   18.2271  -11.3239  -16.8524 C   0  0  1  0  0  0  0  0  0  0  0  0
   17.1495  -10.3921  -17.3615 C   0  0  0  0  0  0  0  0  0  0  0  0
   16.6158  -10.9691  -18.6228 C   0  0  0  0  0  0  0  0  0  0  0  0
   15.3392  -11.5020  -18.8240 C   0  0  0  0  0  0  0  0  0  0  0  0
   15.2151  -11.9271  -20.0838 N   0  0  0  0  0  0  0  0  0  0  0  0
   16.3874  -11.6786  -20.6995 C   0  0  0  0  0  0  0  0  0  0  0  0
   17.2240  -11.1041  -19.8189 N   0  0  0  0  0  0  0  0  0  0  0  0
   18.9556  -10.7307  -15.6968 C   0  0  0  0  0  0  0  0  0  0  0  0
   18.4127  -10.8037  -14.5657 O   0  0  0  0  0  0  0  0  0  0  0  0
   23.9636  -12.0927  -14.7338 C   0  0  0  0  0  0  0  0  0  0  0  0
   22.5851  -11.5992  -14.5817 C   0  0  0  0  0  0  0  0  0  0  0  0
   22.3485  -10.1244  -14.6788 C   0  0  2  0  0  0  0  0  0  0  0  0
   23.0988   -9.5193  -13.5102 C   0  0  0  0  0  0  0  0  0  0  0  0
   20.9130   -9.6842  -14.6137 C   0  0  2  0  0  0  0  0  0  0  0  0
   20.1994  -10.1070  -15.8246 N   0  0  0  0  0  0  0  0  0  0  0  0
   20.9008   -8.1941  -14.6938 C   0  0  0  0  0  0  0  0  0  0  0  0
   21.3771   -7.5111  -13.7130 O   0  0  0  0  0  0  0  0  0  0  0  0
   20.5883   -3.1890  -15.8147 N   0  0  0  0  0  0  0  0  0  0  0  0
   21.7957   -3.9362  -15.7531 C   0  0  0  0  0  0  0  0  0  0  0  0
   22.8741   -3.3098  -15.7798 O   0  0  0  0  0  0  0  0  0  0  0  0
   21.8160   -5.4157  -15.6595 C   0  0  0  0  0  0  0  0  0  0  0  0
   20.4091   -5.9657  -15.7014 C   0  0  2  0  0  0  0  0  0  0  0  0
   20.4127   -7.4224  -15.7644 N   0  0  0  0  0  0  0  0  0  0  0  0
   19.7658   -5.3758  -16.9147 C   0  0  0  0  0  0  0  0  0  0  0  0
   19.5774   -4.1340  -16.9138 O   0  0  0  0  0  0  0  0  0  0  0  0
   19.3726   -6.0989  -18.0178 O   0  0  0  0  0  0  0  0  0  0  0  0
  2  1  1  1
  3  2  1  0
  4  3  1  0
  5  4  2  0
  6  7  1  0
  6  5  1  0
  7  8  2  0
  8  4  1  0
  9 16  1  0
  9  2  1  0
 10  9  2  0
 11 12  1  0
 13 15  1  0
 13 12  1  0
 13 14  1  1
 15 16  1  6
 17 18  2  0
 17 15  1  0
 20 19  1  0
 20 21  2  0
 23 22  1  6
 22 20  1  0
 23 24  1  0
 24 17  1  0
 25 23  1  0
 26 25  2  0
 27 25  1  0
M  END
$$$$
