HIN.pdb
     RDKit          3D

 27 27  0  0  1  0  0  0  0  0999 V2000
   28.4540  -24.6556  -17.6322 N   0  0  0  0  0  0  0  0  0  0  0  0
   27.2767  -23.8347  -17.4683 C   0  0  1  0  0  0  0  0  0  0  0  0
   26.1165  -24.7649  -17.1908 C   0  0  0  0  0  0  0  0  0  0  0  0
   25.7257  -25.3927  -18.4801 C   0  0  0  0  0  0  0  0  0  0  0  0
   25.8336  -26.7448  -18.8182 C   0  0  0  0  0  0  0  0  0  0  0  0
   25.3850  -26.9421  -20.0603 N   0  0  0  0  0  0  0  0  0  0  0  0
   24.9896  -25.7430  -20.5303 C   0  0  0  0  0  0  0  0  0  0  0  0
   25.1962  -24.8172  -19.5786 N   0  0  0  0  0  0  0  0  0  0  0  0
   27.4509  -22.8426  -16.3713 C   0  0  0  0  0  0  0  0  0  0  0  0
   28.1543  -23.1805  -15.3860 O   0  0  0  0  0  0  0  0  0  0  0  0
   27.9214  -18.2750  -18.1191 C   0  0  0  0  0  0  0  0  0  0  0  0
   28.2718  -18.8318  -16.8023 C   0  0  0  0  0  0  0  0  0  0  0  0
   27.1579  -19.2108  -15.8770 C   0  0  2  0  0  0  0  0  0  0  0  0
   27.2496  -18.2393  -14.7185 C   0  0  0  0  0  0  0  0  0  0  0  0
   27.2005  -20.6133  -15.3385 C   0  0  2  0  0  0  0  0  0  0  0  0
   26.8698  -21.5722  -16.3992 N   0  0  0  0  0  0  0  0  0  0  0  0
   26.0749  -20.7514  -14.3684 C   0  0  0  0  0  0  0  0  0  0  0  0
   24.8942  -21.0052  -14.8123 O   0  0  0  0  0  0  0  0  0  0  0  0
   22.8276  -20.9999  -10.3770 N   0  0  0  0  0  0  0  0  0  0  0  0
   24.0889  -20.6241   -9.8407 C   0  0  0  0  0  0  0  0  0  0  0  0
   24.1648  -20.4159   -8.6131 O   0  0  0  0  0  0  0  0  0  0  0  0
   25.3015  -20.4733  -10.6804 C   0  0  0  0  0  0  0  0  0  0  0  0
   24.9825  -20.7771  -12.1259 C   0  0  2  0  0  0  0  0  0  0  0  0
   26.1638  -20.6358  -12.9689 N   0  0  0  0  0  0  0  0  0  0  0  0
   23.9143  -19.8128  -12.5296 C   0  0  0  0  0  0  0  0  0  0  0  0
   24.2606  -18.6182  -12.7042 O   0  0  0  0  0  0  0  0  0  0  0  0
   22.5930  -20.1479  -12.7194 O   0  0  0  0  0  0  0  0  0  0  0  0
  2  1  1  1
  3  2  1  0
  4  3  1  0
  5  4  2  0
  6  7  1  0
  6  5  1  0
  7  8  2  0
  8  4  1  0
  9 16  1  0
  9  2  1  0
 10  9  2  0
 11 12  1  0
 13 15  1  0
 13 12  1  0
 13 14  1  1
 15 16  1  6
 17 18  2  0
 17 15  1  0
 20 19  1  0
 20 21  2  0
 23 22  1  1
 22 20  1  0
 23 24  1  0
 24 17  1  0
 25 23  1  0
 26 25  2  0
 27 25  1  0
M  END
$$$$
