HIN.pdb
     RDKit          3D

 27 27  0  0  1  0  0  0  0  0999 V2000
   28.2272  -19.7487  -15.9419 N   0  0  0  0  0  0  0  0  0  0  0  0
   27.0394  -19.0766  -15.4681 C   0  0  1  0  0  0  0  0  0  0  0  0
   26.3701  -18.4481  -16.6705 C   0  0  0  0  0  0  0  0  0  0  0  0
   27.2624  -17.3689  -17.1683 C   0  0  0  0  0  0  0  0  0  0  0  0
   27.1338  -15.9985  -16.9238 C   0  0  0  0  0  0  0  0  0  0  0  0
   28.1179  -15.3318  -17.5322 N   0  0  0  0  0  0  0  0  0  0  0  0
   28.8792  -16.2459  -18.1647 C   0  0  0  0  0  0  0  0  0  0  0  0
   28.3617  -17.4660  -17.9433 N   0  0  0  0  0  0  0  0  0  0  0  0
   26.1224  -20.0174  -14.7669 C   0  0  0  0  0  0  0  0  0  0  0  0
   25.9223  -21.1397  -15.2962 O   0  0  0  0  0  0  0  0  0  0  0  0
   26.5159  -20.7447   -9.4275 C   0  0  0  0  0  0  0  0  0  0  0  0
   26.2329  -21.0019  -10.8490 C   0  0  0  0  0  0  0  0  0  0  0  0
   24.8907  -20.6105  -11.3837 C   0  0  2  0  0  0  0  0  0  0  0  0
   23.9006  -21.5256  -10.6931 C   0  0  0  0  0  0  0  0  0  0  0  0
   24.7138  -20.7383  -12.8707 C   0  0  2  0  0  0  0  0  0  0  0  0
   25.4883  -19.7012  -13.5627 N   0  0  0  0  0  0  0  0  0  0  0  0
   23.2958  -20.3922  -13.1811 C   0  0  0  0  0  0  0  0  0  0  0  0
   22.8626  -19.2147  -12.8961 O   0  0  0  0  0  0  0  0  0  0  0  0
   18.4427  -19.8930  -14.7476 N   0  0  0  0  0  0  0  0  0  0  0  0
   19.1127  -20.7829  -15.6303 C   0  0  0  0  0  0  0  0  0  0  0  0
   18.5353  -21.1032  -16.6887 O   0  0  0  0  0  0  0  0  0  0  0  0
   20.4571  -21.3358  -15.3391 C   0  0  0  0  0  0  0  0  0  0  0  0
   20.9848  -20.7796  -14.0368 C   0  0  2  0  0  0  0  0  0  0  0  0
   22.3440  -21.2396  -13.7777 N   0  0  0  0  0  0  0  0  0  0  0  0
   20.0460  -21.2469  -12.9719 C   0  0  0  0  0  0  0  0  0  0  0  0
   20.2747  -22.3724  -12.4635 O   0  0  0  0  0  0  0  0  0  0  0  0
   18.9613  -20.5303  -12.5200 O   0  0  0  0  0  0  0  0  0  0  0  0
  2  1  1  6
  3  2  1  0
  4  3  1  0
  5  4  2  0
  6  7  1  0
  6  5  1  0
  7  8  2  0
  8  4  1  0
  9 16  1  0
  9  2  1  0
 10  9  2  0
 11 12  1  0
 13 15  1  0
 13 12  1  0
 13 14  1  1
 15 16  1  6
 17 18  2  0
 17 15  1  0
 20 19  1  0
 20 21  2  0
 23 22  1  6
 22 20  1  0
 23 24  1  0
 24 17  1  0
 25 23  1  0
 26 25  2  0
 27 25  1  0
M  END
$$$$
