AKN.pdb
     RDKit          3D

 23 22  0  0  1  0  0  0  0  0999 V2000
   25.4432  -24.2411  -17.9347 C   0  0  0  0  0  0  0  0  0  0  0  0
   26.2005  -23.8560  -16.6821 C   0  0  2  0  0  0  0  0  0  0  0  0
   26.8529  -25.0135  -16.1139 N   0  0  0  0  0  0  0  0  0  0  0  0
   25.2881  -23.2641  -15.6749 C   0  0  0  0  0  0  0  0  0  0  0  0
   24.0452  -23.4236  -15.7036 O   0  0  0  0  0  0  0  0  0  0  0  0
   25.8105  -22.4616  -14.5962 N   0  0  0  0  0  0  0  0  0  0  0  0
   24.9613  -21.9376  -13.5481 C   0  0  1  0  0  0  0  0  0  0  0  0
   25.8395  -21.3050  -12.4754 C   0  0  0  0  0  0  0  0  0  0  0  0
   25.1148  -21.2845  -11.1797 C   0  0  0  0  0  0  0  0  0  0  0  0
   25.9314  -20.7868  -10.0225 C   0  0  0  0  0  0  0  0  0  0  0  0
   25.2125  -20.8509   -8.7089 C   0  0  0  0  0  0  0  0  0  0  0  0
   26.1272  -20.4043   -7.6749 N   0  0  0  0  0  0  0  0  0  0  0  0
   23.9977  -20.9710  -14.1050 C   0  0  0  0  0  0  0  0  0  0  0  0
   24.3967  -20.1218  -14.9309 O   0  0  0  0  0  0  0  0  0  0  0  0
   20.9270  -18.3003  -17.1628 N   0  0  0  0  0  0  0  0  0  0  0  0
   20.4723  -19.4977  -16.5049 C   0  0  0  0  0  0  0  0  0  0  0  0
   19.2744  -19.8080  -16.4807 O   0  0  0  0  0  0  0  0  0  0  0  0
   21.5181  -20.3327  -15.8616 C   0  0  0  0  0  0  0  0  0  0  0  0
   21.6837  -20.0682  -14.3950 C   0  0  2  0  0  0  0  0  0  0  0  0
   22.6234  -20.9571  -13.7451 N   0  0  0  0  0  0  0  0  0  0  0  0
   20.3677  -20.0708  -13.6970 C   0  0  0  0  0  0  0  0  0  0  0  0
   19.5957  -18.9468  -13.5700 O   0  0  0  0  0  0  0  0  0  0  0  0
   19.9550  -21.1520  -13.2069 O   0  0  0  0  0  0  0  0  0  0  0  0
  2  1  1  6
  2  4  1  0
  3  2  1  0
  4  5  2  0
  4  6  1  0
  6  7  1  0
  7  8  1  1
  7 13  1  0
  8  9  1  0
  9 10  1  0
 10 11  1  0
 11 12  1  0
 13 14  2  0
 16 15  1  0
 16 18  1  0
 17 16  2  0
 19 18  1  6
 20 13  1  0
 20 19  1  0
 21 19  1  0
 21 22  1  0
 23 21  2  0
M  END
$$$$
