AKN.pdb
     RDKit          3D

 23 22  0  0  1  0  0  0  0  0999 V2000
   27.7589  -18.7612  -18.6560 C   0  0  0  0  0  0  0  0  0  0  0  0
   27.2176  -17.9761  -17.4807 C   0  0  2  0  0  0  0  0  0  0  0  0
   28.3016  -17.5076  -16.6478 N   0  0  0  0  0  0  0  0  0  0  0  0
   26.2996  -18.8088  -16.6677 C   0  0  0  0  0  0  0  0  0  0  0  0
   25.5893  -19.7180  -17.1577 O   0  0  0  0  0  0  0  0  0  0  0  0
   26.1865  -18.5981  -15.2453 N   0  0  0  0  0  0  0  0  0  0  0  0
   25.2647  -19.3571  -14.4275 C   0  0  1  0  0  0  0  0  0  0  0  0
   25.7825  -19.3772  -12.9945 C   0  0  0  0  0  0  0  0  0  0  0  0
   24.8535  -20.1537  -12.1350 C   0  0  0  0  0  0  0  0  0  0  0  0
   25.2859  -20.2667  -10.7018 C   0  0  0  0  0  0  0  0  0  0  0  0
   24.3248  -21.0322   -9.8435 C   0  0  0  0  0  0  0  0  0  0  0  0
   24.8379  -21.0323   -8.4862 N   0  0  0  0  0  0  0  0  0  0  0  0
   23.9110  -18.7797  -14.5110 C   0  0  0  0  0  0  0  0  0  0  0  0
   23.7838  -17.5400  -14.6087 O   0  0  0  0  0  0  0  0  0  0  0  0
   19.2336  -18.1376  -16.2575 N   0  0  0  0  0  0  0  0  0  0  0  0
   20.3957  -18.1378  -17.1077 C   0  0  0  0  0  0  0  0  0  0  0  0
   20.3384  -17.7530  -18.2826 O   0  0  0  0  0  0  0  0  0  0  0  0
   21.6585  -18.6236  -16.4960 C   0  0  0  0  0  0  0  0  0  0  0  0
   21.4990  -19.1056  -15.0851 C   0  0  2  0  0  0  0  0  0  0  0  0
   22.7317  -19.5713  -14.4856 N   0  0  0  0  0  0  0  0  0  0  0  0
   20.4287  -20.1372  -14.9879 C   0  0  0  0  0  0  0  0  0  0  0  0
   19.2400  -19.9114  -14.3463 O   0  0  0  0  0  0  0  0  0  0  0  0
   20.6313  -21.2582  -15.5185 O   0  0  0  0  0  0  0  0  0  0  0  0
  2  1  1  6
  2  4  1  0
  3  2  1  0
  4  5  2  0
  4  6  1  0
  6  7  1  0
  7  8  1  1
  7 13  1  0
  8  9  1  0
  9 10  1  0
 10 11  1  0
 11 12  1  0
 13 14  2  0
 16 15  1  0
 16 18  1  0
 17 16  2  0
 19 18  1  6
 20 13  1  0
 20 19  1  0
 21 19  1  0
 21 22  1  0
 23 21  2  0
M  END
$$$$
