AKN.pdb
     RDKit          3D

 23 22  0  0  1  0  0  0  0  0999 V2000
   27.6148  -23.8249  -16.4835 C   0  0  0  0  0  0  0  0  0  0  0  0
   26.6279  -22.6901  -16.6533 C   0  0  2  0  0  0  0  0  0  0  0  0
   27.3220  -21.4658  -16.9812 N   0  0  0  0  0  0  0  0  0  0  0  0
   25.8373  -22.4887  -15.4157 C   0  0  0  0  0  0  0  0  0  0  0  0
   25.1064  -23.3788  -14.9211 O   0  0  0  0  0  0  0  0  0  0  0  0
   25.8809  -21.2280  -14.7164 N   0  0  0  0  0  0  0  0  0  0  0  0
   25.1512  -21.0065  -13.4864 C   0  0  1  0  0  0  0  0  0  0  0  0
   26.0687  -20.3073  -12.4907 C   0  0  0  0  0  0  0  0  0  0  0  0
   26.1360  -21.0919  -11.2320 C   0  0  0  0  0  0  0  0  0  0  0  0
   25.3967  -20.4763  -10.0795 C   0  0  0  0  0  0  0  0  0  0  0  0
   25.4858  -21.2746   -8.8141 C   0  0  0  0  0  0  0  0  0  0  0  0
   24.6741  -20.6138   -7.8091 N   0  0  0  0  0  0  0  0  0  0  0  0
   23.9312  -20.2220  -13.7489 C   0  0  0  0  0  0  0  0  0  0  0  0
   23.9872  -19.2581  -14.5428 O   0  0  0  0  0  0  0  0  0  0  0  0
   20.4845  -20.0422  -17.4481 N   0  0  0  0  0  0  0  0  0  0  0  0
   20.3967  -20.6784  -16.1594 C   0  0  0  0  0  0  0  0  0  0  0  0
   19.3307  -21.1470  -15.7401 O   0  0  0  0  0  0  0  0  0  0  0  0
   21.6519  -20.7389  -15.3685 C   0  0  0  0  0  0  0  0  0  0  0  0
   21.4516  -20.5095  -13.9003 C   0  0  2  0  0  0  0  0  0  0  0  0
   22.6818  -20.5106  -13.1372 N   0  0  0  0  0  0  0  0  0  0  0  0
   20.4660  -21.4734  -13.3359 C   0  0  0  0  0  0  0  0  0  0  0  0
   19.2242  -21.0924  -12.9018 O   0  0  0  0  0  0  0  0  0  0  0  0
   20.7938  -22.6841  -13.2577 O   0  0  0  0  0  0  0  0  0  0  0  0
  2  1  1  1
  2  4  1  0
  3  2  1  0
  4  5  2  0
  4  6  1  0
  6  7  1  0
  7  8  1  1
  7 13  1  0
  8  9  1  0
  9 10  1  0
 10 11  1  0
 11 12  1  0
 13 14  2  0
 16 15  1  0
 16 18  1  0
 17 16  2  0
 19 18  1  6
 20 13  1  0
 20 19  1  0
 21 19  1  0
 21 22  1  0
 23 21  2  0
M  END
$$$$
