AKN.pdb
     RDKit          3D

 23 22  0  0  1  0  0  0  0  0999 V2000
   14.1855   -8.9066  -15.2091 C   0  0  0  0  0  0  0  0  0  0  0  0
   15.2362   -8.1177  -15.9603 C   0  0  2  0  0  0  0  0  0  0  0  0
   15.1941   -8.4391  -17.3685 N   0  0  0  0  0  0  0  0  0  0  0  0
   16.5908   -8.4065  -15.4321 C   0  0  0  0  0  0  0  0  0  0  0  0
   16.8865   -8.2999  -14.2187 O   0  0  0  0  0  0  0  0  0  0  0  0
   17.6465   -8.8320  -16.3181 N   0  0  0  0  0  0  0  0  0  0  0  0
   18.9964   -9.0614  -15.8495 C   0  0  1  0  0  0  0  0  0  0  0  0
   19.6382  -10.1411  -16.7122 C   0  0  0  0  0  0  0  0  0  0  0  0
   19.3566  -11.4797  -16.1347 C   0  0  0  0  0  0  0  0  0  0  0  0
   19.8942  -12.6263  -16.9409 C   0  0  0  0  0  0  0  0  0  0  0  0
   19.5463  -13.9711  -16.3780 C   0  0  0  0  0  0  0  0  0  0  0  0
   20.1532  -14.9819  -17.2239 N   0  0  0  0  0  0  0  0  0  0  0  0
   19.7694   -7.8066  -15.8804 C   0  0  0  0  0  0  0  0  0  0  0  0
   19.7980   -7.1358  -16.9348 O   0  0  0  0  0  0  0  0  0  0  0  0
   21.2451   -2.8714  -16.3059 N   0  0  0  0  0  0  0  0  0  0  0  0
   20.9894   -3.5748  -15.0758 C   0  0  0  0  0  0  0  0  0  0  0  0
   21.3117   -3.0998  -13.9794 O   0  0  0  0  0  0  0  0  0  0  0  0
   20.3207   -4.8948  -15.1993 C   0  0  0  0  0  0  0  0  0  0  0  0
   21.1912   -6.0512  -14.8078 C   0  0  2  0  0  0  0  0  0  0  0  0
   20.4910   -7.3173  -14.7588 N   0  0  0  0  0  0  0  0  0  0  0  0
   21.9025   -5.7784  -13.5276 C   0  0  0  0  0  0  0  0  0  0  0  0
   22.9838   -4.9418  -13.4460 O   0  0  0  0  0  0  0  0  0  0  0  0
   21.4883   -6.3423  -12.4837 O   0  0  0  0  0  0  0  0  0  0  0  0
  2  1  1  1
  2  4  1  0
  3  2  1  0
  4  5  2  0
  4  6  1  0
  6  7  1  0
  7  8  1  6
  7 13  1  0
  8  9  1  0
  9 10  1  0
 10 11  1  0
 11 12  1  0
 13 14  2  0
 16 15  1  0
 16 18  1  0
 17 16  2  0
 19 18  1  1
 20 13  1  0
 20 19  1  0
 21 19  1  0
 21 22  1  0
 23 21  2  0
M  END
$$$$
