AKN.pdb
     RDKit          3D

 23 22  0  0  1  0  0  0  0  0999 V2000
   23.6297  -11.2302  -14.6219 C   0  0  0  0  0  0  0  0  0  0  0  0
   22.8270  -11.5647  -15.8605 C   0  0  2  0  0  0  0  0  0  0  0  0
   23.7071  -11.9445  -16.9419 N   0  0  0  0  0  0  0  0  0  0  0  0
   22.0023  -10.4078  -16.2833 C   0  0  0  0  0  0  0  0  0  0  0  0
   22.4838   -9.3966  -16.8461 O   0  0  0  0  0  0  0  0  0  0  0  0
   20.5778  -10.4026  -16.0567 N   0  0  0  0  0  0  0  0  0  0  0  0
   19.7383   -9.2996  -16.4723 C   0  0  1  0  0  0  0  0  0  0  0  0
   18.2891   -9.7699  -16.5013 C   0  0  0  0  0  0  0  0  0  0  0  0
   18.0824  -10.6917  -17.6469 C   0  0  0  0  0  0  0  0  0  0  0  0
   16.6688  -11.1709  -17.8074 C   0  0  0  0  0  0  0  0  0  0  0  0
   16.4740  -12.0838  -18.9801 C   0  0  0  0  0  0  0  0  0  0  0  0
   15.0722  -12.4550  -19.0313 N   0  0  0  0  0  0  0  0  0  0  0  0
   19.9208   -8.1486  -15.5696 C   0  0  0  0  0  0  0  0  0  0  0  0
   19.9085   -8.3371  -14.3339 O   0  0  0  0  0  0  0  0  0  0  0  0
   20.5359   -3.5605  -13.4694 N   0  0  0  0  0  0  0  0  0  0  0  0
   21.7577   -4.2531  -13.7869 C   0  0  0  0  0  0  0  0  0  0  0  0
   22.8488   -3.8803  -13.3372 O   0  0  0  0  0  0  0  0  0  0  0  0
   21.6324   -5.4329  -14.6797 C   0  0  0  0  0  0  0  0  0  0  0  0
   20.2267   -5.7070  -15.1237 C   0  0  2  0  0  0  0  0  0  0  0  0
   20.1119   -6.8218  -16.0400 N   0  0  0  0  0  0  0  0  0  0  0  0
   19.5918   -4.4812  -15.6835 C   0  0  0  0  0  0  0  0  0  0  0  0
   19.1278   -3.4624  -14.8945 O   0  0  0  0  0  0  0  0  0  0  0  0
   19.4806   -4.3844  -16.9315 O   0  0  0  0  0  0  0  0  0  0  0  0
  2  1  1  1
  2  4  1  0
  3  2  1  0
  4  5  2  0
  4  6  1  0
  6  7  1  0
  7  8  1  1
  7 13  1  0
  8  9  1  0
  9 10  1  0
 10 11  1  0
 11 12  1  0
 13 14  2  0
 16 15  1  0
 16 18  1  0
 17 16  2  0
 19 18  1  6
 20 13  1  0
 20 19  1  0
 21 19  1  0
 21 22  1  0
 23 21  2  0
M  END
$$$$
