AKN.pdb
     RDKit          3D

 23 22  0  0  1  0  0  0  0  0999 V2000
   15.1561  -12.6677  -15.8279 C   0  0  0  0  0  0  0  0  0  0  0  0
   16.2775  -13.6773  -15.9464 C   0  0  2  0  0  0  0  0  0  0  0  0
   16.0498  -14.7881  -15.0506 N   0  0  0  0  0  0  0  0  0  0  0  0
   17.5846  -13.0534  -15.6311 C   0  0  0  0  0  0  0  0  0  0  0  0
   17.8720  -12.6099  -14.4945 O   0  0  0  0  0  0  0  0  0  0  0  0
   18.6010  -12.9305  -16.6472 N   0  0  0  0  0  0  0  0  0  0  0  0
   19.8729  -12.2908  -16.3874 C   0  0  1  0  0  0  0  0  0  0  0  0
   20.8707  -12.7332  -17.4509 C   0  0  0  0  0  0  0  0  0  0  0  0
   22.1887  -12.0975  -17.1993 C   0  0  0  0  0  0  0  0  0  0  0  0
   23.3420  -13.0581  -17.1663 C   0  0  0  0  0  0  0  0  0  0  0  0
   24.6760  -12.3896  -17.0250 C   0  0  0  0  0  0  0  0  0  0  0  0
   25.6883  -13.4248  -16.9299 N   0  0  0  0  0  0  0  0  0  0  0  0
   19.7139  -10.8256  -16.3636 C   0  0  0  0  0  0  0  0  0  0  0  0
   18.9403  -10.2845  -17.1830 O   0  0  0  0  0  0  0  0  0  0  0  0
   19.6972   -5.8836  -15.1829 N   0  0  0  0  0  0  0  0  0  0  0  0
   18.6064   -6.7225  -14.7587 C   0  0  0  0  0  0  0  0  0  0  0  0
   17.5596   -6.2430  -14.3049 O   0  0  0  0  0  0  0  0  0  0  0  0
   18.8102   -8.1867  -14.8969 C   0  0  0  0  0  0  0  0  0  0  0  0
   20.1702   -8.5614  -15.4050 C   0  0  2  0  0  0  0  0  0  0  0  0
   20.4041   -9.9894  -15.4456 N   0  0  0  0  0  0  0  0  0  0  0  0
   21.2404   -7.8612  -14.6411 C   0  0  0  0  0  0  0  0  0  0  0  0
   21.5443   -6.5400  -14.8356 O   0  0  0  0  0  0  0  0  0  0  0  0
   21.8870   -8.5154  -13.7848 O   0  0  0  0  0  0  0  0  0  0  0  0
  2  1  1  1
  2  4  1  0
  3  2  1  0
  4  5  2  0
  4  6  1  0
  6  7  1  0
  7  8  1  6
  7 13  1  0
  8  9  1  0
  9 10  1  0
 10 11  1  0
 11 12  1  0
 13 14  2  0
 16 15  1  0
 16 18  1  0
 17 16  2  0
 19 18  1  1
 20 13  1  0
 20 19  1  0
 21 19  1  0
 21 22  1  0
 23 21  2  0
M  END
$$$$
