AKN.pdb
     RDKit          3D

 23 22  0  0  1  0  0  0  0  0999 V2000
   17.8703  -23.5863   -8.7144 C   0  0  0  0  0  0  0  0  0  0  0  0
   18.4571  -24.8980   -8.2394 C   0  0  2  0  0  0  0  0  0  0  0  0
   18.5053  -25.8493   -9.3261 N   0  0  0  0  0  0  0  0  0  0  0  0
   17.6551  -25.4634   -7.1284 C   0  0  0  0  0  0  0  0  0  0  0  0
   16.4976  -25.9181   -7.2857 O   0  0  0  0  0  0  0  0  0  0  0  0
   18.1909  -25.5126   -5.7901 N   0  0  0  0  0  0  0  0  0  0  0  0
   17.4442  -26.0729   -4.6843 C   0  0  1  0  0  0  0  0  0  0  0  0
   18.3902  -26.2773   -3.5072 C   0  0  0  0  0  0  0  0  0  0  0  0
   17.6465  -26.8537   -2.3586 C   0  0  0  0  0  0  0  0  0  0  0  0
   18.2099  -28.1463   -1.8434 C   0  0  0  0  0  0  0  0  0  0  0  0
   17.4423  -28.7183   -0.6901 C   0  0  0  0  0  0  0  0  0  0  0  0
   18.1258  -29.9196   -0.2483 N   0  0  0  0  0  0  0  0  0  0  0  0
   16.3150  -25.1938   -4.3310 C   0  0  0  0  0  0  0  0  0  0  0  0
   16.4685  -23.9545   -4.3871 O   0  0  0  0  0  0  0  0  0  0  0  0
   11.8590  -23.1781   -2.9172 N   0  0  0  0  0  0  0  0  0  0  0  0
   11.6963  -23.9331   -4.1325 C   0  0  0  0  0  0  0  0  0  0  0  0
   10.6350  -23.9149   -4.7687 O   0  0  0  0  0  0  0  0  0  0  0  0
   12.8691  -24.7295   -4.5743 C   0  0  0  0  0  0  0  0  0  0  0  0
   13.9699  -24.7970   -3.5585 C   0  0  2  0  0  0  0  0  0  0  0  0
   15.0475  -25.6912   -3.9256 N   0  0  0  0  0  0  0  0  0  0  0  0
   13.4344  -25.1239   -2.2074 C   0  0  0  0  0  0  0  0  0  0  0  0
   13.0642  -24.1617   -1.3058 O   0  0  0  0  0  0  0  0  0  0  0  0
   13.3202  -26.3341   -1.8883 O   0  0  0  0  0  0  0  0  0  0  0  0
  2  1  1  6
  2  4  1  0
  3  2  1  0
  4  5  2  0
  4  6  1  0
  6  7  1  0
  7  8  1  1
  7 13  1  0
  8  9  1  0
  9 10  1  0
 10 11  1  0
 11 12  1  0
 13 14  2  0
 16 15  1  0
 16 18  1  0
 17 16  2  0
 19 18  1  6
 20 13  1  0
 20 19  1  0
 21 19  1  0
 21 22  1  0
 23 21  2  0
M  END
$$$$
