AKN.pdb
     RDKit          3D

 23 22  0  0  1  0  0  0  0  0999 V2000
   28.1833  -17.9092  -18.1971 C   0  0  0  0  0  0  0  0  0  0  0  0
   28.7196  -19.0964  -17.4267 C   0  0  2  0  0  0  0  0  0  0  0  0
   29.2803  -20.0718  -18.3336 N   0  0  0  0  0  0  0  0  0  0  0  0
   27.6478  -19.7326  -16.6243 C   0  0  0  0  0  0  0  0  0  0  0  0
   26.7702  -20.4744  -17.1250 O   0  0  0  0  0  0  0  0  0  0  0  0
   27.5729  -19.5158  -15.2003 N   0  0  0  0  0  0  0  0  0  0  0  0
   26.5177  -20.0868  -14.3911 C   0  0  1  0  0  0  0  0  0  0  0  0
   26.8745  -19.9057  -12.9207 C   0  0  0  0  0  0  0  0  0  0  0  0
   25.7647  -20.4033  -12.0689 C   0  0  0  0  0  0  0  0  0  0  0  0
   26.0121  -20.2745  -10.5938 C   0  0  0  0  0  0  0  0  0  0  0  0
   24.9048  -20.8282   -9.7490 C   0  0  0  0  0  0  0  0  0  0  0  0
   25.2268  -20.5646   -8.3589 N   0  0  0  0  0  0  0  0  0  0  0  0
   25.2243  -19.4609  -14.7202 C   0  0  0  0  0  0  0  0  0  0  0  0
   25.1696  -18.2212  -14.8711 O   0  0  0  0  0  0  0  0  0  0  0  0
   21.1669  -17.8635  -17.9857 N   0  0  0  0  0  0  0  0  0  0  0  0
   21.1532  -18.8901  -16.9761 C   0  0  0  0  0  0  0  0  0  0  0  0
   20.1057  -19.2267  -16.4094 O   0  0  0  0  0  0  0  0  0  0  0  0
   22.4609  -19.5168  -16.6571 C   0  0  0  0  0  0  0  0  0  0  0  0
   22.7700  -19.5548  -15.1904 C   0  0  2  0  0  0  0  0  0  0  0  0
   24.0244  -20.2053  -14.8759 N   0  0  0  0  0  0  0  0  0  0  0  0
   21.6442  -20.1531  -14.4198 C   0  0  0  0  0  0  0  0  0  0  0  0
   20.6080  -19.4070  -13.9246 O   0  0  0  0  0  0  0  0  0  0  0  0
   21.6518  -21.3937  -14.2196 O   0  0  0  0  0  0  0  0  0  0  0  0
  2  1  1  6
  2  4  1  0
  3  2  1  0
  4  5  2  0
  4  6  1  0
  6  7  1  0
  7  8  1  1
  7 13  1  0
  8  9  1  0
  9 10  1  0
 10 11  1  0
 11 12  1  0
 13 14  2  0
 16 15  1  0
 16 18  1  0
 17 16  2  0
 19 18  1  6
 20 13  1  0
 20 19  1  0
 21 19  1  0
 21 22  1  0
 23 21  2  0
M  END
$$$$
