AKN.pdb
     RDKit          3D

 23 22  0  0  1  0  0  0  0  0999 V2000
   10.9148  -11.9448   -9.9708 C   0  0  0  0  0  0  0  0  0  0  0  0
   11.9763  -12.4311  -10.9339 C   0  0  2  0  0  0  0  0  0  0  0  0
   12.1837  -13.8526  -10.7767 N   0  0  0  0  0  0  0  0  0  0  0  0
   13.2579  -11.7212  -10.7090 C   0  0  0  0  0  0  0  0  0  0  0  0
   13.9086  -11.8102   -9.6413 O   0  0  0  0  0  0  0  0  0  0  0  0
   13.8186  -10.8793  -11.7373 N   0  0  0  0  0  0  0  0  0  0  0  0
   15.0673  -10.1713  -11.5539 C   0  0  1  0  0  0  0  0  0  0  0  0
   15.8061  -10.1265  -12.8860 C   0  0  0  0  0  0  0  0  0  0  0  0
   17.0879   -9.3945  -12.7257 C   0  0  0  0  0  0  0  0  0  0  0  0
   17.8828   -9.2556  -13.9917 C   0  0  0  0  0  0  0  0  0  0  0  0
   19.2235   -8.6160  -13.7914 C   0  0  0  0  0  0  0  0  0  0  0  0
   19.8778   -8.5325  -15.0838 N   0  0  0  0  0  0  0  0  0  0  0  0
   14.8162   -8.8192  -11.0230 C   0  0  0  0  0  0  0  0  0  0  0  0
   13.9345   -8.1110  -11.5555 O   0  0  0  0  0  0  0  0  0  0  0  0
   14.3573   -5.3637   -6.1018 N   0  0  0  0  0  0  0  0  0  0  0  0
   14.5930   -5.5017   -7.5156 C   0  0  0  0  0  0  0  0  0  0  0  0
   14.5776   -4.5230   -8.2730 O   0  0  0  0  0  0  0  0  0  0  0  0
   14.8538   -6.8780   -8.0079 C   0  0  0  0  0  0  0  0  0  0  0  0
   15.2770   -6.9346   -9.4453 C   0  0  2  0  0  0  0  0  0  0  0  0
   15.5348   -8.2760   -9.9245 N   0  0  0  0  0  0  0  0  0  0  0  0
   16.4400   -6.0387   -9.6982 C   0  0  0  0  0  0  0  0  0  0  0  0
   17.6483   -6.5038  -10.1448 O   0  0  0  0  0  0  0  0  0  0  0  0
   16.2999   -4.8072   -9.4912 O   0  0  0  0  0  0  0  0  0  0  0  0
  2  1  1  1
  2  4  1  0
  3  2  1  0
  4  5  2  0
  4  6  1  0
  6  7  1  0
  7  8  1  6
  7 13  1  0
  8  9  1  0
  9 10  1  0
 10 11  1  0
 11 12  1  0
 13 14  2  0
 16 15  1  0
 16 18  1  0
 17 16  2  0
 19 18  1  1
 20 13  1  0
 20 19  1  0
 21 19  1  0
 21 22  1  0
 23 21  2  0
M  END
$$$$
