AKN.pdb
     RDKit          3D

 23 22  0  0  1  0  0  0  0  0999 V2000
   18.9362  -11.8763  -15.8073 C   0  0  0  0  0  0  0  0  0  0  0  0
   17.5804  -11.8117  -15.1380 C   0  0  2  0  0  0  0  0  0  0  0  0
   16.5411  -12.1803  -16.0720 N   0  0  0  0  0  0  0  0  0  0  0  0
   17.3123  -10.4492  -14.6193 C   0  0  0  0  0  0  0  0  0  0  0  0
   17.0362   -9.4787  -15.3629 O   0  0  0  0  0  0  0  0  0  0  0  0
   17.3605  -10.1828  -13.2026 N   0  0  0  0  0  0  0  0  0  0  0  0
   17.1496   -8.8566  -12.6631 C   0  0  1  0  0  0  0  0  0  0  0  0
   16.4934   -8.9827  -11.2936 C   0  0  0  0  0  0  0  0  0  0  0  0
   16.3015   -7.6345  -10.7017 C   0  0  0  0  0  0  0  0  0  0  0  0
   15.7081   -7.6436   -9.3228 C   0  0  0  0  0  0  0  0  0  0  0  0
   15.4572   -6.2739   -8.7683 C   0  0  0  0  0  0  0  0  0  0  0  0
   14.8741   -6.4245   -7.4482 N   0  0  0  0  0  0  0  0  0  0  0  0
   18.4266   -8.1237  -12.5913 C   0  0  0  0  0  0  0  0  0  0  0  0
   19.3739   -8.6152  -11.9404 O   0  0  0  0  0  0  0  0  0  0  0  0
   22.2455   -4.7899  -12.9885 N   0  0  0  0  0  0  0  0  0  0  0  0
   22.1457   -5.7167  -14.0859 C   0  0  0  0  0  0  0  0  0  0  0  0
   23.0801   -5.8824  -14.8803 O   0  0  0  0  0  0  0  0  0  0  0  0
   20.8643   -6.4570  -14.2076 C   0  0  0  0  0  0  0  0  0  0  0  0
   19.8905   -6.1627  -13.1060 C   0  0  2  0  0  0  0  0  0  0  0  0
   18.6356   -6.8733  -13.2323 N   0  0  0  0  0  0  0  0  0  0  0  0
   19.6681   -4.6966  -12.9635 C   0  0  0  0  0  0  0  0  0  0  0  0
   20.5237   -3.8828  -12.2698 O   0  0  0  0  0  0  0  0  0  0  0  0
   18.6519   -4.1925  -13.5044 O   0  0  0  0  0  0  0  0  0  0  0  0
  2  1  1  6
  2  4  1  0
  3  2  1  0
  4  5  2  0
  4  6  1  0
  6  7  1  0
  7  8  1  1
  7 13  1  0
  8  9  1  0
  9 10  1  0
 10 11  1  0
 11 12  1  0
 13 14  2  0
 16 15  1  0
 16 18  1  0
 17 16  2  0
 19 18  1  6
 20 13  1  0
 20 19  1  0
 21 19  1  0
 21 22  1  0
 23 21  2  0
M  END
$$$$
