AKN.pdb
     RDKit          3D

 23 22  0  0  1  0  0  0  0  0999 V2000
   14.1872   -9.5137  -14.6579 C   0  0  0  0  0  0  0  0  0  0  0  0
   14.9816   -8.4235  -15.3441 C   0  0  2  0  0  0  0  0  0  0  0  0
   14.8571   -8.5390  -16.7792 N   0  0  0  0  0  0  0  0  0  0  0  0
   16.4137   -8.4984  -14.9690 C   0  0  0  0  0  0  0  0  0  0  0  0
   16.8087   -8.4829  -13.7795 O   0  0  0  0  0  0  0  0  0  0  0  0
   17.4326   -8.5943  -15.9855 N   0  0  0  0  0  0  0  0  0  0  0  0
   18.8317   -8.7636  -15.6568 C   0  0  1  0  0  0  0  0  0  0  0  0
   19.4686   -9.6905  -16.6851 C   0  0  0  0  0  0  0  0  0  0  0  0
   19.4209  -11.0919  -16.1967 C   0  0  0  0  0  0  0  0  0  0  0  0
   19.9235  -12.1072  -17.1817 C   0  0  0  0  0  0  0  0  0  0  0  0
   19.8218  -13.5201  -16.6920 C   0  0  0  0  0  0  0  0  0  0  0  0
   20.0919  -14.4030  -17.8114 N   0  0  0  0  0  0  0  0  0  0  0  0
   19.5084   -7.4549  -15.6081 C   0  0  0  0  0  0  0  0  0  0  0  0
   19.2785   -6.6178  -16.5075 O   0  0  0  0  0  0  0  0  0  0  0  0
   22.1299   -3.2920  -14.3905 N   0  0  0  0  0  0  0  0  0  0  0  0
   20.6943   -3.3134  -14.5002 C   0  0  0  0  0  0  0  0  0  0  0  0
   20.0297   -2.2694  -14.5027 O   0  0  0  0  0  0  0  0  0  0  0  0
   20.0626   -4.6527  -14.6095 C   0  0  0  0  0  0  0  0  0  0  0  0
   21.0402   -5.7879  -14.5460 C   0  0  2  0  0  0  0  0  0  0  0  0
   20.4184   -7.0948  -14.5784 N   0  0  0  0  0  0  0  0  0  0  0  0
   21.9467   -5.6508  -13.3718 C   0  0  0  0  0  0  0  0  0  0  0  0
   22.9545   -4.7250  -13.3196 O   0  0  0  0  0  0  0  0  0  0  0  0
   21.7740   -6.4193  -12.3926 O   0  0  0  0  0  0  0  0  0  0  0  0
  2  1  1  1
  2  4  1  0
  3  2  1  0
  4  5  2  0
  4  6  1  0
  6  7  1  0
  7  8  1  6
  7 13  1  0
  8  9  1  0
  9 10  1  0
 10 11  1  0
 11 12  1  0
 13 14  2  0
 16 15  1  0
 16 18  1  0
 17 16  2  0
 19 18  1  1
 20 13  1  0
 20 19  1  0
 21 19  1  0
 21 22  1  0
 23 21  2  0
M  END
$$$$
