AKN.pdb
     RDKit          3D

 23 22  0  0  1  0  0  0  0  0999 V2000
   14.5715  -18.1956    2.7457 C   0  0  0  0  0  0  0  0  0  0  0  0
   15.8458  -17.5709    2.2201 C   0  0  2  0  0  0  0  0  0  0  0  0
   16.4897  -18.4592    1.2796 N   0  0  0  0  0  0  0  0  0  0  0  0
   16.7821  -17.2693    3.3291 C   0  0  0  0  0  0  0  0  0  0  0  0
   17.5060  -18.1404    3.8662 O   0  0  0  0  0  0  0  0  0  0  0  0
   16.8978  -15.9272    3.8447 N   0  0  0  0  0  0  0  0  0  0  0  0
   17.8242  -15.5889    4.9039 C   0  0  1  0  0  0  0  0  0  0  0  0
   18.0516  -14.0822    4.8939 C   0  0  0  0  0  0  0  0  0  0  0  0
   19.0442  -13.7164    5.9359 C   0  0  0  0  0  0  0  0  0  0  0  0
   19.3592  -12.2501    6.0020 C   0  0  0  0  0  0  0  0  0  0  0  0
   20.3534  -11.8972    7.0666 C   0  0  0  0  0  0  0  0  0  0  0  0
   20.4460  -10.4506    7.1318 N   0  0  0  0  0  0  0  0  0  0  0  0
   17.3081  -16.0546    6.2038 C   0  0  0  0  0  0  0  0  0  0  0  0
   16.0783  -16.0054    6.4227 O   0  0  0  0  0  0  0  0  0  0  0  0
   16.7346  -19.8473   10.3907 N   0  0  0  0  0  0  0  0  0  0  0  0
   17.6203  -19.4227    9.3378 C   0  0  0  0  0  0  0  0  0  0  0  0
   18.7867  -19.8306    9.2693 O   0  0  0  0  0  0  0  0  0  0  0  0
   17.0556  -18.4732    8.3457 C   0  0  0  0  0  0  0  0  0  0  0  0
   17.5996  -17.0811    8.4654 C   0  0  2  0  0  0  0  0  0  0  0  0
   18.1486  -16.5618    7.2307 N   0  0  0  0  0  0  0  0  0  0  0  0
   18.5864  -16.9840    9.5772 C   0  0  0  0  0  0  0  0  0  0  0  0
   18.2355  -17.1331   10.8926 O   0  0  0  0  0  0  0  0  0  0  0  0
   19.7882  -16.7559    9.2893 O   0  0  0  0  0  0  0  0  0  0  0  0
  2  1  1  1
  2  4  1  0
  3  2  1  0
  4  5  2  0
  4  6  1  0
  6  7  1  0
  7  8  1  1
  7 13  1  0
  8  9  1  0
  9 10  1  0
 10 11  1  0
 11 12  1  0
 13 14  2  0
 16 15  1  0
 16 18  1  0
 17 16  2  0
 19 18  1  6
 20 13  1  0
 20 19  1  0
 21 19  1  0
 21 22  1  0
 23 21  2  0
M  END
$$$$
