NLL.pdb
     RDKit          3D

 25 24  0  0  1  0  0  0  0  0999 V2000
   26.6974  -18.9570  -18.0756 N   0  0  0  0  0  0  0  0  0  0  0  0
   26.7168  -18.5616  -16.6949 C   0  0  0  0  0  0  0  0  0  0  0  0
   27.3592  -17.5643  -16.3496 O   0  0  0  0  0  0  0  0  0  0  0  0
   25.9615  -19.3762  -15.7570 C   0  0  0  0  0  0  0  0  0  0  0  0
   26.7487  -20.0878  -14.6930 C   0  0  2  0  0  0  0  0  0  0  0  0
   27.4032  -21.2102  -15.4448 N   0  0  0  0  0  0  0  0  0  0  0  0
   25.9231  -20.7809  -13.6795 C   0  0  0  0  0  0  0  0  0  0  0  0
   25.5234  -21.9693  -13.9459 O   0  0  0  0  0  0  0  0  0  0  0  0
   26.8254  -22.0248   -9.3957 C   0  0  0  0  0  0  0  0  0  0  0  0
   26.2092  -20.6770   -9.5044 C   0  0  2  0  0  0  0  0  0  0  0  0
   26.2815  -19.9180   -8.1708 C   0  0  0  0  0  0  0  0  0  0  0  0
   24.8336  -20.6123  -10.0667 C   0  0  0  0  0  0  0  0  0  0  0  0
   24.6900  -21.0294  -11.5051 C   0  0  2  0  0  0  0  0  0  0  0  0
   25.5207  -20.2706  -12.4200 N   0  0  0  0  0  0  0  0  0  0  0  0
   23.2458  -20.9760  -11.8332 C   0  0  0  0  0  0  0  0  0  0  0  0
   22.5359  -20.2321  -11.0945 O   0  0  0  0  0  0  0  0  0  0  0  0
   21.0407  -19.7052  -16.7900 C   0  0  0  0  0  0  0  0  0  0  0  0
   21.1321  -19.2477  -15.3505 C   0  0  1  0  0  0  0  0  0  0  0  0
   19.7476  -19.6162  -14.7500 C   0  0  0  0  0  0  0  0  0  0  0  0
   22.1847  -19.9861  -14.5813 C   0  0  0  0  0  0  0  0  0  0  0  0
   21.5964  -21.0760  -13.7598 C   0  0  2  0  0  0  0  0  0  0  0  0
   22.6081  -21.6601  -12.8663 N   0  0  0  0  0  0  0  0  0  0  0  0
   21.0368  -22.1487  -14.6088 C   0  0  0  0  0  0  0  0  0  0  0  0
   21.8126  -23.0613  -15.2778 O   0  0  0  0  0  0  0  0  0  0  0  0
   19.7733  -22.2804  -14.7674 O   0  0  0  0  0  0  0  0  0  0  0  0
  1  2  1  0
  2  4  1  0
  3  2  2  0
  5  4  1  0
  5  6  1  6
  7  8  2  0
  7  5  1  0
 10  9  1  1
 10 11  1  0
 10 12  1  0
 13 12  1  1
 13 14  1  0
 14  7  1  0
 15 13  1  0
 15 22  1  0
 16 15  2  0
 18 17  1  6
 18 20  1  0
 19 18  1  0
 21 20  1  6
 21 22  1  0
 21 23  1  0
 23 25  2  0
 23 24  1  0
M  END
$$$$
