NLL.pdb
     RDKit          3D

 25 24  0  0  1  0  0  0  0  0999 V2000
   21.9079  -13.9156  -21.6634 N   0  0  0  0  0  0  0  0  0  0  0  0
   20.8014  -13.0563  -21.3469 C   0  0  0  0  0  0  0  0  0  0  0  0
   19.9029  -12.8795  -22.1764 O   0  0  0  0  0  0  0  0  0  0  0  0
   20.7994  -12.4265  -20.0365 C   0  0  0  0  0  0  0  0  0  0  0  0
   21.9807  -12.7052  -19.1505 C   0  0  2  0  0  0  0  0  0  0  0  0
   21.5701  -13.9469  -18.4137 N   0  0  0  0  0  0  0  0  0  0  0  0
   22.1873  -11.7120  -18.0734 C   0  0  0  0  0  0  0  0  0  0  0  0
   21.2415  -11.5464  -17.2242 O   0  0  0  0  0  0  0  0  0  0  0  0
   25.3145  -11.1912  -14.6825 C   0  0  0  0  0  0  0  0  0  0  0  0
   25.7284  -10.5373  -15.9511 C   0  0  2  0  0  0  0  0  0  0  0  0
   27.1699  -10.0133  -15.8678 C   0  0  0  0  0  0  0  0  0  0  0  0
   24.8229   -9.4876  -16.4905 C   0  0  0  0  0  0  0  0  0  0  0  0
   23.4189   -9.9275  -16.8052 C   0  0  2  0  0  0  0  0  0  0  0  0
   23.3382  -10.9109  -17.8678 N   0  0  0  0  0  0  0  0  0  0  0  0
   22.6268   -8.7032  -17.0698 C   0  0  0  0  0  0  0  0  0  0  0  0
   22.8104   -8.1560  -18.1967 O   0  0  0  0  0  0  0  0  0  0  0  0
   19.1018   -5.5141  -18.6816 C   0  0  0  0  0  0  0  0  0  0  0  0
   18.7784   -6.0047  -17.2872 C   0  0  1  0  0  0  0  0  0  0  0  0
   17.2760   -6.3923  -17.3637 C   0  0  0  0  0  0  0  0  0  0  0  0
   19.5571   -7.2300  -16.9168 C   0  0  0  0  0  0  0  0  0  0  0  0
   20.9431   -6.8908  -16.5016 C   0  0  2  0  0  0  0  0  0  0  0  0
   21.7113   -8.1090  -16.2033 N   0  0  0  0  0  0  0  0  0  0  0  0
   20.9500   -6.0209  -15.3067 C   0  0  0  0  0  0  0  0  0  0  0  0
   21.3891   -6.4365  -14.0752 O   0  0  0  0  0  0  0  0  0  0  0  0
   20.5351   -4.8110  -15.3625 O   0  0  0  0  0  0  0  0  0  0  0  0
  1  2  1  0
  2  4  1  0
  3  2  2  0
  5  4  1  0
  5  6  1  1
  7  8  2  0
  7  5  1  0
 10  9  1  1
 10 11  1  0
 10 12  1  0
 13 12  1  6
 13 14  1  0
 14  7  1  0
 15 13  1  0
 15 22  1  0
 16 15  2  0
 18 17  1  6
 18 20  1  0
 19 18  1  0
 21 20  1  1
 21 22  1  0
 21 23  1  0
 23 25  2  0
 23 24  1  0
M  END
$$$$
