NLL.pdb
     RDKit          3D

 25 24  0  0  1  0  0  0  0  0999 V2000
   19.9512  -10.5269  -20.5733 N   0  0  0  0  0  0  0  0  0  0  0  0
   19.3438   -9.4805  -19.7994 C   0  0  0  0  0  0  0  0  0  0  0  0
   18.6960   -8.5935  -20.3653 O   0  0  0  0  0  0  0  0  0  0  0  0
   19.5292   -9.5233  -18.3580 C   0  0  0  0  0  0  0  0  0  0  0  0
   20.4166  -10.6113  -17.8225 C   0  0  2  0  0  0  0  0  0  0  0  0
   19.4499  -11.7139  -17.5012 N   0  0  0  0  0  0  0  0  0  0  0  0
   21.0432  -10.3050  -16.5176 C   0  0  0  0  0  0  0  0  0  0  0  0
   20.2952  -10.3230  -15.4768 O   0  0  0  0  0  0  0  0  0  0  0  0
   26.5283  -10.8434  -14.9287 C   0  0  0  0  0  0  0  0  0  0  0  0
   25.0426  -10.8328  -14.9600 C   0  0  2  0  0  0  0  0  0  0  0  0
   24.5012  -11.6262  -16.1587 C   0  0  0  0  0  0  0  0  0  0  0  0
   24.3798   -9.5041  -14.8724 C   0  0  0  0  0  0  0  0  0  0  0  0
   22.8810   -9.5061  -15.0028 C   0  0  2  0  0  0  0  0  0  0  0  0
   22.4057   -9.9927  -16.2835 N   0  0  0  0  0  0  0  0  0  0  0  0
   22.4126   -8.1381  -14.6781 C   0  0  0  0  0  0  0  0  0  0  0  0
   22.6359   -7.7406  -13.4969 O   0  0  0  0  0  0  0  0  0  0  0  0
   22.6315   -2.4735  -16.0436 C   0  0  0  0  0  0  0  0  0  0  0  0
   21.5517   -3.5113  -15.8272 C   0  0  1  0  0  0  0  0  0  0  0  0
   20.4825   -3.1714  -16.9017 C   0  0  0  0  0  0  0  0  0  0  0  0
   22.0391   -4.9054  -16.0800 C   0  0  0  0  0  0  0  0  0  0  0  0
   21.3567   -5.8898  -15.2003 C   0  0  2  0  0  0  0  0  0  0  0  0
   21.7589   -7.2624  -15.5428 N   0  0  0  0  0  0  0  0  0  0  0  0
   19.8866   -5.7840  -15.3120 C   0  0  0  0  0  0  0  0  0  0  0  0
   19.1283   -4.9621  -14.5173 O   0  0  0  0  0  0  0  0  0  0  0  0
   19.2339   -6.4710  -16.1728 O   0  0  0  0  0  0  0  0  0  0  0  0
  1  2  1  0
  2  4  1  0
  3  2  2  0
  5  4  1  0
  5  6  1  1
  7  8  2  0
  7  5  1  0
 10  9  1  6
 10 11  1  0
 10 12  1  0
 13 12  1  6
 13 14  1  0
 14  7  1  0
 15 13  1  0
 15 22  1  0
 16 15  2  0
 18 17  1  6
 18 20  1  0
 19 18  1  0
 21 20  1  6
 21 22  1  0
 21 23  1  0
 23 25  2  0
 23 24  1  0
M  END
$$$$
