NLL.pdb
     RDKit          3D

 25 24  0  0  1  0  0  0  0  0999 V2000
   26.4476  -20.5702  -17.5332 N   0  0  0  0  0  0  0  0  0  0  0  0
   27.1228  -19.7945  -16.5305 C   0  0  0  0  0  0  0  0  0  0  0  0
   28.1024  -19.1080  -16.8400 O   0  0  0  0  0  0  0  0  0  0  0  0
   26.6041  -19.8613  -15.1740 C   0  0  0  0  0  0  0  0  0  0  0  0
   27.2194  -20.8873  -14.2646 C   0  0  2  0  0  0  0  0  0  0  0  0
   26.5401  -22.1609  -14.6767 N   0  0  0  0  0  0  0  0  0  0  0  0
   26.8527  -20.7415  -12.8386 C   0  0  0  0  0  0  0  0  0  0  0  0
   27.2773  -19.7048  -12.2157 O   0  0  0  0  0  0  0  0  0  0  0  0
   24.8067  -21.2723   -8.0527 C   0  0  0  0  0  0  0  0  0  0  0  0
   25.9038  -20.5851   -8.7825 C   0  0  2  0  0  0  0  0  0  0  0  0
   26.4999  -19.4399   -7.9502 C   0  0  0  0  0  0  0  0  0  0  0  0
   25.6032  -20.1234  -10.1642 C   0  0  0  0  0  0  0  0  0  0  0  0
   25.0817  -21.1711  -11.1097 C   0  0  2  0  0  0  0  0  0  0  0  0
   26.0648  -21.6342  -12.0698 N   0  0  0  0  0  0  0  0  0  0  0  0
   23.8551  -20.6229  -11.7353 C   0  0  0  0  0  0  0  0  0  0  0  0
   23.4714  -19.4942  -11.3089 O   0  0  0  0  0  0  0  0  0  0  0  0
   22.9603  -19.3420  -15.7909 C   0  0  0  0  0  0  0  0  0  0  0  0
   21.6244  -20.0442  -15.6810 C   0  0  1  0  0  0  0  0  0  0  0  0
   21.4009  -20.6509  -17.0935 C   0  0  0  0  0  0  0  0  0  0  0  0
   21.6484  -21.1679  -14.6902 C   0  0  0  0  0  0  0  0  0  0  0  0
   21.8620  -20.6704  -13.3062 C   0  0  2  0  0  0  0  0  0  0  0  0
   23.0976  -21.2284  -12.7361 N   0  0  0  0  0  0  0  0  0  0  0  0
   20.7298  -21.0259  -12.4250 C   0  0  0  0  0  0  0  0  0  0  0  0
   20.7180  -22.1423  -11.6277 O   0  0  0  0  0  0  0  0  0  0  0  0
   19.6805  -20.2951  -12.3627 O   0  0  0  0  0  0  0  0  0  0  0  0
  1  2  1  0
  2  4  1  0
  3  2  2  0
  5  4  1  0
  5  6  1  6
  7  8  2  0
  7  5  1  0
 10  9  1  1
 10 11  1  0
 10 12  1  0
 13 12  1  6
 13 14  1  0
 14  7  1  0
 15 13  1  0
 15 22  1  0
 16 15  2  0
 18 17  1  6
 18 20  1  0
 19 18  1  0
 21 20  1  6
 21 22  1  0
 21 23  1  0
 23 25  2  0
 23 24  1  0
M  END
$$$$
