NLL.pdb
     RDKit          3D

 25 24  0  0  1  0  0  0  0  0999 V2000
   17.0015  -15.4743  -16.8261 N   0  0  0  0  0  0  0  0  0  0  0  0
   16.7855  -14.6336  -17.9704 C   0  0  0  0  0  0  0  0  0  0  0  0
   16.3842  -15.1273  -19.0296 O   0  0  0  0  0  0  0  0  0  0  0  0
   17.0576  -13.2138  -17.8159 C   0  0  0  0  0  0  0  0  0  0  0  0
   17.5264  -12.7585  -16.4628 C   0  0  2  0  0  0  0  0  0  0  0  0
   16.3194  -12.9664  -15.5948 N   0  0  0  0  0  0  0  0  0  0  0  0
   17.7844  -11.3052  -16.3601 C   0  0  0  0  0  0  0  0  0  0  0  0
   18.7205  -10.8121  -17.0837 O   0  0  0  0  0  0  0  0  0  0  0  0
   15.2185   -7.1151  -17.0301 C   0  0  0  0  0  0  0  0  0  0  0  0
   15.1293   -7.9929  -15.8343 C   0  0  2  0  0  0  0  0  0  0  0  0
   13.8962   -7.6563  -14.9823 C   0  0  0  0  0  0  0  0  0  0  0  0
   16.3432   -8.0867  -14.9798 C   0  0  0  0  0  0  0  0  0  0  0  0
   17.4454   -8.9707  -15.4966 C   0  0  2  0  0  0  0  0  0  0  0  0
   17.0959  -10.3774  -15.5392 N   0  0  0  0  0  0  0  0  0  0  0  0
   18.6517   -8.6844  -14.6847 C   0  0  0  0  0  0  0  0  0  0  0  0
   18.6259   -9.0966  -13.4878 O   0  0  0  0  0  0  0  0  0  0  0  0
   23.1662   -9.2312  -12.5061 C   0  0  0  0  0  0  0  0  0  0  0  0
   23.3040   -8.6809  -13.9089 C   0  0  1  0  0  0  0  0  0  0  0  0
   24.4045   -9.5671  -14.5544 C   0  0  0  0  0  0  0  0  0  0  0  0
   22.0487   -8.8391  -14.7115 C   0  0  0  0  0  0  0  0  0  0  0  0
   21.0181   -7.8448  -14.3141 C   0  0  2  0  0  0  0  0  0  0  0  0
   19.7951   -8.0131  -15.1134 N   0  0  0  0  0  0  0  0  0  0  0  0
   21.5100   -6.4614  -14.4846 C   0  0  0  0  0  0  0  0  0  0  0  0
   22.3727   -5.8554  -13.6067 O   0  0  0  0  0  0  0  0  0  0  0  0
   21.1455   -5.7439  -15.4802 O   0  0  0  0  0  0  0  0  0  0  0  0
  1  2  1  0
  2  4  1  0
  3  2  2  0
  5  4  1  0
  5  6  1  1
  7  8  2  0
  7  5  1  0
 10  9  1  6
 10 11  1  0
 10 12  1  0
 13 12  1  1
 13 14  1  0
 14  7  1  0
 15 13  1  0
 15 22  1  0
 16 15  2  0
 18 17  1  1
 18 20  1  0
 19 18  1  0
 21 20  1  6
 21 22  1  0
 21 23  1  0
 23 25  2  0
 23 24  1  0
M  END
$$$$
