NLL.pdb
     RDKit          3D

 25 24  0  0  1  0  0  0  0  0999 V2000
   30.0689  -19.4597  -14.3078 N   0  0  0  0  0  0  0  0  0  0  0  0
   29.1842  -20.5740  -14.5039 C   0  0  0  0  0  0  0  0  0  0  0  0
   28.9609  -20.9887  -15.6462 O   0  0  0  0  0  0  0  0  0  0  0  0
   28.5853  -21.1669  -13.3191 C   0  0  0  0  0  0  0  0  0  0  0  0
   28.9303  -20.5363  -11.9995 C   0  0  2  0  0  0  0  0  0  0  0  0
   30.2595  -21.1483  -11.6651 N   0  0  0  0  0  0  0  0  0  0  0  0
   28.0619  -20.9515  -10.8757 C   0  0  0  0  0  0  0  0  0  0  0  0
   27.3409  -21.9995  -11.0336 O   0  0  0  0  0  0  0  0  0  0  0  0
   28.4710  -21.3159   -6.1145 C   0  0  0  0  0  0  0  0  0  0  0  0
   28.1864  -19.9718   -6.6809 C   0  0  2  0  0  0  0  0  0  0  0  0
   28.3301  -18.8730   -5.6171 C   0  0  0  0  0  0  0  0  0  0  0  0
   26.9069  -19.8144   -7.4230 C   0  0  0  0  0  0  0  0  0  0  0  0
   26.8124  -20.5452   -8.7347 C   0  0  2  0  0  0  0  0  0  0  0  0
   27.9389  -20.3111   -9.6174 N   0  0  0  0  0  0  0  0  0  0  0  0
   25.5049  -20.1936   -9.3372 C   0  0  0  0  0  0  0  0  0  0  0  0
   25.3238  -18.9672   -9.5941 O   0  0  0  0  0  0  0  0  0  0  0  0
   22.9073  -19.8143  -13.3083 C   0  0  0  0  0  0  0  0  0  0  0  0
   22.2944  -21.0475  -12.6812 C   0  0  1  0  0  0  0  0  0  0  0  0
   22.2057  -22.0618  -13.8544 C   0  0  0  0  0  0  0  0  0  0  0  0
   23.1659  -21.6416  -11.6170 C   0  0  0  0  0  0  0  0  0  0  0  0
   23.2861  -20.7382  -10.4430 C   0  0  2  0  0  0  0  0  0  0  0  0
   24.4721  -21.0781   -9.6425 N   0  0  0  0  0  0  0  0  0  0  0  0
   22.0906  -20.8175   -9.5775 C   0  0  0  0  0  0  0  0  0  0  0  0
   20.9266  -20.1393   -9.8373 O   0  0  0  0  0  0  0  0  0  0  0  0
   22.0828  -21.5365   -8.5183 O   0  0  0  0  0  0  0  0  0  0  0  0
  1  2  1  0
  2  4  1  0
  3  2  2  0
  5  4  1  0
  5  6  1  1
  7  8  2  0
  7  5  1  0
 10  9  1  1
 10 11  1  0
 10 12  1  0
 13 12  1  1
 13 14  1  0
 14  7  1  0
 15 13  1  0
 15 22  1  0
 16 15  2  0
 18 17  1  6
 18 20  1  0
 19 18  1  0
 21 20  1  6
 21 22  1  0
 21 23  1  0
 23 25  2  0
 23 24  1  0
M  END
$$$$
