NLL.pdb
     RDKit          3D

 25 24  0  0  1  0  0  0  0  0999 V2000
   21.4435  -19.5788  -13.0651 N   0  0  0  0  0  0  0  0  0  0  0  0
   21.2400  -19.7106  -11.6495 C   0  0  0  0  0  0  0  0  0  0  0  0
   20.1705  -19.3511  -11.1456 O   0  0  0  0  0  0  0  0  0  0  0  0
   22.3295  -20.2731  -10.8683 C   0  0  0  0  0  0  0  0  0  0  0  0
   23.5998  -20.5864  -11.6074 C   0  0  2  0  0  0  0  0  0  0  0  0
   23.2969  -21.9007  -12.2664 N   0  0  0  0  0  0  0  0  0  0  0  0
   24.7568  -20.8906  -10.7368 C   0  0  0  0  0  0  0  0  0  0  0  0
   24.6632  -21.8977   -9.9492 O   0  0  0  0  0  0  0  0  0  0  0  0
   28.6457  -22.5823  -11.5471 C   0  0  0  0  0  0  0  0  0  0  0  0
   28.7703  -21.1035  -11.6231 C   0  0  2  0  0  0  0  0  0  0  0  0
   30.1464  -20.6836  -12.1615 C   0  0  0  0  0  0  0  0  0  0  0  0
   28.4371  -20.3386  -10.3917 C   0  0  0  0  0  0  0  0  0  0  0  0
   27.0722  -20.5887   -9.8104 C   0  0  2  0  0  0  0  0  0  0  0  0
   25.9834  -20.1830  -10.6780 N   0  0  0  0  0  0  0  0  0  0  0  0
   27.0400  -19.9418   -8.4775 C   0  0  0  0  0  0  0  0  0  0  0  0
   26.4161  -18.8422   -8.4090 O   0  0  0  0  0  0  0  0  0  0  0  0
   27.9640  -22.3728   -3.4185 C   0  0  0  0  0  0  0  0  0  0  0  0
   27.3798  -21.4291   -4.4470 C   0  0  1  0  0  0  0  0  0  0  0  0
   26.3407  -20.5968   -3.6465 C   0  0  0  0  0  0  0  0  0  0  0  0
   28.4020  -20.4860   -5.0042 C   0  0  0  0  0  0  0  0  0  0  0  0
   27.8321  -19.6401   -6.0850 C   0  0  2  0  0  0  0  0  0  0  0  0
   27.6252  -20.4275   -7.3097 N   0  0  0  0  0  0  0  0  0  0  0  0
   28.7166  -18.4981   -6.3986 C   0  0  0  0  0  0  0  0  0  0  0  0
   28.7708  -17.3569   -5.6390 O   0  0  0  0  0  0  0  0  0  0  0  0
   29.4908  -18.5169   -7.4180 O   0  0  0  0  0  0  0  0  0  0  0  0
  1  2  1  0
  2  4  1  0
  3  2  2  0
  5  4  1  0
  5  6  1  6
  7  8  2  0
  7  5  1  0
 10  9  1  1
 10 11  1  0
 10 12  1  0
 13 12  1  6
 13 14  1  0
 14  7  1  0
 15 13  1  0
 15 22  1  0
 16 15  2  0
 18 17  1  1
 18 20  1  0
 19 18  1  0
 21 20  1  1
 21 22  1  0
 21 23  1  0
 23 25  2  0
 23 24  1  0
M  END
$$$$
