NLL.pdb
     RDKit          3D

 25 24  0  0  1  0  0  0  0  0999 V2000
   13.3500  -11.6804    7.3082 N   0  0  0  0  0  0  0  0  0  0  0  0
   13.4951  -13.0870    7.5600 C   0  0  0  0  0  0  0  0  0  0  0  0
   12.5710  -13.7164    8.0860 O   0  0  0  0  0  0  0  0  0  0  0  0
   14.7515  -13.7079    7.1731 C   0  0  0  0  0  0  0  0  0  0  0  0
   15.7812  -12.8138    6.5418 C   0  0  2  0  0  0  0  0  0  0  0  0
   15.4359  -12.8719    5.0821 N   0  0  0  0  0  0  0  0  0  0  0  0
   17.1639  -13.3381    6.5948 C   0  0  0  0  0  0  0  0  0  0  0  0
   17.4973  -14.2311    5.7378 O   0  0  0  0  0  0  0  0  0  0  0  0
   21.2605  -11.5618    5.9181 C   0  0  0  0  0  0  0  0  0  0  0  0
   20.8785  -11.4240    7.3476 C   0  0  2  0  0  0  0  0  0  0  0  0
   21.9022  -10.5811    8.1229 C   0  0  0  0  0  0  0  0  0  0  0  0
   20.5732  -12.6799    8.0838 C   0  0  0  0  0  0  0  0  0  0  0  0
   19.5036  -13.5514    7.4838 C   0  0  2  0  0  0  0  0  0  0  0  0
   18.1830  -12.9527    7.5012 N   0  0  0  0  0  0  0  0  0  0  0  0
   19.5693  -14.8611    8.1742 C   0  0  0  0  0  0  0  0  0  0  0  0
   18.9660  -14.9340    9.2849 O   0  0  0  0  0  0  0  0  0  0  0  0
   18.5298  -19.7017    5.9758 C   0  0  0  0  0  0  0  0  0  0  0  0
   18.6919  -18.5560    6.9509 C   0  0  1  0  0  0  0  0  0  0  0  0
   17.7977  -18.9581    8.1559 C   0  0  0  0  0  0  0  0  0  0  0  0
   20.1006  -18.4178    7.4422 C   0  0  0  0  0  0  0  0  0  0  0  0
   20.2329  -17.2995    8.4120 C   0  0  2  0  0  0  0  0  0  0  0  0
   20.2248  -16.0030    7.7177 N   0  0  0  0  0  0  0  0  0  0  0  0
   21.4813  -17.4106    9.1956 C   0  0  0  0  0  0  0  0  0  0  0  0
   22.5103  -16.5078    9.1044 O   0  0  0  0  0  0  0  0  0  0  0  0
   21.6691  -18.3771   10.0138 O   0  0  0  0  0  0  0  0  0  0  0  0
  1  2  1  0
  2  4  1  0
  3  2  2  0
  5  4  1  0
  5  6  1  6
  7  8  2  0
  7  5  1  0
 10  9  1  6
 10 11  1  0
 10 12  1  0
 13 12  1  1
 13 14  1  0
 14  7  1  0
 15 13  1  0
 15 22  1  0
 16 15  2  0
 18 17  1  6
 18 20  1  0
 19 18  1  0
 21 20  1  6
 21 22  1  0
 21 23  1  0
 23 25  2  0
 23 24  1  0
M  END
$$$$
