NLL.pdb
     RDKit          3D

 25 24  0  0  1  0  0  0  0  0999 V2000
   27.7151  -19.3599  -18.2584 N   0  0  0  0  0  0  0  0  0  0  0  0
   28.0398  -19.0930  -16.8850 C   0  0  0  0  0  0  0  0  0  0  0  0
   29.0287  -18.4055  -16.6089 O   0  0  0  0  0  0  0  0  0  0  0  0
   27.1661  -19.6600  -15.8706 C   0  0  0  0  0  0  0  0  0  0  0  0
   27.7693  -20.6901  -14.9578 C   0  0  2  0  0  0  0  0  0  0  0  0
   27.7284  -21.9438  -15.7825 N   0  0  0  0  0  0  0  0  0  0  0  0
   26.9426  -21.0220  -13.7764 C   0  0  0  0  0  0  0  0  0  0  0  0
   25.9058  -21.7531  -13.9593 O   0  0  0  0  0  0  0  0  0  0  0  0
   26.0343  -19.7739   -7.6511 C   0  0  0  0  0  0  0  0  0  0  0  0
   25.6431  -20.3841   -8.9483 C   0  0  2  0  0  0  0  0  0  0  0  0
   25.0733  -21.7974   -8.7541 C   0  0  0  0  0  0  0  0  0  0  0  0
   26.6670  -20.3790  -10.0273 C   0  0  0  0  0  0  0  0  0  0  0  0
   26.1890  -20.7994  -11.3905 C   0  0  2  0  0  0  0  0  0  0  0  0
   27.1755  -20.6187  -12.4379 N   0  0  0  0  0  0  0  0  0  0  0  0
   24.9159  -20.0853  -11.6463 C   0  0  0  0  0  0  0  0  0  0  0  0
   25.0194  -18.8679  -11.9787 O   0  0  0  0  0  0  0  0  0  0  0  0
   21.7161  -18.7758  -15.0515 C   0  0  0  0  0  0  0  0  0  0  0  0
   21.7610  -20.2683  -14.8068 C   0  0  1  0  0  0  0  0  0  0  0  0
   22.0901  -20.8685  -16.2013 C   0  0  0  0  0  0  0  0  0  0  0  0
   22.8551  -20.6605  -13.8612 C   0  0  0  0  0  0  0  0  0  0  0  0
   22.5209  -20.2972  -12.4594 C   0  0  2  0  0  0  0  0  0  0  0  0
   23.6342  -20.6247  -11.5560 N   0  0  0  0  0  0  0  0  0  0  0  0
   21.3085  -21.0033  -11.9942 C   0  0  0  0  0  0  0  0  0  0  0  0
   20.0694  -20.4169  -11.9411 O   0  0  0  0  0  0  0  0  0  0  0  0
   21.3564  -22.2227  -11.6071 O   0  0  0  0  0  0  0  0  0  0  0  0
  1  2  1  0
  2  4  1  0
  3  2  2  0
  5  4  1  0
  5  6  1  6
  7  8  2  0
  7  5  1  0
 10  9  1  1
 10 11  1  0
 10 12  1  0
 13 12  1  1
 13 14  1  0
 14  7  1  0
 15 13  1  0
 15 22  1  0
 16 15  2  0
 18 17  1  6
 18 20  1  0
 19 18  1  0
 21 20  1  6
 21 22  1  0
 21 23  1  0
 23 25  2  0
 23 24  1  0
M  END
$$$$
