NLL.pdb
     RDKit          3D

 25 24  0  0  1  0  0  0  0  0999 V2000
   20.7156  -20.7119   -8.7082 N   0  0  0  0  0  0  0  0  0  0  0  0
   21.2425  -21.3512   -9.8814 C   0  0  0  0  0  0  0  0  0  0  0  0
   20.9613  -22.5308  -10.1181 O   0  0  0  0  0  0  0  0  0  0  0  0
   22.0985  -20.5561  -10.7469 C   0  0  0  0  0  0  0  0  0  0  0  0
   23.4772  -21.0920  -11.0114 C   0  0  2  0  0  0  0  0  0  0  0  0
   24.2097  -20.7967   -9.7348 N   0  0  0  0  0  0  0  0  0  0  0  0
   24.2408  -20.3427  -12.0336 C   0  0  0  0  0  0  0  0  0  0  0  0
   24.5813  -19.1376  -11.7603 O   0  0  0  0  0  0  0  0  0  0  0  0
   28.2741  -19.2333  -13.2707 C   0  0  0  0  0  0  0  0  0  0  0  0
   27.8569  -20.5934  -13.7001 C   0  0  2  0  0  0  0  0  0  0  0  0
   29.0517  -21.4101  -14.2149 C   0  0  0  0  0  0  0  0  0  0  0  0
   26.7196  -20.6753  -14.6553 C   0  0  0  0  0  0  0  0  0  0  0  0
   25.4415  -20.0145  -14.2155 C   0  0  2  0  0  0  0  0  0  0  0  0
   24.6506  -20.8187  -13.3041 N   0  0  0  0  0  0  0  0  0  0  0  0
   24.7106  -19.6177  -15.4421 C   0  0  0  0  0  0  0  0  0  0  0  0
   24.0588  -20.5356  -16.0213 O   0  0  0  0  0  0  0  0  0  0  0  0
   21.7849  -14.9617  -16.2673 C   0  0  0  0  0  0  0  0  0  0  0  0
   22.3277  -16.3738  -16.2350 C   0  0  1  0  0  0  0  0  0  0  0  0
   21.1488  -17.2419  -16.7545 C   0  0  0  0  0  0  0  0  0  0  0  0
   23.4888  -16.5620  -17.1630 C   0  0  0  0  0  0  0  0  0  0  0  0
   23.9203  -17.9831  -17.2158 C   0  0  2  0  0  0  0  0  0  0  0  0
   24.6760  -18.3441  -16.0068 N   0  0  0  0  0  0  0  0  0  0  0  0
   24.7651  -18.2461  -18.3998 C   0  0  0  0  0  0  0  0  0  0  0  0
   24.2561  -18.5917  -19.6261 O   0  0  0  0  0  0  0  0  0  0  0  0
   26.0412  -18.1653  -18.3375 O   0  0  0  0  0  0  0  0  0  0  0  0
  1  2  1  0
  2  4  1  0
  3  2  2  0
  5  4  1  0
  5  6  1  1
  7  8  2  0
  7  5  1  0
 10  9  1  6
 10 11  1  0
 10 12  1  0
 13 12  1  6
 13 14  1  0
 14  7  1  0
 15 13  1  0
 15 22  1  0
 16 15  2  0
 18 17  1  6
 18 20  1  0
 19 18  1  0
 21 20  1  1
 21 22  1  0
 21 23  1  0
 23 25  2  0
 23 24  1  0
M  END
$$$$
