NLL.pdb
     RDKit          3D

 25 24  0  0  1  0  0  0  0  0999 V2000
   12.7292  -10.2788  -16.4146 N   0  0  0  0  0  0  0  0  0  0  0  0
   13.1210   -9.1631  -15.5993 C   0  0  0  0  0  0  0  0  0  0  0  0
   12.2694   -8.5458  -14.9510 O   0  0  0  0  0  0  0  0  0  0  0  0
   14.5320   -8.8130  -15.5813 C   0  0  0  0  0  0  0  0  0  0  0  0
   15.4326   -9.5873  -16.5019 C   0  0  2  0  0  0  0  0  0  0  0  0
   15.6724  -10.8648  -15.7510 N   0  0  0  0  0  0  0  0  0  0  0  0
   16.7879   -9.0147  -16.6587 C   0  0  0  0  0  0  0  0  0  0  0  0
   17.7900   -9.7888  -16.4600 O   0  0  0  0  0  0  0  0  0  0  0  0
   20.1083   -4.1965  -18.9998 C   0  0  0  0  0  0  0  0  0  0  0  0
   19.9718   -5.5089  -18.3162 C   0  0  2  0  0  0  0  0  0  0  0  0
   20.7578   -6.6070  -19.0484 C   0  0  0  0  0  0  0  0  0  0  0  0
   18.5890   -5.9687  -18.0179 C   0  0  0  0  0  0  0  0  0  0  0  0
   18.4753   -7.2420  -17.2246 C   0  0  2  0  0  0  0  0  0  0  0  0
   17.1092   -7.6814  -17.0162 N   0  0  0  0  0  0  0  0  0  0  0  0
   19.2316   -7.0413  -15.9660 C   0  0  0  0  0  0  0  0  0  0  0  0
   18.6229   -6.4205  -15.0456 O   0  0  0  0  0  0  0  0  0  0  0  0
   21.5192   -8.8130  -11.6028 C   0  0  0  0  0  0  0  0  0  0  0  0
   22.5112   -8.6831  -12.7381 C   0  0  1  0  0  0  0  0  0  0  0  0
   23.3982   -9.9519  -12.6097 C   0  0  0  0  0  0  0  0  0  0  0  0
   21.8496   -8.7116  -14.0821 C   0  0  0  0  0  0  0  0  0  0  0  0
   21.1860   -7.4182  -14.3910 C   0  0  2  0  0  0  0  0  0  0  0  0
   20.5327   -7.4684  -15.7077 N   0  0  0  0  0  0  0  0  0  0  0  0
   22.1535   -6.3008  -14.3835 C   0  0  0  0  0  0  0  0  0  0  0  0
   22.4178   -5.5411  -13.2721 O   0  0  0  0  0  0  0  0  0  0  0  0
   22.8050   -5.9781  -15.4373 O   0  0  0  0  0  0  0  0  0  0  0  0
  1  2  1  0
  2  4  1  0
  3  2  2  0
  5  4  1  0
  5  6  1  1
  7  8  2  0
  7  5  1  0
 10  9  1  6
 10 11  1  0
 10 12  1  0
 13 12  1  1
 13 14  1  0
 14  7  1  0
 15 13  1  0
 15 22  1  0
 16 15  2  0
 18 17  1  1
 18 20  1  0
 19 18  1  0
 21 20  1  6
 21 22  1  0
 21 23  1  0
 23 25  2  0
 23 24  1  0
M  END
$$$$
