NLL.pdb
     RDKit          3D

 25 24  0  0  1  0  0  0  0  0999 V2000
   21.6828  -19.8543  -16.9816 N   0  0  0  0  0  0  0  0  0  0  0  0
   21.6545  -20.1958  -15.5868 C   0  0  0  0  0  0  0  0  0  0  0  0
   20.6516  -19.9416  -14.9113 O   0  0  0  0  0  0  0  0  0  0  0  0
   22.8359  -20.8372  -15.0330 C   0  0  0  0  0  0  0  0  0  0  0  0
   23.2560  -20.4068  -13.6559 C   0  0  2  0  0  0  0  0  0  0  0  0
   23.6877  -18.9836  -13.8591 N   0  0  0  0  0  0  0  0  0  0  0  0
   24.4767  -21.0733  -13.1508 C   0  0  0  0  0  0  0  0  0  0  0  0
   24.4692  -22.3526  -13.0711 O   0  0  0  0  0  0  0  0  0  0  0  0
   28.0903  -21.5179  -15.0558 C   0  0  0  0  0  0  0  0  0  0  0  0
   28.2849  -20.3702  -14.1321 C   0  0  2  0  0  0  0  0  0  0  0  0
   29.6065  -19.6402  -14.4153 C   0  0  0  0  0  0  0  0  0  0  0  0
   28.1450  -20.6490  -12.6778 C   0  0  0  0  0  0  0  0  0  0  0  0
   26.8135  -21.1932  -12.2369 C   0  0  2  0  0  0  0  0  0  0  0  0
   25.6791  -20.4442  -12.7418 N   0  0  0  0  0  0  0  0  0  0  0  0
   26.8490  -21.2895  -10.7584 C   0  0  0  0  0  0  0  0  0  0  0  0
   27.6330  -22.1595  -10.2775 O   0  0  0  0  0  0  0  0  0  0  0  0
   27.9764  -18.4026   -6.7198 C   0  0  0  0  0  0  0  0  0  0  0  0
   27.5986  -19.6778   -7.4415 C   0  0  1  0  0  0  0  0  0  0  0  0
   28.1908  -20.8040   -6.5503 C   0  0  0  0  0  0  0  0  0  0  0  0
   26.1153  -19.8748   -7.5165 C   0  0  0  0  0  0  0  0  0  0  0  0
   25.7542  -20.9320   -8.4966 C   0  0  2  0  0  0  0  0  0  0  0  0
   26.1088  -20.5198   -9.8630 N   0  0  0  0  0  0  0  0  0  0  0  0
   24.3084  -21.2364   -8.4527 C   0  0  0  0  0  0  0  0  0  0  0  0
   23.6876  -21.7862   -7.3597 O   0  0  0  0  0  0  0  0  0  0  0  0
   23.5481  -20.9993   -9.4550 O   0  0  0  0  0  0  0  0  0  0  0  0
  1  2  1  0
  2  4  1  0
  3  2  2  0
  5  4  1  0
  5  6  1  6
  7  8  2  0
  7  5  1  0
 10  9  1  6
 10 11  1  0
 10 12  1  0
 13 12  1  1
 13 14  1  0
 14  7  1  0
 15 13  1  0
 15 22  1  0
 16 15  2  0
 18 17  1  1
 18 20  1  0
 19 18  1  0
 21 20  1  1
 21 22  1  0
 21 23  1  0
 23 25  2  0
 23 24  1  0
M  END
$$$$
