NLL.pdb
     RDKit          3D

 25 24  0  0  1  0  0  0  0  0999 V2000
   22.3298  -17.5417  -15.6743 N   0  0  0  0  0  0  0  0  0  0  0  0
   21.8855  -18.2838  -14.5276 C   0  0  0  0  0  0  0  0  0  0  0  0
   20.8056  -18.0059  -13.9956 O   0  0  0  0  0  0  0  0  0  0  0  0
   22.7518  -19.3468  -14.0444 C   0  0  0  0  0  0  0  0  0  0  0  0
   24.0826  -19.4969  -14.7259 C   0  0  2  0  0  0  0  0  0  0  0  0
   23.7267  -20.1463  -16.0317 N   0  0  0  0  0  0  0  0  0  0  0  0
   24.9923  -20.4732  -14.0868 C   0  0  0  0  0  0  0  0  0  0  0  0
   24.6893  -21.7158  -14.1708 O   0  0  0  0  0  0  0  0  0  0  0  0
   30.6472  -20.3748  -13.0588 C   0  0  0  0  0  0  0  0  0  0  0  0
   29.2446  -20.7492  -13.3761 C   0  0  2  0  0  0  0  0  0  0  0  0
   28.6760  -19.8835  -14.5106 C   0  0  0  0  0  0  0  0  0  0  0  0
   28.2913  -20.8050  -12.2356 C   0  0  0  0  0  0  0  0  0  0  0  0
   26.8745  -21.1767  -12.5793 C   0  0  2  0  0  0  0  0  0  0  0  0
   26.1876  -20.1837  -13.3824 N   0  0  0  0  0  0  0  0  0  0  0  0
   26.1840  -21.4894  -11.3059 C   0  0  0  0  0  0  0  0  0  0  0  0
   26.4601  -22.6102  -10.7854 O   0  0  0  0  0  0  0  0  0  0  0  0
   26.9652  -19.0019   -7.1394 C   0  0  0  0  0  0  0  0  0  0  0  0
   26.4915  -20.1260   -8.0347 C   0  0  1  0  0  0  0  0  0  0  0  0
   26.7848  -21.4110   -7.2126 C   0  0  0  0  0  0  0  0  0  0  0  0
   25.0173  -20.0669   -8.2960 C   0  0  0  0  0  0  0  0  0  0  0  0
   24.6149  -21.0139   -9.3683 C   0  0  2  0  0  0  0  0  0  0  0  0
   25.2723  -20.6733  -10.6390 N   0  0  0  0  0  0  0  0  0  0  0  0
   23.1512  -21.0049   -9.5738 C   0  0  0  0  0  0  0  0  0  0  0  0
   22.2537  -21.3986   -8.6137 O   0  0  0  0  0  0  0  0  0  0  0  0
   22.6376  -20.6234  -10.6827 O   0  0  0  0  0  0  0  0  0  0  0  0
  1  2  1  0
  2  4  1  0
  3  2  2  0
  5  4  1  0
  5  6  1  6
  7  8  2  0
  7  5  1  0
 10  9  1  1
 10 11  1  0
 10 12  1  0
 13 12  1  1
 13 14  1  0
 14  7  1  0
 15 13  1  0
 15 22  1  0
 16 15  2  0
 18 17  1  1
 18 20  1  0
 19 18  1  0
 21 20  1  1
 21 22  1  0
 21 23  1  0
 23 25  2  0
 23 24  1  0
M  END
$$$$
