NLL.pdb
     RDKit          3D

 25 24  0  0  1  0  0  0  0  0999 V2000
   21.0753  -15.8424  -19.5950 N   0  0  0  0  0  0  0  0  0  0  0  0
   20.0616  -14.9224  -19.1602 C   0  0  0  0  0  0  0  0  0  0  0  0
   18.9257  -14.9856  -19.6423 O   0  0  0  0  0  0  0  0  0  0  0  0
   20.4368  -13.9437  -18.1526 C   0  0  0  0  0  0  0  0  0  0  0  0
   21.8629  -13.9727  -17.6799 C   0  0  2  0  0  0  0  0  0  0  0  0
   21.8890  -15.1453  -16.7431 N   0  0  0  0  0  0  0  0  0  0  0  0
   22.2476  -12.8309  -16.8211 C   0  0  0  0  0  0  0  0  0  0  0  0
   21.6646  -12.7146  -15.6854 O   0  0  0  0  0  0  0  0  0  0  0  0
   25.7950  -11.3095  -14.4560 C   0  0  0  0  0  0  0  0  0  0  0  0
   25.8824  -10.8716  -15.8734 C   0  0  2  0  0  0  0  0  0  0  0  0
   27.2293  -10.1947  -16.1691 C   0  0  0  0  0  0  0  0  0  0  0  0
   24.7591  -10.0446  -16.3899 C   0  0  0  0  0  0  0  0  0  0  0  0
   23.3890  -10.6576  -16.2876 C   0  0  2  0  0  0  0  0  0  0  0  0
   23.2111  -11.8343  -17.1163 N   0  0  0  0  0  0  0  0  0  0  0  0
   22.4078   -9.5827  -16.5668 C   0  0  0  0  0  0  0  0  0  0  0  0
   22.3877   -9.1441  -17.7544 O   0  0  0  0  0  0  0  0  0  0  0  0
   17.2111   -9.5947  -16.1182 C   0  0  0  0  0  0  0  0  0  0  0  0
   18.6139   -9.1948  -16.5204 C   0  0  1  0  0  0  0  0  0  0  0  0
   18.4252   -8.4865  -17.8900 C   0  0  0  0  0  0  0  0  0  0  0  0
   19.2239   -8.2119  -15.5681 C   0  0  0  0  0  0  0  0  0  0  0  0
   20.6251   -7.8872  -15.9424 C   0  0  2  0  0  0  0  0  0  0  0  0
   21.5179   -9.0198  -15.6539 N   0  0  0  0  0  0  0  0  0  0  0  0
   21.1157   -6.6984  -15.2139 C   0  0  0  0  0  0  0  0  0  0  0  0
   20.5714   -5.4477  -15.3607 O   0  0  0  0  0  0  0  0  0  0  0  0
   22.0958   -6.7784  -14.3941 O   0  0  0  0  0  0  0  0  0  0  0  0
  1  2  1  0
  2  4  1  0
  3  2  2  0
  5  4  1  0
  5  6  1  1
  7  8  2  0
  7  5  1  0
 10  9  1  1
 10 11  1  0
 10 12  1  0
 13 12  1  6
 13 14  1  0
 14  7  1  0
 15 13  1  0
 15 22  1  0
 16 15  2  0
 18 17  1  1
 18 20  1  0
 19 18  1  0
 21 20  1  1
 21 22  1  0
 21 23  1  0
 23 25  2  0
 23 24  1  0
M  END
$$$$
