SGT.pdb
     RDKit          3D

 18 17  0  0  1  0  0  0  0  0999 V2000
   14.0871  -12.1391  -16.0364 O   0  0  0  0  0  0  0  0  0  0  0  0
   14.4717  -10.8010  -15.9432 C   0  0  0  0  0  0  0  0  0  0  0  0
   15.8912  -10.7037  -16.4923 C   0  0  2  0  0  0  0  0  0  0  0  0
   16.7448  -11.5245  -15.6808 N   0  0  0  0  0  0  0  0  0  0  0  0
   16.3707   -9.3123  -16.4972 C   0  0  0  0  0  0  0  0  0  0  0  0
   15.7352   -8.4434  -17.1266 O   0  0  0  0  0  0  0  0  0  0  0  0
   17.5416   -8.9306  -15.8022 N   0  0  0  0  0  0  0  0  0  0  0  0
   18.0585   -7.5642  -15.8666 C   0  0  0  0  0  0  0  0  0  0  0  0
   19.1984   -7.4357  -14.9309 C   0  0  0  0  0  0  0  0  0  0  0  0
   19.2495   -8.1308  -13.8858 O   0  0  0  0  0  0  0  0  0  0  0  0
   22.5595   -8.3671  -15.4966 C   0  0  0  0  0  0  0  0  0  0  0  0
   22.6074   -6.9151  -15.1684 C   0  0  1  0  0  0  0  0  0  0  0  0
   22.6587   -6.1482  -16.3553 O   0  0  0  0  0  0  0  0  0  0  0  0
   21.4147   -6.4180  -14.3976 C   0  0  2  0  0  0  0  0  0  0  0  0
   20.2465   -6.5161  -15.2176 N   0  0  0  0  0  0  0  0  0  0  0  0
   21.6618   -5.0382  -13.9059 C   0  0  0  0  0  0  0  0  0  0  0  0
   22.5616   -4.7430  -12.8998 O   0  0  0  0  0  0  0  0  0  0  0  0
   21.0224   -4.1121  -14.4323 O   0  0  0  0  0  0  0  0  0  0  0  0
  2  1  1  0
  3  2  1  0
  3  4  1  1
  5  6  2  0
  5  3  1  0
  7  5  1  0
  8  7  1  0
  9 15  1  0
  9  8  1  0
 10  9  2  0
 12 13  1  0
 12 11  1  6
 14 15  1  6
 14 12  1  0
 16 14  1  0
 17 16  1  0
 18 16  2  0
M  END
$$$$
