SGT.pdb
     RDKit          3D

 18 17  0  0  1  0  0  0  0  0999 V2000
  -40.2451   25.8490   -0.3166 O   0  0  0  0  0  0  0  0  0  0  0  0
  -40.1120   25.2041   -1.5469 C   0  0  0  0  0  0  0  0  0  0  0  0
  -40.2055   26.2765   -2.6272 C   0  0  2  0  0  0  0  0  0  0  0  0
  -41.2502   27.1916   -2.2635 N   0  0  0  0  0  0  0  0  0  0  0  0
  -40.4772   25.6861   -3.9476 C   0  0  0  0  0  0  0  0  0  0  0  0
  -41.4766   26.0567   -4.5948 O   0  0  0  0  0  0  0  0  0  0  0  0
  -39.6294   24.7023   -4.5070 N   0  0  0  0  0  0  0  0  0  0  0  0
  -38.2181   24.6075   -4.1357 C   0  0  0  0  0  0  0  0  0  0  0  0
  -37.4500   24.0889   -5.2900 C   0  0  0  0  0  0  0  0  0  0  0  0
  -37.7089   24.4762   -6.4567 O   0  0  0  0  0  0  0  0  0  0  0  0
  -34.2396   24.4939   -7.7311 C   0  0  0  0  0  0  0  0  0  0  0  0
  -35.4884   23.9373   -7.1401 C   0  0  1  0  0  0  0  0  0  0  0  0
  -36.1597   23.1313   -8.0883 O   0  0  0  0  0  0  0  0  0  0  0  0
  -35.2643   23.0682   -5.9325 C   0  0  2  0  0  0  0  0  0  0  0  0
  -36.4083   23.1426   -5.0767 N   0  0  0  0  0  0  0  0  0  0  0  0
  -34.0043   23.4571   -5.2486 C   0  0  0  0  0  0  0  0  0  0  0  0
  -33.5071   24.7463   -5.2537 O   0  0  0  0  0  0  0  0  0  0  0  0
  -33.3749   22.5717   -4.6456 O   0  0  0  0  0  0  0  0  0  0  0  0
  2  1  1  0
  3  2  1  0
  3  4  1  1
  5  6  2  0
  5  3  1  0
  7  5  1  0
  8  7  1  0
  9 15  1  0
  9  8  1  0
 10  9  2  0
 12 13  1  0
 12 11  1  6
 14 15  1  1
 14 12  1  0
 16 14  1  0
 17 16  1  0
 18 16  2  0
M  END
$$$$
