SGT.pdb
     RDKit          3D

 18 17  0  0  1  0  0  0  0  0999 V2000
   15.3440  -13.4622  -13.8316 O   0  0  0  0  0  0  0  0  0  0  0  0
   15.5492  -12.2577  -14.5057 C   0  0  0  0  0  0  0  0  0  0  0  0
   15.6420  -11.1627  -13.4482 C   0  0  2  0  0  0  0  0  0  0  0  0
   14.3381  -10.9774  -12.8767 N   0  0  0  0  0  0  0  0  0  0  0  0
   16.1340   -9.9008  -14.0238 C   0  0  0  0  0  0  0  0  0  0  0  0
   15.5148   -9.3709  -14.9676 O   0  0  0  0  0  0  0  0  0  0  0  0
   17.2989   -9.2676  -13.5321 N   0  0  0  0  0  0  0  0  0  0  0  0
   17.8169   -8.0414  -14.1376 C   0  0  0  0  0  0  0  0  0  0  0  0
   19.0736   -7.6603  -13.4543 C   0  0  0  0  0  0  0  0  0  0  0  0
   19.2498   -7.9328  -12.2407 O   0  0  0  0  0  0  0  0  0  0  0  0
   22.4051   -8.7359  -14.7188 C   0  0  0  0  0  0  0  0  0  0  0  0
   22.4433   -7.2581  -14.5372 C   0  0  1  0  0  0  0  0  0  0  0  0
   22.2521   -6.6090  -15.7788 O   0  0  0  0  0  0  0  0  0  0  0  0
   21.3817   -6.7231  -13.6149 C   0  0  2  0  0  0  0  0  0  0  0  0
   20.0920   -6.9787  -14.1785 N   0  0  0  0  0  0  0  0  0  0  0  0
   21.6187   -5.2820  -13.3431 C   0  0  0  0  0  0  0  0  0  0  0  0
   22.6381   -4.8223  -12.5316 O   0  0  0  0  0  0  0  0  0  0  0  0
   20.8567   -4.4585  -13.8771 O   0  0  0  0  0  0  0  0  0  0  0  0
  2  1  1  0
  3  2  1  0
  3  4  1  6
  5  6  2  0
  5  3  1  0
  7  5  1  0
  8  7  1  0
  9 15  1  0
  9  8  1  0
 10  9  2  0
 12 13  1  0
 12 11  1  6
 14 15  1  6
 14 12  1  0
 16 14  1  0
 17 16  1  0
 18 16  2  0
M  END
$$$$
