SGT.pdb
     RDKit          3D

 18 17  0  0  1  0  0  0  0  0999 V2000
   15.2995  -13.3790  -14.4266 O   0  0  0  0  0  0  0  0  0  0  0  0
   15.5071  -12.0342  -14.7357 C   0  0  0  0  0  0  0  0  0  0  0  0
   16.8523  -11.9408  -15.4481 C   0  0  2  0  0  0  0  0  0  0  0  0
   17.8554  -12.5071  -14.5914 N   0  0  0  0  0  0  0  0  0  0  0  0
   17.1883  -10.5469  -15.7801 C   0  0  0  0  0  0  0  0  0  0  0  0
   16.4411   -9.8961  -16.5370 O   0  0  0  0  0  0  0  0  0  0  0  0
   18.3445   -9.9204  -15.2601 N   0  0  0  0  0  0  0  0  0  0  0  0
   18.6227   -8.5054  -15.5026 C   0  0  0  0  0  0  0  0  0  0  0  0
   19.8113   -8.1063  -14.7156 C   0  0  0  0  0  0  0  0  0  0  0  0
   20.2275   -8.8277  -13.7751 O   0  0  0  0  0  0  0  0  0  0  0  0
   23.0976   -7.6852  -16.1850 C   0  0  0  0  0  0  0  0  0  0  0  0
   22.7930   -6.4138  -15.4714 C   0  0  1  0  0  0  0  0  0  0  0  0
   22.3252   -5.4415  -16.3854 O   0  0  0  0  0  0  0  0  0  0  0  0
   21.7319   -6.5407  -14.4123 C   0  0  2  0  0  0  0  0  0  0  0  0
   20.4893   -6.8940  -15.0269 N   0  0  0  0  0  0  0  0  0  0  0  0
   21.6487   -5.2878  -13.6185 C   0  0  0  0  0  0  0  0  0  0  0  0
   22.6100   -4.9072  -12.7019 O   0  0  0  0  0  0  0  0  0  0  0  0
   20.6620   -4.5538  -13.7957 O   0  0  0  0  0  0  0  0  0  0  0  0
  2  1  1  0
  3  2  1  0
  3  4  1  1
  5  6  2  0
  5  3  1  0
  7  5  1  0
  8  7  1  0
  9 15  1  0
  9  8  1  0
 10  9  2  0
 12 13  1  0
 12 11  1  6
 14 15  1  6
 14 12  1  0
 16 14  1  0
 17 16  1  0
 18 16  2  0
M  END
$$$$
