SGT.pdb
     RDKit          3D

 18 17  0  0  1  0  0  0  0  0999 V2000
   18.3098  -11.0871  -19.5110 O   0  0  0  0  0  0  0  0  0  0  0  0
   18.3660  -11.1778  -18.1197 C   0  0  0  0  0  0  0  0  0  0  0  0
   19.8196  -11.4498  -17.7469 C   0  0  2  0  0  0  0  0  0  0  0  0
   19.9813  -12.8652  -17.5695 N   0  0  0  0  0  0  0  0  0  0  0  0
   20.2027  -10.7319  -16.5206 C   0  0  0  0  0  0  0  0  0  0  0  0
   19.9701  -11.2445  -15.4080 O   0  0  0  0  0  0  0  0  0  0  0  0
   20.8323   -9.4666  -16.5699 N   0  0  0  0  0  0  0  0  0  0  0  0
   21.1878   -8.7409  -15.3511 C   0  0  0  0  0  0  0  0  0  0  0  0
   21.7903   -7.4408  -15.7229 C   0  0  0  0  0  0  0  0  0  0  0  0
   22.1941   -7.2347  -16.8945 O   0  0  0  0  0  0  0  0  0  0  0  0
   20.7586   -5.2672  -17.1528 C   0  0  0  0  0  0  0  0  0  0  0  0
   21.0481   -4.5067  -15.9052 C   0  0  1  0  0  0  0  0  0  0  0  0
   19.9209   -4.5227  -15.0516 O   0  0  0  0  0  0  0  0  0  0  0  0
   22.1935   -5.0573  -15.0999 C   0  0  2  0  0  0  0  0  0  0  0  0
   21.9133   -6.4144  -14.7443 N   0  0  0  0  0  0  0  0  0  0  0  0
   22.4523   -4.1922  -13.9203 C   0  0  0  0  0  0  0  0  0  0  0  0
   22.9958   -2.9254  -14.0153 O   0  0  0  0  0  0  0  0  0  0  0  0
   22.1619   -4.6400  -12.7983 O   0  0  0  0  0  0  0  0  0  0  0  0
  2  1  1  0
  3  2  1  0
  3  4  1  1
  5  6  2  0
  5  3  1  0
  7  5  1  0
  8  7  1  0
  9 15  1  0
  9  8  1  0
 10  9  2  0
 12 13  1  0
 12 11  1  6
 14 15  1  1
 14 12  1  0
 16 14  1  0
 17 16  1  0
 18 16  2  0
M  END
$$$$
