SGT.pdb
     RDKit          3D

 18 17  0  0  1  0  0  0  0  0999 V2000
   14.5845  -10.5636  -15.4893 O   0  0  0  0  0  0  0  0  0  0  0  0
   15.1270  -11.6450  -16.1846 C   0  0  0  0  0  0  0  0  0  0  0  0
   16.6212  -11.6692  -15.8800 C   0  0  2  0  0  0  0  0  0  0  0  0
   16.7911  -11.9575  -14.4839 N   0  0  0  0  0  0  0  0  0  0  0  0
   17.2594  -10.3877  -16.2208 C   0  0  0  0  0  0  0  0  0  0  0  0
   17.3167  -10.0252  -17.4125 O   0  0  0  0  0  0  0  0  0  0  0  0
   17.8138   -9.5493  -15.2260 N   0  0  0  0  0  0  0  0  0  0  0  0
   18.3093   -8.2105  -15.5427 C   0  0  0  0  0  0  0  0  0  0  0  0
   19.3204   -7.8199  -14.5344 C   0  0  0  0  0  0  0  0  0  0  0  0
   19.1394   -8.0705  -13.3168 O   0  0  0  0  0  0  0  0  0  0  0  0
   22.6756   -9.0856  -14.3079 C   0  0  0  0  0  0  0  0  0  0  0  0
   22.8023   -7.6063  -14.4272 C   0  0  1  0  0  0  0  0  0  0  0  0
   23.0753   -7.2467  -15.7672 O   0  0  0  0  0  0  0  0  0  0  0  0
   21.5643   -6.8481  -14.0319 C   0  0  2  0  0  0  0  0  0  0  0  0
   20.5088   -7.1543  -14.9478 N   0  0  0  0  0  0  0  0  0  0  0  0
   21.8578   -5.3940  -13.9532 C   0  0  0  0  0  0  0  0  0  0  0  0
   22.6084   -4.8270  -12.9411 O   0  0  0  0  0  0  0  0  0  0  0  0
   21.4011   -4.6613  -14.8467 O   0  0  0  0  0  0  0  0  0  0  0  0
  2  1  1  0
  3  2  1  0
  3  4  1  1
  5  6  2  0
  5  3  1  0
  7  5  1  0
  8  7  1  0
  9 15  1  0
  9  8  1  0
 10  9  2  0
 12 13  1  0
 12 11  1  6
 14 15  1  6
 14 12  1  0
 16 14  1  0
 17 16  1  0
 18 16  2  0
M  END
$$$$
