SGT.pdb
     RDKit          3D

 18 17  0  0  1  0  0  0  0  0999 V2000
   18.5553  -13.4961  -19.4153 O   0  0  0  0  0  0  0  0  0  0  0  0
   18.0826  -12.2120  -19.1419 C   0  0  0  0  0  0  0  0  0  0  0  0
   18.1677  -12.0154  -17.6319 C   0  0  2  0  0  0  0  0  0  0  0  0
   17.0825  -12.7313  -17.0230 N   0  0  0  0  0  0  0  0  0  0  0  0
   18.1079  -10.5896  -17.2720 C   0  0  0  0  0  0  0  0  0  0  0  0
   17.0674   -9.9401  -17.4969 O   0  0  0  0  0  0  0  0  0  0  0  0
   19.2066   -9.9307  -16.6734 N   0  0  0  0  0  0  0  0  0  0  0  0
   19.1842   -8.4929  -16.4072 C   0  0  0  0  0  0  0  0  0  0  0  0
   20.4649   -8.0995  -15.7776 C   0  0  0  0  0  0  0  0  0  0  0  0
   21.2732   -8.9718  -15.3728 O   0  0  0  0  0  0  0  0  0  0  0  0
   23.0548   -6.1913  -17.4149 C   0  0  0  0  0  0  0  0  0  0  0  0
   22.7490   -5.4568  -16.1558 C   0  0  1  0  0  0  0  0  0  0  0  0
   21.9012   -4.3578  -16.4259 O   0  0  0  0  0  0  0  0  0  0  0  0
   22.0458   -6.2848  -15.1148 C   0  0  2  0  0  0  0  0  0  0  0  0
   20.7839   -6.7202  -15.6291 N   0  0  0  0  0  0  0  0  0  0  0  0
   21.9206   -5.5172  -13.8491 C   0  0  0  0  0  0  0  0  0  0  0  0
   22.9936   -5.2353  -13.0255 O   0  0  0  0  0  0  0  0  0  0  0  0
   20.7910   -5.1139  -13.5251 O   0  0  0  0  0  0  0  0  0  0  0  0
  2  1  1  0
  3  2  1  0
  3  4  1  1
  5  6  2  0
  5  3  1  0
  7  5  1  0
  8  7  1  0
  9 15  1  0
  9  8  1  0
 10  9  2  0
 12 13  1  0
 12 11  1  6
 14 15  1  6
 14 12  1  0
 16 14  1  0
 17 16  1  0
 18 16  2  0
M  END
$$$$
