SGT.pdb
     RDKit          3D

 18 17  0  0  1  0  0  0  0  0999 V2000
   15.6312  -13.2374  -15.1673 O   0  0  0  0  0  0  0  0  0  0  0  0
   15.5560  -11.8792  -14.8564 C   0  0  0  0  0  0  0  0  0  0  0  0
   16.7353  -11.1968  -15.5417 C   0  0  2  0  0  0  0  0  0  0  0  0
   17.9453  -11.8079  -15.0691 N   0  0  0  0  0  0  0  0  0  0  0  0
   16.7507   -9.7505  -15.2698 C   0  0  0  0  0  0  0  0  0  0  0  0
   15.7605   -9.0557  -15.5726 O   0  0  0  0  0  0  0  0  0  0  0  0
   17.8665   -9.1222  -14.6698 N   0  0  0  0  0  0  0  0  0  0  0  0
   17.8859   -7.6833  -14.4093 C   0  0  0  0  0  0  0  0  0  0  0  0
   19.1583   -7.3322  -13.7392 C   0  0  0  0  0  0  0  0  0  0  0  0
   19.3999   -7.7346  -12.5740 O   0  0  0  0  0  0  0  0  0  0  0  0
   22.3795   -8.2825  -15.1888 C   0  0  0  0  0  0  0  0  0  0  0  0
   22.4412   -6.8181  -14.9236 C   0  0  1  0  0  0  0  0  0  0  0  0
   22.1846   -6.0960  -16.1119 O   0  0  0  0  0  0  0  0  0  0  0  0
   21.4393   -6.3325  -13.9116 C   0  0  2  0  0  0  0  0  0  0  0  0
   20.1173   -6.5311  -14.4210 N   0  0  0  0  0  0  0  0  0  0  0  0
   21.7155   -4.9168  -13.5565 C   0  0  0  0  0  0  0  0  0  0  0  0
   20.8425   -3.8825  -13.8347 O   0  0  0  0  0  0  0  0  0  0  0  0
   22.7869   -4.6618  -12.9815 O   0  0  0  0  0  0  0  0  0  0  0  0
  2  1  1  0
  3  2  1  0
  3  4  1  1
  5  6  2  0
  5  3  1  0
  7  5  1  0
  8  7  1  0
  9 15  1  0
  9  8  1  0
 10  9  2  0
 12 13  1  0
 12 11  1  6
 14 15  1  6
 14 12  1  0
 16 14  1  0
 17 16  1  0
 18 16  2  0
M  END
$$$$
