SGT.pdb
     RDKit          3D

 18 17  0  0  1  0  0  0  0  0999 V2000
   17.6353  -13.0311  -17.9002 O   0  0  0  0  0  0  0  0  0  0  0  0
   18.8081  -12.6745  -17.2334 C   0  0  0  0  0  0  0  0  0  0  0  0
   18.4455  -11.5655  -16.2514 C   0  0  2  0  0  0  0  0  0  0  0  0
   17.8566  -10.4848  -16.9904 N   0  0  0  0  0  0  0  0  0  0  0  0
   19.6277  -11.0966  -15.5108 C   0  0  0  0  0  0  0  0  0  0  0  0
   20.3046  -11.9100  -14.8511 O   0  0  0  0  0  0  0  0  0  0  0  0
   20.0202   -9.7381  -15.5268 N   0  0  0  0  0  0  0  0  0  0  0  0
   21.2933   -9.3027  -14.9540 C   0  0  0  0  0  0  0  0  0  0  0  0
   21.4625   -7.8531  -15.2021 C   0  0  0  0  0  0  0  0  0  0  0  0
   22.4933   -7.2528  -14.8081 O   0  0  0  0  0  0  0  0  0  0  0  0
   21.1230   -6.1459  -18.5746 C   0  0  0  0  0  0  0  0  0  0  0  0
   20.2201   -5.4698  -17.6019 C   0  0  1  0  0  0  0  0  0  0  0  0
   18.8899   -5.9147  -17.7806 O   0  0  0  0  0  0  0  0  0  0  0  0
   20.5612   -5.7314  -16.1601 C   0  0  2  0  0  0  0  0  0  0  0  0
   20.4482   -7.1323  -15.8934 N   0  0  0  0  0  0  0  0  0  0  0  0
   19.7047   -4.9030  -15.2730 C   0  0  0  0  0  0  0  0  0  0  0  0
   18.7407   -5.4358  -14.4387 O   0  0  0  0  0  0  0  0  0  0  0  0
   19.8719   -3.6720  -15.2904 O   0  0  0  0  0  0  0  0  0  0  0  0
  2  1  1  0
  3  2  1  0
  3  4  1  6
  5  6  2  0
  5  3  1  0
  7  5  1  0
  8  7  1  0
  9 15  1  0
  9  8  1  0
 10  9  2  0
 12 13  1  0
 12 11  1  6
 14 15  1  1
 14 12  1  0
 16 14  1  0
 17 16  1  0
 18 16  2  0
M  END
$$$$
