SGT.pdb
     RDKit          3D

 18 17  0  0  1  0  0  0  0  0999 V2000
   18.1928  -12.5484  -16.0252 O   0  0  0  0  0  0  0  0  0  0  0  0
   19.5662  -12.5276  -16.2716 C   0  0  0  0  0  0  0  0  0  0  0  0
   19.8920  -11.1663  -16.8772 C   0  0  2  0  0  0  0  0  0  0  0  0
   19.9993  -11.3210  -18.3004 N   0  0  0  0  0  0  0  0  0  0  0  0
   21.1412  -10.6182  -16.3250 C   0  0  0  0  0  0  0  0  0  0  0  0
   22.0487  -11.3939  -15.9650 O   0  0  0  0  0  0  0  0  0  0  0  0
   21.3423   -9.2249  -16.1903 N   0  0  0  0  0  0  0  0  0  0  0  0
   22.6192   -8.6765  -15.7351 C   0  0  0  0  0  0  0  0  0  0  0  0
   22.5326   -7.1988  -15.7247 C   0  0  0  0  0  0  0  0  0  0  0  0
   23.0350   -6.5221  -16.6563 O   0  0  0  0  0  0  0  0  0  0  0  0
   19.4347   -5.5121  -13.5023 C   0  0  0  0  0  0  0  0  0  0  0  0
   20.1487   -4.8772  -14.6449 C   0  0  1  0  0  0  0  0  0  0  0  0
   19.9855   -3.4732  -14.6026 O   0  0  0  0  0  0  0  0  0  0  0  0
   21.6321   -5.1280  -14.6603 C   0  0  2  0  0  0  0  0  0  0  0  0
   21.8742   -6.5379  -14.6496 N   0  0  0  0  0  0  0  0  0  0  0  0
   22.2826   -4.4210  -13.5273 C   0  0  0  0  0  0  0  0  0  0  0  0
   22.5556   -3.0666  -13.5367 O   0  0  0  0  0  0  0  0  0  0  0  0
   22.5920   -5.0904  -12.5273 O   0  0  0  0  0  0  0  0  0  0  0  0
  2  1  1  0
  3  2  1  0
  3  4  1  6
  5  6  2  0
  5  3  1  0
  7  5  1  0
  8  7  1  0
  9 15  1  0
  9  8  1  0
 10  9  2  0
 12 13  1  0
 12 11  1  1
 14 15  1  1
 14 12  1  0
 16 14  1  0
 17 16  1  0
 18 16  2  0
M  END
$$$$
