SGT.pdb
     RDKit          3D

 18 17  0  0  1  0  0  0  0  0999 V2000
   14.7908   -9.2490  -17.3671 O   0  0  0  0  0  0  0  0  0  0  0  0
   15.4614   -9.7320  -18.4915 C   0  0  0  0  0  0  0  0  0  0  0  0
   16.9516   -9.7097  -18.1681 C   0  0  2  0  0  0  0  0  0  0  0  0
   17.1977  -10.6537  -17.1149 N   0  0  0  0  0  0  0  0  0  0  0  0
   17.3935   -8.3648  -17.7654 C   0  0  0  0  0  0  0  0  0  0  0  0
   17.3038   -7.4189  -18.5729 O   0  0  0  0  0  0  0  0  0  0  0  0
   17.9211   -8.1139  -16.4776 N   0  0  0  0  0  0  0  0  0  0  0  0
   18.1711   -6.7528  -16.0050 C   0  0  0  0  0  0  0  0  0  0  0  0
   19.3148   -6.7716  -15.0653 C   0  0  0  0  0  0  0  0  0  0  0  0
   19.3753   -7.6282  -14.1483 O   0  0  0  0  0  0  0  0  0  0  0  0
   22.7068   -7.4631  -15.9286 C   0  0  0  0  0  0  0  0  0  0  0  0
   22.7287   -6.1270  -15.2706 C   0  0  1  0  0  0  0  0  0  0  0  0
   22.7474   -5.1033  -16.2459 O   0  0  0  0  0  0  0  0  0  0  0  0
   21.5367   -5.8520  -14.3948 C   0  0  2  0  0  0  0  0  0  0  0  0
   20.3559   -5.8104  -15.2014 N   0  0  0  0  0  0  0  0  0  0  0  0
   21.7499   -4.6044  -13.6171 C   0  0  0  0  0  0  0  0  0  0  0  0
   21.0124   -3.4530  -13.8162 O   0  0  0  0  0  0  0  0  0  0  0  0
   22.6374   -4.6078  -12.7477 O   0  0  0  0  0  0  0  0  0  0  0  0
  2  1  1  0
  3  2  1  0
  3  4  1  1
  5  6  2  0
  5  3  1  0
  7  5  1  0
  8  7  1  0
  9 15  1  0
  9  8  1  0
 10  9  2  0
 12 13  1  0
 12 11  1  6
 14 15  1  6
 14 12  1  0
 16 14  1  0
 17 16  1  0
 18 16  2  0
M  END
$$$$
