SGT.pdb
     RDKit          3D

 18 17  0  0  1  0  0  0  0  0999 V2000
   18.8142  -13.7650  -16.1915 O   0  0  0  0  0  0  0  0  0  0  0  0
   19.8786  -12.8628  -16.2114 C   0  0  0  0  0  0  0  0  0  0  0  0
   19.2797  -11.4664  -16.3426 C   0  0  2  0  0  0  0  0  0  0  0  0
   18.7706  -11.3186  -17.6767 N   0  0  0  0  0  0  0  0  0  0  0  0
   20.2791  -10.4246  -16.0564 C   0  0  0  0  0  0  0  0  0  0  0  0
   20.7622  -10.3319  -14.9106 O   0  0  0  0  0  0  0  0  0  0  0  0
   20.7099   -9.5186  -17.0530 N   0  0  0  0  0  0  0  0  0  0  0  0
   21.7803   -8.5549  -16.8000 C   0  0  0  0  0  0  0  0  0  0  0  0
   21.2159   -7.3819  -16.0952 C   0  0  0  0  0  0  0  0  0  0  0  0
   20.3315   -6.6740  -16.6383 O   0  0  0  0  0  0  0  0  0  0  0  0
   19.4565   -7.4934  -12.8905 C   0  0  0  0  0  0  0  0  0  0  0  0
   20.5745   -6.5220  -12.7326 C   0  0  1  0  0  0  0  0  0  0  0  0
   21.6674   -7.1380  -12.0802 O   0  0  0  0  0  0  0  0  0  0  0  0
   21.1095   -5.9820  -14.0310 C   0  0  2  0  0  0  0  0  0  0  0  0
   21.6791   -7.0525  -14.7902 N   0  0  0  0  0  0  0  0  0  0  0  0
   22.0731   -4.8820  -13.7696 C   0  0  0  0  0  0  0  0  0  0  0  0
   21.7083   -3.6741  -13.2066 O   0  0  0  0  0  0  0  0  0  0  0  0
   23.2626   -5.0683  -14.0763 O   0  0  0  0  0  0  0  0  0  0  0  0
  2  1  1  0
  3  2  1  0
  3  4  1  6
  5  6  2  0
  5  3  1  0
  7  5  1  0
  8  7  1  0
  9 15  1  0
  9  8  1  0
 10  9  2  0
 12 13  1  0
 12 11  1  6
 14 15  1  1
 14 12  1  0
 16 14  1  0
 17 16  1  0
 18 16  2  0
M  END
$$$$
