SGT.pdb
     RDKit          3D

 18 17  0  0  1  0  0  0  0  0999 V2000
   12.9542  -10.3837   -8.8162 O   0  0  0  0  0  0  0  0  0  0  0  0
   13.5824   -9.2105   -9.2361 C   0  0  0  0  0  0  0  0  0  0  0  0
   14.6559   -9.6127  -10.2420 C   0  0  2  0  0  0  0  0  0  0  0  0
   15.6821  -10.3320   -9.5415 N   0  0  0  0  0  0  0  0  0  0  0  0
   15.2248   -8.4363  -10.9191 C   0  0  0  0  0  0  0  0  0  0  0  0
   14.4764   -7.6720  -11.5598 O   0  0  0  0  0  0  0  0  0  0  0  0
   16.6078   -8.1467  -10.8626 N   0  0  0  0  0  0  0  0  0  0  0  0
   17.1685   -6.9617  -11.5105 C   0  0  0  0  0  0  0  0  0  0  0  0
   18.6454   -7.0622  -11.5035 C   0  0  0  0  0  0  0  0  0  0  0  0
   19.2440   -7.6209  -10.5508 O   0  0  0  0  0  0  0  0  0  0  0  0
   20.7986   -8.7870  -13.9325 C   0  0  0  0  0  0  0  0  0  0  0  0
   21.2105   -7.3558  -13.9055 C   0  0  1  0  0  0  0  0  0  0  0  0
   20.6065   -6.6542  -14.9743 O   0  0  0  0  0  0  0  0  0  0  0  0
   20.8201   -6.6260  -12.6491 C   0  0  2  0  0  0  0  0  0  0  0  0
   19.3947   -6.5209  -12.5860 N   0  0  0  0  0  0  0  0  0  0  0  0
   21.5001   -5.3065  -12.5913 C   0  0  0  0  0  0  0  0  0  0  0  0
   22.8438   -5.1595  -12.3046 O   0  0  0  0  0  0  0  0  0  0  0  0
   20.8176   -4.2924  -12.8133 O   0  0  0  0  0  0  0  0  0  0  0  0
  2  1  1  0
  3  2  1  0
  3  4  1  1
  5  6  2  0
  5  3  1  0
  7  5  1  0
  8  7  1  0
  9 15  1  0
  9  8  1  0
 10  9  2  0
 12 13  1  0
 12 11  1  1
 14 15  1  6
 14 12  1  0
 16 14  1  0
 17 16  1  0
 18 16  2  0
M  END
$$$$
