CFA.pdb
     RDKit          3D

 23 23  0  0  1  0  0  0  0  0999 V2000
    8.2549  -14.2847   20.4568 N   0  0  0  0  0  0  0  0  0  0  0  0
    7.7010  -15.3333   21.3459 C   0  0  1  0  0  0  0  0  0  0  0  0
    7.8003  -16.6355   20.6485 C   0  0  0  0  0  0  0  0  0  0  0  0
    7.2814  -17.9946   21.7172 S   0  0  0  0  0  0  0  0  0  0  0  0
    8.3386  -15.2043   22.6446 C   0  0  0  0  0  0  0  0  0  0  0  0
    9.4865  -14.6336   22.6942 O   0  0  0  0  0  0  0  0  0  0  0  0
    7.8647  -15.6259   23.8959 N   0  0  0  0  0  0  0  0  0  0  0  0
    8.5963  -15.5026   25.1299 C   0  0  1  0  0  0  0  0  0  0  0  0
    7.7148  -15.1406   26.2680 C   0  0  0  0  0  0  0  0  0  0  0  0
    7.3915  -13.7224   26.4090 C   0  0  0  0  0  0  0  0  0  0  0  0
    8.3479  -12.7062   26.4390 C   0  0  0  0  0  0  0  0  0  0  0  0
    7.9781  -11.3810   26.5602 C   0  0  0  0  0  0  0  0  0  0  0  0
    6.6649  -11.0113   26.6555 C   0  0  0  0  0  0  0  0  0  0  0  0
    5.7012  -11.9981   26.6281 C   0  0  0  0  0  0  0  0  0  0  0  0
    6.0807  -13.3046   26.5079 C   0  0  0  0  0  0  0  0  0  0  0  0
    9.4858  -16.6542   25.4120 C   0  0  0  0  0  0  0  0  0  0  0  0
   10.0277  -16.7347   26.5353 O   0  0  0  0  0  0  0  0  0  0  0  0
   10.2750  -19.9673   23.7213 C   0  0  0  0  0  0  0  0  0  0  0  0
   10.5290  -18.8596   24.6952 C   0  0  2  0  0  0  0  0  0  0  0  0
    9.7474  -17.6691   24.4581 N   0  0  0  0  0  0  0  0  0  0  0  0
   11.9858  -18.5902   24.8204 C   0  0  0  0  0  0  0  0  0  0  0  0
   12.4365  -17.3284   24.4744 O   0  0  0  0  0  0  0  0  0  0  0  0
   12.7445  -19.4864   25.2240 O   0  0  0  0  0  0  0  0  0  0  0  0
  2  1  1  6
  3  2  1  0
  4  3  1  0
  5  6  2  0
  5  2  1  0
  7  5  1  0
  8  7  1  0
  8  9  1  1
  9 10  1  0
 10 15  2  0
 11 12  2  0
 11 10  1  0
 12 13  1  0
 13 14  2  0
 15 14  1  0
 16  8  1  0
 17 16  2  0
 19 18  1  6
 19 20  1  0
 20 16  1  0
 21 22  1  0
 21 19  1  0
 23 21  2  0
M  END
$$$$
