CFA.pdb
     RDKit          3D

 23 23  0  0  1  0  0  0  0  0999 V2000
   10.8975  -16.6632   20.2482 N   0  0  0  0  0  0  0  0  0  0  0  0
    9.6853  -17.0381   21.0141 C   0  0  1  0  0  0  0  0  0  0  0  0
    9.7665  -18.4804   21.3381 C   0  0  0  0  0  0  0  0  0  0  0  0
    8.1256  -19.1930   21.5800 S   0  0  0  0  0  0  0  0  0  0  0  0
    9.5393  -16.0990   22.1126 C   0  0  0  0  0  0  0  0  0  0  0  0
   10.6047  -15.7037   22.7081 O   0  0  0  0  0  0  0  0  0  0  0  0
    8.3626  -15.5408   22.6341 N   0  0  0  0  0  0  0  0  0  0  0  0
    8.3032  -14.7132   23.8108 C   0  0  1  0  0  0  0  0  0  0  0  0
    7.1203  -13.8166   23.8039 C   0  0  0  0  0  0  0  0  0  0  0  0
    6.9423  -12.9730   24.9840 C   0  0  0  0  0  0  0  0  0  0  0  0
    7.7363  -11.8619   25.2723 C   0  0  0  0  0  0  0  0  0  0  0  0
    7.5089  -11.0945   26.3979 C   0  0  0  0  0  0  0  0  0  0  0  0
    6.5004  -11.3906   27.2729 C   0  0  0  0  0  0  0  0  0  0  0  0
    5.7020  -12.4844   27.0091 C   0  0  0  0  0  0  0  0  0  0  0  0
    5.9379  -13.2346   25.8924 C   0  0  0  0  0  0  0  0  0  0  0  0
    8.4689  -15.4661   25.0768 C   0  0  0  0  0  0  0  0  0  0  0  0
    8.7225  -14.8333   26.1242 O   0  0  0  0  0  0  0  0  0  0  0  0
    7.6512  -18.9494   26.2952 C   0  0  0  0  0  0  0  0  0  0  0  0
    8.4120  -17.6620   26.3578 C   0  0  2  0  0  0  0  0  0  0  0  0
    8.3514  -16.8766   25.1478 N   0  0  0  0  0  0  0  0  0  0  0  0
    9.7995  -17.8915   26.8398 C   0  0  0  0  0  0  0  0  0  0  0  0
   10.8372  -17.4238   26.0528 O   0  0  0  0  0  0  0  0  0  0  0  0
    9.9871  -18.4849   27.9143 O   0  0  0  0  0  0  0  0  0  0  0  0
  2  1  1  1
  3  2  1  0
  4  3  1  0
  5  6  2  0
  5  2  1  0
  7  5  1  0
  8  7  1  0
  8  9  1  1
  9 10  1  0
 10 15  2  0
 11 12  2  0
 11 10  1  0
 12 13  1  0
 13 14  2  0
 15 14  1  0
 16  8  1  0
 17 16  2  0
 19 18  1  6
 19 20  1  0
 20 16  1  0
 21 22  1  0
 21 19  1  0
 23 21  2  0
M  END
$$$$
