CFA.pdb
     RDKit          3D

 23 23  0  0  1  0  0  0  0  0999 V2000
   10.6743  -16.7543   19.4541 N   0  0  0  0  0  0  0  0  0  0  0  0
    9.5457  -17.2148   20.2974 C   0  0  1  0  0  0  0  0  0  0  0  0
    9.6614  -18.6807   20.4702 C   0  0  0  0  0  0  0  0  0  0  0  0
    8.4971  -19.5614   19.4084 S   0  0  0  0  0  0  0  0  0  0  0  0
    9.5095  -16.3876   21.4908 C   0  0  0  0  0  0  0  0  0  0  0  0
   10.6281  -16.0630   22.0286 O   0  0  0  0  0  0  0  0  0  0  0  0
    8.3910  -15.8729   22.1632 N   0  0  0  0  0  0  0  0  0  0  0  0
    8.4457  -15.1639   23.4151 C   0  0  1  0  0  0  0  0  0  0  0  0
    7.3100  -14.2213   23.5733 C   0  0  0  0  0  0  0  0  0  0  0  0
    7.2442  -13.4961   24.8404 C   0  0  0  0  0  0  0  0  0  0  0  0
    8.0541  -12.4033   25.1537 C   0  0  0  0  0  0  0  0  0  0  0  0
    7.9343  -11.7497   26.3646 C   0  0  0  0  0  0  0  0  0  0  0  0
    7.0208  -12.1447   27.3026 C   0  0  0  0  0  0  0  0  0  0  0  0
    6.2090  -13.2226   27.0157 C   0  0  0  0  0  0  0  0  0  0  0  0
    6.3379  -13.8598   25.8146 C   0  0  0  0  0  0  0  0  0  0  0  0
    8.6532  -16.0445   24.5892 C   0  0  0  0  0  0  0  0  0  0  0  0
    7.7682  -16.8775   24.8802 O   0  0  0  0  0  0  0  0  0  0  0  0
   11.5134  -17.6215   26.1231 C   0  0  0  0  0  0  0  0  0  0  0  0
   10.2007  -16.9542   26.3903 C   0  0  2  0  0  0  0  0  0  0  0  0
    9.8162  -15.9800   25.3964 N   0  0  0  0  0  0  0  0  0  0  0  0
   10.1492  -16.4273   27.7795 C   0  0  0  0  0  0  0  0  0  0  0  0
    9.8367  -15.0896   27.9466 O   0  0  0  0  0  0  0  0  0  0  0  0
   10.3833  -17.1861   28.7341 O   0  0  0  0  0  0  0  0  0  0  0  0
  2  1  1  6
  3  2  1  0
  4  3  1  0
  5  6  2  0
  5  2  1  0
  7  5  1  0
  8  7  1  0
  8  9  1  1
  9 10  1  0
 10 15  2  0
 11 12  2  0
 11 10  1  0
 12 13  1  0
 13 14  2  0
 15 14  1  0
 16  8  1  0
 17 16  2  0
 19 18  1  6
 19 20  1  0
 20 16  1  0
 21 22  1  0
 21 19  1  0
 23 21  2  0
M  END
$$$$
