CFA.pdb
     RDKit          3D

 23 23  0  0  1  0  0  0  0  0999 V2000
   11.7424  -16.3966   20.4686 N   0  0  0  0  0  0  0  0  0  0  0  0
   10.5434  -16.9616   21.1320 C   0  0  1  0  0  0  0  0  0  0  0  0
   10.7829  -18.4015   21.3793 C   0  0  0  0  0  0  0  0  0  0  0  0
    9.5957  -19.0713   22.5628 S   0  0  0  0  0  0  0  0  0  0  0  0
   10.2198  -16.1183   22.2695 C   0  0  0  0  0  0  0  0  0  0  0  0
   11.1857  -15.5212   22.8664 O   0  0  0  0  0  0  0  0  0  0  0  0
    8.9612  -15.8512   22.8287 N   0  0  0  0  0  0  0  0  0  0  0  0
    8.7387  -15.0058   23.9728 C   0  0  1  0  0  0  0  0  0  0  0  0
    7.4485  -14.2771   23.8864 C   0  0  0  0  0  0  0  0  0  0  0  0
    7.1307  -13.3915   25.0047 C   0  0  0  0  0  0  0  0  0  0  0  0
    6.1769  -13.6836   25.9810 C   0  0  0  0  0  0  0  0  0  0  0  0
    5.9315  -12.8111   27.0232 C   0  0  0  0  0  0  0  0  0  0  0  0
    6.6102  -11.6296   27.1410 C   0  0  0  0  0  0  0  0  0  0  0  0
    7.5580  -11.3188   26.1879 C   0  0  0  0  0  0  0  0  0  0  0  0
    7.7907  -12.1906   25.1626 C   0  0  0  0  0  0  0  0  0  0  0  0
    8.9457  -15.6930   25.2697 C   0  0  0  0  0  0  0  0  0  0  0  0
    8.8612  -15.0269   26.3237 O   0  0  0  0  0  0  0  0  0  0  0  0
    8.9565  -19.2614   26.4826 C   0  0  0  0  0  0  0  0  0  0  0  0
    9.3623  -17.8249   26.5916 C   0  0  2  0  0  0  0  0  0  0  0  0
    9.2362  -17.0770   25.3631 N   0  0  0  0  0  0  0  0  0  0  0  0
   10.7045  -17.7015   27.2189 C   0  0  0  0  0  0  0  0  0  0  0  0
   11.6637  -16.9691   26.5418 O   0  0  0  0  0  0  0  0  0  0  0  0
   10.9253  -18.2478   28.3119 O   0  0  0  0  0  0  0  0  0  0  0  0
  2  1  1  1
  3  2  1  0
  4  3  1  0
  5  6  2  0
  5  2  1  0
  7  5  1  0
  8  7  1  0
  8  9  1  1
  9 10  1  0
 10 15  2  0
 11 12  2  0
 11 10  1  0
 12 13  1  0
 13 14  2  0
 15 14  1  0
 16  8  1  0
 17 16  2  0
 19 18  1  6
 19 20  1  0
 20 16  1  0
 21 22  1  0
 21 19  1  0
 23 21  2  0
M  END
$$$$
