CFA.pdb
     RDKit          3D

 23 23  0  0  1  0  0  0  0  0999 V2000
    8.0247  -13.3880   19.8347 N   0  0  0  0  0  0  0  0  0  0  0  0
    7.1967  -14.2883   20.6718 C   0  0  1  0  0  0  0  0  0  0  0  0
    6.9418  -15.5308   19.9081 C   0  0  0  0  0  0  0  0  0  0  0  0
    8.4158  -16.5705   19.8338 S   0  0  0  0  0  0  0  0  0  0  0  0
    7.8333  -14.4049   21.9721 C   0  0  0  0  0  0  0  0  0  0  0  0
    9.0076  -13.9071   22.1108 O   0  0  0  0  0  0  0  0  0  0  0  0
    7.3332  -15.0016   23.1391 N   0  0  0  0  0  0  0  0  0  0  0  0
    8.0852  -15.1741   24.3548 C   0  0  1  0  0  0  0  0  0  0  0  0
    7.2415  -14.9977   25.5633 C   0  0  0  0  0  0  0  0  0  0  0  0
    7.0332  -13.6220   26.0105 C   0  0  0  0  0  0  0  0  0  0  0  0
    8.0635  -12.7713   26.4142 C   0  0  0  0  0  0  0  0  0  0  0  0
    7.8039  -11.4748   26.8133 C   0  0  0  0  0  0  0  0  0  0  0  0
    6.5317  -10.9731   26.8293 C   0  0  0  0  0  0  0  0  0  0  0  0
    5.4966  -11.7952   26.4345 C   0  0  0  0  0  0  0  0  0  0  0  0
    5.7673  -13.0751   26.0423 C   0  0  0  0  0  0  0  0  0  0  0  0
    8.9033  -16.4098   24.3782 C   0  0  0  0  0  0  0  0  0  0  0  0
    8.3273  -17.5146   24.2802 O   0  0  0  0  0  0  0  0  0  0  0  0
   12.5581  -17.3205   24.0576 C   0  0  0  0  0  0  0  0  0  0  0  0
   11.1674  -17.5532   24.5595 C   0  0  2  0  0  0  0  0  0  0  0  0
   10.3145  -16.3895   24.5076 N   0  0  0  0  0  0  0  0  0  0  0  0
   11.1903  -18.2051   25.8955 C   0  0  0  0  0  0  0  0  0  0  0  0
   11.9752  -19.3351   26.0441 O   0  0  0  0  0  0  0  0  0  0  0  0
   10.5181  -17.7281   26.8242 O   0  0  0  0  0  0  0  0  0  0  0  0
  2  1  1  6
  3  2  1  0
  4  3  1  0
  5  6  2  0
  5  2  1  0
  7  5  1  0
  8  7  1  0
  8  9  1  1
  9 10  1  0
 10 15  2  0
 11 12  2  0
 11 10  1  0
 12 13  1  0
 13 14  2  0
 15 14  1  0
 16  8  1  0
 17 16  2  0
 19 18  1  1
 19 20  1  0
 20 16  1  0
 21 22  1  0
 21 19  1  0
 23 21  2  0
M  END
$$$$
