CFA.pdb
     RDKit          3D

 23 23  0  0  1  0  0  0  0  0999 V2000
    7.2776  -16.3650   21.4120 N   0  0  0  0  0  0  0  0  0  0  0  0
    8.4083  -15.4067   21.4208 C   0  0  1  0  0  0  0  0  0  0  0  0
    7.9753  -14.1692   20.7331 C   0  0  0  0  0  0  0  0  0  0  0  0
    6.7318  -14.5189   19.4719 S   0  0  0  0  0  0  0  0  0  0  0  0
    8.8925  -15.2953   22.7856 C   0  0  0  0  0  0  0  0  0  0  0  0
    9.9667  -14.6234   22.9870 O   0  0  0  0  0  0  0  0  0  0  0  0
    8.3366  -15.8326   23.9563 N   0  0  0  0  0  0  0  0  0  0  0  0
    8.9104  -15.6966   25.2698 C   0  0  1  0  0  0  0  0  0  0  0  0
    7.8848  -15.3920   26.2986 C   0  0  0  0  0  0  0  0  0  0  0  0
    7.3696  -14.0244   26.3121 C   0  0  0  0  0  0  0  0  0  0  0  0
    6.0410  -13.6914   26.0433 C   0  0  0  0  0  0  0  0  0  0  0  0
    5.6111  -12.3796   26.0858 C   0  0  0  0  0  0  0  0  0  0  0  0
    6.4660  -11.3569   26.3916 C   0  0  0  0  0  0  0  0  0  0  0  0
    7.7843  -11.6613   26.6611 C   0  0  0  0  0  0  0  0  0  0  0  0
    8.1961  -12.9627   26.6157 C   0  0  0  0  0  0  0  0  0  0  0  0
    9.8121  -16.8120   25.6436 C   0  0  0  0  0  0  0  0  0  0  0  0
   10.2308  -16.8789   26.8192 O   0  0  0  0  0  0  0  0  0  0  0  0
   11.0907  -20.0027   23.9967 C   0  0  0  0  0  0  0  0  0  0  0  0
   11.1147  -18.9022   25.0108 C   0  0  2  0  0  0  0  0  0  0  0  0
   10.2194  -17.8073   24.7206 N   0  0  0  0  0  0  0  0  0  0  0  0
   12.5093  -18.4642   25.2819 C   0  0  0  0  0  0  0  0  0  0  0  0
   12.8931  -17.2202   24.8129 O   0  0  0  0  0  0  0  0  0  0  0  0
   13.2775  -19.2111   25.9094 O   0  0  0  0  0  0  0  0  0  0  0  0
  2  1  1  1
  3  2  1  0
  4  3  1  0
  5  6  2  0
  5  2  1  0
  7  5  1  0
  8  7  1  0
  8  9  1  1
  9 10  1  0
 10 15  2  0
 11 12  2  0
 11 10  1  0
 12 13  1  0
 13 14  2  0
 15 14  1  0
 16  8  1  0
 17 16  2  0
 19 18  1  6
 19 20  1  0
 20 16  1  0
 21 22  1  0
 21 19  1  0
 23 21  2  0
M  END
$$$$
