CFA.pdb
     RDKit          3D

 23 23  0  0  1  0  0  0  0  0999 V2000
   10.0084  -17.0017   19.7784 N   0  0  0  0  0  0  0  0  0  0  0  0
    9.3528  -17.5840   20.9734 C   0  0  1  0  0  0  0  0  0  0  0  0
   10.0072  -18.8760   21.2806 C   0  0  0  0  0  0  0  0  0  0  0  0
    8.8380  -20.0513   21.9953 S   0  0  0  0  0  0  0  0  0  0  0  0
    9.3267  -16.5684   22.0115 C   0  0  0  0  0  0  0  0  0  0  0  0
   10.3746  -15.8450   22.1681 O   0  0  0  0  0  0  0  0  0  0  0  0
    8.2860  -16.2513   22.8973 N   0  0  0  0  0  0  0  0  0  0  0  0
    8.3579  -15.2299   23.9095 C   0  0  1  0  0  0  0  0  0  0  0  0
    7.0516  -14.5564   24.1173 C   0  0  0  0  0  0  0  0  0  0  0  0
    7.0196  -13.5093   25.1364 C   0  0  0  0  0  0  0  0  0  0  0  0
    7.7695  -12.3341   25.0673 C   0  0  0  0  0  0  0  0  0  0  0  0
    7.6851  -11.3741   26.0568 C   0  0  0  0  0  0  0  0  0  0  0  0
    6.8665  -11.5349   27.1405 C   0  0  0  0  0  0  0  0  0  0  0  0
    6.1154  -12.6885   27.2309 C   0  0  0  0  0  0  0  0  0  0  0  0
    6.2084  -13.6297   26.2454 C   0  0  0  0  0  0  0  0  0  0  0  0
    8.9981  -15.6828   25.1673 C   0  0  0  0  0  0  0  0  0  0  0  0
    9.2171  -14.8434   26.0669 O   0  0  0  0  0  0  0  0  0  0  0  0
    9.2378  -18.7978   27.1130 C   0  0  0  0  0  0  0  0  0  0  0  0
    9.9141  -17.5559   26.6228 C   0  0  2  0  0  0  0  0  0  0  0  0
    9.3727  -17.0310   25.3916 N   0  0  0  0  0  0  0  0  0  0  0  0
   11.3891  -17.7377   26.5850 C   0  0  0  0  0  0  0  0  0  0  0  0
   12.0375  -17.4721   25.3917 O   0  0  0  0  0  0  0  0  0  0  0  0
   11.9886  -18.1155   27.6047 O   0  0  0  0  0  0  0  0  0  0  0  0
  2  1  1  6
  3  2  1  0
  4  3  1  0
  5  6  2  0
  5  2  1  0
  7  5  1  0
  8  7  1  0
  8  9  1  1
  9 10  1  0
 10 15  2  0
 11 12  2  0
 11 10  1  0
 12 13  1  0
 13 14  2  0
 15 14  1  0
 16  8  1  0
 17 16  2  0
 19 18  1  6
 19 20  1  0
 20 16  1  0
 21 22  1  0
 21 19  1  0
 23 21  2  0
M  END
$$$$
