CFA.pdb
     RDKit          3D

 23 23  0  0  1  0  0  0  0  0999 V2000
    8.2471  -13.2442   20.1108 N   0  0  0  0  0  0  0  0  0  0  0  0
    7.8870  -14.5259   20.7622 C   0  0  1  0  0  0  0  0  0  0  0  0
    8.2801  -15.6330   19.8612 C   0  0  0  0  0  0  0  0  0  0  0  0
    6.8768  -16.2180   18.8878 S   0  0  0  0  0  0  0  0  0  0  0  0
    8.4327  -14.5150   22.1083 C   0  0  0  0  0  0  0  0  0  0  0  0
    9.5427  -13.9007   22.2995 O   0  0  0  0  0  0  0  0  0  0  0  0
    7.9036  -15.0969   23.2700 N   0  0  0  0  0  0  0  0  0  0  0  0
    8.5634  -15.1105   24.5497 C   0  0  1  0  0  0  0  0  0  0  0  0
    7.6040  -14.9761   25.6743 C   0  0  0  0  0  0  0  0  0  0  0  0
    7.1557  -13.6196   25.9824 C   0  0  0  0  0  0  0  0  0  0  0  0
    5.8145  -13.2361   26.0304 C   0  0  0  0  0  0  0  0  0  0  0  0
    5.4533  -11.9400   26.3419 C   0  0  0  0  0  0  0  0  0  0  0  0
    6.3910  -10.9827   26.6150 C   0  0  0  0  0  0  0  0  0  0  0  0
    7.7235  -11.3379   26.5737 C   0  0  0  0  0  0  0  0  0  0  0  0
    8.0668  -12.6231   26.2643 C   0  0  0  0  0  0  0  0  0  0  0  0
    9.5175  -16.2327   24.7153 C   0  0  0  0  0  0  0  0  0  0  0  0
   10.0312  -16.4248   25.8384 O   0  0  0  0  0  0  0  0  0  0  0  0
   10.7349  -19.1747   22.6281 C   0  0  0  0  0  0  0  0  0  0  0  0
   10.8457  -18.1611   23.7237 C   0  0  2  0  0  0  0  0  0  0  0  0
    9.8717  -17.0979   23.6503 N   0  0  0  0  0  0  0  0  0  0  0  0
   12.2431  -17.6693   23.8488 C   0  0  0  0  0  0  0  0  0  0  0  0
   12.4555  -16.3063   23.7385 O   0  0  0  0  0  0  0  0  0  0  0  0
   13.1645  -18.4782   24.0451 O   0  0  0  0  0  0  0  0  0  0  0  0
  2  1  1  6
  3  2  1  0
  4  3  1  0
  5  6  2  0
  5  2  1  0
  7  5  1  0
  8  7  1  0
  8  9  1  1
  9 10  1  0
 10 15  2  0
 11 12  2  0
 11 10  1  0
 12 13  1  0
 13 14  2  0
 15 14  1  0
 16  8  1  0
 17 16  2  0
 19 18  1  6
 19 20  1  0
 20 16  1  0
 21 22  1  0
 21 19  1  0
 23 21  2  0
M  END
$$$$
