CFA.pdb
     RDKit          3D

 23 23  0  0  1  0  0  0  0  0999 V2000
    8.1612  -13.9507   19.2615 N   0  0  0  0  0  0  0  0  0  0  0  0
    7.5478  -15.0807   19.9988 C   0  0  1  0  0  0  0  0  0  0  0  0
    7.8019  -16.3255   19.2387 C   0  0  0  0  0  0  0  0  0  0  0  0
    7.2138  -17.7762   20.1379 S   0  0  0  0  0  0  0  0  0  0  0  0
    8.0022  -15.0177   21.3770 C   0  0  0  0  0  0  0  0  0  0  0  0
    9.2213  -14.6802   21.5908 O   0  0  0  0  0  0  0  0  0  0  0  0
    7.2765  -15.2797   22.5487 N   0  0  0  0  0  0  0  0  0  0  0  0
    7.8353  -15.2655   23.8756 C   0  0  1  0  0  0  0  0  0  0  0  0
    6.8012  -15.0333   24.9147 C   0  0  0  0  0  0  0  0  0  0  0  0
    6.9303  -13.8015   25.6906 C   0  0  0  0  0  0  0  0  0  0  0  0
    8.0593  -13.4704   26.4416 C   0  0  0  0  0  0  0  0  0  0  0  0
    8.1270  -12.2827   27.1433 C   0  0  0  0  0  0  0  0  0  0  0  0
    7.0947  -11.3857   27.1313 C   0  0  0  0  0  0  0  0  0  0  0  0
    5.9680  -11.6909   26.3960 C   0  0  0  0  0  0  0  0  0  0  0  0
    5.9143  -12.8688   25.7067 C   0  0  0  0  0  0  0  0  0  0  0  0
    8.7153  -16.4231   24.1632 C   0  0  0  0  0  0  0  0  0  0  0  0
    8.2232  -17.5718   24.1452 O   0  0  0  0  0  0  0  0  0  0  0  0
   12.3864  -17.1728   24.2328 C   0  0  0  0  0  0  0  0  0  0  0  0
   11.0008  -17.3604   24.7664 C   0  0  2  0  0  0  0  0  0  0  0  0
   10.0940  -16.2801   24.4582 N   0  0  0  0  0  0  0  0  0  0  0  0
   11.0339  -17.7046   26.2124 C   0  0  0  0  0  0  0  0  0  0  0  0
   10.2223  -16.9754   27.0637 O   0  0  0  0  0  0  0  0  0  0  0  0
   11.7739  -18.6188   26.6102 O   0  0  0  0  0  0  0  0  0  0  0  0
  2  1  1  6
  3  2  1  0
  4  3  1  0
  5  6  2  0
  5  2  1  0
  7  5  1  0
  8  7  1  0
  8  9  1  1
  9 10  1  0
 10 15  2  0
 11 12  2  0
 11 10  1  0
 12 13  1  0
 13 14  2  0
 15 14  1  0
 16  8  1  0
 17 16  2  0
 19 18  1  1
 19 20  1  0
 20 16  1  0
 21 22  1  0
 21 19  1  0
 23 21  2  0
M  END
$$$$
