CFA.pdb
     RDKit          3D

 23 23  0  0  1  0  0  0  0  0999 V2000
    9.9996  -16.1350   18.7618 N   0  0  0  0  0  0  0  0  0  0  0  0
    9.0902  -16.7522   19.7562 C   0  0  1  0  0  0  0  0  0  0  0  0
    9.4175  -18.1926   19.8558 C   0  0  0  0  0  0  0  0  0  0  0  0
    8.4201  -19.0072   21.1209 S   0  0  0  0  0  0  0  0  0  0  0  0
    9.1427  -15.9548   20.9691 C   0  0  0  0  0  0  0  0  0  0  0  0
   10.2936  -15.5634   21.3791 O   0  0  0  0  0  0  0  0  0  0  0  0
    8.0815  -15.5346   21.7848 N   0  0  0  0  0  0  0  0  0  0  0  0
    8.2389  -14.9187   23.0767 C   0  0  1  0  0  0  0  0  0  0  0  0
    7.0958  -14.0353   23.4174 C   0  0  0  0  0  0  0  0  0  0  0  0
    7.1548  -13.3762   24.7205 C   0  0  0  0  0  0  0  0  0  0  0  0
    7.9852  -12.2912   25.0060 C   0  0  0  0  0  0  0  0  0  0  0  0
    7.9852  -11.7014   26.2549 C   0  0  0  0  0  0  0  0  0  0  0  0
    7.1749  -12.1543   27.2592 C   0  0  0  0  0  0  0  0  0  0  0  0
    6.3452  -13.2257   27.0009 C   0  0  0  0  0  0  0  0  0  0  0  0
    6.3551  -13.7996   25.7616 C   0  0  0  0  0  0  0  0  0  0  0  0
    8.5903  -15.8753   24.1531 C   0  0  0  0  0  0  0  0  0  0  0  0
    7.7599  -16.7529   24.4726 O   0  0  0  0  0  0  0  0  0  0  0  0
   11.7355  -17.1590   25.6872 C   0  0  0  0  0  0  0  0  0  0  0  0
   10.2862  -16.8042   25.8045 C   0  0  2  0  0  0  0  0  0  0  0  0
    9.8315  -15.8349   24.8359 N   0  0  0  0  0  0  0  0  0  0  0  0
    9.9433  -16.4405   27.2046 C   0  0  0  0  0  0  0  0  0  0  0  0
   10.2030  -17.3748   28.1917 O   0  0  0  0  0  0  0  0  0  0  0  0
    9.4429  -15.3301   27.4466 O   0  0  0  0  0  0  0  0  0  0  0  0
  2  1  1  6
  3  2  1  0
  4  3  1  0
  5  6  2  0
  5  2  1  0
  7  5  1  0
  8  7  1  0
  8  9  1  1
  9 10  1  0
 10 15  2  0
 11 12  2  0
 11 10  1  0
 12 13  1  0
 13 14  2  0
 15 14  1  0
 16  8  1  0
 17 16  2  0
 19 18  1  1
 19 20  1  0
 20 16  1  0
 21 22  1  0
 21 19  1  0
 23 21  2  0
M  END
$$$$
