CFA.pdb
     RDKit          3D

 23 23  0  0  1  0  0  0  0  0999 V2000
   11.3016  -16.4257   20.0059 N   0  0  0  0  0  0  0  0  0  0  0  0
   10.7998  -17.1832   21.1768 C   0  0  1  0  0  0  0  0  0  0  0  0
   11.8140  -18.1968   21.5453 C   0  0  0  0  0  0  0  0  0  0  0  0
   11.2903  -19.1591   22.9801 S   0  0  0  0  0  0  0  0  0  0  0  0
   10.3920  -16.2259   22.1903 C   0  0  0  0  0  0  0  0  0  0  0  0
   11.1606  -15.2225   22.4101 O   0  0  0  0  0  0  0  0  0  0  0  0
    9.2395  -16.2384   22.9902 N   0  0  0  0  0  0  0  0  0  0  0  0
    8.9512  -15.2763   24.0219 C   0  0  1  0  0  0  0  0  0  0  0  0
    7.5264  -14.8602   24.0152 C   0  0  0  0  0  0  0  0  0  0  0  0
    7.1573  -13.8047   24.9562 C   0  0  0  0  0  0  0  0  0  0  0  0
    7.5704  -12.4768   24.8363 C   0  0  0  0  0  0  0  0  0  0  0  0
    7.1758  -11.5208   25.7517 C   0  0  0  0  0  0  0  0  0  0  0  0
    6.3672  -11.8346   26.8091 C   0  0  0  0  0  0  0  0  0  0  0  0
    5.9459  -13.1408   26.9488 C   0  0  0  0  0  0  0  0  0  0  0  0
    6.3436  -14.0761   26.0364 C   0  0  0  0  0  0  0  0  0  0  0  0
    9.4464  -15.6736   25.3613 C   0  0  0  0  0  0  0  0  0  0  0  0
    9.4192  -16.8821   25.6786 O   0  0  0  0  0  0  0  0  0  0  0  0
   10.8116  -13.8830   28.4502 C   0  0  0  0  0  0  0  0  0  0  0  0
   10.5477  -15.0651   27.5710 C   0  0  2  0  0  0  0  0  0  0  0  0
    9.9503  -14.7372   26.2981 N   0  0  0  0  0  0  0  0  0  0  0  0
    9.8077  -16.1200   28.3125 C   0  0  0  0  0  0  0  0  0  0  0  0
    8.5702  -16.4994   27.8230 O   0  0  0  0  0  0  0  0  0  0  0  0
   10.3094  -16.6228   29.3310 O   0  0  0  0  0  0  0  0  0  0  0  0
  2  1  1  6
  3  2  1  0
  4  3  1  0
  5  6  2  0
  5  2  1  0
  7  5  1  0
  8  7  1  0
  8  9  1  1
  9 10  1  0
 10 15  2  0
 11 12  2  0
 11 10  1  0
 12 13  1  0
 13 14  2  0
 15 14  1  0
 16  8  1  0
 17 16  2  0
 19 18  1  1
 19 20  1  0
 20 16  1  0
 21 22  1  0
 21 19  1  0
 23 21  2  0
M  END
$$$$
