CFA.pdb
     RDKit          3D

 23 23  0  0  1  0  0  0  0  0999 V2000
    8.7988  -17.2840   19.2285 N   0  0  0  0  0  0  0  0  0  0  0  0
    8.3625  -17.8217   20.5389 C   0  0  1  0  0  0  0  0  0  0  0  0
    9.0658  -19.1031   20.7740 C   0  0  0  0  0  0  0  0  0  0  0  0
    7.9035  -20.4799   20.8847 S   0  0  0  0  0  0  0  0  0  0  0  0
    8.5122  -16.7694   21.5290 C   0  0  0  0  0  0  0  0  0  0  0  0
    9.4745  -15.9351   21.3753 O   0  0  0  0  0  0  0  0  0  0  0  0
    7.7297  -16.5232   22.6670 N   0  0  0  0  0  0  0  0  0  0  0  0
    7.9708  -15.4620   23.6098 C   0  0  1  0  0  0  0  0  0  0  0  0
    6.7282  -15.0356   24.3007 C   0  0  0  0  0  0  0  0  0  0  0  0
    6.8522  -13.8974   25.2090 C   0  0  0  0  0  0  0  0  0  0  0  0
    6.9089  -14.0144   26.5988 C   0  0  0  0  0  0  0  0  0  0  0  0
    7.0409  -12.9002   27.4042 C   0  0  0  0  0  0  0  0  0  0  0  0
    7.1213  -11.6415   26.8755 C   0  0  0  0  0  0  0  0  0  0  0  0
    7.0675  -11.5006   25.5042 C   0  0  0  0  0  0  0  0  0  0  0  0
    6.9368  -12.6107   24.7193 C   0  0  0  0  0  0  0  0  0  0  0  0
    9.0996  -15.7306   24.5322 C   0  0  0  0  0  0  0  0  0  0  0  0
    9.5174  -14.8027   25.2577 O   0  0  0  0  0  0  0  0  0  0  0  0
   12.0427  -16.4882   25.3123 C   0  0  0  0  0  0  0  0  0  0  0  0
   10.8203  -17.3297   25.5058 C   0  0  2  0  0  0  0  0  0  0  0  0
    9.7255  -16.9987   24.6248 N   0  0  0  0  0  0  0  0  0  0  0  0
   10.4286  -17.3702   26.9394 C   0  0  0  0  0  0  0  0  0  0  0  0
    9.1242  -17.0347   27.2573 O   0  0  0  0  0  0  0  0  0  0  0  0
   11.2652  -17.6974   27.7966 O   0  0  0  0  0  0  0  0  0  0  0  0
  2  1  1  6
  3  2  1  0
  4  3  1  0
  5  6  2  0
  5  2  1  0
  7  5  1  0
  8  7  1  0
  8  9  1  1
  9 10  1  0
 10 15  2  0
 11 12  2  0
 11 10  1  0
 12 13  1  0
 13 14  2  0
 15 14  1  0
 16  8  1  0
 17 16  2  0
 19 18  1  1
 19 20  1  0
 20 16  1  0
 21 22  1  0
 21 19  1  0
 23 21  2  0
M  END
$$$$
