CFA.pdb
     RDKit          3D

 23 23  0  0  1  0  0  0  0  0999 V2000
    8.0000  -12.8630   19.5520 N   0  0  0  0  0  0  0  0  0  0  0  0
    7.5986  -14.2064   20.0325 C   0  0  1  0  0  0  0  0  0  0  0  0
    8.0403  -15.2086   19.0363 C   0  0  0  0  0  0  0  0  0  0  0  0
    7.7232  -16.8903   19.6108 S   0  0  0  0  0  0  0  0  0  0  0  0
    8.0649  -14.3524   21.4004 C   0  0  0  0  0  0  0  0  0  0  0  0
    9.2138  -13.8645   21.6967 O   0  0  0  0  0  0  0  0  0  0  0  0
    7.4189  -14.9691   22.4823 N   0  0  0  0  0  0  0  0  0  0  0  0
    7.9571  -15.0521   23.8151 C   0  0  1  0  0  0  0  0  0  0  0  0
    6.9136  -14.8548   24.8521 C   0  0  0  0  0  0  0  0  0  0  0  0
    6.9375  -13.5750   25.5574 C   0  0  0  0  0  0  0  0  0  0  0  0
    5.8236  -12.7467   25.7032 C   0  0  0  0  0  0  0  0  0  0  0  0
    5.9064  -11.5537   26.3943 C   0  0  0  0  0  0  0  0  0  0  0  0
    7.0786  -11.1365   26.9619 C   0  0  0  0  0  0  0  0  0  0  0  0
    8.1936  -11.9384   26.8311 C   0  0  0  0  0  0  0  0  0  0  0  0
    8.0977  -13.1156   26.1452 C   0  0  0  0  0  0  0  0  0  0  0  0
    8.8003  -16.2497   24.0429 C   0  0  0  0  0  0  0  0  0  0  0  0
    8.2854  -17.3812   23.9147 O   0  0  0  0  0  0  0  0  0  0  0  0
   12.4975  -16.9833   24.3080 C   0  0  0  0  0  0  0  0  0  0  0  0
   11.0582  -17.2858   24.5855 C   0  0  2  0  0  0  0  0  0  0  0  0
   10.1688  -16.1636   24.4008 N   0  0  0  0  0  0  0  0  0  0  0  0
   10.9030  -17.9464   25.9083 C   0  0  0  0  0  0  0  0  0  0  0  0
   11.5860  -19.1317   26.1171 O   0  0  0  0  0  0  0  0  0  0  0  0
   10.1791  -17.4277   26.7736 O   0  0  0  0  0  0  0  0  0  0  0  0
  2  1  1  6
  3  2  1  0
  4  3  1  0
  5  6  2  0
  5  2  1  0
  7  5  1  0
  8  7  1  0
  8  9  1  1
  9 10  1  0
 10 15  2  0
 11 12  2  0
 11 10  1  0
 12 13  1  0
 13 14  2  0
 15 14  1  0
 16  8  1  0
 17 16  2  0
 19 18  1  1
 19 20  1  0
 20 16  1  0
 21 22  1  0
 21 19  1  0
 23 21  2  0
M  END
$$$$
