CFA.pdb
     RDKit          3D

 23 23  0  0  1  0  0  0  0  0999 V2000
   10.3803  -17.5619   20.3434 N   0  0  0  0  0  0  0  0  0  0  0  0
    9.8561  -18.0037   21.6576 C   0  0  1  0  0  0  0  0  0  0  0  0
   10.7169  -19.0994   22.1579 C   0  0  0  0  0  0  0  0  0  0  0  0
    9.7350  -20.4199   22.9001 S   0  0  0  0  0  0  0  0  0  0  0  0
    9.6924  -16.8279   22.4945 C   0  0  0  0  0  0  0  0  0  0  0  0
   10.5392  -15.8738   22.3591 O   0  0  0  0  0  0  0  0  0  0  0  0
    8.7082  -16.5744   23.4616 N   0  0  0  0  0  0  0  0  0  0  0  0
    8.6479  -15.3868   24.2735 C   0  0  1  0  0  0  0  0  0  0  0  0
    7.2937  -15.1652   24.8394 C   0  0  0  0  0  0  0  0  0  0  0  0
    7.0601  -13.8655   25.4657 C   0  0  0  0  0  0  0  0  0  0  0  0
    6.3385  -12.8321   24.8662 C   0  0  0  0  0  0  0  0  0  0  0  0
    6.1396  -11.6297   25.5160 C   0  0  0  0  0  0  0  0  0  0  0  0
    6.6394  -11.4031   26.7687 C   0  0  0  0  0  0  0  0  0  0  0  0
    7.3562  -12.4098   27.3818 C   0  0  0  0  0  0  0  0  0  0  0  0
    7.5455  -13.5939   26.7279 C   0  0  0  0  0  0  0  0  0  0  0  0
    9.7327  -15.2983   25.2797 C   0  0  0  0  0  0  0  0  0  0  0  0
   10.6860  -14.5180   25.0694 O   0  0  0  0  0  0  0  0  0  0  0  0
   10.6054  -14.6154   28.2735 C   0  0  0  0  0  0  0  0  0  0  0  0
   10.6777  -15.9265   27.5553 C   0  0  2  0  0  0  0  0  0  0  0  0
    9.7327  -16.0637   26.4724 N   0  0  0  0  0  0  0  0  0  0  0  0
   10.6360  -17.0588   28.5179 C   0  0  0  0  0  0  0  0  0  0  0  0
    9.7056  -18.0580   28.2923 O   0  0  0  0  0  0  0  0  0  0  0  0
   11.4213  -17.0778   29.4795 O   0  0  0  0  0  0  0  0  0  0  0  0
  2  1  1  6
  3  2  1  0
  4  3  1  0
  5  6  2  0
  5  2  1  0
  7  5  1  0
  8  7  1  0
  8  9  1  1
  9 10  1  0
 10 15  2  0
 11 12  2  0
 11 10  1  0
 12 13  1  0
 13 14  2  0
 15 14  1  0
 16  8  1  0
 17 16  2  0
 19 18  1  1
 19 20  1  0
 20 16  1  0
 21 22  1  0
 21 19  1  0
 23 21  2  0
M  END
$$$$
