CFA.pdb
     RDKit          3D

 23 23  0  0  1  0  0  0  0  0999 V2000
   10.7650  -16.5643   19.5321 N   0  0  0  0  0  0  0  0  0  0  0  0
    9.3979  -16.6935   20.0899 C   0  0  1  0  0  0  0  0  0  0  0  0
    8.9951  -18.1160   20.0109 C   0  0  0  0  0  0  0  0  0  0  0  0
    9.6367  -19.0593   21.4100 S   0  0  0  0  0  0  0  0  0  0  0  0
    9.3811  -16.0507   21.3923 C   0  0  0  0  0  0  0  0  0  0  0  0
   10.4742  -16.0293   22.0637 O   0  0  0  0  0  0  0  0  0  0  0  0
    8.3072  -15.4270   22.0448 N   0  0  0  0  0  0  0  0  0  0  0  0
    8.3708  -14.8666   23.3695 C   0  0  1  0  0  0  0  0  0  0  0  0
    7.2846  -13.8848   23.6135 C   0  0  0  0  0  0  0  0  0  0  0  0
    7.2493  -13.2777   24.9425 C   0  0  0  0  0  0  0  0  0  0  0  0
    8.2465  -12.4373   25.4401 C   0  0  0  0  0  0  0  0  0  0  0  0
    8.1487  -11.8819   26.7008 C   0  0  0  0  0  0  0  0  0  0  0  0
    7.0751  -12.1314   27.5104 C   0  0  0  0  0  0  0  0  0  0  0  0
    6.0765  -12.9592   27.0404 C   0  0  0  0  0  0  0  0  0  0  0  0
    6.1858  -13.5017   25.7918 C   0  0  0  0  0  0  0  0  0  0  0  0
    8.5023  -15.8834   24.4400 C   0  0  0  0  0  0  0  0  0  0  0  0
    7.5508  -16.6672   24.6454 O   0  0  0  0  0  0  0  0  0  0  0  0
   11.0190  -17.9220   26.0078 C   0  0  0  0  0  0  0  0  0  0  0  0
    9.8745  -16.9940   26.2703 C   0  0  2  0  0  0  0  0  0  0  0  0
    9.6650  -16.0030   25.2414 N   0  0  0  0  0  0  0  0  0  0  0  0
    9.9687  -16.4122   27.6352 C   0  0  0  0  0  0  0  0  0  0  0  0
   10.1146  -17.2879   28.6967 O   0  0  0  0  0  0  0  0  0  0  0  0
    9.9150  -15.1806   27.7839 O   0  0  0  0  0  0  0  0  0  0  0  0
  2  1  1  1
  3  2  1  0
  4  3  1  0
  5  6  2  0
  5  2  1  0
  7  5  1  0
  8  7  1  0
  8  9  1  1
  9 10  1  0
 10 15  2  0
 11 12  2  0
 11 10  1  0
 12 13  1  0
 13 14  2  0
 15 14  1  0
 16  8  1  0
 17 16  2  0
 19 18  1  6
 19 20  1  0
 20 16  1  0
 21 22  1  0
 21 19  1  0
 23 21  2  0
M  END
$$$$
