GQV.pdb
     RDKit          3D

 21 20  0  0  1  0  0  0  0  0999 V2000
   13.9343  -11.3932  -10.3145 N   0  0  0  0  0  0  0  0  0  0  0  0
   15.1226  -10.8168   -9.7271 C   0  0  0  0  0  0  0  0  0  0  0  0
   15.3930   -9.4733  -10.3469 C   0  0  0  0  0  0  0  0  0  0  0  0
   14.7114   -9.1084  -11.3315 O   0  0  0  0  0  0  0  0  0  0  0  0
   15.7493   -4.0892   -7.9318 N   0  0  0  0  0  0  0  0  0  0  0  0
   14.6373   -4.9277   -8.2709 C   0  0  0  0  0  0  0  0  0  0  0  0
   13.5301   -4.6056   -7.8190 O   0  0  0  0  0  0  0  0  0  0  0  0
   14.8608   -6.1134   -9.1285 C   0  0  0  0  0  0  0  0  0  0  0  0
   16.2860   -6.2195   -9.5199 C   0  0  0  0  0  0  0  0  0  0  0  0
   16.6567   -7.3589  -10.4054 C   0  0  2  0  0  0  0  0  0  0  0  0
   16.4151   -8.6532   -9.7988 N   0  0  0  0  0  0  0  0  0  0  0  0
   18.1339   -7.2007  -10.6867 C   0  0  0  0  0  0  0  0  0  0  0  0
   18.9680   -7.4096   -9.7821 O   0  0  0  0  0  0  0  0  0  0  0  0
   21.8718   -7.5888  -13.6560 C   0  0  0  0  0  0  0  0  0  0  0  0
   20.3789   -7.6939  -13.4273 C   0  0  1  0  0  0  0  0  0  0  0  0
   19.9722   -9.1041  -13.0582 C   0  0  0  0  0  0  0  0  0  0  0  0
   20.0190   -6.7647  -12.3161 C   0  0  2  0  0  0  0  0  0  0  0  0
   18.6094   -6.8156  -11.9690 N   0  0  0  0  0  0  0  0  0  0  0  0
   20.4072   -5.3742  -12.7173 C   0  0  0  0  0  0  0  0  0  0  0  0
   21.7007   -4.9193  -12.5947 O   0  0  0  0  0  0  0  0  0  0  0  0
   19.5158   -4.5991  -13.1820 O   0  0  0  0  0  0  0  0  0  0  0  0
  2  3  1  0
  2  1  1  0
  3  4  2  0
  5  6  1  0
  6  7  2  0
  6  8  1  0
  8  9  1  0
 10  9  1  1
 11 10  1  0
 11  3  1  0
 12 18  1  0
 12 10  1  0
 13 12  2  0
 15 14  1  1
 16 15  1  0
 17 18  1  6
 17 15  1  0
 19 17  1  0
 20 19  1  0
 21 19  2  0
M  END
$$$$
