GQV.pdb
     RDKit          3D

 21 20  0  0  1  0  0  0  0  0999 V2000
   26.8718  -32.7965  -11.7095 N   0  0  0  0  0  0  0  0  0  0  0  0
   27.5567  -32.4905  -10.4739 C   0  0  0  0  0  0  0  0  0  0  0  0
   27.2442  -33.5446   -9.4475 C   0  0  0  0  0  0  0  0  0  0  0  0
   26.1885  -34.2082   -9.5577 O   0  0  0  0  0  0  0  0  0  0  0  0
   26.9946  -38.5492   -5.6422 N   0  0  0  0  0  0  0  0  0  0  0  0
   27.8053  -37.7698   -6.5308 C   0  0  0  0  0  0  0  0  0  0  0  0
   27.7633  -38.0611   -7.7338 O   0  0  0  0  0  0  0  0  0  0  0  0
   28.6361  -36.6756   -5.9796 C   0  0  0  0  0  0  0  0  0  0  0  0
   28.9133  -35.6519   -7.0145 C   0  0  0  0  0  0  0  0  0  0  0  0
   27.7997  -34.7231   -7.3561 C   0  0  2  0  0  0  0  0  0  0  0  0
   28.1556  -33.7598   -8.3794 N   0  0  0  0  0  0  0  0  0  0  0  0
   27.4592  -33.9962   -6.0747 C   0  0  0  0  0  0  0  0  0  0  0  0
   28.2836  -33.2105   -5.5641 O   0  0  0  0  0  0  0  0  0  0  0  0
   24.0001  -32.2570   -5.3503 C   0  0  0  0  0  0  0  0  0  0  0  0
   24.3410  -33.1722   -4.1933 C   0  0  1  0  0  0  0  0  0  0  0  0
   23.5832  -34.4794   -4.2782 C   0  0  0  0  0  0  0  0  0  0  0  0
   25.8080  -33.4428   -4.2400 C   0  0  2  0  0  0  0  0  0  0  0  0
   26.2103  -34.1828   -5.4235 N   0  0  0  0  0  0  0  0  0  0  0  0
   26.1905  -34.1934   -3.0009 C   0  0  0  0  0  0  0  0  0  0  0  0
   26.2677  -33.5744   -1.7737 O   0  0  0  0  0  0  0  0  0  0  0  0
   26.4494  -35.4329   -3.0907 O   0  0  0  0  0  0  0  0  0  0  0  0
  2  3  1  0
  2  1  1  0
  3  4  2  0
  5  6  1  0
  6  7  2  0
  6  8  1  0
  8  9  1  0
 10  9  1  1
 11 10  1  0
 11  3  1  0
 12 18  1  0
 12 10  1  0
 13 12  2  0
 15 14  1  6
 16 15  1  0
 17 18  1  6
 17 15  1  0
 19 17  1  0
 20 19  1  0
 21 19  2  0
M  END
$$$$
