GQV.pdb
     RDKit          3D

 21 20  0  0  1  0  0  0  0  0999 V2000
   17.3295  -10.1862  -16.2807 N   0  0  0  0  0  0  0  0  0  0  0  0
   17.8410  -10.3163  -14.9349 C   0  0  0  0  0  0  0  0  0  0  0  0
   16.8526   -9.7380  -13.9597 C   0  0  0  0  0  0  0  0  0  0  0  0
   16.0933   -8.8166  -14.3361 O   0  0  0  0  0  0  0  0  0  0  0  0
   12.8956  -11.4606  -10.7488 N   0  0  0  0  0  0  0  0  0  0  0  0
   13.1591  -10.4772   -9.7399 C   0  0  0  0  0  0  0  0  0  0  0  0
   12.2084  -10.1362   -9.0232 O   0  0  0  0  0  0  0  0  0  0  0  0
   14.5273   -9.9283   -9.6049 C   0  0  0  0  0  0  0  0  0  0  0  0
   15.4326  -10.5140  -10.6213 C   0  0  0  0  0  0  0  0  0  0  0  0
   15.9486   -9.5926  -11.6722 C   0  0  2  0  0  0  0  0  0  0  0  0
   16.8065  -10.2526  -12.6365 N   0  0  0  0  0  0  0  0  0  0  0  0
   16.7360   -8.5294  -10.9401 C   0  0  0  0  0  0  0  0  0  0  0  0
   17.8163   -8.8214  -10.3876 O   0  0  0  0  0  0  0  0  0  0  0  0
   17.3112   -4.9094  -12.3597 C   0  0  0  0  0  0  0  0  0  0  0  0
   16.8275   -4.7953  -10.9296 C   0  0  1  0  0  0  0  0  0  0  0  0
   15.3575   -4.4410  -10.8678 C   0  0  0  0  0  0  0  0  0  0  0  0
   17.0509   -6.1124  -10.2639 C   0  0  2  0  0  0  0  0  0  0  0  0
   16.2770   -7.1872  -10.8603 N   0  0  0  0  0  0  0  0  0  0  0  0
   16.7139   -5.9715   -8.8107 C   0  0  0  0  0  0  0  0  0  0  0  0
   15.6026   -6.5717   -8.2632 O   0  0  0  0  0  0  0  0  0  0  0  0
   17.4767   -5.2790   -8.0691 O   0  0  0  0  0  0  0  0  0  0  0  0
  2  3  1  0
  2  1  1  0
  3  4  2  0
  5  6  1  0
  6  7  2  0
  6  8  1  0
  8  9  1  0
 10  9  1  1
 11 10  1  0
 11  3  1  0
 12 18  1  0
 12 10  1  0
 13 12  2  0
 15 14  1  6
 16 15  1  0
 17 18  1  6
 17 15  1  0
 19 17  1  0
 20 19  1  0
 21 19  2  0
M  END
$$$$
