GQV.pdb
     RDKit          3D

 21 20  0  0  1  0  0  0  0  0999 V2000
   28.5200  -22.2786  -16.2934 N   0  0  0  0  0  0  0  0  0  0  0  0
   28.0141  -21.1622  -15.5270 C   0  0  0  0  0  0  0  0  0  0  0  0
   26.6608  -21.5045  -14.9670 C   0  0  0  0  0  0  0  0  0  0  0  0
   26.0629  -22.5177  -15.3950 O   0  0  0  0  0  0  0  0  0  0  0  0
   24.5176  -20.5685   -9.1931 N   0  0  0  0  0  0  0  0  0  0  0  0
   25.8075  -20.9858   -9.6583 C   0  0  0  0  0  0  0  0  0  0  0  0
   26.6999  -21.1107   -8.8086 O   0  0  0  0  0  0  0  0  0  0  0  0
   26.0069  -21.2434  -11.1023 C   0  0  0  0  0  0  0  0  0  0  0  0
   24.8155  -20.8304  -11.8806 C   0  0  0  0  0  0  0  0  0  0  0  0
   24.8515  -21.0820  -13.3486 C   0  0  2  0  0  0  0  0  0  0  0  0
   26.0961  -20.6690  -13.9666 N   0  0  0  0  0  0  0  0  0  0  0  0
   23.7080  -20.2840  -13.9334 C   0  0  0  0  0  0  0  0  0  0  0  0
   23.7830  -19.0399  -13.9978 O   0  0  0  0  0  0  0  0  0  0  0  0
   20.0154  -19.8679  -16.9995 C   0  0  0  0  0  0  0  0  0  0  0  0
   21.1645  -20.6833  -16.4453 C   0  0  1  0  0  0  0  0  0  0  0  0
   22.4084  -20.5377  -17.2947 C   0  0  0  0  0  0  0  0  0  0  0  0
   21.4459  -20.1975  -15.0624 C   0  0  2  0  0  0  0  0  0  0  0  0
   22.5321  -20.9164  -14.4194 N   0  0  0  0  0  0  0  0  0  0  0  0
   20.1904  -20.3179  -14.2536 C   0  0  0  0  0  0  0  0  0  0  0  0
   19.8589  -21.4829  -13.5994 O   0  0  0  0  0  0  0  0  0  0  0  0
   19.4151  -19.3160  -14.1729 O   0  0  0  0  0  0  0  0  0  0  0  0
  2  3  1  0
  2  1  1  0
  3  4  2  0
  5  6  1  0
  6  7  2  0
  6  8  1  0
  8  9  1  0
 10  9  1  1
 11 10  1  0
 11  3  1  0
 12 18  1  0
 12 10  1  0
 13 12  2  0
 15 14  1  6
 16 15  1  0
 17 18  1  1
 17 15  1  0
 19 17  1  0
 20 19  1  0
 21 19  2  0
M  END
$$$$
