GQV.pdb
     RDKit          3D

 21 20  0  0  1  0  0  0  0  0999 V2000
   29.1257  -19.8153  -17.2640 N   0  0  0  0  0  0  0  0  0  0  0  0
   28.2568  -18.9983  -16.4473 C   0  0  0  0  0  0  0  0  0  0  0  0
   27.3748  -19.8806  -15.6071 C   0  0  0  0  0  0  0  0  0  0  0  0
   26.6788  -20.7572  -16.1678 O   0  0  0  0  0  0  0  0  0  0  0  0
   24.3602  -21.1418   -9.3095 N   0  0  0  0  0  0  0  0  0  0  0  0
   25.6353  -20.8292   -9.8847 C   0  0  0  0  0  0  0  0  0  0  0  0
   26.3236  -19.9802   -9.3022 O   0  0  0  0  0  0  0  0  0  0  0  0
   26.0603  -21.5229  -11.1215 C   0  0  0  0  0  0  0  0  0  0  0  0
   26.8641  -20.6224  -11.9810 C   0  0  0  0  0  0  0  0  0  0  0  0
   26.4586  -20.5196  -13.4109 C   0  0  2  0  0  0  0  0  0  0  0  0
   27.3545  -19.6961  -14.1988 N   0  0  0  0  0  0  0  0  0  0  0  0
   25.0782  -19.9025  -13.4062 C   0  0  0  0  0  0  0  0  0  0  0  0
   24.9369  -18.6897  -13.1476 O   0  0  0  0  0  0  0  0  0  0  0  0
   22.8441  -19.3719  -16.0680 C   0  0  0  0  0  0  0  0  0  0  0  0
   21.9875  -20.1978  -15.1318 C   0  0  1  0  0  0  0  0  0  0  0  0
   21.9327  -21.6472  -15.5635 C   0  0  0  0  0  0  0  0  0  0  0  0
   22.5827  -20.1070  -13.7661 C   0  0  2  0  0  0  0  0  0  0  0  0
   23.9187  -20.6724  -13.6915 N   0  0  0  0  0  0  0  0  0  0  0  0
   21.6681  -20.8018  -12.8040 C   0  0  0  0  0  0  0  0  0  0  0  0
   20.5111  -20.2109  -12.3488 O   0  0  0  0  0  0  0  0  0  0  0  0
   21.9729  -21.9663  -12.4009 O   0  0  0  0  0  0  0  0  0  0  0  0
  2  3  1  0
  2  1  1  0
  3  4  2  0
  5  6  1  0
  6  7  2  0
  6  8  1  0
  8  9  1  0
 10  9  1  1
 11 10  1  0
 11  3  1  0
 12 18  1  0
 12 10  1  0
 13 12  2  0
 15 14  1  6
 16 15  1  0
 17 18  1  6
 17 15  1  0
 19 17  1  0
 20 19  1  0
 21 19  2  0
M  END
$$$$
