GQV.pdb
     RDKit          3D

 21 20  0  0  1  0  0  0  0  0999 V2000
   12.7292  -12.9512  -12.3554 N   0  0  0  0  0  0  0  0  0  0  0  0
   12.9079  -11.5725  -12.7516 C   0  0  0  0  0  0  0  0  0  0  0  0
   14.0598  -10.9730  -11.9926 C   0  0  0  0  0  0  0  0  0  0  0  0
   14.1475  -11.1736  -10.7600 O   0  0  0  0  0  0  0  0  0  0  0  0
   19.7109  -10.2606  -15.2826 N   0  0  0  0  0  0  0  0  0  0  0  0
   18.9383   -9.4311  -14.4055 C   0  0  0  0  0  0  0  0  0  0  0  0
   19.3125   -8.2591  -14.2632 O   0  0  0  0  0  0  0  0  0  0  0  0
   17.7535  -10.0029  -13.7266 C   0  0  0  0  0  0  0  0  0  0  0  0
   17.1780   -9.0331  -12.7654 C   0  0  0  0  0  0  0  0  0  0  0  0
   16.0416   -9.5103  -11.9284 C   0  0  2  0  0  0  0  0  0  0  0  0
   15.0185  -10.1946  -12.6944 N   0  0  0  0  0  0  0  0  0  0  0  0
   15.4513   -8.2741  -11.2884 C   0  0  0  0  0  0  0  0  0  0  0  0
   14.7541   -7.4918  -11.9664 O   0  0  0  0  0  0  0  0  0  0  0  0
   13.9457   -5.7812   -7.4022 C   0  0  0  0  0  0  0  0  0  0  0  0
   14.4372   -7.0893   -7.9849 C   0  0  1  0  0  0  0  0  0  0  0  0
   13.2930   -8.0441   -8.2479 C   0  0  0  0  0  0  0  0  0  0  0  0
   15.1372   -6.7853   -9.2676 C   0  0  2  0  0  0  0  0  0  0  0  0
   15.6690   -7.9705   -9.9176 N   0  0  0  0  0  0  0  0  0  0  0  0
   16.2368   -5.8071   -8.9865 C   0  0  0  0  0  0  0  0  0  0  0  0
   17.5625   -6.1759   -9.0272 O   0  0  0  0  0  0  0  0  0  0  0  0
   15.9325   -4.6076   -8.7036 O   0  0  0  0  0  0  0  0  0  0  0  0
  2  3  1  0
  2  1  1  0
  3  4  2  0
  5  6  1  0
  6  7  2  0
  6  8  1  0
  8  9  1  0
 10  9  1  6
 11 10  1  0
 11  3  1  0
 12 18  1  0
 12 10  1  0
 13 12  2  0
 15 14  1  6
 16 15  1  0
 17 18  1  1
 17 15  1  0
 19 17  1  0
 20 19  1  0
 21 19  2  0
M  END
$$$$
