GQV.pdb
     RDKit          3D

 21 20  0  0  1  0  0  0  0  0999 V2000
   18.7725  -27.4201   -1.2202 N   0  0  0  0  0  0  0  0  0  0  0  0
   18.4505  -27.7681   -2.5858 C   0  0  0  0  0  0  0  0  0  0  0  0
   18.0113  -26.5378   -3.3315 C   0  0  0  0  0  0  0  0  0  0  0  0
   17.8144  -25.4778   -2.6954 O   0  0  0  0  0  0  0  0  0  0  0  0
   18.9609  -25.5506   -9.3949 N   0  0  0  0  0  0  0  0  0  0  0  0
   18.2761  -24.3416   -9.0431 C   0  0  0  0  0  0  0  0  0  0  0  0
   18.1916  -23.4672   -9.9162 O   0  0  0  0  0  0  0  0  0  0  0  0
   17.7129  -24.1994   -7.6815 C   0  0  0  0  0  0  0  0  0  0  0  0
   17.9532  -25.4234   -6.8815 C   0  0  0  0  0  0  0  0  0  0  0  0
   17.5216  -25.3899   -5.4560 C   0  0  2  0  0  0  0  0  0  0  0  0
   17.8314  -26.6110   -4.7386 N   0  0  0  0  0  0  0  0  0  0  0  0
   16.0236  -25.1856   -5.4819 C   0  0  0  0  0  0  0  0  0  0  0  0
   15.2643  -26.1549   -5.6856 O   0  0  0  0  0  0  0  0  0  0  0  0
   12.1158  -22.5499   -4.2084 C   0  0  0  0  0  0  0  0  0  0  0  0
   13.5857  -22.8751   -4.0476 C   0  0  1  0  0  0  0  0  0  0  0  0
   13.8431  -23.6702   -2.7859 C   0  0  0  0  0  0  0  0  0  0  0  0
   14.0110  -23.6733   -5.2349 C   0  0  2  0  0  0  0  0  0  0  0  0
   15.4444  -23.9043   -5.2784 N   0  0  0  0  0  0  0  0  0  0  0  0
   13.5603  -22.9582   -6.4720 C   0  0  0  0  0  0  0  0  0  0  0  0
   14.4569  -22.3773   -7.3403 O   0  0  0  0  0  0  0  0  0  0  0  0
   12.3176  -22.8891   -6.7215 O   0  0  0  0  0  0  0  0  0  0  0  0
  2  3  1  0
  2  1  1  0
  3  4  2  0
  5  6  1  0
  6  7  2  0
  6  8  1  0
  8  9  1  0
 10  9  1  6
 11 10  1  0
 11  3  1  0
 12 18  1  0
 12 10  1  0
 13 12  2  0
 15 14  1  6
 16 15  1  0
 17 18  1  6
 17 15  1  0
 19 17  1  0
 20 19  1  0
 21 19  2  0
M  END
$$$$
