GQV.pdb
     RDKit          3D

 21 20  0  0  1  0  0  0  0  0999 V2000
   28.5183  -20.3929  -16.9827 N   0  0  0  0  0  0  0  0  0  0  0  0
   28.1614  -21.2393  -15.8665 C   0  0  0  0  0  0  0  0  0  0  0  0
   27.2816  -20.4769  -14.9141 C   0  0  0  0  0  0  0  0  0  0  0  0
   26.7134  -19.4346  -15.3114 O   0  0  0  0  0  0  0  0  0  0  0  0
   22.9311  -19.7881  -15.1105 N   0  0  0  0  0  0  0  0  0  0  0  0
   22.5270  -19.8765  -13.7382 C   0  0  0  0  0  0  0  0  0  0  0  0
   21.4225  -19.3995  -13.4440 O   0  0  0  0  0  0  0  0  0  0  0  0
   23.4300  -20.5215  -12.7585 C   0  0  0  0  0  0  0  0  0  0  0  0
   24.6717  -20.9917  -13.4165 C   0  0  0  0  0  0  0  0  0  0  0  0
   25.9601  -20.5210  -12.8351 C   0  0  2  0  0  0  0  0  0  0  0  0
   27.1185  -20.9597  -13.5882 N   0  0  0  0  0  0  0  0  0  0  0  0
   26.0183  -21.0965  -11.4380 C   0  0  0  0  0  0  0  0  0  0  0  0
   26.0177  -22.3333  -11.2713 O   0  0  0  0  0  0  0  0  0  0  0  0
   25.9583  -18.6154   -7.8405 C   0  0  0  0  0  0  0  0  0  0  0  0
   26.8891  -19.7957   -8.0217 C   0  0  1  0  0  0  0  0  0  0  0  0
   27.1910  -20.4717   -6.7018 C   0  0  0  0  0  0  0  0  0  0  0  0
   26.2236  -20.7676   -8.9383 C   0  0  2  0  0  0  0  0  0  0  0  0
   26.0745  -20.2598  -10.2911 N   0  0  0  0  0  0  0  0  0  0  0  0
   24.8857  -21.1205   -8.3636 C   0  0  0  0  0  0  0  0  0  0  0  0
   24.7569  -22.0103   -7.3211 O   0  0  0  0  0  0  0  0  0  0  0  0
   23.8464  -20.5820   -8.8547 O   0  0  0  0  0  0  0  0  0  0  0  0
  2  3  1  0
  2  1  1  0
  3  4  2  0
  5  6  1  0
  6  7  2  0
  6  8  1  0
  8  9  1  0
 10  9  1  6
 11 10  1  0
 11  3  1  0
 12 18  1  0
 12 10  1  0
 13 12  2  0
 15 14  1  1
 16 15  1  0
 17 18  1  6
 17 15  1  0
 19 17  1  0
 20 19  1  0
 21 19  2  0
M  END
$$$$
