GQV.pdb
     RDKit          3D

 21 20  0  0  1  0  0  0  0  0999 V2000
   23.3312  -12.6680  -16.1458 N   0  0  0  0  0  0  0  0  0  0  0  0
   22.6099  -12.0538  -15.0540 C   0  0  0  0  0  0  0  0  0  0  0  0
   21.7636  -10.9260  -15.5775 C   0  0  0  0  0  0  0  0  0  0  0  0
   22.1192  -10.3304  -16.6196 O   0  0  0  0  0  0  0  0  0  0  0  0
   16.3716  -10.9160  -13.8263 N   0  0  0  0  0  0  0  0  0  0  0  0
   16.8042  -11.6668  -14.9680 C   0  0  0  0  0  0  0  0  0  0  0  0
   16.2494  -12.7555  -15.1700 O   0  0  0  0  0  0  0  0  0  0  0  0
   17.8707  -11.1156  -15.8342 C   0  0  0  0  0  0  0  0  0  0  0  0
   18.3063   -9.7842  -15.3510 C   0  0  0  0  0  0  0  0  0  0  0  0
   19.7663   -9.4930  -15.4089 C   0  0  2  0  0  0  0  0  0  0  0  0
   20.5823  -10.5660  -14.8756 N   0  0  0  0  0  0  0  0  0  0  0  0
   19.9720   -8.2434  -14.5828 C   0  0  0  0  0  0  0  0  0  0  0  0
   20.1006   -8.3274  -13.3443 O   0  0  0  0  0  0  0  0  0  0  0  0
   22.7781   -5.9651  -15.0976 C   0  0  0  0  0  0  0  0  0  0  0  0
   21.5721   -5.0506  -15.1341 C   0  0  1  0  0  0  0  0  0  0  0  0
   21.1853   -4.6990  -16.5543 C   0  0  0  0  0  0  0  0  0  0  0  0
   20.4389   -5.7598  -14.4703 C   0  0  2  0  0  0  0  0  0  0  0  0
   20.0244   -6.9563  -15.1822 N   0  0  0  0  0  0  0  0  0  0  0  0
   19.2915   -4.8046  -14.3440 C   0  0  0  0  0  0  0  0  0  0  0  0
   19.3150   -3.7582  -13.4497 O   0  0  0  0  0  0  0  0  0  0  0  0
   18.2730   -4.9689  -15.0835 O   0  0  0  0  0  0  0  0  0  0  0  0
  2  3  1  0
  2  1  1  0
  3  4  2  0
  5  6  1  0
  6  7  2  0
  6  8  1  0
  8  9  1  0
 10  9  1  1
 11 10  1  0
 11  3  1  0
 12 18  1  0
 12 10  1  0
 13 12  2  0
 15 14  1  6
 16 15  1  0
 17 18  1  6
 17 15  1  0
 19 17  1  0
 20 19  1  0
 21 19  2  0
M  END
$$$$
