GQV.pdb
     RDKit          3D

 21 20  0  0  1  0  0  0  0  0999 V2000
   28.2836  -19.7292  -15.1012 N   0  0  0  0  0  0  0  0  0  0  0  0
   27.2151  -19.6305  -14.1326 C   0  0  0  0  0  0  0  0  0  0  0  0
   25.9670  -20.2580  -14.6900 C   0  0  0  0  0  0  0  0  0  0  0  0
   25.8305  -20.3438  -15.9314 O   0  0  0  0  0  0  0  0  0  0  0  0
   23.5150  -23.6748  -16.3873 N   0  0  0  0  0  0  0  0  0  0  0  0
   24.5701  -24.1723  -15.5544 C   0  0  0  0  0  0  0  0  0  0  0  0
   25.3862  -24.9427  -16.0783 O   0  0  0  0  0  0  0  0  0  0  0  0
   24.6333  -23.7492  -14.1372 C   0  0  0  0  0  0  0  0  0  0  0  0
   23.5783  -22.7529  -13.8373 C   0  0  0  0  0  0  0  0  0  0  0  0
   23.7951  -21.3702  -14.3478 C   0  0  2  0  0  0  0  0  0  0  0  0
   24.9753  -20.7371  -13.7929 N   0  0  0  0  0  0  0  0  0  0  0  0
   22.5660  -20.5846  -13.9497 C   0  0  0  0  0  0  0  0  0  0  0  0
   22.4324  -20.1868  -12.7743 O   0  0  0  0  0  0  0  0  0  0  0  0
   20.9220  -17.5696  -15.8702 C   0  0  0  0  0  0  0  0  0  0  0  0
   19.8795  -18.6472  -15.6596 C   0  0  1  0  0  0  0  0  0  0  0  0
   19.6787  -19.4765  -16.9095 C   0  0  0  0  0  0  0  0  0  0  0  0
   20.3476  -19.5267  -14.5482 C   0  0  2  0  0  0  0  0  0  0  0  0
   21.5424  -20.2803  -14.8868 N   0  0  0  0  0  0  0  0  0  0  0  0
   19.2323  -20.4563  -14.1784 C   0  0  0  0  0  0  0  0  0  0  0  0
   19.2741  -21.7972  -14.4874 O   0  0  0  0  0  0  0  0  0  0  0  0
   18.2241  -19.9900  -13.5640 O   0  0  0  0  0  0  0  0  0  0  0  0
  2  3  1  0
  2  1  1  0
  3  4  2  0
  5  6  1  0
  6  7  2  0
  6  8  1  0
  8  9  1  0
 10  9  1  1
 11 10  1  0
 11  3  1  0
 12 18  1  0
 12 10  1  0
 13 12  2  0
 15 14  1  6
 16 15  1  0
 17 18  1  6
 17 15  1  0
 19 17  1  0
 20 19  1  0
 21 19  2  0
M  END
$$$$
