AQQ.pdb
     RDKit          3D

 24 23  0  0  1  0  0  0  0  0999 V2000
   18.1076  -24.5528  -15.5833 C   0  0  0  0  0  0  0  0  0  0  0  0
   19.1376  -24.2847  -14.4831 C   0  0  2  0  0  0  0  0  0  0  0  0
   20.4434  -24.5202  -15.0169 N   0  0  0  0  0  0  0  0  0  0  0  0
   18.8007  -25.1939  -13.3663 C   0  0  0  0  0  0  0  0  0  0  0  0
   17.6817  -25.2364  -12.8158 O   0  0  0  0  0  0  0  0  0  0  0  0
   22.3907  -30.1630  -11.4551 N   0  0  0  0  0  0  0  0  0  0  0  0
   21.3035  -30.1387  -10.5701 C   0  0  0  0  0  0  0  0  0  0  0  0
   21.1688  -31.0073   -9.6817 O   0  0  0  0  0  0  0  0  0  0  0  0
   20.2420  -29.0674  -10.6420 C   0  0  0  0  0  0  0  0  0  0  0  0
   20.5738  -28.0928  -11.7345 C   0  0  0  0  0  0  0  0  0  0  0  0
   19.5567  -27.0392  -11.8332 C   0  0  2  0  0  0  0  0  0  0  0  0
   19.7964  -26.0725  -12.8839 N   0  0  0  0  0  0  0  0  0  0  0  0
   19.2998  -26.2872  -10.5974 C   0  0  0  0  0  0  0  0  0  0  0  0
   20.0488  -25.3693  -10.2465 O   0  0  0  0  0  0  0  0  0  0  0  0
   14.6966  -23.2685   -9.7236 N   0  0  0  0  0  0  0  0  0  0  0  0
   15.1218  -23.1957   -8.3645 C   0  0  0  0  0  0  0  0  0  0  0  0
   14.5442  -22.4096   -7.5753 O   0  0  0  0  0  0  0  0  0  0  0  0
   16.2347  -24.0249   -7.8444 C   0  0  0  0  0  0  0  0  0  0  0  0
   16.7599  -24.8792   -8.9433 C   0  0  0  0  0  0  0  0  0  0  0  0
   17.8721  -25.8159   -8.5508 C   0  0  2  0  0  0  0  0  0  0  0  0
   18.1675  -26.5990   -9.7599 N   0  0  0  0  0  0  0  0  0  0  0  0
   17.5141  -26.6973   -7.4335 C   0  0  0  0  0  0  0  0  0  0  0  0
   17.3866  -26.2752   -6.2378 O   0  0  0  0  0  0  0  0  0  0  0  0
   17.2920  -28.0482   -7.6160 O   0  0  0  0  0  0  0  0  0  0  0  0
  2  1  1  6
  2  3  1  0
  2  4  1  0
  4 12  1  0
  4  5  2  0
  6  7  1  0
  7  9  1  0
  8  7  2  0
  9 10  1  0
 11 10  1  1
 11 13  1  0
 12 11  1  0
 13 21  1  0
 14 13  2  0
 16 15  1  0
 17 16  2  0
 18 16  1  0
 19 18  1  0
 20 19  1  6
 21 20  1  0
 22 20  1  0
 22 24  1  0
 23 22  2  0
M  END
$$$$
