AQQ.pdb
     RDKit          3D

 24 23  0  0  1  0  0  0  0  0999 V2000
   27.0382  -23.0037  -17.4735 C   0  0  0  0  0  0  0  0  0  0  0  0
   26.8472  -21.6150  -16.8583 C   0  0  2  0  0  0  0  0  0  0  0  0
   28.0710  -21.2253  -16.2290 N   0  0  0  0  0  0  0  0  0  0  0  0
   25.7227  -21.7325  -15.9049 C   0  0  0  0  0  0  0  0  0  0  0  0
   24.6002  -22.1879  -16.2042 O   0  0  0  0  0  0  0  0  0  0  0  0
   25.9894  -20.7416   -9.5573 N   0  0  0  0  0  0  0  0  0  0  0  0
   24.6239  -20.8599   -9.8526 C   0  0  0  0  0  0  0  0  0  0  0  0
   23.7573  -20.8055   -8.9538 O   0  0  0  0  0  0  0  0  0  0  0  0
   24.1289  -21.0585  -11.2650 C   0  0  0  0  0  0  0  0  0  0  0  0
   25.2948  -21.1466  -12.2066 C   0  0  0  0  0  0  0  0  0  0  0  0
   24.8456  -21.2300  -13.6015 C   0  0  2  0  0  0  0  0  0  0  0  0
   25.9174  -21.3073  -14.5717 N   0  0  0  0  0  0  0  0  0  0  0  0
   23.9350  -20.1637  -14.0400 C   0  0  0  0  0  0  0  0  0  0  0  0
   24.3707  -19.0608  -14.3872 O   0  0  0  0  0  0  0  0  0  0  0  0
   22.7362  -18.8339  -18.6258 N   0  0  0  0  0  0  0  0  0  0  0  0
   21.6310  -18.0620  -18.1609 C   0  0  0  0  0  0  0  0  0  0  0  0
   21.0412  -17.2853  -18.9503 O   0  0  0  0  0  0  0  0  0  0  0  0
   21.1482  -18.1452  -16.7621 C   0  0  0  0  0  0  0  0  0  0  0  0
   22.0089  -19.0942  -16.0058 C   0  0  0  0  0  0  0  0  0  0  0  0
   21.5954  -19.3355  -14.5778 C   0  0  2  0  0  0  0  0  0  0  0  0
   22.5084  -20.3739  -14.0774 N   0  0  0  0  0  0  0  0  0  0  0  0
   20.1978  -19.7638  -14.4484 C   0  0  0  0  0  0  0  0  0  0  0  0
   19.2158  -18.9745  -14.6402 O   0  0  0  0  0  0  0  0  0  0  0  0
   19.8636  -21.0600  -14.1084 O   0  0  0  0  0  0  0  0  0  0  0  0
  2  1  1  1
  2  3  1  0
  2  4  1  0
  4 12  1  0
  4  5  2  0
  6  7  1  0
  7  9  1  0
  8  7  2  0
  9 10  1  0
 11 10  1  1
 11 13  1  0
 12 11  1  0
 13 21  1  0
 14 13  2  0
 16 15  1  0
 17 16  2  0
 18 16  1  0
 19 18  1  0
 20 19  1  6
 21 20  1  0
 22 20  1  0
 22 24  1  0
 23 22  2  0
M  END
$$$$
