AQQ.pdb
     RDKit          3D

 24 23  0  0  1  0  0  0  0  0999 V2000
   23.2253  -13.9139  -17.7876 C   0  0  0  0  0  0  0  0  0  0  0  0
   22.0475  -13.3589  -18.5927 C   0  0  2  0  0  0  0  0  0  0  0  0
   22.1104  -13.8952  -19.9171 N   0  0  0  0  0  0  0  0  0  0  0  0
   22.1788  -11.8861  -18.5621 C   0  0  0  0  0  0  0  0  0  0  0  0
   23.2595  -11.2864  -18.3908 O   0  0  0  0  0  0  0  0  0  0  0  0
   18.5786   -7.9815  -21.8566 N   0  0  0  0  0  0  0  0  0  0  0  0
   19.4548   -7.1299  -21.1689 C   0  0  0  0  0  0  0  0  0  0  0  0
   19.4816   -5.9017  -21.3984 O   0  0  0  0  0  0  0  0  0  0  0  0
   20.4085   -7.6477  -20.1193 C   0  0  0  0  0  0  0  0  0  0  0  0
   20.3059   -9.1428  -20.0298 C   0  0  0  0  0  0  0  0  0  0  0  0
   21.0542   -9.6583  -18.8770 C   0  0  2  0  0  0  0  0  0  0  0  0
   21.0187  -11.0987  -18.7362 N   0  0  0  0  0  0  0  0  0  0  0  0
   20.6905   -9.0825  -17.5752 C   0  0  0  0  0  0  0  0  0  0  0  0
   19.8819   -9.6513  -16.8340 O   0  0  0  0  0  0  0  0  0  0  0  0
   19.0550   -9.3456  -13.7441 N   0  0  0  0  0  0  0  0  0  0  0  0
   19.9466   -8.6259  -12.8953 C   0  0  0  0  0  0  0  0  0  0  0  0
   19.6418   -8.4377  -11.6929 O   0  0  0  0  0  0  0  0  0  0  0  0
   21.2358   -8.0859  -13.3883 C   0  0  0  0  0  0  0  0  0  0  0  0
   21.3804   -8.4135  -14.8323 C   0  0  0  0  0  0  0  0  0  0  0  0
   20.9923   -7.3104  -15.7814 C   0  0  2  0  0  0  0  0  0  0  0  0
   21.2664   -7.8385  -17.1262 N   0  0  0  0  0  0  0  0  0  0  0  0
   21.7331   -6.0651  -15.5494 C   0  0  0  0  0  0  0  0  0  0  0  0
   22.7826   -5.7570  -16.2033 O   0  0  0  0  0  0  0  0  0  0  0  0
   21.3307   -5.1464  -14.5999 O   0  0  0  0  0  0  0  0  0  0  0  0
  2  1  1  1
  2  3  1  0
  2  4  1  0
  4 12  1  0
  4  5  2  0
  6  7  1  0
  7  9  1  0
  8  7  2  0
  9 10  1  0
 11 10  1  6
 11 13  1  0
 12 11  1  0
 13 21  1  0
 14 13  2  0
 16 15  1  0
 17 16  2  0
 18 16  1  0
 19 18  1  0
 20 19  1  1
 21 20  1  0
 22 20  1  0
 22 24  1  0
 23 22  2  0
M  END
$$$$
