AQQ.pdb
     RDKit          3D

 24 23  0  0  1  0  0  0  0  0999 V2000
   21.3398  -15.2594  -16.7020 C   0  0  0  0  0  0  0  0  0  0  0  0
   21.0573  -13.8797  -17.3020 C   0  0  2  0  0  0  0  0  0  0  0  0
   21.5795  -13.8483  -18.6331 N   0  0  0  0  0  0  0  0  0  0  0  0
   21.7045  -12.8958  -16.4073 C   0  0  0  0  0  0  0  0  0  0  0  0
   21.4372  -12.7755  -15.1945 O   0  0  0  0  0  0  0  0  0  0  0  0
   27.5274  -11.0139  -16.5596 N   0  0  0  0  0  0  0  0  0  0  0  0
   26.9188  -11.9983  -15.7683 C   0  0  0  0  0  0  0  0  0  0  0  0
   27.5958  -12.8602  -15.1678 O   0  0  0  0  0  0  0  0  0  0  0  0
   25.4201  -12.0701  -15.5994 C   0  0  0  0  0  0  0  0  0  0  0  0
   24.7712  -10.9153  -16.3058 C   0  0  0  0  0  0  0  0  0  0  0  0
   23.3095  -10.9719  -16.1840 C   0  0  2  0  0  0  0  0  0  0  0  0
   22.6863  -12.0339  -16.9454 N   0  0  0  0  0  0  0  0  0  0  0  0
   22.5972   -9.7277  -16.5050 C   0  0  0  0  0  0  0  0  0  0  0  0
   22.1714   -9.5170  -17.6456 O   0  0  0  0  0  0  0  0  0  0  0  0
   17.5426   -8.1397  -15.6512 N   0  0  0  0  0  0  0  0  0  0  0  0
   17.9819   -7.2594  -16.6834 C   0  0  0  0  0  0  0  0  0  0  0  0
   17.1426   -6.5611  -17.3017 O   0  0  0  0  0  0  0  0  0  0  0  0
   19.4111   -7.1381  -17.0566 C   0  0  0  0  0  0  0  0  0  0  0  0
   20.2148   -8.0621  -16.2118 C   0  0  0  0  0  0  0  0  0  0  0  0
   21.5546   -7.5298  -15.7761 C   0  0  2  0  0  0  0  0  0  0  0  0
   22.3751   -8.7181  -15.4988 N   0  0  0  0  0  0  0  0  0  0  0  0
   21.4729   -6.6652  -14.5932 C   0  0  0  0  0  0  0  0  0  0  0  0
   21.5596   -7.1158  -13.4044 O   0  0  0  0  0  0  0  0  0  0  0  0
   21.2960   -5.2997  -14.7021 O   0  0  0  0  0  0  0  0  0  0  0  0
  2  1  1  1
  2  3  1  0
  2  4  1  0
  4 12  1  0
  4  5  2  0
  6  7  1  0
  7  9  1  0
  8  7  2  0
  9 10  1  0
 11 10  1  6
 11 13  1  0
 12 11  1  0
 13 21  1  0
 14 13  2  0
 16 15  1  0
 17 16  2  0
 18 16  1  0
 19 18  1  0
 20 19  1  1
 21 20  1  0
 22 20  1  0
 22 24  1  0
 23 22  2  0
M  END
$$$$
