AQQ.pdb
     RDKit          3D

 24 23  0  0  1  0  0  0  0  0999 V2000
   19.2455  -14.0356  -19.8965 C   0  0  0  0  0  0  0  0  0  0  0  0
   20.2105  -13.5448  -18.8142 C   0  0  2  0  0  0  0  0  0  0  0  0
   20.3414  -14.5692  -17.8247 N   0  0  0  0  0  0  0  0  0  0  0  0
   19.6313  -12.2954  -18.2748 C   0  0  0  0  0  0  0  0  0  0  0  0
   19.4304  -11.2697  -18.9563 O   0  0  0  0  0  0  0  0  0  0  0  0
   15.4236  -11.8923  -13.7239 N   0  0  0  0  0  0  0  0  0  0  0  0
   15.2726  -12.1266  -15.0980 C   0  0  0  0  0  0  0  0  0  0  0  0
   14.1869  -12.5214  -15.5747 O   0  0  0  0  0  0  0  0  0  0  0  0
   16.4074  -11.9156  -16.0712 C   0  0  0  0  0  0  0  0  0  0  0  0
   17.6044  -11.3690  -15.3486 C   0  0  0  0  0  0  0  0  0  0  0  0
   18.7000  -11.0774  -16.2808 C   0  0  2  0  0  0  0  0  0  0  0  0
   19.2798  -12.2467  -16.9073 N   0  0  0  0  0  0  0  0  0  0  0  0
   19.8063  -10.2819  -15.7312 C   0  0  0  0  0  0  0  0  0  0  0  0
   20.8881  -10.8090  -15.4509 O   0  0  0  0  0  0  0  0  0  0  0  0
   23.3312   -8.8521  -18.6688 N   0  0  0  0  0  0  0  0  0  0  0  0
   22.9616   -7.6279  -18.0380 C   0  0  0  0  0  0  0  0  0  0  0  0
   23.7012   -6.6213  -18.1563 O   0  0  0  0  0  0  0  0  0  0  0  0
   21.7204   -7.5002  -17.2381 C   0  0  0  0  0  0  0  0  0  0  0  0
   21.8955   -8.2224  -15.9493 C   0  0  0  0  0  0  0  0  0  0  0  0
   20.7671   -8.0595  -14.9652 C   0  0  2  0  0  0  0  0  0  0  0  0
   19.6608   -8.8649  -15.5035 N   0  0  0  0  0  0  0  0  0  0  0  0
   20.3561   -6.6620  -14.7878 C   0  0  0  0  0  0  0  0  0  0  0  0
   19.2439   -6.2121  -15.2173 O   0  0  0  0  0  0  0  0  0  0  0  0
   21.1594   -5.7453  -14.1379 O   0  0  0  0  0  0  0  0  0  0  0  0
  2  1  1  6
  2  3  1  0
  2  4  1  0
  4 12  1  0
  4  5  2  0
  6  7  1  0
  7  9  1  0
  8  7  2  0
  9 10  1  0
 11 10  1  1
 11 13  1  0
 12 11  1  0
 13 21  1  0
 14 13  2  0
 16 15  1  0
 17 16  2  0
 18 16  1  0
 19 18  1  0
 20 19  1  6
 21 20  1  0
 22 20  1  0
 22 24  1  0
 23 22  2  0
M  END
$$$$
