AQQ.pdb
     RDKit          3D

 24 23  0  0  1  0  0  0  0  0999 V2000
   20.8850  -12.4777  -18.3200 C   0  0  0  0  0  0  0  0  0  0  0  0
   21.4077  -11.1120  -18.7730 C   0  0  2  0  0  0  0  0  0  0  0  0
   22.3830  -11.3171  -19.7989 N   0  0  0  0  0  0  0  0  0  0  0  0
   21.9678  -10.4600  -17.5695 C   0  0  0  0  0  0  0  0  0  0  0  0
   21.3071  -10.2112  -16.5407 O   0  0  0  0  0  0  0  0  0  0  0  0
   28.0577  -10.7332  -16.4103 N   0  0  0  0  0  0  0  0  0  0  0  0
   27.0859  -11.6752  -16.0441 C   0  0  0  0  0  0  0  0  0  0  0  0
   27.3990  -12.8432  -15.7285 O   0  0  0  0  0  0  0  0  0  0  0  0
   25.6162  -11.3314  -16.0114 C   0  0  0  0  0  0  0  0  0  0  0  0
   25.4262   -9.8739  -16.3171 C   0  0  0  0  0  0  0  0  0  0  0  0
   24.0018   -9.5333  -16.4157 C   0  0  2  0  0  0  0  0  0  0  0  0
   23.3318  -10.0914  -17.5714 N   0  0  0  0  0  0  0  0  0  0  0  0
   23.6883   -8.0984  -16.3791 C   0  0  0  0  0  0  0  0  0  0  0  0
   23.8969   -7.3786  -17.3614 O   0  0  0  0  0  0  0  0  0  0  0  0
   19.8850   -5.5897  -18.1927 N   0  0  0  0  0  0  0  0  0  0  0  0
   20.1560   -4.4569  -17.3702 C   0  0  0  0  0  0  0  0  0  0  0  0
   19.5179   -3.3919  -17.5516 O   0  0  0  0  0  0  0  0  0  0  0  0
   21.1765   -4.4926  -16.2959 C   0  0  0  0  0  0  0  0  0  0  0  0
   21.7887   -5.8477  -16.2510 C   0  0  0  0  0  0  0  0  0  0  0  0
   22.8012   -6.0574  -15.1560 C   0  0  2  0  0  0  0  0  0  0  0  0
   23.1289   -7.4903  -15.1967 N   0  0  0  0  0  0  0  0  0  0  0  0
   22.3019   -5.6743  -13.8303 C   0  0  0  0  0  0  0  0  0  0  0  0
   21.8860   -6.5266  -12.9791 O   0  0  0  0  0  0  0  0  0  0  0  0
   22.2543   -4.3547  -13.4252 O   0  0  0  0  0  0  0  0  0  0  0  0
  2  1  1  1
  2  3  1  0
  2  4  1  0
  4 12  1  0
  4  5  2  0
  6  7  1  0
  7  9  1  0
  8  7  2  0
  9 10  1  0
 11 10  1  6
 11 13  1  0
 12 11  1  0
 13 21  1  0
 14 13  2  0
 16 15  1  0
 17 16  2  0
 18 16  1  0
 19 18  1  0
 20 19  1  6
 21 20  1  0
 22 20  1  0
 22 24  1  0
 23 22  2  0
M  END
$$$$
