AQQ.pdb
     RDKit          3D

 24 23  0  0  1  0  0  0  0  0999 V2000
   15.9053  -13.0960  -16.4010 C   0  0  0  0  0  0  0  0  0  0  0  0
   17.4043  -13.3612  -16.5622 C   0  0  2  0  0  0  0  0  0  0  0  0
   17.6688  -14.7149  -16.1840 N   0  0  0  0  0  0  0  0  0  0  0  0
   18.0964  -12.3781  -15.7009 C   0  0  0  0  0  0  0  0  0  0  0  0
   17.7919  -12.1580  -14.5111 O   0  0  0  0  0  0  0  0  0  0  0  0
   23.9255  -12.2023  -14.8548 N   0  0  0  0  0  0  0  0  0  0  0  0
   23.5189  -11.9016  -16.1625 C   0  0  0  0  0  0  0  0  0  0  0  0
   24.2784  -12.0847  -17.1379 O   0  0  0  0  0  0  0  0  0  0  0  0
   22.1485  -11.3431  -16.4617 C   0  0  0  0  0  0  0  0  0  0  0  0
   21.3486  -11.2479  -15.1948 C   0  0  0  0  0  0  0  0  0  0  0  0
   19.9948  -10.7457  -15.4582 C   0  0  2  0  0  0  0  0  0  0  0  0
   19.1687  -11.6366  -16.2455 N   0  0  0  0  0  0  0  0  0  0  0  0
   19.9205   -9.4167  -16.0802 C   0  0  0  0  0  0  0  0  0  0  0  0
   19.8774   -9.2931  -17.3088 O   0  0  0  0  0  0  0  0  0  0  0  0
   15.9762   -5.4591  -14.8417 N   0  0  0  0  0  0  0  0  0  0  0  0
   16.8468   -4.5501  -15.5118 C   0  0  0  0  0  0  0  0  0  0  0  0
   16.4530   -3.3857  -15.7635 O   0  0  0  0  0  0  0  0  0  0  0  0
   18.2164   -4.9358  -15.9265 C   0  0  0  0  0  0  0  0  0  0  0  0
   18.4891   -6.3260  -15.4724 C   0  0  0  0  0  0  0  0  0  0  0  0
   19.8233   -6.8862  -15.8897 C   0  0  2  0  0  0  0  0  0  0  0  0
   19.8959   -8.2201  -15.2750 N   0  0  0  0  0  0  0  0  0  0  0  0
   20.9547   -6.0540  -15.4645 C   0  0  0  0  0  0  0  0  0  0  0  0
   21.6418   -6.3078  -14.4216 O   0  0  0  0  0  0  0  0  0  0  0  0
   21.3437   -4.9371  -16.1779 O   0  0  0  0  0  0  0  0  0  0  0  0
  2  1  1  1
  2  3  1  0
  2  4  1  0
  4 12  1  0
  4  5  2  0
  6  7  1  0
  7  9  1  0
  8  7  2  0
  9 10  1  0
 11 10  1  6
 11 13  1  0
 12 11  1  0
 13 21  1  0
 14 13  2  0
 16 15  1  0
 17 16  2  0
 18 16  1  0
 19 18  1  0
 20 19  1  1
 21 20  1  0
 22 20  1  0
 22 24  1  0
 23 22  2  0
M  END
$$$$
