AQQ.pdb
     RDKit          3D

 24 23  0  0  1  0  0  0  0  0999 V2000
   24.3095  -20.4172  -10.1152 C   0  0  0  0  0  0  0  0  0  0  0  0
   25.2516  -21.1908  -11.0412 C   0  0  2  0  0  0  0  0  0  0  0  0
   26.4694  -21.4484  -10.3368 N   0  0  0  0  0  0  0  0  0  0  0  0
   25.4478  -20.3441  -12.2378 C   0  0  0  0  0  0  0  0  0  0  0  0
   26.2387  -19.3803  -12.2873 O   0  0  0  0  0  0  0  0  0  0  0  0
   26.0522  -23.4364  -15.3426 N   0  0  0  0  0  0  0  0  0  0  0  0
   27.1010  -22.5119  -15.4478 C   0  0  0  0  0  0  0  0  0  0  0  0
   28.2955  -22.8738  -15.3836 O   0  0  0  0  0  0  0  0  0  0  0  0
   26.8457  -21.0368  -15.6434 C   0  0  0  0  0  0  0  0  0  0  0  0
   25.3699  -20.7848  -15.7550 C   0  0  0  0  0  0  0  0  0  0  0  0
   24.8916  -19.9365  -14.6568 C   0  0  2  0  0  0  0  0  0  0  0  0
   24.7011  -20.6329  -13.4020 N   0  0  0  0  0  0  0  0  0  0  0  0
   23.6614  -19.1804  -14.9284 C   0  0  0  0  0  0  0  0  0  0  0  0
   22.8437  -18.9559  -14.0297 O   0  0  0  0  0  0  0  0  0  0  0  0
   23.5262  -14.2452  -14.3941 N   0  0  0  0  0  0  0  0  0  0  0  0
   22.2521  -14.2002  -15.0329 C   0  0  0  0  0  0  0  0  0  0  0  0
   21.5507  -13.1636  -14.9452 O   0  0  0  0  0  0  0  0  0  0  0  0
   21.7203  -15.3476  -15.8059 C   0  0  0  0  0  0  0  0  0  0  0  0
   22.6608  -16.4939  -15.6846 C   0  0  0  0  0  0  0  0  0  0  0  0
   22.2883  -17.7154  -16.4831 C   0  0  2  0  0  0  0  0  0  0  0  0
   23.3738  -18.6796  -16.2502 N   0  0  0  0  0  0  0  0  0  0  0  0
   22.1339  -17.4403  -17.9163 C   0  0  0  0  0  0  0  0  0  0  0  0
   23.0931  -17.5592  -18.7468 O   0  0  0  0  0  0  0  0  0  0  0  0
   20.9278  -17.0334  -18.4522 O   0  0  0  0  0  0  0  0  0  0  0  0
  2  1  1  1
  2  3  1  0
  2  4  1  0
  4 12  1  0
  4  5  2  0
  6  7  1  0
  7  9  1  0
  8  7  2  0
  9 10  1  0
 11 10  1  6
 11 13  1  0
 12 11  1  0
 13 21  1  0
 14 13  2  0
 16 15  1  0
 17 16  2  0
 18 16  1  0
 19 18  1  0
 20 19  1  1
 21 20  1  0
 22 20  1  0
 22 24  1  0
 23 22  2  0
M  END
$$$$
