AQQ.pdb
     RDKit          3D

 24 23  0  0  1  0  0  0  0  0999 V2000
   27.2026  -10.3177  -16.0385 C   0  0  0  0  0  0  0  0  0  0  0  0
   25.9598  -11.1093  -16.4534 C   0  0  2  0  0  0  0  0  0  0  0  0
   26.3008  -11.9378  -17.5682 N   0  0  0  0  0  0  0  0  0  0  0  0
   24.9182  -10.1104  -16.7770 C   0  0  0  0  0  0  0  0  0  0  0  0
   24.9446   -9.3786  -17.7873 O   0  0  0  0  0  0  0  0  0  0  0  0
   18.8744  -10.5160  -15.0438 N   0  0  0  0  0  0  0  0  0  0  0  0
   18.9549   -9.2985  -15.7344 C   0  0  0  0  0  0  0  0  0  0  0  0
   17.9309   -8.6337  -16.0018 O   0  0  0  0  0  0  0  0  0  0  0  0
   20.2761   -8.7273  -16.1901 C   0  0  0  0  0  0  0  0  0  0  0  0
   21.3912   -9.6610  -15.8180 C   0  0  0  0  0  0  0  0  0  0  0  0
   22.6983   -9.0945  -16.1712 C   0  0  2  0  0  0  0  0  0  0  0  0
   23.8218   -9.9657  -15.8978 N   0  0  0  0  0  0  0  0  0  0  0  0
   23.0047   -7.7863  -15.5766 C   0  0  0  0  0  0  0  0  0  0  0  0
   23.5385   -7.7043  -14.4653 O   0  0  0  0  0  0  0  0  0  0  0  0
   21.9937   -2.4856  -18.7348 N   0  0  0  0  0  0  0  0  0  0  0  0
   22.3591   -1.9498  -17.4649 C   0  0  0  0  0  0  0  0  0  0  0  0
   22.3494   -0.7073  -17.2901 O   0  0  0  0  0  0  0  0  0  0  0  0
   22.7546   -2.8179  -16.3306 C   0  0  0  0  0  0  0  0  0  0  0  0
   22.6291   -4.2423  -16.7411 C   0  0  0  0  0  0  0  0  0  0  0  0
   22.9770   -5.2489  -15.6762 C   0  0  2  0  0  0  0  0  0  0  0  0
   22.6914   -6.5623  -16.2726 N   0  0  0  0  0  0  0  0  0  0  0  0
   22.2136   -5.0620  -14.4369 C   0  0  0  0  0  0  0  0  0  0  0  0
   21.0229   -5.4919  -14.2910 O   0  0  0  0  0  0  0  0  0  0  0  0
   22.7479   -4.4033  -13.3468 O   0  0  0  0  0  0  0  0  0  0  0  0
  2  1  1  6
  2  3  1  0
  2  4  1  0
  4 12  1  0
  4  5  2  0
  6  7  1  0
  7  9  1  0
  8  7  2  0
  9 10  1  0
 11 10  1  1
 11 13  1  0
 12 11  1  0
 13 21  1  0
 14 13  2  0
 16 15  1  0
 17 16  2  0
 18 16  1  0
 19 18  1  0
 20 19  1  6
 21 20  1  0
 22 20  1  0
 22 24  1  0
 23 22  2  0
M  END
$$$$
