AQQ.pdb
     RDKit          3D

 24 23  0  0  1  0  0  0  0  0999 V2000
   17.3280  -10.7644  -15.2084 C   0  0  0  0  0  0  0  0  0  0  0  0
   17.6430   -9.6965  -16.2590 C   0  0  2  0  0  0  0  0  0  0  0  0
   18.5054  -10.2706  -17.2451 N   0  0  0  0  0  0  0  0  0  0  0  0
   18.2692   -8.5700  -15.5336 C   0  0  0  0  0  0  0  0  0  0  0  0
   17.8779   -8.1517  -14.4251 O   0  0  0  0  0  0  0  0  0  0  0  0
   22.1188   -6.8188  -12.8690 N   0  0  0  0  0  0  0  0  0  0  0  0
   22.2709   -5.5882  -13.5234 C   0  0  0  0  0  0  0  0  0  0  0  0
   22.6661   -4.5717  -12.9130 O   0  0  0  0  0  0  0  0  0  0  0  0
   21.9671   -5.4249  -14.9933 C   0  0  0  0  0  0  0  0  0  0  0  0
   21.4342   -6.7132  -15.5502 C   0  0  0  0  0  0  0  0  0  0  0  0
   19.9666   -6.7142  -15.5748 C   0  0  2  0  0  0  0  0  0  0  0  0
   19.3780   -7.9195  -16.1196 N   0  0  0  0  0  0  0  0  0  0  0  0
   19.3425   -5.5744  -16.2605 C   0  0  0  0  0  0  0  0  0  0  0  0
   19.2514   -5.5481  -17.4925 O   0  0  0  0  0  0  0  0  0  0  0  0
   14.8499   -2.9521  -14.0005 N   0  0  0  0  0  0  0  0  0  0  0  0
   14.9188   -2.1050  -15.1455 C   0  0  0  0  0  0  0  0  0  0  0  0
   13.8868   -1.5101  -15.5397 O   0  0  0  0  0  0  0  0  0  0  0  0
   16.1805   -1.8997  -15.8956 C   0  0  0  0  0  0  0  0  0  0  0  0
   17.2638   -2.6900  -15.2515 C   0  0  0  0  0  0  0  0  0  0  0  0
   18.2850   -3.2665  -16.1966 C   0  0  2  0  0  0  0  0  0  0  0  0
   18.8193   -4.4553  -15.5157 N   0  0  0  0  0  0  0  0  0  0  0  0
   19.3619   -2.3248  -16.5235 C   0  0  0  0  0  0  0  0  0  0  0  0
   20.3095   -2.0558  -15.7151 O   0  0  0  0  0  0  0  0  0  0  0  0
   19.4107   -1.6702  -17.7388 O   0  0  0  0  0  0  0  0  0  0  0  0
  2  1  1  1
  2  3  1  0
  2  4  1  0
  4 12  1  0
  4  5  2  0
  6  7  1  0
  7  9  1  0
  8  7  2  0
  9 10  1  0
 11 10  1  6
 11 13  1  0
 12 11  1  0
 13 21  1  0
 14 13  2  0
 16 15  1  0
 17 16  2  0
 18 16  1  0
 19 18  1  0
 20 19  1  1
 21 20  1  0
 22 20  1  0
 22 24  1  0
 23 22  2  0
M  END
$$$$
