AQQ.pdb
     RDKit          3D

 24 23  0  0  1  0  0  0  0  0999 V2000
   20.3889  -14.5478  -16.9331 C   0  0  0  0  0  0  0  0  0  0  0  0
   19.1561  -13.6524  -16.7853 C   0  0  2  0  0  0  0  0  0  0  0  0
   18.4667  -13.6191  -18.0381 N   0  0  0  0  0  0  0  0  0  0  0  0
   19.6536  -12.3237  -16.3676 C   0  0  0  0  0  0  0  0  0  0  0  0
   20.2969  -12.1190  -15.3183 O   0  0  0  0  0  0  0  0  0  0  0  0
   21.5247   -7.7473  -20.1556 N   0  0  0  0  0  0  0  0  0  0  0  0
   22.2313   -8.8453  -19.6449 C   0  0  0  0  0  0  0  0  0  0  0  0
   23.3316   -9.1912  -20.1262 O   0  0  0  0  0  0  0  0  0  0  0  0
   21.7043   -9.6650  -18.4917 C   0  0  0  0  0  0  0  0  0  0  0  0
   20.3695   -9.1336  -18.0560 C   0  0  0  0  0  0  0  0  0  0  0  0
   19.8565   -9.8729  -16.8965 C   0  0  2  0  0  0  0  0  0  0  0  0
   19.3918  -11.2106  -17.1975 N   0  0  0  0  0  0  0  0  0  0  0  0
   18.7939   -9.2019  -16.1353 C   0  0  0  0  0  0  0  0  0  0  0  0
   17.6562   -9.6804  -16.0779 O   0  0  0  0  0  0  0  0  0  0  0  0
   16.5804  -10.2225  -11.9655 N   0  0  0  0  0  0  0  0  0  0  0  0
   16.1240   -8.8858  -11.7700 C   0  0  0  0  0  0  0  0  0  0  0  0
   15.3260   -8.6334  -10.8352 O   0  0  0  0  0  0  0  0  0  0  0  0
   16.5636   -7.7706  -12.6416 C   0  0  0  0  0  0  0  0  0  0  0  0
   17.5412   -8.2871  -13.6370 C   0  0  0  0  0  0  0  0  0  0  0  0
   17.9905   -7.2888  -14.6713 C   0  0  2  0  0  0  0  0  0  0  0  0
   19.0487   -7.9671  -15.4344 N   0  0  0  0  0  0  0  0  0  0  0  0
   18.4896   -6.0392  -14.0856 C   0  0  0  0  0  0  0  0  0  0  0  0
   17.7157   -5.1433  -13.6139 O   0  0  0  0  0  0  0  0  0  0  0  0
   19.8402   -5.7603  -14.0109 O   0  0  0  0  0  0  0  0  0  0  0  0
  2  1  1  6
  2  3  1  0
  2  4  1  0
  4 12  1  0
  4  5  2  0
  6  7  1  0
  7  9  1  0
  8  7  2  0
  9 10  1  0
 11 10  1  6
 11 13  1  0
 12 11  1  0
 13 21  1  0
 14 13  2  0
 16 15  1  0
 17 16  2  0
 18 16  1  0
 19 18  1  0
 20 19  1  1
 21 20  1  0
 22 20  1  0
 22 24  1  0
 23 22  2  0
M  END
$$$$
