AQQ.pdb
     RDKit          3D

 24 23  0  0  1  0  0  0  0  0999 V2000
   20.8349  -10.6907  -16.2392 C   0  0  0  0  0  0  0  0  0  0  0  0
   19.4036  -11.2338  -16.2473 C   0  0  2  0  0  0  0  0  0  0  0  0
   19.2109  -11.9869  -17.4479 N   0  0  0  0  0  0  0  0  0  0  0  0
   18.5112  -10.0579  -16.1570 C   0  0  0  0  0  0  0  0  0  0  0  0
   18.5738   -9.0752  -16.9234 O   0  0  0  0  0  0  0  0  0  0  0  0
   12.8481  -10.1710  -13.3843 N   0  0  0  0  0  0  0  0  0  0  0  0
   13.0819  -10.3803  -14.7508 C   0  0  0  0  0  0  0  0  0  0  0  0
   12.2120  -10.8912  -15.4884 O   0  0  0  0  0  0  0  0  0  0  0  0
   14.3904  -10.0018  -15.4019 C   0  0  0  0  0  0  0  0  0  0  0  0
   15.2930   -9.3521  -14.3935 C   0  0  0  0  0  0  0  0  0  0  0  0
   16.5687   -8.9545  -15.0009 C   0  0  2  0  0  0  0  0  0  0  0  0
   17.5238  -10.0327  -15.1468 N   0  0  0  0  0  0  0  0  0  0  0  0
   17.2645   -7.8398  -14.3438 C   0  0  0  0  0  0  0  0  0  0  0  0
   17.9320   -8.0241  -13.3204 O   0  0  0  0  0  0  0  0  0  0  0  0
   21.9774   -6.3295  -14.4752 N   0  0  0  0  0  0  0  0  0  0  0  0
   21.6388   -5.0099  -14.0538 C   0  0  0  0  0  0  0  0  0  0  0  0
   22.5499   -4.1739  -13.8414 O   0  0  0  0  0  0  0  0  0  0  0  0
   20.2327   -4.5855  -13.8554 C   0  0  0  0  0  0  0  0  0  0  0  0
   19.3278   -5.6957  -14.2575 C   0  0  0  0  0  0  0  0  0  0  0  0
   17.8573   -5.3743  -14.2059 C   0  0  2  0  0  0  0  0  0  0  0  0
   17.1882   -6.5005  -14.8740 N   0  0  0  0  0  0  0  0  0  0  0  0
   17.5228   -4.1053  -14.8625 C   0  0  0  0  0  0  0  0  0  0  0  0
   17.6669   -2.9758  -14.2905 O   0  0  0  0  0  0  0  0  0  0  0  0
   17.0280   -4.0624  -16.1514 O   0  0  0  0  0  0  0  0  0  0  0  0
  2  1  1  6
  2  3  1  0
  2  4  1  0
  4 12  1  0
  4  5  2  0
  6  7  1  0
  7  9  1  0
  8  7  2  0
  9 10  1  0
 11 10  1  1
 11 13  1  0
 12 11  1  0
 13 21  1  0
 14 13  2  0
 16 15  1  0
 17 16  2  0
 18 16  1  0
 19 18  1  0
 20 19  1  6
 21 20  1  0
 22 20  1  0
 22 24  1  0
 23 22  2  0
M  END
$$$$
