AQQ.pdb
     RDKit          3D

 24 23  0  0  1  0  0  0  0  0999 V2000
   13.7681  -10.8583  -10.4464 C   0  0  0  0  0  0  0  0  0  0  0  0
   13.4493  -11.4447  -11.8240 C   0  0  2  0  0  0  0  0  0  0  0  0
   13.4449  -12.8712  -11.7199 N   0  0  0  0  0  0  0  0  0  0  0  0
   14.4913  -10.9389  -12.7436 C   0  0  0  0  0  0  0  0  0  0  0  0
   15.4818  -11.6045  -13.1080 O   0  0  0  0  0  0  0  0  0  0  0  0
   12.5557   -8.7697  -17.4390 N   0  0  0  0  0  0  0  0  0  0  0  0
   13.5157   -9.7891  -17.5094 C   0  0  0  0  0  0  0  0  0  0  0  0
   13.4826  -10.6522  -18.4126 O   0  0  0  0  0  0  0  0  0  0  0  0
   14.6358   -9.8989  -16.5030 C   0  0  0  0  0  0  0  0  0  0  0  0
   14.5626   -8.7568  -15.5314 C   0  0  0  0  0  0  0  0  0  0  0  0
   15.2403   -9.0868  -14.2720 C   0  0  2  0  0  0  0  0  0  0  0  0
   14.3703   -9.6244  -13.2473 N   0  0  0  0  0  0  0  0  0  0  0  0
   16.0123   -7.9957  -13.6618 C   0  0  0  0  0  0  0  0  0  0  0  0
   15.5245   -7.2972  -12.7669 O   0  0  0  0  0  0  0  0  0  0  0  0
   22.1655   -7.7733  -13.8917 N   0  0  0  0  0  0  0  0  0  0  0  0
   21.9129   -6.4911  -13.3211 C   0  0  0  0  0  0  0  0  0  0  0  0
   22.8747   -5.7828  -12.9371 O   0  0  0  0  0  0  0  0  0  0  0  0
   20.5387   -5.9588  -13.1633 C   0  0  0  0  0  0  0  0  0  0  0  0
   19.5629   -6.9931  -13.6007 C   0  0  0  0  0  0  0  0  0  0  0  0
   18.1163   -6.5798  -13.5296 C   0  0  2  0  0  0  0  0  0  0  0  0
   17.3599   -7.7096  -14.0897 N   0  0  0  0  0  0  0  0  0  0  0  0
   17.8340   -5.3450  -14.2705 C   0  0  0  0  0  0  0  0  0  0  0  0
   17.9264   -4.1892  -13.7419 O   0  0  0  0  0  0  0  0  0  0  0  0
   17.4486   -5.3654  -15.5967 O   0  0  0  0  0  0  0  0  0  0  0  0
  2  1  1  1
  2  3  1  0
  2  4  1  0
  4 12  1  0
  4  5  2  0
  6  7  1  0
  7  9  1  0
  8  7  2  0
  9 10  1  0
 11 10  1  6
 11 13  1  0
 12 11  1  0
 13 21  1  0
 14 13  2  0
 16 15  1  0
 17 16  2  0
 18 16  1  0
 19 18  1  0
 20 19  1  6
 21 20  1  0
 22 20  1  0
 22 24  1  0
 23 22  2  0
M  END
$$$$
