YNK.pdb
     RDKit          3D

 30 30  0  0  1  0  0  0  0  0999 V2000
   21.4655  -21.7864   -6.7910 O   0  0  0  0  0  0  0  0  0  0  0  0
   22.2884  -21.3542   -7.8308 C   0  0  0  0  0  0  0  0  0  0  0  0
   23.6082  -21.0152   -7.6297 C   0  0  0  0  0  0  0  0  0  0  0  0
   24.4221  -20.5851   -8.6721 C   0  0  0  0  0  0  0  0  0  0  0  0
   23.9283  -20.4825   -9.9565 C   0  0  0  0  0  0  0  0  0  0  0  0
   24.7924  -20.0288  -11.0281 C   0  0  0  0  0  0  0  0  0  0  0  0
   24.9861  -20.9457  -12.1889 C   0  0  2  0  0  0  0  0  0  0  0  0
   25.5331  -22.2139  -11.7468 N   0  0  0  0  0  0  0  0  0  0  0  0
   25.7139  -20.3751  -13.3292 C   0  0  0  0  0  0  0  0  0  0  0  0
   26.6451  -19.5571  -13.0538 O   0  0  0  0  0  0  0  0  0  0  0  0
   22.6042  -20.8260  -10.1390 C   0  0  0  0  0  0  0  0  0  0  0  0
   21.7920  -21.2522   -9.1151 C   0  0  0  0  0  0  0  0  0  0  0  0
   28.4782  -22.5742  -16.7835 N   0  0  0  0  0  0  0  0  0  0  0  0
   27.9490  -21.9157  -15.6561 C   0  0  0  0  0  0  0  0  0  0  0  0
   27.6667  -22.5652  -14.6327 O   0  0  0  0  0  0  0  0  0  0  0  0
   27.7318  -20.4604  -15.6911 C   0  0  0  0  0  0  0  0  0  0  0  0
   26.2673  -20.1159  -15.7773 C   0  0  2  0  0  0  0  0  0  0  0  0
   25.4818  -20.6439  -14.6951 N   0  0  0  0  0  0  0  0  0  0  0  0
   25.7776  -20.5605  -17.1048 C   0  0  0  0  0  0  0  0  0  0  0  0
   25.2457  -21.6914  -17.1889 O   0  0  0  0  0  0  0  0  0  0  0  0
   25.8808  -19.7740  -18.2727 N   0  0  0  0  0  0  0  0  0  0  0  0
   24.8377  -19.6847  -19.2815 C   0  0  1  0  0  0  0  0  0  0  0  0
   23.6025  -19.1859  -18.5455 C   0  0  0  0  0  0  0  0  0  0  0  0
   22.4126  -18.9822  -19.4151 C   0  0  0  0  0  0  0  0  0  0  0  0
   21.2377  -18.5445  -18.5839 C   0  0  0  0  0  0  0  0  0  0  0  0
   19.9891  -18.2911  -19.3911 C   0  0  0  0  0  0  0  0  0  0  0  0
   18.8909  -18.0792  -18.4613 N   0  0  0  0  0  0  0  0  0  0  0  0
   25.2102  -18.7587  -20.3668 C   0  0  0  0  0  0  0  0  0  0  0  0
   24.8925  -18.9262  -21.5646 O   0  0  0  0  0  0  0  0  0  0  0  0
   25.9592  -17.6319  -20.0334 O   0  0  0  0  0  0  0  0  0  0  0  0
  2  1  1  0
  3  2  2  0
  4  3  1  0
  5  4  2  0
  5 11  1  0
  6  5  1  0
  7  6  1  0
  7  9  1  0
  7  8  1  1
  9 10  2  0
 11 12  2  0
 12  2  1  0
 13 14  1  0
 14 16  1  0
 14 15  2  0
 17 16  1  1
 18 17  1  0
 18  9  1  0
 19 17  1  0
 19 20  2  0
 21 19  1  0
 22 21  1  0
 22 28  1  0
 22 23  1  1
 24 23  1  0
 25 24  1  0
 26 25  1  0
 26 27  1  0
 28 29  2  0
 28 30  1  0
M  END
$$$$
