YNK.pdb
     RDKit          3D

 30 30  0  0  1  0  0  0  0  0999 V2000
   28.7143  -36.4601  -14.7717 O   0  0  0  0  0  0  0  0  0  0  0  0
   28.2528  -35.1687  -15.0255 C   0  0  0  0  0  0  0  0  0  0  0  0
   27.0639  -34.9294  -15.6786 C   0  0  0  0  0  0  0  0  0  0  0  0
   26.6108  -33.6385  -15.9278 C   0  0  0  0  0  0  0  0  0  0  0  0
   27.3461  -32.5426  -15.5245 C   0  0  0  0  0  0  0  0  0  0  0  0
   26.8576  -31.2054  -15.7972 C   0  0  0  0  0  0  0  0  0  0  0  0
   27.1558  -30.6259  -17.1391 C   0  0  2  0  0  0  0  0  0  0  0  0
   28.5757  -30.3634  -17.2733 N   0  0  0  0  0  0  0  0  0  0  0  0
   26.3230  -29.4824  -17.5319 C   0  0  0  0  0  0  0  0  0  0  0  0
   26.9137  -28.5321  -18.1320 O   0  0  0  0  0  0  0  0  0  0  0  0
   28.5343  -32.8015  -14.8720 C   0  0  0  0  0  0  0  0  0  0  0  0
   28.9903  -34.0739  -14.6211 C   0  0  0  0  0  0  0  0  0  0  0  0
   25.5820  -26.9084  -20.9322 N   0  0  0  0  0  0  0  0  0  0  0  0
   24.7937  -26.8966  -19.7647 C   0  0  0  0  0  0  0  0  0  0  0  0
   24.6534  -25.8411  -19.1203 O   0  0  0  0  0  0  0  0  0  0  0  0
   24.1372  -28.1328  -19.3099 C   0  0  0  0  0  0  0  0  0  0  0  0
   24.1402  -28.2470  -17.8073 C   0  0  2  0  0  0  0  0  0  0  0  0
   24.9372  -29.3349  -17.3091 N   0  0  0  0  0  0  0  0  0  0  0  0
   22.7285  -28.3247  -17.3590 C   0  0  0  0  0  0  0  0  0  0  0  0
   22.1335  -29.4212  -17.4711 O   0  0  0  0  0  0  0  0  0  0  0  0
   22.0265  -27.2279  -16.8137 N   0  0  0  0  0  0  0  0  0  0  0  0
   20.6942  -27.3257  -16.2402 C   0  0  1  0  0  0  0  0  0  0  0  0
   20.5347  -26.0875  -15.3697 C   0  0  0  0  0  0  0  0  0  0  0  0
   19.2173  -25.9856  -14.6860 C   0  0  0  0  0  0  0  0  0  0  0  0
   19.1010  -24.6569  -13.9904 C   0  0  0  0  0  0  0  0  0  0  0  0
   17.7711  -24.4466  -13.3107 C   0  0  0  0  0  0  0  0  0  0  0  0
   17.6718  -23.0418  -12.9473 N   0  0  0  0  0  0  0  0  0  0  0  0
   19.6552  -27.3681  -17.2856 C   0  0  0  0  0  0  0  0  0  0  0  0
   19.7193  -26.7271  -18.3574 O   0  0  0  0  0  0  0  0  0  0  0  0
   18.5387  -28.1716  -17.0622 O   0  0  0  0  0  0  0  0  0  0  0  0
  2  1  1  0
  3  2  2  0
  4  3  1  0
  5  4  2  0
  5 11  1  0
  6  5  1  0
  7  6  1  0
  7  9  1  0
  7  8  1  1
  9 10  2  0
 11 12  2  0
 12  2  1  0
 13 14  1  0
 14 16  1  0
 14 15  2  0
 17 16  1  6
 18 17  1  0
 18  9  1  0
 19 17  1  0
 19 20  2  0
 21 19  1  0
 22 21  1  0
 22 28  1  0
 22 23  1  1
 24 23  1  0
 25 24  1  0
 26 25  1  0
 26 27  1  0
 28 29  2  0
 28 30  1  0
M  END
$$$$
