YNK.pdb
     RDKit          3D

 30 30  0  0  1  0  0  0  0  0999 V2000
   28.9484  -19.8325   -6.1490 O   0  0  0  0  0  0  0  0  0  0  0  0
   28.2425  -20.0002   -7.3401 C   0  0  0  0  0  0  0  0  0  0  0  0
   28.5198  -21.0234   -8.2196 C   0  0  0  0  0  0  0  0  0  0  0  0
   27.8111  -21.1836   -9.4054 C   0  0  0  0  0  0  0  0  0  0  0  0
   26.7956  -20.3127   -9.7436 C   0  0  0  0  0  0  0  0  0  0  0  0
   26.0716  -20.4953  -10.9860 C   0  0  0  0  0  0  0  0  0  0  0  0
   24.6003  -20.2495  -10.9658 C   0  0  2  0  0  0  0  0  0  0  0  0
   23.9340  -21.2326  -10.1336 N   0  0  0  0  0  0  0  0  0  0  0  0
   23.9689  -20.0915  -12.2818 C   0  0  0  0  0  0  0  0  0  0  0  0
   23.0709  -20.9369  -12.5835 O   0  0  0  0  0  0  0  0  0  0  0  0
   26.5321  -19.2938   -8.8508 C   0  0  0  0  0  0  0  0  0  0  0  0
   27.2270  -19.1274   -7.6764 C   0  0  0  0  0  0  0  0  0  0  0  0
   22.1359  -18.4161  -16.7662 N   0  0  0  0  0  0  0  0  0  0  0  0
   23.2500  -17.5873  -16.5283 C   0  0  0  0  0  0  0  0  0  0  0  0
   23.5330  -16.6806  -17.3325 O   0  0  0  0  0  0  0  0  0  0  0  0
   24.0764  -17.7953  -15.3284 C   0  0  0  0  0  0  0  0  0  0  0  0
   23.5677  -18.9403  -14.4909 C   0  0  2  0  0  0  0  0  0  0  0  0
   24.2599  -19.0978  -13.2408 N   0  0  0  0  0  0  0  0  0  0  0  0
   23.6164  -20.1651  -15.3260 C   0  0  0  0  0  0  0  0  0  0  0  0
   24.7236  -20.7301  -15.4805 O   0  0  0  0  0  0  0  0  0  0  0  0
   22.4803  -20.7229  -15.9515 N   0  0  0  0  0  0  0  0  0  0  0  0
   22.5006  -21.9681  -16.7016 C   0  0  1  0  0  0  0  0  0  0  0  0
   22.2480  -23.0641  -15.6764 C   0  0  0  0  0  0  0  0  0  0  0  0
   22.1073  -24.4260  -16.2586 C   0  0  0  0  0  0  0  0  0  0  0  0
   21.8266  -25.4241  -15.1686 C   0  0  0  0  0  0  0  0  0  0  0  0
   21.6918  -26.8407  -15.6685 C   0  0  0  0  0  0  0  0  0  0  0  0
   21.4983  -27.7054  -14.5151 N   0  0  0  0  0  0  0  0  0  0  0  0
   21.4663  -21.9855  -17.7524 C   0  0  0  0  0  0  0  0  0  0  0  0
   20.4550  -21.2501  -17.7462 O   0  0  0  0  0  0  0  0  0  0  0  0
   21.6301  -22.8745  -18.8130 O   0  0  0  0  0  0  0  0  0  0  0  0
  2  1  1  0
  3  2  2  0
  4  3  1  0
  5  4  2  0
  5 11  1  0
  6  5  1  0
  7  6  1  0
  7  9  1  0
  7  8  1  6
  9 10  2  0
 11 12  2  0
 12  2  1  0
 13 14  1  0
 14 16  1  0
 14 15  2  0
 17 16  1  6
 18 17  1  0
 18  9  1  0
 19 17  1  0
 19 20  2  0
 21 19  1  0
 22 21  1  0
 22 28  1  0
 22 23  1  1
 24 23  1  0
 25 24  1  0
 26 25  1  0
 26 27  1  0
 28 29  2  0
 28 30  1  0
M  END
$$$$
