YNK.pdb
     RDKit          3D

 30 30  0  0  1  0  0  0  0  0999 V2000
   30.4835  -12.0708  -18.3126 O   0  0  0  0  0  0  0  0  0  0  0  0
   29.3030  -11.3729  -18.0592 C   0  0  0  0  0  0  0  0  0  0  0  0
   29.2835  -10.2037  -17.3311 C   0  0  0  0  0  0  0  0  0  0  0  0
   28.1018   -9.5139  -17.0829 C   0  0  0  0  0  0  0  0  0  0  0  0
   26.8964   -9.9835  -17.5631 C   0  0  0  0  0  0  0  0  0  0  0  0
   25.6758   -9.2512  -17.2901 C   0  0  0  0  0  0  0  0  0  0  0  0
   25.1251   -9.3261  -15.9056 C   0  0  2  0  0  0  0  0  0  0  0  0
   24.9867  -10.7085  -15.4898 N   0  0  0  0  0  0  0  0  0  0  0  0
   23.9140   -8.5321  -15.6644 C   0  0  0  0  0  0  0  0  0  0  0  0
   23.0080   -9.0809  -14.9641 O   0  0  0  0  0  0  0  0  0  0  0  0
   26.9352  -11.1560  -18.2900 C   0  0  0  0  0  0  0  0  0  0  0  0
   28.0981  -11.8449  -18.5406 C   0  0  0  0  0  0  0  0  0  0  0  0
   21.1520   -4.2142  -13.5016 N   0  0  0  0  0  0  0  0  0  0  0  0
   21.0775   -5.5354  -13.9849 C   0  0  0  0  0  0  0  0  0  0  0  0
   19.9683   -6.0754  -14.1490 O   0  0  0  0  0  0  0  0  0  0  0  0
   22.3121   -6.2739  -14.2954 C   0  0  0  0  0  0  0  0  0  0  0  0
   22.5037   -6.4431  -15.7805 C   0  0  2  0  0  0  0  0  0  0  0  0
   23.6575   -7.2255  -16.1319 N   0  0  0  0  0  0  0  0  0  0  0  0
   22.5276   -5.0903  -16.3883 C   0  0  0  0  0  0  0  0  0  0  0  0
   23.6039   -4.6858  -16.8852 O   0  0  0  0  0  0  0  0  0  0  0  0
   21.4009   -4.2409  -16.4344 N   0  0  0  0  0  0  0  0  0  0  0  0
   21.2444   -3.1575  -17.3911 C   0  0  1  0  0  0  0  0  0  0  0  0
   21.1747   -3.8276  -18.7558 C   0  0  0  0  0  0  0  0  0  0  0  0
   20.8322   -2.9067  -19.8730 C   0  0  0  0  0  0  0  0  0  0  0  0
   20.8971   -3.6425  -21.1835 C   0  0  0  0  0  0  0  0  0  0  0  0
   20.5545   -2.7834  -22.3749 C   0  0  0  0  0  0  0  0  0  0  0  0
   20.5646   -3.6322  -23.5559 N   0  0  0  0  0  0  0  0  0  0  0  0
   20.0227   -2.3744  -17.1293 C   0  0  0  0  0  0  0  0  0  0  0  0
   19.8676   -1.1861  -17.4862 O   0  0  0  0  0  0  0  0  0  0  0  0
   18.9824   -2.9997  -16.4446 O   0  0  0  0  0  0  0  0  0  0  0  0
  2  1  1  0
  3  2  2  0
  4  3  1  0
  5  4  2  0
  5 11  1  0
  6  5  1  0
  7  6  1  0
  7  9  1  0
  7  8  1  6
  9 10  2  0
 11 12  2  0
 12  2  1  0
 13 14  1  0
 14 16  1  0
 14 15  2  0
 17 16  1  1
 18 17  1  0
 18  9  1  0
 19 17  1  0
 19 20  2  0
 21 19  1  0
 22 21  1  0
 22 28  1  0
 22 23  1  6
 24 23  1  0
 25 24  1  0
 26 25  1  0
 26 27  1  0
 28 29  2  0
 28 30  1  0
M  END
$$$$
