YNK.pdb
     RDKit          3D

 30 30  0  0  1  0  0  0  0  0999 V2000
   15.1163  -24.7749  -15.4647 O   0  0  0  0  0  0  0  0  0  0  0  0
   16.3024  -24.0696  -15.2623 C   0  0  0  0  0  0  0  0  0  0  0  0
   16.3990  -22.7150  -15.4922 C   0  0  0  0  0  0  0  0  0  0  0  0
   17.5856  -22.0192  -15.2878 C   0  0  0  0  0  0  0  0  0  0  0  0
   18.7179  -22.6706  -14.8431 C   0  0  0  0  0  0  0  0  0  0  0  0
   19.9455  -21.9273  -14.6398 C   0  0  0  0  0  0  0  0  0  0  0  0
   20.3699  -21.6741  -13.2322 C   0  0  2  0  0  0  0  0  0  0  0  0
   19.3149  -21.0023  -12.4983 N   0  0  0  0  0  0  0  0  0  0  0  0
   21.6783  -21.0272  -13.0742 C   0  0  0  0  0  0  0  0  0  0  0  0
   21.7661  -20.1427  -12.1675 O   0  0  0  0  0  0  0  0  0  0  0  0
   18.6024  -24.0273  -14.6183 C   0  0  0  0  0  0  0  0  0  0  0  0
   17.4340  -24.7237  -14.8174 C   0  0  0  0  0  0  0  0  0  0  0  0
   26.5924  -21.8948  -10.7212 N   0  0  0  0  0  0  0  0  0  0  0  0
   25.8335  -21.0593  -11.5643 C   0  0  0  0  0  0  0  0  0  0  0  0
   26.2973  -19.9660  -11.9367 O   0  0  0  0  0  0  0  0  0  0  0  0
   24.4939  -21.4819  -12.0035 C   0  0  0  0  0  0  0  0  0  0  0  0
   24.1809  -20.9914  -13.3937 C   0  0  2  0  0  0  0  0  0  0  0  0
   22.8429  -21.2892  -13.8270 N   0  0  0  0  0  0  0  0  0  0  0  0
   25.2105  -21.5427  -14.3079 C   0  0  0  0  0  0  0  0  0  0  0  0
   25.4380  -22.7737  -14.2664 O   0  0  0  0  0  0  0  0  0  0  0  0
   25.9425  -20.7508  -15.2191 N   0  0  0  0  0  0  0  0  0  0  0  0
   26.6763  -21.2917  -16.3517 C   0  0  1  0  0  0  0  0  0  0  0  0
   27.2574  -20.0843  -17.0733 C   0  0  0  0  0  0  0  0  0  0  0  0
   28.1416  -20.4241  -18.2205 C   0  0  0  0  0  0  0  0  0  0  0  0
   28.6441  -19.1649  -18.8724 C   0  0  0  0  0  0  0  0  0  0  0  0
   29.4959  -19.4157  -20.0915 C   0  0  0  0  0  0  0  0  0  0  0  0
   29.8123  -18.1278  -20.6886 N   0  0  0  0  0  0  0  0  0  0  0  0
   27.7472  -22.2075  -15.9172 C   0  0  0  0  0  0  0  0  0  0  0  0
   28.1216  -23.2028  -16.5751 O   0  0  0  0  0  0  0  0  0  0  0  0
   28.3766  -21.9439  -14.7021 O   0  0  0  0  0  0  0  0  0  0  0  0
  2  1  1  0
  3  2  2  0
  4  3  1  0
  5  4  2  0
  5 11  1  0
  6  5  1  0
  7  6  1  0
  7  9  1  0
  7  8  1  6
  9 10  2  0
 11 12  2  0
 12  2  1  0
 13 14  1  0
 14 16  1  0
 14 15  2  0
 17 16  1  1
 18 17  1  0
 18  9  1  0
 19 17  1  0
 19 20  2  0
 21 19  1  0
 22 21  1  0
 22 28  1  0
 22 23  1  1
 24 23  1  0
 25 24  1  0
 26 25  1  0
 26 27  1  0
 28 29  2  0
 28 30  1  0
M  END
$$$$
