YNK.pdb
     RDKit          3D

 30 30  0  0  1  0  0  0  0  0999 V2000
   28.4811  -19.9130   -5.9788 O   0  0  0  0  0  0  0  0  0  0  0  0
   27.9724  -20.0106   -7.2737 C   0  0  0  0  0  0  0  0  0  0  0  0
   26.6937  -19.6097   -7.5921 C   0  0  0  0  0  0  0  0  0  0  0  0
   26.1941  -19.7103   -8.8860 C   0  0  0  0  0  0  0  0  0  0  0  0
   26.9720  -20.2212   -9.9048 C   0  0  0  0  0  0  0  0  0  0  0  0
   26.4309  -20.3208  -11.2458 C   0  0  0  0  0  0  0  0  0  0  0  0
   25.6630  -21.5535  -11.5866 C   0  0  2  0  0  0  0  0  0  0  0  0
   26.5635  -22.6147  -11.9940 N   0  0  0  0  0  0  0  0  0  0  0  0
   24.5446  -21.3629  -12.5184 C   0  0  0  0  0  0  0  0  0  0  0  0
   24.8385  -21.3166  -13.7528 O   0  0  0  0  0  0  0  0  0  0  0  0
   28.2500  -20.6178   -9.5674 C   0  0  0  0  0  0  0  0  0  0  0  0
   28.7527  -20.5222   -8.2914 C   0  0  0  0  0  0  0  0  0  0  0  0
   21.5363  -23.7366  -13.1245 N   0  0  0  0  0  0  0  0  0  0  0  0
   20.5414  -22.8841  -12.6067 C   0  0  0  0  0  0  0  0  0  0  0  0
   19.4824  -23.3633  -12.1619 O   0  0  0  0  0  0  0  0  0  0  0  0
   20.7571  -21.4283  -12.5925 C   0  0  0  0  0  0  0  0  0  0  0  0
   22.1156  -21.0593  -13.1303 C   0  0  2  0  0  0  0  0  0  0  0  0
   23.1814  -21.2260  -12.1799 N   0  0  0  0  0  0  0  0  0  0  0  0
   22.0317  -19.6739  -13.6531 C   0  0  0  0  0  0  0  0  0  0  0  0
   21.9782  -18.7339  -12.8270 O   0  0  0  0  0  0  0  0  0  0  0  0
   22.0101  -19.3647  -15.0305 N   0  0  0  0  0  0  0  0  0  0  0  0
   21.8654  -18.0161  -15.5537 C   0  0  1  0  0  0  0  0  0  0  0  0
   22.6051  -18.0149  -16.8838 C   0  0  0  0  0  0  0  0  0  0  0  0
   22.6172  -16.6981  -17.5761 C   0  0  0  0  0  0  0  0  0  0  0  0
   23.3349  -16.8166  -18.8929 C   0  0  0  0  0  0  0  0  0  0  0  0
   23.4606  -15.5073  -19.6310 C   0  0  0  0  0  0  0  0  0  0  0  0
   24.0327  -15.7845  -20.9391 N   0  0  0  0  0  0  0  0  0  0  0  0
   20.4480  -17.6563  -15.7425 C   0  0  0  0  0  0  0  0  0  0  0  0
   19.5506  -18.4826  -16.0173 O   0  0  0  0  0  0  0  0  0  0  0  0
   20.0921  -16.3160  -15.6045 O   0  0  0  0  0  0  0  0  0  0  0  0
  2  1  1  0
  3  2  2  0
  4  3  1  0
  5  4  2  0
  5 11  1  0
  6  5  1  0
  7  6  1  0
  7  9  1  0
  7  8  1  6
  9 10  2  0
 11 12  2  0
 12  2  1  0
 13 14  1  0
 14 16  1  0
 14 15  2  0
 17 16  1  1
 18 17  1  0
 18  9  1  0
 19 17  1  0
 19 20  2  0
 21 19  1  0
 22 21  1  0
 22 28  1  0
 22 23  1  6
 24 23  1  0
 25 24  1  0
 26 25  1  0
 26 27  1  0
 28 29  2  0
 28 30  1  0
M  END
$$$$
