YNK.pdb
     RDKit          3D

 30 30  0  0  1  0  0  0  0  0999 V2000
   23.5134   -1.8713  -14.3070 O   0  0  0  0  0  0  0  0  0  0  0  0
   23.1096   -3.2018  -14.4159 C   0  0  0  0  0  0  0  0  0  0  0  0
   23.4520   -3.9866  -15.4949 C   0  0  0  0  0  0  0  0  0  0  0  0
   23.0452   -5.3126  -15.5958 C   0  0  0  0  0  0  0  0  0  0  0  0
   22.2764   -5.8919  -14.6072 C   0  0  0  0  0  0  0  0  0  0  0  0
   21.8600   -7.2745  -14.7335 C   0  0  0  0  0  0  0  0  0  0  0  0
   20.5074   -7.5347  -15.3065 C   0  0  2  0  0  0  0  0  0  0  0  0
   19.4752   -7.0765  -14.3967 N   0  0  0  0  0  0  0  0  0  0  0  0
   20.2788   -8.9023  -15.7890 C   0  0  0  0  0  0  0  0  0  0  0  0
   19.6544   -9.6818  -15.0050 O   0  0  0  0  0  0  0  0  0  0  0  0
   21.9429   -5.0906  -13.5342 C   0  0  0  0  0  0  0  0  0  0  0  0
   22.3403   -3.7791  -13.4255 C   0  0  0  0  0  0  0  0  0  0  0  0
   17.2705  -12.1719  -19.1373 N   0  0  0  0  0  0  0  0  0  0  0  0
   18.2158  -12.0564  -18.0991 C   0  0  0  0  0  0  0  0  0  0  0  0
   18.6558  -13.0789  -17.5427 O   0  0  0  0  0  0  0  0  0  0  0  0
   18.6814  -10.7261  -17.6753 C   0  0  0  0  0  0  0  0  0  0  0  0
   20.1849  -10.6585  -17.5983 C   0  0  2  0  0  0  0  0  0  0  0  0
   20.6829   -9.4345  -17.0321 N   0  0  0  0  0  0  0  0  0  0  0  0
   20.7172  -10.9134  -18.9590 C   0  0  0  0  0  0  0  0  0  0  0  0
   20.6620   -9.9846  -19.7976 O   0  0  0  0  0  0  0  0  0  0  0  0
   21.2815  -12.1462  -19.3526 N   0  0  0  0  0  0  0  0  0  0  0  0
   21.8972  -12.3756  -20.6494 C   0  0  1  0  0  0  0  0  0  0  0  0
   22.4664  -13.7856  -20.5851 C   0  0  0  0  0  0  0  0  0  0  0  0
   21.6819  -14.7975  -21.3428 C   0  0  0  0  0  0  0  0  0  0  0  0
   22.3927  -16.1230  -21.3172 C   0  0  0  0  0  0  0  0  0  0  0  0
   21.6442  -17.2223  -22.0287 C   0  0  0  0  0  0  0  0  0  0  0  0
   22.4396  -18.4366  -21.9372 N   0  0  0  0  0  0  0  0  0  0  0  0
   20.9170  -12.2561  -21.7445 C   0  0  0  0  0  0  0  0  0  0  0  0
   19.7385  -12.6677  -21.6719 O   0  0  0  0  0  0  0  0  0  0  0  0
   21.3325  -11.6473  -22.9271 O   0  0  0  0  0  0  0  0  0  0  0  0
  2  1  1  0
  3  2  2  0
  4  3  1  0
  5  4  2  0
  5 11  1  0
  6  5  1  0
  7  6  1  0
  7  9  1  0
  7  8  1  1
  9 10  2  0
 11 12  2  0
 12  2  1  0
 13 14  1  0
 14 16  1  0
 14 15  2  0
 17 16  1  6
 18 17  1  0
 18  9  1  0
 19 17  1  0
 19 20  2  0
 21 19  1  0
 22 21  1  0
 22 28  1  0
 22 23  1  1
 24 23  1  0
 25 24  1  0
 26 25  1  0
 26 27  1  0
 28 29  2  0
 28 30  1  0
M  END
$$$$
