YNK.pdb
     RDKit          3D

 30 30  0  0  1  0  0  0  0  0999 V2000
   25.0065  -21.5057   -8.9052 O   0  0  0  0  0  0  0  0  0  0  0  0
   24.2805  -21.2194  -10.0610 C   0  0  0  0  0  0  0  0  0  0  0  0
   23.0060  -21.7002  -10.2651 C   0  0  0  0  0  0  0  0  0  0  0  0
   22.2888  -21.4099  -11.4206 C   0  0  0  0  0  0  0  0  0  0  0  0
   22.8370  -20.6220  -12.4120 C   0  0  0  0  0  0  0  0  0  0  0  0
   22.0739  -20.3343  -13.6103 C   0  0  0  0  0  0  0  0  0  0  0  0
   21.1838  -19.1374  -13.5867 C   0  0  2  0  0  0  0  0  0  0  0  0
   20.1894  -19.2664  -12.5390 N   0  0  0  0  0  0  0  0  0  0  0  0
   20.6051  -18.7557  -14.8808 C   0  0  0  0  0  0  0  0  0  0  0  0
   19.5848  -19.4099  -15.2592 O   0  0  0  0  0  0  0  0  0  0  0  0
   24.1146  -20.1495  -12.1904 C   0  0  0  0  0  0  0  0  0  0  0  0
   24.8313  -20.4309  -11.0516 C   0  0  0  0  0  0  0  0  0  0  0  0
   18.8992  -15.6067  -15.6319 N   0  0  0  0  0  0  0  0  0  0  0  0
   19.7910  -15.0586  -16.5747 C   0  0  0  0  0  0  0  0  0  0  0  0
   19.8594  -13.8245  -16.7211 O   0  0  0  0  0  0  0  0  0  0  0  0
   20.6406  -15.9469  -17.3841 C   0  0  0  0  0  0  0  0  0  0  0  0
   20.4627  -17.3932  -16.9998 C   0  0  2  0  0  0  0  0  0  0  0  0
   21.0685  -17.7387  -15.7426 N   0  0  0  0  0  0  0  0  0  0  0  0
   20.9676  -18.2223  -18.1211 C   0  0  0  0  0  0  0  0  0  0  0  0
   22.1802  -18.5363  -18.1231 O   0  0  0  0  0  0  0  0  0  0  0  0
   20.1512  -18.6734  -19.1809 N   0  0  0  0  0  0  0  0  0  0  0  0
   20.6360  -19.4853  -20.2852 C   0  0  1  0  0  0  0  0  0  0  0  0
   19.5185  -20.4744  -20.5834 C   0  0  0  0  0  0  0  0  0  0  0  0
   19.8437  -21.4628  -21.6467 C   0  0  0  0  0  0  0  0  0  0  0  0
   18.7000  -22.4243  -21.8214 C   0  0  0  0  0  0  0  0  0  0  0  0
   18.9846  -23.5262  -22.8112 C   0  0  0  0  0  0  0  0  0  0  0  0
   17.9168  -24.5082  -22.7064 N   0  0  0  0  0  0  0  0  0  0  0  0
   20.9381  -18.6632  -21.4714 C   0  0  0  0  0  0  0  0  0  0  0  0
   20.5338  -17.4902  -21.6269 O   0  0  0  0  0  0  0  0  0  0  0  0
   21.7211  -19.2306  -22.4749 O   0  0  0  0  0  0  0  0  0  0  0  0
  2  1  1  0
  3  2  2  0
  4  3  1  0
  5  4  2  0
  5 11  1  0
  6  5  1  0
  7  6  1  0
  7  9  1  0
  7  8  1  1
  9 10  2  0
 11 12  2  0
 12  2  1  0
 13 14  1  0
 14 16  1  0
 14 15  2  0
 17 16  1  6
 18 17  1  0
 18  9  1  0
 19 17  1  0
 19 20  2  0
 21 19  1  0
 22 21  1  0
 22 28  1  0
 22 23  1  6
 24 23  1  0
 25 24  1  0
 26 25  1  0
 26 27  1  0
 28 29  2  0
 28 30  1  0
M  END
$$$$
