YNK.pdb
     RDKit          3D

 30 30  0  0  1  0  0  0  0  0999 V2000
   43.2899  -22.5133   -6.5958 O   0  0  0  0  0  0  0  0  0  0  0  0
   43.3360  -21.5058   -7.5591 C   0  0  0  0  0  0  0  0  0  0  0  0
   44.3487  -20.5729   -7.5975 C   0  0  0  0  0  0  0  0  0  0  0  0
   44.3873  -19.5714   -8.5615 C   0  0  0  0  0  0  0  0  0  0  0  0
   43.4009  -19.4782   -9.5219 C   0  0  0  0  0  0  0  0  0  0  0  0
   43.4580  -18.4245  -10.5156 C   0  0  0  0  0  0  0  0  0  0  0  0
   43.5589  -18.8348  -11.9464 C   0  0  2  0  0  0  0  0  0  0  0  0
   44.6132  -19.8155  -12.1188 N   0  0  0  0  0  0  0  0  0  0  0  0
   43.6377  -17.7339  -12.9145 C   0  0  0  0  0  0  0  0  0  0  0  0
   44.3766  -17.9248  -13.9292 O   0  0  0  0  0  0  0  0  0  0  0  0
   42.3945  -20.4210   -9.4678 C   0  0  0  0  0  0  0  0  0  0  0  0
   42.3478  -21.4146   -8.5190 C   0  0  0  0  0  0  0  0  0  0  0  0
   43.0395  -13.6544  -15.8953 N   0  0  0  0  0  0  0  0  0  0  0  0
   42.5734  -14.9412  -16.2297 C   0  0  0  0  0  0  0  0  0  0  0  0
   42.2430  -15.1972  -17.4020 O   0  0  0  0  0  0  0  0  0  0  0  0
   42.4789  -15.9802  -15.1916 C   0  0  0  0  0  0  0  0  0  0  0  0
   42.9846  -15.4876  -13.8602 C   0  0  2  0  0  0  0  0  0  0  0  0
   42.9770  -16.4897  -12.8293 N   0  0  0  0  0  0  0  0  0  0  0  0
   42.1923  -14.2887  -13.4934 C   0  0  0  0  0  0  0  0  0  0  0  0
   40.9553  -14.3168  -13.6883 O   0  0  0  0  0  0  0  0  0  0  0  0
   42.7622  -13.1230  -12.9369 N   0  0  0  0  0  0  0  0  0  0  0  0
   41.9826  -12.0156  -12.4083 C   0  0  1  0  0  0  0  0  0  0  0  0
   42.5221  -11.7719  -11.0062 C   0  0  0  0  0  0  0  0  0  0  0  0
   41.8696  -10.6449  -10.2868 C   0  0  0  0  0  0  0  0  0  0  0  0
   42.4997  -10.4665   -8.9325 C   0  0  0  0  0  0  0  0  0  0  0  0
   41.8134   -9.4284   -8.0803 C   0  0  0  0  0  0  0  0  0  0  0  0
   42.5128   -9.3618   -6.8068 N   0  0  0  0  0  0  0  0  0  0  0  0
   42.1230  -10.8068  -13.2409 C   0  0  0  0  0  0  0  0  0  0  0  0
   43.0150  -10.6557  -14.1041 O   0  0  0  0  0  0  0  0  0  0  0  0
   41.2052   -9.7754  -13.0518 O   0  0  0  0  0  0  0  0  0  0  0  0
  2  1  1  0
  3  2  2  0
  4  3  1  0
  5  4  2  0
  5 11  1  0
  6  5  1  0
  7  6  1  0
  7  9  1  0
  7  8  1  1
  9 10  2  0
 11 12  2  0
 12  2  1  0
 13 14  1  0
 14 16  1  0
 14 15  2  0
 17 16  1  6
 18 17  1  0
 18  9  1  0
 19 17  1  0
 19 20  2  0
 21 19  1  0
 22 21  1  0
 22 28  1  0
 22 23  1  1
 24 23  1  0
 25 24  1  0
 26 25  1  0
 26 27  1  0
 28 29  2  0
 28 30  1  0
M  END
$$$$
