YNK.pdb
     RDKit          3D

 30 30  0  0  1  0  0  0  0  0999 V2000
   21.8636  -16.9016  -25.8553 O   0  0  0  0  0  0  0  0  0  0  0  0
   22.1853  -16.4316  -24.5822 C   0  0  0  0  0  0  0  0  0  0  0  0
   22.8258  -17.2176  -23.6499 C   0  0  0  0  0  0  0  0  0  0  0  0
   23.1430  -16.7411  -22.3825 C   0  0  0  0  0  0  0  0  0  0  0  0
   22.8225  -15.4508  -22.0133 C   0  0  0  0  0  0  0  0  0  0  0  0
   23.1589  -14.9749  -20.6861 C   0  0  0  0  0  0  0  0  0  0  0  0
   24.4776  -14.2992  -20.5127 C   0  0  2  0  0  0  0  0  0  0  0  0
   25.5528  -15.1659  -20.9553 N   0  0  0  0  0  0  0  0  0  0  0  0
   24.7198  -13.7189  -19.1860 C   0  0  0  0  0  0  0  0  0  0  0  0
   25.4288  -14.4070  -18.3885 O   0  0  0  0  0  0  0  0  0  0  0  0
   22.1810  -14.6781  -22.9599 C   0  0  0  0  0  0  0  0  0  0  0  0
   21.8635  -15.1401  -24.2151 C   0  0  0  0  0  0  0  0  0  0  0  0
   26.8881   -9.9491  -15.6515 N   0  0  0  0  0  0  0  0  0  0  0  0
   26.3359  -11.2299  -15.8503 C   0  0  0  0  0  0  0  0  0  0  0  0
   26.0944  -11.9610  -14.8726 O   0  0  0  0  0  0  0  0  0  0  0  0
   26.0452  -11.7000  -17.2143 C   0  0  0  0  0  0  0  0  0  0  0  0
   24.5690  -11.9145  -17.4288 C   0  0  2  0  0  0  0  0  0  0  0  0
   24.2444  -12.4780  -18.7110 N   0  0  0  0  0  0  0  0  0  0  0  0
   23.8863  -10.6201  -17.1873 C   0  0  0  0  0  0  0  0  0  0  0  0
   24.0596   -9.6980  -18.0172 O   0  0  0  0  0  0  0  0  0  0  0  0
   23.0538  -10.3785  -16.0730 N   0  0  0  0  0  0  0  0  0  0  0  0
   22.3197   -9.1408  -15.8661 C   0  0  1  0  0  0  0  0  0  0  0  0
   21.4296   -9.3936  -14.6578 C   0  0  0  0  0  0  0  0  0  0  0  0
   20.5529   -8.2483  -14.2932 C   0  0  0  0  0  0  0  0  0  0  0  0
   19.5928   -8.6604  -13.2109 C   0  0  0  0  0  0  0  0  0  0  0  0
   18.5708   -7.6027  -12.8767 C   0  0  0  0  0  0  0  0  0  0  0  0
   17.5462   -8.2172  -12.0472 N   0  0  0  0  0  0  0  0  0  0  0  0
   23.2280   -8.0058  -15.6191 C   0  0  0  0  0  0  0  0  0  0  0  0
   24.3188   -8.1055  -15.0158 O   0  0  0  0  0  0  0  0  0  0  0  0
   22.8448   -6.7508  -16.0881 O   0  0  0  0  0  0  0  0  0  0  0  0
  2  1  1  0
  3  2  2  0
  4  3  1  0
  5  4  2  0
  5 11  1  0
  6  5  1  0
  7  6  1  0
  7  9  1  0
  7  8  1  1
  9 10  2  0
 11 12  2  0
 12  2  1  0
 13 14  1  0
 14 16  1  0
 14 15  2  0
 17 16  1  6
 18 17  1  0
 18  9  1  0
 19 17  1  0
 19 20  2  0
 21 19  1  0
 22 21  1  0
 22 28  1  0
 22 23  1  1
 24 23  1  0
 25 24  1  0
 26 25  1  0
 26 27  1  0
 28 29  2  0
 28 30  1  0
M  END
$$$$
