YNK.pdb
     RDKit          3D

 30 30  0  0  1  0  0  0  0  0999 V2000
   31.2817  -21.7011  -10.5554 O   0  0  0  0  0  0  0  0  0  0  0  0
   29.9672  -21.3194  -10.8226 C   0  0  0  0  0  0  0  0  0  0  0  0
   28.9605  -21.4537   -9.8921 C   0  0  0  0  0  0  0  0  0  0  0  0
   27.6521  -21.0706  -10.1666 C   0  0  0  0  0  0  0  0  0  0  0  0
   27.3158  -20.5377  -11.3941 C   0  0  0  0  0  0  0  0  0  0  0  0
   25.9454  -20.1480  -11.6611 C   0  0  0  0  0  0  0  0  0  0  0  0
   24.9668  -21.2355  -11.9528 C   0  0  2  0  0  0  0  0  0  0  0  0
   25.5059  -22.1506  -12.9402 N   0  0  0  0  0  0  0  0  0  0  0  0
   23.6042  -20.7900  -12.2695 C   0  0  0  0  0  0  0  0  0  0  0  0
   23.1228  -19.8747  -11.5328 O   0  0  0  0  0  0  0  0  0  0  0  0
   28.3370  -20.4109  -12.3137 C   0  0  0  0  0  0  0  0  0  0  0  0
   29.6331  -20.7865  -12.0517 C   0  0  0  0  0  0  0  0  0  0  0  0
   20.9914  -17.8040  -14.4830 N   0  0  0  0  0  0  0  0  0  0  0  0
   21.7126  -18.9328  -14.9196 C   0  0  0  0  0  0  0  0  0  0  0  0
   22.8576  -18.7958  -15.3877 O   0  0  0  0  0  0  0  0  0  0  0  0
   21.1101  -20.2719  -14.8205 C   0  0  0  0  0  0  0  0  0  0  0  0
   21.3995  -20.9178  -13.4900 C   0  0  2  0  0  0  0  0  0  0  0  0
   22.7796  -21.2763  -13.3064 N   0  0  0  0  0  0  0  0  0  0  0  0
   20.4866  -22.0777  -13.3447 C   0  0  0  0  0  0  0  0  0  0  0  0
   20.7005  -23.0890  -14.0522 O   0  0  0  0  0  0  0  0  0  0  0  0
   19.3939  -22.0974  -12.4510 N   0  0  0  0  0  0  0  0  0  0  0  0
   18.4802  -23.2201  -12.3165 C   0  0  1  0  0  0  0  0  0  0  0  0
   18.1227  -23.2781  -10.8383 C   0  0  0  0  0  0  0  0  0  0  0  0
   18.5864  -24.5098  -10.1444 C   0  0  0  0  0  0  0  0  0  0  0  0
   18.2821  -24.4165   -8.6742 C   0  0  0  0  0  0  0  0  0  0  0  0
   18.8746  -25.5419   -7.8633 C   0  0  0  0  0  0  0  0  0  0  0  0
   18.6832  -25.2280   -6.4561 N   0  0  0  0  0  0  0  0  0  0  0  0
   17.2712  -23.0377  -13.1408 C   0  0  0  0  0  0  0  0  0  0  0  0
   16.6135  -23.9818  -13.6306 O   0  0  0  0  0  0  0  0  0  0  0  0
   16.8396  -21.7354  -13.3849 O   0  0  0  0  0  0  0  0  0  0  0  0
  2  1  1  0
  3  2  2  0
  4  3  1  0
  5  4  2  0
  5 11  1  0
  6  5  1  0
  7  6  1  0
  7  9  1  0
  7  8  1  6
  9 10  2  0
 11 12  2  0
 12  2  1  0
 13 14  1  0
 14 16  1  0
 14 15  2  0
 17 16  1  6
 18 17  1  0
 18  9  1  0
 19 17  1  0
 19 20  2  0
 21 19  1  0
 22 21  1  0
 22 28  1  0
 22 23  1  1
 24 23  1  0
 25 24  1  0
 26 25  1  0
 26 27  1  0
 28 29  2  0
 28 30  1  0
M  END
$$$$
