CTK.pdb
     RDKit          3D

 23 22  0  0  1  0  0  0  0  0999 V2000
   25.7999  -15.0494  -16.3499 N   0  0  0  0  0  0  0  0  0  0  0  0
   24.8125  -14.1353  -16.8360 C   0  0  1  0  0  0  0  0  0  0  0  0
   23.4579  -14.7917  -16.9944 C   0  0  0  0  0  0  0  0  0  0  0  0
   23.6098  -16.0978  -18.2570 S   0  0  0  0  0  0  0  0  0  0  0  0
   24.6978  -12.9218  -15.9713 C   0  0  0  0  0  0  0  0  0  0  0  0
   24.5819  -13.0714  -14.7275 O   0  0  0  0  0  0  0  0  0  0  0  0
   26.9840  -10.3705  -15.5301 C   0  0  0  0  0  0  0  0  0  0  0  0
   25.7584   -9.5406  -15.9279 C   0  0  1  0  0  0  0  0  0  0  0  0
   25.8676   -9.3200  -17.2966 O   0  0  0  0  0  0  0  0  0  0  0  0
   24.5493  -10.4329  -15.6468 C   0  0  2  0  0  0  0  0  0  0  0  0
   24.7128  -11.6097  -16.4807 N   0  0  0  0  0  0  0  0  0  0  0  0
   23.2812   -9.7246  -15.9367 C   0  0  0  0  0  0  0  0  0  0  0  0
   22.7012   -9.9676  -17.0266 O   0  0  0  0  0  0  0  0  0  0  0  0
   22.7374   -8.7981  -15.0096 N   0  0  0  0  0  0  0  0  0  0  0  0
   21.5181   -8.0778  -15.2946 C   0  0  1  0  0  0  0  0  0  0  0  0
   20.4547   -9.0686  -15.5728 C   0  0  0  0  0  0  0  0  0  0  0  0
   19.0847   -8.5456  -15.7836 C   0  0  0  0  0  0  0  0  0  0  0  0
   18.0651   -9.6378  -16.0550 C   0  0  0  0  0  0  0  0  0  0  0  0
   16.7068   -9.0157  -16.3553 C   0  0  0  0  0  0  0  0  0  0  0  0
   15.7581  -10.1086  -16.4598 N   0  0  0  0  0  0  0  0  0  0  0  0
   21.2693   -7.1095  -14.2496 C   0  0  0  0  0  0  0  0  0  0  0  0
   20.4684   -6.1407  -14.3071 O   0  0  0  0  0  0  0  0  0  0  0  0
   21.9619   -7.2263  -13.0514 O   0  0  0  0  0  0  0  0  0  0  0  0
  2  1  1  1
  2  3  1  0
  4  3  1  0
  5  2  1  0
  5  6  2  0
  8  7  1  6
  8 10  1  0
  9  8  1  0
 10 11  1  6
 10 12  1  0
 11  5  1  0
 12 14  1  0
 13 12  2  0
 14 15  1  0
 15 21  1  0
 16 17  1  0
 15 16  1  1
 18 19  1  0
 18 17  1  0
 20 19  1  0
 21 22  2  0
 21 23  1  0
M  END
$$$$
