CTK.pdb
     RDKit          3D

 23 22  0  0  1  0  0  0  0  0999 V2000
   26.2040  -14.3584  -18.8533 N   0  0  0  0  0  0  0  0  0  0  0  0
   25.5760  -13.1001  -19.1160 C   0  0  1  0  0  0  0  0  0  0  0  0
   24.5206  -13.2050  -20.1957 C   0  0  0  0  0  0  0  0  0  0  0  0
   25.3675  -13.4884  -21.7849 S   0  0  0  0  0  0  0  0  0  0  0  0
   24.9896  -12.4973  -17.8807 C   0  0  0  0  0  0  0  0  0  0  0  0
   24.3990  -13.2469  -17.0608 O   0  0  0  0  0  0  0  0  0  0  0  0
   26.7435  -11.0831  -15.3930 C   0  0  0  0  0  0  0  0  0  0  0  0
   25.7728   -9.9253  -15.6499 C   0  0  1  0  0  0  0  0  0  0  0  0
   26.4230   -9.0614  -16.5244 O   0  0  0  0  0  0  0  0  0  0  0  0
   24.5647  -10.5494  -16.3485 C   0  0  2  0  0  0  0  0  0  0  0  0
   25.0645  -11.1233  -17.5846 N   0  0  0  0  0  0  0  0  0  0  0  0
   23.5088   -9.5409  -16.5971 C   0  0  0  0  0  0  0  0  0  0  0  0
   23.5902   -8.8408  -17.6394 O   0  0  0  0  0  0  0  0  0  0  0  0
   22.4362   -9.3709  -15.6837 N   0  0  0  0  0  0  0  0  0  0  0  0
   21.3956   -8.3972  -15.9198 C   0  0  1  0  0  0  0  0  0  0  0  0
   20.1077   -8.9908  -15.4964 C   0  0  0  0  0  0  0  0  0  0  0  0
   19.5769  -10.1044  -16.3167 C   0  0  0  0  0  0  0  0  0  0  0  0
   18.3254  -10.7330  -15.7296 C   0  0  0  0  0  0  0  0  0  0  0  0
   17.7816  -11.7914  -16.6815 C   0  0  0  0  0  0  0  0  0  0  0  0
   16.6959  -12.4607  -15.9896 N   0  0  0  0  0  0  0  0  0  0  0  0
   21.7710   -7.1309  -15.3305 C   0  0  0  0  0  0  0  0  0  0  0  0
   22.6086   -6.9581  -14.4075 O   0  0  0  0  0  0  0  0  0  0  0  0
   21.1712   -5.9704  -15.8019 O   0  0  0  0  0  0  0  0  0  0  0  0
  2  1  1  1
  2  3  1  0
  4  3  1  0
  5  2  1  0
  5  6  2  0
  8  7  1  6
  8 10  1  0
  9  8  1  0
 10 11  1  6
 10 12  1  0
 11  5  1  0
 12 14  1  0
 13 12  2  0
 14 15  1  0
 15 21  1  0
 16 17  1  0
 15 16  1  1
 18 19  1  0
 18 17  1  0
 20 19  1  0
 21 22  2  0
 21 23  1  0
M  END
$$$$
