CTK.pdb
     RDKit          3D

 23 22  0  0  1  0  0  0  0  0999 V2000
   27.8853  -24.9914  -16.5148 N   0  0  0  0  0  0  0  0  0  0  0  0
   26.5636  -24.6265  -16.9231 C   0  0  1  0  0  0  0  0  0  0  0  0
   25.8022  -25.7996  -17.5019 C   0  0  0  0  0  0  0  0  0  0  0  0
   26.1017  -25.8330  -19.2997 S   0  0  0  0  0  0  0  0  0  0  0  0
   25.7837  -24.0065  -15.8092 C   0  0  0  0  0  0  0  0  0  0  0  0
   25.9196  -24.4639  -14.6451 O   0  0  0  0  0  0  0  0  0  0  0  0
   25.8256  -20.5167  -14.8568 C   0  0  0  0  0  0  0  0  0  0  0  0
   24.3373  -20.7955  -15.0939 C   0  0  1  0  0  0  0  0  0  0  0  0
   24.0860  -20.4561  -16.4188 O   0  0  0  0  0  0  0  0  0  0  0  0
   24.1674  -22.3035  -14.9093 C   0  0  2  0  0  0  0  0  0  0  0  0
   24.8980  -22.9287  -15.9968 N   0  0  0  0  0  0  0  0  0  0  0  0
   22.7367  -22.6867  -14.9153 C   0  0  0  0  0  0  0  0  0  0  0  0
   22.2505  -23.1494  -15.9797 O   0  0  0  0  0  0  0  0  0  0  0  0
   21.9385  -22.5353  -13.7519 N   0  0  0  0  0  0  0  0  0  0  0  0
   20.5231  -22.8236  -13.7691 C   0  0  1  0  0  0  0  0  0  0  0  0
   20.2280  -23.7390  -12.6444 C   0  0  0  0  0  0  0  0  0  0  0  0
   18.8316  -24.2159  -12.5121 C   0  0  0  0  0  0  0  0  0  0  0  0
   18.6487  -25.2195  -11.3873 C   0  0  0  0  0  0  0  0  0  0  0  0
   17.1854  -25.6352  -11.2966 C   0  0  0  0  0  0  0  0  0  0  0  0
   17.0822  -26.5704  -10.1919 N   0  0  0  0  0  0  0  0  0  0  0  0
   19.7754  -21.5874  -13.8355 C   0  0  0  0  0  0  0  0  0  0  0  0
   20.1756  -20.4539  -13.4637 O   0  0  0  0  0  0  0  0  0  0  0  0
   18.4870  -21.6126  -14.3536 O   0  0  0  0  0  0  0  0  0  0  0  0
  2  1  1  1
  2  3  1  0
  4  3  1  0
  5  2  1  0
  5  6  2  0
  8  7  1  6
  8 10  1  0
  9  8  1  0
 10 11  1  6
 10 12  1  0
 11  5  1  0
 12 14  1  0
 13 12  2  0
 14 15  1  0
 15 21  1  0
 16 17  1  0
 15 16  1  1
 18 19  1  0
 18 17  1  0
 20 19  1  0
 21 22  2  0
 21 23  1  0
M  END
$$$$
