CTK.pdb
     RDKit          3D

 23 22  0  0  1  0  0  0  0  0999 V2000
   28.1101  -21.0827  -10.6222 N   0  0  0  0  0  0  0  0  0  0  0  0
   26.7665  -20.8573  -10.1852 C   0  0  1  0  0  0  0  0  0  0  0  0
   26.7089  -19.9922   -8.9447 C   0  0  0  0  0  0  0  0  0  0  0  0
   27.8676  -20.6860   -7.7204 S   0  0  0  0  0  0  0  0  0  0  0  0
   25.9177  -20.2666  -11.2640 C   0  0  0  0  0  0  0  0  0  0  0  0
   25.5759  -19.0591  -11.1747 O   0  0  0  0  0  0  0  0  0  0  0  0
   26.6410  -19.3732  -14.2990 C   0  0  0  0  0  0  0  0  0  0  0  0
   25.4983  -20.3247  -14.6701 C   0  0  1  0  0  0  0  0  0  0  0  0
   26.0894  -21.5554  -14.9343 O   0  0  0  0  0  0  0  0  0  0  0  0
   24.6292  -20.4312  -13.4169 C   0  0  2  0  0  0  0  0  0  0  0  0
   25.4773  -20.9971  -12.3837 N   0  0  0  0  0  0  0  0  0  0  0  0
   23.4313  -21.2665  -13.6645 C   0  0  0  0  0  0  0  0  0  0  0  0
   23.4957  -22.4929  -13.3906 O   0  0  0  0  0  0  0  0  0  0  0  0
   22.2450  -20.6972  -14.1958 N   0  0  0  0  0  0  0  0  0  0  0  0
   21.0811  -21.5070  -14.4715 C   0  0  1  0  0  0  0  0  0  0  0  0
   20.4499  -21.8574  -13.1796 C   0  0  0  0  0  0  0  0  0  0  0  0
   19.2975  -22.7873  -13.2228 C   0  0  0  0  0  0  0  0  0  0  0  0
   18.6865  -23.0430  -11.8563 C   0  0  0  0  0  0  0  0  0  0  0  0
   17.4571  -23.9325  -11.9965 C   0  0  0  0  0  0  0  0  0  0  0  0
   16.9698  -24.1902  -10.6543 N   0  0  0  0  0  0  0  0  0  0  0  0
   20.2545  -20.8507  -15.4602 C   0  0  0  0  0  0  0  0  0  0  0  0
   20.2746  -19.6274  -15.7545 O   0  0  0  0  0  0  0  0  0  0  0  0
   19.3374  -21.6100  -16.1753 O   0  0  0  0  0  0  0  0  0  0  0  0
  2  1  1  6
  2  3  1  0
  4  3  1  0
  5  2  1  0
  5  6  2  0
  8  7  1  1
  8 10  1  0
  9  8  1  0
 10 11  1  1
 10 12  1  0
 11  5  1  0
 12 14  1  0
 13 12  2  0
 14 15  1  0
 15 21  1  0
 16 17  1  0
 15 16  1  1
 18 19  1  0
 18 17  1  0
 20 19  1  0
 21 22  2  0
 21 23  1  0
M  END
$$$$
