CTK.pdb
     RDKit          3D

 23 22  0  0  1  0  0  0  0  0999 V2000
   18.4536  -15.0063  -17.7446 N   0  0  0  0  0  0  0  0  0  0  0  0
   18.6388  -13.9701  -16.7757 C   0  0  1  0  0  0  0  0  0  0  0  0
   19.1247  -14.5119  -15.4485 C   0  0  0  0  0  0  0  0  0  0  0  0
   17.7102  -15.2989  -14.6102 S   0  0  0  0  0  0  0  0  0  0  0  0
   19.5638  -12.9034  -17.2653 C   0  0  0  0  0  0  0  0  0  0  0  0
   20.6103  -13.2411  -17.8766 O   0  0  0  0  0  0  0  0  0  0  0  0
   18.7514  -10.3154  -19.5651 C   0  0  0  0  0  0  0  0  0  0  0  0
   19.2821   -9.5246  -18.3642 C   0  0  1  0  0  0  0  0  0  0  0  0
   18.1735   -9.2144  -17.5842 O   0  0  0  0  0  0  0  0  0  0  0  0
   20.1898  -10.4919  -17.6042 C   0  0  2  0  0  0  0  0  0  0  0  0
   19.3229  -11.5296  -17.0763 N   0  0  0  0  0  0  0  0  0  0  0  0
   20.9339   -9.7963  -16.5289 C   0  0  0  0  0  0  0  0  0  0  0  0
   20.4826   -9.8624  -15.3562 O   0  0  0  0  0  0  0  0  0  0  0  0
   22.1225   -9.0761  -16.8156 N   0  0  0  0  0  0  0  0  0  0  0  0
   22.8690   -8.4125  -15.7721 C   0  0  1  0  0  0  0  0  0  0  0  0
   24.3106   -8.5947  -16.0530 C   0  0  0  0  0  0  0  0  0  0  0  0
   24.8838   -9.9356  -15.7921 C   0  0  0  0  0  0  0  0  0  0  0  0
   26.3629  -10.0262  -16.1237 C   0  0  0  0  0  0  0  0  0  0  0  0
   26.8454  -11.4615  -15.9524 C   0  0  0  0  0  0  0  0  0  0  0  0
   28.2445  -11.4830  -16.3368 N   0  0  0  0  0  0  0  0  0  0  0  0
   22.3872   -7.0579  -15.6150 C   0  0  0  0  0  0  0  0  0  0  0  0
   21.7397   -6.3942  -16.4657 O   0  0  0  0  0  0  0  0  0  0  0  0
   22.6438   -6.3912  -14.4240 O   0  0  0  0  0  0  0  0  0  0  0  0
  2  1  1  6
  2  3  1  0
  4  3  1  0
  5  2  1  0
  5  6  2  0
  8  7  1  6
  8 10  1  0
  9  8  1  0
 10 11  1  1
 10 12  1  0
 11  5  1  0
 12 14  1  0
 13 12  2  0
 14 15  1  0
 15 21  1  0
 16 17  1  0
 15 16  1  6
 18 19  1  0
 18 17  1  0
 20 19  1  0
 21 22  2  0
 21 23  1  0
M  END
$$$$
