CTK.pdb
     RDKit          3D

 23 22  0  0  1  0  0  0  0  0999 V2000
   27.0631  -21.5330  -10.2395 N   0  0  0  0  0  0  0  0  0  0  0  0
   25.7171  -21.2495  -10.6326 C   0  0  1  0  0  0  0  0  0  0  0  0
   24.9634  -20.4802   -9.5692 C   0  0  0  0  0  0  0  0  0  0  0  0
   24.7648  -21.5694   -8.1211 S   0  0  0  0  0  0  0  0  0  0  0  0
   25.6552  -20.5205  -11.9357 C   0  0  0  0  0  0  0  0  0  0  0  0
   26.6776  -19.9072  -12.3374 O   0  0  0  0  0  0  0  0  0  0  0  0
   26.7816  -20.7301  -14.2827 C   0  0  0  0  0  0  0  0  0  0  0  0
   25.3944  -20.8191  -14.9281 C   0  0  1  0  0  0  0  0  0  0  0  0
   24.9917  -22.1440  -14.7997 O   0  0  0  0  0  0  0  0  0  0  0  0
   24.4895  -19.9234  -14.0821 C   0  0  2  0  0  0  0  0  0  0  0  0
   24.5029  -20.4844  -12.7433 N   0  0  0  0  0  0  0  0  0  0  0  0
   23.1190  -19.8649  -14.6408 C   0  0  0  0  0  0  0  0  0  0  0  0
   22.2616  -20.6714  -14.1959 O   0  0  0  0  0  0  0  0  0  0  0  0
   22.7845  -18.9248  -15.6497 N   0  0  0  0  0  0  0  0  0  0  0  0
   21.4159  -18.7249  -16.0665 C   0  0  1  0  0  0  0  0  0  0  0  0
   21.3466  -17.4517  -16.8175 C   0  0  0  0  0  0  0  0  0  0  0  0
   20.0144  -17.0324  -17.3118 C   0  0  0  0  0  0  0  0  0  0  0  0
   20.0543  -15.7408  -18.1095 C   0  0  0  0  0  0  0  0  0  0  0  0
   18.6501  -15.3764  -18.5761 C   0  0  0  0  0  0  0  0  0  0  0  0
   18.7761  -14.1883  -19.3994 N   0  0  0  0  0  0  0  0  0  0  0  0
   20.9297  -19.9156  -16.7279 C   0  0  0  0  0  0  0  0  0  0  0  0
   19.7382  -20.3192  -16.7543 O   0  0  0  0  0  0  0  0  0  0  0  0
   21.8349  -20.7176  -17.4110 O   0  0  0  0  0  0  0  0  0  0  0  0
  2  1  1  1
  2  3  1  0
  4  3  1  0
  5  2  1  0
  5  6  2  0
  8  7  1  1
  8 10  1  0
  9  8  1  0
 10 11  1  1
 10 12  1  0
 11  5  1  0
 12 14  1  0
 13 12  2  0
 14 15  1  0
 15 21  1  0
 16 17  1  0
 15 16  1  6
 18 19  1  0
 18 17  1  0
 20 19  1  0
 21 22  2  0
 21 23  1  0
M  END
$$$$
