CTK.pdb
     RDKit          3D

 23 22  0  0  1  0  0  0  0  0999 V2000
   19.0358  -11.6818  -16.0687 N   0  0  0  0  0  0  0  0  0  0  0  0
   18.1812  -10.5915  -15.7114 C   0  0  1  0  0  0  0  0  0  0  0  0
   16.7170  -10.9398  -15.8709 C   0  0  0  0  0  0  0  0  0  0  0  0
   16.3551  -11.0469  -17.6543 S   0  0  0  0  0  0  0  0  0  0  0  0
   18.4453  -10.1034  -14.3239 C   0  0  0  0  0  0  0  0  0  0  0  0
   18.4134  -10.9277  -13.3739 O   0  0  0  0  0  0  0  0  0  0  0  0
   21.3535   -8.4566  -13.1446 C   0  0  0  0  0  0  0  0  0  0  0  0
   20.2600   -7.4658  -12.7303 C   0  0  1  0  0  0  0  0  0  0  0  0
   20.1763   -6.5302  -13.7557 O   0  0  0  0  0  0  0  0  0  0  0  0
   18.9679   -8.2807  -12.6724 C   0  0  2  0  0  0  0  0  0  0  0  0
   18.7304   -8.7583  -14.0225 N   0  0  0  0  0  0  0  0  0  0  0  0
   17.8397   -7.4622  -12.1714 C   0  0  0  0  0  0  0  0  0  0  0  0
   16.8939   -7.2081  -12.9615 O   0  0  0  0  0  0  0  0  0  0  0  0
   17.8279   -6.9792  -10.8372 N   0  0  0  0  0  0  0  0  0  0  0  0
   16.7100   -6.2235  -10.3216 C   0  0  1  0  0  0  0  0  0  0  0  0
   15.4968   -7.0630  -10.4371 C   0  0  0  0  0  0  0  0  0  0  0  0
   14.9537   -7.6383   -9.1846 C   0  0  0  0  0  0  0  0  0  0  0  0
   13.6905   -8.4528   -9.4016 C   0  0  0  0  0  0  0  0  0  0  0  0
   13.1366   -8.9175   -8.0602 C   0  0  0  0  0  0  0  0  0  0  0  0
   11.8817   -9.5921   -8.3349 N   0  0  0  0  0  0  0  0  0  0  0  0
   17.0372   -5.7022   -9.0128 C   0  0  0  0  0  0  0  0  0  0  0  0
   18.0269   -6.0278   -8.3074 O   0  0  0  0  0  0  0  0  0  0  0  0
   16.2024   -4.7480   -8.4457 O   0  0  0  0  0  0  0  0  0  0  0  0
  2  1  1  1
  2  3  1  0
  4  3  1  0
  5  2  1  0
  5  6  2  0
  8  7  1  6
  8 10  1  0
  9  8  1  0
 10 11  1  6
 10 12  1  0
 11  5  1  0
 12 14  1  0
 13 12  2  0
 14 15  1  0
 15 21  1  0
 16 17  1  0
 15 16  1  1
 18 19  1  0
 18 17  1  0
 20 19  1  0
 21 22  2  0
 21 23  1  0
M  END
$$$$
