CTK.pdb
     RDKit          3D

 23 22  0  0  1  0  0  0  0  0999 V2000
   22.1621  -13.2861  -17.3444 N   0  0  0  0  0  0  0  0  0  0  0  0
   22.8076  -12.0325  -17.1023 C   0  0  1  0  0  0  0  0  0  0  0  0
   23.8307  -11.7038  -18.1681 C   0  0  0  0  0  0  0  0  0  0  0  0
   25.4288  -12.4126  -17.6517 S   0  0  0  0  0  0  0  0  0  0  0  0
   21.8265  -10.9131  -16.9688 C   0  0  0  0  0  0  0  0  0  0  0  0
   21.0400  -10.6783  -17.9222 O   0  0  0  0  0  0  0  0  0  0  0  0
   19.0884  -10.6058  -15.1777 C   0  0  0  0  0  0  0  0  0  0  0  0
   19.8030   -9.3603  -14.6420 C   0  0  1  0  0  0  0  0  0  0  0  0
   20.4673   -9.7612  -13.4879 O   0  0  0  0  0  0  0  0  0  0  0  0
   20.8229   -8.9785  -15.7149 C   0  0  2  0  0  0  0  0  0  0  0  0
   21.7362  -10.1016  -15.8223 N   0  0  0  0  0  0  0  0  0  0  0  0
   21.5297   -7.7259  -15.3613 C   0  0  0  0  0  0  0  0  0  0  0  0
   22.7427   -7.8005  -15.0350 O   0  0  0  0  0  0  0  0  0  0  0  0
   20.8557   -6.4775  -15.3906 N   0  0  0  0  0  0  0  0  0  0  0  0
   21.5122   -5.2593  -14.9762 C   0  0  1  0  0  0  0  0  0  0  0  0
   20.7758   -4.1185  -15.5647 C   0  0  0  0  0  0  0  0  0  0  0  0
   21.2220   -2.7587  -15.1820 C   0  0  0  0  0  0  0  0  0  0  0  0
   20.4356   -1.6575  -15.8711 C   0  0  0  0  0  0  0  0  0  0  0  0
   21.0264   -0.2985  -15.5156 C   0  0  0  0  0  0  0  0  0  0  0  0
   20.2997    0.6908  -16.2893 N   0  0  0  0  0  0  0  0  0  0  0  0
   21.6918   -5.2670  -13.5412 C   0  0  0  0  0  0  0  0  0  0  0  0
   20.9528   -5.8429  -12.7011 O   0  0  0  0  0  0  0  0  0  0  0  0
   22.7728   -4.5841  -12.9991 O   0  0  0  0  0  0  0  0  0  0  0  0
  2  1  1  6
  2  3  1  0
  4  3  1  0
  5  2  1  0
  5  6  2  0
  8  7  1  6
  8 10  1  0
  9  8  1  0
 10 11  1  1
 10 12  1  0
 11  5  1  0
 12 14  1  0
 13 12  2  0
 14 15  1  0
 15 21  1  0
 16 17  1  0
 15 16  1  1
 18 19  1  0
 18 17  1  0
 20 19  1  0
 21 22  2  0
 21 23  1  0
M  END
$$$$
