CTK.pdb
     RDKit          3D

 23 22  0  0  1  0  0  0  0  0999 V2000
   28.1491  -20.2015  -15.5104 N   0  0  0  0  0  0  0  0  0  0  0  0
   26.9475  -19.9182  -16.2334 C   0  0  1  0  0  0  0  0  0  0  0  0
   26.1230  -21.1637  -16.4777 C   0  0  0  0  0  0  0  0  0  0  0  0
   27.0136  -22.2007  -17.6836 S   0  0  0  0  0  0  0  0  0  0  0  0
   26.1174  -18.8768  -15.5554 C   0  0  0  0  0  0  0  0  0  0  0  0
   26.3094  -18.6483  -14.3332 O   0  0  0  0  0  0  0  0  0  0  0  0
   26.6565  -16.6292  -14.5864 C   0  0  0  0  0  0  0  0  0  0  0  0
   25.5852  -15.9308  -15.4310 C   0  0  1  0  0  0  0  0  0  0  0  0
   26.1836  -15.6395  -16.6520 O   0  0  0  0  0  0  0  0  0  0  0  0
   24.4816  -16.9689  -15.6351 C   0  0  2  0  0  0  0  0  0  0  0  0
   25.1240  -18.1323  -16.2189 N   0  0  0  0  0  0  0  0  0  0  0  0
   23.4034  -16.4418  -16.5030 C   0  0  0  0  0  0  0  0  0  0  0  0
   23.4747  -16.6639  -17.7395 O   0  0  0  0  0  0  0  0  0  0  0  0
   22.3211  -15.7070  -15.9532 N   0  0  0  0  0  0  0  0  0  0  0  0
   21.2483  -15.2136  -16.7853 C   0  0  1  0  0  0  0  0  0  0  0  0
   19.9804  -15.7957  -16.2917 C   0  0  0  0  0  0  0  0  0  0  0  0
   18.7320  -15.3516  -16.9543 C   0  0  0  0  0  0  0  0  0  0  0  0
   17.4803  -15.9210  -16.3100 C   0  0  0  0  0  0  0  0  0  0  0  0
   16.2498  -15.4918  -17.0997 C   0  0  0  0  0  0  0  0  0  0  0  0
   15.0914  -15.9171  -16.3364 N   0  0  0  0  0  0  0  0  0  0  0  0
   21.3279  -13.7725  -16.8782 C   0  0  0  0  0  0  0  0  0  0  0  0
   20.6963  -13.0421  -17.6850 O   0  0  0  0  0  0  0  0  0  0  0  0
   22.1720  -13.0923  -16.0100 O   0  0  0  0  0  0  0  0  0  0  0  0
  2  1  1  1
  2  3  1  0
  4  3  1  0
  5  2  1  0
  5  6  2  0
  8  7  1  1
  8 10  1  0
  9  8  1  0
 10 11  1  6
 10 12  1  0
 11  5  1  0
 12 14  1  0
 13 12  2  0
 14 15  1  0
 15 21  1  0
 16 17  1  0
 15 16  1  1
 18 19  1  0
 18 17  1  0
 20 19  1  0
 21 22  2  0
 21 23  1  0
M  END
$$$$
