CTK.pdb
     RDKit          3D

 23 22  0  0  1  0  0  0  0  0999 V2000
   17.5827  -11.6062  -15.0089 N   0  0  0  0  0  0  0  0  0  0  0  0
   16.6426  -10.5320  -14.9124 C   0  0  1  0  0  0  0  0  0  0  0  0
   15.2324  -11.0290  -14.6775 C   0  0  0  0  0  0  0  0  0  0  0  0
   14.6758  -11.8787  -16.1912 S   0  0  0  0  0  0  0  0  0  0  0  0
   17.0234   -9.5469  -13.8551 C   0  0  0  0  0  0  0  0  0  0  0  0
   17.2882   -9.9684  -12.6997 O   0  0  0  0  0  0  0  0  0  0  0  0
   19.7280   -7.3260  -14.1496 C   0  0  0  0  0  0  0  0  0  0  0  0
   18.6158   -6.3523  -13.7447 C   0  0  1  0  0  0  0  0  0  0  0  0
   18.1203   -5.8164  -14.9284 O   0  0  0  0  0  0  0  0  0  0  0  0
   17.5397   -7.2112  -13.0803 C   0  0  2  0  0  0  0  0  0  0  0  0
   17.1017   -8.1608  -14.0871 N   0  0  0  0  0  0  0  0  0  0  0  0
   16.4196   -6.3787  -12.5844 C   0  0  0  0  0  0  0  0  0  0  0  0
   15.4285   -6.2058  -13.3401 O   0  0  0  0  0  0  0  0  0  0  0  0
   16.4650   -5.7934  -11.2925 N   0  0  0  0  0  0  0  0  0  0  0  0
   15.4897   -4.8119  -10.8776 C   0  0  1  0  0  0  0  0  0  0  0  0
   14.8045   -5.3278   -9.6716 C   0  0  0  0  0  0  0  0  0  0  0  0
   13.7822   -4.4532   -9.0513 C   0  0  0  0  0  0  0  0  0  0  0  0
   13.1117   -5.0841   -7.8436 C   0  0  0  0  0  0  0  0  0  0  0  0
   12.1116   -4.1074   -7.2370 C   0  0  0  0  0  0  0  0  0  0  0  0
   11.4662   -4.7970   -6.1355 N   0  0  0  0  0  0  0  0  0  0  0  0
   16.1172   -3.5123  -10.7823 C   0  0  0  0  0  0  0  0  0  0  0  0
   17.3473   -3.2876  -10.6422 O   0  0  0  0  0  0  0  0  0  0  0  0
   15.3184   -2.3780  -10.8478 O   0  0  0  0  0  0  0  0  0  0  0  0
  2  1  1  1
  2  3  1  0
  4  3  1  0
  5  2  1  0
  5  6  2  0
  8  7  1  6
  8 10  1  0
  9  8  1  0
 10 11  1  6
 10 12  1  0
 11  5  1  0
 12 14  1  0
 13 12  2  0
 14 15  1  0
 15 21  1  0
 16 17  1  0
 15 16  1  1
 18 19  1  0
 18 17  1  0
 20 19  1  0
 21 22  2  0
 21 23  1  0
M  END
$$$$
