CTK.pdb
     RDKit          3D

 23 22  0  0  1  0  0  0  0  0999 V2000
   19.9621  -12.2776  -17.9238 N   0  0  0  0  0  0  0  0  0  0  0  0
   19.5340  -12.2533  -16.5589 C   0  0  1  0  0  0  0  0  0  0  0  0
   19.4720  -13.6405  -15.9569 C   0  0  0  0  0  0  0  0  0  0  0  0
   19.1181  -14.8214  -17.2997 S   0  0  0  0  0  0  0  0  0  0  0  0
   20.3928  -11.3656  -15.7176 C   0  0  0  0  0  0  0  0  0  0  0  0
   20.1548  -11.2817  -14.4850 O   0  0  0  0  0  0  0  0  0  0  0  0
   23.8802  -11.3802  -15.0727 C   0  0  0  0  0  0  0  0  0  0  0  0
   23.6860   -9.9777  -15.6594 C   0  0  1  0  0  0  0  0  0  0  0  0
   23.9529  -10.0865  -17.0198 O   0  0  0  0  0  0  0  0  0  0  0  0
   22.2081   -9.6464  -15.4512 C   0  0  2  0  0  0  0  0  0  0  0  0
   21.4627  -10.6128  -16.2370 N   0  0  0  0  0  0  0  0  0  0  0  0
   21.9077   -8.2549  -15.8604 C   0  0  0  0  0  0  0  0  0  0  0  0
   21.3782   -8.0685  -16.9865 O   0  0  0  0  0  0  0  0  0  0  0  0
   22.2094   -7.1640  -15.0045 N   0  0  0  0  0  0  0  0  0  0  0  0
   21.9590   -5.8001  -15.4089 C   0  0  1  0  0  0  0  0  0  0  0  0
   20.5380   -5.6940  -15.8087 C   0  0  0  0  0  0  0  0  0  0  0  0
   20.0130   -4.3349  -16.0768 C   0  0  0  0  0  0  0  0  0  0  0  0
   18.5328   -4.3240  -16.4157 C   0  0  0  0  0  0  0  0  0  0  0  0
   18.0737   -2.8964  -16.6866 C   0  0  0  0  0  0  0  0  0  0  0  0
   16.7097   -2.9793  -17.1747 N   0  0  0  0  0  0  0  0  0  0  0  0
   22.4324   -4.8943  -14.3857 C   0  0  0  0  0  0  0  0  0  0  0  0
   22.6018   -5.1676  -13.1692 O   0  0  0  0  0  0  0  0  0  0  0  0
   22.7406   -3.5873  -14.7407 O   0  0  0  0  0  0  0  0  0  0  0  0
  2  1  1  6
  2  3  1  0
  4  3  1  0
  5  2  1  0
  5  6  2  0
  8  7  1  1
  8 10  1  0
  9  8  1  0
 10 11  1  6
 10 12  1  0
 11  5  1  0
 12 14  1  0
 13 12  2  0
 14 15  1  0
 15 21  1  0
 16 17  1  0
 15 16  1  1
 18 19  1  0
 18 17  1  0
 20 19  1  0
 21 22  2  0
 21 23  1  0
M  END
$$$$
