CTK.pdb
     RDKit          3D

 23 22  0  0  1  0  0  0  0  0999 V2000
   16.5234  -13.0649  -14.9095 N   0  0  0  0  0  0  0  0  0  0  0  0
   15.8170  -11.8818  -14.5250 C   0  0  1  0  0  0  0  0  0  0  0  0
   14.3936  -12.1796  -14.1055 C   0  0  0  0  0  0  0  0  0  0  0  0
   13.4629  -12.6823  -15.5900 S   0  0  0  0  0  0  0  0  0  0  0  0
   16.5256  -11.1321  -13.4437 C   0  0  0  0  0  0  0  0  0  0  0  0
   17.0684  -11.7795  -12.5115 O   0  0  0  0  0  0  0  0  0  0  0  0
   19.2747   -8.9485  -13.6632 C   0  0  0  0  0  0  0  0  0  0  0  0
   18.2478   -8.0470  -12.9691 C   0  0  1  0  0  0  0  0  0  0  0  0
   17.6267   -7.3191  -13.9781 O   0  0  0  0  0  0  0  0  0  0  0  0
   17.2375   -8.9960  -12.3244 C   0  0  2  0  0  0  0  0  0  0  0  0
   16.6178   -9.7278  -13.4141 N   0  0  0  0  0  0  0  0  0  0  0  0
   16.2387   -8.2520  -11.5228 C   0  0  0  0  0  0  0  0  0  0  0  0
   15.0510   -8.2181  -11.9370 O   0  0  0  0  0  0  0  0  0  0  0  0
   16.6131   -7.5963  -10.3213 N   0  0  0  0  0  0  0  0  0  0  0  0
   15.6585   -6.8292   -9.5551 C   0  0  1  0  0  0  0  0  0  0  0  0
   14.5627   -7.7366   -9.1476 C   0  0  0  0  0  0  0  0  0  0  0  0
   13.5442   -7.1897   -8.2211 C   0  0  0  0  0  0  0  0  0  0  0  0
   12.4093   -8.1597   -7.9433 C   0  0  0  0  0  0  0  0  0  0  0  0
   11.3444   -7.4808   -7.0904 C   0  0  0  0  0  0  0  0  0  0  0  0
   10.2803   -8.4483   -6.8985 N   0  0  0  0  0  0  0  0  0  0  0  0
   16.3449   -6.1025   -8.5098 C   0  0  0  0  0  0  0  0  0  0  0  0
   15.9400   -5.0556   -7.9412 O   0  0  0  0  0  0  0  0  0  0  0  0
   17.5725   -6.5743   -8.0632 O   0  0  0  0  0  0  0  0  0  0  0  0
  2  1  1  1
  2  3  1  0
  4  3  1  0
  5  2  1  0
  5  6  2  0
  8  7  1  6
  8 10  1  0
  9  8  1  0
 10 11  1  6
 10 12  1  0
 11  5  1  0
 12 14  1  0
 13 12  2  0
 14 15  1  0
 15 21  1  0
 16 17  1  0
 15 16  1  1
 18 19  1  0
 18 17  1  0
 20 19  1  0
 21 22  2  0
 21 23  1  0
M  END
$$$$
