MDC.pdb
     RDKit          3D

 23 22  0  0  1  0  0  0  0  0999 V2000
   27.5242  -12.4112  -15.4262 C   0  0  0  0  0  0  0  0  0  0  0  0
   26.4798  -13.6244  -14.5808 S   0  0  0  0  0  0  0  0  0  0  0  0
   24.8980  -13.8704  -15.4590 C   0  0  0  0  0  0  0  0  0  0  0  0
   24.2552  -12.4773  -15.6008 C   0  0  0  0  0  0  0  0  0  0  0  0
   22.9845  -12.7136  -16.3548 C   0  0  2  0  0  0  0  0  0  0  0  0
   23.3069  -13.2662  -17.6481 N   0  0  0  0  0  0  0  0  0  0  0  0
   22.0861  -11.5697  -16.4908 C   0  0  0  0  0  0  0  0  0  0  0  0
   22.1958  -10.8725  -17.5345 O   0  0  0  0  0  0  0  0  0  0  0  0
   21.1198  -11.2319  -15.5097 N   0  0  0  0  0  0  0  0  0  0  0  0
   20.3033  -10.0346  -15.7675 C   0  0  1  0  0  0  0  0  0  0  0  0
   18.9102  -10.3461  -15.3792 C   0  0  0  0  0  0  0  0  0  0  0  0
   18.2968  -11.5043  -16.0820 C   0  0  0  0  0  0  0  0  0  0  0  0
   18.2353  -11.5102  -17.3367 O   0  0  0  0  0  0  0  0  0  0  0  0
   20.9620   -8.9028  -15.1213 C   0  0  0  0  0  0  0  0  0  0  0  0
   21.7668   -9.1466  -14.1581 O   0  0  0  0  0  0  0  0  0  0  0  0
   17.7841  -12.5917  -15.3698 O   0  0  0  0  0  0  0  0  0  0  0  0
   20.8016   -7.5435  -15.4580 N   0  0  0  0  0  0  0  0  0  0  0  0
   21.4628   -6.5114  -14.7246 C   0  0  1  0  0  0  0  0  0  0  0  0
   22.8003   -6.0811  -15.2850 C   0  0  0  0  0  0  0  0  0  0  0  0
   23.4430   -4.8257  -14.1032 S   0  0  0  0  0  0  0  0  0  0  0  0
   20.6267   -5.2954  -14.5686 C   0  0  0  0  0  0  0  0  0  0  0  0
   19.7966   -5.0261  -15.4860 O   0  0  0  0  0  0  0  0  0  0  0  0
   20.7252   -4.4697  -13.4804 O   0  0  0  0  0  0  0  0  0  0  0  0
  2  1  1  0
  2  3  1  0
  4  5  1  0
  4  3  1  0
  5  6  1  6
  7  5  1  0
  7  8  2  0
  9  7  1  0
 10  9  1  0
 10 14  1  0
 10 11  1  1
 12 13  2  0
 12 11  1  0
 14 17  1  0
 15 14  2  0
 16 12  1  0
 17 18  1  0
 18 21  1  0
 19 20  1  0
 18 19  1  6
 21 22  2  0
 21 23  1  0
M  END
$$$$
