MDC.pdb
     RDKit          3D

 23 22  0  0  1  0  0  0  0  0999 V2000
   28.4565  -16.0339  -15.2856 C   0  0  0  0  0  0  0  0  0  0  0  0
   27.5921  -14.4887  -15.6632 S   0  0  0  0  0  0  0  0  0  0  0  0
   26.1349  -14.7813  -16.7237 C   0  0  0  0  0  0  0  0  0  0  0  0
   25.4456  -13.4155  -16.9067 C   0  0  0  0  0  0  0  0  0  0  0  0
   24.2010  -13.7122  -17.6825 C   0  0  2  0  0  0  0  0  0  0  0  0
   24.5668  -14.3619  -18.9179 N   0  0  0  0  0  0  0  0  0  0  0  0
   23.3079  -12.5842  -17.9364 C   0  0  0  0  0  0  0  0  0  0  0  0
   23.4354  -11.9856  -19.0377 O   0  0  0  0  0  0  0  0  0  0  0  0
   22.3278  -12.1569  -17.0053 N   0  0  0  0  0  0  0  0  0  0  0  0
   21.5198  -10.9859  -17.3833 C   0  0  1  0  0  0  0  0  0  0  0  0
   20.1228  -11.4394  -17.5596 C   0  0  0  0  0  0  0  0  0  0  0  0
   19.4474  -11.9175  -16.3239 C   0  0  0  0  0  0  0  0  0  0  0  0
   20.0265  -12.7466  -15.5786 O   0  0  0  0  0  0  0  0  0  0  0  0
   21.7842   -9.9326  -16.4071 C   0  0  0  0  0  0  0  0  0  0  0  0
   21.8237  -10.2561  -15.1706 O   0  0  0  0  0  0  0  0  0  0  0  0
   18.1740  -11.4604  -15.9744 O   0  0  0  0  0  0  0  0  0  0  0  0
   22.0077   -8.5705  -16.6924 N   0  0  0  0  0  0  0  0  0  0  0  0
   22.2994   -7.6306  -15.6572 C   0  0  1  0  0  0  0  0  0  0  0  0
   23.2866   -6.5475  -16.0325 C   0  0  0  0  0  0  0  0  0  0  0  0
   24.8246   -7.4352  -16.5141 S   0  0  0  0  0  0  0  0  0  0  0  0
   21.0822   -6.9676  -15.1272 C   0  0  0  0  0  0  0  0  0  0  0  0
   19.9968   -7.1309  -15.7583 O   0  0  0  0  0  0  0  0  0  0  0  0
   21.0982   -6.1971  -13.9950 O   0  0  0  0  0  0  0  0  0  0  0  0
  2  1  1  0
  2  3  1  0
  4  5  1  0
  4  3  1  0
  5  6  1  6
  7  5  1  0
  7  8  2  0
  9  7  1  0
 10  9  1  0
 10 14  1  0
 10 11  1  1
 12 13  2  0
 12 11  1  0
 14 17  1  0
 15 14  2  0
 16 12  1  0
 17 18  1  0
 18 21  1  0
 19 20  1  0
 18 19  1  6
 21 22  2  0
 21 23  1  0
M  END
$$$$
