MDC.pdb
     RDKit          3D

 23 22  0  0  1  0  0  0  0  0999 V2000
   24.1151  -16.9443  -16.7149 C   0  0  0  0  0  0  0  0  0  0  0  0
   25.7313  -16.2686  -17.1718 S   0  0  0  0  0  0  0  0  0  0  0  0
   25.9475  -14.5698  -16.5385 C   0  0  0  0  0  0  0  0  0  0  0  0
   24.6548  -13.8062  -16.8844 C   0  0  0  0  0  0  0  0  0  0  0  0
   24.8683  -12.4245  -16.3513 C   0  0  2  0  0  0  0  0  0  0  0  0
   25.1417  -12.5087  -14.9370 N   0  0  0  0  0  0  0  0  0  0  0  0
   23.8091  -11.4538  -16.6161 C   0  0  0  0  0  0  0  0  0  0  0  0
   23.5051  -11.2480  -17.8214 O   0  0  0  0  0  0  0  0  0  0  0  0
   23.1310  -10.7572  -15.5839 N   0  0  0  0  0  0  0  0  0  0  0  0
   22.1047   -9.7880  -16.0011 C   0  0  1  0  0  0  0  0  0  0  0  0
   20.7813  -10.3657  -15.6795 C   0  0  0  0  0  0  0  0  0  0  0  0
   19.6303   -9.4329  -15.8100 C   0  0  0  0  0  0  0  0  0  0  0  0
   19.4708   -8.7857  -16.8748 O   0  0  0  0  0  0  0  0  0  0  0  0
   22.4530   -8.4960  -15.4165 C   0  0  0  0  0  0  0  0  0  0  0  0
   22.9640   -8.4856  -14.2445 O   0  0  0  0  0  0  0  0  0  0  0  0
   18.7184   -9.2612  -14.7653 O   0  0  0  0  0  0  0  0  0  0  0  0
   22.2838   -7.2352  -16.0234 N   0  0  0  0  0  0  0  0  0  0  0  0
   22.6390   -6.0287  -15.3463 C   0  0  1  0  0  0  0  0  0  0  0  0
   22.8272   -4.8225  -16.2395 C   0  0  0  0  0  0  0  0  0  0  0  0
   23.4350   -3.4853  -15.1312 S   0  0  0  0  0  0  0  0  0  0  0  0
   21.6664   -5.6593  -14.2882 C   0  0  0  0  0  0  0  0  0  0  0  0
   20.4335   -5.7216  -14.5696 O   0  0  0  0  0  0  0  0  0  0  0  0
   22.0565   -5.2592  -13.0378 O   0  0  0  0  0  0  0  0  0  0  0  0
  2  1  1  0
  2  3  1  0
  4  5  1  0
  4  3  1  0
  5  6  1  1
  7  5  1  0
  7  8  2  0
  9  7  1  0
 10  9  1  0
 10 14  1  0
 10 11  1  1
 12 13  2  0
 12 11  1  0
 14 17  1  0
 15 14  2  0
 16 12  1  0
 17 18  1  0
 18 21  1  0
 19 20  1  0
 18 19  1  6
 21 22  2  0
 21 23  1  0
M  END
$$$$
