MDC.pdb
     RDKit          3D

 23 22  0  0  1  0  0  0  0  0999 V2000
   13.2636  -13.9400  -13.0588 C   0  0  0  0  0  0  0  0  0  0  0  0
   13.6442  -12.1890  -12.8008 S   0  0  0  0  0  0  0  0  0  0  0  0
   13.8608  -11.8074  -11.0284 C   0  0  0  0  0  0  0  0  0  0  0  0
   13.9776  -10.2748  -10.9220 C   0  0  0  0  0  0  0  0  0  0  0  0
   15.4472  -10.0043  -10.8435 C   0  0  2  0  0  0  0  0  0  0  0  0
   15.9554  -10.5508   -9.6086 N   0  0  0  0  0  0  0  0  0  0  0  0
   15.8623   -8.6126  -11.0023 C   0  0  0  0  0  0  0  0  0  0  0  0
   15.6964   -8.0882  -12.1359 O   0  0  0  0  0  0  0  0  0  0  0  0
   16.4291   -7.8556   -9.9458 N   0  0  0  0  0  0  0  0  0  0  0  0
   16.7472   -6.4478  -10.2352 C   0  0  1  0  0  0  0  0  0  0  0  0
   16.2384   -5.6302   -9.1122 C   0  0  0  0  0  0  0  0  0  0  0  0
   16.4229   -4.1618   -9.2585 C   0  0  0  0  0  0  0  0  0  0  0  0
   16.9194   -3.6986  -10.3153 O   0  0  0  0  0  0  0  0  0  0  0  0
   18.1705   -6.3724  -10.5529 C   0  0  0  0  0  0  0  0  0  0  0  0
   19.0030   -6.3731   -9.5824 O   0  0  0  0  0  0  0  0  0  0  0  0
   16.0531   -3.2826   -8.2372 O   0  0  0  0  0  0  0  0  0  0  0  0
   18.7324   -6.3007  -11.8434 N   0  0  0  0  0  0  0  0  0  0  0  0
   20.1423   -6.1770  -12.0363 C   0  0  1  0  0  0  0  0  0  0  0  0
   20.7685   -7.2477  -12.9022 C   0  0  0  0  0  0  0  0  0  0  0  0
   20.4697   -8.8306  -12.0129 S   0  0  0  0  0  0  0  0  0  0  0  0
   20.5292   -4.8591  -12.5979 C   0  0  0  0  0  0  0  0  0  0  0  0
   21.7641   -4.5973  -12.6966 O   0  0  0  0  0  0  0  0  0  0  0  0
   19.6058   -3.9334  -13.0052 O   0  0  0  0  0  0  0  0  0  0  0  0
  2  1  1  0
  2  3  1  0
  4  5  1  0
  4  3  1  0
  5  6  1  1
  7  5  1  0
  7  8  2  0
  9  7  1  0
 10  9  1  0
 10 14  1  0
 10 11  1  1
 12 13  2  0
 12 11  1  0
 14 17  1  0
 15 14  2  0
 16 12  1  0
 17 18  1  0
 18 21  1  0
 19 20  1  0
 18 19  1  6
 21 22  2  0
 21 23  1  0
M  END
$$$$
