MDC.pdb
     RDKit          3D

 23 22  0  0  1  0  0  0  0  0999 V2000
   26.9767  -12.5277  -14.4512 C   0  0  0  0  0  0  0  0  0  0  0  0
   26.6578  -12.9204  -16.1894 S   0  0  0  0  0  0  0  0  0  0  0  0
   24.9533  -12.4779  -16.6716 C   0  0  0  0  0  0  0  0  0  0  0  0
   24.5478  -11.2784  -15.7939 C   0  0  0  0  0  0  0  0  0  0  0  0
   23.1682  -10.9174  -16.2471 C   0  0  2  0  0  0  0  0  0  0  0  0
   23.2002  -10.6455  -17.6638 N   0  0  0  0  0  0  0  0  0  0  0  0
   22.5101   -9.8301  -15.5268 C   0  0  0  0  0  0  0  0  0  0  0  0
   22.2627  -10.0155  -14.3054 O   0  0  0  0  0  0  0  0  0  0  0  0
   22.1533   -8.6051  -16.1455 N   0  0  0  0  0  0  0  0  0  0  0  0
   21.5338   -7.5836  -15.2856 C   0  0  1  0  0  0  0  0  0  0  0  0
   22.5164   -6.4933  -15.1005 C   0  0  0  0  0  0  0  0  0  0  0  0
   22.0609   -5.3632  -14.2478 C   0  0  0  0  0  0  0  0  0  0  0  0
   20.8793   -5.3412  -13.8218 O   0  0  0  0  0  0  0  0  0  0  0  0
   20.2344   -7.2494  -15.8620 C   0  0  0  0  0  0  0  0  0  0  0  0
   20.1261   -7.2447  -17.1361 O   0  0  0  0  0  0  0  0  0  0  0  0
   22.9264   -4.3194  -13.9100 O   0  0  0  0  0  0  0  0  0  0  0  0
   19.0639   -6.9285  -15.1455 N   0  0  0  0  0  0  0  0  0  0  0  0
   17.8833   -6.4768  -15.8108 C   0  0  1  0  0  0  0  0  0  0  0  0
   16.7069   -7.4256  -15.7464 C   0  0  0  0  0  0  0  0  0  0  0  0
   15.3316   -6.5559  -16.6053 S   0  0  0  0  0  0  0  0  0  0  0  0
   17.4228   -5.1533  -15.3228 C   0  0  0  0  0  0  0  0  0  0  0  0
   17.0740   -5.0584  -14.1093 O   0  0  0  0  0  0  0  0  0  0  0  0
   17.3644   -4.0503  -16.1326 O   0  0  0  0  0  0  0  0  0  0  0  0
  2  1  1  0
  2  3  1  0
  4  5  1  0
  4  3  1  0
  5  6  1  6
  7  5  1  0
  7  8  2  0
  9  7  1  0
 10  9  1  0
 10 14  1  0
 10 11  1  6
 12 13  2  0
 12 11  1  0
 14 17  1  0
 15 14  2  0
 16 12  1  0
 17 18  1  0
 18 21  1  0
 19 20  1  0
 18 19  1  1
 21 22  2  0
 21 23  1  0
M  END
$$$$
