MDC.pdb
     RDKit          3D

 23 22  0  0  1  0  0  0  0  0999 V2000
   32.5461  -21.9930   -7.1900 C   0  0  0  0  0  0  0  0  0  0  0  0
   33.3761  -21.8329   -8.7909 S   0  0  0  0  0  0  0  0  0  0  0  0
   32.3081  -22.4062  -10.1564 C   0  0  0  0  0  0  0  0  0  0  0  0
   31.0836  -21.4713  -10.1761 C   0  0  0  0  0  0  0  0  0  0  0  0
   30.1688  -22.0552  -11.2063 C   0  0  2  0  0  0  0  0  0  0  0  0
   30.9636  -22.5793  -12.2906 N   0  0  0  0  0  0  0  0  0  0  0  0
   29.1162  -21.1785  -11.7138 C   0  0  0  0  0  0  0  0  0  0  0  0
   28.4268  -20.5548  -10.8634 O   0  0  0  0  0  0  0  0  0  0  0  0
   28.8565  -21.0127  -13.0979 N   0  0  0  0  0  0  0  0  0  0  0  0
   27.8303  -20.0238  -13.4663 C   0  0  1  0  0  0  0  0  0  0  0  0
   28.0539  -19.6466  -14.8792 C   0  0  0  0  0  0  0  0  0  0  0  0
   27.2411  -18.5016  -15.3691 C   0  0  0  0  0  0  0  0  0  0  0  0
   26.5143  -17.8650  -14.5663 O   0  0  0  0  0  0  0  0  0  0  0  0
   26.5303  -20.5778  -13.0986 C   0  0  0  0  0  0  0  0  0  0  0  0
   26.2631  -21.7744  -13.4617 O   0  0  0  0  0  0  0  0  0  0  0  0
   27.2700  -18.1185  -16.7127 O   0  0  0  0  0  0  0  0  0  0  0  0
   25.5212  -19.9185  -12.3681 N   0  0  0  0  0  0  0  0  0  0  0  0
   24.3552  -20.6095  -11.9175 C   0  0  1  0  0  0  0  0  0  0  0  0
   24.0595  -20.4751  -10.4401 C   0  0  0  0  0  0  0  0  0  0  0  0
   25.4504  -21.3238   -9.5852 S   0  0  0  0  0  0  0  0  0  0  0  0
   23.1330  -20.2134  -12.6600 C   0  0  0  0  0  0  0  0  0  0  0  0
   22.0468  -20.7928  -12.3641 O   0  0  0  0  0  0  0  0  0  0  0  0
   23.1452  -19.2564  -13.6397 O   0  0  0  0  0  0  0  0  0  0  0  0
  2  1  1  0
  2  3  1  0
  4  5  1  0
  4  3  1  0
  5  6  1  6
  7  5  1  0
  7  8  2  0
  9  7  1  0
 10  9  1  0
 10 14  1  0
 10 11  1  6
 12 13  2  0
 12 11  1  0
 14 17  1  0
 15 14  2  0
 16 12  1  0
 17 18  1  0
 18 21  1  0
 19 20  1  0
 18 19  1  1
 21 22  2  0
 21 23  1  0
M  END
$$$$
