MDC.pdb
     RDKit          3D

 23 22  0  0  1  0  0  0  0  0999 V2000
   27.5605  -19.3873   -4.0456 C   0  0  0  0  0  0  0  0  0  0  0  0
   28.1166  -19.9098   -5.6873 S   0  0  0  0  0  0  0  0  0  0  0  0
   26.8153  -19.6598   -6.9435 C   0  0  0  0  0  0  0  0  0  0  0  0
   27.3962  -20.1589   -8.2804 C   0  0  0  0  0  0  0  0  0  0  0  0
   26.2988  -19.9570   -9.2774 C   0  0  2  0  0  0  0  0  0  0  0  0
   25.1714  -20.7746   -8.9000 N   0  0  0  0  0  0  0  0  0  0  0  0
   26.6463  -20.1713  -10.6801 C   0  0  0  0  0  0  0  0  0  0  0  0
   27.7885  -19.7936  -11.0544 O   0  0  0  0  0  0  0  0  0  0  0  0
   25.7599  -20.7771  -11.6063 N   0  0  0  0  0  0  0  0  0  0  0  0
   26.1569  -20.7436  -13.0233 C   0  0  1  0  0  0  0  0  0  0  0  0
   25.9202  -22.0894  -13.5902 C   0  0  0  0  0  0  0  0  0  0  0  0
   26.3806  -22.2805  -14.9913 C   0  0  0  0  0  0  0  0  0  0  0  0
   26.5524  -23.4422  -15.4376 O   0  0  0  0  0  0  0  0  0  0  0  0
   25.4835  -19.6063  -13.6443 C   0  0  0  0  0  0  0  0  0  0  0  0
   24.6254  -18.9633  -12.9479 O   0  0  0  0  0  0  0  0  0  0  0  0
   26.6276  -21.1869  -15.8254 O   0  0  0  0  0  0  0  0  0  0  0  0
   25.6879  -19.1331  -14.9561 N   0  0  0  0  0  0  0  0  0  0  0  0
   25.7173  -17.7351  -15.2477 C   0  0  1  0  0  0  0  0  0  0  0  0
   26.7520  -16.9408  -14.4817 C   0  0  0  0  0  0  0  0  0  0  0  0
   26.6256  -15.2231  -15.1292 S   0  0  0  0  0  0  0  0  0  0  0  0
   25.9128  -17.4562  -16.6920 C   0  0  0  0  0  0  0  0  0  0  0  0
   26.8230  -18.0927  -17.2998 O   0  0  0  0  0  0  0  0  0  0  0  0
   25.1511  -16.5457  -17.3750 O   0  0  0  0  0  0  0  0  0  0  0  0
  2  1  1  0
  2  3  1  0
  4  5  1  0
  4  3  1  0
  5  6  1  1
  7  5  1  0
  7  8  2  0
  9  7  1  0
 10  9  1  0
 10 14  1  0
 10 11  1  6
 12 13  2  0
 12 11  1  0
 14 17  1  0
 15 14  2  0
 16 12  1  0
 17 18  1  0
 18 21  1  0
 19 20  1  0
 18 19  1  1
 21 22  2  0
 21 23  1  0
M  END
$$$$
