MDC.pdb
     RDKit          3D

 23 22  0  0  1  0  0  0  0  0999 V2000
   17.1593  -15.8817  -12.4935 C   0  0  0  0  0  0  0  0  0  0  0  0
   17.5305  -14.1098  -12.4991 S   0  0  0  0  0  0  0  0  0  0  0  0
   16.2821  -13.1636  -11.5609 C   0  0  0  0  0  0  0  0  0  0  0  0
   16.6343  -11.6748  -11.7425 C   0  0  0  0  0  0  0  0  0  0  0  0
   15.5966  -10.9343  -10.9591 C   0  0  2  0  0  0  0  0  0  0  0  0
   14.2903  -11.3302  -11.4268 N   0  0  0  0  0  0  0  0  0  0  0  0
   15.7168   -9.4786  -10.9324 C   0  0  0  0  0  0  0  0  0  0  0  0
   15.0663   -8.8314  -11.7958 O   0  0  0  0  0  0  0  0  0  0  0  0
   16.5210   -8.7922   -9.9877 N   0  0  0  0  0  0  0  0  0  0  0  0
   16.6716   -7.3400  -10.1756 C   0  0  1  0  0  0  0  0  0  0  0  0
   16.1973   -6.6739   -8.9428 C   0  0  0  0  0  0  0  0  0  0  0  0
   16.2632   -5.1883   -8.9557 C   0  0  0  0  0  0  0  0  0  0  0  0
   16.7071   -4.5933   -9.9691 O   0  0  0  0  0  0  0  0  0  0  0  0
   18.0433   -7.0903  -10.6095 C   0  0  0  0  0  0  0  0  0  0  0  0
   18.9844   -7.7244  -10.0201 O   0  0  0  0  0  0  0  0  0  0  0  0
   15.8393   -4.4374   -7.8560 O   0  0  0  0  0  0  0  0  0  0  0  0
   18.4449   -6.2080  -11.6327 N   0  0  0  0  0  0  0  0  0  0  0  0
   19.7819   -6.2093  -12.1354 C   0  0  1  0  0  0  0  0  0  0  0  0
   20.2207   -7.5005  -12.7899 C   0  0  0  0  0  0  0  0  0  0  0  0
   21.0159   -8.4803  -11.4508 S   0  0  0  0  0  0  0  0  0  0  0  0
   20.0320   -5.1079  -13.0979 C   0  0  0  0  0  0  0  0  0  0  0  0
   19.0289   -4.5043  -13.5804 O   0  0  0  0  0  0  0  0  0  0  0  0
   21.2941   -4.7318  -13.4736 O   0  0  0  0  0  0  0  0  0  0  0  0
  2  1  1  0
  2  3  1  0
  4  5  1  0
  4  3  1  0
  5  6  1  6
  7  5  1  0
  7  8  2  0
  9  7  1  0
 10  9  1  0
 10 14  1  0
 10 11  1  1
 12 13  2  0
 12 11  1  0
 14 17  1  0
 15 14  2  0
 16 12  1  0
 17 18  1  0
 18 21  1  0
 19 20  1  0
 18 19  1  6
 21 22  2  0
 21 23  1  0
M  END
$$$$
