MDC.pdb
     RDKit          3D

 23 22  0  0  1  0  0  0  0  0999 V2000
   24.2280  -12.7023  -21.5988 C   0  0  0  0  0  0  0  0  0  0  0  0
   24.2521  -13.9361  -20.2741 S   0  0  0  0  0  0  0  0  0  0  0  0
   24.3324  -13.1476  -18.6293 C   0  0  0  0  0  0  0  0  0  0  0  0
   23.0607  -12.2884  -18.4935 C   0  0  0  0  0  0  0  0  0  0  0  0
   23.4552  -11.1534  -17.6018 C   0  0  2  0  0  0  0  0  0  0  0  0
   24.0708  -11.6890  -16.4118 N   0  0  0  0  0  0  0  0  0  0  0  0
   22.4025  -10.2015  -17.2555 C   0  0  0  0  0  0  0  0  0  0  0  0
   21.8154   -9.6211  -18.2073 O   0  0  0  0  0  0  0  0  0  0  0  0
   22.0317   -9.9211  -15.9159 N   0  0  0  0  0  0  0  0  0  0  0  0
   20.9747   -8.9162  -15.7168 C   0  0  1  0  0  0  0  0  0  0  0  0
   19.7796   -9.6155  -15.1960 C   0  0  0  0  0  0  0  0  0  0  0  0
   18.6734   -8.7326  -14.7395 C   0  0  0  0  0  0  0  0  0  0  0  0
   18.4195   -7.6758  -15.3694 O   0  0  0  0  0  0  0  0  0  0  0  0
   21.5404   -7.8316  -14.9194 C   0  0  0  0  0  0  0  0  0  0  0  0
   22.2091   -8.1405  -13.8742 O   0  0  0  0  0  0  0  0  0  0  0  0
   17.9072   -9.0572  -13.6169 O   0  0  0  0  0  0  0  0  0  0  0  0
   21.4262   -6.4530  -15.1895 N   0  0  0  0  0  0  0  0  0  0  0  0
   21.9815   -5.4731  -14.3111 C   0  0  1  0  0  0  0  0  0  0  0  0
   23.3596   -4.9778  -14.6903 C   0  0  0  0  0  0  0  0  0  0  0  0
   23.1950   -4.3480  -16.4113 S   0  0  0  0  0  0  0  0  0  0  0  0
   21.1044   -4.2871  -14.1498 C   0  0  0  0  0  0  0  0  0  0  0  0
   20.1088   -4.1775  -14.9243 O   0  0  0  0  0  0  0  0  0  0  0  0
   21.3365   -3.3237  -13.2044 O   0  0  0  0  0  0  0  0  0  0  0  0
  2  1  1  0
  2  3  1  0
  4  5  1  0
  4  3  1  0
  5  6  1  1
  7  5  1  0
  7  8  2  0
  9  7  1  0
 10  9  1  0
 10 14  1  0
 10 11  1  1
 12 13  2  0
 12 11  1  0
 14 17  1  0
 15 14  2  0
 16 12  1  0
 17 18  1  0
 18 21  1  0
 19 20  1  0
 18 19  1  6
 21 22  2  0
 21 23  1  0
M  END
$$$$
