MDC.pdb
     RDKit          3D

 23 22  0  0  1  0  0  0  0  0999 V2000
   22.9841   -8.5253   -9.8404 C   0  0  0  0  0  0  0  0  0  0  0  0
   23.0615   -8.7901  -11.6296 S   0  0  0  0  0  0  0  0  0  0  0  0
   21.4728   -9.4104  -12.2817 C   0  0  0  0  0  0  0  0  0  0  0  0
   20.3730   -8.5166  -11.6772 C   0  0  0  0  0  0  0  0  0  0  0  0
   19.0961   -9.0189  -12.2740 C   0  0  2  0  0  0  0  0  0  0  0  0
   19.1873   -8.9290  -13.7112 N   0  0  0  0  0  0  0  0  0  0  0  0
   17.8644   -8.3967  -11.7944 C   0  0  0  0  0  0  0  0  0  0  0  0
   17.3089   -7.5590  -12.5541 O   0  0  0  0  0  0  0  0  0  0  0  0
   17.2911   -8.7015  -10.5338 N   0  0  0  0  0  0  0  0  0  0  0  0
   16.0649   -7.9732  -10.1694 C   0  0  1  0  0  0  0  0  0  0  0  0
   15.1838   -8.9103   -9.4387 C   0  0  0  0  0  0  0  0  0  0  0  0
   13.8419   -8.3770   -9.0830 C   0  0  0  0  0  0  0  0  0  0  0  0
   13.5307   -7.2047   -9.4104 O   0  0  0  0  0  0  0  0  0  0  0  0
   16.4662   -6.7398   -9.4985 C   0  0  0  0  0  0  0  0  0  0  0  0
   17.3805   -6.8111   -8.6075 O   0  0  0  0  0  0  0  0  0  0  0  0
   12.9157   -9.1585   -8.3873 O   0  0  0  0  0  0  0  0  0  0  0  0
   15.9421   -5.4536   -9.7383 N   0  0  0  0  0  0  0  0  0  0  0  0
   16.3957   -4.3154   -9.0042 C   0  0  1  0  0  0  0  0  0  0  0  0
   17.6982   -3.7168   -9.4874 C   0  0  0  0  0  0  0  0  0  0  0  0
   18.0030   -2.2670   -8.3961 S   0  0  0  0  0  0  0  0  0  0  0  0
   15.3887   -3.2265   -8.9574 C   0  0  0  0  0  0  0  0  0  0  0  0
   14.6504   -3.0590   -9.9724 O   0  0  0  0  0  0  0  0  0  0  0  0
   15.2372   -2.4110   -7.8676 O   0  0  0  0  0  0  0  0  0  0  0  0
  2  1  1  0
  2  3  1  0
  4  5  1  0
  4  3  1  0
  5  6  1  6
  7  5  1  0
  7  8  2  0
  9  7  1  0
 10  9  1  0
 10 14  1  0
 10 11  1  1
 12 13  2  0
 12 11  1  0
 14 17  1  0
 15 14  2  0
 16 12  1  0
 17 18  1  0
 18 21  1  0
 19 20  1  0
 18 19  1  6
 21 22  2  0
 21 23  1  0
M  END
$$$$
