MDC.pdb
     RDKit          3D

 23 22  0  0  1  0  0  0  0  0999 V2000
   17.3187  -24.6591   -9.0287 C   0  0  0  0  0  0  0  0  0  0  0  0
   18.7450  -23.7913   -9.7288 S   0  0  0  0  0  0  0  0  0  0  0  0
   18.2240  -22.4240  -10.8209 C   0  0  0  0  0  0  0  0  0  0  0  0
   19.5061  -21.8728  -11.4738 C   0  0  0  0  0  0  0  0  0  0  0  0
   19.0316  -20.8289  -12.4350 C   0  0  2  0  0  0  0  0  0  0  0  0
   18.1154  -21.4382  -13.3685 N   0  0  0  0  0  0  0  0  0  0  0  0
   20.0656  -20.0768  -13.1418 C   0  0  0  0  0  0  0  0  0  0  0  0
   20.9120  -19.4623  -12.4394 O   0  0  0  0  0  0  0  0  0  0  0  0
   20.1426  -20.0215  -14.5565 N   0  0  0  0  0  0  0  0  0  0  0  0
   21.1545  -19.1199  -15.1309 C   0  0  1  0  0  0  0  0  0  0  0  0
   21.5743  -19.6836  -16.4326 C   0  0  0  0  0  0  0  0  0  0  0  0
   22.8733  -20.4077  -16.4242 C   0  0  0  0  0  0  0  0  0  0  0  0
   23.5692  -20.4262  -15.3785 O   0  0  0  0  0  0  0  0  0  0  0  0
   20.6038  -17.7676  -15.1111 C   0  0  0  0  0  0  0  0  0  0  0  0
   19.4252  -17.6061  -14.6422 O   0  0  0  0  0  0  0  0  0  0  0  0
   23.3374  -21.0709  -17.5632 O   0  0  0  0  0  0  0  0  0  0  0  0
   21.2506  -16.5990  -15.5612 N   0  0  0  0  0  0  0  0  0  0  0  0
   20.6493  -15.3116  -15.4158 C   0  0  1  0  0  0  0  0  0  0  0  0
   20.3632  -14.8935  -13.9905 C   0  0  0  0  0  0  0  0  0  0  0  0
   19.5145  -13.2661  -14.1207 S   0  0  0  0  0  0  0  0  0  0  0  0
   21.4466  -14.2331  -16.0509 C   0  0  0  0  0  0  0  0  0  0  0  0
   22.6959  -14.2211  -15.8453 O   0  0  0  0  0  0  0  0  0  0  0  0
   20.8804  -13.2665  -16.8389 O   0  0  0  0  0  0  0  0  0  0  0  0
  2  1  1  0
  2  3  1  0
  4  5  1  0
  4  3  1  0
  5  6  1  6
  7  5  1  0
  7  8  2  0
  9  7  1  0
 10  9  1  0
 10 14  1  0
 10 11  1  6
 12 13  2  0
 12 11  1  0
 14 17  1  0
 15 14  2  0
 16 12  1  0
 17 18  1  0
 18 21  1  0
 19 20  1  0
 18 19  1  1
 21 22  2  0
 21 23  1  0
M  END
$$$$
