MDC.pdb
     RDKit          3D

 23 22  0  0  1  0  0  0  0  0999 V2000
   17.0340  -14.3807  -15.1540 C   0  0  0  0  0  0  0  0  0  0  0  0
   17.2908  -12.6399  -14.7287 S   0  0  0  0  0  0  0  0  0  0  0  0
   16.3123  -11.5382  -15.8069 C   0  0  0  0  0  0  0  0  0  0  0  0
   16.6822  -10.0962  -15.4101 C   0  0  0  0  0  0  0  0  0  0  0  0
   15.7202   -9.7365  -14.3219 C   0  0  2  0  0  0  0  0  0  0  0  0
   14.3918   -9.6640  -14.8806 N   0  0  0  0  0  0  0  0  0  0  0  0
   16.0252   -8.5306  -13.5558 C   0  0  0  0  0  0  0  0  0  0  0  0
   15.5888   -7.4374  -14.0051 O   0  0  0  0  0  0  0  0  0  0  0  0
   16.7762   -8.5548  -12.3533 N   0  0  0  0  0  0  0  0  0  0  0  0
   17.1150   -7.2525  -11.7567 C   0  0  1  0  0  0  0  0  0  0  0  0
   16.5949   -7.2416  -10.3718 C   0  0  0  0  0  0  0  0  0  0  0  0
   16.9678   -6.0522   -9.5606 C   0  0  0  0  0  0  0  0  0  0  0  0
   17.5973   -5.1059  -10.0956 O   0  0  0  0  0  0  0  0  0  0  0  0
   18.5447   -7.0329  -11.9574 C   0  0  0  0  0  0  0  0  0  0  0  0
   19.3572   -7.9016  -11.4881 O   0  0  0  0  0  0  0  0  0  0  0  0
   16.6301   -5.9669   -8.2073 O   0  0  0  0  0  0  0  0  0  0  0  0
   19.1328   -5.9431  -12.6305 N   0  0  0  0  0  0  0  0  0  0  0  0
   20.5415   -5.8800  -12.8577 C   0  0  1  0  0  0  0  0  0  0  0  0
   21.0925   -6.9481  -13.7762 C   0  0  0  0  0  0  0  0  0  0  0  0
   22.8971   -6.6081  -13.8922 S   0  0  0  0  0  0  0  0  0  0  0  0
   20.9774   -4.5631  -13.3846 C   0  0  0  0  0  0  0  0  0  0  0  0
   20.0877   -3.7794  -13.8288 O   0  0  0  0  0  0  0  0  0  0  0  0
   22.2913   -4.1772  -13.4047 O   0  0  0  0  0  0  0  0  0  0  0  0
  2  1  1  0
  2  3  1  0
  4  5  1  0
  4  3  1  0
  5  6  1  6
  7  5  1  0
  7  8  2  0
  9  7  1  0
 10  9  1  0
 10 14  1  0
 10 11  1  1
 12 13  2  0
 12 11  1  0
 14 17  1  0
 15 14  2  0
 16 12  1  0
 17 18  1  0
 18 21  1  0
 19 20  1  0
 18 19  1  6
 21 22  2  0
 21 23  1  0
M  END
$$$$
