MDC.pdb
     RDKit          3D

 23 22  0  0  1  0  0  0  0  0999 V2000
   26.8323  -19.9447   -6.1051 C   0  0  0  0  0  0  0  0  0  0  0  0
   28.4252  -20.3538   -6.8621 S   0  0  0  0  0  0  0  0  0  0  0  0
   28.2053  -21.2834   -8.4182 C   0  0  0  0  0  0  0  0  0  0  0  0
   27.1760  -20.4992   -9.2545 C   0  0  0  0  0  0  0  0  0  0  0  0
   26.9819  -21.3163  -10.4929 C   0  0  2  0  0  0  0  0  0  0  0  0
   28.2667  -21.5342  -11.1124 N   0  0  0  0  0  0  0  0  0  0  0  0
   26.0190  -20.8054  -11.4655 C   0  0  0  0  0  0  0  0  0  0  0  0
   26.3567  -19.7905  -12.1314 O   0  0  0  0  0  0  0  0  0  0  0  0
   24.7510  -21.4037  -11.6770 N   0  0  0  0  0  0  0  0  0  0  0  0
   23.9894  -20.9464  -12.8507 C   0  0  1  0  0  0  0  0  0  0  0  0
   24.3975  -21.7768  -14.0050 C   0  0  0  0  0  0  0  0  0  0  0  0
   24.1092  -21.1941  -15.3426 C   0  0  0  0  0  0  0  0  0  0  0  0
   22.9327  -20.8692  -15.6400 O   0  0  0  0  0  0  0  0  0  0  0  0
   22.5768  -20.9271  -12.4810 C   0  0  0  0  0  0  0  0  0  0  0  0
   22.1376  -21.8710  -11.7386 O   0  0  0  0  0  0  0  0  0  0  0  0
   25.1271  -21.0007  -16.2802 O   0  0  0  0  0  0  0  0  0  0  0  0
   21.6299  -19.9554  -12.8627 N   0  0  0  0  0  0  0  0  0  0  0  0
   20.2679  -20.0361  -12.4402 C   0  0  1  0  0  0  0  0  0  0  0  0
   19.6606  -18.7304  -11.9768 C   0  0  0  0  0  0  0  0  0  0  0  0
   20.7495  -18.1424  -10.6151 S   0  0  0  0  0  0  0  0  0  0  0  0
   19.3780  -20.6022  -13.4840 C   0  0  0  0  0  0  0  0  0  0  0  0
   19.8642  -20.7907  -14.6378 O   0  0  0  0  0  0  0  0  0  0  0  0
   18.0684  -20.9207  -13.2405 O   0  0  0  0  0  0  0  0  0  0  0  0
  2  1  1  0
  2  3  1  0
  4  5  1  0
  4  3  1  0
  5  6  1  6
  7  5  1  0
  7  8  2  0
  9  7  1  0
 10  9  1  0
 10 14  1  0
 10 11  1  6
 12 13  2  0
 12 11  1  0
 14 17  1  0
 15 14  2  0
 16 12  1  0
 17 18  1  0
 18 21  1  0
 19 20  1  0
 18 19  1  6
 21 22  2  0
 21 23  1  0
M  END
$$$$
