MDC.pdb
     RDKit          3D

 23 22  0  0  1  0  0  0  0  0999 V2000
   32.9712  -23.6413  -10.7031 C   0  0  0  0  0  0  0  0  0  0  0  0
   32.5384  -22.1420   -9.7855 S   0  0  0  0  0  0  0  0  0  0  0  0
   31.8290  -20.8683  -10.8846 C   0  0  0  0  0  0  0  0  0  0  0  0
   30.6900  -21.5504  -11.6665 C   0  0  0  0  0  0  0  0  0  0  0  0
   29.4382  -20.8932  -11.1766 C   0  0  2  0  0  0  0  0  0  0  0  0
   29.2529  -21.2246   -9.7846 N   0  0  0  0  0  0  0  0  0  0  0  0
   28.2209  -21.1620  -11.9384 C   0  0  0  0  0  0  0  0  0  0  0  0
   28.3279  -21.9032  -12.9517 O   0  0  0  0  0  0  0  0  0  0  0  0
   26.9572  -20.6288  -11.5790 N   0  0  0  0  0  0  0  0  0  0  0  0
   25.7702  -21.3429  -12.0767 C   0  0  1  0  0  0  0  0  0  0  0  0
   25.0086  -21.8247  -10.9035 C   0  0  0  0  0  0  0  0  0  0  0  0
   23.8757  -20.9591  -10.4802 C   0  0  0  0  0  0  0  0  0  0  0  0
   23.9952  -20.2291   -9.4649 O   0  0  0  0  0  0  0  0  0  0  0  0
   25.0914  -20.4647  -13.0255 C   0  0  0  0  0  0  0  0  0  0  0  0
   25.2213  -19.2018  -12.8734 O   0  0  0  0  0  0  0  0  0  0  0  0
   22.6742  -20.9426  -11.1936 O   0  0  0  0  0  0  0  0  0  0  0  0
   24.2950  -20.8729  -14.1144 N   0  0  0  0  0  0  0  0  0  0  0  0
   23.5465  -19.9312  -14.8844 C   0  0  1  0  0  0  0  0  0  0  0  0
   24.0431  -19.7174  -16.2972 C   0  0  0  0  0  0  0  0  0  0  0  0
   22.8448  -18.5505  -17.0640 S   0  0  0  0  0  0  0  0  0  0  0  0
   22.1042  -20.2719  -14.9599 C   0  0  0  0  0  0  0  0  0  0  0  0
   21.7755  -21.4874  -14.8278 O   0  0  0  0  0  0  0  0  0  0  0  0
   21.1348  -19.3264  -15.1652 O   0  0  0  0  0  0  0  0  0  0  0  0
  2  1  1  0
  2  3  1  0
  4  5  1  0
  4  3  1  0
  5  6  1  1
  7  5  1  0
  7  8  2  0
  9  7  1  0
 10  9  1  0
 10 14  1  0
 10 11  1  1
 12 13  2  0
 12 11  1  0
 14 17  1  0
 15 14  2  0
 16 12  1  0
 17 18  1  0
 18 21  1  0
 19 20  1  0
 18 19  1  6
 21 22  2  0
 21 23  1  0
M  END
$$$$
