MDC.pdb
     RDKit          3D

 23 22  0  0  1  0  0  0  0  0999 V2000
   22.1202  -38.0748   -6.1770 C   0  0  0  0  0  0  0  0  0  0  0  0
   23.0204  -39.0319   -7.4224 S   0  0  0  0  0  0  0  0  0  0  0  0
   23.5612  -37.9777   -8.8117 C   0  0  0  0  0  0  0  0  0  0  0  0
   22.8472  -36.6236   -8.6369 C   0  0  0  0  0  0  0  0  0  0  0  0
   23.2941  -35.7984   -9.8024 C   0  0  2  0  0  0  0  0  0  0  0  0
   24.7215  -35.6059   -9.7160 N   0  0  0  0  0  0  0  0  0  0  0  0
   22.6111  -34.5216   -9.9959 C   0  0  0  0  0  0  0  0  0  0  0  0
   21.3513  -34.5373   -9.9992 O   0  0  0  0  0  0  0  0  0  0  0  0
   23.3064  -33.2986  -10.1735 N   0  0  0  0  0  0  0  0  0  0  0  0
   22.4948  -32.0707  -10.1900 C   0  0  1  0  0  0  0  0  0  0  0  0
   23.3136  -30.9808   -9.6153 C   0  0  0  0  0  0  0  0  0  0  0  0
   23.4970  -31.0316   -8.1404 C   0  0  0  0  0  0  0  0  0  0  0  0
   22.7972  -31.8158   -7.4523 O   0  0  0  0  0  0  0  0  0  0  0  0
   21.9759  -31.9018  -11.5445 C   0  0  0  0  0  0  0  0  0  0  0  0
   22.7681  -32.1252  -12.5230 O   0  0  0  0  0  0  0  0  0  0  0  0
   24.4373  -30.2189   -7.5016 O   0  0  0  0  0  0  0  0  0  0  0  0
   20.6662  -31.5137  -11.8916 N   0  0  0  0  0  0  0  0  0  0  0  0
   20.2620  -31.3924  -13.2562 C   0  0  1  0  0  0  0  0  0  0  0  0
   19.6014  -32.6206  -13.8420 C   0  0  0  0  0  0  0  0  0  0  0  0
   19.1449  -32.1550  -15.5626 S   0  0  0  0  0  0  0  0  0  0  0  0
   19.3547  -30.2403  -13.4836 C   0  0  0  0  0  0  0  0  0  0  0  0
   18.6191  -29.8675  -12.5228 O   0  0  0  0  0  0  0  0  0  0  0  0
   19.2904  -29.5801  -14.6818 O   0  0  0  0  0  0  0  0  0  0  0  0
  2  1  1  0
  2  3  1  0
  4  5  1  0
  4  3  1  0
  5  6  1  1
  7  5  1  0
  7  8  2  0
  9  7  1  0
 10  9  1  0
 10 14  1  0
 10 11  1  6
 12 13  2  0
 12 11  1  0
 14 17  1  0
 15 14  2  0
 16 12  1  0
 17 18  1  0
 18 21  1  0
 19 20  1  0
 18 19  1  1
 21 22  2  0
 21 23  1  0
M  END
$$$$
