MDC.pdb
     RDKit          3D

 23 22  0  0  1  0  0  0  0  0999 V2000
   23.7880  -13.3572  -17.0676 C   0  0  0  0  0  0  0  0  0  0  0  0
   24.7815  -13.3308  -15.5544 S   0  0  0  0  0  0  0  0  0  0  0  0
   26.3894  -14.1613  -15.7973 C   0  0  0  0  0  0  0  0  0  0  0  0
   26.0909  -15.4901  -16.5176 C   0  0  0  0  0  0  0  0  0  0  0  0
   25.6868  -16.4359  -15.4308 C   0  0  2  0  0  0  0  0  0  0  0  0
   26.8520  -16.7708  -14.6485 N   0  0  0  0  0  0  0  0  0  0  0  0
   24.9802  -17.6443  -15.8490 C   0  0  0  0  0  0  0  0  0  0  0  0
   24.0549  -17.5070  -16.6931 O   0  0  0  0  0  0  0  0  0  0  0  0
   25.2983  -18.9317  -15.3472 N   0  0  0  0  0  0  0  0  0  0  0  0
   24.4383  -20.0442  -15.7824 C   0  0  1  0  0  0  0  0  0  0  0  0
   25.1873  -21.3026  -15.5721 C   0  0  0  0  0  0  0  0  0  0  0  0
   26.4782  -21.4053  -16.3033 C   0  0  0  0  0  0  0  0  0  0  0  0
   26.5071  -21.2191  -17.5453 O   0  0  0  0  0  0  0  0  0  0  0  0
   23.1473  -19.8915  -15.1172 C   0  0  0  0  0  0  0  0  0  0  0  0
   23.1443  -19.6173  -13.8682 O   0  0  0  0  0  0  0  0  0  0  0  0
   27.6659  -21.7074  -15.6320 O   0  0  0  0  0  0  0  0  0  0  0  0
   21.8800  -20.0143  -15.7216 N   0  0  0  0  0  0  0  0  0  0  0  0
   20.6768  -19.8505  -14.9694 C   0  0  1  0  0  0  0  0  0  0  0  0
   19.9308  -18.5595  -15.2240 C   0  0  0  0  0  0  0  0  0  0  0  0
   19.6933  -18.4849  -17.0471 S   0  0  0  0  0  0  0  0  0  0  0  0
   19.7224  -20.9695  -15.1666 C   0  0  0  0  0  0  0  0  0  0  0  0
   18.7399  -21.0564  -14.3726 O   0  0  0  0  0  0  0  0  0  0  0  0
   19.8707  -21.8956  -16.1647 O   0  0  0  0  0  0  0  0  0  0  0  0
  2  1  1  0
  2  3  1  0
  4  5  1  0
  4  3  1  0
  5  6  1  6
  7  5  1  0
  7  8  2  0
  9  7  1  0
 10  9  1  0
 10 14  1  0
 10 11  1  1
 12 13  2  0
 12 11  1  0
 14 17  1  0
 15 14  2  0
 16 12  1  0
 17 18  1  0
 18 21  1  0
 19 20  1  0
 18 19  1  6
 21 22  2  0
 21 23  1  0
M  END
$$$$
