DFS.pdb
     RDKit          3D

 26 26  0  0  1  0  0  0  0  0999 V2000
   10.9330  -16.6514   20.0052 N   0  0  0  0  0  0  0  0  0  0  0  0
    9.7733  -16.9888   20.7089 C   0  0  1  0  0  0  0  0  0  0  0  0
    9.6282  -18.4309   21.0647 C   0  0  0  0  0  0  0  0  0  0  0  0
    9.4699  -19.3033   19.8821 C   0  0  0  0  0  0  0  0  0  0  0  0
    9.4242  -18.8607   18.7096 O   0  0  0  0  0  0  0  0  0  0  0  0
    9.7180  -16.2133   22.0015 C   0  0  0  0  0  0  0  0  0  0  0  0
   10.7854  -16.0485   22.6450 O   0  0  0  0  0  0  0  0  0  0  0  0
    9.3669  -20.6691   20.0709 O   0  0  0  0  0  0  0  0  0  0  0  0
    8.5015  -15.6828   22.4828 N   0  0  0  0  0  0  0  0  0  0  0  0
    8.4108  -14.9367   23.7038 C   0  0  1  0  0  0  0  0  0  0  0  0
    7.1976  -14.0456   23.7977 C   0  0  0  0  0  0  0  0  0  0  0  0
    7.1727  -13.3088   25.0841 C   0  0  0  0  0  0  0  0  0  0  0  0
    8.0159  -12.2616   25.2884 C   0  0  0  0  0  0  0  0  0  0  0  0
    7.9651  -11.6029   26.5138 C   0  0  0  0  0  0  0  0  0  0  0  0
    7.0816  -12.0164   27.4715 C   0  0  0  0  0  0  0  0  0  0  0  0
    6.2410  -13.0639   27.2611 C   0  0  0  0  0  0  0  0  0  0  0  0
    6.2718  -13.7285   26.0635 C   0  0  0  0  0  0  0  0  0  0  0  0
    8.5233  -15.8040   24.9243 C   0  0  0  0  0  0  0  0  0  0  0  0
    7.7158  -16.7548   24.9790 O   0  0  0  0  0  0  0  0  0  0  0  0
   10.3831  -18.7404   26.5110 O   0  0  0  0  0  0  0  0  0  0  0  0
   10.8731  -17.4437   26.4547 C   0  0  0  0  0  0  0  0  0  0  0  0
    9.8338  -16.4755   26.9527 C   0  0  2  0  0  0  0  0  0  0  0  0
    9.4754  -15.5544   25.9309 N   0  0  0  0  0  0  0  0  0  0  0  0
   10.2413  -15.8358   28.2470 C   0  0  0  0  0  0  0  0  0  0  0  0
   10.5821  -14.6431   28.2437 O   0  0  0  0  0  0  0  0  0  0  0  0
   10.2349  -16.5645   29.4134 O   0  0  0  0  0  0  0  0  0  0  0  0
  2  1  1  1
  2  3  1  0
  3  4  1  0
  4  8  1  0
  5  4  2  0
  6  2  1  0
  7  6  2  0
  9  6  1  0
 10 11  1  1
 10  9  1  0
 11 12  1  0
 12 13  2  0
 12 17  1  0
 13 14  1  0
 14 15  2  0
 16 15  1  0
 17 16  2  0
 18 10  1  0
 19 18  2  0
 20 21  1  0
 22 21  1  6
 22 23  1  0
 23 18  1  0
 24 22  1  0
 24 26  1  0
 25 24  2  0
M  END
$$$$
