DFS.pdb
     RDKit          3D

 26 26  0  0  1  0  0  0  0  0999 V2000
    7.5171  -14.7916   20.0013 N   0  0  0  0  0  0  0  0  0  0  0  0
    7.6678  -15.9620   20.7505 C   0  0  1  0  0  0  0  0  0  0  0  0
    8.4871  -17.0360   20.1162 C   0  0  0  0  0  0  0  0  0  0  0  0
    7.7462  -17.7934   19.0855 C   0  0  0  0  0  0  0  0  0  0  0  0
    7.3916  -17.2902   17.9930 O   0  0  0  0  0  0  0  0  0  0  0  0
    8.3193  -15.6402   22.0724 C   0  0  0  0  0  0  0  0  0  0  0  0
    9.4597  -15.1111   22.0629 O   0  0  0  0  0  0  0  0  0  0  0  0
    7.4272  -19.1160   19.3315 O   0  0  0  0  0  0  0  0  0  0  0  0
    7.6704  -15.9232   23.2938 N   0  0  0  0  0  0  0  0  0  0  0  0
    8.2720  -15.6636   24.5691 C   0  0  1  0  0  0  0  0  0  0  0  0
    7.2963  -15.2523   25.6432 C   0  0  0  0  0  0  0  0  0  0  0  0
    7.0976  -13.7830   25.6520 C   0  0  0  0  0  0  0  0  0  0  0  0
    7.9171  -12.9782   24.9241 C   0  0  0  0  0  0  0  0  0  0  0  0
    7.7002  -11.6036   24.9673 C   0  0  0  0  0  0  0  0  0  0  0  0
    6.6830  -11.0997   25.7290 C   0  0  0  0  0  0  0  0  0  0  0  0
    5.8670  -11.9097   26.4543 C   0  0  0  0  0  0  0  0  0  0  0  0
    6.0600  -13.2658   26.4285 C   0  0  0  0  0  0  0  0  0  0  0  0
    9.1342  -16.7966   25.0461 C   0  0  0  0  0  0  0  0  0  0  0  0
    8.5206  -17.8373   25.3615 O   0  0  0  0  0  0  0  0  0  0  0  0
   13.3765  -16.4067   25.4340 O   0  0  0  0  0  0  0  0  0  0  0  0
   12.7726  -17.5505   24.9322 C   0  0  0  0  0  0  0  0  0  0  0  0
   11.4083  -17.7261   25.5432 C   0  0  2  0  0  0  0  0  0  0  0  0
   10.5350  -16.6836   25.1289 N   0  0  0  0  0  0  0  0  0  0  0  0
   11.4825  -17.9168   27.0294 C   0  0  0  0  0  0  0  0  0  0  0  0
   10.8198  -17.1673   27.7627 O   0  0  0  0  0  0  0  0  0  0  0  0
   12.2734  -18.9074   27.5632 O   0  0  0  0  0  0  0  0  0  0  0  0
  2  1  1  6
  2  3  1  0
  3  4  1  0
  4  8  1  0
  5  4  2  0
  6  2  1  0
  7  6  2  0
  9  6  1  0
 10 11  1  1
 10  9  1  0
 11 12  1  0
 12 13  2  0
 12 17  1  0
 13 14  1  0
 14 15  2  0
 16 15  1  0
 17 16  2  0
 18 10  1  0
 19 18  2  0
 20 21  1  0
 22 21  1  1
 22 23  1  0
 23 18  1  0
 24 22  1  0
 24 26  1  0
 25 24  2  0
M  END
$$$$
