DFS.pdb
     RDKit          3D

 26 26  0  0  1  0  0  0  0  0999 V2000
    9.6032  -16.6669   19.0299 N   0  0  0  0  0  0  0  0  0  0  0  0
    8.8144  -17.1831   20.0619 C   0  0  1  0  0  0  0  0  0  0  0  0
    9.0582  -18.6137   20.4099 C   0  0  0  0  0  0  0  0  0  0  0  0
    8.7011  -19.5418   19.3163 C   0  0  0  0  0  0  0  0  0  0  0  0
    9.5367  -20.2932   18.7596 O   0  0  0  0  0  0  0  0  0  0  0  0
    9.0373  -16.3840   21.3218 C   0  0  0  0  0  0  0  0  0  0  0  0
   10.2182  -16.1047   21.6505 O   0  0  0  0  0  0  0  0  0  0  0  0
    7.3887  -19.5878   18.8836 O   0  0  0  0  0  0  0  0  0  0  0  0
    7.9517  -15.9573   22.1169 N   0  0  0  0  0  0  0  0  0  0  0  0
    8.1232  -15.1795   23.3091 C   0  0  1  0  0  0  0  0  0  0  0  0
    7.0338  -14.1645   23.5499 C   0  0  0  0  0  0  0  0  0  0  0  0
    7.2009  -13.5016   24.8656 C   0  0  0  0  0  0  0  0  0  0  0  0
    8.1863  -12.5823   25.0475 C   0  0  0  0  0  0  0  0  0  0  0  0
    8.3129  -11.9901   26.3011 C   0  0  0  0  0  0  0  0  0  0  0  0
    7.4565  -12.3399   27.3075 C   0  0  0  0  0  0  0  0  0  0  0  0
    6.4732  -13.2595   27.1193 C   0  0  0  0  0  0  0  0  0  0  0  0
    6.3281  -13.8566   25.8948 C   0  0  0  0  0  0  0  0  0  0  0  0
    8.3329  -16.0271   24.5306 C   0  0  0  0  0  0  0  0  0  0  0  0
    7.3639  -16.7452   24.8540 O   0  0  0  0  0  0  0  0  0  0  0  0
   12.0621  -17.1951   25.4663 O   0  0  0  0  0  0  0  0  0  0  0  0
   10.9248  -17.8756   25.8765 C   0  0  0  0  0  0  0  0  0  0  0  0
    9.8659  -16.8986   26.3120 C   0  0  2  0  0  0  0  0  0  0  0  0
    9.5405  -16.0065   25.2539 N   0  0  0  0  0  0  0  0  0  0  0  0
   10.2262  -16.2228   27.6019 C   0  0  0  0  0  0  0  0  0  0  0  0
   10.3032  -14.9850   27.6279 O   0  0  0  0  0  0  0  0  0  0  0  0
   10.4658  -16.9684   28.7325 O   0  0  0  0  0  0  0  0  0  0  0  0
  2  1  1  6
  2  3  1  0
  3  4  1  0
  4  8  1  0
  5  4  2  0
  6  2  1  0
  7  6  2  0
  9  6  1  0
 10 11  1  1
 10  9  1  0
 11 12  1  0
 12 13  2  0
 12 17  1  0
 13 14  1  0
 14 15  2  0
 16 15  1  0
 17 16  2  0
 18 10  1  0
 19 18  2  0
 20 21  1  0
 22 21  1  6
 22 23  1  0
 23 18  1  0
 24 22  1  0
 24 26  1  0
 25 24  2  0
M  END
$$$$
