DFS.pdb
     RDKit          3D

 26 26  0  0  1  0  0  0  0  0999 V2000
   10.9936  -16.6445   19.9816 N   0  0  0  0  0  0  0  0  0  0  0  0
    9.7537  -16.8925   20.5775 C   0  0  1  0  0  0  0  0  0  0  0  0
    9.4229  -18.3290   20.8104 C   0  0  0  0  0  0  0  0  0  0  0  0
    9.3111  -19.1052   19.5575 C   0  0  0  0  0  0  0  0  0  0  0  0
    8.9418  -20.3032   19.5283 O   0  0  0  0  0  0  0  0  0  0  0  0
    9.6874  -16.2068   21.9195 C   0  0  0  0  0  0  0  0  0  0  0  0
   10.7221  -16.1905   22.6334 O   0  0  0  0  0  0  0  0  0  0  0  0
    9.6267  -18.4879   18.3612 O   0  0  0  0  0  0  0  0  0  0  0  0
    8.4964  -15.5966   22.3690 N   0  0  0  0  0  0  0  0  0  0  0  0
    8.3855  -14.9658   23.6518 C   0  0  1  0  0  0  0  0  0  0  0  0
    7.3173  -13.9038   23.7308 C   0  0  0  0  0  0  0  0  0  0  0  0
    7.2541  -13.3078   25.0869 C   0  0  0  0  0  0  0  0  0  0  0  0
    6.1525  -13.4903   25.8630 C   0  0  0  0  0  0  0  0  0  0  0  0
    6.1315  -12.9062   27.1266 C   0  0  0  0  0  0  0  0  0  0  0  0
    7.2030  -12.1727   27.5541 C   0  0  0  0  0  0  0  0  0  0  0  0
    8.3016  -11.9942   26.7735 C   0  0  0  0  0  0  0  0  0  0  0  0
    8.3464  -12.5587   25.5260 C   0  0  0  0  0  0  0  0  0  0  0  0
    8.2314  -15.9525   24.7731 C   0  0  0  0  0  0  0  0  0  0  0  0
    7.1102  -16.4959   24.8548 O   0  0  0  0  0  0  0  0  0  0  0  0
   11.0783  -18.3640   25.7823 O   0  0  0  0  0  0  0  0  0  0  0  0
    9.7756  -18.5255   26.2314 C   0  0  0  0  0  0  0  0  0  0  0  0
    9.2235  -17.2071   26.7030 C   0  0  2  0  0  0  0  0  0  0  0  0
    9.2829  -16.2379   25.6645 N   0  0  0  0  0  0  0  0  0  0  0  0
    9.8493  -16.7693   27.9941 C   0  0  0  0  0  0  0  0  0  0  0  0
   10.3482  -15.6358   28.0633 O   0  0  0  0  0  0  0  0  0  0  0  0
    9.8664  -17.6150   29.0787 O   0  0  0  0  0  0  0  0  0  0  0  0
  2  1  1  1
  2  3  1  0
  3  4  1  0
  4  8  1  0
  5  4  2  0
  6  2  1  0
  7  6  2  0
  9  6  1  0
 10 11  1  6
 10  9  1  0
 11 12  1  0
 12 13  2  0
 12 17  1  0
 13 14  1  0
 14 15  2  0
 16 15  1  0
 17 16  2  0
 18 10  1  0
 19 18  2  0
 20 21  1  0
 22 21  1  6
 22 23  1  0
 23 18  1  0
 24 22  1  0
 24 26  1  0
 25 24  2  0
M  END
$$$$
