DFS.pdb
     RDKit          3D

 26 26  0  0  1  0  0  0  0  0999 V2000
    8.2273  -19.5400   16.8685 N   0  0  0  0  0  0  0  0  0  0  0  0
    9.4925  -18.9530   16.7767 C   0  0  1  0  0  0  0  0  0  0  0  0
    9.8880  -18.4755   15.4192 C   0  0  0  0  0  0  0  0  0  0  0  0
   10.0771  -19.5779   14.4529 C   0  0  0  0  0  0  0  0  0  0  0  0
    9.3251  -20.5804   14.4066 O   0  0  0  0  0  0  0  0  0  0  0  0
    9.5689  -17.7606   17.6975 C   0  0  0  0  0  0  0  0  0  0  0  0
   10.6463  -17.1149   17.7500 O   0  0  0  0  0  0  0  0  0  0  0  0
   11.1283  -19.5060   13.5577 O   0  0  0  0  0  0  0  0  0  0  0  0
    8.4619  -17.3736   18.4835 N   0  0  0  0  0  0  0  0  0  0  0  0
    8.5368  -16.3347   19.4688 C   0  0  1  0  0  0  0  0  0  0  0  0
    7.2129  -15.6866   19.7888 C   0  0  0  0  0  0  0  0  0  0  0  0
    7.3855  -14.5511   20.7265 C   0  0  0  0  0  0  0  0  0  0  0  0
    7.7292  -13.3223   20.2561 C   0  0  0  0  0  0  0  0  0  0  0  0
    7.8889  -12.2862   21.1721 C   0  0  0  0  0  0  0  0  0  0  0  0
    7.6994  -12.5223   22.5052 C   0  0  0  0  0  0  0  0  0  0  0  0
    7.3556  -13.7530   22.9692 C   0  0  0  0  0  0  0  0  0  0  0  0
    7.1926  -14.7892   22.0878 C   0  0  0  0  0  0  0  0  0  0  0  0
    9.2251  -16.7766   20.7279 C   0  0  0  0  0  0  0  0  0  0  0  0
    8.7652  -17.8127   21.2514 O   0  0  0  0  0  0  0  0  0  0  0  0
   13.0519  -16.1711   21.4883 O   0  0  0  0  0  0  0  0  0  0  0  0
   12.3069  -15.7638   22.5855 C   0  0  0  0  0  0  0  0  0  0  0  0
   10.9248  -16.3565   22.5215 C   0  0  2  0  0  0  0  0  0  0  0  0
   10.3115  -16.0659   21.2723 N   0  0  0  0  0  0  0  0  0  0  0  0
   10.1005  -15.9814   23.7174 C   0  0  0  0  0  0  0  0  0  0  0  0
    9.0360  -15.3692   23.5423 O   0  0  0  0  0  0  0  0  0  0  0  0
   10.5233  -16.3134   24.9834 O   0  0  0  0  0  0  0  0  0  0  0  0
  2  1  1  6
  2  3  1  0
  3  4  1  0
  4  8  1  0
  5  4  2  0
  6  2  1  0
  7  6  2  0
  9  6  1  0
 10 11  1  1
 10  9  1  0
 11 12  1  0
 12 13  2  0
 12 17  1  0
 13 14  1  0
 14 15  2  0
 16 15  1  0
 17 16  2  0
 18 10  1  0
 19 18  2  0
 20 21  1  0
 22 21  1  1
 22 23  1  0
 23 18  1  0
 24 22  1  0
 24 26  1  0
 25 24  2  0
M  END
$$$$
