DFS.pdb
     RDKit          3D

 26 26  0  0  1  0  0  0  0  0999 V2000
    9.1525  -17.3607   20.0232 N   0  0  0  0  0  0  0  0  0  0  0  0
   10.3886  -17.1756   20.6489 C   0  0  1  0  0  0  0  0  0  0  0  0
   11.4208  -16.4583   19.8443 C   0  0  0  0  0  0  0  0  0  0  0  0
   11.7073  -17.1191   18.5536 C   0  0  0  0  0  0  0  0  0  0  0  0
   12.3244  -16.5531   17.6200 O   0  0  0  0  0  0  0  0  0  0  0  0
   10.2024  -16.3872   21.9214 C   0  0  0  0  0  0  0  0  0  0  0  0
   11.2154  -16.1379   22.6229 O   0  0  0  0  0  0  0  0  0  0  0  0
   11.2782  -18.4193   18.3613 O   0  0  0  0  0  0  0  0  0  0  0  0
    8.9253  -15.9373   22.3207 N   0  0  0  0  0  0  0  0  0  0  0  0
    8.6826  -15.3265   23.5950 C   0  0  1  0  0  0  0  0  0  0  0  0
    7.4304  -14.4877   23.6526 C   0  0  0  0  0  0  0  0  0  0  0  0
    7.3399  -13.7479   24.9343 C   0  0  0  0  0  0  0  0  0  0  0  0
    6.4063  -14.0958   25.8599 C   0  0  0  0  0  0  0  0  0  0  0  0
    6.3508  -13.3694   27.0462 C   0  0  0  0  0  0  0  0  0  0  0  0
    7.2232  -12.3373   27.2526 C   0  0  0  0  0  0  0  0  0  0  0  0
    8.1544  -11.9946   26.3235 C   0  0  0  0  0  0  0  0  0  0  0  0
    8.2292  -12.6940   25.1478 C   0  0  0  0  0  0  0  0  0  0  0  0
    8.7083  -16.3132   24.7265 C   0  0  0  0  0  0  0  0  0  0  0  0
    7.6785  -17.0082   24.8514 O   0  0  0  0  0  0  0  0  0  0  0  0
   12.1890  -17.8364   26.1704 O   0  0  0  0  0  0  0  0  0  0  0  0
   10.9447  -18.4216   26.3549 C   0  0  0  0  0  0  0  0  0  0  0  0
    9.9153  -17.3653   26.6550 C   0  0  2  0  0  0  0  0  0  0  0  0
    9.8199  -16.4383   25.5813 N   0  0  0  0  0  0  0  0  0  0  0  0
   10.1370  -16.7352   27.9982 C   0  0  0  0  0  0  0  0  0  0  0  0
   10.1619  -17.4617   29.0032 O   0  0  0  0  0  0  0  0  0  0  0  0
   10.3088  -15.3749   28.1067 O   0  0  0  0  0  0  0  0  0  0  0  0
  2  1  1  6
  2  3  1  0
  3  4  1  0
  4  8  1  0
  5  4  2  0
  6  2  1  0
  7  6  2  0
  9  6  1  0
 10 11  1  6
 10  9  1  0
 11 12  1  0
 12 13  2  0
 12 17  1  0
 13 14  1  0
 14 15  2  0
 16 15  1  0
 17 16  2  0
 18 10  1  0
 19 18  2  0
 20 21  1  0
 22 21  1  6
 22 23  1  0
 23 18  1  0
 24 22  1  0
 24 26  1  0
 25 24  2  0
M  END
$$$$
