DFS.pdb
     RDKit          3D

 26 26  0  0  1  0  0  0  0  0999 V2000
    8.6508  -15.7284   20.9100 N   0  0  0  0  0  0  0  0  0  0  0  0
    9.4511  -16.5997   21.6543 C   0  0  1  0  0  0  0  0  0  0  0  0
   10.9019  -16.6052   21.3041 C   0  0  0  0  0  0  0  0  0  0  0  0
   11.1504  -16.9257   19.8827 C   0  0  0  0  0  0  0  0  0  0  0  0
   10.4845  -17.7793   19.2498 O   0  0  0  0  0  0  0  0  0  0  0  0
    9.3578  -16.2513   23.1190 C   0  0  0  0  0  0  0  0  0  0  0  0
   10.2701  -15.5499   23.6252 O   0  0  0  0  0  0  0  0  0  0  0  0
   12.1609  -16.2578   19.2161 O   0  0  0  0  0  0  0  0  0  0  0  0
    8.2757  -16.6983   23.9079 N   0  0  0  0  0  0  0  0  0  0  0  0
    8.1737  -16.4218   25.3110 C   0  0  1  0  0  0  0  0  0  0  0  0
    6.8694  -15.7875   25.7252 C   0  0  0  0  0  0  0  0  0  0  0  0
    7.0008  -14.3146   25.8334 C   0  0  0  0  0  0  0  0  0  0  0  0
    7.1301  -13.7277   27.0533 C   0  0  0  0  0  0  0  0  0  0  0  0
    7.2425  -12.3412   27.1098 C   0  0  0  0  0  0  0  0  0  0  0  0
    7.2211  -11.6100   25.9549 C   0  0  0  0  0  0  0  0  0  0  0  0
    7.0919  -12.2027   24.7384 C   0  0  0  0  0  0  0  0  0  0  0  0
    6.9795  -13.5657   24.6562 C   0  0  0  0  0  0  0  0  0  0  0  0
    8.4696  -17.6224   26.1628 C   0  0  0  0  0  0  0  0  0  0  0  0
    7.5261  -18.4299   26.2922 O   0  0  0  0  0  0  0  0  0  0  0  0
   12.2095  -18.9616   26.5025 O   0  0  0  0  0  0  0  0  0  0  0  0
   11.1345  -19.7657   26.8525 C   0  0  0  0  0  0  0  0  0  0  0  0
   10.0819  -18.9474   27.5511 C   0  0  2  0  0  0  0  0  0  0  0  0
    9.7255  -17.8150   26.7689 N   0  0  0  0  0  0  0  0  0  0  0  0
   10.4711  -18.6256   28.9637 C   0  0  0  0  0  0  0  0  0  0  0  0
   10.4983  -17.4382   29.3213 O   0  0  0  0  0  0  0  0  0  0  0  0
   10.7912  -19.6344   29.8422 O   0  0  0  0  0  0  0  0  0  0  0  0
  2  1  1  6
  2  3  1  0
  3  4  1  0
  4  8  1  0
  5  4  2  0
  6  2  1  0
  7  6  2  0
  9  6  1  0
 10 11  1  6
 10  9  1  0
 11 12  1  0
 12 13  2  0
 12 17  1  0
 13 14  1  0
 14 15  2  0
 16 15  1  0
 17 16  2  0
 18 10  1  0
 19 18  2  0
 20 21  1  0
 22 21  1  6
 22 23  1  0
 23 18  1  0
 24 22  1  0
 24 26  1  0
 25 24  2  0
M  END
$$$$
