DFS.pdb
     RDKit          3D

 26 26  0  0  1  0  0  0  0  0999 V2000
   11.1565  -16.5180   19.8348 N   0  0  0  0  0  0  0  0  0  0  0  0
    9.9306  -16.8000   20.4444 C   0  0  1  0  0  0  0  0  0  0  0  0
    9.6324  -18.2462   20.6607 C   0  0  0  0  0  0  0  0  0  0  0  0
    9.5041  -19.0034   19.3977 C   0  0  0  0  0  0  0  0  0  0  0  0
    8.6452  -18.7330   18.5249 O   0  0  0  0  0  0  0  0  0  0  0  0
    9.8696  -16.1353   21.7972 C   0  0  0  0  0  0  0  0  0  0  0  0
   10.9193  -16.0890   22.4874 O   0  0  0  0  0  0  0  0  0  0  0  0
   10.3669  -20.0580   19.1628 O   0  0  0  0  0  0  0  0  0  0  0  0
    8.6671  -15.5772   22.2823 N   0  0  0  0  0  0  0  0  0  0  0  0
    8.5640  -14.9624   23.5735 C   0  0  1  0  0  0  0  0  0  0  0  0
    7.4462  -13.9569   23.6944 C   0  0  0  0  0  0  0  0  0  0  0  0
    7.4079  -13.3595   25.0509 C   0  0  0  0  0  0  0  0  0  0  0  0
    8.4205  -12.5557   25.4726 C   0  0  0  0  0  0  0  0  0  0  0  0
    8.3484  -12.0222   26.7565 C   0  0  0  0  0  0  0  0  0  0  0  0
    7.2771  -12.3132   27.5542 C   0  0  0  0  0  0  0  0  0  0  0  0
    6.2677  -13.1173   27.1267 C   0  0  0  0  0  0  0  0  0  0  0  0
    6.3155  -13.6546   25.8673 C   0  0  0  0  0  0  0  0  0  0  0  0
    8.4947  -15.9640   24.6900 C   0  0  0  0  0  0  0  0  0  0  0  0
    7.4232  -16.6000   24.7701 O   0  0  0  0  0  0  0  0  0  0  0  0
   10.5138  -18.4182   25.0145 O   0  0  0  0  0  0  0  0  0  0  0  0
   10.3001  -18.3132   26.3813 C   0  0  0  0  0  0  0  0  0  0  0  0
    9.5431  -17.0498   26.6912 C   0  0  2  0  0  0  0  0  0  0  0  0
    9.5676  -16.1644   25.5791 N   0  0  0  0  0  0  0  0  0  0  0  0
    9.9915  -16.4328   27.9830 C   0  0  0  0  0  0  0  0  0  0  0  0
   10.3757  -15.2534   27.9812 O   0  0  0  0  0  0  0  0  0  0  0  0
    9.9745  -17.1675   29.1456 O   0  0  0  0  0  0  0  0  0  0  0  0
  2  1  1  1
  2  3  1  0
  3  4  1  0
  4  8  1  0
  5  4  2  0
  6  2  1  0
  7  6  2  0
  9  6  1  0
 10 11  1  6
 10  9  1  0
 11 12  1  0
 12 13  2  0
 12 17  1  0
 13 14  1  0
 14 15  2  0
 16 15  1  0
 17 16  2  0
 18 10  1  0
 19 18  2  0
 20 21  1  0
 22 21  1  6
 22 23  1  0
 23 18  1  0
 24 22  1  0
 24 26  1  0
 25 24  2  0
M  END
$$$$
