DFS.pdb
     RDKit          3D

 26 26  0  0  1  0  0  0  0  0999 V2000
   11.2496  -16.6930   20.2670 N   0  0  0  0  0  0  0  0  0  0  0  0
   10.2203  -17.1638   21.0872 C   0  0  1  0  0  0  0  0  0  0  0  0
   10.3962  -18.5477   21.6173 C   0  0  0  0  0  0  0  0  0  0  0  0
   10.1555  -19.5904   20.5977 C   0  0  0  0  0  0  0  0  0  0  0  0
   10.5918  -19.5105   19.4247 O   0  0  0  0  0  0  0  0  0  0  0  0
   10.0654  -16.2559   22.2819 C   0  0  0  0  0  0  0  0  0  0  0  0
   11.1022  -15.8861   22.8891 O   0  0  0  0  0  0  0  0  0  0  0  0
    9.4170  -20.7059   20.9471 O   0  0  0  0  0  0  0  0  0  0  0  0
    8.7909  -15.8283   22.7130 N   0  0  0  0  0  0  0  0  0  0  0  0
    8.6026  -14.9870   23.8586 C   0  0  1  0  0  0  0  0  0  0  0  0
    7.3294  -14.1787   23.8323 C   0  0  0  0  0  0  0  0  0  0  0  0
    7.1697  -13.3905   25.0779 C   0  0  0  0  0  0  0  0  0  0  0  0
    7.9475  -12.2972   25.2993 C   0  0  0  0  0  0  0  0  0  0  0  0
    7.7702  -11.5907   26.4857 C   0  0  0  0  0  0  0  0  0  0  0  0
    6.8318  -12.0046   27.3894 C   0  0  0  0  0  0  0  0  0  0  0  0
    6.0571  -13.0983   27.1621 C   0  0  0  0  0  0  0  0  0  0  0  0
    6.2125  -13.8106   26.0021 C   0  0  0  0  0  0  0  0  0  0  0  0
    8.7254  -15.7346   25.1549 C   0  0  0  0  0  0  0  0  0  0  0  0
    7.8436  -16.5945   25.3601 O   0  0  0  0  0  0  0  0  0  0  0  0
   12.2842  -16.4530   26.8172 O   0  0  0  0  0  0  0  0  0  0  0  0
   11.1273  -17.1457   27.1436 C   0  0  0  0  0  0  0  0  0  0  0  0
    9.9729  -16.1897   27.2808 C   0  0  2  0  0  0  0  0  0  0  0  0
    9.7650  -15.4768   26.0685 N   0  0  0  0  0  0  0  0  0  0  0  0
   10.1102  -15.3190   28.4946 C   0  0  0  0  0  0  0  0  0  0  0  0
   10.2621  -15.8562   29.6023 O   0  0  0  0  0  0  0  0  0  0  0  0
   10.0675  -13.9495   28.3746 O   0  0  0  0  0  0  0  0  0  0  0  0
  2  1  1  1
  2  3  1  0
  3  4  1  0
  4  8  1  0
  5  4  2  0
  6  2  1  0
  7  6  2  0
  9  6  1  0
 10 11  1  6
 10  9  1  0
 11 12  1  0
 12 13  2  0
 12 17  1  0
 13 14  1  0
 14 15  2  0
 16 15  1  0
 17 16  2  0
 18 10  1  0
 19 18  2  0
 20 21  1  0
 22 21  1  6
 22 23  1  0
 23 18  1  0
 24 22  1  0
 24 26  1  0
 25 24  2  0
M  END
$$$$
