DFS.pdb
     RDKit          3D

 26 26  0  0  1  0  0  0  0  0999 V2000
    9.2961  -17.1268   17.1052 N   0  0  0  0  0  0  0  0  0  0  0  0
   10.0502  -17.8309   18.0483 C   0  0  1  0  0  0  0  0  0  0  0  0
   11.2637  -18.5220   17.5218 C   0  0  0  0  0  0  0  0  0  0  0  0
   10.9504  -19.5240   16.4813 C   0  0  0  0  0  0  0  0  0  0  0  0
   11.5123  -19.5413   15.3603 O   0  0  0  0  0  0  0  0  0  0  0  0
   10.5193  -16.8904   19.1304 C   0  0  0  0  0  0  0  0  0  0  0  0
   11.4740  -16.1138   18.8737 O   0  0  0  0  0  0  0  0  0  0  0  0
    9.9962  -20.4877   16.7505 O   0  0  0  0  0  0  0  0  0  0  0  0
    9.9062  -16.8772   20.4019 N   0  0  0  0  0  0  0  0  0  0  0  0
   10.3653  -16.0442   21.4748 C   0  0  1  0  0  0  0  0  0  0  0  0
    9.2734  -15.2705   22.1705 C   0  0  0  0  0  0  0  0  0  0  0  0
    8.5589  -14.3824   21.2222 C   0  0  0  0  0  0  0  0  0  0  0  0
    7.3671  -14.7666   20.6917 C   0  0  0  0  0  0  0  0  0  0  0  0
    6.7342  -13.9059   19.7991 C   0  0  0  0  0  0  0  0  0  0  0  0
    7.3154  -12.7105   19.4797 C   0  0  0  0  0  0  0  0  0  0  0  0
    8.5069  -12.3320   20.0136 C   0  0  0  0  0  0  0  0  0  0  0  0
    9.1497  -13.1615   20.8944 C   0  0  0  0  0  0  0  0  0  0  0  0
   11.2003  -16.7916   22.4741 C   0  0  0  0  0  0  0  0  0  0  0  0
   10.6814  -17.8312   22.9313 O   0  0  0  0  0  0  0  0  0  0  0  0
   14.4360  -18.0430   21.4807 O   0  0  0  0  0  0  0  0  0  0  0  0
   13.7306  -18.3856   22.6251 C   0  0  0  0  0  0  0  0  0  0  0  0
   13.4745  -17.1606   23.4614 C   0  0  2  0  0  0  0  0  0  0  0  0
   12.4772  -16.3435   22.8623 N   0  0  0  0  0  0  0  0  0  0  0  0
   14.7456  -16.4385   23.7979 C   0  0  0  0  0  0  0  0  0  0  0  0
   15.6304  -17.0436   24.4220 O   0  0  0  0  0  0  0  0  0  0  0  0
   14.9206  -15.1282   23.4182 O   0  0  0  0  0  0  0  0  0  0  0  0
  2  1  1  6
  2  3  1  0
  3  4  1  0
  4  8  1  0
  5  4  2  0
  6  2  1  0
  7  6  2  0
  9  6  1  0
 10 11  1  1
 10  9  1  0
 11 12  1  0
 12 13  2  0
 12 17  1  0
 13 14  1  0
 14 15  2  0
 16 15  1  0
 17 16  2  0
 18 10  1  0
 19 18  2  0
 20 21  1  0
 22 21  1  6
 22 23  1  0
 23 18  1  0
 24 22  1  0
 24 26  1  0
 25 24  2  0
M  END
$$$$
