DFS.pdb
     RDKit          3D

 26 26  0  0  1  0  0  0  0  0999 V2000
    8.5919  -18.2886   18.1699 N   0  0  0  0  0  0  0  0  0  0  0  0
    9.8032  -17.7108   17.7792 C   0  0  1  0  0  0  0  0  0  0  0  0
    9.7288  -16.7698   16.6232 C   0  0  0  0  0  0  0  0  0  0  0  0
    9.4793  -17.4549   15.3375 C   0  0  0  0  0  0  0  0  0  0  0  0
    9.2956  -18.6923   15.2487 O   0  0  0  0  0  0  0  0  0  0  0  0
   10.3946  -16.9386   18.9323 C   0  0  0  0  0  0  0  0  0  0  0  0
   11.5186  -16.3980   18.7748 O   0  0  0  0  0  0  0  0  0  0  0  0
    9.4458  -16.7031   14.1776 O   0  0  0  0  0  0  0  0  0  0  0  0
    9.7085  -16.8219   20.1605 N   0  0  0  0  0  0  0  0  0  0  0  0
   10.2360  -16.0918   21.2761 C   0  0  1  0  0  0  0  0  0  0  0  0
    9.1898  -15.4094   22.1216 C   0  0  0  0  0  0  0  0  0  0  0  0
    8.3840  -14.4616   21.3147 C   0  0  0  0  0  0  0  0  0  0  0  0
    8.9025  -13.2567   20.9564 C   0  0  0  0  0  0  0  0  0  0  0  0
    8.1087  -12.3938   20.2057 C   0  0  0  0  0  0  0  0  0  0  0  0
    6.8438  -12.7706   19.8498 C   0  0  0  0  0  0  0  0  0  0  0  0
    6.3312  -13.9768   20.2109 C   0  0  0  0  0  0  0  0  0  0  0  0
    7.0925  -14.8436   20.9499 C   0  0  0  0  0  0  0  0  0  0  0  0
   11.1482  -16.9204   22.1338 C   0  0  0  0  0  0  0  0  0  0  0  0
   10.5983  -17.8619   22.7424 O   0  0  0  0  0  0  0  0  0  0  0  0
   15.2334  -16.8304   21.5097 O   0  0  0  0  0  0  0  0  0  0  0  0
   14.5617  -17.9176   22.0497 C   0  0  0  0  0  0  0  0  0  0  0  0
   13.4570  -17.4453   22.9564 C   0  0  2  0  0  0  0  0  0  0  0  0
   12.5252  -16.6471   22.2382 N   0  0  0  0  0  0  0  0  0  0  0  0
   13.9929  -16.8017   24.2010 C   0  0  0  0  0  0  0  0  0  0  0  0
   13.6591  -15.6361   24.4632 O   0  0  0  0  0  0  0  0  0  0  0  0
   14.8392  -17.4972   25.0326 O   0  0  0  0  0  0  0  0  0  0  0  0
  2  1  1  1
  2  3  1  0
  3  4  1  0
  4  8  1  0
  5  4  2  0
  6  2  1  0
  7  6  2  0
  9  6  1  0
 10 11  1  1
 10  9  1  0
 11 12  1  0
 12 13  2  0
 12 17  1  0
 13 14  1  0
 14 15  2  0
 16 15  1  0
 17 16  2  0
 18 10  1  0
 19 18  2  0
 20 21  1  0
 22 21  1  6
 22 23  1  0
 23 18  1  0
 24 22  1  0
 24 26  1  0
 25 24  2  0
M  END
$$$$
