TFR.pdb
     RDKit          3D

 30 30  0  0  1  0  0  0  0  0999 V2000
    7.8995  -22.3176   24.4043 C   0  0  0  0  0  0  0  0  0  0  0  0
    7.6943  -20.8194   24.2409 C   0  0  1  0  0  0  0  0  0  0  0  0
    7.6447  -20.5777   22.8660 O   0  0  0  0  0  0  0  0  0  0  0  0
    6.3452  -20.4130   24.8113 C   0  0  2  0  0  0  0  0  0  0  0  0
    5.3299  -21.0943   24.0612 N   0  0  0  0  0  0  0  0  0  0  0  0
    6.2553  -18.9271   24.6439 C   0  0  0  0  0  0  0  0  0  0  0  0
    5.5509  -18.4008   23.7522 O   0  0  0  0  0  0  0  0  0  0  0  0
    6.9880  -18.0833   25.5191 N   0  0  0  0  0  0  0  0  0  0  0  0
    6.9860  -16.6472   25.3612 C   0  0  1  0  0  0  0  0  0  0  0  0
    7.1446  -16.0396   26.7214 C   0  0  0  0  0  0  0  0  0  0  0  0
    7.1600  -14.5844   26.7463 C   0  0  0  0  0  0  0  0  0  0  0  0
    5.9994  -13.8587   26.7617 C   0  0  0  0  0  0  0  0  0  0  0  0
    6.0908  -12.4850   26.7850 C   0  0  0  0  0  0  0  0  0  0  0  0
    7.2948  -11.8218   26.7933 C   0  0  0  0  0  0  0  0  0  0  0  0
    8.4583  -12.5479   26.7779 C   0  0  0  0  0  0  0  0  0  0  0  0
    8.3610  -13.9215   26.7546 C   0  0  0  0  0  0  0  0  0  0  0  0
    8.0257  -16.2752   24.4017 C   0  0  0  0  0  0  0  0  0  0  0  0
    9.1223  -16.8776   24.2621 O   0  0  0  0  0  0  0  0  0  0  0  0
    7.5436  -15.0405   17.3259 N   0  0  0  0  0  0  0  0  0  0  0  0
    8.1823  -13.8251   16.9757 C   0  0  0  0  0  0  0  0  0  0  0  0
    8.6136  -13.7420   15.7416 N   0  0  0  0  0  0  0  0  0  0  0  0
    8.3527  -12.7556   17.8902 N   0  0  0  0  0  0  0  0  0  0  0  0
    7.7813  -12.8410   19.1986 C   0  0  0  0  0  0  0  0  0  0  0  0
    8.5918  -13.7532   20.1179 C   0  0  0  0  0  0  0  0  0  0  0  0
    7.9131  -13.9701   21.4227 C   0  0  0  0  0  0  0  0  0  0  0  0
    8.5110  -15.1028   22.2228 C   0  0  2  0  0  0  0  0  0  0  0  0
    7.8356  -15.1587   23.5383 N   0  0  0  0  0  0  0  0  0  0  0  0
    9.9242  -14.7813   22.4992 C   0  0  0  0  0  0  0  0  0  0  0  0
   10.4299  -14.3410   23.7122 O   0  0  0  0  0  0  0  0  0  0  0  0
   10.7609  -14.9090   21.5658 O   0  0  0  0  0  0  0  0  0  0  0  0
  2  1  1  6
  2  3  1  0
  4  2  1  0
  4  5  1  6
  6  4  1  0
  7  6  2  0
  8  6  1  0
  9  8  1  0
  9 10  1  1
 10 11  1  0
 11 12  2  0
 12 13  1  0
 14 13  2  0
 15 14  1  0
 16 11  1  0
 16 15  2  0
 17 18  2  0
 17  9  1  0
 19 20  1  0
 20 22  1  0
 21 20  2  0
 22 23  1  0
 24 25  1  0
 24 23  1  0
 26 25  1  6
 26 27  1  0
 27 17  1  0
 28 26  1  0
 29 28  1  0
 30 28  2  0
M  END
$$$$
