TFR.pdb
     RDKit          3D

 30 30  0  0  1  0  0  0  0  0999 V2000
    6.6641  -20.9016   24.8048 C   0  0  0  0  0  0  0  0  0  0  0  0
    6.1578  -20.7631   23.3772 C   0  0  1  0  0  0  0  0  0  0  0  0
    5.4517  -21.9350   23.0957 O   0  0  0  0  0  0  0  0  0  0  0  0
    5.1656  -19.6151   23.2855 C   0  0  2  0  0  0  0  0  0  0  0  0
    4.5159  -19.6993   22.0094 N   0  0  0  0  0  0  0  0  0  0  0  0
    5.9719  -18.3593   23.4154 C   0  0  0  0  0  0  0  0  0  0  0  0
    6.6905  -17.9321   22.4829 O   0  0  0  0  0  0  0  0  0  0  0  0
    5.9252  -17.6257   24.6296 N   0  0  0  0  0  0  0  0  0  0  0  0
    6.7648  -16.4701   24.8467 C   0  0  1  0  0  0  0  0  0  0  0  0
    6.1618  -15.6726   25.9625 C   0  0  0  0  0  0  0  0  0  0  0  0
    6.7981  -14.3878   26.2129 C   0  0  0  0  0  0  0  0  0  0  0  0
    6.4140  -13.2584   25.5415 C   0  0  0  0  0  0  0  0  0  0  0  0
    7.0608  -12.0776   25.8303 C   0  0  0  0  0  0  0  0  0  0  0  0
    8.0694  -11.9927   26.7604 C   0  0  0  0  0  0  0  0  0  0  0  0
    8.4550  -13.1236   27.4337 C   0  0  0  0  0  0  0  0  0  0  0  0
    7.8048  -14.3018   27.1409 C   0  0  0  0  0  0  0  0  0  0  0  0
    8.1354  -16.9200   25.0896 C   0  0  0  0  0  0  0  0  0  0  0  0
    8.4520  -18.0659   25.5037 O   0  0  0  0  0  0  0  0  0  0  0  0
   14.0257  -18.7089   22.1431 N   0  0  0  0  0  0  0  0  0  0  0  0
   13.5854  -18.6268   20.7989 C   0  0  0  0  0  0  0  0  0  0  0  0
   13.6912  -19.7268   20.0954 N   0  0  0  0  0  0  0  0  0  0  0  0
   13.0604  -17.4376   20.2337 N   0  0  0  0  0  0  0  0  0  0  0  0
   11.8847  -16.8441   20.7915 C   0  0  0  0  0  0  0  0  0  0  0  0
   11.8934  -16.8844   22.3187 C   0  0  0  0  0  0  0  0  0  0  0  0
   10.6094  -16.4036   22.8935 C   0  0  0  0  0  0  0  0  0  0  0  0
   10.5324  -16.5638   24.3932 C   0  0  2  0  0  0  0  0  0  0  0  0
    9.2293  -16.0381   24.8572 N   0  0  0  0  0  0  0  0  0  0  0  0
   11.5642  -15.7052   25.0058 C   0  0  0  0  0  0  0  0  0  0  0  0
   12.8536  -16.0976   25.3287 O   0  0  0  0  0  0  0  0  0  0  0  0
   11.2690  -14.5087   25.2683 O   0  0  0  0  0  0  0  0  0  0  0  0
  2  1  1  1
  2  3  1  0
  4  2  1  0
  4  5  1  6
  6  4  1  0
  7  6  2  0
  8  6  1  0
  9  8  1  0
  9 10  1  1
 10 11  1  0
 11 12  2  0
 12 13  1  0
 14 13  2  0
 15 14  1  0
 16 11  1  0
 16 15  2  0
 17 18  2  0
 17  9  1  0
 19 20  1  0
 20 22  1  0
 21 20  2  0
 22 23  1  0
 24 25  1  0
 24 23  1  0
 26 25  1  6
 26 27  1  0
 27 17  1  0
 28 26  1  0
 29 28  1  0
 30 28  2  0
M  END
$$$$
