TFR.pdb
     RDKit          3D

 30 30  0  0  1  0  0  0  0  0999 V2000
    8.1871  -18.6866   18.8995 C   0  0  0  0  0  0  0  0  0  0  0  0
    8.5655  -17.9540   20.1777 C   0  0  1  0  0  0  0  0  0  0  0  0
    9.7810  -18.4993   20.5974 O   0  0  0  0  0  0  0  0  0  0  0  0
    8.8180  -16.4847   19.8807 C   0  0  2  0  0  0  0  0  0  0  0  0
    9.9580  -16.4031   19.0139 N   0  0  0  0  0  0  0  0  0  0  0  0
    9.0800  -15.8337   21.2042 C   0  0  0  0  0  0  0  0  0  0  0  0
   10.2310  -15.7614   21.6923 O   0  0  0  0  0  0  0  0  0  0  0  0
    7.9954  -15.2794   21.9331 N   0  0  0  0  0  0  0  0  0  0  0  0
    8.1780  -14.7269   23.2555 C   0  0  1  0  0  0  0  0  0  0  0  0
    7.0000  -13.8488   23.5484 C   0  0  0  0  0  0  0  0  0  0  0  0
    6.9591  -13.3059   24.8983 C   0  0  0  0  0  0  0  0  0  0  0  0
    5.9891  -13.6800   25.7887 C   0  0  0  0  0  0  0  0  0  0  0  0
    6.0130  -13.1251   27.0488 C   0  0  0  0  0  0  0  0  0  0  0  0
    6.9674  -12.2171   27.4413 C   0  0  0  0  0  0  0  0  0  0  0  0
    7.9398  -11.8416   26.5499 C   0  0  0  0  0  0  0  0  0  0  0  0
    7.9111  -12.3996   25.2912 C   0  0  0  0  0  0  0  0  0  0  0  0
    8.3723  -15.8237   24.2038 C   0  0  0  0  0  0  0  0  0  0  0  0
    7.5438  -16.7486   24.4111 O   0  0  0  0  0  0  0  0  0  0  0  0
   12.7721  -21.9410   23.7893 N   0  0  0  0  0  0  0  0  0  0  0  0
   12.4812  -21.1707   22.6362 C   0  0  0  0  0  0  0  0  0  0  0  0
   12.3426  -21.8433   21.5206 N   0  0  0  0  0  0  0  0  0  0  0  0
   12.3452  -19.7602   22.6688 N   0  0  0  0  0  0  0  0  0  0  0  0
   12.3867  -19.0706   23.9212 C   0  0  0  0  0  0  0  0  0  0  0  0
   11.0401  -18.4396   24.2711 C   0  0  0  0  0  0  0  0  0  0  0  0
   11.0938  -17.6953   25.5570 C   0  0  0  0  0  0  0  0  0  0  0  0
    9.7879  -17.0241   25.9104 C   0  0  2  0  0  0  0  0  0  0  0  0
    9.5675  -15.8992   24.9745 N   0  0  0  0  0  0  0  0  0  0  0  0
    9.9220  -16.4236   27.2514 C   0  0  0  0  0  0  0  0  0  0  0  0
   10.0285  -15.0685   27.5223 O   0  0  0  0  0  0  0  0  0  0  0  0
    9.9457  -17.1901   28.2511 O   0  0  0  0  0  0  0  0  0  0  0  0
  2  1  1  6
  2  3  1  0
  4  2  1  0
  4  5  1  6
  6  4  1  0
  7  6  2  0
  8  6  1  0
  9  8  1  0
  9 10  1  1
 10 11  1  0
 11 12  2  0
 12 13  1  0
 14 13  2  0
 15 14  1  0
 16 11  1  0
 16 15  2  0
 17 18  2  0
 17  9  1  0
 19 20  1  0
 20 22  1  0
 21 20  2  0
 22 23  1  0
 24 25  1  0
 24 23  1  0
 26 25  1  6
 26 27  1  0
 27 17  1  0
 28 26  1  0
 29 28  1  0
 30 28  2  0
M  END
$$$$
