TFR.pdb
     RDKit          3D

 30 30  0  0  1  0  0  0  0  0999 V2000
    9.8024  -17.3968   17.6732 C   0  0  0  0  0  0  0  0  0  0  0  0
    9.9372  -16.5931   18.9576 C   0  0  1  0  0  0  0  0  0  0  0  0
    9.2800  -15.3811   18.7329 O   0  0  0  0  0  0  0  0  0  0  0  0
    9.2022  -17.2927   20.0894 C   0  0  2  0  0  0  0  0  0  0  0  0
    7.8086  -17.3263   19.7512 N   0  0  0  0  0  0  0  0  0  0  0  0
    9.4553  -16.4725   21.3171 C   0  0  0  0  0  0  0  0  0  0  0  0
   10.5965  -16.3680   21.8222 O   0  0  0  0  0  0  0  0  0  0  0  0
    8.3735  -15.7899   21.9323 N   0  0  0  0  0  0  0  0  0  0  0  0
    8.5295  -15.1144   23.1999 C   0  0  1  0  0  0  0  0  0  0  0  0
    7.4543  -14.0757   23.2974 C   0  0  0  0  0  0  0  0  0  0  0  0
    7.4016  -13.3632   24.5655 C   0  0  0  0  0  0  0  0  0  0  0  0
    6.5719  -13.7667   25.5767 C   0  0  0  0  0  0  0  0  0  0  0  0
    6.5751  -13.0443   26.7490 C   0  0  0  0  0  0  0  0  0  0  0  0
    7.3744  -11.9422   26.9387 C   0  0  0  0  0  0  0  0  0  0  0  0
    8.2061  -11.5370   25.9262 C   0  0  0  0  0  0  0  0  0  0  0  0
    8.1988  -12.2632   24.7561 C   0  0  0  0  0  0  0  0  0  0  0  0
    8.5152  -16.1101   24.2715 C   0  0  0  0  0  0  0  0  0  0  0  0
    7.6009  -16.9563   24.4529 O   0  0  0  0  0  0  0  0  0  0  0  0
   13.7335  -20.0372   21.8050 N   0  0  0  0  0  0  0  0  0  0  0  0
   13.7288  -18.7260   22.3420 C   0  0  0  0  0  0  0  0  0  0  0  0
   14.0738  -17.7697   21.5159 N   0  0  0  0  0  0  0  0  0  0  0  0
   13.3759  -18.4477   23.6863 N   0  0  0  0  0  0  0  0  0  0  0  0
   12.3508  -19.2135   24.3255 C   0  0  0  0  0  0  0  0  0  0  0  0
   11.0793  -18.3957   24.5452 C   0  0  0  0  0  0  0  0  0  0  0  0
   10.8593  -18.0879   25.9829 C   0  0  0  0  0  0  0  0  0  0  0  0
    9.6346  -17.2391   26.2286 C   0  0  2  0  0  0  0  0  0  0  0  0
    9.5886  -16.1707   25.2056 N   0  0  0  0  0  0  0  0  0  0  0  0
    9.7939  -16.5583   27.5278 C   0  0  0  0  0  0  0  0  0  0  0  0
    9.7485  -17.1698   28.7707 O   0  0  0  0  0  0  0  0  0  0  0  0
    9.9872  -15.3132   27.5316 O   0  0  0  0  0  0  0  0  0  0  0  0
  2  1  1  6
  2  3  1  0
  4  2  1  0
  4  5  1  6
  6  4  1  0
  7  6  2  0
  8  6  1  0
  9  8  1  0
  9 10  1  1
 10 11  1  0
 11 12  2  0
 12 13  1  0
 14 13  2  0
 15 14  1  0
 16 11  1  0
 16 15  2  0
 17 18  2  0
 17  9  1  0
 19 20  1  0
 20 22  1  0
 21 20  2  0
 22 23  1  0
 24 25  1  0
 24 23  1  0
 26 25  1  6
 26 27  1  0
 27 17  1  0
 28 26  1  0
 29 28  1  0
 30 28  2  0
M  END
$$$$
