TFR.pdb
     RDKit          3D

 30 30  0  0  1  0  0  0  0  0999 V2000
    8.0526  -16.3779   18.9780 C   0  0  0  0  0  0  0  0  0  0  0  0
    8.4277  -15.0455   18.3473 C   0  0  1  0  0  0  0  0  0  0  0  0
    8.0559  -15.1289   17.0035 O   0  0  0  0  0  0  0  0  0  0  0  0
    7.6057  -13.9265   18.9660 C   0  0  2  0  0  0  0  0  0  0  0  0
    7.8227  -12.7419   18.1866 N   0  0  0  0  0  0  0  0  0  0  0  0
    8.1101  -13.7682   20.3676 C   0  0  0  0  0  0  0  0  0  0  0  0
    9.2815  -13.4005   20.6142 O   0  0  0  0  0  0  0  0  0  0  0  0
    7.2394  -14.0414   21.4548 N   0  0  0  0  0  0  0  0  0  0  0  0
    7.6674  -13.8775   22.8249 C   0  0  1  0  0  0  0  0  0  0  0  0
    6.4682  -13.4839   23.6322 C   0  0  0  0  0  0  0  0  0  0  0  0
    6.7343  -13.2195   25.0385 C   0  0  0  0  0  0  0  0  0  0  0  0
    7.0342  -11.9602   25.4835 C   0  0  0  0  0  0  0  0  0  0  0  0
    7.2743  -11.7847   26.8280 C   0  0  0  0  0  0  0  0  0  0  0  0
    7.2242  -12.8193   27.7316 C   0  0  0  0  0  0  0  0  0  0  0  0
    6.9237  -14.0815   27.2869 C   0  0  0  0  0  0  0  0  0  0  0  0
    6.6845  -14.2513   25.9413 C   0  0  0  0  0  0  0  0  0  0  0  0
    8.3229  -15.1085   23.2663 C   0  0  0  0  0  0  0  0  0  0  0  0
    7.8438  -16.2649   23.1319 O   0  0  0  0  0  0  0  0  0  0  0  0
   16.8875  -17.0733   22.9287 N   0  0  0  0  0  0  0  0  0  0  0  0
   16.2869  -18.1598   23.6114 C   0  0  0  0  0  0  0  0  0  0  0  0
   17.0751  -19.1711   23.8800 N   0  0  0  0  0  0  0  0  0  0  0  0
   14.9204  -18.1695   23.9882 N   0  0  0  0  0  0  0  0  0  0  0  0
   14.0664  -17.0922   23.5932 C   0  0  0  0  0  0  0  0  0  0  0  0
   12.6327  -17.2906   24.0821 C   0  0  0  0  0  0  0  0  0  0  0  0
   11.7898  -16.0923   23.8297 C   0  0  0  0  0  0  0  0  0  0  0  0
   10.3406  -16.2954   24.2032 C   0  0  2  0  0  0  0  0  0  0  0  0
    9.5971  -15.0523   23.9001 N   0  0  0  0  0  0  0  0  0  0  0  0
   10.2586  -16.4780   25.6650 C   0  0  0  0  0  0  0  0  0  0  0  0
    9.6700  -15.5957   26.5571 O   0  0  0  0  0  0  0  0  0  0  0  0
   10.7620  -17.5179   26.1676 O   0  0  0  0  0  0  0  0  0  0  0  0
  2  1  1  1
  2  3  1  0
  4  2  1  0
  4  5  1  6
  6  4  1  0
  7  6  2  0
  8  6  1  0
  9  8  1  0
  9 10  1  1
 10 11  1  0
 11 12  2  0
 12 13  1  0
 14 13  2  0
 15 14  1  0
 16 11  1  0
 16 15  2  0
 17 18  2  0
 17  9  1  0
 19 20  1  0
 20 22  1  0
 21 20  2  0
 22 23  1  0
 24 25  1  0
 24 23  1  0
 26 25  1  1
 26 27  1  0
 27 17  1  0
 28 26  1  0
 29 28  1  0
 30 28  2  0
M  END
$$$$
