TFR.pdb
     RDKit          3D

 30 30  0  0  1  0  0  0  0  0999 V2000
    7.9715  -19.0688   18.9275 C   0  0  0  0  0  0  0  0  0  0  0  0
    8.3801  -18.2602   20.1492 C   0  0  1  0  0  0  0  0  0  0  0  0
    9.6565  -18.7031   20.5041 O   0  0  0  0  0  0  0  0  0  0  0  0
    8.5070  -16.7905   19.7826 C   0  0  2  0  0  0  0  0  0  0  0  0
    9.5262  -16.6761   18.7797 N   0  0  0  0  0  0  0  0  0  0  0  0
    8.8891  -16.0801   21.0449 C   0  0  0  0  0  0  0  0  0  0  0  0
   10.0819  -15.8240   21.3277 O   0  0  0  0  0  0  0  0  0  0  0  0
    7.8737  -15.6820   21.9533 N   0  0  0  0  0  0  0  0  0  0  0  0
    8.1891  -14.9997   23.1871 C   0  0  1  0  0  0  0  0  0  0  0  0
    7.0240  -14.1236   23.5333 C   0  0  0  0  0  0  0  0  0  0  0  0
    7.1243  -13.4476   24.8183 C   0  0  0  0  0  0  0  0  0  0  0  0
    7.9140  -12.3416   24.9831 C   0  0  0  0  0  0  0  0  0  0  0  0
    7.9599  -11.7539   26.2275 C   0  0  0  0  0  0  0  0  0  0  0  0
    7.2477  -12.2334   27.3009 C   0  0  0  0  0  0  0  0  0  0  0  0
    6.4562  -13.3415   27.1370 C   0  0  0  0  0  0  0  0  0  0  0  0
    6.4140  -13.9252   25.8904 C   0  0  0  0  0  0  0  0  0  0  0  0
    8.5280  -15.9946   24.2046 C   0  0  0  0  0  0  0  0  0  0  0  0
    7.8339  -17.0093   24.4757 O   0  0  0  0  0  0  0  0  0  0  0  0
   14.4887  -20.7910   22.3221 N   0  0  0  0  0  0  0  0  0  0  0  0
   14.0643  -19.8730   23.3144 C   0  0  0  0  0  0  0  0  0  0  0  0
   13.7888  -20.3873   24.4873 N   0  0  0  0  0  0  0  0  0  0  0  0
   13.9398  -18.4821   23.0714 N   0  0  0  0  0  0  0  0  0  0  0  0
   13.5094  -17.6124   24.1222 C   0  0  0  0  0  0  0  0  0  0  0  0
   12.0835  -17.9235   24.5737 C   0  0  0  0  0  0  0  0  0  0  0  0
   11.6715  -17.0826   25.7284 C   0  0  0  0  0  0  0  0  0  0  0  0
   10.1732  -16.9474   25.8608 C   0  0  2  0  0  0  0  0  0  0  0  0
    9.7184  -15.8538   24.9737 N   0  0  0  0  0  0  0  0  0  0  0  0
    9.8653  -16.5155   27.2376 C   0  0  0  0  0  0  0  0  0  0  0  0
    9.8862  -17.3259   28.3618 O   0  0  0  0  0  0  0  0  0  0  0  0
    9.5523  -15.3105   27.4313 O   0  0  0  0  0  0  0  0  0  0  0  0
  2  1  1  6
  2  3  1  0
  4  2  1  0
  4  5  1  6
  6  4  1  0
  7  6  2  0
  8  6  1  0
  9  8  1  0
  9 10  1  1
 10 11  1  0
 11 12  2  0
 12 13  1  0
 14 13  2  0
 15 14  1  0
 16 11  1  0
 16 15  2  0
 17 18  2  0
 17  9  1  0
 19 20  1  0
 20 22  1  0
 21 20  2  0
 22 23  1  0
 24 25  1  0
 24 23  1  0
 26 25  1  1
 26 27  1  0
 27 17  1  0
 28 26  1  0
 29 28  1  0
 30 28  2  0
M  END
$$$$
