TFR.pdb
     RDKit          3D

 30 30  0  0  1  0  0  0  0  0999 V2000
    8.6031  -20.3874   16.8947 C   0  0  0  0  0  0  0  0  0  0  0  0
    9.3507  -19.5383   17.9115 C   0  0  1  0  0  0  0  0  0  0  0  0
   10.7101  -19.6988   17.6331 O   0  0  0  0  0  0  0  0  0  0  0  0
    9.0259  -18.0682   17.7019 C   0  0  2  0  0  0  0  0  0  0  0  0
    9.5400  -17.6851   16.4187 N   0  0  0  0  0  0  0  0  0  0  0  0
    9.7063  -17.3310   18.8144 C   0  0  0  0  0  0  0  0  0  0  0  0
   10.7733  -16.6996   18.6375 O   0  0  0  0  0  0  0  0  0  0  0  0
    9.1300  -17.3438   20.1115 N   0  0  0  0  0  0  0  0  0  0  0  0
    9.6402  -16.5069   21.1730 C   0  0  1  0  0  0  0  0  0  0  0  0
    8.4661  -15.9670   21.9309 C   0  0  0  0  0  0  0  0  0  0  0  0
    7.8591  -14.7755   21.3561 C   0  0  0  0  0  0  0  0  0  0  0  0
    8.4464  -13.5452   21.4793 C   0  0  0  0  0  0  0  0  0  0  0  0
    7.8149  -12.4623   20.9096 C   0  0  0  0  0  0  0  0  0  0  0  0
    6.6265  -12.5710   20.2276 C   0  0  0  0  0  0  0  0  0  0  0  0
    6.0372  -13.8033   20.1035 C   0  0  0  0  0  0  0  0  0  0  0  0
    6.6730  -14.8828   20.6752 C   0  0  0  0  0  0  0  0  0  0  0  0
   10.5809  -17.2854   21.9785 C   0  0  0  0  0  0  0  0  0  0  0  0
   10.3440  -18.4257   22.4567 O   0  0  0  0  0  0  0  0  0  0  0  0
   18.7307  -18.7107   22.5212 N   0  0  0  0  0  0  0  0  0  0  0  0
   18.6130  -18.3718   23.8919 C   0  0  0  0  0  0  0  0  0  0  0  0
   19.4926  -18.9202   24.6930 N   0  0  0  0  0  0  0  0  0  0  0  0
   17.6127  -17.4963   24.3836 N   0  0  0  0  0  0  0  0  0  0  0  0
   16.6398  -16.9531   23.4868 C   0  0  0  0  0  0  0  0  0  0  0  0
   15.2859  -17.6475   23.6233 C   0  0  0  0  0  0  0  0  0  0  0  0
   14.2198  -16.9374   22.8688 C   0  0  0  0  0  0  0  0  0  0  0  0
   12.8594  -17.5760   23.0185 C   0  0  2  0  0  0  0  0  0  0  0  0
   11.8725  -16.7629   22.2736 N   0  0  0  0  0  0  0  0  0  0  0  0
   12.4653  -17.5027   24.4384 C   0  0  0  0  0  0  0  0  0  0  0  0
   11.5373  -16.6238   24.9744 O   0  0  0  0  0  0  0  0  0  0  0  0
   13.0076  -18.2973   25.2521 O   0  0  0  0  0  0  0  0  0  0  0  0
  2  1  1  6
  2  3  1  0
  4  2  1  0
  4  5  1  6
  6  4  1  0
  7  6  2  0
  8  6  1  0
  9  8  1  0
  9 10  1  1
 10 11  1  0
 11 12  2  0
 12 13  1  0
 14 13  2  0
 15 14  1  0
 16 11  1  0
 16 15  2  0
 17 18  2  0
 17  9  1  0
 19 20  1  0
 20 22  1  0
 21 20  2  0
 22 23  1  0
 24 25  1  0
 24 23  1  0
 26 25  1  1
 26 27  1  0
 27 17  1  0
 28 26  1  0
 29 28  1  0
 30 28  2  0
M  END
$$$$
