TFR.pdb
     RDKit          3D

 30 30  0  0  1  0  0  0  0  0999 V2000
    8.0847  -16.4124   18.9951 C   0  0  0  0  0  0  0  0  0  0  0  0
    8.4704  -15.0883   18.3537 C   0  0  1  0  0  0  0  0  0  0  0  0
    8.1359  -15.1949   17.0017 O   0  0  0  0  0  0  0  0  0  0  0  0
    7.6262  -13.9641   18.9317 C   0  0  2  0  0  0  0  0  0  0  0  0
    7.8544  -12.7922   18.1365 N   0  0  0  0  0  0  0  0  0  0  0  0
    8.0950  -13.7771   20.3421 C   0  0  0  0  0  0  0  0  0  0  0  0
    9.2096  -13.2729   20.6100 O   0  0  0  0  0  0  0  0  0  0  0  0
    7.2556  -14.1813   21.4130 N   0  0  0  0  0  0  0  0  0  0  0  0
    7.6433  -13.9873   22.7912 C   0  0  1  0  0  0  0  0  0  0  0  0
    6.4067  -13.6564   23.5696 C   0  0  0  0  0  0  0  0  0  0  0  0
    6.6250  -13.3824   24.9822 C   0  0  0  0  0  0  0  0  0  0  0  0
    7.0423  -12.1524   25.4144 C   0  0  0  0  0  0  0  0  0  0  0  0
    7.2280  -11.9656   26.7659 C   0  0  0  0  0  0  0  0  0  0  0  0
    7.0113  -12.9610   27.6889 C   0  0  0  0  0  0  0  0  0  0  0  0
    6.5931  -14.1937   27.2570 C   0  0  0  0  0  0  0  0  0  0  0  0
    6.4090  -14.3750   25.9043 C   0  0  0  0  0  0  0  0  0  0  0  0
    8.3555  -15.1782   23.2545 C   0  0  0  0  0  0  0  0  0  0  0  0
    8.0262  -16.3625   22.9829 O   0  0  0  0  0  0  0  0  0  0  0  0
   16.0311  -16.7353   24.0452 N   0  0  0  0  0  0  0  0  0  0  0  0
   15.7013  -18.0251   23.5603 C   0  0  0  0  0  0  0  0  0  0  0  0
   16.5883  -18.9629   23.7839 N   0  0  0  0  0  0  0  0  0  0  0  0
   14.4923  -18.3020   22.8742 N   0  0  0  0  0  0  0  0  0  0  0  0
   13.5403  -17.2560   22.6610 C   0  0  0  0  0  0  0  0  0  0  0  0
   12.8109  -16.8758   23.9483 C   0  0  0  0  0  0  0  0  0  0  0  0
   11.7813  -15.8292   23.7140 C   0  0  0  0  0  0  0  0  0  0  0  0
   10.4267  -16.1917   24.2745 C   0  0  2  0  0  0  0  0  0  0  0  0
    9.5119  -15.0457   24.0751 N   0  0  0  0  0  0  0  0  0  0  0  0
   10.5585  -16.3640   25.7339 C   0  0  0  0  0  0  0  0  0  0  0  0
   11.0505  -17.4913   26.3727 O   0  0  0  0  0  0  0  0  0  0  0  0
   10.1970  -15.4181   26.4835 O   0  0  0  0  0  0  0  0  0  0  0  0
  2  1  1  1
  2  3  1  0
  4  2  1  0
  4  5  1  6
  6  4  1  0
  7  6  2  0
  8  6  1  0
  9  8  1  0
  9 10  1  1
 10 11  1  0
 11 12  2  0
 12 13  1  0
 14 13  2  0
 15 14  1  0
 16 11  1  0
 16 15  2  0
 17 18  2  0
 17  9  1  0
 19 20  1  0
 20 22  1  0
 21 20  2  0
 22 23  1  0
 24 25  1  0
 24 23  1  0
 26 25  1  1
 26 27  1  0
 27 17  1  0
 28 26  1  0
 29 28  1  0
 30 28  2  0
M  END
$$$$
