TFR.pdb
     RDKit          3D

 30 30  0  0  1  0  0  0  0  0999 V2000
    6.6098  -17.6257   20.8673 C   0  0  0  0  0  0  0  0  0  0  0  0
    7.9536  -17.7149   20.1603 C   0  0  1  0  0  0  0  0  0  0  0  0
    7.6820  -18.1172   18.8506 O   0  0  0  0  0  0  0  0  0  0  0  0
    8.5911  -16.3374   20.0777 C   0  0  2  0  0  0  0  0  0  0  0  0
    9.8059  -16.4620   19.3250 N   0  0  0  0  0  0  0  0  0  0  0  0
    8.8551  -15.9177   21.4912 C   0  0  0  0  0  0  0  0  0  0  0  0
    9.8604  -16.3133   22.1246 O   0  0  0  0  0  0  0  0  0  0  0  0
    7.9425  -15.0449   22.1393 N   0  0  0  0  0  0  0  0  0  0  0  0
    8.1447  -14.6190   23.5050 C   0  0  1  0  0  0  0  0  0  0  0  0
    7.2214  -13.4679   23.7642 C   0  0  0  0  0  0  0  0  0  0  0  0
    7.2026  -12.9932   25.1399 C   0  0  0  0  0  0  0  0  0  0  0  0
    8.2815  -12.3543   25.6891 C   0  0  0  0  0  0  0  0  0  0  0  0
    8.1922  -11.9326   26.9968 C   0  0  0  0  0  0  0  0  0  0  0  0
    7.0686  -12.1282   27.7641 C   0  0  0  0  0  0  0  0  0  0  0  0
    5.9870  -12.7682   27.2149 C   0  0  0  0  0  0  0  0  0  0  0  0
    6.0818  -13.1879   25.9067 C   0  0  0  0  0  0  0  0  0  0  0  0
    7.9533  -15.7665   24.3917 C   0  0  0  0  0  0  0  0  0  0  0  0
    6.8897  -16.4339   24.4826 O   0  0  0  0  0  0  0  0  0  0  0  0
   12.4493  -20.1215   21.2963 N   0  0  0  0  0  0  0  0  0  0  0  0
   11.7330  -18.9125   21.4775 C   0  0  0  0  0  0  0  0  0  0  0  0
   11.4481  -18.2486   20.3847 N   0  0  0  0  0  0  0  0  0  0  0  0
   11.3411  -18.4356   22.7535 N   0  0  0  0  0  0  0  0  0  0  0  0
   11.1270  -19.3606   23.8232 C   0  0  0  0  0  0  0  0  0  0  0  0
   10.7662  -18.6523   25.1278 C   0  0  0  0  0  0  0  0  0  0  0  0
    9.2966  -18.6120   25.3490 C   0  0  0  0  0  0  0  0  0  0  0  0
    8.8427  -17.3869   26.1066 C   0  0  2  0  0  0  0  0  0  0  0  0
    9.0145  -16.2033   25.2351 N   0  0  0  0  0  0  0  0  0  0  0  0
    9.7485  -17.1880   27.2541 C   0  0  0  0  0  0  0  0  0  0  0  0
    9.8001  -17.9818   28.3891 O   0  0  0  0  0  0  0  0  0  0  0  0
   10.5519  -16.2179   27.2217 O   0  0  0  0  0  0  0  0  0  0  0  0
  2  1  1  1
  2  3  1  0
  4  2  1  0
  4  5  1  6
  6  4  1  0
  7  6  2  0
  8  6  1  0
  9  8  1  0
  9 10  1  1
 10 11  1  0
 11 12  2  0
 12 13  1  0
 14 13  2  0
 15 14  1  0
 16 11  1  0
 16 15  2  0
 17 18  2  0
 17  9  1  0
 19 20  1  0
 20 22  1  0
 21 20  2  0
 22 23  1  0
 24 25  1  0
 24 23  1  0
 26 25  1  6
 26 27  1  0
 27 17  1  0
 28 26  1  0
 29 28  1  0
 30 28  2  0
M  END
$$$$
