TFR.pdb
     RDKit          3D

 30 30  0  0  1  0  0  0  0  0999 V2000
    7.0663  -18.2048   20.9033 C   0  0  0  0  0  0  0  0  0  0  0  0
    8.2448  -17.9357   19.9802 C   0  0  1  0  0  0  0  0  0  0  0  0
    7.9292  -18.5315   18.7569 O   0  0  0  0  0  0  0  0  0  0  0  0
    8.3767  -16.4430   19.7252 C   0  0  2  0  0  0  0  0  0  0  0  0
    9.3580  -16.2601   18.6951 N   0  0  0  0  0  0  0  0  0  0  0  0
    8.8161  -15.8382   21.0234 C   0  0  0  0  0  0  0  0  0  0  0  0
    9.9781  -15.9874   21.4658 O   0  0  0  0  0  0  0  0  0  0  0  0
    7.8927  -15.0712   21.7808 N   0  0  0  0  0  0  0  0  0  0  0  0
    8.2320  -14.5545   23.0867 C   0  0  1  0  0  0  0  0  0  0  0  0
    7.1896  -13.5458   23.4618 C   0  0  0  0  0  0  0  0  0  0  0  0
    7.3414  -12.9706   24.7902 C   0  0  0  0  0  0  0  0  0  0  0  0
    8.3482  -12.0878   25.0747 C   0  0  0  0  0  0  0  0  0  0  0  0
    8.4302  -11.5840   26.3536 C   0  0  0  0  0  0  0  0  0  0  0  0
    7.5454  -11.9323   27.3461 C   0  0  0  0  0  0  0  0  0  0  0  0
    6.5362  -12.8167   27.0622 C   0  0  0  0  0  0  0  0  0  0  0  0
    6.4589  -13.3175   25.7816 C   0  0  0  0  0  0  0  0  0  0  0  0
    8.3615  -15.6739   24.0195 C   0  0  0  0  0  0  0  0  0  0  0  0
    7.4907  -16.5659   24.1957 O   0  0  0  0  0  0  0  0  0  0  0  0
   15.2688  -19.4940   22.6607 N   0  0  0  0  0  0  0  0  0  0  0  0
   14.0547  -19.7291   21.9691 C   0  0  0  0  0  0  0  0  0  0  0  0
   14.1401  -20.4966   20.9109 N   0  0  0  0  0  0  0  0  0  0  0  0
   12.8162  -19.1770   22.3818 N   0  0  0  0  0  0  0  0  0  0  0  0
   12.6949  -18.5964   23.6833 C   0  0  0  0  0  0  0  0  0  0  0  0
   11.2635  -18.1531   23.9804 C   0  0  0  0  0  0  0  0  0  0  0  0
   11.1365  -17.5619   25.3386 C   0  0  0  0  0  0  0  0  0  0  0  0
    9.7538  -17.0277   25.6276 C   0  0  2  0  0  0  0  0  0  0  0  0
    9.5375  -15.8130   24.8106 N   0  0  0  0  0  0  0  0  0  0  0  0
    9.7098  -16.5898   27.0359 C   0  0  0  0  0  0  0  0  0  0  0  0
    9.5784  -17.4218   28.1365 O   0  0  0  0  0  0  0  0  0  0  0  0
    9.7956  -15.3572   27.2826 O   0  0  0  0  0  0  0  0  0  0  0  0
  2  1  1  1
  2  3  1  0
  4  2  1  0
  4  5  1  6
  6  4  1  0
  7  6  2  0
  8  6  1  0
  9  8  1  0
  9 10  1  1
 10 11  1  0
 11 12  2  0
 12 13  1  0
 14 13  2  0
 15 14  1  0
 16 11  1  0
 16 15  2  0
 17 18  2  0
 17  9  1  0
 19 20  1  0
 20 22  1  0
 21 20  2  0
 22 23  1  0
 24 25  1  0
 24 23  1  0
 26 25  1  6
 26 27  1  0
 27 17  1  0
 28 26  1  0
 29 28  1  0
 30 28  2  0
M  END
$$$$
