TFR.pdb
     RDKit          3D

 30 30  0  0  1  0  0  0  0  0999 V2000
    7.7541  -16.0954   19.0092 C   0  0  0  0  0  0  0  0  0  0  0  0
    8.5674  -14.9303   18.4665 C   0  0  1  0  0  0  0  0  0  0  0  0
    8.3720  -14.9257   17.0834 O   0  0  0  0  0  0  0  0  0  0  0  0
    8.0146  -13.6173   18.9965 C   0  0  2  0  0  0  0  0  0  0  0  0
    8.5737  -12.5571   18.2085 N   0  0  0  0  0  0  0  0  0  0  0  0
    8.4487  -13.5327   20.4277 C   0  0  0  0  0  0  0  0  0  0  0  0
    9.6413  -13.3252   20.7487 O   0  0  0  0  0  0  0  0  0  0  0  0
    7.4845  -13.6914   21.4573 N   0  0  0  0  0  0  0  0  0  0  0  0
    7.8528  -13.6305   22.8530 C   0  0  1  0  0  0  0  0  0  0  0  0
    6.7384  -12.9509   23.5885 C   0  0  0  0  0  0  0  0  0  0  0  0
    6.9259  -12.8471   25.0281 C   0  0  0  0  0  0  0  0  0  0  0  0
    7.8489  -11.9922   25.5677 C   0  0  0  0  0  0  0  0  0  0  0  0
    7.9712  -11.9471   26.9385 C   0  0  0  0  0  0  0  0  0  0  0  0
    7.2068  -12.7226   27.7773 C   0  0  0  0  0  0  0  0  0  0  0  0
    6.2818  -13.5795   27.2377 C   0  0  0  0  0  0  0  0  0  0  0  0
    6.1636  -13.6206   25.8662 C   0  0  0  0  0  0  0  0  0  0  0  0
    8.1579  -14.9823   23.3213 C   0  0  0  0  0  0  0  0  0  0  0  0
    7.3979  -15.9770   23.1871 O   0  0  0  0  0  0  0  0  0  0  0  0
   14.3619  -14.7567   21.0395 N   0  0  0  0  0  0  0  0  0  0  0  0
   13.4887  -15.3343   20.0848 C   0  0  0  0  0  0  0  0  0  0  0  0
   13.4898  -14.7769   18.8994 N   0  0  0  0  0  0  0  0  0  0  0  0
   12.6586  -16.4457   20.3764 N   0  0  0  0  0  0  0  0  0  0  0  0
   12.5376  -16.9085   21.7243 C   0  0  0  0  0  0  0  0  0  0  0  0
   11.1634  -16.5970   22.3145 C   0  0  0  0  0  0  0  0  0  0  0  0
   11.0758  -16.9800   23.7483 C   0  0  0  0  0  0  0  0  0  0  0  0
    9.7483  -16.6294   24.3773 C   0  0  2  0  0  0  0  0  0  0  0  0
    9.3902  -15.2486   23.9837 N   0  0  0  0  0  0  0  0  0  0  0  0
    9.9195  -16.6083   25.8427 C   0  0  0  0  0  0  0  0  0  0  0  0
    9.9562  -17.7215   26.6674 O   0  0  0  0  0  0  0  0  0  0  0  0
   10.0431  -15.4927   26.4151 O   0  0  0  0  0  0  0  0  0  0  0  0
  2  1  1  1
  2  3  1  0
  4  2  1  0
  4  5  1  6
  6  4  1  0
  7  6  2  0
  8  6  1  0
  9  8  1  0
  9 10  1  1
 10 11  1  0
 11 12  2  0
 12 13  1  0
 14 13  2  0
 15 14  1  0
 16 11  1  0
 16 15  2  0
 17 18  2  0
 17  9  1  0
 19 20  1  0
 20 22  1  0
 21 20  2  0
 22 23  1  0
 24 25  1  0
 24 23  1  0
 26 25  1  6
 26 27  1  0
 27 17  1  0
 28 26  1  0
 29 28  1  0
 30 28  2  0
M  END
$$$$
