LKA.pdb
     RDKit          3D

 23 22  0  0  1  0  0  0  0  0999 V2000
    9.6427  -13.4410   19.9035 C   0  0  0  0  0  0  0  0  0  0  0  0
    8.1376  -13.3926   19.7385 C   0  0  2  0  0  0  0  0  0  0  0  0
    7.7083  -11.9542   19.7029 C   0  0  0  0  0  0  0  0  0  0  0  0
    7.5301  -14.1584   20.8768 C   0  0  0  0  0  0  0  0  0  0  0  0
    8.0021  -15.5906   20.9387 C   0  0  2  0  0  0  0  0  0  0  0  0
    7.1805  -16.4656   20.1625 N   0  0  0  0  0  0  0  0  0  0  0  0
    8.0770  -15.9902   22.3665 C   0  0  0  0  0  0  0  0  0  0  0  0
    7.0596  -15.9547   23.1022 O   0  0  0  0  0  0  0  0  0  0  0  0
    9.2988  -16.4344   22.9823 N   0  0  0  0  0  0  0  0  0  0  0  0
    9.3616  -16.9110   24.3380 C   0  0  1  0  0  0  0  0  0  0  0  0
   10.2564  -18.0750   24.5712 C   0  0  0  0  0  0  0  0  0  0  0  0
   10.4031  -18.5656   25.9573 C   0  0  0  0  0  0  0  0  0  0  0  0
   11.2480  -19.7662   26.1755 C   0  0  0  0  0  0  0  0  0  0  0  0
   11.2017  -20.0532   27.6875 C   0  0  0  0  0  0  0  0  0  0  0  0
   11.8255  -21.3106   28.0021 N   0  0  0  0  0  0  0  0  0  0  0  0
    9.8862  -15.7721   25.1804 C   0  0  0  0  0  0  0  0  0  0  0  0
   11.0169  -15.2735   24.9662 O   0  0  0  0  0  0  0  0  0  0  0  0
    8.4979  -13.1750   27.3822 C   0  0  0  0  0  0  0  0  0  0  0  0
    9.5389  -14.2008   27.0852 C   0  0  2  0  0  0  0  0  0  0  0  0
    9.0717  -15.2761   26.2221 N   0  0  0  0  0  0  0  0  0  0  0  0
   10.1223  -14.8190   28.3151 C   0  0  0  0  0  0  0  0  0  0  0  0
   10.9034  -14.0574   29.1813 O   0  0  0  0  0  0  0  0  0  0  0  0
    9.9166  -16.0060   28.5713 O   0  0  0  0  0  0  0  0  0  0  0  0
  2  1  1  1
  2  3  1  0
  4  2  1  0
  4  5  1  0
  5  7  1  0
  5  6  1  6
  7  9  1  0
  8  7  2  0
  9 10  1  0
 10 11  1  6
 12 11  1  0
 13 14  1  0
 13 12  1  0
 14 15  1  0
 16 17  2  0
 16 10  1  0
 19 18  1  1
 19 21  1  0
 19 20  1  0
 20 16  1  0
 21 22  1  0
 23 21  2  0
M  END
$$$$
