LKA.pdb
     RDKit          3D

 23 22  0  0  1  0  0  0  0  0999 V2000
    8.2686  -13.8729   18.6969 C   0  0  0  0  0  0  0  0  0  0  0  0
    7.8133  -13.5326   20.1012 C   0  0  2  0  0  0  0  0  0  0  0  0
    7.3579  -12.1020   20.1209 C   0  0  0  0  0  0  0  0  0  0  0  0
    8.9632  -13.7953   21.0286 C   0  0  0  0  0  0  0  0  0  0  0  0
    9.4218  -15.2329   21.0022 C   0  0  2  0  0  0  0  0  0  0  0  0
    8.3276  -16.1514   21.0523 N   0  0  0  0  0  0  0  0  0  0  0  0
   10.3872  -15.4295   22.1127 C   0  0  0  0  0  0  0  0  0  0  0  0
   11.2488  -14.5564   22.3826 O   0  0  0  0  0  0  0  0  0  0  0  0
   10.3933  -16.6117   22.9322 N   0  0  0  0  0  0  0  0  0  0  0  0
   11.3642  -16.8383   23.9688 C   0  0  1  0  0  0  0  0  0  0  0  0
   11.0359  -17.9200   24.9343 C   0  0  0  0  0  0  0  0  0  0  0  0
   12.0306  -18.2366   25.9802 C   0  0  0  0  0  0  0  0  0  0  0  0
   11.6644  -19.2618   26.9890 C   0  0  0  0  0  0  0  0  0  0  0  0
   12.8534  -19.3474   27.9635 C   0  0  0  0  0  0  0  0  0  0  0  0
   12.6090  -20.3077   29.0061 N   0  0  0  0  0  0  0  0  0  0  0  0
   12.6536  -17.2293   23.2857 C   0  0  0  0  0  0  0  0  0  0  0  0
   12.7438  -18.2949   22.6304 O   0  0  0  0  0  0  0  0  0  0  0  0
   15.2384  -15.6830   21.5425 C   0  0  0  0  0  0  0  0  0  0  0  0
   14.9940  -16.6302   22.6684 C   0  0  2  0  0  0  0  0  0  0  0  0
   13.7640  -16.3643   23.4005 N   0  0  0  0  0  0  0  0  0  0  0  0
   16.1165  -16.6721   23.6550 C   0  0  0  0  0  0  0  0  0  0  0  0
   17.1271  -17.6226   23.5293 O   0  0  0  0  0  0  0  0  0  0  0  0
   16.1557  -15.8667   24.5860 O   0  0  0  0  0  0  0  0  0  0  0  0
  2  1  1  6
  2  3  1  0
  4  2  1  0
  4  5  1  0
  5  7  1  0
  5  6  1  1
  7  9  1  0
  8  7  2  0
  9 10  1  0
 10 11  1  1
 12 11  1  0
 13 14  1  0
 13 12  1  0
 14 15  1  0
 16 17  2  0
 16 10  1  0
 19 18  1  6
 19 21  1  0
 19 20  1  0
 20 16  1  0
 21 22  1  0
 23 21  2  0
M  END
$$$$
