LKA.pdb
     RDKit          3D

 23 22  0  0  1  0  0  0  0  0999 V2000
    9.6166  -13.7153   19.8747 C   0  0  0  0  0  0  0  0  0  0  0  0
    8.2626  -13.5769   19.2095 C   0  0  2  0  0  0  0  0  0  0  0  0
    8.0220  -12.1241   18.9163 C   0  0  0  0  0  0  0  0  0  0  0  0
    7.2387  -14.1664   20.1344 C   0  0  0  0  0  0  0  0  0  0  0  0
    7.5429  -15.5955   20.5123 C   0  0  2  0  0  0  0  0  0  0  0  0
    6.9188  -16.5330   19.6320 N   0  0  0  0  0  0  0  0  0  0  0  0
    7.1504  -15.7911   21.9306 C   0  0  0  0  0  0  0  0  0  0  0  0
    5.9591  -15.6395   22.2986 O   0  0  0  0  0  0  0  0  0  0  0  0
    8.0951  -16.1598   22.9508 N   0  0  0  0  0  0  0  0  0  0  0  0
    7.7106  -16.4299   24.3102 C   0  0  1  0  0  0  0  0  0  0  0  0
    8.3484  -17.6177   24.9366 C   0  0  0  0  0  0  0  0  0  0  0  0
    8.0209  -17.9134   26.3468 C   0  0  0  0  0  0  0  0  0  0  0  0
    8.7530  -19.0248   27.0039 C   0  0  0  0  0  0  0  0  0  0  0  0
    8.2330  -19.0829   28.4520 C   0  0  0  0  0  0  0  0  0  0  0  0
    8.8759  -20.1310   29.1985 N   0  0  0  0  0  0  0  0  0  0  0  0
    8.1141  -15.2261   25.1287 C   0  0  0  0  0  0  0  0  0  0  0  0
    9.2952  -14.8043   25.1241 O   0  0  0  0  0  0  0  0  0  0  0  0
    6.2373  -12.6315   27.1307 C   0  0  0  0  0  0  0  0  0  0  0  0
    7.4412  -13.3712   26.6533 C   0  0  2  0  0  0  0  0  0  0  0  0
    7.1271  -14.5800   25.9052 N   0  0  0  0  0  0  0  0  0  0  0  0
    8.3776  -13.7443   27.7575 C   0  0  0  0  0  0  0  0  0  0  0  0
    9.1726  -12.7734   28.3625 O   0  0  0  0  0  0  0  0  0  0  0  0
    8.4529  -14.9125   28.1402 O   0  0  0  0  0  0  0  0  0  0  0  0
  2  1  1  1
  2  3  1  0
  4  2  1  0
  4  5  1  0
  5  7  1  0
  5  6  1  6
  7  9  1  0
  8  7  2  0
  9 10  1  0
 10 11  1  1
 12 11  1  0
 13 14  1  0
 13 12  1  0
 14 15  1  0
 16 17  2  0
 16 10  1  0
 19 18  1  1
 19 21  1  0
 19 20  1  0
 20 16  1  0
 21 22  1  0
 23 21  2  0
M  END
$$$$
