LKA.pdb
     RDKit          3D

 23 22  0  0  1  0  0  0  0  0999 V2000
    5.5766  -12.7664   26.1224 C   0  0  0  0  0  0  0  0  0  0  0  0
    6.5435  -13.1953   27.2070 C   0  0  2  0  0  0  0  0  0  0  0  0
    7.3362  -11.9959   27.6400 C   0  0  0  0  0  0  0  0  0  0  0  0
    7.3989  -14.2929   26.6461 C   0  0  0  0  0  0  0  0  0  0  0  0
    6.6030  -15.3301   25.8920 C   0  0  2  0  0  0  0  0  0  0  0  0
    6.3178  -16.4804   26.6913 N   0  0  0  0  0  0  0  0  0  0  0  0
    7.3419  -15.6643   24.6486 C   0  0  0  0  0  0  0  0  0  0  0  0
    8.0622  -16.6910   24.5807 O   0  0  0  0  0  0  0  0  0  0  0  0
    7.2783  -14.8460   23.4673 N   0  0  0  0  0  0  0  0  0  0  0  0
    7.9527  -15.1873   22.2436 C   0  0  1  0  0  0  0  0  0  0  0  0
    7.8547  -14.1831   21.1518 C   0  0  0  0  0  0  0  0  0  0  0  0
    8.5173  -14.4930   19.8679 C   0  0  0  0  0  0  0  0  0  0  0  0
    8.2397  -13.5972   18.7175 C   0  0  0  0  0  0  0  0  0  0  0  0
    8.9617  -14.2179   17.5076 C   0  0  0  0  0  0  0  0  0  0  0  0
    8.8094  -13.4039   16.3316 N   0  0  0  0  0  0  0  0  0  0  0  0
    9.4182  -15.3390   22.5770 C   0  0  0  0  0  0  0  0  0  0  0  0
   10.0368  -14.4469   23.2050 O   0  0  0  0  0  0  0  0  0  0  0  0
   11.8841  -18.1411   22.6124 C   0  0  0  0  0  0  0  0  0  0  0  0
   11.4972  -16.7099   22.4499 C   0  0  2  0  0  0  0  0  0  0  0  0
   10.0831  -16.5145   22.1640 N   0  0  0  0  0  0  0  0  0  0  0  0
   12.2821  -16.0058   21.3899 C   0  0  0  0  0  0  0  0  0  0  0  0
   11.6411  -15.4958   20.2632 O   0  0  0  0  0  0  0  0  0  0  0  0
   13.5009  -15.8716   21.5054 O   0  0  0  0  0  0  0  0  0  0  0  0
  2  1  1  6
  2  3  1  0
  4  2  1  0
  4  5  1  0
  5  7  1  0
  5  6  1  1
  7  9  1  0
  8  7  2  0
  9 10  1  0
 10 11  1  6
 12 11  1  0
 13 14  1  0
 13 12  1  0
 14 15  1  0
 16 17  2  0
 16 10  1  0
 19 18  1  6
 19 21  1  0
 19 20  1  0
 20 16  1  0
 21 22  1  0
 23 21  2  0
M  END
$$$$
