LKA.pdb
     RDKit          3D

 23 22  0  0  1  0  0  0  0  0999 V2000
    9.4198  -12.6625   19.5813 C   0  0  0  0  0  0  0  0  0  0  0  0
    8.1252  -13.4107   19.3383 C   0  0  2  0  0  0  0  0  0  0  0  0
    7.1594  -12.4835   18.6587 C   0  0  0  0  0  0  0  0  0  0  0  0
    7.6293  -13.9051   20.6653 C   0  0  0  0  0  0  0  0  0  0  0  0
    8.6461  -14.7489   21.3945 C   0  0  2  0  0  0  0  0  0  0  0  0
    8.9691  -15.9448   20.6810 N   0  0  0  0  0  0  0  0  0  0  0  0
    8.1288  -15.0174   22.7598 C   0  0  0  0  0  0  0  0  0  0  0  0
    7.5581  -14.1167   23.4237 O   0  0  0  0  0  0  0  0  0  0  0  0
    8.2484  -16.3032   23.3934 N   0  0  0  0  0  0  0  0  0  0  0  0
    7.8610  -16.5404   24.7581 C   0  0  1  0  0  0  0  0  0  0  0  0
    7.6851  -17.9664   25.1397 C   0  0  0  0  0  0  0  0  0  0  0  0
    6.6582  -18.7508   24.4230 C   0  0  0  0  0  0  0  0  0  0  0  0
    6.5517  -20.1966   24.7412 C   0  0  0  0  0  0  0  0  0  0  0  0
    5.4192  -20.7476   23.8554 C   0  0  0  0  0  0  0  0  0  0  0  0
    5.2402  -22.1612   24.0518 N   0  0  0  0  0  0  0  0  0  0  0  0
    8.9592  -15.9797   25.6306 C   0  0  0  0  0  0  0  0  0  0  0  0
   10.1660  -16.2264   25.3941 O   0  0  0  0  0  0  0  0  0  0  0  0
    9.1792  -13.2818   28.2105 C   0  0  0  0  0  0  0  0  0  0  0  0
    9.6155  -14.5559   27.5696 C   0  0  2  0  0  0  0  0  0  0  0  0
    8.5973  -15.1657   26.7265 N   0  0  0  0  0  0  0  0  0  0  0  0
   10.0720  -15.5831   28.5553 C   0  0  0  0  0  0  0  0  0  0  0  0
   11.2200  -15.3671   29.3142 O   0  0  0  0  0  0  0  0  0  0  0  0
    9.4364  -16.6276   28.7034 O   0  0  0  0  0  0  0  0  0  0  0  0
  2  1  1  1
  2  3  1  0
  4  2  1  0
  4  5  1  0
  5  7  1  0
  5  6  1  6
  7  9  1  0
  8  7  2  0
  9 10  1  0
 10 11  1  6
 12 11  1  0
 13 14  1  0
 13 12  1  0
 14 15  1  0
 16 17  2  0
 16 10  1  0
 19 18  1  1
 19 21  1  0
 19 20  1  0
 20 16  1  0
 21 22  1  0
 23 21  2  0
M  END
$$$$
