LKA.pdb
     RDKit          3D

 23 22  0  0  1  0  0  0  0  0999 V2000
    6.2561  -12.0043   25.3398 C   0  0  0  0  0  0  0  0  0  0  0  0
    6.4605  -12.8076   26.6078 C   0  0  2  0  0  0  0  0  0  0  0  0
    7.1046  -11.9213   27.6345 C   0  0  0  0  0  0  0  0  0  0  0  0
    7.2954  -14.0044   26.2588 C   0  0  0  0  0  0  0  0  0  0  0  0
    6.6213  -14.9211   25.2673 C   0  0  2  0  0  0  0  0  0  0  0  0
    5.4227  -15.4977   25.7908 N   0  0  0  0  0  0  0  0  0  0  0  0
    7.6094  -15.9426   24.8380 C   0  0  0  0  0  0  0  0  0  0  0  0
    7.6975  -17.0463   25.4311 O   0  0  0  0  0  0  0  0  0  0  0  0
    8.5096  -15.7329   23.7358 N   0  0  0  0  0  0  0  0  0  0  0  0
    9.4079  -16.7490   23.2570 C   0  0  1  0  0  0  0  0  0  0  0  0
    9.9787  -16.5191   21.9037 C   0  0  0  0  0  0  0  0  0  0  0  0
    9.1559  -16.8944   20.7351 C   0  0  0  0  0  0  0  0  0  0  0  0
    9.8648  -17.3540   19.5147 C   0  0  0  0  0  0  0  0  0  0  0  0
    8.7819  -17.5449   18.4370 C   0  0  0  0  0  0  0  0  0  0  0  0
    9.3486  -18.0158   17.2016 N   0  0  0  0  0  0  0  0  0  0  0  0
   10.5669  -16.8023   24.2244 C   0  0  0  0  0  0  0  0  0  0  0  0
   11.2641  -15.7865   24.4588 O   0  0  0  0  0  0  0  0  0  0  0  0
   11.5475  -18.4868   27.1875 C   0  0  0  0  0  0  0  0  0  0  0  0
   11.9637  -18.1406   25.7978 C   0  0  2  0  0  0  0  0  0  0  0  0
   10.8520  -18.0285   24.8645 N   0  0  0  0  0  0  0  0  0  0  0  0
   12.9513  -19.1047   25.2228 C   0  0  0  0  0  0  0  0  0  0  0  0
   12.6581  -19.7940   24.0484 O   0  0  0  0  0  0  0  0  0  0  0  0
   14.0310  -19.2963   25.7834 O   0  0  0  0  0  0  0  0  0  0  0  0
  2  1  1  6
  2  3  1  0
  4  2  1  0
  4  5  1  0
  5  7  1  0
  5  6  1  1
  7  9  1  0
  8  7  2  0
  9 10  1  0
 10 11  1  6
 12 11  1  0
 13 14  1  0
 13 12  1  0
 14 15  1  0
 16 17  2  0
 16 10  1  0
 19 18  1  1
 19 21  1  0
 19 20  1  0
 20 16  1  0
 21 22  1  0
 23 21  2  0
M  END
$$$$
