LKA.pdb
     RDKit          3D

 23 22  0  0  1  0  0  0  0  0999 V2000
    9.3821  -14.3859   19.2868 C   0  0  0  0  0  0  0  0  0  0  0  0
    8.0515  -13.7252   19.5830 C   0  0  2  0  0  0  0  0  0  0  0  0
    8.1986  -12.2450   19.3788 C   0  0  0  0  0  0  0  0  0  0  0  0
    7.6653  -14.0886   20.9866 C   0  0  0  0  0  0  0  0  0  0  0  0
    7.5141  -15.5768   21.1870 C   0  0  2  0  0  0  0  0  0  0  0  0
    6.3226  -16.0863   20.5836 N   0  0  0  0  0  0  0  0  0  0  0  0
    7.5840  -15.8554   22.6435 C   0  0  0  0  0  0  0  0  0  0  0  0
    6.6211  -15.5799   23.4015 O   0  0  0  0  0  0  0  0  0  0  0  0
    8.7391  -16.4476   23.2632 N   0  0  0  0  0  0  0  0  0  0  0  0
    8.7983  -16.7613   24.6657 C   0  0  1  0  0  0  0  0  0  0  0  0
    9.5965  -17.9631   25.0243 C   0  0  0  0  0  0  0  0  0  0  0  0
    9.7013  -18.3202   26.4543 C   0  0  0  0  0  0  0  0  0  0  0  0
   10.5965  -19.4470   26.8174 C   0  0  0  0  0  0  0  0  0  0  0  0
   10.4557  -19.6323   28.3394 C   0  0  0  0  0  0  0  0  0  0  0  0
   11.2157  -20.7622   28.8028 N   0  0  0  0  0  0  0  0  0  0  0  0
    9.4414  -15.5800   25.3535 C   0  0  0  0  0  0  0  0  0  0  0  0
   10.6327  -15.2636   25.1220 O   0  0  0  0  0  0  0  0  0  0  0  0
    8.2857  -12.6704   27.3947 C   0  0  0  0  0  0  0  0  0  0  0  0
    9.2597  -13.7371   27.0234 C   0  0  2  0  0  0  0  0  0  0  0  0
    8.6683  -14.8333   26.2696 N   0  0  0  0  0  0  0  0  0  0  0  0
    9.9699  -14.3206   28.2026 C   0  0  0  0  0  0  0  0  0  0  0  0
   10.8697  -13.5483   28.9335 O   0  0  0  0  0  0  0  0  0  0  0  0
    9.7644  -15.4883   28.5362 O   0  0  0  0  0  0  0  0  0  0  0  0
  2  1  1  1
  2  3  1  0
  4  2  1  0
  4  5  1  0
  5  7  1  0
  5  6  1  1
  7  9  1  0
  8  7  2  0
  9 10  1  0
 10 11  1  6
 12 11  1  0
 13 14  1  0
 13 12  1  0
 14 15  1  0
 16 17  2  0
 16 10  1  0
 19 18  1  1
 19 21  1  0
 19 20  1  0
 20 16  1  0
 21 22  1  0
 23 21  2  0
M  END
$$$$
