LKA.pdb
     RDKit          3D

 23 22  0  0  1  0  0  0  0  0999 V2000
    9.2995  -13.6721   19.2629 C   0  0  0  0  0  0  0  0  0  0  0  0
    7.8452  -13.4056   19.5931 C   0  0  2  0  0  0  0  0  0  0  0  0
    7.5988  -11.9274   19.5009 C   0  0  0  0  0  0  0  0  0  0  0  0
    7.5801  -13.9606   20.9616 C   0  0  0  0  0  0  0  0  0  0  0  0
    7.8853  -15.4350   21.0662 C   0  0  2  0  0  0  0  0  0  0  0  0
    6.9459  -16.2351   20.3447 N   0  0  0  0  0  0  0  0  0  0  0  0
    7.9553  -15.7904   22.5059 C   0  0  0  0  0  0  0  0  0  0  0  0
    6.9581  -15.6485   23.2562 O   0  0  0  0  0  0  0  0  0  0  0  0
    9.1494  -16.3098   23.1172 N   0  0  0  0  0  0  0  0  0  0  0  0
    9.2154  -16.6895   24.5030 C   0  0  1  0  0  0  0  0  0  0  0  0
   10.1746  -17.7778   24.8281 C   0  0  0  0  0  0  0  0  0  0  0  0
   10.0233  -19.0654   24.1191 C   0  0  0  0  0  0  0  0  0  0  0  0
   11.0304  -20.1215   24.3900 C   0  0  0  0  0  0  0  0  0  0  0  0
   10.6110  -21.3394   23.5465 C   0  0  0  0  0  0  0  0  0  0  0  0
   11.4796  -22.4622   23.7784 N   0  0  0  0  0  0  0  0  0  0  0  0
    9.6541  -15.4664   25.2734 C   0  0  0  0  0  0  0  0  0  0  0  0
   10.7444  -14.8989   25.0245 O   0  0  0  0  0  0  0  0  0  0  0  0
    8.1585  -12.8630   27.3960 C   0  0  0  0  0  0  0  0  0  0  0  0
    9.2286  -13.8703   27.1413 C   0  0  2  0  0  0  0  0  0  0  0  0
    8.8052  -14.9709   26.2876 N   0  0  0  0  0  0  0  0  0  0  0  0
    9.7972  -14.4533   28.3951 C   0  0  0  0  0  0  0  0  0  0  0  0
   10.5055  -13.6494   29.2853 O   0  0  0  0  0  0  0  0  0  0  0  0
    9.6433  -15.6484   28.6499 O   0  0  0  0  0  0  0  0  0  0  0  0
  2  1  1  1
  2  3  1  0
  4  2  1  0
  4  5  1  0
  5  7  1  0
  5  6  1  6
  7  9  1  0
  8  7  2  0
  9 10  1  0
 10 11  1  6
 12 11  1  0
 13 14  1  0
 13 12  1  0
 14 15  1  0
 16 17  2  0
 16 10  1  0
 19 18  1  1
 19 21  1  0
 19 20  1  0
 20 16  1  0
 21 22  1  0
 23 21  2  0
M  END
$$$$
