LKA.pdb
     RDKit          3D

 23 22  0  0  1  0  0  0  0  0999 V2000
    8.0476  -13.0705   18.9007 C   0  0  0  0  0  0  0  0  0  0  0  0
    7.4570  -13.1913   20.2905 C   0  0  2  0  0  0  0  0  0  0  0  0
    7.6088  -11.8709   20.9890 C   0  0  0  0  0  0  0  0  0  0  0  0
    8.1682  -14.3112   20.9914 C   0  0  0  0  0  0  0  0  0  0  0  0
    7.9676  -15.6466   20.3174 C   0  0  2  0  0  0  0  0  0  0  0  0
    6.5937  -16.0405   20.2940 N   0  0  0  0  0  0  0  0  0  0  0  0
    8.8379  -16.6404   20.9947 C   0  0  0  0  0  0  0  0  0  0  0  0
    8.4861  -17.1793   22.0733 O   0  0  0  0  0  0  0  0  0  0  0  0
   10.1146  -17.0388   20.4650 N   0  0  0  0  0  0  0  0  0  0  0  0
   10.9165  -18.0757   21.0570 C   0  0  1  0  0  0  0  0  0  0  0  0
   12.0377  -18.5800   20.2212 C   0  0  0  0  0  0  0  0  0  0  0  0
   12.8474  -19.6957   20.7533 C   0  0  0  0  0  0  0  0  0  0  0  0
   13.9196  -20.2421   19.8845 C   0  0  0  0  0  0  0  0  0  0  0  0
   14.5327  -21.4261   20.6545 C   0  0  0  0  0  0  0  0  0  0  0  0
   15.5333  -22.0997   19.8708 N   0  0  0  0  0  0  0  0  0  0  0  0
   11.5245  -17.4979   22.3134 C   0  0  0  0  0  0  0  0  0  0  0  0
   12.1128  -16.3903   22.2998 O   0  0  0  0  0  0  0  0  0  0  0  0
   11.1523  -17.8925   25.9424 C   0  0  0  0  0  0  0  0  0  0  0  0
   12.0269  -17.7511   24.7426 C   0  0  2  0  0  0  0  0  0  0  0  0
   11.4165  -18.2355   23.5129 N   0  0  0  0  0  0  0  0  0  0  0  0
   13.3504  -18.4292   24.8971 C   0  0  0  0  0  0  0  0  0  0  0  0
   14.2542  -17.9938   25.8635 O   0  0  0  0  0  0  0  0  0  0  0  0
   13.6509  -19.3776   24.1711 O   0  0  0  0  0  0  0  0  0  0  0  0
  2  1  1  6
  2  3  1  0
  4  2  1  0
  4  5  1  0
  5  7  1  0
  5  6  1  1
  7  9  1  0
  8  7  2  0
  9 10  1  0
 10 11  1  6
 12 11  1  0
 13 14  1  0
 13 12  1  0
 14 15  1  0
 16 17  2  0
 16 10  1  0
 19 18  1  1
 19 21  1  0
 19 20  1  0
 20 16  1  0
 21 22  1  0
 23 21  2  0
M  END
$$$$
