LKA.pdb
     RDKit          3D

 23 22  0  0  1  0  0  0  0  0999 V2000
    9.4731  -13.8156   19.7155 C   0  0  0  0  0  0  0  0  0  0  0  0
    8.0763  -13.6914   19.1424 C   0  0  2  0  0  0  0  0  0  0  0  0
    7.8207  -12.2477   18.8190 C   0  0  0  0  0  0  0  0  0  0  0  0
    7.1178  -14.2446   20.1556 C   0  0  0  0  0  0  0  0  0  0  0  0
    7.4061  -15.6825   20.5123 C   0  0  2  0  0  0  0  0  0  0  0  0
    6.7820  -16.5997   19.6110 N   0  0  0  0  0  0  0  0  0  0  0  0
    6.9989  -15.8980   21.9236 C   0  0  0  0  0  0  0  0  0  0  0  0
    5.8100  -15.7208   22.2878 O   0  0  0  0  0  0  0  0  0  0  0  0
    7.9260  -16.3158   22.9410 N   0  0  0  0  0  0  0  0  0  0  0  0
    7.5442  -16.5069   24.3145 C   0  0  1  0  0  0  0  0  0  0  0  0
    8.1074  -17.7119   24.9784 C   0  0  0  0  0  0  0  0  0  0  0  0
    7.7410  -17.9572   26.3887 C   0  0  0  0  0  0  0  0  0  0  0  0
    8.2899  -19.1728   27.0398 C   0  0  0  0  0  0  0  0  0  0  0  0
    7.7970  -19.1370   28.4980 C   0  0  0  0  0  0  0  0  0  0  0  0
    8.2124  -20.3091   29.2211 N   0  0  0  0  0  0  0  0  0  0  0  0
    8.0427  -15.3042   25.0807 C   0  0  0  0  0  0  0  0  0  0  0  0
    9.2596  -15.0010   25.0928 O   0  0  0  0  0  0  0  0  0  0  0  0
    6.4271  -12.4535   26.9520 C   0  0  0  0  0  0  0  0  0  0  0  0
    7.5344  -13.3841   26.5881 C   0  0  2  0  0  0  0  0  0  0  0  0
    7.1038  -14.5220   25.7886 N   0  0  0  0  0  0  0  0  0  0  0  0
    8.2740  -13.9103   27.7761 C   0  0  0  0  0  0  0  0  0  0  0  0
    9.0285  -13.0507   28.5712 O   0  0  0  0  0  0  0  0  0  0  0  0
    8.2214  -15.1075   28.0602 O   0  0  0  0  0  0  0  0  0  0  0  0
  2  1  1  1
  2  3  1  0
  4  2  1  0
  4  5  1  0
  5  7  1  0
  5  6  1  6
  7  9  1  0
  8  7  2  0
  9 10  1  0
 10 11  1  1
 12 11  1  0
 13 14  1  0
 13 12  1  0
 14 15  1  0
 16 17  2  0
 16 10  1  0
 19 18  1  1
 19 21  1  0
 19 20  1  0
 20 16  1  0
 21 22  1  0
 23 21  2  0
M  END
$$$$
