LKA.pdb
     RDKit          3D

 23 22  0  0  1  0  0  0  0  0999 V2000
    5.9146  -12.5615   26.1471 C   0  0  0  0  0  0  0  0  0  0  0  0
    6.8988  -13.3028   27.0284 C   0  0  2  0  0  0  0  0  0  0  0  0
    7.9150  -12.3218   27.5377 C   0  0  0  0  0  0  0  0  0  0  0  0
    7.5051  -14.4032   26.2082 C   0  0  0  0  0  0  0  0  0  0  0  0
    6.5030  -15.0850   25.3089 C   0  0  2  0  0  0  0  0  0  0  0  0
    5.9926  -16.2906   25.8827 N   0  0  0  0  0  0  0  0  0  0  0  0
    7.1436  -15.3047   23.9878 C   0  0  0  0  0  0  0  0  0  0  0  0
    7.7453  -16.3770   23.7312 O   0  0  0  0  0  0  0  0  0  0  0  0
    7.1140  -14.3193   22.9403 N   0  0  0  0  0  0  0  0  0  0  0  0
    7.8108  -14.4844   21.6929 C   0  0  1  0  0  0  0  0  0  0  0  0
    7.8570  -13.2844   20.8167 C   0  0  0  0  0  0  0  0  0  0  0  0
    8.5713  -13.3981   19.5281 C   0  0  0  0  0  0  0  0  0  0  0  0
    8.0965  -14.4252   18.5675 C   0  0  0  0  0  0  0  0  0  0  0  0
    9.0530  -14.3592   17.3628 C   0  0  0  0  0  0  0  0  0  0  0  0
    8.6954  -15.3221   16.3558 N   0  0  0  0  0  0  0  0  0  0  0  0
    9.2388  -14.8423   22.0311 C   0  0  0  0  0  0  0  0  0  0  0  0
    9.9204  -14.1301   22.8066 O   0  0  0  0  0  0  0  0  0  0  0  0
   11.3042  -17.8964   21.9346 C   0  0  0  0  0  0  0  0  0  0  0  0
   11.1520  -16.4212   21.7771 C   0  0  2  0  0  0  0  0  0  0  0  0
    9.7956  -16.0040   21.4523 N   0  0  0  0  0  0  0  0  0  0  0  0
   12.0699  -15.8423   20.7486 C   0  0  0  0  0  0  0  0  0  0  0  0
   11.5587  -15.3393   19.5544 O   0  0  0  0  0  0  0  0  0  0  0  0
   13.2844  -15.8061   20.9498 O   0  0  0  0  0  0  0  0  0  0  0  0
  2  1  1  6
  2  3  1  0
  4  2  1  0
  4  5  1  0
  5  7  1  0
  5  6  1  1
  7  9  1  0
  8  7  2  0
  9 10  1  0
 10 11  1  1
 12 11  1  0
 13 14  1  0
 13 12  1  0
 14 15  1  0
 16 17  2  0
 16 10  1  0
 19 18  1  6
 19 21  1  0
 19 20  1  0
 20 16  1  0
 21 22  1  0
 23 21  2  0
M  END
$$$$
