LKA.pdb
     RDKit          3D

 23 22  0  0  1  0  0  0  0  0999 V2000
    5.6061  -12.4175   25.4948 C   0  0  0  0  0  0  0  0  0  0  0  0
    6.3952  -12.8638   26.7085 C   0  0  2  0  0  0  0  0  0  0  0  0
    7.1228  -11.6752   27.2672 C   0  0  0  0  0  0  0  0  0  0  0  0
    7.3169  -13.9645   26.2725 C   0  0  0  0  0  0  0  0  0  0  0  0
    6.6049  -15.0635   25.5222 C   0  0  2  0  0  0  0  0  0  0  0  0
    5.8866  -15.9381   26.3953 N   0  0  0  0  0  0  0  0  0  0  0  0
    7.6062  -15.7780   24.6910 C   0  0  0  0  0  0  0  0  0  0  0  0
    8.2269  -16.7735   25.1396 O   0  0  0  0  0  0  0  0  0  0  0  0
    7.9199  -15.3796   23.3449 N   0  0  0  0  0  0  0  0  0  0  0  0
    8.7948  -16.1366   22.4903 C   0  0  1  0  0  0  0  0  0  0  0  0
    8.9187  -15.6417   21.0939 C   0  0  0  0  0  0  0  0  0  0  0  0
    9.8597  -16.3416   20.1949 C   0  0  0  0  0  0  0  0  0  0  0  0
    9.3316  -16.8391   18.9000 C   0  0  0  0  0  0  0  0  0  0  0  0
   10.4698  -17.6532   18.2580 C   0  0  0  0  0  0  0  0  0  0  0  0
   10.0449  -18.2715   17.0307 N   0  0  0  0  0  0  0  0  0  0  0  0
   10.1725  -16.0756   23.1067 C   0  0  0  0  0  0  0  0  0  0  0  0
   10.6175  -15.0107   23.5976 O   0  0  0  0  0  0  0  0  0  0  0  0
   12.6501  -18.5623   24.3437 C   0  0  0  0  0  0  0  0  0  0  0  0
   12.2797  -17.2569   23.7247 C   0  0  2  0  0  0  0  0  0  0  0  0
   10.9556  -17.2508   23.1195 N   0  0  0  0  0  0  0  0  0  0  0  0
   13.2590  -16.7970   22.6928 C   0  0  0  0  0  0  0  0  0  0  0  0
   14.5425  -16.4061   23.0674 O   0  0  0  0  0  0  0  0  0  0  0  0
   12.9380  -16.7606   21.5044 O   0  0  0  0  0  0  0  0  0  0  0  0
  2  1  1  6
  2  3  1  0
  4  2  1  0
  4  5  1  0
  5  7  1  0
  5  6  1  1
  7  9  1  0
  8  7  2  0
  9 10  1  0
 10 11  1  6
 12 11  1  0
 13 14  1  0
 13 12  1  0
 14 15  1  0
 16 17  2  0
 16 10  1  0
 19 18  1  6
 19 21  1  0
 19 20  1  0
 20 16  1  0
 21 22  1  0
 23 21  2  0
M  END
$$$$
