LKA.pdb
     RDKit          3D

 23 22  0  0  1  0  0  0  0  0999 V2000
    6.3775  -12.3798   26.8881 C   0  0  0  0  0  0  0  0  0  0  0  0
    6.9774  -13.2831   25.8303 C   0  0  2  0  0  0  0  0  0  0  0  0
    7.3450  -12.4445   24.6404 C   0  0  0  0  0  0  0  0  0  0  0  0
    5.9657  -14.3440   25.5107 C   0  0  0  0  0  0  0  0  0  0  0  0
    6.4502  -15.3220   24.4683 C   0  0  2  0  0  0  0  0  0  0  0  0
    5.4685  -16.3138   24.1585 N   0  0  0  0  0  0  0  0  0  0  0  0
    7.7279  -15.9086   24.9449 C   0  0  0  0  0  0  0  0  0  0  0  0
    7.8207  -16.4105   26.0925 O   0  0  0  0  0  0  0  0  0  0  0  0
    8.9160  -15.9368   24.1343 N   0  0  0  0  0  0  0  0  0  0  0  0
   10.1367  -16.5674   24.5597 C   0  0  1  0  0  0  0  0  0  0  0  0
   11.2086  -16.6548   23.5334 C   0  0  0  0  0  0  0  0  0  0  0  0
   12.1102  -17.8249   23.5754 C   0  0  0  0  0  0  0  0  0  0  0  0
   12.1116  -18.7337   22.4020 C   0  0  0  0  0  0  0  0  0  0  0  0
   13.0613  -19.8920   22.7588 C   0  0  0  0  0  0  0  0  0  0  0  0
   13.0745  -20.8958   21.7286 N   0  0  0  0  0  0  0  0  0  0  0  0
   10.6822  -15.7432   25.7022 C   0  0  0  0  0  0  0  0  0  0  0  0
   11.3167  -14.6820   25.4920 O   0  0  0  0  0  0  0  0  0  0  0  0
   10.3264  -14.3778   28.6860 C   0  0  0  0  0  0  0  0  0  0  0  0
   11.1005  -15.5351   28.1515 C   0  0  2  0  0  0  0  0  0  0  0  0
   10.4618  -16.1951   27.0219 N   0  0  0  0  0  0  0  0  0  0  0  0
   11.3929  -16.5743   29.1859 C   0  0  0  0  0  0  0  0  0  0  0  0
   12.1534  -16.2539   30.3081 O   0  0  0  0  0  0  0  0  0  0  0  0
   10.9634  -17.7210   29.0532 O   0  0  0  0  0  0  0  0  0  0  0  0
  2  1  1  1
  2  3  1  0
  4  2  1  0
  4  5  1  0
  5  7  1  0
  5  6  1  1
  7  9  1  0
  8  7  2  0
  9 10  1  0
 10 11  1  6
 12 11  1  0
 13 14  1  0
 13 12  1  0
 14 15  1  0
 16 17  2  0
 16 10  1  0
 19 18  1  1
 19 21  1  0
 19 20  1  0
 20 16  1  0
 21 22  1  0
 23 21  2  0
M  END
$$$$
