LKA.pdb
     RDKit          3D

 23 22  0  0  1  0  0  0  0  0999 V2000
    6.0852  -12.5633   26.4483 C   0  0  0  0  0  0  0  0  0  0  0  0
    7.1898  -13.1942   27.2709 C   0  0  2  0  0  0  0  0  0  0  0  0
    8.2439  -12.1565   27.5287 C   0  0  0  0  0  0  0  0  0  0  0  0
    7.7061  -14.3782   26.5076 C   0  0  0  0  0  0  0  0  0  0  0  0
    6.6276  -15.0887   25.7267 C   0  0  2  0  0  0  0  0  0  0  0  0
    6.0425  -16.1633   26.4658 N   0  0  0  0  0  0  0  0  0  0  0  0
    7.2092  -15.5310   24.4344 C   0  0  0  0  0  0  0  0  0  0  0  0
    7.7442  -16.6616   24.3194 O   0  0  0  0  0  0  0  0  0  0  0  0
    7.1951  -14.7051   23.2568 N   0  0  0  0  0  0  0  0  0  0  0  0
    7.8111  -15.1002   22.0185 C   0  0  1  0  0  0  0  0  0  0  0  0
    7.6749  -14.1366   20.8946 C   0  0  0  0  0  0  0  0  0  0  0  0
    8.2163  -14.5317   19.5777 C   0  0  0  0  0  0  0  0  0  0  0  0
    8.0214  -13.5928   18.4448 C   0  0  0  0  0  0  0  0  0  0  0  0
    8.5629  -14.3113   17.1954 C   0  0  0  0  0  0  0  0  0  0  0  0
    8.4955  -13.4659   16.0336 N   0  0  0  0  0  0  0  0  0  0  0  0
    9.2884  -15.2563   22.2927 C   0  0  0  0  0  0  0  0  0  0  0  0
    9.9459  -14.3432   22.8467 O   0  0  0  0  0  0  0  0  0  0  0  0
   11.6938  -18.1359   22.2761 C   0  0  0  0  0  0  0  0  0  0  0  0
   11.3252  -16.6923   22.2084 C   0  0  2  0  0  0  0  0  0  0  0  0
    9.9193  -16.4604   21.9098 N   0  0  0  0  0  0  0  0  0  0  0  0
   12.1387  -15.9241   21.2167 C   0  0  0  0  0  0  0  0  0  0  0  0
   13.4532  -15.5693   21.5108 O   0  0  0  0  0  0  0  0  0  0  0  0
   11.6524  -15.5996   20.1327 O   0  0  0  0  0  0  0  0  0  0  0  0
  2  1  1  6
  2  3  1  0
  4  2  1  0
  4  5  1  0
  5  7  1  0
  5  6  1  1
  7  9  1  0
  8  7  2  0
  9 10  1  0
 10 11  1  6
 12 11  1  0
 13 14  1  0
 13 12  1  0
 14 15  1  0
 16 17  2  0
 16 10  1  0
 19 18  1  6
 19 21  1  0
 19 20  1  0
 20 16  1  0
 21 22  1  0
 23 21  2  0
M  END
$$$$
