QTY.pdb
     RDKit          3D

 29 29  0  0  1  0  0  0  0  0999 V2000
   46.8780   -7.1192  -10.4768 N   0  0  0  0  0  0  0  0  0  0  0  0
   46.5332   -8.0980  -11.4354 C   0  0  0  0  0  0  0  0  0  0  0  0
   46.8860   -7.9795  -12.6233 O   0  0  0  0  0  0  0  0  0  0  0  0
   45.7344   -9.2761  -10.9805 C   0  0  0  0  0  0  0  0  0  0  0  0
   45.5226   -9.1460   -9.5091 C   0  0  0  0  0  0  0  0  0  0  0  0
   44.6539  -10.2529   -8.9587 C   0  0  2  0  0  0  0  0  0  0  0  0
   43.7672  -10.6783  -10.0572 N   0  0  0  0  0  0  0  0  0  0  0  0
   43.8471   -9.8234   -7.7949 C   0  0  0  0  0  0  0  0  0  0  0  0
   42.6430   -9.6283   -7.9075 O   0  0  0  0  0  0  0  0  0  0  0  0
   43.4865   -9.3911   -2.8722 C   0  0  0  0  0  0  0  0  0  0  0  0
   44.2324   -9.8410   -4.0819 C   0  0  1  0  0  0  0  0  0  0  0  0
   43.9764  -11.2214   -4.2302 O   0  0  0  0  0  0  0  0  0  0  0  0
   43.8086   -9.1947   -5.3496 C   0  0  2  0  0  0  0  0  0  0  0  0
   44.4614   -9.6328   -6.5337 N   0  0  0  0  0  0  0  0  0  0  0  0
   43.9086   -7.7157   -5.2291 C   0  0  0  0  0  0  0  0  0  0  0  0
   44.9820   -7.0911   -5.4578 O   0  0  0  0  0  0  0  0  0  0  0  0
   41.5209    0.7535   -4.2451 O   0  0  0  0  0  0  0  0  0  0  0  0
   41.5218   -0.6337   -4.4116 C   0  0  0  0  0  0  0  0  0  0  0  0
   41.5786   -1.2162   -5.6600 C   0  0  0  0  0  0  0  0  0  0  0  0
   41.5767   -2.5920   -5.7693 C   0  0  0  0  0  0  0  0  0  0  0  0
   41.5196   -3.4259   -4.6641 C   0  0  0  0  0  0  0  0  0  0  0  0
   41.5140   -4.8998   -4.8135 C   0  0  0  0  0  0  0  0  0  0  0  0
   42.8812   -5.5231   -4.6409 C   0  0  2  0  0  0  0  0  0  0  0  0
   42.7727   -6.9543   -4.8450 N   0  0  0  0  0  0  0  0  0  0  0  0
   43.4892   -5.2170   -3.3452 C   0  0  0  0  0  0  0  0  0  0  0  0
   43.1881   -5.7981   -2.2743 O   0  0  0  0  0  0  0  0  0  0  0  0
   41.4634   -2.8038   -3.4275 C   0  0  0  0  0  0  0  0  0  0  0  0
   41.4639   -1.4269   -3.2894 C   0  0  0  0  0  0  0  0  0  0  0  0
   44.4751   -4.2203   -3.2403 O   0  0  0  0  0  0  0  0  0  0  0  0
  1  2  1  0
  2  3  2  0
  4  2  1  0
  4  5  1  0
  5  6  1  0
  6  7  1  6
  8  6  1  0
  9  8  2  0
 11 10  1  1
 11 12  1  0
 11 13  1  0
 13 15  1  0
 13 14  1  6
 14  8  1  0
 15 16  2  0
 18 17  1  0
 18 28  2  0
 19 18  1  0
 20 19  2  0
 20 21  1  0
 21 27  2  0
 22 21  1  0
 23 22  1  1
 24 23  1  0
 24 15  1  0
 25 29  1  0
 25 23  1  0
 26 25  2  0
 27 28  1  0
M  END
$$$$
