QTY.pdb
     RDKit          3D

 29 29  0  0  1  0  0  0  0  0999 V2000
   43.2175  -15.1226   -9.8765 N   0  0  0  0  0  0  0  0  0  0  0  0
   42.8830  -13.7947  -10.2239 C   0  0  0  0  0  0  0  0  0  0  0  0
   41.9351  -13.5565  -10.9947 O   0  0  0  0  0  0  0  0  0  0  0  0
   43.7000  -12.6886   -9.6390 C   0  0  0  0  0  0  0  0  0  0  0  0
   42.9441  -12.1212   -8.4842 C   0  0  0  0  0  0  0  0  0  0  0  0
   43.6540  -10.9407   -7.8636 C   0  0  2  0  0  0  0  0  0  0  0  0
   44.7663  -11.4895   -7.0663 N   0  0  0  0  0  0  0  0  0  0  0  0
   42.7676  -10.1270   -7.0021 C   0  0  0  0  0  0  0  0  0  0  0  0
   42.5954  -10.4238   -5.8262 O   0  0  0  0  0  0  0  0  0  0  0  0
   43.0743   -7.3217   -5.1946 C   0  0  0  0  0  0  0  0  0  0  0  0
   42.0046   -6.9387   -6.1595 C   0  0  1  0  0  0  0  0  0  0  0  0
   42.6320   -6.2246   -7.2033 O   0  0  0  0  0  0  0  0  0  0  0  0
   41.3012   -8.0819   -6.7938 C   0  0  2  0  0  0  0  0  0  0  0  0
   42.1066   -8.9921   -7.5307 N   0  0  0  0  0  0  0  0  0  0  0  0
   40.1825   -7.5890   -7.6411 C   0  0  0  0  0  0  0  0  0  0  0  0
   40.2254   -7.6244   -8.9026 O   0  0  0  0  0  0  0  0  0  0  0  0
   37.2145   -1.9008   -3.5752 O   0  0  0  0  0  0  0  0  0  0  0  0
   37.0889   -3.0331   -4.3838 C   0  0  0  0  0  0  0  0  0  0  0  0
   37.2763   -4.3057   -3.8873 C   0  0  0  0  0  0  0  0  0  0  0  0
   37.1403   -5.3910   -4.7289 C   0  0  0  0  0  0  0  0  0  0  0  0
   36.8192   -5.2567   -6.0702 C   0  0  0  0  0  0  0  0  0  0  0  0
   36.6850   -6.4407   -6.9502 C   0  0  0  0  0  0  0  0  0  0  0  0
   37.8817   -6.6553   -7.8498 C   0  0  2  0  0  0  0  0  0  0  0  0
   39.0135   -7.0548   -7.0365 N   0  0  0  0  0  0  0  0  0  0  0  0
   38.2020   -5.4821   -8.6642 C   0  0  0  0  0  0  0  0  0  0  0  0
   39.1449   -4.6920   -8.4157 O   0  0  0  0  0  0  0  0  0  0  0  0
   36.6389   -3.9629   -6.5320 C   0  0  0  0  0  0  0  0  0  0  0  0
   36.7691   -2.8573   -5.7100 C   0  0  0  0  0  0  0  0  0  0  0  0
   37.4375   -5.1778   -9.8042 O   0  0  0  0  0  0  0  0  0  0  0  0
  1  2  1  0
  2  3  2  0
  4  2  1  0
  4  5  1  0
  5  6  1  0
  6  7  1  1
  8  6  1  0
  9  8  2  0
 11 10  1  1
 11 12  1  0
 11 13  1  0
 13 15  1  0
 13 14  1  6
 14  8  1  0
 15 16  2  0
 18 17  1  0
 18 28  2  0
 19 18  1  0
 20 19  2  0
 20 21  1  0
 21 27  2  0
 22 21  1  0
 23 22  1  1
 24 23  1  0
 24 15  1  0
 25 29  1  0
 25 23  1  0
 26 25  2  0
 27 28  1  0
M  END
$$$$
