QTY.pdb
     RDKit          3D

 29 29  0  0  1  0  0  0  0  0999 V2000
   20.2556  -14.4579  -18.5192 N   0  0  0  0  0  0  0  0  0  0  0  0
   21.3369  -13.6603  -18.9559 C   0  0  0  0  0  0  0  0  0  0  0  0
   21.2135  -12.8978  -19.9320 O   0  0  0  0  0  0  0  0  0  0  0  0
   22.6290  -13.7603  -18.2119 C   0  0  0  0  0  0  0  0  0  0  0  0
   22.9660  -15.2071  -18.0704 C   0  0  0  0  0  0  0  0  0  0  0  0
   24.4011  -15.4968  -18.4436 C   0  0  2  0  0  0  0  0  0  0  0  0
   24.5224  -15.2310  -19.8888 N   0  0  0  0  0  0  0  0  0  0  0  0
   24.7991  -16.8916  -18.1508 C   0  0  0  0  0  0  0  0  0  0  0  0
   24.2118  -17.8314  -18.6729 O   0  0  0  0  0  0  0  0  0  0  0  0
   27.6148  -18.6366  -19.2038 C   0  0  0  0  0  0  0  0  0  0  0  0
   27.6960  -18.7530  -17.7200 C   0  0  1  0  0  0  0  0  0  0  0  0
   28.6560  -17.8123  -17.2880 O   0  0  0  0  0  0  0  0  0  0  0  0
   26.4373  -18.4316  -17.0014 C   0  0  2  0  0  0  0  0  0  0  0  0
   25.8675  -17.1555  -17.2602 N   0  0  0  0  0  0  0  0  0  0  0  0
   26.6201  -18.6215  -15.5376 C   0  0  0  0  0  0  0  0  0  0  0  0
   26.7979  -17.6518  -14.7485 O   0  0  0  0  0  0  0  0  0  0  0  0
   25.9000  -20.4012   -7.2019 O   0  0  0  0  0  0  0  0  0  0  0  0
   25.8852  -20.1246   -8.5713 C   0  0  0  0  0  0  0  0  0  0  0  0
   26.5083  -19.0119   -9.0952 C   0  0  0  0  0  0  0  0  0  0  0  0
   26.4639  -18.7850  -10.4558 C   0  0  0  0  0  0  0  0  0  0  0  0
   25.8114  -19.6380  -11.3314 C   0  0  0  0  0  0  0  0  0  0  0  0
   25.7765  -19.3651  -12.7870 C   0  0  0  0  0  0  0  0  0  0  0  0
   26.8269  -20.1276  -13.5633 C   0  0  2  0  0  0  0  0  0  0  0  0
   26.5985  -19.9281  -14.9810 N   0  0  0  0  0  0  0  0  0  0  0  0
   26.8637  -21.5518  -13.2277 C   0  0  0  0  0  0  0  0  0  0  0  0
   26.1210  -22.4159  -13.7538 O   0  0  0  0  0  0  0  0  0  0  0  0
   25.1973  -20.7447  -10.7676 C   0  0  0  0  0  0  0  0  0  0  0  0
   25.2266  -20.9961   -9.4071 C   0  0  0  0  0  0  0  0  0  0  0  0
   27.7678  -22.0319  -12.2640 O   0  0  0  0  0  0  0  0  0  0  0  0
  1  2  1  0
  2  3  2  0
  4  2  1  0
  4  5  1  0
  5  6  1  0
  6  7  1  6
  8  6  1  0
  9  8  2  0
 11 10  1  6
 11 12  1  0
 11 13  1  0
 13 15  1  0
 13 14  1  1
 14  8  1  0
 15 16  2  0
 18 17  1  0
 18 28  2  0
 19 18  1  0
 20 19  2  0
 20 21  1  0
 21 27  2  0
 22 21  1  0
 23 22  1  1
 24 23  1  0
 24 15  1  0
 25 29  1  0
 25 23  1  0
 26 25  2  0
 27 28  1  0
M  END
$$$$
