QTY.pdb
     RDKit          3D

 29 29  0  0  1  0  0  0  0  0999 V2000
   21.4102   -9.2713  -21.9447 N   0  0  0  0  0  0  0  0  0  0  0  0
   21.1753  -10.5588  -22.4766 C   0  0  0  0  0  0  0  0  0  0  0  0
   20.7283  -10.7008  -23.6297 O   0  0  0  0  0  0  0  0  0  0  0  0
   21.4791  -11.7411  -21.6147 C   0  0  0  0  0  0  0  0  0  0  0  0
   22.0901  -11.2408  -20.3486 C   0  0  0  0  0  0  0  0  0  0  0  0
   21.3499  -11.7316  -19.1263 C   0  0  2  0  0  0  0  0  0  0  0  0
   20.3794  -12.7369  -19.5969 N   0  0  0  0  0  0  0  0  0  0  0  0
   20.6457  -10.6461  -18.4083 C   0  0  0  0  0  0  0  0  0  0  0  0
   19.5327  -10.2801  -18.7661 O   0  0  0  0  0  0  0  0  0  0  0  0
   20.1948  -10.5443  -14.4595 C   0  0  0  0  0  0  0  0  0  0  0  0
   19.6398   -9.6006  -15.4711 C   0  0  1  0  0  0  0  0  0  0  0  0
   19.1362   -8.4894  -14.7607 O   0  0  0  0  0  0  0  0  0  0  0  0
   20.6343   -9.0687  -16.4365 C   0  0  2  0  0  0  0  0  0  0  0  0
   21.2538  -10.0165  -17.2957 N   0  0  0  0  0  0  0  0  0  0  0  0
   21.6693   -8.2754  -15.7212 C   0  0  0  0  0  0  0  0  0  0  0  0
   22.6991   -8.8065  -15.2192 O   0  0  0  0  0  0  0  0  0  0  0  0
   25.4347   -7.1049  -20.6399 O   0  0  0  0  0  0  0  0  0  0  0  0
   24.8129   -6.5904  -19.4994 C   0  0  0  0  0  0  0  0  0  0  0  0
   23.4603   -6.3257  -19.4654 C   0  0  0  0  0  0  0  0  0  0  0  0
   22.8954   -5.8178  -18.3132 C   0  0  0  0  0  0  0  0  0  0  0  0
   23.6381   -5.5582  -17.1724 C   0  0  0  0  0  0  0  0  0  0  0  0
   23.0041   -5.0080  -15.9518 C   0  0  0  0  0  0  0  0  0  0  0  0
   22.5669   -6.0746  -14.9728 C   0  0  2  0  0  0  0  0  0  0  0  0
   21.5194   -6.8697  -15.5831 N   0  0  0  0  0  0  0  0  0  0  0  0
   22.1350   -5.5267  -13.6861 C   0  0  0  0  0  0  0  0  0  0  0  0
   20.9544   -5.5764  -13.2634 O   0  0  0  0  0  0  0  0  0  0  0  0
   24.9933   -5.8368  -17.2453 C   0  0  0  0  0  0  0  0  0  0  0  0
   25.5851   -6.3464  -18.3876 C   0  0  0  0  0  0  0  0  0  0  0  0
   23.0600   -4.8968  -12.8352 O   0  0  0  0  0  0  0  0  0  0  0  0
  1  2  1  0
  2  3  2  0
  4  2  1  0
  4  5  1  0
  5  6  1  0
  6  7  1  6
  8  6  1  0
  9  8  2  0
 11 10  1  1
 11 12  1  0
 11 13  1  0
 13 15  1  0
 13 14  1  1
 14  8  1  0
 15 16  2  0
 18 17  1  0
 18 28  2  0
 19 18  1  0
 20 19  2  0
 20 21  1  0
 21 27  2  0
 22 21  1  0
 23 22  1  6
 24 23  1  0
 24 15  1  0
 25 29  1  0
 25 23  1  0
 26 25  2  0
 27 28  1  0
M  END
$$$$
