QTY.pdb
     RDKit          3D

 29 29  0  0  1  0  0  0  0  0999 V2000
   18.5558  -22.8779    5.0217 N   0  0  0  0  0  0  0  0  0  0  0  0
   18.4604  -22.4685    3.6729 C   0  0  0  0  0  0  0  0  0  0  0  0
   19.3403  -22.7779    2.8487 O   0  0  0  0  0  0  0  0  0  0  0  0
   17.2740  -21.6550    3.2679 C   0  0  0  0  0  0  0  0  0  0  0  0
   16.4796  -21.3596    4.4961 C   0  0  0  0  0  0  0  0  0  0  0  0
   15.2590  -20.5210    4.1968 C   0  0  2  0  0  0  0  0  0  0  0  0
   15.1736  -20.4101    2.7290 N   0  0  0  0  0  0  0  0  0  0  0  0
   15.3272  -19.1727    4.8028 C   0  0  0  0  0  0  0  0  0  0  0  0
   15.4853  -18.1803    4.1022 O   0  0  0  0  0  0  0  0  0  0  0  0
   13.1622  -18.4262    8.3177 C   0  0  0  0  0  0  0  0  0  0  0  0
   14.5218  -17.8182    8.2544 C   0  0  1  0  0  0  0  0  0  0  0  0
   15.3685  -18.6273    9.0428 O   0  0  0  0  0  0  0  0  0  0  0  0
   15.1217  -17.7769    6.8970 C   0  0  2  0  0  0  0  0  0  0  0  0
   15.2100  -19.0151    6.2048 N   0  0  0  0  0  0  0  0  0  0  0  0
   16.4569  -17.1236    6.9466 C   0  0  0  0  0  0  0  0  0  0  0  0
   17.5256  -17.7538    6.7109 O   0  0  0  0  0  0  0  0  0  0  0  0
   22.6002  -10.8331    6.5160 O   0  0  0  0  0  0  0  0  0  0  0  0
   21.4911  -11.6786    6.4325 C   0  0  0  0  0  0  0  0  0  0  0  0
   21.6105  -13.0476    6.5441 C   0  0  0  0  0  0  0  0  0  0  0  0
   20.4827  -13.8382    6.4544 C   0  0  0  0  0  0  0  0  0  0  0  0
   19.2176  -13.3095    6.2544 C   0  0  0  0  0  0  0  0  0  0  0  0
   18.0260  -14.1843    6.1572 C   0  0  0  0  0  0  0  0  0  0  0  0
   17.8619  -15.1048    7.3460 C   0  0  2  0  0  0  0  0  0  0  0  0
   16.5630  -15.7441    7.2677 N   0  0  0  0  0  0  0  0  0  0  0  0
   18.0394  -14.4202    8.6274 C   0  0  0  0  0  0  0  0  0  0  0  0
   17.1243  -13.8050    9.2266 O   0  0  0  0  0  0  0  0  0  0  0  0
   19.1381  -11.9305    6.1471 C   0  0  0  0  0  0  0  0  0  0  0  0
   20.2526  -11.1146    6.2334 C   0  0  0  0  0  0  0  0  0  0  0  0
   19.2913  -14.4224    9.2672 O   0  0  0  0  0  0  0  0  0  0  0  0
  1  2  1  0
  2  3  2  0
  4  2  1  0
  4  5  1  0
  5  6  1  0
  6  7  1  6
  8  6  1  0
  9  8  2  0
 11 10  1  6
 11 12  1  0
 11 13  1  0
 13 15  1  0
 13 14  1  1
 14  8  1  0
 15 16  2  0
 18 17  1  0
 18 28  2  0
 19 18  1  0
 20 19  2  0
 20 21  1  0
 21 27  2  0
 22 21  1  0
 23 22  1  6
 24 23  1  0
 24 15  1  0
 25 29  1  0
 25 23  1  0
 26 25  2  0
 27 28  1  0
M  END
$$$$
