QTY.pdb
     RDKit          3D

 29 29  0  0  1  0  0  0  0  0999 V2000
   17.6405  -12.9196  -18.2122 N   0  0  0  0  0  0  0  0  0  0  0  0
   17.8844  -14.3055  -18.3381 C   0  0  0  0  0  0  0  0  0  0  0  0
   16.9896  -15.0776  -18.7287 O   0  0  0  0  0  0  0  0  0  0  0  0
   19.2455  -14.8138  -17.9889 C   0  0  0  0  0  0  0  0  0  0  0  0
   20.0708  -13.6506  -17.5499 C   0  0  0  0  0  0  0  0  0  0  0  0
   20.6587  -12.8958  -18.7193 C   0  0  2  0  0  0  0  0  0  0  0  0
   21.5620  -13.8317  -19.4135 N   0  0  0  0  0  0  0  0  0  0  0  0
   21.4045  -11.6869  -18.3045 C   0  0  0  0  0  0  0  0  0  0  0  0
   22.5095  -11.7825  -17.7845 O   0  0  0  0  0  0  0  0  0  0  0  0
   22.1490   -8.6257  -20.5478 C   0  0  0  0  0  0  0  0  0  0  0  0
   21.5192   -8.1541  -19.2817 C   0  0  1  0  0  0  0  0  0  0  0  0
   20.1785   -7.8336  -19.5866 O   0  0  0  0  0  0  0  0  0  0  0  0
   21.4747   -9.1651  -18.1954 C   0  0  2  0  0  0  0  0  0  0  0  0
   20.8460  -10.4016  -18.5052 N   0  0  0  0  0  0  0  0  0  0  0  0
   20.8674   -8.5763  -16.9720 C   0  0  0  0  0  0  0  0  0  0  0  0
   19.7046   -8.8788  -16.5833 O   0  0  0  0  0  0  0  0  0  0  0  0
   19.3519   -5.6913   -8.9579 O   0  0  0  0  0  0  0  0  0  0  0  0
   19.9443   -6.1201  -10.1483 C   0  0  0  0  0  0  0  0  0  0  0  0
   20.7801   -5.3033  -10.8799 C   0  0  0  0  0  0  0  0  0  0  0  0
   21.3399   -5.7758  -12.0496 C   0  0  0  0  0  0  0  0  0  0  0  0
   21.0957   -7.0531  -12.5283 C   0  0  0  0  0  0  0  0  0  0  0  0
   21.7073   -7.5304  -13.7903 C   0  0  0  0  0  0  0  0  0  0  0  0
   20.9982   -7.0246  -15.0267 C   0  0  2  0  0  0  0  0  0  0  0  0
   21.5983   -7.6384  -16.1950 N   0  0  0  0  0  0  0  0  0  0  0  0
   21.0053   -5.5647  -15.1324 C   0  0  0  0  0  0  0  0  0  0  0  0
   21.9641   -4.8995  -15.5940 O   0  0  0  0  0  0  0  0  0  0  0  0
   20.2510   -7.8436  -11.7660 C   0  0  0  0  0  0  0  0  0  0  0  0
   19.6766   -7.3950  -10.5897 C   0  0  0  0  0  0  0  0  0  0  0  0
   19.8951   -4.8157  -14.7047 O   0  0  0  0  0  0  0  0  0  0  0  0
  1  2  1  0
  2  3  2  0
  4  2  1  0
  4  5  1  0
  5  6  1  0
  6  7  1  1
  8  6  1  0
  9  8  2  0
 11 10  1  6
 11 12  1  0
 11 13  1  0
 13 15  1  0
 13 14  1  6
 14  8  1  0
 15 16  2  0
 18 17  1  0
 18 28  2  0
 19 18  1  0
 20 19  2  0
 20 21  1  0
 21 27  2  0
 22 21  1  0
 23 22  1  1
 24 23  1  0
 24 15  1  0
 25 29  1  0
 25 23  1  0
 26 25  2  0
 27 28  1  0
M  END
$$$$
