QTY.pdb
     RDKit          3D

 29 29  0  0  1  0  0  0  0  0999 V2000
   25.1823  -21.5673  -17.1759 N   0  0  0  0  0  0  0  0  0  0  0  0
   24.2530  -22.3447  -16.4492 C   0  0  0  0  0  0  0  0  0  0  0  0
   23.8737  -23.4504  -16.8771 O   0  0  0  0  0  0  0  0  0  0  0  0
   23.7412  -21.8000  -15.1552 C   0  0  0  0  0  0  0  0  0  0  0  0
   24.4621  -20.5233  -14.8779 C   0  0  0  0  0  0  0  0  0  0  0  0
   23.5182  -19.3488  -14.7664 C   0  0  2  0  0  0  0  0  0  0  0  0
   22.3343  -19.6812  -15.5799 N   0  0  0  0  0  0  0  0  0  0  0  0
   24.1194  -18.0830  -15.2418 C   0  0  0  0  0  0  0  0  0  0  0  0
   25.1355  -17.6398  -14.7206 O   0  0  0  0  0  0  0  0  0  0  0  0
   24.6228  -14.7598  -18.8390 C   0  0  0  0  0  0  0  0  0  0  0  0
   24.0695  -16.0441  -18.3227 C   0  0  1  0  0  0  0  0  0  0  0  0
   24.9507  -17.0655  -18.7389 O   0  0  0  0  0  0  0  0  0  0  0  0
   23.9867  -16.1352  -16.8432 C   0  0  2  0  0  0  0  0  0  0  0  0
   23.5238  -17.3682  -16.3088 N   0  0  0  0  0  0  0  0  0  0  0  0
   23.1769  -15.0097  -16.3051 C   0  0  0  0  0  0  0  0  0  0  0  0
   21.9205  -15.0744  -16.1955 O   0  0  0  0  0  0  0  0  0  0  0  0
   21.4439   -7.0722  -12.6924 O   0  0  0  0  0  0  0  0  0  0  0  0
   22.0573   -8.2505  -13.1250 C   0  0  0  0  0  0  0  0  0  0  0  0
   22.1599   -9.3583  -12.3105 C   0  0  0  0  0  0  0  0  0  0  0  0
   22.7757  -10.4979  -12.7868 C   0  0  0  0  0  0  0  0  0  0  0  0
   23.3030  -10.5795  -14.0656 C   0  0  0  0  0  0  0  0  0  0  0  0
   23.9630  -11.8153  -14.5470 C   0  0  0  0  0  0  0  0  0  0  0  0
   23.0373  -12.7223  -15.3266 C   0  0  2  0  0  0  0  0  0  0  0  0
   23.8129  -13.8085  -15.8928 N   0  0  0  0  0  0  0  0  0  0  0  0
   22.2821  -12.0146  -16.3616 C   0  0  0  0  0  0  0  0  0  0  0  0
   22.7437  -11.7247  -17.4921 O   0  0  0  0  0  0  0  0  0  0  0  0
   23.1808   -9.4466  -14.8538 C   0  0  0  0  0  0  0  0  0  0  0  0
   22.5683   -8.2911  -14.4013 C   0  0  0  0  0  0  0  0  0  0  0  0
   20.9555  -11.6137  -16.1249 O   0  0  0  0  0  0  0  0  0  0  0  0
  1  2  1  0
  2  3  2  0
  4  2  1  0
  4  5  1  0
  5  6  1  0
  6  7  1  6
  8  6  1  0
  9  8  2  0
 11 10  1  1
 11 12  1  0
 11 13  1  0
 13 15  1  0
 13 14  1  6
 14  8  1  0
 15 16  2  0
 18 17  1  0
 18 28  2  0
 19 18  1  0
 20 19  2  0
 20 21  1  0
 21 27  2  0
 22 21  1  0
 23 22  1  6
 24 23  1  0
 24 15  1  0
 25 29  1  0
 25 23  1  0
 26 25  2  0
 27 28  1  0
M  END
$$$$
