QTY.pdb
     RDKit          3D

 29 29  0  0  1  0  0  0  0  0999 V2000
   15.8248  -11.0510  -16.2965 N   0  0  0  0  0  0  0  0  0  0  0  0
   15.9971  -12.1725  -17.1382 C   0  0  0  0  0  0  0  0  0  0  0  0
   15.0544  -12.9546  -17.3596 O   0  0  0  0  0  0  0  0  0  0  0  0
   17.3419  -12.3898  -17.7524 C   0  0  0  0  0  0  0  0  0  0  0  0
   18.2543  -11.3220  -17.2484 C   0  0  0  0  0  0  0  0  0  0  0  0
   19.6796  -11.5283  -17.7053 C   0  0  2  0  0  0  0  0  0  0  0  0
   20.0215  -12.9295  -17.3991 N   0  0  0  0  0  0  0  0  0  0  0  0
   20.6338  -10.6169  -17.0355 C   0  0  0  0  0  0  0  0  0  0  0  0
   21.1977  -10.9533  -16.0013 O   0  0  0  0  0  0  0  0  0  0  0  0
   23.1813   -8.0780  -19.0615 C   0  0  0  0  0  0  0  0  0  0  0  0
   22.4140   -7.4206  -17.9656 C   0  0  1  0  0  0  0  0  0  0  0  0
   21.3794   -6.6805  -18.5779 O   0  0  0  0  0  0  0  0  0  0  0  0
   21.7590   -8.3564  -17.0173 C   0  0  2  0  0  0  0  0  0  0  0  0
   20.9060   -9.3411  -17.5855 N   0  0  0  0  0  0  0  0  0  0  0  0
   21.0312   -7.5955  -15.9668 C   0  0  0  0  0  0  0  0  0  0  0  0
   19.7829   -7.4099  -16.0108 O   0  0  0  0  0  0  0  0  0  0  0  0
   18.1183   -4.9411   -8.2482 O   0  0  0  0  0  0  0  0  0  0  0  0
   18.7948   -5.5140   -9.3280 C   0  0  0  0  0  0  0  0  0  0  0  0
   18.1231   -6.1260  -10.3649 C   0  0  0  0  0  0  0  0  0  0  0  0
   18.8393   -6.6766  -11.4083 C   0  0  0  0  0  0  0  0  0  0  0  0
   20.2236   -6.6411  -11.4607 C   0  0  0  0  0  0  0  0  0  0  0  0
   20.9651   -7.2455  -12.5918 C   0  0  0  0  0  0  0  0  0  0  0  0
   21.0329   -6.3499  -13.8087 C   0  0  2  0  0  0  0  0  0  0  0  0
   21.7401   -7.0473  -14.8648 N   0  0  0  0  0  0  0  0  0  0  0  0
   21.6460   -5.0507  -13.5284 C   0  0  0  0  0  0  0  0  0  0  0  0
   20.9984   -3.9845  -13.3914 O   0  0  0  0  0  0  0  0  0  0  0  0
   20.8626   -6.0181  -10.4010 C   0  0  0  0  0  0  0  0  0  0  0  0
   20.1690   -5.4580   -9.3427 C   0  0  0  0  0  0  0  0  0  0  0  0
   23.0410   -4.9368  -13.3955 O   0  0  0  0  0  0  0  0  0  0  0  0
  1  2  1  0
  2  3  2  0
  4  2  1  0
  4  5  1  0
  5  6  1  0
  6  7  1  1
  8  6  1  0
  9  8  2  0
 11 10  1  6
 11 12  1  0
 11 13  1  0
 13 15  1  0
 13 14  1  6
 14  8  1  0
 15 16  2  0
 18 17  1  0
 18 28  2  0
 19 18  1  0
 20 19  2  0
 20 21  1  0
 21 27  2  0
 22 21  1  0
 23 22  1  1
 24 23  1  0
 24 15  1  0
 25 29  1  0
 25 23  1  0
 26 25  2  0
 27 28  1  0
M  END
$$$$
