QTY.pdb
     RDKit          3D

 29 29  0  0  1  0  0  0  0  0999 V2000
   12.9037  -12.0561  -10.9135 N   0  0  0  0  0  0  0  0  0  0  0  0
   12.8576  -12.5217  -12.2466 C   0  0  0  0  0  0  0  0  0  0  0  0
   11.9640  -13.3044  -12.6183 O   0  0  0  0  0  0  0  0  0  0  0  0
   13.9118  -12.0469  -13.1933 C   0  0  0  0  0  0  0  0  0  0  0  0
   14.8903  -11.2297  -12.4178 C   0  0  0  0  0  0  0  0  0  0  0  0
   15.9427  -10.6073  -13.3056 C   0  0  2  0  0  0  0  0  0  0  0  0
   16.7411  -11.7185  -13.8549 N   0  0  0  0  0  0  0  0  0  0  0  0
   16.8212   -9.6643  -12.5785 C   0  0  0  0  0  0  0  0  0  0  0  0
   17.9938   -9.9443  -12.3610 O   0  0  0  0  0  0  0  0  0  0  0  0
   19.0940   -7.5834  -13.0523 C   0  0  0  0  0  0  0  0  0  0  0  0
   18.0386   -6.6924  -12.4917 C   0  0  1  0  0  0  0  0  0  0  0  0
   17.2812   -6.2181  -13.5846 O   0  0  0  0  0  0  0  0  0  0  0  0
   17.0823   -7.3621  -11.5746 C   0  0  2  0  0  0  0  0  0  0  0  0
   16.3133   -8.4232  -12.1248 N   0  0  0  0  0  0  0  0  0  0  0  0
   16.1864   -6.3559  -10.9445 C   0  0  0  0  0  0  0  0  0  0  0  0
   15.0932   -6.0034  -11.4692 O   0  0  0  0  0  0  0  0  0  0  0  0
   11.2111   -9.2965   -7.9032 O   0  0  0  0  0  0  0  0  0  0  0  0
   12.2295   -8.3412   -7.8566 C   0  0  0  0  0  0  0  0  0  0  0  0
   13.5613   -8.6978   -7.8524 C   0  0  0  0  0  0  0  0  0  0  0  0
   14.5285   -7.7144   -7.8055 C   0  0  0  0  0  0  0  0  0  0  0  0
   14.2161   -6.3651   -7.7619 C   0  0  0  0  0  0  0  0  0  0  0  0
   15.2767   -5.3324   -7.7070 C   0  0  0  0  0  0  0  0  0  0  0  0
   15.6642   -4.8008   -9.0689 C   0  0  2  0  0  0  0  0  0  0  0  0
   16.5484   -5.7543   -9.7098 N   0  0  0  0  0  0  0  0  0  0  0  0
   16.2718   -3.4704   -9.0112 C   0  0  0  0  0  0  0  0  0  0  0  0
   17.4815   -3.2406   -9.2534 O   0  0  0  0  0  0  0  0  0  0  0  0
   12.8678   -6.0464   -7.7676 C   0  0  0  0  0  0  0  0  0  0  0  0
   11.8778   -7.0122   -7.8142 C   0  0  0  0  0  0  0  0  0  0  0  0
   15.4961   -2.3490   -8.6686 O   0  0  0  0  0  0  0  0  0  0  0  0
  1  2  1  0
  2  3  2  0
  4  2  1  0
  4  5  1  0
  5  6  1  0
  6  7  1  1
  8  6  1  0
  9  8  2  0
 11 10  1  6
 11 12  1  0
 11 13  1  0
 13 15  1  0
 13 14  1  6
 14  8  1  0
 15 16  2  0
 18 17  1  0
 18 28  2  0
 19 18  1  0
 20 19  2  0
 20 21  1  0
 21 27  2  0
 22 21  1  0
 23 22  1  1
 24 23  1  0
 24 15  1  0
 25 29  1  0
 25 23  1  0
 26 25  2  0
 27 28  1  0
M  END
$$$$
