QTY.pdb
     RDKit          3D

 29 29  0  0  1  0  0  0  0  0999 V2000
   21.8489  -16.5643  -19.4450 N   0  0  0  0  0  0  0  0  0  0  0  0
   22.0203  -16.2737  -20.8169 C   0  0  0  0  0  0  0  0  0  0  0  0
   21.5409  -17.0187  -21.6914 O   0  0  0  0  0  0  0  0  0  0  0  0
   22.7924  -15.0482  -21.1843 C   0  0  0  0  0  0  0  0  0  0  0  0
   23.2783  -14.4169  -19.9226 C   0  0  0  0  0  0  0  0  0  0  0  0
   22.2124  -13.5764  -19.2591 C   0  0  2  0  0  0  0  0  0  0  0  0
   21.3570  -13.0513  -20.3391 N   0  0  0  0  0  0  0  0  0  0  0  0
   22.7735  -12.4578  -18.4693 C   0  0  0  0  0  0  0  0  0  0  0  0
   23.6455  -12.6596  -17.6329 O   0  0  0  0  0  0  0  0  0  0  0  0
   23.2093   -8.5194  -19.9574 C   0  0  0  0  0  0  0  0  0  0  0  0
   23.7181   -9.1089  -18.6863 C   0  0  1  0  0  0  0  0  0  0  0  0
   23.9989   -8.0308  -17.8192 O   0  0  0  0  0  0  0  0  0  0  0  0
   22.7506   -9.9817  -17.9748 C   0  0  2  0  0  0  0  0  0  0  0  0
   22.3063  -11.1371  -18.6732 N   0  0  0  0  0  0  0  0  0  0  0  0
   21.5832   -9.1835  -17.5140 C   0  0  0  0  0  0  0  0  0  0  0  0
   20.5847   -8.9594  -18.2539 O   0  0  0  0  0  0  0  0  0  0  0  0
   16.7582  -12.9446  -17.0928 O   0  0  0  0  0  0  0  0  0  0  0  0
   17.4506  -11.8721  -16.5251 C   0  0  0  0  0  0  0  0  0  0  0  0
   17.0598  -10.5655  -16.7274 C   0  0  0  0  0  0  0  0  0  0  0  0
   17.7787   -9.5423  -16.1434 C   0  0  0  0  0  0  0  0  0  0  0  0
   18.8920   -9.7733  -15.3513 C   0  0  0  0  0  0  0  0  0  0  0  0
   19.6467   -8.6537  -14.7418 C   0  0  0  0  0  0  0  0  0  0  0  0
   20.4387   -7.8490  -15.7482 C   0  0  2  0  0  0  0  0  0  0  0  0
   21.5644   -8.6426  -16.2008 N   0  0  0  0  0  0  0  0  0  0  0  0
   20.8787   -6.5546  -15.2256 C   0  0  0  0  0  0  0  0  0  0  0  0
   22.0815   -6.2108  -15.1254 O   0  0  0  0  0  0  0  0  0  0  0  0
   19.2536  -11.0986  -15.1714 C   0  0  0  0  0  0  0  0  0  0  0  0
   18.5505  -12.1434  -15.7451 C   0  0  0  0  0  0  0  0  0  0  0  0
   19.9362   -5.6036  -14.7966 O   0  0  0  0  0  0  0  0  0  0  0  0
  1  2  1  0
  2  3  2  0
  4  2  1  0
  4  5  1  0
  5  6  1  0
  6  7  1  6
  8  6  1  0
  9  8  2  0
 11 10  1  6
 11 12  1  0
 11 13  1  0
 13 15  1  0
 13 14  1  6
 14  8  1  0
 15 16  2  0
 18 17  1  0
 18 28  2  0
 19 18  1  0
 20 19  2  0
 20 21  1  0
 21 27  2  0
 22 21  1  0
 23 22  1  1
 24 23  1  0
 24 15  1  0
 25 29  1  0
 25 23  1  0
 26 25  2  0
 27 28  1  0
M  END
$$$$
