QTY.pdb
     RDKit          3D

 29 29  0  0  1  0  0  0  0  0999 V2000
   22.5623  -16.0518  -17.3525 N   0  0  0  0  0  0  0  0  0  0  0  0
   22.8200  -15.7744  -18.7136 C   0  0  0  0  0  0  0  0  0  0  0  0
   22.5088  -14.6766  -19.2109 O   0  0  0  0  0  0  0  0  0  0  0  0
   23.4758  -16.8367  -19.5350 C   0  0  0  0  0  0  0  0  0  0  0  0
   23.8080  -17.9762  -18.6307 C   0  0  0  0  0  0  0  0  0  0  0  0
   25.2697  -18.3518  -18.7012 C   0  0  2  0  0  0  0  0  0  0  0  0
   25.5232  -18.8002  -20.0828 N   0  0  0  0  0  0  0  0  0  0  0  0
   25.6329  -19.4231  -17.7471 C   0  0  0  0  0  0  0  0  0  0  0  0
   25.4346  -20.5998  -18.0242 O   0  0  0  0  0  0  0  0  0  0  0  0
   28.7948  -20.6353  -16.7001 C   0  0  0  0  0  0  0  0  0  0  0  0
   28.1346  -20.2278  -15.4273 C   0  0  1  0  0  0  0  0  0  0  0  0
   28.6851  -18.9800  -15.0625 O   0  0  0  0  0  0  0  0  0  0  0  0
   26.6665  -20.0290  -15.5243 C   0  0  2  0  0  0  0  0  0  0  0  0
   26.2159  -19.0976  -16.4988 N   0  0  0  0  0  0  0  0  0  0  0  0
   26.1070  -19.6830  -14.1905 C   0  0  0  0  0  0  0  0  0  0  0  0
   25.9302  -18.4881  -13.8222 O   0  0  0  0  0  0  0  0  0  0  0  0
   19.5388  -20.9208   -8.8243 O   0  0  0  0  0  0  0  0  0  0  0  0
   20.5813  -20.6227   -9.7054 C   0  0  0  0  0  0  0  0  0  0  0  0
   20.7670  -21.3259  -10.8767 C   0  0  0  0  0  0  0  0  0  0  0  0
   21.8128  -20.9909  -11.7126 C   0  0  0  0  0  0  0  0  0  0  0  0
   22.6973  -19.9643  -11.4228 C   0  0  0  0  0  0  0  0  0  0  0  0
   23.8139  -19.6313  -12.3376 C   0  0  0  0  0  0  0  0  0  0  0  0
   25.0843  -20.3928  -12.0319 C   0  0  2  0  0  0  0  0  0  0  0  0
   25.7505  -20.7126  -13.2792 N   0  0  0  0  0  0  0  0  0  0  0  0
   24.8507  -21.5961  -11.2320 C   0  0  0  0  0  0  0  0  0  0  0  0
   24.6709  -21.5889   -9.9900 O   0  0  0  0  0  0  0  0  0  0  0  0
   22.4784  -19.2812  -10.2375 C   0  0  0  0  0  0  0  0  0  0  0  0
   21.4377  -19.5964   -9.3814 C   0  0  0  0  0  0  0  0  0  0  0  0
   24.8164  -22.8612  -11.8445 O   0  0  0  0  0  0  0  0  0  0  0  0
  1  2  1  0
  2  3  2  0
  4  2  1  0
  4  5  1  0
  5  6  1  0
  6  7  1  6
  8  6  1  0
  9  8  2  0
 11 10  1  6
 11 12  1  0
 11 13  1  0
 13 15  1  0
 13 14  1  6
 14  8  1  0
 15 16  2  0
 18 17  1  0
 18 28  2  0
 19 18  1  0
 20 19  2  0
 20 21  1  0
 21 27  2  0
 22 21  1  0
 23 22  1  6
 24 23  1  0
 24 15  1  0
 25 29  1  0
 25 23  1  0
 26 25  2  0
 27 28  1  0
M  END
$$$$
