QTY.pdb
     RDKit          3D

 29 29  0  0  1  0  0  0  0  0999 V2000
   22.5985  -27.5393  -16.4929 N   0  0  0  0  0  0  0  0  0  0  0  0
   21.7771  -26.4218  -16.7621 C   0  0  0  0  0  0  0  0  0  0  0  0
   20.6110  -26.5711  -17.1711 O   0  0  0  0  0  0  0  0  0  0  0  0
   22.3501  -25.0595  -16.5412 C   0  0  0  0  0  0  0  0  0  0  0  0
   23.7744  -25.2225  -16.1274 C   0  0  0  0  0  0  0  0  0  0  0  0
   23.9563  -25.0616  -14.6361 C   0  0  2  0  0  0  0  0  0  0  0  0
   22.6594  -24.6093  -14.1000 N   0  0  0  0  0  0  0  0  0  0  0  0
   25.0145  -24.0870  -14.2896 C   0  0  0  0  0  0  0  0  0  0  0  0
   26.1583  -24.2336  -14.7029 O   0  0  0  0  0  0  0  0  0  0  0  0
   25.5280  -20.4137  -15.0086 C   0  0  0  0  0  0  0  0  0  0  0  0
   25.3914  -20.5942  -13.5353 C   0  0  1  0  0  0  0  0  0  0  0  0
   24.0523  -20.2893  -13.2085 O   0  0  0  0  0  0  0  0  0  0  0  0
   25.6394  -21.9761  -13.0527 C   0  0  2  0  0  0  0  0  0  0  0  0
   24.7145  -22.9701  -13.4731 N   0  0  0  0  0  0  0  0  0  0  0  0
   25.7616  -21.9870  -11.5704 C   0  0  0  0  0  0  0  0  0  0  0  0
   24.9042  -22.5406  -10.8268 O   0  0  0  0  0  0  0  0  0  0  0  0
   28.5067  -19.2249   -3.5907 O   0  0  0  0  0  0  0  0  0  0  0  0
   28.4359  -19.5563   -4.9461 C   0  0  0  0  0  0  0  0  0  0  0  0
   28.8755  -20.7738   -5.4209 C   0  0  0  0  0  0  0  0  0  0  0  0
   28.7831  -21.0514   -6.7697 C   0  0  0  0  0  0  0  0  0  0  0  0
   28.2604  -20.1479   -7.6810 C   0  0  0  0  0  0  0  0  0  0  0  0
   28.1788  -20.4726   -9.1241 C   0  0  0  0  0  0  0  0  0  0  0  0
   26.9047  -21.1939   -9.5032 C   0  0  2  0  0  0  0  0  0  0  0  0
   26.8712  -21.3604  -10.9430 N   0  0  0  0  0  0  0  0  0  0  0  0
   25.6999  -20.5179   -9.0197 C   0  0  0  0  0  0  0  0  0  0  0  0
   25.1668  -19.5381   -9.5946 O   0  0  0  0  0  0  0  0  0  0  0  0
   27.8295  -18.9359   -7.1662 C   0  0  0  0  0  0  0  0  0  0  0  0
   27.9106  -18.6319   -5.8186 C   0  0  0  0  0  0  0  0  0  0  0  0
   25.0631  -20.9542   -7.8446 O   0  0  0  0  0  0  0  0  0  0  0  0
  1  2  1  0
  2  3  2  0
  4  2  1  0
  4  5  1  0
  5  6  1  0
  6  7  1  1
  8  6  1  0
  9  8  2  0
 11 10  1  6
 11 12  1  0
 11 13  1  0
 13 15  1  0
 13 14  1  1
 14  8  1  0
 15 16  2  0
 18 17  1  0
 18 28  2  0
 19 18  1  0
 20 19  2  0
 20 21  1  0
 21 27  2  0
 22 21  1  0
 23 22  1  6
 24 23  1  0
 24 15  1  0
 25 29  1  0
 25 23  1  0
 26 25  2  0
 27 28  1  0
M  END
$$$$
