QTY.pdb
     RDKit          3D

 29 29  0  0  1  0  0  0  0  0999 V2000
   26.7523  -23.4017  -17.0182 N   0  0  0  0  0  0  0  0  0  0  0  0
   28.0919  -22.9542  -17.0540 C   0  0  0  0  0  0  0  0  0  0  0  0
   28.8636  -23.1744  -16.1025 O   0  0  0  0  0  0  0  0  0  0  0  0
   28.5520  -22.2108  -18.2659 C   0  0  0  0  0  0  0  0  0  0  0  0
   27.4324  -22.2040  -19.2524 C   0  0  0  0  0  0  0  0  0  0  0  0
   27.0247  -20.8022  -19.6416 C   0  0  2  0  0  0  0  0  0  0  0  0
   28.2694  -20.0232  -19.7748 N   0  0  0  0  0  0  0  0  0  0  0  0
   26.1345  -20.1666  -18.6449 C   0  0  0  0  0  0  0  0  0  0  0  0
   26.3822  -19.0488  -18.2092 O   0  0  0  0  0  0  0  0  0  0  0  0
   22.6943  -19.1687  -19.1806 C   0  0  0  0  0  0  0  0  0  0  0  0
   22.6534  -20.0464  -17.9764 C   0  0  1  0  0  0  0  0  0  0  0  0
   22.1663  -21.3013  -18.4015 O   0  0  0  0  0  0  0  0  0  0  0  0
   23.9734  -20.2979  -17.3453 C   0  0  2  0  0  0  0  0  0  0  0  0
   24.9822  -20.8469  -18.1827 N   0  0  0  0  0  0  0  0  0  0  0  0
   23.8081  -21.1367  -16.1283 C   0  0  0  0  0  0  0  0  0  0  0  0
   24.4991  -22.1739  -15.9248 O   0  0  0  0  0  0  0  0  0  0  0  0
   25.8395  -20.9900   -7.9103 O   0  0  0  0  0  0  0  0  0  0  0  0
   25.4875  -20.8130   -9.2507 C   0  0  0  0  0  0  0  0  0  0  0  0
   26.2324  -21.3559  -10.2759 C   0  0  0  0  0  0  0  0  0  0  0  0
   25.8410  -21.1510  -11.5835 C   0  0  0  0  0  0  0  0  0  0  0  0
   24.7162  -20.4132  -11.9163 C   0  0  0  0  0  0  0  0  0  0  0  0
   24.3240  -20.2063  -13.3298 C   0  0  0  0  0  0  0  0  0  0  0  0
   23.1131  -21.0151  -13.7385 C   0  0  2  0  0  0  0  0  0  0  0  0
   22.8470  -20.7821  -15.1445 N   0  0  0  0  0  0  0  0  0  0  0  0
   21.9329  -20.7295  -12.9213 C   0  0  0  0  0  0  0  0  0  0  0  0
   21.2009  -19.7216  -13.0742 O   0  0  0  0  0  0  0  0  0  0  0  0
   23.9939  -19.8839  -10.8592 C   0  0  0  0  0  0  0  0  0  0  0  0
   24.3640  -20.0740   -9.5394 C   0  0  0  0  0  0  0  0  0  0  0  0
   21.5536  -21.6061  -11.8896 O   0  0  0  0  0  0  0  0  0  0  0  0
  1  2  1  0
  2  3  2  0
  4  2  1  0
  4  5  1  0
  5  6  1  0
  6  7  1  1
  8  6  1  0
  9  8  2  0
 11 10  1  6
 11 12  1  0
 11 13  1  0
 13 15  1  0
 13 14  1  6
 14  8  1  0
 15 16  2  0
 18 17  1  0
 18 28  2  0
 19 18  1  0
 20 19  2  0
 20 21  1  0
 21 27  2  0
 22 21  1  0
 23 22  1  1
 24 23  1  0
 24 15  1  0
 25 29  1  0
 25 23  1  0
 26 25  2  0
 27 28  1  0
M  END
$$$$
