VPT.pdb
     RDKit          3D

 22 22  0  0  1  0  0  0  0  0999 V2000
   19.2225  -11.8635  -19.8043 C   0  0  0  0  0  0  0  0  0  0  0  0
   19.5334  -10.7367  -18.8407 C   0  0  2  0  0  0  0  0  0  0  0  0
   20.5630   -9.8433  -19.4989 C   0  0  0  0  0  0  0  0  0  0  0  0
   20.1761  -11.3069  -17.5596 C   0  0  2  0  0  0  0  0  0  0  0  0
   19.2876  -12.2948  -16.9864 N   0  0  0  0  0  0  0  0  0  0  0  0
   20.3493  -10.1826  -16.5739 C   0  0  0  0  0  0  0  0  0  0  0  0
   19.4799   -9.2659  -16.7261 O   0  0  0  0  0  0  0  0  0  0  0  0
   21.3648  -10.1826  -15.6138 N   0  0  0  0  0  0  0  0  0  0  0  0
   21.9137  -11.4272  -15.0404 C   0  0  0  0  0  0  0  0  0  0  0  0
   23.3815  -11.1572  -15.2739 C   0  0  0  0  0  0  0  0  0  0  0  0
   23.5367   -9.6645  -15.1101 C   0  0  0  0  0  0  0  0  0  0  0  0
   22.0650   -9.1776  -14.9271 C   0  0  1  0  0  0  0  0  0  0  0  0
   21.9584   -7.7910  -15.3236 C   0  0  0  0  0  0  0  0  0  0  0  0
   22.3552   -7.3529  -16.4070 O   0  0  0  0  0  0  0  0  0  0  0  0
   19.0310   -5.4056  -15.6397 C   0  0  0  0  0  0  0  0  0  0  0  0
   19.9370   -4.9150  -14.5322 C   0  0  1  0  0  0  0  0  0  0  0  0
   19.4852   -5.3225  -13.2721 O   0  0  0  0  0  0  0  0  0  0  0  0
   21.3746   -5.4074  -14.7575 C   0  0  2  0  0  0  0  0  0  0  0  0
   21.3626   -6.8273  -14.4385 N   0  0  0  0  0  0  0  0  0  0  0  0
   22.2190   -4.6507  -13.8147 C   0  0  0  0  0  0  0  0  0  0  0  0
   22.5269   -3.4729  -14.0710 O   0  0  0  0  0  0  0  0  0  0  0  0
   22.6666   -5.2394  -12.6564 O   0  0  0  0  0  0  0  0  0  0  0  0
  2  1  1  6
  2  4  1  0
  2  3  1  0
  4  6  1  0
  4  5  1  1
  6  8  1  0
  6  7  2  0
  8 12  1  0
  9 10  1  0
  9  8  1  0
 10 11  1  0
 11 12  1  0
 12 13  1  6
 13 19  1  0
 13 14  2  0
 16 18  1  0
 16 15  1  6
 17 16  1  0
 18 20  1  0
 18 19  1  1
 20 22  1  0
 21 20  2  0
M  END
$$$$
