VPT.pdb
     RDKit          3D

 22 22  0  0  1  0  0  0  0  0999 V2000
   19.7969  -10.3111  -19.2622 C   0  0  0  0  0  0  0  0  0  0  0  0
   20.8492  -11.3691  -19.0009 C   0  0  2  0  0  0  0  0  0  0  0  0
   20.5935  -12.5142  -19.9573 C   0  0  0  0  0  0  0  0  0  0  0  0
   20.6884  -11.9242  -17.5708 C   0  0  2  0  0  0  0  0  0  0  0  0
   19.3781  -12.5248  -17.4431 N   0  0  0  0  0  0  0  0  0  0  0  0
   20.7911  -10.7773  -16.6015 C   0  0  0  0  0  0  0  0  0  0  0  0
   19.8889   -9.9000  -16.7910 O   0  0  0  0  0  0  0  0  0  0  0  0
   21.7814  -10.7192  -15.6172 N   0  0  0  0  0  0  0  0  0  0  0  0
   22.3452  -11.9294  -14.9875 C   0  0  0  0  0  0  0  0  0  0  0  0
   23.8116  -11.6312  -15.1941 C   0  0  0  0  0  0  0  0  0  0  0  0
   23.9268  -10.1303  -15.0786 C   0  0  0  0  0  0  0  0  0  0  0  0
   22.4397   -9.6741  -14.9489 C   0  0  1  0  0  0  0  0  0  0  0  0
   22.3100   -8.3051  -15.3961 C   0  0  0  0  0  0  0  0  0  0  0  0
   22.6928   -7.9021  -16.4981 O   0  0  0  0  0  0  0  0  0  0  0  0
   19.4187   -6.0548  -15.9590 C   0  0  0  0  0  0  0  0  0  0  0  0
   20.2237   -5.4675  -14.8208 C   0  0  1  0  0  0  0  0  0  0  0  0
   19.6982   -5.8246  -13.5741 O   0  0  0  0  0  0  0  0  0  0  0  0
   21.6913   -5.9112  -14.9171 C   0  0  2  0  0  0  0  0  0  0  0  0
   21.7064   -7.3176  -14.5431 N   0  0  0  0  0  0  0  0  0  0  0  0
   22.4327   -5.0872  -13.9444 C   0  0  0  0  0  0  0  0  0  0  0  0
   22.7460   -3.9195  -14.2372 O   0  0  0  0  0  0  0  0  0  0  0  0
   22.7783   -5.6025  -12.7182 O   0  0  0  0  0  0  0  0  0  0  0  0
  2  1  1  6
  2  4  1  0
  2  3  1  0
  4  6  1  0
  4  5  1  6
  6  8  1  0
  6  7  2  0
  8 12  1  0
  9 10  1  0
  9  8  1  0
 10 11  1  0
 11 12  1  0
 12 13  1  6
 13 19  1  0
 13 14  2  0
 16 18  1  0
 16 15  1  6
 17 16  1  0
 18 20  1  0
 18 19  1  1
 20 22  1  0
 21 20  2  0
M  END
$$$$
