VPT.pdb
     RDKit          3D

 22 22  0  0  1  0  0  0  0  0999 V2000
   23.9094  -18.8798  -18.2614 C   0  0  0  0  0  0  0  0  0  0  0  0
   24.9372  -19.7237  -18.9868 C   0  0  2  0  0  0  0  0  0  0  0  0
   24.8141  -21.1403  -18.4678 C   0  0  0  0  0  0  0  0  0  0  0  0
   26.3571  -19.2317  -18.6388 C   0  0  2  0  0  0  0  0  0  0  0  0
   27.3086  -19.8822  -19.5137 N   0  0  0  0  0  0  0  0  0  0  0  0
   26.6608  -19.6235  -17.2176 C   0  0  0  0  0  0  0  0  0  0  0  0
   26.6173  -20.8832  -17.0420 O   0  0  0  0  0  0  0  0  0  0  0  0
   26.9531  -18.6790  -16.2300 N   0  0  0  0  0  0  0  0  0  0  0  0
   27.6408  -17.4073  -16.5280 C   0  0  0  0  0  0  0  0  0  0  0  0
   26.6688  -16.4617  -15.8625 C   0  0  0  0  0  0  0  0  0  0  0  0
   26.1435  -17.2172  -14.6656 C   0  0  0  0  0  0  0  0  0  0  0  0
   26.7814  -18.6315  -14.8371 C   0  0  1  0  0  0  0  0  0  0  0  0
   25.9737  -19.6158  -14.1517 C   0  0  0  0  0  0  0  0  0  0  0  0
   24.8979  -20.0425  -14.5807 O   0  0  0  0  0  0  0  0  0  0  0  0
   25.2851  -21.7414   -9.7048 C   0  0  0  0  0  0  0  0  0  0  0  0
   26.2300  -21.1572  -10.7315 C   0  0  1  0  0  0  0  0  0  0  0  0
   27.3622  -21.9595  -10.9118 O   0  0  0  0  0  0  0  0  0  0  0  0
   25.5087  -20.9602  -12.0734 C   0  0  2  0  0  0  0  0  0  0  0  0
   26.4063  -20.1601  -12.8932 N   0  0  0  0  0  0  0  0  0  0  0  0
   24.2650  -20.2298  -11.7662 C   0  0  0  0  0  0  0  0  0  0  0  0
   24.2974  -18.9965  -11.6065 O   0  0  0  0  0  0  0  0  0  0  0  0
   23.0725  -20.9039  -11.6558 O   0  0  0  0  0  0  0  0  0  0  0  0
  2  1  1  1
  2  4  1  0
  2  3  1  0
  4  6  1  0
  4  5  1  6
  6  8  1  0
  6  7  2  0
  8 12  1  0
  9 10  1  0
  9  8  1  0
 10 11  1  0
 11 12  1  0
 12 13  1  6
 13 19  1  0
 13 14  2  0
 16 18  1  0
 16 15  1  1
 17 16  1  0
 18 20  1  0
 18 19  1  6
 20 22  1  0
 21 20  2  0
M  END
$$$$
