VPT.pdb
     RDKit          3D

 22 22  0  0  1  0  0  0  0  0999 V2000
   19.6234  -16.9452   12.8890 C   0  0  0  0  0  0  0  0  0  0  0  0
   19.4971  -16.1700   11.5937 C   0  0  2  0  0  0  0  0  0  0  0  0
   18.0631  -15.6986   11.4809 C   0  0  0  0  0  0  0  0  0  0  0  0
   19.7658  -17.1049   10.3966 C   0  0  2  0  0  0  0  0  0  0  0  0
   18.6701  -18.0422   10.2757 N   0  0  0  0  0  0  0  0  0  0  0  0
   21.0314  -17.8730   10.6682 C   0  0  0  0  0  0  0  0  0  0  0  0
   20.8836  -18.7422   11.5859 O   0  0  0  0  0  0  0  0  0  0  0  0
   22.2164  -17.6290    9.9689 N   0  0  0  0  0  0  0  0  0  0  0  0
   22.2288  -17.1638    8.5680 C   0  0  0  0  0  0  0  0  0  0  0  0
   23.1489  -15.9769    8.7306 C   0  0  0  0  0  0  0  0  0  0  0  0
   24.1310  -16.3856    9.8018 C   0  0  0  0  0  0  0  0  0  0  0  0
   23.5805  -17.7685   10.2721 C   0  0  1  0  0  0  0  0  0  0  0  0
   24.0202  -18.0329   11.6240 C   0  0  0  0  0  0  0  0  0  0  0  0
   23.7360  -17.3212   12.5915 O   0  0  0  0  0  0  0  0  0  0  0  0
   23.8525  -21.2398   13.7661 C   0  0  0  0  0  0  0  0  0  0  0  0
   25.3005  -20.8719   13.5288 C   0  0  1  0  0  0  0  0  0  0  0  0
   25.8628  -21.6195   12.4882 O   0  0  0  0  0  0  0  0  0  0  0  0
   25.4298  -19.3716   13.2252 C   0  0  2  0  0  0  0  0  0  0  0  0
   24.8384  -19.1802   11.9093 N   0  0  0  0  0  0  0  0  0  0  0  0
   26.8753  -19.0795   13.2136 C   0  0  0  0  0  0  0  0  0  0  0  0
   27.4942  -19.0707   12.1344 O   0  0  0  0  0  0  0  0  0  0  0  0
   27.5405  -18.8175   14.3871 O   0  0  0  0  0  0  0  0  0  0  0  0
  2  1  1  1
  2  4  1  0
  2  3  1  0
  4  6  1  0
  4  5  1  1
  6  8  1  0
  6  7  2  0
  8 12  1  0
  9 10  1  0
  9  8  1  0
 10 11  1  0
 11 12  1  0
 12 13  1  1
 13 19  1  0
 13 14  2  0
 16 18  1  0
 16 15  1  6
 17 16  1  0
 18 20  1  0
 18 19  1  6
 20 22  1  0
 21 20  2  0
M  END
$$$$
