VPT.pdb
     RDKit          3D

 22 22  0  0  1  0  0  0  0  0999 V2000
   24.2058  -19.3903  -11.8180 C   0  0  0  0  0  0  0  0  0  0  0  0
   25.3610  -19.5455  -12.7855 C   0  0  2  0  0  0  0  0  0  0  0  0
   24.8187  -19.3339  -14.1828 C   0  0  0  0  0  0  0  0  0  0  0  0
   25.9067  -20.9868  -12.7211 C   0  0  2  0  0  0  0  0  0  0  0  0
   24.8469  -21.9079  -13.0708 N   0  0  0  0  0  0  0  0  0  0  0  0
   26.3439  -21.2668  -11.3083 C   0  0  0  0  0  0  0  0  0  0  0  0
   25.3690  -21.2689  -10.4903 O   0  0  0  0  0  0  0  0  0  0  0  0
   27.6814  -21.4938  -10.9727 N   0  0  0  0  0  0  0  0  0  0  0  0
   28.6276  -22.1572  -11.8913 C   0  0  0  0  0  0  0  0  0  0  0  0
   29.7381  -21.1340  -11.8518 C   0  0  0  0  0  0  0  0  0  0  0  0
   29.7145  -20.5834  -10.4463 C   0  0  0  0  0  0  0  0  0  0  0  0
   28.4565  -21.2664   -9.8240 C   0  0  1  0  0  0  0  0  0  0  0  0
   27.9543  -20.4599   -8.7338 C   0  0  0  0  0  0  0  0  0  0  0  0
   27.3497  -19.3950   -8.8875 O   0  0  0  0  0  0  0  0  0  0  0  0
   26.8669  -20.0906   -3.9551 C   0  0  0  0  0  0  0  0  0  0  0  0
   27.0346  -20.8371   -5.2599 C   0  0  1  0  0  0  0  0  0  0  0  0
   25.8015  -21.1946   -5.8164 O   0  0  0  0  0  0  0  0  0  0  0  0
   27.8362  -19.9925   -6.2619 C   0  0  2  0  0  0  0  0  0  0  0  0
   28.1454  -20.8809   -7.3724 N   0  0  0  0  0  0  0  0  0  0  0  0
   29.0589  -19.5692   -5.5543 C   0  0  0  0  0  0  0  0  0  0  0  0
   30.0252  -20.3485   -5.4723 O   0  0  0  0  0  0  0  0  0  0  0  0
   29.1357  -18.3203   -4.9862 O   0  0  0  0  0  0  0  0  0  0  0  0
  2  1  1  1
  2  4  1  0
  2  3  1  0
  4  6  1  0
  4  5  1  1
  6  8  1  0
  6  7  2  0
  8 12  1  0
  9 10  1  0
  9  8  1  0
 10 11  1  0
 11 12  1  0
 12 13  1  1
 13 19  1  0
 13 14  2  0
 16 18  1  0
 16 15  1  1
 17 16  1  0
 18 20  1  0
 18 19  1  6
 20 22  1  0
 21 20  2  0
M  END
$$$$
