VPT.pdb
     RDKit          3D

 22 22  0  0  1  0  0  0  0  0999 V2000
   20.0422  -10.2532  -19.5144 C   0  0  0  0  0  0  0  0  0  0  0  0
   21.1683  -11.2163  -19.1995 C   0  0  2  0  0  0  0  0  0  0  0  0
   21.0915  -12.3515  -20.1979 C   0  0  0  0  0  0  0  0  0  0  0  0
   20.9583  -11.8258  -17.7982 C   0  0  2  0  0  0  0  0  0  0  0  0
   19.7010  -12.5417  -17.7794 N   0  0  0  0  0  0  0  0  0  0  0  0
   20.8908  -10.7038  -16.7972 C   0  0  0  0  0  0  0  0  0  0  0  0
   20.0244   -9.8259  -17.1105 O   0  0  0  0  0  0  0  0  0  0  0  0
   21.7058  -10.6666  -15.6626 N   0  0  0  0  0  0  0  0  0  0  0  0
   22.1682  -11.8901  -14.9782 C   0  0  0  0  0  0  0  0  0  0  0  0
   23.6462  -11.5813  -14.9341 C   0  0  0  0  0  0  0  0  0  0  0  0
   23.7292  -10.0833  -14.7652 C   0  0  0  0  0  0  0  0  0  0  0  0
   22.2374   -9.6361  -14.8704 C   0  0  1  0  0  0  0  0  0  0  0  0
   22.1721   -8.2568  -15.2997 C   0  0  0  0  0  0  0  0  0  0  0  0
   22.6248   -7.8480  -16.3727 O   0  0  0  0  0  0  0  0  0  0  0  0
   19.3231   -5.8492  -15.8554 C   0  0  0  0  0  0  0  0  0  0  0  0
   20.1544   -5.3451  -14.6965 C   0  0  1  0  0  0  0  0  0  0  0  0
   19.6122   -5.7253  -13.4639 O   0  0  0  0  0  0  0  0  0  0  0  0
   21.5995   -5.8532  -14.8121 C   0  0  2  0  0  0  0  0  0  0  0  0
   21.5532   -7.2652  -14.4625 N   0  0  0  0  0  0  0  0  0  0  0  0
   22.3845   -5.0810  -13.8311 C   0  0  0  0  0  0  0  0  0  0  0  0
   22.6858   -5.5960  -12.7395 O   0  0  0  0  0  0  0  0  0  0  0  0
   22.7841   -3.7976  -14.1168 O   0  0  0  0  0  0  0  0  0  0  0  0
  2  1  1  6
  2  4  1  0
  2  3  1  0
  4  6  1  0
  4  5  1  6
  6  8  1  0
  6  7  2  0
  8 12  1  0
  9 10  1  0
  9  8  1  0
 10 11  1  0
 11 12  1  0
 12 13  1  6
 13 19  1  0
 13 14  2  0
 16 18  1  0
 16 15  1  6
 17 16  1  0
 18 20  1  0
 18 19  1  1
 20 22  1  0
 21 20  2  0
M  END
$$$$
