VPT.pdb
     RDKit          3D

 22 22  0  0  1  0  0  0  0  0999 V2000
   28.6922  -18.6492  -15.5005 C   0  0  0  0  0  0  0  0  0  0  0  0
   27.2987  -19.0308  -15.0452 C   0  0  2  0  0  0  0  0  0  0  0  0
   26.8067  -17.9411  -14.1169 C   0  0  0  0  0  0  0  0  0  0  0  0
   27.3557  -20.3367  -14.2264 C   0  0  2  0  0  0  0  0  0  0  0  0
   27.9235  -21.3837  -15.0482 N   0  0  0  0  0  0  0  0  0  0  0  0
   25.9503  -20.7246  -13.8520 C   0  0  0  0  0  0  0  0  0  0  0  0
   25.1695  -20.7472  -14.8567 O   0  0  0  0  0  0  0  0  0  0  0  0
   25.5836  -21.0195  -12.5362 N   0  0  0  0  0  0  0  0  0  0  0  0
   26.5499  -21.5140  -11.5357 C   0  0  0  0  0  0  0  0  0  0  0  0
   26.2612  -20.5239  -10.4320 C   0  0  0  0  0  0  0  0  0  0  0  0
   24.7832  -20.2358  -10.5400 C   0  0  0  0  0  0  0  0  0  0  0  0
   24.3693  -21.0095  -11.8309 C   0  0  1  0  0  0  0  0  0  0  0  0
   23.1826  -20.4089  -12.3986 C   0  0  0  0  0  0  0  0  0  0  0  0
   22.9731  -19.1930  -12.4266 O   0  0  0  0  0  0  0  0  0  0  0  0
   22.1039  -20.9826  -15.9143 C   0  0  0  0  0  0  0  0  0  0  0  0
   20.9438  -21.3771  -15.0273 C   0  0  1  0  0  0  0  0  0  0  0  0
   20.8962  -22.7598  -14.8182 O   0  0  0  0  0  0  0  0  0  0  0  0
   21.0268  -20.6459  -13.6789 C   0  0  2  0  0  0  0  0  0  0  0  0
   22.1574  -21.2347  -12.9768 N   0  0  0  0  0  0  0  0  0  0  0  0
   19.7566  -20.9245  -12.9833 C   0  0  0  0  0  0  0  0  0  0  0  0
   18.7226  -20.3214  -13.3222 O   0  0  0  0  0  0  0  0  0  0  0  0
   19.7100  -21.8455  -11.9645 O   0  0  0  0  0  0  0  0  0  0  0  0
  2  1  1  1
  2  4  1  0
  2  3  1  0
  4  6  1  0
  4  5  1  6
  6  8  1  0
  6  7  2  0
  8 12  1  0
  9 10  1  0
  9  8  1  0
 10 11  1  0
 11 12  1  0
 12 13  1  6
 13 19  1  0
 13 14  2  0
 16 18  1  0
 16 15  1  6
 17 16  1  0
 18 20  1  0
 18 19  1  1
 20 22  1  0
 21 20  2  0
M  END
$$$$
