VPT.pdb
     RDKit          3D

 22 22  0  0  1  0  0  0  0  0999 V2000
   16.1697   -9.9601  -16.4001 C   0  0  0  0  0  0  0  0  0  0  0  0
   16.9648  -10.4571  -17.5900 C   0  0  2  0  0  0  0  0  0  0  0  0
   16.1015  -11.4545  -18.3323 C   0  0  0  0  0  0  0  0  0  0  0  0
   18.2184  -11.2121  -17.1025 C   0  0  2  0  0  0  0  0  0  0  0  0
   17.8041  -12.3719  -16.3428 N   0  0  0  0  0  0  0  0  0  0  0  0
   19.0027  -10.2979  -16.1999 C   0  0  0  0  0  0  0  0  0  0  0  0
   18.2658   -9.7137  -15.3425 O   0  0  0  0  0  0  0  0  0  0  0  0
   20.3854  -10.1359  -16.3221 N   0  0  0  0  0  0  0  0  0  0  0  0
   21.2594  -11.1829  -16.8869 C   0  0  0  0  0  0  0  0  0  0  0  0
   21.9865  -10.3439  -17.9113 C   0  0  0  0  0  0  0  0  0  0  0  0
   22.1096   -8.9768  -17.2829 C   0  0  0  0  0  0  0  0  0  0  0  0
   21.2897   -9.1233  -15.9628 C   0  0  1  0  0  0  0  0  0  0  0  0
   20.8217   -7.8240  -15.5340 C   0  0  0  0  0  0  0  0  0  0  0  0
   20.0292   -7.1311  -16.1782 O   0  0  0  0  0  0  0  0  0  0  0  0
   18.9630   -6.9356  -12.5338 C   0  0  0  0  0  0  0  0  0  0  0  0
   20.2453   -6.1369  -12.4567 C   0  0  1  0  0  0  0  0  0  0  0  0
   21.1862   -6.7443  -11.6178 O   0  0  0  0  0  0  0  0  0  0  0  0
   20.8416   -5.9433  -13.8591 C   0  0  2  0  0  0  0  0  0  0  0  0
   21.2773   -7.2629  -14.2911 N   0  0  0  0  0  0  0  0  0  0  0  0
   21.9845   -5.0258  -13.6948 C   0  0  0  0  0  0  0  0  0  0  0  0
   23.1453   -5.4660  -13.7747 O   0  0  0  0  0  0  0  0  0  0  0  0
   21.7735   -3.6894  -13.4543 O   0  0  0  0  0  0  0  0  0  0  0  0
  2  1  1  1
  2  4  1  0
  2  3  1  0
  4  6  1  0
  4  5  1  1
  6  8  1  0
  6  7  2  0
  8 12  1  0
  9 10  1  0
  9  8  1  0
 10 11  1  0
 11 12  1  0
 12 13  1  6
 13 19  1  0
 13 14  2  0
 16 18  1  0
 16 15  1  6
 17 16  1  0
 18 20  1  0
 18 19  1  1
 20 22  1  0
 21 20  2  0
M  END
$$$$
