VPT.pdb
     RDKit          3D

 22 22  0  0  1  0  0  0  0  0999 V2000
   20.9293  -14.0978  -19.6265 C   0  0  0  0  0  0  0  0  0  0  0  0
   20.6101  -12.8362  -18.8511 C   0  0  2  0  0  0  0  0  0  0  0  0
   21.3860  -11.7014  -19.4848 C   0  0  0  0  0  0  0  0  0  0  0  0
   21.1094  -12.9751  -17.3983 C   0  0  2  0  0  0  0  0  0  0  0  0
   20.4752  -14.1249  -16.7902 N   0  0  0  0  0  0  0  0  0  0  0  0
   20.7054  -11.7412  -16.6369 C   0  0  0  0  0  0  0  0  0  0  0  0
   19.6342  -11.2224  -17.0872 O   0  0  0  0  0  0  0  0  0  0  0  0
   21.4508  -11.2515  -15.5609 N   0  0  0  0  0  0  0  0  0  0  0  0
   22.2778  -12.1260  -14.7062 C   0  0  0  0  0  0  0  0  0  0  0  0
   23.5745  -11.3543  -14.7787 C   0  0  0  0  0  0  0  0  0  0  0  0
   23.1638   -9.9039  -14.8615 C   0  0  0  0  0  0  0  0  0  0  0  0
   21.6090   -9.9863  -14.9726 C   0  0  1  0  0  0  0  0  0  0  0  0
   21.1037   -8.7954  -15.6189 C   0  0  0  0  0  0  0  0  0  0  0  0
   21.4854   -8.3973  -16.7231 O   0  0  0  0  0  0  0  0  0  0  0  0
   17.6485   -5.2165  -15.5081 C   0  0  0  0  0  0  0  0  0  0  0  0
   18.2138   -6.5270  -15.0069 C   0  0  1  0  0  0  0  0  0  0  0  0
   17.3795   -7.6061  -15.3190 O   0  0  0  0  0  0  0  0  0  0  0  0
   19.6159   -6.7636  -15.5884 C   0  0  2  0  0  0  0  0  0  0  0  0
   20.0965   -7.9942  -14.9780 N   0  0  0  0  0  0  0  0  0  0  0  0
   20.4303   -5.6049  -15.1776 C   0  0  0  0  0  0  0  0  0  0  0  0
   20.5084   -4.6109  -15.9217 O   0  0  0  0  0  0  0  0  0  0  0  0
   21.1022   -5.6179  -13.9789 O   0  0  0  0  0  0  0  0  0  0  0  0
  2  1  1  6
  2  4  1  0
  2  3  1  0
  4  6  1  0
  4  5  1  1
  6  8  1  0
  6  7  2  0
  8 12  1  0
  9 10  1  0
  9  8  1  0
 10 11  1  0
 11 12  1  0
 12 13  1  6
 13 19  1  0
 13 14  2  0
 16 18  1  0
 16 15  1  6
 17 16  1  0
 18 20  1  0
 18 19  1  1
 20 22  1  0
 21 20  2  0
M  END
$$$$
