VPT.pdb
     RDKit          3D

 22 22  0  0  1  0  0  0  0  0999 V2000
   20.1699  -12.3210  -20.2352 C   0  0  0  0  0  0  0  0  0  0  0  0
   20.2539  -11.2000  -19.2197 C   0  0  2  0  0  0  0  0  0  0  0  0
   21.3058  -10.2242  -19.7019 C   0  0  0  0  0  0  0  0  0  0  0  0
   20.7354  -11.7574  -17.8644 C   0  0  2  0  0  0  0  0  0  0  0  0
   19.8342  -12.8068  -17.4397 N   0  0  0  0  0  0  0  0  0  0  0  0
   20.6939  -10.6451  -16.8512 C   0  0  0  0  0  0  0  0  0  0  0  0
   19.7847   -9.7916  -17.1051 O   0  0  0  0  0  0  0  0  0  0  0  0
   21.5733  -10.5913  -15.7665 N   0  0  0  0  0  0  0  0  0  0  0  0
   22.1218  -11.8049  -15.1296 C   0  0  0  0  0  0  0  0  0  0  0  0
   23.5870  -11.4395  -15.1683 C   0  0  0  0  0  0  0  0  0  0  0  0
   23.6230   -9.9419  -14.9814 C   0  0  0  0  0  0  0  0  0  0  0  0
   22.1117   -9.5516  -14.9912 C   0  0  1  0  0  0  0  0  0  0  0  0
   21.9687   -8.1702  -15.3944 C   0  0  0  0  0  0  0  0  0  0  0  0
   22.3828   -7.7200  -16.4664 O   0  0  0  0  0  0  0  0  0  0  0  0
   19.7133   -3.8546  -14.7923 C   0  0  0  0  0  0  0  0  0  0  0  0
   19.8630   -5.3305  -14.4965 C   0  0  1  0  0  0  0  0  0  0  0  0
   18.9120   -6.0965  -15.1797 O   0  0  0  0  0  0  0  0  0  0  0  0
   21.2777   -5.8089  -14.8566 C   0  0  2  0  0  0  0  0  0  0  0  0
   21.3125   -7.2267  -14.5305 N   0  0  0  0  0  0  0  0  0  0  0  0
   22.2003   -5.0371  -14.0034 C   0  0  0  0  0  0  0  0  0  0  0  0
   22.2856   -5.3011  -12.7907 O   0  0  0  0  0  0  0  0  0  0  0  0
   22.9648   -4.0296  -14.5408 O   0  0  0  0  0  0  0  0  0  0  0  0
  2  1  1  6
  2  4  1  0
  2  3  1  0
  4  6  1  0
  4  5  1  1
  6  8  1  0
  6  7  2  0
  8 12  1  0
  9 10  1  0
  9  8  1  0
 10 11  1  0
 11 12  1  0
 12 13  1  6
 13 19  1  0
 13 14  2  0
 16 18  1  0
 16 15  1  6
 17 16  1  0
 18 20  1  0
 18 19  1  1
 20 22  1  0
 21 20  2  0
M  END
$$$$
