VPT.pdb
     RDKit          3D

 22 22  0  0  1  0  0  0  0  0999 V2000
   24.3897  -15.4253  -16.0737 C   0  0  0  0  0  0  0  0  0  0  0  0
   23.8501  -14.0099  -16.0926 C   0  0  2  0  0  0  0  0  0  0  0  0
   23.7245  -13.5493  -14.6562 C   0  0  0  0  0  0  0  0  0  0  0  0
   22.4327  -13.9990  -16.7011 C   0  0  2  0  0  0  0  0  0  0  0  0
   22.4828  -14.5863  -18.0226 N   0  0  0  0  0  0  0  0  0  0  0  0
   21.9795  -12.5690  -16.8245 C   0  0  0  0  0  0  0  0  0  0  0  0
   22.9502  -11.7667  -17.0080 O   0  0  0  0  0  0  0  0  0  0  0  0
   20.6332  -12.2036  -16.7412 N   0  0  0  0  0  0  0  0  0  0  0  0
   19.5392  -13.1124  -17.1366 C   0  0  0  0  0  0  0  0  0  0  0  0
   18.7016  -13.0189  -15.8830 C   0  0  0  0  0  0  0  0  0  0  0  0
   18.8825  -11.6017  -15.3951 C   0  0  0  0  0  0  0  0  0  0  0  0
   19.9568  -11.0296  -16.3723 C   0  0  1  0  0  0  0  0  0  0  0  0
   20.6565   -9.9341  -15.7387 C   0  0  0  0  0  0  0  0  0  0  0  0
   21.2852  -10.0387  -14.6818 O   0  0  0  0  0  0  0  0  0  0  0  0
   22.7575   -7.0894  -17.7202 C   0  0  0  0  0  0  0  0  0  0  0  0
   21.6669   -6.5259  -16.8364 C   0  0  1  0  0  0  0  0  0  0  0  0
   20.5102   -6.2270  -17.5650 O   0  0  0  0  0  0  0  0  0  0  0  0
   21.3332   -7.5085  -15.7037 C   0  0  2  0  0  0  0  0  0  0  0  0
   20.6492   -8.6264  -16.3364 N   0  0  0  0  0  0  0  0  0  0  0  0
   20.4398   -6.7824  -14.7820 C   0  0  0  0  0  0  0  0  0  0  0  0
   19.2190   -7.0216  -14.7900 O   0  0  0  0  0  0  0  0  0  0  0  0
   20.9487   -5.8446  -13.9160 O   0  0  0  0  0  0  0  0  0  0  0  0
  2  1  1  1
  2  4  1  0
  2  3  1  0
  4  6  1  0
  4  5  1  6
  6  8  1  0
  6  7  2  0
  8 12  1  0
  9 10  1  0
  9  8  1  0
 10 11  1  0
 11 12  1  0
 12 13  1  1
 13 19  1  0
 13 14  2  0
 16 18  1  0
 16 15  1  6
 17 16  1  0
 18 20  1  0
 18 19  1  6
 20 22  1  0
 21 20  2  0
M  END
$$$$
