VPT.pdb
     RDKit          3D

 22 22  0  0  1  0  0  0  0  0999 V2000
   14.8231  -11.5373  -16.0659 C   0  0  0  0  0  0  0  0  0  0  0  0
   15.8996  -10.5567  -15.6483 C   0  0  2  0  0  0  0  0  0  0  0  0
   15.7126   -9.2969  -16.4663 C   0  0  0  0  0  0  0  0  0  0  0  0
   17.2897  -11.1261  -15.9983 C   0  0  2  0  0  0  0  0  0  0  0  0
   17.4563  -12.4021  -15.3366 N   0  0  0  0  0  0  0  0  0  0  0  0
   18.3363  -10.1744  -15.4840 C   0  0  0  0  0  0  0  0  0  0  0  0
   18.0086   -9.6473  -14.3731 O   0  0  0  0  0  0  0  0  0  0  0  0
   19.5228   -9.9244  -16.1789 N   0  0  0  0  0  0  0  0  0  0  0  0
   20.1204  -10.9055  -17.1060 C   0  0  0  0  0  0  0  0  0  0  0  0
   20.2946  -10.0064  -18.3073 C   0  0  0  0  0  0  0  0  0  0  0  0
   20.6077   -8.6445  -17.7359 C   0  0  0  0  0  0  0  0  0  0  0  0
   20.4422   -8.8632  -16.1993 C   0  0  1  0  0  0  0  0  0  0  0  0
   20.1399   -7.6027  -15.5582 C   0  0  0  0  0  0  0  0  0  0  0  0
   19.0672   -7.0057  -15.6860 O   0  0  0  0  0  0  0  0  0  0  0  0
   21.0599   -6.6527  -11.7663 C   0  0  0  0  0  0  0  0  0  0  0  0
   21.6522   -5.6885  -12.7701 C   0  0  1  0  0  0  0  0  0  0  0  0
   22.9899   -5.9875  -13.0512 O   0  0  0  0  0  0  0  0  0  0  0  0
   20.8304   -5.6935  -14.0679 C   0  0  2  0  0  0  0  0  0  0  0  0
   21.1135   -6.9673  -14.7124 N   0  0  0  0  0  0  0  0  0  0  0  0
   21.3275   -4.5612  -14.8715 C   0  0  0  0  0  0  0  0  0  0  0  0
   21.0210   -3.3981  -14.5541 O   0  0  0  0  0  0  0  0  0  0  0  0
   22.1261   -4.7847  -15.9673 O   0  0  0  0  0  0  0  0  0  0  0  0
  2  1  1  6
  2  4  1  0
  2  3  1  0
  4  6  1  0
  4  5  1  1
  6  8  1  0
  6  7  2  0
  8 12  1  0
  9 10  1  0
  9  8  1  0
 10 11  1  0
 11 12  1  0
 12 13  1  1
 13 19  1  0
 13 14  2  0
 16 18  1  0
 16 15  1  1
 17 16  1  0
 18 20  1  0
 18 19  1  6
 20 22  1  0
 21 20  2  0
M  END
$$$$
