WKA.pdb
     RDKit          3D

 29 30  0  0  1  0  0  0  0  0999 V2000
   25.0089  -19.2574  -11.4712 N   0  0  0  0  0  0  0  0  0  0  0  0
   26.0830  -20.2027  -11.6879 C   0  0  1  0  0  0  0  0  0  0  0  0
   25.9236  -21.3049  -10.6491 C   0  0  0  0  0  0  0  0  0  0  0  0
   26.1654  -20.7512   -9.2959 C   0  0  0  0  0  0  0  0  0  0  0  0
   25.1669  -20.3345   -8.4393 C   0  0  0  0  0  0  0  0  0  0  0  0
   25.7740  -19.8984   -7.3215 N   0  0  0  0  0  0  0  0  0  0  0  0
   27.1192  -20.0289   -7.4511 C   0  0  0  0  0  0  0  0  0  0  0  0
   28.1633  -19.7329   -6.6076 C   0  0  0  0  0  0  0  0  0  0  0  0
   29.4717  -19.9606   -6.9733 C   0  0  0  0  0  0  0  0  0  0  0  0
   29.7473  -20.5034   -8.2263 C   0  0  0  0  0  0  0  0  0  0  0  0
   28.7044  -20.8016   -9.0749 C   0  0  0  0  0  0  0  0  0  0  0  0
   27.3968  -20.5665   -8.6917 C   0  0  0  0  0  0  0  0  0  0  0  0
   25.9651  -20.7848  -13.0476 C   0  0  0  0  0  0  0  0  0  0  0  0
   24.8609  -20.5883  -13.6704 O   0  0  0  0  0  0  0  0  0  0  0  0
   27.0163  -21.5224  -13.6357 N   0  0  0  0  0  0  0  0  0  0  0  0
   27.0118  -21.6833  -15.0853 C   0  0  1  0  0  0  0  0  0  0  0  0
   28.3935  -21.9804  -15.6105 C   0  0  0  0  0  0  0  0  0  0  0  0
   28.4381  -22.1004  -17.1173 C   0  0  0  0  0  0  0  0  0  0  0  0
   29.9001  -22.3681  -17.4762 C   0  0  0  0  0  0  0  0  0  0  0  0
   30.0772  -22.3247  -18.9799 C   0  0  0  0  0  0  0  0  0  0  0  0
   31.4571  -22.6047  -19.2962 N   0  0  0  0  0  0  0  0  0  0  0  0
   26.1650  -22.8530  -15.4286 C   0  0  0  0  0  0  0  0  0  0  0  0
   26.2353  -23.9123  -14.7482 O   0  0  0  0  0  0  0  0  0  0  0  0
   22.9877  -23.5339  -17.1492 C   0  0  0  0  0  0  0  0  0  0  0  0
   24.3853  -23.9646  -16.7852 C   0  0  2  0  0  0  0  0  0  0  0  0
   25.2517  -22.8541  -16.5099 N   0  0  0  0  0  0  0  0  0  0  0  0
   24.9400  -24.7839  -17.8679 C   0  0  0  0  0  0  0  0  0  0  0  0
   25.6513  -24.2457  -18.7538 O   0  0  0  0  0  0  0  0  0  0  0  0
   24.6716  -26.1427  -17.8995 O   0  0  0  0  0  0  0  0  0  0  0  0
  2  1  1  1
  2  3  1  0
  3  4  1  0
  4  5  2  0
  4 12  1  0
  5  6  1  0
  6  7  1  0
  7  8  2  0
  9  8  1  0
 10  9  2  0
 11 10  1  0
 12 11  2  0
 12  7  1  0
 13 15  1  0
 13  2  1  0
 14 13  2  0
 16 15  1  0
 16 17  1  1
 17 18  1  0
 19 18  1  0
 20 19  1  0
 20 21  1  0
 22 16  1  0
 23 22  2  0
 25 24  1  6
 25 27  1  0
 25 26  1  0
 26 22  1  0
 27 29  1  0
 28 27  2  0
M  END
$$$$
