WKA.pdb
     RDKit          3D

 29 30  0  0  1  0  0  0  0  0999 V2000
   27.5005  -21.0253   -8.6178 N   0  0  0  0  0  0  0  0  0  0  0  0
   26.0575  -20.9514   -8.5386 C   0  0  1  0  0  0  0  0  0  0  0  0
   25.7214  -19.8726   -7.5175 C   0  0  0  0  0  0  0  0  0  0  0  0
   26.9724  -19.3366   -6.9309 C   0  0  0  0  0  0  0  0  0  0  0  0
   27.5450  -18.1343   -7.2926 C   0  0  0  0  0  0  0  0  0  0  0  0
   28.6576  -17.9974   -6.5498 N   0  0  0  0  0  0  0  0  0  0  0  0
   28.7992  -19.0746   -5.7356 C   0  0  0  0  0  0  0  0  0  0  0  0
   29.7508  -19.4106   -4.8024 C   0  0  0  0  0  0  0  0  0  0  0  0
   29.6749  -20.5853   -4.0869 C   0  0  0  0  0  0  0  0  0  0  0  0
   28.6106  -21.4555   -4.3113 C   0  0  0  0  0  0  0  0  0  0  0  0
   27.6547  -21.1232   -5.2455 C   0  0  0  0  0  0  0  0  0  0  0  0
   27.7464  -19.9398   -5.9549 C   0  0  0  0  0  0  0  0  0  0  0  0
   25.5068  -20.5675   -9.8620 C   0  0  0  0  0  0  0  0  0  0  0  0
   24.4562  -19.8312   -9.8630 O   0  0  0  0  0  0  0  0  0  0  0  0
   26.1066  -20.9895  -11.0690 N   0  0  0  0  0  0  0  0  0  0  0  0
   25.5027  -20.5521  -12.3226 C   0  0  1  0  0  0  0  0  0  0  0  0
   26.3007  -21.0232  -13.5119 C   0  0  0  0  0  0  0  0  0  0  0  0
   25.7041  -20.5883  -14.8316 C   0  0  0  0  0  0  0  0  0  0  0  0
   26.6611  -21.0903  -15.9132 C   0  0  0  0  0  0  0  0  0  0  0  0
   26.1809  -20.6365  -17.2763 C   0  0  0  0  0  0  0  0  0  0  0  0
   27.1365  -21.0577  -18.2724 N   0  0  0  0  0  0  0  0  0  0  0  0
   24.1580  -21.1695  -12.4403 C   0  0  0  0  0  0  0  0  0  0  0  0
   23.9807  -22.3764  -12.1211 O   0  0  0  0  0  0  0  0  0  0  0  0
   20.6226  -20.0217  -13.1093 C   0  0  0  0  0  0  0  0  0  0  0  0
   21.7123  -21.0486  -12.9376 C   0  0  2  0  0  0  0  0  0  0  0  0
   23.0225  -20.4638  -12.9049 N   0  0  0  0  0  0  0  0  0  0  0  0
   21.6250  -22.0366  -14.0180 C   0  0  0  0  0  0  0  0  0  0  0  0
   22.4172  -21.9657  -14.9916 O   0  0  0  0  0  0  0  0  0  0  0  0
   20.6685  -23.0366  -13.9505 O   0  0  0  0  0  0  0  0  0  0  0  0
  2  1  1  6
  2  3  1  0
  3  4  1  0
  4  5  2  0
  4 12  1  0
  5  6  1  0
  6  7  1  0
  7  8  2  0
  9  8  1  0
 10  9  2  0
 11 10  1  0
 12 11  2  0
 12  7  1  0
 13 15  1  0
 13  2  1  0
 14 13  2  0
 16 15  1  0
 16 17  1  6
 17 18  1  0
 19 18  1  0
 20 19  1  0
 20 21  1  0
 22 16  1  0
 23 22  2  0
 25 24  1  6
 25 27  1  0
 25 26  1  0
 26 22  1  0
 27 29  1  0
 28 27  2  0
M  END
$$$$
