WKA.pdb
     RDKit          3D

 29 30  0  0  1  0  0  0  0  0999 V2000
   28.6454  -21.1292  -10.1171 N   0  0  0  0  0  0  0  0  0  0  0  0
   27.3039  -21.1249   -9.5743 C   0  0  1  0  0  0  0  0  0  0  0  0
   27.2824  -20.1018   -8.4464 C   0  0  0  0  0  0  0  0  0  0  0  0
   28.2447  -20.5029   -7.3931 C   0  0  0  0  0  0  0  0  0  0  0  0
   29.1232  -21.5608   -7.5082 C   0  0  0  0  0  0  0  0  0  0  0  0
   29.8221  -21.6092   -6.3605 N   0  0  0  0  0  0  0  0  0  0  0  0
   29.4093  -20.6162   -5.5316 C   0  0  0  0  0  0  0  0  0  0  0  0
   29.7994  -20.2440   -4.2672 C   0  0  0  0  0  0  0  0  0  0  0  0
   29.2175  -19.1770   -3.6187 C   0  0  0  0  0  0  0  0  0  0  0  0
   28.2102  -18.4559   -4.2556 C   0  0  0  0  0  0  0  0  0  0  0  0
   27.8160  -18.8252   -5.5225 C   0  0  0  0  0  0  0  0  0  0  0  0
   28.4107  -19.8990   -6.1590 C   0  0  0  0  0  0  0  0  0  0  0  0
   26.3431  -20.7175  -10.6290 C   0  0  0  0  0  0  0  0  0  0  0  0
   26.5930  -19.6244  -11.2523 O   0  0  0  0  0  0  0  0  0  0  0  0
   25.2035  -21.4927  -10.9380 N   0  0  0  0  0  0  0  0  0  0  0  0
   24.4741  -21.1792  -12.1616 C   0  0  1  0  0  0  0  0  0  0  0  0
   24.5707  -22.3021  -13.1631 C   0  0  0  0  0  0  0  0  0  0  0  0
   23.9244  -21.9669  -14.4884 C   0  0  0  0  0  0  0  0  0  0  0  0
   24.1478  -23.1840  -15.3866 C   0  0  0  0  0  0  0  0  0  0  0  0
   25.2024  -22.8689  -16.4273 C   0  0  0  0  0  0  0  0  0  0  0  0
   25.3915  -24.0276  -17.2666 N   0  0  0  0  0  0  0  0  0  0  0  0
   23.0354  -21.0280  -11.8288 C   0  0  0  0  0  0  0  0  0  0  0  0
   22.4979  -21.7779  -10.9692 O   0  0  0  0  0  0  0  0  0  0  0  0
   20.1652  -18.7468  -12.7966 C   0  0  0  0  0  0  0  0  0  0  0  0
   20.8269  -19.8824  -12.0593 C   0  0  2  0  0  0  0  0  0  0  0  0
   22.1998  -20.0612  -12.4371 N   0  0  0  0  0  0  0  0  0  0  0  0
   20.0724  -21.1187  -12.2908 C   0  0  0  0  0  0  0  0  0  0  0  0
   20.4089  -21.8870  -13.2273 O   0  0  0  0  0  0  0  0  0  0  0  0
   18.9966  -21.4232  -11.4726 O   0  0  0  0  0  0  0  0  0  0  0  0
  2  1  1  6
  2  3  1  0
  3  4  1  0
  4  5  2  0
  4 12  1  0
  5  6  1  0
  6  7  1  0
  7  8  2  0
  9  8  1  0
 10  9  2  0
 11 10  1  0
 12 11  2  0
 12  7  1  0
 13 15  1  0
 13  2  1  0
 14 13  2  0
 16 15  1  0
 16 17  1  6
 17 18  1  0
 19 18  1  0
 20 19  1  0
 20 21  1  0
 22 16  1  0
 23 22  2  0
 25 24  1  6
 25 27  1  0
 25 26  1  0
 26 22  1  0
 27 29  1  0
 28 27  2  0
M  END
$$$$
