WKA.pdb
     RDKit          3D

 29 30  0  0  1  0  0  0  0  0999 V2000
   27.3763  -21.6066  -10.5444 N   0  0  0  0  0  0  0  0  0  0  0  0
   26.4245  -20.8995   -9.7147 C   0  0  1  0  0  0  0  0  0  0  0  0
   27.1611  -19.7170   -9.0995 C   0  0  0  0  0  0  0  0  0  0  0  0
   28.2633  -20.2105   -8.2405 C   0  0  0  0  0  0  0  0  0  0  0  0
   29.3270  -20.9605   -8.6991 C   0  0  0  0  0  0  0  0  0  0  0  0
   30.1077  -21.2153   -7.6343 N   0  0  0  0  0  0  0  0  0  0  0  0
   29.5670  -20.6491   -6.5251 C   0  0  0  0  0  0  0  0  0  0  0  0
   29.9698  -20.6192   -5.2112 C   0  0  0  0  0  0  0  0  0  0  0  0
   29.2351  -19.9645   -4.2472 C   0  0  0  0  0  0  0  0  0  0  0  0
   28.0561  -19.3164   -4.6082 C   0  0  0  0  0  0  0  0  0  0  0  0
   27.6484  -19.3437   -5.9235 C   0  0  0  0  0  0  0  0  0  0  0  0
   28.3980  -20.0058   -6.8784 C   0  0  0  0  0  0  0  0  0  0  0  0
   25.3069  -20.4024  -10.5546 C   0  0  0  0  0  0  0  0  0  0  0  0
   24.4316  -19.6622   -9.9788 O   0  0  0  0  0  0  0  0  0  0  0  0
   25.2051  -20.7252  -11.9259 N   0  0  0  0  0  0  0  0  0  0  0  0
   24.1196  -20.1231  -12.6917 C   0  0  1  0  0  0  0  0  0  0  0  0
   24.3267  -20.3022  -14.1744 C   0  0  0  0  0  0  0  0  0  0  0  0
   23.2840  -19.5888  -15.0055 C   0  0  0  0  0  0  0  0  0  0  0  0
   23.6016  -19.9275  -16.4623 C   0  0  0  0  0  0  0  0  0  0  0  0
   22.6525  -19.1867  -17.3816 C   0  0  0  0  0  0  0  0  0  0  0  0
   22.8783  -19.6251  -18.7379 N   0  0  0  0  0  0  0  0  0  0  0  0
   22.8557  -20.8227  -12.3507 C   0  0  0  0  0  0  0  0  0  0  0  0
   22.8481  -22.0696  -12.1628 O   0  0  0  0  0  0  0  0  0  0  0  0
   19.4296  -19.8490  -11.1570 C   0  0  0  0  0  0  0  0  0  0  0  0
   20.4337  -20.8119  -11.7365 C   0  0  2  0  0  0  0  0  0  0  0  0
   21.6149  -20.1547  -12.2188 N   0  0  0  0  0  0  0  0  0  0  0  0
   19.8048  -21.5805  -12.8157 C   0  0  0  0  0  0  0  0  0  0  0  0
   20.1365  -21.3641  -14.0089 O   0  0  0  0  0  0  0  0  0  0  0  0
   18.8515  -22.5365  -12.5046 O   0  0  0  0  0  0  0  0  0  0  0  0
  2  1  1  6
  2  3  1  0
  3  4  1  0
  4  5  2  0
  4 12  1  0
  5  6  1  0
  6  7  1  0
  7  8  2  0
  9  8  1  0
 10  9  2  0
 11 10  1  0
 12 11  2  0
 12  7  1  0
 13 15  1  0
 13  2  1  0
 14 13  2  0
 16 15  1  0
 16 17  1  6
 17 18  1  0
 19 18  1  0
 20 19  1  0
 20 21  1  0
 22 16  1  0
 23 22  2  0
 25 24  1  6
 25 27  1  0
 25 26  1  0
 26 22  1  0
 27 29  1  0
 28 27  2  0
M  END
$$$$
