WKA.pdb
     RDKit          3D

 29 30  0  0  1  0  0  0  0  0999 V2000
   25.0387  -19.5805   -8.8075 N   0  0  0  0  0  0  0  0  0  0  0  0
   26.3026  -20.0672   -9.3174 C   0  0  1  0  0  0  0  0  0  0  0  0
   26.9615  -20.8583   -8.1953 C   0  0  0  0  0  0  0  0  0  0  0  0
   27.4875  -19.9247   -7.1715 C   0  0  0  0  0  0  0  0  0  0  0  0
   27.2916  -18.5589   -7.1945 C   0  0  0  0  0  0  0  0  0  0  0  0
   27.9149  -18.0609   -6.1121 N   0  0  0  0  0  0  0  0  0  0  0  0
   28.4941  -19.0706   -5.4132 C   0  0  0  0  0  0  0  0  0  0  0  0
   29.2343  -19.0889   -4.2550 C   0  0  0  0  0  0  0  0  0  0  0  0
   29.7239  -20.2653   -3.7315 C   0  0  0  0  0  0  0  0  0  0  0  0
   29.4651  -21.4663   -4.3880 C   0  0  0  0  0  0  0  0  0  0  0  0
   28.7240  -21.4529   -5.5487 C   0  0  0  0  0  0  0  0  0  0  0  0
   28.2402  -20.2630   -6.0605 C   0  0  0  0  0  0  0  0  0  0  0  0
   26.0590  -20.9622  -10.4756 C   0  0  0  0  0  0  0  0  0  0  0  0
   25.0539  -21.7555  -10.3959 O   0  0  0  0  0  0  0  0  0  0  0  0
   26.8912  -20.9469  -11.6166 N   0  0  0  0  0  0  0  0  0  0  0  0
   26.3232  -20.4668  -12.8714 C   0  0  1  0  0  0  0  0  0  0  0  0
   27.3902  -20.2668  -13.9177 C   0  0  0  0  0  0  0  0  0  0  0  0
   26.9358  -19.3893  -15.0624 C   0  0  0  0  0  0  0  0  0  0  0  0
   28.1171  -19.3131  -16.0302 C   0  0  0  0  0  0  0  0  0  0  0  0
   27.7813  -18.3862  -17.1802 C   0  0  0  0  0  0  0  0  0  0  0  0
   28.8401  -18.4528  -18.1586 N   0  0  0  0  0  0  0  0  0  0  0  0
   25.3986  -21.5015  -13.3983 C   0  0  0  0  0  0  0  0  0  0  0  0
   25.7511  -22.7117  -13.4359 O   0  0  0  0  0  0  0  0  0  0  0  0
   21.7545  -21.8929  -14.0132 C   0  0  0  0  0  0  0  0  0  0  0  0
   23.1921  -22.2229  -14.3225 C   0  0  2  0  0  0  0  0  0  0  0  0
   24.1007  -21.2046  -13.8784 N   0  0  0  0  0  0  0  0  0  0  0  0
   23.3420  -22.4418  -15.7650 C   0  0  0  0  0  0  0  0  0  0  0  0
   23.9631  -21.5992  -16.4611 O   0  0  0  0  0  0  0  0  0  0  0  0
   22.7956  -23.5768  -16.3418 O   0  0  0  0  0  0  0  0  0  0  0  0
  2  1  1  1
  2  3  1  0
  3  4  1  0
  4  5  2  0
  4 12  1  0
  5  6  1  0
  6  7  1  0
  7  8  2  0
  9  8  1  0
 10  9  2  0
 11 10  1  0
 12 11  2  0
 12  7  1  0
 13 15  1  0
 13  2  1  0
 14 13  2  0
 16 15  1  0
 16 17  1  6
 17 18  1  0
 19 18  1  0
 20 19  1  0
 20 21  1  0
 22 16  1  0
 23 22  2  0
 25 24  1  6
 25 27  1  0
 25 26  1  0
 26 22  1  0
 27 29  1  0
 28 27  2  0
M  END
$$$$
