WKA.pdb
     RDKit          3D

 29 30  0  0  1  0  0  0  0  0999 V2000
   28.2003  -21.1421  -10.7513 N   0  0  0  0  0  0  0  0  0  0  0  0
   26.8997  -21.2773  -10.1313 C   0  0  1  0  0  0  0  0  0  0  0  0
   26.8481  -20.2808   -8.9808 C   0  0  0  0  0  0  0  0  0  0  0  0
   27.9419  -20.5699   -8.0236 C   0  0  0  0  0  0  0  0  0  0  0  0
   28.9709  -21.4565   -8.2673 C   0  0  0  0  0  0  0  0  0  0  0  0
   29.7550  -21.4481   -7.1749 N   0  0  0  0  0  0  0  0  0  0  0  0
   29.2499  -20.5853   -6.2563 C   0  0  0  0  0  0  0  0  0  0  0  0
   29.6702  -20.2214   -4.9992 C   0  0  0  0  0  0  0  0  0  0  0  0
   28.9728  -19.3046   -4.2438 C   0  0  0  0  0  0  0  0  0  0  0  0
   27.8143  -18.7306   -4.7623 C   0  0  0  0  0  0  0  0  0  0  0  0
   27.3893  -19.0922   -6.0214 C   0  0  0  0  0  0  0  0  0  0  0  0
   28.1015  -20.0142   -6.7662 C   0  0  0  0  0  0  0  0  0  0  0  0
   25.8424  -20.9469  -11.1187 C   0  0  0  0  0  0  0  0  0  0  0  0
   25.9623  -19.8358  -11.7487 O   0  0  0  0  0  0  0  0  0  0  0  0
   24.7515  -21.8111  -11.3590 N   0  0  0  0  0  0  0  0  0  0  0  0
   23.8765  -21.5111  -12.4867 C   0  0  1  0  0  0  0  0  0  0  0  0
   23.6696  -22.7223  -13.3604 C   0  0  0  0  0  0  0  0  0  0  0  0
   24.0938  -22.4943  -14.7939 C   0  0  0  0  0  0  0  0  0  0  0  0
   25.5837  -22.8331  -14.8520 C   0  0  0  0  0  0  0  0  0  0  0  0
   26.1341  -22.5001  -16.2234 C   0  0  0  0  0  0  0  0  0  0  0  0
   27.5425  -22.8134  -16.2502 N   0  0  0  0  0  0  0  0  0  0  0  0
   22.5411  -21.1319  -11.9612 C   0  0  0  0  0  0  0  0  0  0  0  0
   22.0440  -21.7480  -10.9796 O   0  0  0  0  0  0  0  0  0  0  0  0
   19.8425  -18.5831  -12.7348 C   0  0  0  0  0  0  0  0  0  0  0  0
   20.4339  -19.7926  -12.0576 C   0  0  2  0  0  0  0  0  0  0  0  0
   21.7633  -20.0856  -12.5121 N   0  0  0  0  0  0  0  0  0  0  0  0
   19.5579  -20.9489  -12.2740 C   0  0  0  0  0  0  0  0  0  0  0  0
   19.7681  -21.7153  -13.2481 O   0  0  0  0  0  0  0  0  0  0  0  0
   18.5083  -21.1810  -11.3999 O   0  0  0  0  0  0  0  0  0  0  0  0
  2  1  1  6
  2  3  1  0
  3  4  1  0
  4  5  2  0
  4 12  1  0
  5  6  1  0
  6  7  1  0
  7  8  2  0
  9  8  1  0
 10  9  2  0
 11 10  1  0
 12 11  2  0
 12  7  1  0
 13 15  1  0
 13  2  1  0
 14 13  2  0
 16 15  1  0
 16 17  1  6
 17 18  1  0
 19 18  1  0
 20 19  1  0
 20 21  1  0
 22 16  1  0
 23 22  2  0
 25 24  1  6
 25 27  1  0
 25 26  1  0
 26 22  1  0
 27 29  1  0
 28 27  2  0
M  END
$$$$
