WKA.pdb
     RDKit          3D

 29 30  0  0  1  0  0  0  0  0999 V2000
   26.8054  -18.5105   -9.8703 N   0  0  0  0  0  0  0  0  0  0  0  0
   26.7338  -19.9554   -9.9059 C   0  0  1  0  0  0  0  0  0  0  0  0
   26.2401  -20.4114   -8.5392 C   0  0  0  0  0  0  0  0  0  0  0  0
   27.0105  -19.7223   -7.4772 C   0  0  0  0  0  0  0  0  0  0  0  0
   26.9319  -18.3694   -7.2166 C   0  0  0  0  0  0  0  0  0  0  0  0
   27.7703  -18.1236   -6.1945 N   0  0  0  0  0  0  0  0  0  0  0  0
   28.3705  -19.2784   -5.8076 C   0  0  0  0  0  0  0  0  0  0  0  0
   29.2920  -19.5590   -4.8270 C   0  0  0  0  0  0  0  0  0  0  0  0
   29.7601  -20.8385   -4.6233 C   0  0  0  0  0  0  0  0  0  0  0  0
   29.2912  -21.8747   -5.4276 C   0  0  0  0  0  0  0  0  0  0  0  0
   28.3679  -21.5983   -6.4115 C   0  0  0  0  0  0  0  0  0  0  0  0
   27.9087  -20.3080   -6.6023 C   0  0  0  0  0  0  0  0  0  0  0  0
   25.7653  -20.3789  -10.9473 C   0  0  0  0  0  0  0  0  0  0  0  0
   24.6793  -19.7024  -11.0408 O   0  0  0  0  0  0  0  0  0  0  0  0
   26.0208  -21.4753  -11.8002 N   0  0  0  0  0  0  0  0  0  0  0  0
   25.2218  -21.5985  -13.0142 C   0  0  1  0  0  0  0  0  0  0  0  0
   25.6946  -22.7461  -13.8703 C   0  0  0  0  0  0  0  0  0  0  0  0
   24.8869  -22.9070  -15.1385 C   0  0  0  0  0  0  0  0  0  0  0  0
   25.4907  -24.1037  -15.8743 C   0  0  0  0  0  0  0  0  0  0  0  0
   24.8586  -24.2379  -17.2443 C   0  0  0  0  0  0  0  0  0  0  0  0
   25.4383  -25.3754  -17.9170 N   0  0  0  0  0  0  0  0  0  0  0  0
   23.8210  -21.9031  -12.6294 C   0  0  0  0  0  0  0  0  0  0  0  0
   23.5719  -22.8301  -11.8116 O   0  0  0  0  0  0  0  0  0  0  0  0
   20.3964  -20.3864  -13.1267 C   0  0  0  0  0  0  0  0  0  0  0  0
   21.3615  -21.4744  -12.7319 C   0  0  2  0  0  0  0  0  0  0  0  0
   22.7082  -21.1936  -13.1408 N   0  0  0  0  0  0  0  0  0  0  0  0
   20.9151  -22.7509  -13.2996 C   0  0  0  0  0  0  0  0  0  0  0  0
   21.4150  -23.1613  -14.3777 O   0  0  0  0  0  0  0  0  0  0  0  0
   19.9465  -23.4885  -12.6385 O   0  0  0  0  0  0  0  0  0  0  0  0
  2  1  1  1
  2  3  1  0
  3  4  1  0
  4  5  2  0
  4 12  1  0
  5  6  1  0
  6  7  1  0
  7  8  2  0
  9  8  1  0
 10  9  2  0
 11 10  1  0
 12 11  2  0
 12  7  1  0
 13 15  1  0
 13  2  1  0
 14 13  2  0
 16 15  1  0
 16 17  1  6
 17 18  1  0
 19 18  1  0
 20 19  1  0
 20 21  1  0
 22 16  1  0
 23 22  2  0
 25 24  1  6
 25 27  1  0
 25 26  1  0
 26 22  1  0
 27 29  1  0
 28 27  2  0
M  END
$$$$
