WKA.pdb
     RDKit          3D

 29 30  0  0  1  0  0  0  0  0999 V2000
   20.2988  -17.3232  -19.1307 N   0  0  0  0  0  0  0  0  0  0  0  0
   20.4505  -17.5319  -17.7068 C   0  0  1  0  0  0  0  0  0  0  0  0
   19.0779  -17.3324  -17.0779 C   0  0  0  0  0  0  0  0  0  0  0  0
   19.1220  -16.1837  -16.1426 C   0  0  0  0  0  0  0  0  0  0  0  0
   19.0295  -14.8631  -16.5322 C   0  0  0  0  0  0  0  0  0  0  0  0
   19.1104  -14.1234  -15.4122 N   0  0  0  0  0  0  0  0  0  0  0  0
   19.2504  -14.9382  -14.3352 C   0  0  0  0  0  0  0  0  0  0  0  0
   19.3733  -14.6817  -12.9904 C   0  0  0  0  0  0  0  0  0  0  0  0
   19.5057  -15.6999  -12.0720 C   0  0  0  0  0  0  0  0  0  0  0  0
   19.5159  -17.0214  -12.5124 C   0  0  0  0  0  0  0  0  0  0  0  0
   19.3931  -17.2833  -13.8589 C   0  0  0  0  0  0  0  0  0  0  0  0
   19.2610  -16.2491  -14.7672 C   0  0  0  0  0  0  0  0  0  0  0  0
   20.9122  -18.9194  -17.4550 C   0  0  0  0  0  0  0  0  0  0  0  0
   20.3096  -19.8569  -18.0905 O   0  0  0  0  0  0  0  0  0  0  0  0
   21.9660  -19.2025  -16.5582 N   0  0  0  0  0  0  0  0  0  0  0  0
   22.3747  -20.5937  -16.4000 C   0  0  1  0  0  0  0  0  0  0  0  0
   23.7544  -20.6974  -15.8010 C   0  0  0  0  0  0  0  0  0  0  0  0
   24.2556  -22.1217  -15.7186 C   0  0  0  0  0  0  0  0  0  0  0  0
   25.6114  -22.1335  -16.4255 C   0  0  0  0  0  0  0  0  0  0  0  0
   26.1726  -23.5404  -16.4387 C   0  0  0  0  0  0  0  0  0  0  0  0
   27.5201  -23.5010  -16.9540 N   0  0  0  0  0  0  0  0  0  0  0  0
   21.4464  -21.2539  -15.4483 C   0  0  0  0  0  0  0  0  0  0  0  0
   21.2864  -20.7881  -14.2874 O   0  0  0  0  0  0  0  0  0  0  0  0
   18.9443  -24.0920  -15.4815 C   0  0  0  0  0  0  0  0  0  0  0  0
   19.8268  -23.0551  -14.8355 C   0  0  2  0  0  0  0  0  0  0  0  0
   20.7039  -22.4141  -15.7733 N   0  0  0  0  0  0  0  0  0  0  0  0
   20.6041  -23.6792  -13.7596 C   0  0  0  0  0  0  0  0  0  0  0  0
   21.8549  -23.7561  -13.8594 O   0  0  0  0  0  0  0  0  0  0  0  0
   19.9475  -24.1766  -12.6456 O   0  0  0  0  0  0  0  0  0  0  0  0
  2  1  1  6
  2  3  1  0
  3  4  1  0
  4  5  2  0
  4 12  1  0
  5  6  1  0
  6  7  1  0
  7  8  2  0
  9  8  1  0
 10  9  2  0
 11 10  1  0
 12 11  2  0
 12  7  1  0
 13 15  1  0
 13  2  1  0
 14 13  2  0
 16 15  1  0
 16 17  1  1
 17 18  1  0
 19 18  1  0
 20 19  1  0
 20 21  1  0
 22 16  1  0
 23 22  2  0
 25 24  1  6
 25 27  1  0
 25 26  1  0
 26 22  1  0
 27 29  1  0
 28 27  2  0
M  END
$$$$
