WKA.pdb
     RDKit          3D

 29 30  0  0  1  0  0  0  0  0999 V2000
   24.6355  -19.7945  -10.7992 N   0  0  0  0  0  0  0  0  0  0  0  0
   26.0143  -20.1278  -11.0856 C   0  0  1  0  0  0  0  0  0  0  0  0
   26.3645  -21.3439  -10.2383 C   0  0  0  0  0  0  0  0  0  0  0  0
   26.5129  -20.9362   -8.8212 C   0  0  0  0  0  0  0  0  0  0  0  0
   25.4612  -20.8115   -7.9365 C   0  0  0  0  0  0  0  0  0  0  0  0
   25.9888  -20.4255   -6.7613 N   0  0  0  0  0  0  0  0  0  0  0  0
   27.3357  -20.3049   -6.8824 C   0  0  0  0  0  0  0  0  0  0  0  0
   28.3167  -19.9451   -5.9893 C   0  0  0  0  0  0  0  0  0  0  0  0
   29.6431  -19.8954   -6.3576 C   0  0  0  0  0  0  0  0  0  0  0  0
   30.0028  -20.2164   -7.6645 C   0  0  0  0  0  0  0  0  0  0  0  0
   29.0234  -20.5773   -8.5630 C   0  0  0  0  0  0  0  0  0  0  0  0
   27.6965  -20.6220   -8.1764 C   0  0  0  0  0  0  0  0  0  0  0  0
   26.1540  -20.4703  -12.5226 C   0  0  0  0  0  0  0  0  0  0  0  0
   25.1320  -20.9897  -13.0984 O   0  0  0  0  0  0  0  0  0  0  0  0
   27.3540  -20.2379  -13.2303 N   0  0  0  0  0  0  0  0  0  0  0  0
   27.2841  -20.1476  -14.6844 C   0  0  1  0  0  0  0  0  0  0  0  0
   28.2620  -19.1330  -15.2206 C   0  0  0  0  0  0  0  0  0  0  0  0
   28.1903  -18.9823  -16.7235 C   0  0  0  0  0  0  0  0  0  0  0  0
   29.2532  -17.9478  -17.0950 C   0  0  0  0  0  0  0  0  0  0  0  0
   29.2131  -17.6813  -18.5857 C   0  0  0  0  0  0  0  0  0  0  0  0
   30.2319  -16.7136  -18.9148 N   0  0  0  0  0  0  0  0  0  0  0  0
   27.6739  -21.4597  -15.2589 C   0  0  0  0  0  0  0  0  0  0  0  0
   28.7349  -22.0293  -14.8848 O   0  0  0  0  0  0  0  0  0  0  0  0
   26.2187  -24.4783  -16.4308 C   0  0  0  0  0  0  0  0  0  0  0  0
   27.2589  -23.4315  -16.7364 C   0  0  2  0  0  0  0  0  0  0  0  0
   26.9024  -22.1351  -16.2345 N   0  0  0  0  0  0  0  0  0  0  0  0
   27.4783  -23.3713  -18.1853 C   0  0  0  0  0  0  0  0  0  0  0  0
   28.6514  -23.3543  -18.6369 O   0  0  0  0  0  0  0  0  0  0  0  0
   26.3871  -23.3336  -19.0382 O   0  0  0  0  0  0  0  0  0  0  0  0
  2  1  1  6
  2  3  1  0
  3  4  1  0
  4  5  2  0
  4 12  1  0
  5  6  1  0
  6  7  1  0
  7  8  2  0
  9  8  1  0
 10  9  2  0
 11 10  1  0
 12 11  2  0
 12  7  1  0
 13 15  1  0
 13  2  1  0
 14 13  2  0
 16 15  1  0
 16 17  1  6
 17 18  1  0
 19 18  1  0
 20 19  1  0
 20 21  1  0
 22 16  1  0
 23 22  2  0
 25 24  1  6
 25 27  1  0
 25 26  1  0
 26 22  1  0
 27 29  1  0
 28 27  2  0
M  END
$$$$
