WKA.pdb
     RDKit          3D

 29 30  0  0  1  0  0  0  0  0999 V2000
   28.1927  -21.0281  -14.6736 N   0  0  0  0  0  0  0  0  0  0  0  0
   27.1238  -21.2170  -13.7165 C   0  0  1  0  0  0  0  0  0  0  0  0
   27.0847  -19.9722  -12.8400 C   0  0  0  0  0  0  0  0  0  0  0  0
   27.8914  -20.1995  -11.6178 C   0  0  0  0  0  0  0  0  0  0  0  0
   29.2684  -20.2888  -11.6036 C   0  0  0  0  0  0  0  0  0  0  0  0
   29.6288  -20.4979  -10.3251 N   0  0  0  0  0  0  0  0  0  0  0  0
   28.5222  -20.5422   -9.5395 C   0  0  0  0  0  0  0  0  0  0  0  0
   28.3535  -20.7283   -8.1881 C   0  0  0  0  0  0  0  0  0  0  0  0
   27.1020  -20.7329   -7.6124 C   0  0  0  0  0  0  0  0  0  0  0  0
   25.9790  -20.5447   -8.4148 C   0  0  0  0  0  0  0  0  0  0  0  0
   26.1432  -20.3579   -9.7694 C   0  0  0  0  0  0  0  0  0  0  0  0
   27.4068  -20.3562  -10.3309 C   0  0  0  0  0  0  0  0  0  0  0  0
   25.8330  -21.3557  -14.4351 C   0  0  0  0  0  0  0  0  0  0  0  0
   25.6322  -20.5674  -15.4271 O   0  0  0  0  0  0  0  0  0  0  0  0
   24.8652  -22.3097  -14.0502 N   0  0  0  0  0  0  0  0  0  0  0  0
   23.6875  -22.4691  -14.8958 C   0  0  1  0  0  0  0  0  0  0  0  0
   23.4114  -23.9224  -15.1868 C   0  0  0  0  0  0  0  0  0  0  0  0
   24.4983  -24.5754  -16.0108 C   0  0  0  0  0  0  0  0  0  0  0  0
   24.1029  -26.0467  -16.1408 C   0  0  0  0  0  0  0  0  0  0  0  0
   25.1564  -26.7947  -16.9315 C   0  0  0  0  0  0  0  0  0  0  0  0
   24.8216  -28.1985  -16.9446 N   0  0  0  0  0  0  0  0  0  0  0  0
   22.5057  -21.9494  -14.1633 C   0  0  0  0  0  0  0  0  0  0  0  0
   22.2216  -22.3910  -13.0169 O   0  0  0  0  0  0  0  0  0  0  0  0
   19.8580  -19.2845  -14.6155 C   0  0  0  0  0  0  0  0  0  0  0  0
   20.4534  -20.5319  -14.0149 C   0  0  2  0  0  0  0  0  0  0  0  0
   21.6476  -20.9544  -14.6895 N   0  0  0  0  0  0  0  0  0  0  0  0
   19.4544  -21.6057  -14.0326 C   0  0  0  0  0  0  0  0  0  0  0  0
   19.5195  -22.5018  -14.9120 O   0  0  0  0  0  0  0  0  0  0  0  0
   18.4505  -21.6175  -13.0779 O   0  0  0  0  0  0  0  0  0  0  0  0
  2  1  1  6
  2  3  1  0
  3  4  1  0
  4  5  2  0
  4 12  1  0
  5  6  1  0
  6  7  1  0
  7  8  2  0
  9  8  1  0
 10  9  2  0
 11 10  1  0
 12 11  2  0
 12  7  1  0
 13 15  1  0
 13  2  1  0
 14 13  2  0
 16 15  1  0
 16 17  1  1
 17 18  1  0
 19 18  1  0
 20 19  1  0
 20 21  1  0
 22 16  1  0
 23 22  2  0
 25 24  1  6
 25 27  1  0
 25 26  1  0
 26 22  1  0
 27 29  1  0
 28 27  2  0
M  END
$$$$
