QSP.pdb
     RDKit          3D

 23 23  0  0  1  0  0  0  0  0999 V2000
   21.7734  -12.9099  -21.2990 N   0  0  0  0  0  0  0  0  0  0  0  0
   21.0523  -13.8188  -20.4867 C   0  0  0  0  0  0  0  0  0  0  0  0
   21.1118  -15.0406  -20.7688 O   0  0  0  0  0  0  0  0  0  0  0  0
   20.2427  -13.4025  -19.3362 C   0  0  0  0  0  0  0  0  0  0  0  0
   20.1049  -11.9072  -19.2255 C   0  0  0  0  0  0  0  0  0  0  0  0
   20.7746  -11.4871  -17.9352 C   0  0  2  0  0  0  0  0  0  0  0  0
   20.4365  -12.4676  -16.9210 N   0  0  0  0  0  0  0  0  0  0  0  0
   20.3774  -10.1137  -17.5181 C   0  0  0  0  0  0  0  0  0  0  0  0
   20.4739   -9.1539  -18.3258 O   0  0  0  0  0  0  0  0  0  0  0  0
   18.9844   -9.2102  -13.5816 O   0  0  0  0  0  0  0  0  0  0  0  0
   18.5176   -8.4979  -14.6884 C   0  0  0  0  0  0  0  0  0  0  0  0
   19.5528   -8.4611  -15.7976 C   0  0  2  0  0  0  0  0  0  0  0  0
   19.8800   -9.8178  -16.2180 N   0  0  0  0  0  0  0  0  0  0  0  0
   20.7289   -7.7226  -15.3424 C   0  0  0  0  0  0  0  0  0  0  0  0
   21.7279   -8.3755  -14.8922 O   0  0  0  0  0  0  0  0  0  0  0  0
   20.7424   -6.3084  -15.4079 N   0  0  0  0  0  0  0  0  0  0  0  0
   19.7643   -5.4232  -15.9866 C   0  0  0  0  0  0  0  0  0  0  0  0
   20.6655   -4.3256  -16.5793 C   0  0  0  0  0  0  0  0  0  0  0  0
   21.5949   -4.0920  -15.3846 C   0  0  0  0  0  0  0  0  0  0  0  0
   21.8125   -5.5036  -14.8886 C   0  0  1  0  0  0  0  0  0  0  0  0
   21.8115   -5.4516  -13.4085 C   0  0  0  0  0  0  0  0  0  0  0  0
   22.7401   -4.8463  -12.8319 O   0  0  0  0  0  0  0  0  0  0  0  0
   20.8232   -6.0471  -12.6541 O   0  0  0  0  0  0  0  0  0  0  0  0
  1  2  1  0
  2  3  2  0
  4  5  1  0
  4  2  1  0
  6  8  1  0
  6  5  1  0
  6  7  1  1
  8 13  1  0
  9  8  2  0
 10 11  1  0
 12 11  1  1
 12 14  1  0
 13 12  1  0
 14 15  2  0
 14 16  1  0
 16 20  1  0
 16 17  1  0
 17 18  1  0
 19 18  1  0
 20 21  1  1
 20 19  1  0
 21 23  1  0
 22 21  2  0
M  END
$$$$
