QSP.pdb
     RDKit          3D

 23 23  0  0  1  0  0  0  0  0999 V2000
   15.2463  -11.8341  -15.3315 N   0  0  0  0  0  0  0  0  0  0  0  0
   15.0811  -12.1315  -16.7064 C   0  0  0  0  0  0  0  0  0  0  0  0
   14.1316  -12.8818  -17.0398 O   0  0  0  0  0  0  0  0  0  0  0  0
   15.9628  -11.6068  -17.7550 C   0  0  0  0  0  0  0  0  0  0  0  0
   16.8963  -10.5361  -17.2557 C   0  0  0  0  0  0  0  0  0  0  0  0
   18.2843  -10.8819  -17.7494 C   0  0  2  0  0  0  0  0  0  0  0  0
   18.4456  -12.3199  -17.6463 N   0  0  0  0  0  0  0  0  0  0  0  0
   19.3450  -10.1597  -16.9935 C   0  0  0  0  0  0  0  0  0  0  0  0
   19.4034  -10.2517  -15.7401 O   0  0  0  0  0  0  0  0  0  0  0  0
   23.2566   -9.7532  -18.0980 O   0  0  0  0  0  0  0  0  0  0  0  0
   22.6172   -8.5425  -17.8233 C   0  0  0  0  0  0  0  0  0  0  0  0
   21.4313   -8.7423  -16.8974 C   0  0  2  0  0  0  0  0  0  0  0  0
   20.3253   -9.3472  -17.6291 N   0  0  0  0  0  0  0  0  0  0  0  0
   21.0634   -7.4633  -16.2938 C   0  0  0  0  0  0  0  0  0  0  0  0
   20.2014   -6.7310  -16.8835 O   0  0  0  0  0  0  0  0  0  0  0  0
   21.6621   -7.0604  -15.0757 N   0  0  0  0  0  0  0  0  0  0  0  0
   22.6368   -7.7575  -14.2762 C   0  0  0  0  0  0  0  0  0  0  0  0
   22.1757   -7.3926  -12.8541 C   0  0  0  0  0  0  0  0  0  0  0  0
   21.9725   -5.8854  -13.0353 C   0  0  0  0  0  0  0  0  0  0  0  0
   21.3481   -5.8265  -14.4112 C   0  0  1  0  0  0  0  0  0  0  0  0
   21.9255   -4.6512  -15.1029 C   0  0  0  0  0  0  0  0  0  0  0  0
   22.7258   -4.8454  -16.0426 O   0  0  0  0  0  0  0  0  0  0  0  0
   21.6081   -3.3588  -14.7430 O   0  0  0  0  0  0  0  0  0  0  0  0
  1  2  1  0
  2  3  2  0
  4  5  1  0
  4  2  1  0
  6  8  1  0
  6  5  1  0
  6  7  1  1
  8 13  1  0
  9  8  2  0
 10 11  1  0
 12 11  1  6
 12 14  1  0
 13 12  1  0
 14 15  2  0
 14 16  1  0
 16 20  1  0
 16 17  1  0
 17 18  1  0
 19 18  1  0
 20 21  1  6
 20 19  1  0
 21 23  1  0
 22 21  2  0
M  END
$$$$
