QSP.pdb
     RDKit          3D

 23 23  0  0  1  0  0  0  0  0999 V2000
   20.7908  -25.8476  -13.9766 N   0  0  0  0  0  0  0  0  0  0  0  0
   19.4788  -25.8775  -14.5094 C   0  0  0  0  0  0  0  0  0  0  0  0
   19.3469  -25.9998  -15.7517 O   0  0  0  0  0  0  0  0  0  0  0  0
   18.2717  -25.7728  -13.6822 C   0  0  0  0  0  0  0  0  0  0  0  0
   18.5757  -25.6520  -12.2124 C   0  0  0  0  0  0  0  0  0  0  0  0
   18.1410  -24.2704  -11.7742 C   0  0  2  0  0  0  0  0  0  0  0  0
   19.2079  -23.3447  -12.1046 N   0  0  0  0  0  0  0  0  0  0  0  0
   17.8073  -24.2208  -10.3236 C   0  0  0  0  0  0  0  0  0  0  0  0
   18.7229  -24.2594   -9.4616 O   0  0  0  0  0  0  0  0  0  0  0  0
   14.5690  -23.1408   -6.8653 O   0  0  0  0  0  0  0  0  0  0  0  0
   14.8204  -23.3710   -8.2194 C   0  0  0  0  0  0  0  0  0  0  0  0
   16.1538  -24.0668   -8.4227 C   0  0  2  0  0  0  0  0  0  0  0  0
   16.4706  -24.1295   -9.8441 N   0  0  0  0  0  0  0  0  0  0  0  0
   16.1120  -25.3905   -7.8048 C   0  0  0  0  0  0  0  0  0  0  0  0
   15.6925  -26.3777   -8.4951 O   0  0  0  0  0  0  0  0  0  0  0  0
   16.5341  -25.5562   -6.4636 N   0  0  0  0  0  0  0  0  0  0  0  0
   16.9971  -24.5576   -5.5342 C   0  0  0  0  0  0  0  0  0  0  0  0
   18.0902  -25.3338   -4.7788 C   0  0  0  0  0  0  0  0  0  0  0  0
   17.3292  -26.6339   -4.5024 C   0  0  0  0  0  0  0  0  0  0  0  0
   16.5810  -26.8298   -5.8017 C   0  0  1  0  0  0  0  0  0  0  0  0
   15.2325  -27.3359   -5.4572 C   0  0  0  0  0  0  0  0  0  0  0  0
   14.2504  -26.5830   -5.6301 O   0  0  0  0  0  0  0  0  0  0  0  0
   15.0308  -28.6039   -4.9552 O   0  0  0  0  0  0  0  0  0  0  0  0
  1  2  1  0
  2  3  2  0
  4  5  1  0
  4  2  1  0
  6  8  1  0
  6  5  1  0
  6  7  1  1
  8 13  1  0
  9  8  2  0
 10 11  1  0
 12 11  1  6
 12 14  1  0
 13 12  1  0
 14 15  2  0
 14 16  1  0
 16 20  1  0
 16 17  1  0
 17 18  1  0
 19 18  1  0
 20 21  1  1
 20 19  1  0
 21 23  1  0
 22 21  2  0
M  END
$$$$
