QSP.pdb
     RDKit          3D

 23 23  0  0  1  0  0  0  0  0999 V2000
   14.5252  -10.7921  -18.8336 N   0  0  0  0  0  0  0  0  0  0  0  0
   15.1650  -11.7780  -18.0432 C   0  0  0  0  0  0  0  0  0  0  0  0
   14.5105  -12.3058  -17.1111 O   0  0  0  0  0  0  0  0  0  0  0  0
   16.5500  -12.2100  -18.2608 C   0  0  0  0  0  0  0  0  0  0  0  0
   17.2259  -11.4708  -19.3850 C   0  0  0  0  0  0  0  0  0  0  0  0
   18.5966  -12.0850  -19.5686 C   0  0  2  0  0  0  0  0  0  0  0  0
   18.4948  -13.4975  -19.2541 N   0  0  0  0  0  0  0  0  0  0  0  0
   19.6291  -11.4140  -18.7309 C   0  0  0  0  0  0  0  0  0  0  0  0
   19.9200  -11.8730  -17.5962 O   0  0  0  0  0  0  0  0  0  0  0  0
   23.1623   -8.0226  -18.4540 O   0  0  0  0  0  0  0  0  0  0  0  0
   22.0950   -8.5724  -19.1673 C   0  0  0  0  0  0  0  0  0  0  0  0
   21.3700   -9.6264  -18.3505 C   0  0  2  0  0  0  0  0  0  0  0  0
   20.3256  -10.2478  -19.1552 N   0  0  0  0  0  0  0  0  0  0  0  0
   20.8429   -9.0198  -17.1300 C   0  0  0  0  0  0  0  0  0  0  0  0
   19.6605   -8.5414  -17.1428 O   0  0  0  0  0  0  0  0  0  0  0  0
   21.6434   -8.9732  -15.9632 N   0  0  0  0  0  0  0  0  0  0  0  0
   22.9394   -9.5593  -15.7349 C   0  0  0  0  0  0  0  0  0  0  0  0
   22.8201   -9.9885  -14.2619 C   0  0  0  0  0  0  0  0  0  0  0  0
   22.2209   -8.7070  -13.6750 C   0  0  0  0  0  0  0  0  0  0  0  0
   21.2423   -8.3067  -14.7559 C   0  0  1  0  0  0  0  0  0  0  0  0
   21.3061   -6.8322  -14.8785 C   0  0  0  0  0  0  0  0  0  0  0  0
   21.8032   -6.3403  -15.9140 O   0  0  0  0  0  0  0  0  0  0  0  0
   20.8365   -5.9928  -13.8908 O   0  0  0  0  0  0  0  0  0  0  0  0
  1  2  1  0
  2  3  2  0
  4  5  1  0
  4  2  1  0
  6  8  1  0
  6  5  1  0
  6  7  1  1
  8 13  1  0
  9  8  2  0
 10 11  1  0
 12 11  1  6
 12 14  1  0
 13 12  1  0
 14 15  2  0
 14 16  1  0
 16 20  1  0
 16 17  1  0
 17 18  1  0
 19 18  1  0
 20 21  1  6
 20 19  1  0
 21 23  1  0
 22 21  2  0
M  END
$$$$
