QSP.pdb
     RDKit          3D

 23 23  0  0  1  0  0  0  0  0999 V2000
   17.7994  -15.1567  -15.6491 N   0  0  0  0  0  0  0  0  0  0  0  0
   16.6806  -14.3446  -15.9570 C   0  0  0  0  0  0  0  0  0  0  0  0
   15.6376  -14.9065  -16.3718 O   0  0  0  0  0  0  0  0  0  0  0  0
   16.6825  -12.8844  -15.8150 C   0  0  0  0  0  0  0  0  0  0  0  0
   17.9922  -12.3460  -15.3030 C   0  0  0  0  0  0  0  0  0  0  0  0
   18.4145  -11.2288  -16.2323 C   0  0  2  0  0  0  0  0  0  0  0  0
   18.7613  -11.8224  -17.5097 N   0  0  0  0  0  0  0  0  0  0  0  0
   19.5447  -10.4338  -15.6768 C   0  0  0  0  0  0  0  0  0  0  0  0
   20.3634  -10.9660  -14.8835 O   0  0  0  0  0  0  0  0  0  0  0  0
   23.3536   -8.3647  -16.2621 O   0  0  0  0  0  0  0  0  0  0  0  0
   22.1440   -9.0245  -16.4888 C   0  0  0  0  0  0  0  0  0  0  0  0
   21.0094   -8.3785  -15.7149 C   0  0  2  0  0  0  0  0  0  0  0  0
   19.7564   -9.0650  -16.0033 N   0  0  0  0  0  0  0  0  0  0  0  0
   20.9485   -6.9544  -16.0370 C   0  0  0  0  0  0  0  0  0  0  0  0
   20.4517   -6.5985  -17.1567 O   0  0  0  0  0  0  0  0  0  0  0  0
   21.4359   -6.0006  -15.1112 N   0  0  0  0  0  0  0  0  0  0  0  0
   22.0725   -6.2232  -13.8383 C   0  0  0  0  0  0  0  0  0  0  0  0
   21.5058   -5.0562  -13.0105 C   0  0  0  0  0  0  0  0  0  0  0  0
   21.7148   -3.9149  -14.0103 C   0  0  0  0  0  0  0  0  0  0  0  0
   21.3420   -4.5820  -15.3149 C   0  0  1  0  0  0  0  0  0  0  0  0
   22.2926   -4.0960  -16.3413 C   0  0  0  0  0  0  0  0  0  0  0  0
   22.2154   -2.9046  -16.7098 O   0  0  0  0  0  0  0  0  0  0  0  0
   23.2531   -4.9136  -16.8977 O   0  0  0  0  0  0  0  0  0  0  0  0
  1  2  1  0
  2  3  2  0
  4  5  1  0
  4  2  1  0
  6  8  1  0
  6  5  1  0
  6  7  1  6
  8 13  1  0
  9  8  2  0
 10 11  1  0
 12 11  1  6
 12 14  1  0
 13 12  1  0
 14 15  2  0
 14 16  1  0
 16 20  1  0
 16 17  1  0
 17 18  1  0
 19 18  1  0
 20 21  1  6
 20 19  1  0
 21 23  1  0
 22 21  2  0
M  END
$$$$
