QSP.pdb
     RDKit          3D

 23 23  0  0  1  0  0  0  0  0999 V2000
   21.3880  -12.5453  -21.3416 N   0  0  0  0  0  0  0  0  0  0  0  0
   21.1682  -13.5342  -20.3518 C   0  0  0  0  0  0  0  0  0  0  0  0
   21.1802  -14.7386  -20.7054 O   0  0  0  0  0  0  0  0  0  0  0  0
   20.9284  -13.2197  -18.9391 C   0  0  0  0  0  0  0  0  0  0  0  0
   20.9566  -11.7415  -18.6536 C   0  0  0  0  0  0  0  0  0  0  0  0
   20.5429  -11.5531  -17.2103 C   0  0  2  0  0  0  0  0  0  0  0  0
   19.5376  -12.5529  -16.9034 N   0  0  0  0  0  0  0  0  0  0  0  0
   20.0399  -10.1765  -16.9458 C   0  0  0  0  0  0  0  0  0  0  0  0
   19.4695   -9.5246  -17.8583 O   0  0  0  0  0  0  0  0  0  0  0  0
   19.4049   -8.8666  -13.1004 O   0  0  0  0  0  0  0  0  0  0  0  0
   18.7365   -8.2726  -14.1730 C   0  0  0  0  0  0  0  0  0  0  0  0
   19.6149   -8.2194  -15.4095 C   0  0  2  0  0  0  0  0  0  0  0  0
   20.1725   -9.5385  -15.6807 N   0  0  0  0  0  0  0  0  0  0  0  0
   20.6517   -7.2057  -15.2277 C   0  0  0  0  0  0  0  0  0  0  0  0
   21.8201   -7.5780  -14.8768 O   0  0  0  0  0  0  0  0  0  0  0  0
   20.3475   -5.8397  -15.4422 N   0  0  0  0  0  0  0  0  0  0  0  0
   19.1095   -5.2502  -15.8839 C   0  0  0  0  0  0  0  0  0  0  0  0
   19.6228   -4.1014  -16.7698 C   0  0  0  0  0  0  0  0  0  0  0  0
   20.6910   -3.5231  -15.8369 C   0  0  0  0  0  0  0  0  0  0  0  0
   21.2983   -4.7797  -15.2551 C   0  0  1  0  0  0  0  0  0  0  0  0
   21.5692   -4.5117  -13.8240 C   0  0  0  0  0  0  0  0  0  0  0  0
   20.8477   -5.0642  -12.9664 O   0  0  0  0  0  0  0  0  0  0  0  0
   22.5866   -3.6768  -13.4135 O   0  0  0  0  0  0  0  0  0  0  0  0
  1  2  1  0
  2  3  2  0
  4  5  1  0
  4  2  1  0
  6  8  1  0
  6  5  1  0
  6  7  1  6
  8 13  1  0
  9  8  2  0
 10 11  1  0
 12 11  1  1
 12 14  1  0
 13 12  1  0
 14 15  2  0
 14 16  1  0
 16 20  1  0
 16 17  1  0
 17 18  1  0
 19 18  1  0
 20 21  1  1
 20 19  1  0
 21 23  1  0
 22 21  2  0
M  END
$$$$
