QSP.pdb
     RDKit          3D

 23 23  0  0  1  0  0  0  0  0999 V2000
   22.9939  -26.1054  -14.2758 N   0  0  0  0  0  0  0  0  0  0  0  0
   21.8537  -26.4363  -15.0481 C   0  0  0  0  0  0  0  0  0  0  0  0
   22.0335  -26.9562  -16.1765 O   0  0  0  0  0  0  0  0  0  0  0  0
   20.4785  -26.2016  -14.5943 C   0  0  0  0  0  0  0  0  0  0  0  0
   20.4011  -25.7698  -13.1539 C   0  0  0  0  0  0  0  0  0  0  0  0
   19.5481  -24.5209  -13.1029 C   0  0  2  0  0  0  0  0  0  0  0  0
   20.2854  -23.4540  -13.7529 N   0  0  0  0  0  0  0  0  0  0  0  0
   19.1742  -24.1532  -11.7090 C   0  0  0  0  0  0  0  0  0  0  0  0
   20.0651  -23.8532  -10.8727 O   0  0  0  0  0  0  0  0  0  0  0  0
   15.3952  -22.9710  -10.8284 O   0  0  0  0  0  0  0  0  0  0  0  0
   16.4008  -22.6792   -9.9045 C   0  0  0  0  0  0  0  0  0  0  0  0
   17.4681  -23.7581   -9.8912 C   0  0  2  0  0  0  0  0  0  0  0  0
   17.8253  -24.1214  -11.2569 N   0  0  0  0  0  0  0  0  0  0  0  0
   16.9932  -24.9040   -9.1186 C   0  0  0  0  0  0  0  0  0  0  0  0
   16.4522  -25.8800   -9.7366 O   0  0  0  0  0  0  0  0  0  0  0  0
   17.1396  -24.9145   -7.7105 N   0  0  0  0  0  0  0  0  0  0  0  0
   17.7544  -23.9271   -6.8606 C   0  0  0  0  0  0  0  0  0  0  0  0
   18.4214  -24.8183   -5.7980 C   0  0  0  0  0  0  0  0  0  0  0  0
   17.2551  -25.7638   -5.4957 C   0  0  0  0  0  0  0  0  0  0  0  0
   16.6822  -25.9905   -6.8765 C   0  0  1  0  0  0  0  0  0  0  0  0
   15.2077  -26.0098   -6.7398 C   0  0  0  0  0  0  0  0  0  0  0  0
   14.6733  -26.9888   -6.1766 O   0  0  0  0  0  0  0  0  0  0  0  0
   14.4135  -24.9869   -7.2124 O   0  0  0  0  0  0  0  0  0  0  0  0
  1  2  1  0
  2  3  2  0
  4  5  1  0
  4  2  1  0
  6  8  1  0
  6  5  1  0
  6  7  1  1
  8 13  1  0
  9  8  2  0
 10 11  1  0
 12 11  1  6
 12 14  1  0
 13 12  1  0
 14 15  2  0
 14 16  1  0
 16 20  1  0
 16 17  1  0
 17 18  1  0
 19 18  1  0
 20 21  1  1
 20 19  1  0
 21 23  1  0
 22 21  2  0
M  END
$$$$
