QSP.pdb
     RDKit          3D

 23 23  0  0  1  0  0  0  0  0999 V2000
   24.4139  -23.4074  -18.5809 N   0  0  0  0  0  0  0  0  0  0  0  0
   24.7484  -22.0399  -18.7356 C   0  0  0  0  0  0  0  0  0  0  0  0
   23.8396  -21.2428  -19.0740 O   0  0  0  0  0  0  0  0  0  0  0  0
   26.1003  -21.5126  -18.5202 C   0  0  0  0  0  0  0  0  0  0  0  0
   27.1348  -22.5954  -18.3634 C   0  0  0  0  0  0  0  0  0  0  0  0
   27.1153  -23.0312  -16.9144 C   0  0  2  0  0  0  0  0  0  0  0  0
   27.0341  -21.8376  -16.0939 N   0  0  0  0  0  0  0  0  0  0  0  0
   28.3043  -23.8551  -16.5601 C   0  0  0  0  0  0  0  0  0  0  0  0
   29.2520  -23.3502  -15.9047 O   0  0  0  0  0  0  0  0  0  0  0  0
   30.3904  -28.2922  -16.4555 O   0  0  0  0  0  0  0  0  0  0  0  0
   29.3319  -27.4864  -16.8800 C   0  0  0  0  0  0  0  0  0  0  0  0
   29.5975  -26.0227  -16.5791 C   0  0  2  0  0  0  0  0  0  0  0  0
   28.4316  -25.2226  -16.9328 N   0  0  0  0  0  0  0  0  0  0  0  0
   30.8017  -25.5906  -17.2853 C   0  0  0  0  0  0  0  0  0  0  0  0
   30.6842  -25.1003  -18.4570 O   0  0  0  0  0  0  0  0  0  0  0  0
   32.0677  -25.7202  -16.6649 N   0  0  0  0  0  0  0  0  0  0  0  0
   32.3844  -26.2552  -15.3654 C   0  0  0  0  0  0  0  0  0  0  0  0
   33.5324  -25.3275  -14.9300 C   0  0  0  0  0  0  0  0  0  0  0  0
   34.3686  -25.3440  -16.2130 C   0  0  0  0  0  0  0  0  0  0  0  0
   33.2947  -25.2917  -17.2761 C   0  0  1  0  0  0  0  0  0  0  0  0
   33.7217  -26.1903  -18.3731 C   0  0  0  0  0  0  0  0  0  0  0  0
   33.0855  -27.2496  -18.5587 O   0  0  0  0  0  0  0  0  0  0  0  0
   34.7926  -25.8944  -19.1892 O   0  0  0  0  0  0  0  0  0  0  0  0
  1  2  1  0
  2  3  2  0
  4  5  1  0
  4  2  1  0
  6  8  1  0
  6  5  1  0
  6  7  1  1
  8 13  1  0
  9  8  2  0
 10 11  1  0
 12 11  1  6
 12 14  1  0
 13 12  1  0
 14 15  2  0
 14 16  1  0
 16 20  1  0
 16 17  1  0
 17 18  1  0
 19 18  1  0
 20 21  1  6
 20 19  1  0
 21 23  1  0
 22 21  2  0
M  END
$$$$
