QSP.pdb
     RDKit          3D

 23 23  0  0  1  0  0  0  0  0999 V2000
   15.9452  -13.1751  -14.3265 N   0  0  0  0  0  0  0  0  0  0  0  0
   16.8976  -13.4786  -15.3299 C   0  0  0  0  0  0  0  0  0  0  0  0
   17.3152  -14.6595  -15.4120 O   0  0  0  0  0  0  0  0  0  0  0  0
   17.4173  -12.4830  -16.2738 C   0  0  0  0  0  0  0  0  0  0  0  0
   16.8374  -11.1103  -16.0578 C   0  0  0  0  0  0  0  0  0  0  0  0
   17.4706  -10.1879  -17.0767 C   0  0  2  0  0  0  0  0  0  0  0  0
   17.8193  -10.9837  -18.2384 N   0  0  0  0  0  0  0  0  0  0  0  0
   18.6584   -9.4764  -16.5280 C   0  0  0  0  0  0  0  0  0  0  0  0
   18.6599   -9.0727  -15.3364 O   0  0  0  0  0  0  0  0  0  0  0  0
   23.3330   -8.1401  -17.1875 O   0  0  0  0  0  0  0  0  0  0  0  0
   22.1420   -8.6075  -17.7470 C   0  0  0  0  0  0  0  0  0  0  0  0
   21.0110   -8.5858  -16.7352 C   0  0  2  0  0  0  0  0  0  0  0  0
   19.8264   -9.2204  -17.2995 N   0  0  0  0  0  0  0  0  0  0  0  0
   20.7568   -7.2085  -16.3178 C   0  0  0  0  0  0  0  0  0  0  0  0
   19.9148   -6.5125  -16.9763 O   0  0  0  0  0  0  0  0  0  0  0  0
   21.4409   -6.6728  -15.2000 N   0  0  0  0  0  0  0  0  0  0  0  0
   22.3929   -7.3172  -14.3318 C   0  0  0  0  0  0  0  0  0  0  0  0
   22.0280   -6.6962  -12.9719 C   0  0  0  0  0  0  0  0  0  0  0  0
   21.9370   -5.2242  -13.3847 C   0  0  0  0  0  0  0  0  0  0  0  0
   21.2568   -5.3279  -14.7311 C   0  0  1  0  0  0  0  0  0  0  0  0
   21.8934   -4.3291  -15.6202 C   0  0  0  0  0  0  0  0  0  0  0  0
   21.7221   -3.1161  -15.3743 O   0  0  0  0  0  0  0  0  0  0  0  0
   22.6636   -4.6959  -16.7032 O   0  0  0  0  0  0  0  0  0  0  0  0
  1  2  1  0
  2  3  2  0
  4  5  1  0
  4  2  1  0
  6  8  1  0
  6  5  1  0
  6  7  1  6
  8 13  1  0
  9  8  2  0
 10 11  1  0
 12 11  1  6
 12 14  1  0
 13 12  1  0
 14 15  2  0
 14 16  1  0
 16 20  1  0
 16 17  1  0
 17 18  1  0
 19 18  1  0
 20 21  1  6
 20 19  1  0
 21 23  1  0
 22 21  2  0
M  END
$$$$
