QSP.pdb
     RDKit          3D

 23 23  0  0  1  0  0  0  0  0999 V2000
   19.3548  -24.2259  -13.3824 N   0  0  0  0  0  0  0  0  0  0  0  0
   19.1214  -23.2343  -14.3664 C   0  0  0  0  0  0  0  0  0  0  0  0
   17.9948  -23.2024  -14.9191 O   0  0  0  0  0  0  0  0  0  0  0  0
   20.1291  -22.2470  -14.7691 C   0  0  0  0  0  0  0  0  0  0  0  0
   21.4585  -22.4559  -14.0936 C   0  0  0  0  0  0  0  0  0  0  0  0
   21.6020  -21.3808  -13.0384 C   0  0  2  0  0  0  0  0  0  0  0  0
   20.5406  -20.4135  -13.2444 N   0  0  0  0  0  0  0  0  0  0  0  0
   22.9428  -20.7335  -13.0753 C   0  0  0  0  0  0  0  0  0  0  0  0
   23.1395  -19.7257  -13.8023 O   0  0  0  0  0  0  0  0  0  0  0  0
   25.9643  -20.9601  -10.1822 O   0  0  0  0  0  0  0  0  0  0  0  0
   26.3341  -21.3211  -11.4795 C   0  0  0  0  0  0  0  0  0  0  0  0
   25.4025  -20.7090  -12.5094 C   0  0  2  0  0  0  0  0  0  0  0  0
   24.0466  -21.2057  -12.3113 N   0  0  0  0  0  0  0  0  0  0  0  0
   25.9063  -20.9921  -13.8516 C   0  0  0  0  0  0  0  0  0  0  0  0
   25.4656  -22.0171  -14.4698 O   0  0  0  0  0  0  0  0  0  0  0  0
   26.8655  -20.1331  -14.4404 N   0  0  0  0  0  0  0  0  0  0  0  0
   27.4655  -18.9427  -13.8944 C   0  0  0  0  0  0  0  0  0  0  0  0
   27.5749  -18.0585  -15.1491 C   0  0  0  0  0  0  0  0  0  0  0  0
   28.1666  -19.0799  -16.1250 C   0  0  0  0  0  0  0  0  0  0  0  0
   27.3977  -20.3295  -15.7599 C   0  0  1  0  0  0  0  0  0  0  0  0
   28.3502  -21.4619  -15.8205 C   0  0  0  0  0  0  0  0  0  0  0  0
   28.7139  -21.9938  -14.7500 O   0  0  0  0  0  0  0  0  0  0  0  0
   28.8436  -21.9426  -17.0147 O   0  0  0  0  0  0  0  0  0  0  0  0
  1  2  1  0
  2  3  2  0
  4  5  1  0
  4  2  1  0
  6  8  1  0
  6  5  1  0
  6  7  1  6
  8 13  1  0
  9  8  2  0
 10 11  1  0
 12 11  1  1
 12 14  1  0
 13 12  1  0
 14 15  2  0
 14 16  1  0
 16 20  1  0
 16 17  1  0
 17 18  1  0
 19 18  1  0
 20 21  1  1
 20 19  1  0
 21 23  1  0
 22 21  2  0
M  END
$$$$
