QSP.pdb
     RDKit          3D

 23 23  0  0  1  0  0  0  0  0999 V2000
   17.0859  -14.4360  -14.2892 N   0  0  0  0  0  0  0  0  0  0  0  0
   17.2086  -13.1021  -14.7491 C   0  0  0  0  0  0  0  0  0  0  0  0
   18.1887  -12.8155  -15.4792 O   0  0  0  0  0  0  0  0  0  0  0  0
   16.2492  -12.0439  -14.4145 C   0  0  0  0  0  0  0  0  0  0  0  0
   15.1177  -12.5297  -13.5479 C   0  0  0  0  0  0  0  0  0  0  0  0
   14.2618  -11.3288  -13.2088 C   0  0  2  0  0  0  0  0  0  0  0  0
   13.8615  -10.7039  -14.4553 N   0  0  0  0  0  0  0  0  0  0  0  0
   14.9715  -10.3665  -12.3209 C   0  0  0  0  0  0  0  0  0  0  0  0
   15.2501  -10.6851  -11.1361 O   0  0  0  0  0  0  0  0  0  0  0  0
   17.8780   -6.5340  -11.8824 O   0  0  0  0  0  0  0  0  0  0  0  0
   17.1311   -7.3913  -12.6931 C   0  0  0  0  0  0  0  0  0  0  0  0
   16.0898   -8.1456  -11.8869 C   0  0  2  0  0  0  0  0  0  0  0  0
   15.3638   -9.0679  -12.7510 N   0  0  0  0  0  0  0  0  0  0  0  0
   15.2028   -7.1925  -11.2232 C   0  0  0  0  0  0  0  0  0  0  0  0
   14.2512   -6.6699  -11.8929 O   0  0  0  0  0  0  0  0  0  0  0  0
   15.4098   -6.8672   -9.8610 N   0  0  0  0  0  0  0  0  0  0  0  0
   16.3519   -7.4360   -8.9313 C   0  0  0  0  0  0  0  0  0  0  0  0
   15.5299   -7.4324   -7.6303 C   0  0  0  0  0  0  0  0  0  0  0  0
   14.9704   -6.0080   -7.6910 C   0  0  0  0  0  0  0  0  0  0  0  0
   14.6472   -5.8712   -9.1618 C   0  0  1  0  0  0  0  0  0  0  0  0
   15.0159   -4.4943   -9.5637 C   0  0  0  0  0  0  0  0  0  0  0  0
   14.3767   -3.5384   -9.0749 O   0  0  0  0  0  0  0  0  0  0  0  0
   16.0361   -4.2384  -10.4549 O   0  0  0  0  0  0  0  0  0  0  0  0
  1  2  1  0
  2  3  2  0
  4  5  1  0
  4  2  1  0
  6  8  1  0
  6  5  1  0
  6  7  1  6
  8 13  1  0
  9  8  2  0
 10 11  1  0
 12 11  1  6
 12 14  1  0
 13 12  1  0
 14 15  2  0
 14 16  1  0
 16 20  1  0
 16 17  1  0
 17 18  1  0
 19 18  1  0
 20 21  1  6
 20 19  1  0
 21 23  1  0
 22 21  2  0
M  END
$$$$
