QSP.pdb
     RDKit          3D

 23 23  0  0  1  0  0  0  0  0999 V2000
   28.2580  -17.7000  -19.0275 N   0  0  0  0  0  0  0  0  0  0  0  0
   28.6665  -18.4771  -17.9161 C   0  0  0  0  0  0  0  0  0  0  0  0
   28.6924  -19.7256  -18.0442 O   0  0  0  0  0  0  0  0  0  0  0  0
   29.0592  -17.8952  -16.6279 C   0  0  0  0  0  0  0  0  0  0  0  0
   27.8810  -17.4727  -15.7909 C   0  0  0  0  0  0  0  0  0  0  0  0
   26.8794  -18.6067  -15.8172 C   0  0  2  0  0  0  0  0  0  0  0  0
   26.0364  -18.4263  -16.9839 N   0  0  0  0  0  0  0  0  0  0  0  0
   26.0721  -18.6716  -14.5674 C   0  0  0  0  0  0  0  0  0  0  0  0
   25.5342  -17.6319  -14.1064 O   0  0  0  0  0  0  0  0  0  0  0  0
   22.8169  -20.6060  -11.9324 O   0  0  0  0  0  0  0  0  0  0  0  0
   23.6639  -20.5341  -13.0404 C   0  0  0  0  0  0  0  0  0  0  0  0
   25.0140  -19.9507  -12.6660 C   0  0  2  0  0  0  0  0  0  0  0  0
   25.8694  -19.8802  -13.8440 N   0  0  0  0  0  0  0  0  0  0  0  0
   25.6092  -20.7473  -11.5952 C   0  0  0  0  0  0  0  0  0  0  0  0
   26.1488  -21.8653  -11.8885 O   0  0  0  0  0  0  0  0  0  0  0  0
   25.5792  -20.2714  -10.2621 N   0  0  0  0  0  0  0  0  0  0  0  0
   25.2315  -18.9588   -9.7810 C   0  0  0  0  0  0  0  0  0  0  0  0
   26.2222  -18.7938   -8.6150 C   0  0  0  0  0  0  0  0  0  0  0  0
   26.0379  -20.1536   -7.9349 C   0  0  0  0  0  0  0  0  0  0  0  0
   25.9323  -21.0775   -9.1272 C   0  0  1  0  0  0  0  0  0  0  0  0
   24.8957  -22.0859   -8.8079 C   0  0  0  0  0  0  0  0  0  0  0  0
   25.1845  -23.2960   -8.9236 O   0  0  0  0  0  0  0  0  0  0  0  0
   23.6308  -21.7310   -8.3900 O   0  0  0  0  0  0  0  0  0  0  0  0
  1  2  1  0
  2  3  2  0
  4  5  1  0
  4  2  1  0
  6  8  1  0
  6  5  1  0
  6  7  1  6
  8 13  1  0
  9  8  2  0
 10 11  1  0
 12 11  1  6
 12 14  1  0
 13 12  1  0
 14 15  2  0
 14 16  1  0
 16 20  1  0
 16 17  1  0
 17 18  1  0
 19 18  1  0
 20 21  1  1
 20 19  1  0
 21 23  1  0
 22 21  2  0
M  END
$$$$
