ERY.pdb
     RDKit          3D

 33 33  0  0  1  0  0  0  0  0999 V2000
    9.7349  -14.1748   20.4483 N   0  0  0  0  0  0  0  0  0  0  0  0
    8.3407  -14.4811   20.5823 C   0  0  1  0  0  0  0  0  0  0  0  0
    7.6726  -15.0697   19.3903 C   0  0  0  0  0  0  0  0  0  0  0  0
    7.9346  -16.4942   19.0897 C   0  0  0  0  0  0  0  0  0  0  0  0
    7.1936  -16.9791   17.9242 C   0  0  0  0  0  0  0  0  0  0  0  0
    6.5987  -16.2323   17.1498 O   0  0  0  0  0  0  0  0  0  0  0  0
    8.1916  -15.3983   21.7703 C   0  0  0  0  0  0  0  0  0  0  0  0
    7.0794  -15.5133   22.3015 O   0  0  0  0  0  0  0  0  0  0  0  0
    7.1680  -18.3708   17.6878 O   0  0  0  0  0  0  0  0  0  0  0  0
    9.4563  -23.3132   25.1082 N   0  0  0  0  0  0  0  0  0  0  0  0
   10.3040  -22.7166   24.1257 C   0  0  0  0  0  0  0  0  0  0  0  0
   10.3838  -23.2741   22.9487 N   0  0  0  0  0  0  0  0  0  0  0  0
   11.0104  -21.5556   24.4790 N   0  0  0  0  0  0  0  0  0  0  0  0
   11.0067  -20.4225   23.6121 C   0  0  0  0  0  0  0  0  0  0  0  0
   10.0139  -19.3413   24.0338 C   0  0  0  0  0  0  0  0  0  0  0  0
   10.1618  -18.2253   23.0169 C   0  0  0  0  0  0  0  0  0  0  0  0
    9.2715  -17.0504   23.3061 C   0  0  2  0  0  0  0  0  0  0  0  0
    9.3411  -16.0918   22.2267 N   0  0  0  0  0  0  0  0  0  0  0  0
    9.7555  -16.4307   24.5725 C   0  0  0  0  0  0  0  0  0  0  0  0
   10.8771  -15.8628   24.6474 O   0  0  0  0  0  0  0  0  0  0  0  0
   10.9495  -22.8384   22.1937 O   0  0  0  0  0  0  0  0  0  0  0  0
    6.5153  -10.7049   24.8680 C   0  0  0  0  0  0  0  0  0  0  0  0
    6.9294  -11.8452   25.5580 C   0  0  0  0  0  0  0  0  0  0  0  0
    6.0253  -12.8383   25.9195 C   0  0  0  0  0  0  0  0  0  0  0  0
    6.4462  -13.9539   26.5986 C   0  0  0  0  0  0  0  0  0  0  0  0
    7.7883  -14.0705   26.9159 C   0  0  0  0  0  0  0  0  0  0  0  0
    8.2346  -15.2619   27.6535 C   0  0  2  0  0  0  0  0  0  0  0  0
    9.4440  -15.8430   26.9863 N   0  0  0  0  0  0  0  0  0  0  0  0
    8.9588  -16.4636   25.7432 C   0  0  0  0  0  0  0  0  0  0  0  0
   10.0969  -16.9015   27.7900 O   0  0  0  0  0  0  0  0  0  0  0  0
   10.8783  -16.5894   28.9208 C   0  0  0  0  0  0  0  0  0  0  0  0
    8.6844  -13.0846   26.5566 C   0  0  0  0  0  0  0  0  0  0  0  0
    8.2715  -11.9552   25.8716 O   0  0  0  0  0  0  0  0  0  0  0  0
  2  3  1  0
  2  1  1  6
  3  4  1  0
  4  5  1  0
  5  6  2  0
  7  2  1  0
  7 18  1  0
  8  7  2  0
  9  5  1  0
 10 11  1  0
 11 12  2  0
 13 11  1  0
 13 14  1  0
 15 16  1  0
 15 14  1  0
 17 16  1  6
 17 18  1  0
 17 19  1  0
 19 20  2  0
 19 28  1  0
 22 21  1  0
 23 22  2  0
 24 23  1  0
 25 24  2  0
 25 31  1  0
 26 25  1  0
 27 26  1  6
 28 27  1  0
 29 30  1  0
 29 27  1  0
 31 32  2  0
 32 22  1  0
 33 29  2  0
M  END
$$$$
