ERY.pdb
     RDKit          3D

 33 33  0  0  1  0  0  0  0  0999 V2000
   10.0263  -19.4063   18.5573 N   0  0  0  0  0  0  0  0  0  0  0  0
   10.9596  -18.3641   18.8707 C   0  0  1  0  0  0  0  0  0  0  0  0
   11.4626  -17.5570   17.7266 C   0  0  0  0  0  0  0  0  0  0  0  0
   11.9338  -18.2842   16.5276 C   0  0  0  0  0  0  0  0  0  0  0  0
   12.4970  -17.3998   15.5061 C   0  0  0  0  0  0  0  0  0  0  0  0
   11.9536  -17.1958   14.4225 O   0  0  0  0  0  0  0  0  0  0  0  0
   10.3095  -17.4683   19.8955 C   0  0  0  0  0  0  0  0  0  0  0  0
   10.9644  -16.5332   20.3741 O   0  0  0  0  0  0  0  0  0  0  0  0
   13.7213  -16.7562   15.7895 O   0  0  0  0  0  0  0  0  0  0  0  0
    2.4349  -19.4870   21.2132 N   0  0  0  0  0  0  0  0  0  0  0  0
    3.3859  -19.9891   20.2732 C   0  0  0  0  0  0  0  0  0  0  0  0
    2.9562  -20.7154   19.2781 N   0  0  0  0  0  0  0  0  0  0  0  0
    4.7399  -19.6730   20.4695 N   0  0  0  0  0  0  0  0  0  0  0  0
    5.1624  -19.0513   21.6821 C   0  0  0  0  0  0  0  0  0  0  0  0
    6.6586  -18.7474   21.7168 C   0  0  0  0  0  0  0  0  0  0  0  0
    6.7996  -17.3119   21.2469 C   0  0  0  0  0  0  0  0  0  0  0  0
    8.2313  -16.8673   21.1501 C   0  0  2  0  0  0  0  0  0  0  0  0
    8.9682  -17.7411   20.2655 N   0  0  0  0  0  0  0  0  0  0  0  0
    8.8063  -16.9273   22.5241 C   0  0  0  0  0  0  0  0  0  0  0  0
    9.5281  -17.8884   22.9002 O   0  0  0  0  0  0  0  0  0  0  0  0
    3.6216  -21.1079   18.5830 O   0  0  0  0  0  0  0  0  0  0  0  0
   11.0901  -14.4237   30.5743 C   0  0  0  0  0  0  0  0  0  0  0  0
   10.5192  -14.4961   29.3028 C   0  0  0  0  0  0  0  0  0  0  0  0
   11.1257  -15.2163   28.2792 C   0  0  0  0  0  0  0  0  0  0  0  0
   10.5537  -15.2782   27.0334 C   0  0  0  0  0  0  0  0  0  0  0  0
    9.3613  -14.6099   26.8168 C   0  0  0  0  0  0  0  0  0  0  0  0
    8.7563  -14.6689   25.4777 C   0  0  2  0  0  0  0  0  0  0  0  0
    9.1634  -15.9403   24.7971 N   0  0  0  0  0  0  0  0  0  0  0  0
    8.5539  -15.8932   23.4584 C   0  0  0  0  0  0  0  0  0  0  0  0
    8.6534  -17.1516   25.4790 O   0  0  0  0  0  0  0  0  0  0  0  0
    7.2877  -17.4983   25.4381 C   0  0  0  0  0  0  0  0  0  0  0  0
    8.7604  -13.8957   27.8333 C   0  0  0  0  0  0  0  0  0  0  0  0
    9.3280  -13.8261   29.0935 O   0  0  0  0  0  0  0  0  0  0  0  0
  2  3  1  0
  2  1  1  6
  3  4  1  0
  4  5  1  0
  5  6  2  0
  7  2  1  0
  7 18  1  0
  8  7  2  0
  9  5  1  0
 10 11  1  0
 11 12  2  0
 13 11  1  0
 13 14  1  0
 15 16  1  0
 15 14  1  0
 17 16  1  1
 17 18  1  0
 17 19  1  0
 19 20  2  0
 19 28  1  0
 22 21  1  0
 23 22  2  0
 24 23  1  0
 25 24  2  0
 25 31  1  0
 26 25  1  0
 27 26  1  6
 28 27  1  0
 29 30  1  0
 29 27  1  0
 31 32  2  0
 32 22  1  0
 33 29  2  0
M  END
$$$$
