ERY.pdb
     RDKit          3D

 33 33  0  0  1  0  0  0  0  0999 V2000
   11.4049  -18.4527   18.9503 N   0  0  0  0  0  0  0  0  0  0  0  0
   12.5701  -17.9357   19.6067 C   0  0  1  0  0  0  0  0  0  0  0  0
   13.6544  -17.4214   18.7274 C   0  0  0  0  0  0  0  0  0  0  0  0
   13.6265  -17.8140   17.3014 C   0  0  0  0  0  0  0  0  0  0  0  0
   14.8278  -17.4054   16.5715 C   0  0  0  0  0  0  0  0  0  0  0  0
   14.9192  -16.3327   15.9780 O   0  0  0  0  0  0  0  0  0  0  0  0
   12.1125  -16.8570   20.5565 C   0  0  0  0  0  0  0  0  0  0  0  0
   12.9624  -16.1465   21.1090 O   0  0  0  0  0  0  0  0  0  0  0  0
   15.9264  -18.2921   16.5554 O   0  0  0  0  0  0  0  0  0  0  0  0
    7.7626  -15.4236   17.0032 N   0  0  0  0  0  0  0  0  0  0  0  0
    7.5902  -14.0192   17.1984 C   0  0  0  0  0  0  0  0  0  0  0  0
    7.9539  -13.2072   16.2440 N   0  0  0  0  0  0  0  0  0  0  0  0
    7.0355  -13.5836   18.4125 N   0  0  0  0  0  0  0  0  0  0  0  0
    7.2657  -14.3216   19.6116 C   0  0  0  0  0  0  0  0  0  0  0  0
    8.7460  -14.5645   19.8977 C   0  0  0  0  0  0  0  0  0  0  0  0
    8.7947  -15.3102   21.2180 C   0  0  0  0  0  0  0  0  0  0  0  0
   10.1926  -15.6705   21.6337 C   0  0  2  0  0  0  0  0  0  0  0  0
   10.7195  -16.7058   20.7738 N   0  0  0  0  0  0  0  0  0  0  0  0
   10.1229  -16.1598   23.0399 C   0  0  0  0  0  0  0  0  0  0  0  0
    9.8968  -17.3686   23.3117 O   0  0  0  0  0  0  0  0  0  0  0  0
    7.8535  -12.1790   16.3568 O   0  0  0  0  0  0  0  0  0  0  0  0
   10.3477  -16.1490   31.7681 C   0  0  0  0  0  0  0  0  0  0  0  0
   10.3861  -15.7431   30.4332 C   0  0  0  0  0  0  0  0  0  0  0  0
   10.2295  -14.4071   30.0802 C   0  0  0  0  0  0  0  0  0  0  0  0
   10.2684  -14.0223   28.7636 C   0  0  0  0  0  0  0  0  0  0  0  0
   10.4671  -14.9906   27.7949 C   0  0  0  0  0  0  0  0  0  0  0  0
   10.4973  -14.5768   26.3840 C   0  0  2  0  0  0  0  0  0  0  0  0
   10.1661  -15.7473   25.5091 N   0  0  0  0  0  0  0  0  0  0  0  0
   10.3105  -15.2688   24.1249 C   0  0  0  0  0  0  0  0  0  0  0  0
    8.7729  -16.2201   25.6765 O   0  0  0  0  0  0  0  0  0  0  0  0
    8.4732  -17.3719   26.4318 C   0  0  0  0  0  0  0  0  0  0  0  0
   10.6225  -16.3160   28.1465 C   0  0  0  0  0  0  0  0  0  0  0  0
   10.5850  -16.7158   29.4708 O   0  0  0  0  0  0  0  0  0  0  0  0
  2  3  1  0
  2  1  1  6
  3  4  1  0
  4  5  1  0
  5  6  2  0
  7  2  1  0
  7 18  1  0
  8  7  2  0
  9  5  1  0
 10 11  1  0
 11 12  2  0
 13 11  1  0
 13 14  1  0
 15 16  1  0
 15 14  1  0
 17 16  1  6
 17 18  1  0
 17 19  1  0
 19 20  2  0
 19 28  1  0
 22 21  1  0
 23 22  2  0
 24 23  1  0
 25 24  2  0
 25 31  1  0
 26 25  1  0
 27 26  1  1
 28 27  1  0
 29 30  1  0
 29 27  1  0
 31 32  2  0
 32 22  1  0
 33 29  2  0
M  END
$$$$
