ERY.pdb
     RDKit          3D

 33 33  0  0  1  0  0  0  0  0999 V2000
    9.5453  -18.9105   21.4237 N   0  0  0  0  0  0  0  0  0  0  0  0
   10.8659  -18.3732   21.2725 C   0  0  1  0  0  0  0  0  0  0  0  0
   11.4441  -18.4082   19.9022 C   0  0  0  0  0  0  0  0  0  0  0  0
   10.5529  -18.0671   18.7718 C   0  0  0  0  0  0  0  0  0  0  0  0
   11.2152  -18.1666   17.4702 C   0  0  0  0  0  0  0  0  0  0  0  0
   10.6320  -17.9762   16.4049 O   0  0  0  0  0  0  0  0  0  0  0  0
   10.8401  -16.9575   21.7922 C   0  0  0  0  0  0  0  0  0  0  0  0
   11.9110  -16.3538   21.9372 O   0  0  0  0  0  0  0  0  0  0  0  0
   12.5877  -18.4969   17.4493 O   0  0  0  0  0  0  0  0  0  0  0  0
    7.6842  -12.4232   18.2319 N   0  0  0  0  0  0  0  0  0  0  0  0
    7.7712  -13.7015   17.6007 C   0  0  0  0  0  0  0  0  0  0  0  0
    7.2683  -13.8426   16.4050 N   0  0  0  0  0  0  0  0  0  0  0  0
    8.3967  -14.7443   18.3027 N   0  0  0  0  0  0  0  0  0  0  0  0
    8.8554  -14.5359   19.6375 C   0  0  0  0  0  0  0  0  0  0  0  0
    7.8483  -14.9741   20.6986 C   0  0  0  0  0  0  0  0  0  0  0  0
    8.3043  -14.3274   21.9930 C   0  0  0  0  0  0  0  0  0  0  0  0
    9.4664  -15.0402   22.6238 C   0  0  2  0  0  0  0  0  0  0  0  0
    9.5806  -16.3795   22.0926 N   0  0  0  0  0  0  0  0  0  0  0  0
    9.2091  -15.0922   24.0911 C   0  0  0  0  0  0  0  0  0  0  0  0
    8.5988  -14.1682   24.6911 O   0  0  0  0  0  0  0  0  0  0  0  0
    7.3245  -14.7554   15.9114 O   0  0  0  0  0  0  0  0  0  0  0  0
    6.2405  -10.8559   26.9688 C   0  0  0  0  0  0  0  0  0  0  0  0
    6.6577  -12.1825   26.8491 C   0  0  0  0  0  0  0  0  0  0  0  0
    7.7798  -12.6501   27.5246 C   0  0  0  0  0  0  0  0  0  0  0  0
    8.1792  -13.9566   27.3970 C   0  0  0  0  0  0  0  0  0  0  0  0
    7.4424  -14.7992   26.5828 C   0  0  0  0  0  0  0  0  0  0  0  0
    7.8791  -16.1960   26.4392 C   0  0  2  0  0  0  0  0  0  0  0  0
    9.3709  -16.2459   26.3072 N   0  0  0  0  0  0  0  0  0  0  0  0
    9.6492  -16.1951   24.8630 C   0  0  0  0  0  0  0  0  0  0  0  0
    9.9576  -17.4999   26.8325 O   0  0  0  0  0  0  0  0  0  0  0  0
   10.6670  -18.3861   25.9969 C   0  0  0  0  0  0  0  0  0  0  0  0
    6.3290  -14.3340   25.9131 C   0  0  0  0  0  0  0  0  0  0  0  0
    5.9169  -13.0185   26.0342 O   0  0  0  0  0  0  0  0  0  0  0  0
  2  3  1  0
  2  1  1  6
  3  4  1  0
  4  5  1  0
  5  6  2  0
  7  2  1  0
  7 18  1  0
  8  7  2  0
  9  5  1  0
 10 11  1  0
 11 12  2  0
 13 11  1  0
 13 14  1  0
 15 16  1  0
 15 14  1  0
 17 16  1  6
 17 18  1  0
 17 19  1  0
 19 20  2  0
 19 28  1  0
 22 21  1  0
 23 22  2  0
 24 23  1  0
 25 24  2  0
 25 31  1  0
 26 25  1  0
 27 26  1  1
 28 27  1  0
 29 30  1  0
 29 27  1  0
 31 32  2  0
 32 22  1  0
 33 29  2  0
M  END
$$$$
