ERY.pdb
     RDKit          3D

 33 33  0  0  1  0  0  0  0  0999 V2000
    8.3883  -21.0911   22.1416 N   0  0  0  0  0  0  0  0  0  0  0  0
    7.5336  -20.1423   22.7934 C   0  0  1  0  0  0  0  0  0  0  0  0
    7.2288  -20.3983   24.2269 C   0  0  0  0  0  0  0  0  0  0  0  0
    8.3686  -20.4928   25.1651 C   0  0  0  0  0  0  0  0  0  0  0  0
    7.9654  -20.8757   26.5192 C   0  0  0  0  0  0  0  0  0  0  0  0
    6.7931  -21.0518   26.8450 O   0  0  0  0  0  0  0  0  0  0  0  0
    8.1610  -18.7806   22.6282 C   0  0  0  0  0  0  0  0  0  0  0  0
    9.3849  -18.7023   22.4599 O   0  0  0  0  0  0  0  0  0  0  0  0
    8.9780  -21.0483   27.4877 O   0  0  0  0  0  0  0  0  0  0  0  0
    9.7565  -13.8896   18.8371 N   0  0  0  0  0  0  0  0  0  0  0  0
    8.8745  -12.8122   19.1553 C   0  0  0  0  0  0  0  0  0  0  0  0
    9.3880  -11.6408   19.4132 N   0  0  0  0  0  0  0  0  0  0  0  0
    7.4945  -13.0707   19.1737 N   0  0  0  0  0  0  0  0  0  0  0  0
    6.9851  -14.1943   19.8903 C   0  0  0  0  0  0  0  0  0  0  0  0
    7.2050  -14.1002   21.3986 C   0  0  0  0  0  0  0  0  0  0  0  0
    6.7033  -15.4121   21.9719 C   0  0  0  0  0  0  0  0  0  0  0  0
    7.8154  -16.3116   22.4311 C   0  0  2  0  0  0  0  0  0  0  0  0
    7.3132  -17.6450   22.6735 N   0  0  0  0  0  0  0  0  0  0  0  0
    8.3595  -15.7327   23.6923 C   0  0  0  0  0  0  0  0  0  0  0  0
    8.0876  -14.5576   24.0548 O   0  0  0  0  0  0  0  0  0  0  0  0
    8.7765  -10.8365   19.6564 O   0  0  0  0  0  0  0  0  0  0  0  0
    6.1666  -10.7410   25.9892 C   0  0  0  0  0  0  0  0  0  0  0  0
    6.7157  -12.0130   26.1583 C   0  0  0  0  0  0  0  0  0  0  0  0
    8.0418  -12.1815   26.5423 C   0  0  0  0  0  0  0  0  0  0  0  0
    8.5689  -13.4381   26.7039 C   0  0  0  0  0  0  0  0  0  0  0  0
    7.7541  -14.5336   26.4773 C   0  0  0  0  0  0  0  0  0  0  0  0
    8.3248  -15.8791   26.6406 C   0  0  2  0  0  0  0  0  0  0  0  0
    9.5962  -15.9852   25.8546 N   0  0  0  0  0  0  0  0  0  0  0  0
    9.2090  -16.4962   24.5299 C   0  0  0  0  0  0  0  0  0  0  0  0
   10.5610  -16.9439   26.4399 O   0  0  0  0  0  0  0  0  0  0  0  0
   11.1893  -16.6923   27.6763 C   0  0  0  0  0  0  0  0  0  0  0  0
    6.4385  -14.3651   26.0965 C   0  0  0  0  0  0  0  0  0  0  0  0
    5.8960  -13.1029   25.9304 O   0  0  0  0  0  0  0  0  0  0  0  0
  2  3  1  0
  2  1  1  1
  3  4  1  0
  4  5  1  0
  5  6  2  0
  7  2  1  0
  7 18  1  0
  8  7  2  0
  9  5  1  0
 10 11  1  0
 11 12  2  0
 13 11  1  0
 13 14  1  0
 15 16  1  0
 15 14  1  0
 17 16  1  1
 17 18  1  0
 17 19  1  0
 19 20  2  0
 19 28  1  0
 22 21  1  0
 23 22  2  0
 24 23  1  0
 25 24  2  0
 25 31  1  0
 26 25  1  0
 27 26  1  6
 28 27  1  0
 29 30  1  0
 29 27  1  0
 31 32  2  0
 32 22  1  0
 33 29  2  0
M  END
$$$$
