ERY.pdb
     RDKit          3D

 33 33  0  0  1  0  0  0  0  0999 V2000
    9.7757  -17.8220   20.3900 N   0  0  0  0  0  0  0  0  0  0  0  0
    9.1469  -16.5354   20.4597 C   0  0  1  0  0  0  0  0  0  0  0  0
    8.2185  -16.1891   19.3499 C   0  0  0  0  0  0  0  0  0  0  0  0
    7.6553  -14.8214   19.3271 C   0  0  0  0  0  0  0  0  0  0  0  0
    7.8023  -14.1633   18.0279 C   0  0  0  0  0  0  0  0  0  0  0  0
    8.3487  -13.0710   17.8877 O   0  0  0  0  0  0  0  0  0  0  0  0
    8.4302  -16.4538   21.7844 C   0  0  0  0  0  0  0  0  0  0  0  0
    7.8459  -15.4047   22.0848 O   0  0  0  0  0  0  0  0  0  0  0  0
    7.2894  -14.8227   16.8897 O   0  0  0  0  0  0  0  0  0  0  0  0
    9.1273  -22.2428   27.7287 N   0  0  0  0  0  0  0  0  0  0  0  0
    7.8152  -22.0931   27.1846 C   0  0  0  0  0  0  0  0  0  0  0  0
    6.8243  -22.7122   27.7653 N   0  0  0  0  0  0  0  0  0  0  0  0
    7.6592  -21.2833   26.0481 N   0  0  0  0  0  0  0  0  0  0  0  0
    6.4145  -20.6329   25.7967 C   0  0  0  0  0  0  0  0  0  0  0  0
    6.5595  -19.1406   25.5065 C   0  0  0  0  0  0  0  0  0  0  0  0
    7.4405  -19.0427   24.2754 C   0  0  0  0  0  0  0  0  0  0  0  0
    7.7425  -17.6239   23.8850 C   0  0  2  0  0  0  0  0  0  0  0  0
    8.4591  -17.5915   22.6302 N   0  0  0  0  0  0  0  0  0  0  0  0
    8.5813  -17.0368   24.9683 C   0  0  0  0  0  0  0  0  0  0  0  0
    9.8299  -17.1988   25.0028 O   0  0  0  0  0  0  0  0  0  0  0  0
    5.8441  -22.5393   27.4666 O   0  0  0  0  0  0  0  0  0  0  0  0
    6.7677  -10.5765   23.8311 C   0  0  0  0  0  0  0  0  0  0  0  0
    7.0765  -11.5684   24.7631 C   0  0  0  0  0  0  0  0  0  0  0  0
    7.7328  -12.7349   24.3852 C   0  0  0  0  0  0  0  0  0  0  0  0
    8.0293  -13.7024   25.3120 C   0  0  0  0  0  0  0  0  0  0  0  0
    7.6622  -13.4934   26.6300 C   0  0  0  0  0  0  0  0  0  0  0  0
    7.9713  -14.5367   27.6191 C   0  0  2  0  0  0  0  0  0  0  0  0
    8.8397  -15.5841   26.9911 N   0  0  0  0  0  0  0  0  0  0  0  0
    7.9917  -16.2709   26.0036 C   0  0  0  0  0  0  0  0  0  0  0  0
    9.3136  -16.6003   27.9582 O   0  0  0  0  0  0  0  0  0  0  0  0
   10.2466  -16.2785   28.9647 C   0  0  0  0  0  0  0  0  0  0  0  0
    7.0111  -12.3354   27.0038 C   0  0  0  0  0  0  0  0  0  0  0  0
    6.7068  -11.3529   26.0779 O   0  0  0  0  0  0  0  0  0  0  0  0
  2  3  1  0
  2  1  1  6
  3  4  1  0
  4  5  1  0
  5  6  2  0
  7  2  1  0
  7 18  1  0
  8  7  2  0
  9  5  1  0
 10 11  1  0
 11 12  2  0
 13 11  1  0
 13 14  1  0
 15 16  1  0
 15 14  1  0
 17 16  1  1
 17 18  1  0
 17 19  1  0
 19 20  2  0
 19 28  1  0
 22 21  1  0
 23 22  2  0
 24 23  1  0
 25 24  2  0
 25 31  1  0
 26 25  1  0
 27 26  1  6
 28 27  1  0
 29 30  1  0
 29 27  1  0
 31 32  2  0
 32 22  1  0
 33 29  2  0
M  END
$$$$
