ERY.pdb
     RDKit          3D

 33 33  0  0  1  0  0  0  0  0999 V2000
    8.9997  -13.1352   18.2192 N   0  0  0  0  0  0  0  0  0  0  0  0
    9.6319  -14.2793   18.8082 C   0  0  1  0  0  0  0  0  0  0  0  0
   11.0768  -14.1441   19.1362 C   0  0  0  0  0  0  0  0  0  0  0  0
   12.0358  -14.1037   18.0105 C   0  0  0  0  0  0  0  0  0  0  0  0
   13.4242  -13.9469   18.4466 C   0  0  0  0  0  0  0  0  0  0  0  0
   14.3040  -14.7666   18.1907 O   0  0  0  0  0  0  0  0  0  0  0  0
    8.8479  -14.6426   20.0445 C   0  0  0  0  0  0  0  0  0  0  0  0
    8.3425  -13.7367   20.7200 O   0  0  0  0  0  0  0  0  0  0  0  0
   13.7574  -12.7969   19.1949 O   0  0  0  0  0  0  0  0  0  0  0  0
    4.6167  -19.7708   20.1744 N   0  0  0  0  0  0  0  0  0  0  0  0
    5.3936  -20.4833   19.2107 C   0  0  0  0  0  0  0  0  0  0  0  0
    4.7953  -20.9524   18.1503 N   0  0  0  0  0  0  0  0  0  0  0  0
    6.7672  -20.6420   19.4554 N   0  0  0  0  0  0  0  0  0  0  0  0
    7.3798  -19.9790   20.5601 C   0  0  0  0  0  0  0  0  0  0  0  0
    7.3455  -18.4564   20.4467 C   0  0  0  0  0  0  0  0  0  0  0  0
    8.0480  -17.9339   21.6856 C   0  0  0  0  0  0  0  0  0  0  0  0
    8.2321  -16.4431   21.6672 C   0  0  2  0  0  0  0  0  0  0  0  0
    8.7250  -16.0153   20.3776 N   0  0  0  0  0  0  0  0  0  0  0  0
    9.2216  -16.1071   22.7302 C   0  0  0  0  0  0  0  0  0  0  0  0
   10.0883  -15.2076   22.5698 O   0  0  0  0  0  0  0  0  0  0  0  0
    5.3427  -21.3950   17.3858 O   0  0  0  0  0  0  0  0  0  0  0  0
    7.0788  -10.5237   27.4767 C   0  0  0  0  0  0  0  0  0  0  0  0
    7.1903  -11.7647   26.8479 C   0  0  0  0  0  0  0  0  0  0  0  0
    8.3540  -12.5203   26.9433 C   0  0  0  0  0  0  0  0  0  0  0  0
    8.4502  -13.7385   26.3190 C   0  0  0  0  0  0  0  0  0  0  0  0
    7.3657  -14.1996   25.5932 C   0  0  0  0  0  0  0  0  0  0  0  0
    7.4756  -15.5004   24.9161 C   0  0  2  0  0  0  0  0  0  0  0  0
    8.8171  -16.1043   25.2010 N   0  0  0  0  0  0  0  0  0  0  0  0
    9.2165  -16.7985   23.9663 C   0  0  0  0  0  0  0  0  0  0  0  0
    8.7813  -17.1091   26.2881 O   0  0  0  0  0  0  0  0  0  0  0  0
    9.3467  -16.8451   27.5521 C   0  0  0  0  0  0  0  0  0  0  0  0
    6.2115  -13.4490   25.4994 C   0  0  0  0  0  0  0  0  0  0  0  0
    6.1030  -12.2192   26.1246 O   0  0  0  0  0  0  0  0  0  0  0  0
  2  3  1  0
  2  1  1  1
  3  4  1  0
  4  5  1  0
  5  6  2  0
  7  2  1  0
  7 18  1  0
  8  7  2  0
  9  5  1  0
 10 11  1  0
 11 12  2  0
 13 11  1  0
 13 14  1  0
 15 16  1  0
 15 14  1  0
 17 16  1  6
 17 18  1  0
 17 19  1  0
 19 20  2  0
 19 28  1  0
 22 21  1  0
 23 22  2  0
 24 23  1  0
 25 24  2  0
 25 31  1  0
 26 25  1  0
 27 26  1  6
 28 27  1  0
 29 30  1  0
 29 27  1  0
 31 32  2  0
 32 22  1  0
 33 29  2  0
M  END
$$$$
