ERY.pdb
     RDKit          3D

 33 33  0  0  1  0  0  0  0  0999 V2000
   10.7884  -13.8482   18.4300 N   0  0  0  0  0  0  0  0  0  0  0  0
   11.5314  -15.0222   18.7843 C   0  0  1  0  0  0  0  0  0  0  0  0
   12.9565  -14.8181   19.1593 C   0  0  0  0  0  0  0  0  0  0  0  0
   13.8641  -14.2616   18.1321 C   0  0  0  0  0  0  0  0  0  0  0  0
   15.2657  -14.2469   18.5539 C   0  0  0  0  0  0  0  0  0  0  0  0
   16.1818  -14.6687   17.8509 O   0  0  0  0  0  0  0  0  0  0  0  0
   10.7893  -15.7054   19.9057 C   0  0  0  0  0  0  0  0  0  0  0  0
   10.0493  -15.0296   20.6324 O   0  0  0  0  0  0  0  0  0  0  0  0
   15.5681  -13.7215   19.8290 O   0  0  0  0  0  0  0  0  0  0  0  0
   11.5911  -22.0831   24.1059 N   0  0  0  0  0  0  0  0  0  0  0  0
   10.3676  -22.7831   23.8752 C   0  0  0  0  0  0  0  0  0  0  0  0
    9.9726  -23.6575   24.7595 N   0  0  0  0  0  0  0  0  0  0  0  0
    9.6500  -22.4921   22.7038 N   0  0  0  0  0  0  0  0  0  0  0  0
   10.1810  -21.5772   21.7465 C   0  0  0  0  0  0  0  0  0  0  0  0
    9.9828  -20.1134   22.1339 C   0  0  0  0  0  0  0  0  0  0  0  0
   10.5216  -19.3017   20.9710 C   0  0  0  0  0  0  0  0  0  0  0  0
   10.3601  -17.8212   21.1681 C   0  0  2  0  0  0  0  0  0  0  0  0
   10.9750  -17.1007   20.0764 N   0  0  0  0  0  0  0  0  0  0  0  0
   11.0291  -17.4711   22.4532 C   0  0  0  0  0  0  0  0  0  0  0  0
   12.2295  -17.0922   22.4951 O   0  0  0  0  0  0  0  0  0  0  0  0
    9.0792  -24.1728   24.6320 O   0  0  0  0  0  0  0  0  0  0  0  0
   10.8301  -14.1358   30.5244 C   0  0  0  0  0  0  0  0  0  0  0  0
   10.5175  -14.6426   29.2621 C   0  0  0  0  0  0  0  0  0  0  0  0
   10.0729  -15.9503   29.0992 C   0  0  0  0  0  0  0  0  0  0  0  0
    9.7700  -16.4359   27.8520 C   0  0  0  0  0  0  0  0  0  0  0  0
    9.9156  -15.5977   26.7603 C   0  0  0  0  0  0  0  0  0  0  0  0
    9.6008  -16.1241   25.4237 C   0  0  1  0  0  0  0  0  0  0  0  0
   10.8039  -16.8166   24.8594 N   0  0  0  0  0  0  0  0  0  0  0  0
   10.3264  -17.5561   23.6800 C   0  0  0  0  0  0  0  0  0  0  0  0
   11.3983  -17.7995   25.7938 O   0  0  0  0  0  0  0  0  0  0  0  0
   10.9276  -19.1264   25.8624 C   0  0  0  0  0  0  0  0  0  0  0  0
   10.3566  -14.3003   26.9233 C   0  0  0  0  0  0  0  0  0  0  0  0
   10.6652  -13.7998   28.1761 O   0  0  0  0  0  0  0  0  0  0  0  0
  2  3  1  0
  2  1  1  1
  3  4  1  0
  4  5  1  0
  5  6  2  0
  7  2  1  0
  7 18  1  0
  8  7  2  0
  9  5  1  0
 10 11  1  0
 11 12  2  0
 13 11  1  0
 13 14  1  0
 15 16  1  0
 15 14  1  0
 17 16  1  6
 17 18  1  0
 17 19  1  0
 19 20  2  0
 19 28  1  0
 22 21  1  0
 23 22  2  0
 24 23  1  0
 25 24  2  0
 25 31  1  0
 26 25  1  0
 27 26  1  6
 28 27  1  0
 29 30  1  0
 29 27  1  0
 31 32  2  0
 32 22  1  0
 33 29  2  0
M  END
$$$$
