ERY.pdb
     RDKit          3D

 33 33  0  0  1  0  0  0  0  0999 V2000
    8.4393  -20.3057   23.5053 N   0  0  0  0  0  0  0  0  0  0  0  0
    9.4102  -20.1285   22.4653 C   0  0  1  0  0  0  0  0  0  0  0  0
    9.0475  -20.6543   21.1217 C   0  0  0  0  0  0  0  0  0  0  0  0
    8.0471  -19.8993   20.3358 C   0  0  0  0  0  0  0  0  0  0  0  0
    7.7628  -20.5078   19.0352 C   0  0  0  0  0  0  0  0  0  0  0  0
    8.3186  -21.5296   18.6373 O   0  0  0  0  0  0  0  0  0  0  0  0
    9.7203  -18.6547   22.3828 C   0  0  0  0  0  0  0  0  0  0  0  0
   10.7690  -18.2939   21.8329 O   0  0  0  0  0  0  0  0  0  0  0  0
    6.8039  -19.8840   18.2077 O   0  0  0  0  0  0  0  0  0  0  0  0
    9.6172  -13.2371   18.3024 N   0  0  0  0  0  0  0  0  0  0  0  0
    8.5451  -12.5938   18.9930 C   0  0  0  0  0  0  0  0  0  0  0  0
    8.4401  -11.2958   18.9115 N   0  0  0  0  0  0  0  0  0  0  0  0
    7.6558  -13.3954   19.7267 N   0  0  0  0  0  0  0  0  0  0  0  0
    8.1532  -14.4458   20.5540 C   0  0  0  0  0  0  0  0  0  0  0  0
    7.8803  -14.2260   22.0405 C   0  0  0  0  0  0  0  0  0  0  0  0
    7.6949  -15.6091   22.6354 C   0  0  0  0  0  0  0  0  0  0  0  0
    8.9966  -16.3149   22.8886 C   0  0  2  0  0  0  0  0  0  0  0  0
    8.7889  -17.7442   22.9431 N   0  0  0  0  0  0  0  0  0  0  0  0
    9.5184  -15.8237   24.1956 C   0  0  0  0  0  0  0  0  0  0  0  0
    9.9990  -14.6669   24.3261 O   0  0  0  0  0  0  0  0  0  0  0  0
    7.7146  -10.7882   19.4554 O   0  0  0  0  0  0  0  0  0  0  0  0
    6.1052  -11.2722   25.9429 C   0  0  0  0  0  0  0  0  0  0  0  0
    6.7788  -12.4305   26.3334 C   0  0  0  0  0  0  0  0  0  0  0  0
    8.1223  -12.3982   26.6915 C   0  0  0  0  0  0  0  0  0  0  0  0
    8.7724  -13.5450   27.0725 C   0  0  0  0  0  0  0  0  0  0  0  0
    8.0639  -14.7337   27.0935 C   0  0  0  0  0  0  0  0  0  0  0  0
    8.7660  -15.9629   27.4917 C   0  0  2  0  0  0  0  0  0  0  0  0
    9.9811  -16.1485   26.6347 N   0  0  0  0  0  0  0  0  0  0  0  0
    9.4894  -16.6537   25.3429 C   0  0  0  0  0  0  0  0  0  0  0  0
   10.9255  -17.1514   27.1777 O   0  0  0  0  0  0  0  0  0  0  0  0
   11.5597  -16.9656   28.4227 C   0  0  0  0  0  0  0  0  0  0  0  0
    6.7307  -14.7644   26.7381 C   0  0  0  0  0  0  0  0  0  0  0  0
    6.0648  -13.6143   26.3521 O   0  0  0  0  0  0  0  0  0  0  0  0
  2  3  1  0
  2  1  1  1
  3  4  1  0
  4  5  1  0
  5  6  2  0
  7  2  1  0
  7 18  1  0
  8  7  2  0
  9  5  1  0
 10 11  1  0
 11 12  2  0
 13 11  1  0
 13 14  1  0
 15 16  1  0
 15 14  1  0
 17 16  1  1
 17 18  1  0
 17 19  1  0
 19 20  2  0
 19 28  1  0
 22 21  1  0
 23 22  2  0
 24 23  1  0
 25 24  2  0
 25 31  1  0
 26 25  1  0
 27 26  1  6
 28 27  1  0
 29 30  1  0
 29 27  1  0
 31 32  2  0
 32 22  1  0
 33 29  2  0
M  END
$$$$
