ERY.pdb
     RDKit          3D

 33 33  0  0  1  0  0  0  0  0999 V2000
    9.2594  -19.5942   17.0686 N   0  0  0  0  0  0  0  0  0  0  0  0
   10.1520  -19.3878   18.1714 C   0  0  1  0  0  0  0  0  0  0  0  0
   11.3860  -18.6061   17.8896 C   0  0  0  0  0  0  0  0  0  0  0  0
   11.3764  -17.7074   16.7147 C   0  0  0  0  0  0  0  0  0  0  0  0
   12.6966  -17.1564   16.4044 C   0  0  0  0  0  0  0  0  0  0  0  0
   13.7140  -17.4660   17.0211 O   0  0  0  0  0  0  0  0  0  0  0  0
    9.3609  -18.7339   19.2768 C   0  0  0  0  0  0  0  0  0  0  0  0
    8.3557  -18.0738   18.9833 O   0  0  0  0  0  0  0  0  0  0  0  0
   12.7943  -16.2274   15.3458 O   0  0  0  0  0  0  0  0  0  0  0  0
    5.9716  -22.2697   24.8258 N   0  0  0  0  0  0  0  0  0  0  0  0
    6.5657  -21.4999   25.8721 C   0  0  0  0  0  0  0  0  0  0  0  0
    5.7842  -20.9210   26.7419 N   0  0  0  0  0  0  0  0  0  0  0  0
    7.9662  -21.4062   25.9105 N   0  0  0  0  0  0  0  0  0  0  0  0
    8.7080  -21.2533   24.7015 C   0  0  0  0  0  0  0  0  0  0  0  0
    8.2900  -20.0319   23.8857 C   0  0  0  0  0  0  0  0  0  0  0  0
    9.1620  -20.0461   22.6443 C   0  0  0  0  0  0  0  0  0  0  0  0
    8.8931  -18.8858   21.7288 C   0  0  2  0  0  0  0  0  0  0  0  0
    9.8089  -18.9073   20.6109 N   0  0  0  0  0  0  0  0  0  0  0  0
    9.0871  -17.6407   22.5251 C   0  0  0  0  0  0  0  0  0  0  0  0
   10.2258  -17.2772   22.9218 O   0  0  0  0  0  0  0  0  0  0  0  0
    6.1725  -20.2652   27.4484 O   0  0  0  0  0  0  0  0  0  0  0  0
    7.0787  -10.9313   27.7290 C   0  0  0  0  0  0  0  0  0  0  0  0
    6.9944  -11.9645   26.7945 C   0  0  0  0  0  0  0  0  0  0  0  0
    5.7695  -12.3710   26.2764 C   0  0  0  0  0  0  0  0  0  0  0  0
    5.7012  -13.3891   25.3589 C   0  0  0  0  0  0  0  0  0  0  0  0
    6.8760  -14.0024   24.9597 C   0  0  0  0  0  0  0  0  0  0  0  0
    6.7988  -15.1005   23.9846 C   0  0  1  0  0  0  0  0  0  0  0  0
    8.1704  -15.6506   23.7366 N   0  0  0  0  0  0  0  0  0  0  0  0
    7.9832  -16.8205   22.8636 C   0  0  0  0  0  0  0  0  0  0  0  0
    8.8401  -16.1166   24.9723 O   0  0  0  0  0  0  0  0  0  0  0  0
    8.4359  -17.2978   25.6268 C   0  0  0  0  0  0  0  0  0  0  0  0
    8.0908  -13.5980   25.4745 C   0  0  0  0  0  0  0  0  0  0  0  0
    8.1719  -12.5726   26.4003 O   0  0  0  0  0  0  0  0  0  0  0  0
  2  3  1  0
  2  1  1  6
  3  4  1  0
  4  5  1  0
  5  6  2  0
  7  2  1  0
  7 18  1  0
  8  7  2  0
  9  5  1  0
 10 11  1  0
 11 12  2  0
 13 11  1  0
 13 14  1  0
 15 16  1  0
 15 14  1  0
 17 16  1  1
 17 18  1  0
 17 19  1  0
 19 20  2  0
 19 28  1  0
 22 21  1  0
 23 22  2  0
 24 23  1  0
 25 24  2  0
 25 31  1  0
 26 25  1  0
 27 26  1  6
 28 27  1  0
 29 30  1  0
 29 27  1  0
 31 32  2  0
 32 22  1  0
 33 29  2  0
M  END
$$$$
