ERY.pdb
     RDKit          3D

 33 33  0  0  1  0  0  0  0  0999 V2000
   11.7142  -19.1390   20.8628 N   0  0  0  0  0  0  0  0  0  0  0  0
   10.3884  -18.7856   21.2788 C   0  0  1  0  0  0  0  0  0  0  0  0
    9.6934  -19.7512   22.1721 C   0  0  0  0  0  0  0  0  0  0  0  0
   10.4290  -20.2418   23.3581 C   0  0  0  0  0  0  0  0  0  0  0  0
    9.6884  -21.2540   24.1129 C   0  0  0  0  0  0  0  0  0  0  0  0
    8.5310  -21.5735   23.8490 O   0  0  0  0  0  0  0  0  0  0  0  0
   10.4671  -17.4302   21.9358 C   0  0  0  0  0  0  0  0  0  0  0  0
   11.5735  -16.9965   22.2822 O   0  0  0  0  0  0  0  0  0  0  0  0
   10.3437  -21.8865   25.1916 O   0  0  0  0  0  0  0  0  0  0  0  0
    8.7867  -14.8930   17.3669 N   0  0  0  0  0  0  0  0  0  0  0  0
    7.9219  -13.8807   17.8841 C   0  0  0  0  0  0  0  0  0  0  0  0
    8.2451  -12.6301   17.6997 N   0  0  0  0  0  0  0  0  0  0  0  0
    6.7636  -14.2859   18.5666 N   0  0  0  0  0  0  0  0  0  0  0  0
    6.7919  -14.4679   19.9813 C   0  0  0  0  0  0  0  0  0  0  0  0
    8.1709  -14.2330   20.5941 C   0  0  0  0  0  0  0  0  0  0  0  0
    8.0450  -14.6204   22.0555 C   0  0  0  0  0  0  0  0  0  0  0  0
    9.2587  -15.3363   22.5761 C   0  0  2  0  0  0  0  0  0  0  0  0
    9.2606  -16.7102   22.1272 N   0  0  0  0  0  0  0  0  0  0  0  0
    9.1974  -15.2846   24.0645 C   0  0  0  0  0  0  0  0  0  0  0  0
    8.8649  -14.2368   24.6792 O   0  0  0  0  0  0  0  0  0  0  0  0
    7.6625  -11.8682   18.0999 O   0  0  0  0  0  0  0  0  0  0  0  0
    6.5636  -10.7993   26.6635 C   0  0  0  0  0  0  0  0  0  0  0  0
    6.9129  -12.1506   26.6549 C   0  0  0  0  0  0  0  0  0  0  0  0
    8.0928  -12.5949   27.2419 C   0  0  0  0  0  0  0  0  0  0  0  0
    8.4243  -13.9264   27.2252 C   0  0  0  0  0  0  0  0  0  0  0  0
    7.5604  -14.8175   26.6128 C   0  0  0  0  0  0  0  0  0  0  0  0
    7.9235  -16.2423   26.5867 C   0  0  2  0  0  0  0  0  0  0  0  0
    9.3887  -16.3832   26.3062 N   0  0  0  0  0  0  0  0  0  0  0  0
    9.5157  -16.4258   24.8407 C   0  0  0  0  0  0  0  0  0  0  0  0
    9.9633  -17.6383   26.8422 O   0  0  0  0  0  0  0  0  0  0  0  0
   10.0659  -17.8662   28.2294 C   0  0  0  0  0  0  0  0  0  0  0  0
    6.3898  -14.3754   26.0307 C   0  0  0  0  0  0  0  0  0  0  0  0
    6.0452  -13.0352   26.0414 O   0  0  0  0  0  0  0  0  0  0  0  0
  2  3  1  0
  2  1  1  1
  3  4  1  0
  4  5  1  0
  5  6  2  0
  7  2  1  0
  7 18  1  0
  8  7  2  0
  9  5  1  0
 10 11  1  0
 11 12  2  0
 13 11  1  0
 13 14  1  0
 15 16  1  0
 15 14  1  0
 17 16  1  6
 17 18  1  0
 17 19  1  0
 19 20  2  0
 19 28  1  0
 22 21  1  0
 23 22  2  0
 24 23  1  0
 25 24  2  0
 25 31  1  0
 26 25  1  0
 27 26  1  6
 28 27  1  0
 29 30  1  0
 29 27  1  0
 31 32  2  0
 32 22  1  0
 33 29  2  0
M  END
$$$$
