ERY.pdb
     RDKit          3D

 33 33  0  0  1  0  0  0  0  0999 V2000
   12.8036  -19.6542   21.1255 N   0  0  0  0  0  0  0  0  0  0  0  0
   11.4433  -19.6144   21.5767 C   0  0  1  0  0  0  0  0  0  0  0  0
   11.0675  -20.5859   22.6390 C   0  0  0  0  0  0  0  0  0  0  0  0
   11.9342  -20.6650   23.8352 C   0  0  0  0  0  0  0  0  0  0  0  0
   11.5221  -21.7111   24.7726 C   0  0  0  0  0  0  0  0  0  0  0  0
   12.1373  -21.9653   25.8062 O   0  0  0  0  0  0  0  0  0  0  0  0
   11.1599  -18.2053   22.0341 C   0  0  0  0  0  0  0  0  0  0  0  0
   12.0820  -17.5369   22.5191 O   0  0  0  0  0  0  0  0  0  0  0  0
   10.3627  -22.4560   24.4657 O   0  0  0  0  0  0  0  0  0  0  0  0
    8.8411  -13.9184   18.9594 N   0  0  0  0  0  0  0  0  0  0  0  0
    8.1703  -12.9178   19.7268 C   0  0  0  0  0  0  0  0  0  0  0  0
    8.8030  -11.8088   19.9953 N   0  0  0  0  0  0  0  0  0  0  0  0
    6.8587  -13.1808   20.1539 N   0  0  0  0  0  0  0  0  0  0  0  0
    6.6118  -14.1910   21.1305 C   0  0  0  0  0  0  0  0  0  0  0  0
    7.8311  -14.5096   21.9931 C   0  0  0  0  0  0  0  0  0  0  0  0
    8.1913  -15.9504   21.6831 C   0  0  0  0  0  0  0  0  0  0  0  0
    9.4713  -16.3858   22.3379 C   0  0  2  0  0  0  0  0  0  0  0  0
    9.8403  -17.7081   21.8859 N   0  0  0  0  0  0  0  0  0  0  0  0
    9.2335  -16.3960   23.8093 C   0  0  0  0  0  0  0  0  0  0  0  0
    8.4596  -17.2289   24.3510 O   0  0  0  0  0  0  0  0  0  0  0  0
    8.3292  -11.0402   20.5099 O   0  0  0  0  0  0  0  0  0  0  0  0
    6.0491  -10.4838   25.9364 C   0  0  0  0  0  0  0  0  0  0  0  0
    6.6101  -11.7563   26.0546 C   0  0  0  0  0  0  0  0  0  0  0  0
    7.8852  -11.9371   26.5798 C   0  0  0  0  0  0  0  0  0  0  0  0
    8.4249  -13.1940   26.6893 C   0  0  0  0  0  0  0  0  0  0  0  0
    7.6744  -14.2774   26.2669 C   0  0  0  0  0  0  0  0  0  0  0  0
    8.2596  -15.6222   26.3752 C   0  0  2  0  0  0  0  0  0  0  0  0
    9.7333  -15.5524   26.1131 N   0  0  0  0  0  0  0  0  0  0  0  0
    9.8781  -15.4573   24.6517 C   0  0  0  0  0  0  0  0  0  0  0  0
   10.4590  -16.7643   26.5571 O   0  0  0  0  0  0  0  0  0  0  0  0
   11.7948  -16.6994   27.0024 C   0  0  0  0  0  0  0  0  0  0  0  0
    6.4092  -14.0968   25.7461 C   0  0  0  0  0  0  0  0  0  0  0  0
    5.8548  -12.8341   25.6308 O   0  0  0  0  0  0  0  0  0  0  0  0
  2  3  1  0
  2  1  1  1
  3  4  1  0
  4  5  1  0
  5  6  2  0
  7  2  1  0
  7 18  1  0
  8  7  2  0
  9  5  1  0
 10 11  1  0
 11 12  2  0
 13 11  1  0
 13 14  1  0
 15 16  1  0
 15 14  1  0
 17 16  1  6
 17 18  1  0
 17 19  1  0
 19 20  2  0
 19 28  1  0
 22 21  1  0
 23 22  2  0
 24 23  1  0
 25 24  2  0
 25 31  1  0
 26 25  1  0
 27 26  1  1
 28 27  1  0
 29 30  1  0
 29 27  1  0
 31 32  2  0
 32 22  1  0
 33 29  2  0
M  END
$$$$
