ERY.pdb
     RDKit          3D

 33 33  0  0  1  0  0  0  0  0999 V2000
   14.5100  -20.0366   19.8890 N   0  0  0  0  0  0  0  0  0  0  0  0
   15.0718  -18.7510   20.1840 C   0  0  1  0  0  0  0  0  0  0  0  0
   15.7874  -18.0681   19.0727 C   0  0  0  0  0  0  0  0  0  0  0  0
   15.0513  -17.8616   17.8062 C   0  0  0  0  0  0  0  0  0  0  0  0
   15.8429  -17.1648   16.7910 C   0  0  0  0  0  0  0  0  0  0  0  0
   15.6933  -17.3448   15.5841 O   0  0  0  0  0  0  0  0  0  0  0  0
   13.9557  -17.8777   20.7006 C   0  0  0  0  0  0  0  0  0  0  0  0
   14.2046  -16.7022   20.9981 O   0  0  0  0  0  0  0  0  0  0  0  0
   16.8204  -16.2453   17.2296 O   0  0  0  0  0  0  0  0  0  0  0  0
    5.7947  -19.6872   19.0617 N   0  0  0  0  0  0  0  0  0  0  0  0
    6.5665  -19.2641   17.9368 C   0  0  0  0  0  0  0  0  0  0  0  0
    6.0120  -19.2855   16.7560 N   0  0  0  0  0  0  0  0  0  0  0  0
    7.8877  -18.8450   18.1614 N   0  0  0  0  0  0  0  0  0  0  0  0
    8.4347  -18.8734   19.4787 C   0  0  0  0  0  0  0  0  0  0  0  0
    9.7994  -18.1957   19.5819 C   0  0  0  0  0  0  0  0  0  0  0  0
   10.2530  -18.3964   21.0156 C   0  0  0  0  0  0  0  0  0  0  0  0
   11.5414  -17.6885   21.3247 C   0  0  2  0  0  0  0  0  0  0  0  0
   12.6633  -18.4484   20.8220 N   0  0  0  0  0  0  0  0  0  0  0  0
   11.6317  -17.5630   22.8073 C   0  0  0  0  0  0  0  0  0  0  0  0
   12.1461  -18.4653   23.5197 O   0  0  0  0  0  0  0  0  0  0  0  0
    6.5620  -19.0427   15.9083 O   0  0  0  0  0  0  0  0  0  0  0  0
   10.1069  -14.5386   30.8640 C   0  0  0  0  0  0  0  0  0  0  0  0
   10.2060  -14.6675   29.4778 C   0  0  0  0  0  0  0  0  0  0  0  0
   11.3890  -14.3733   28.8082 C   0  0  0  0  0  0  0  0  0  0  0  0
   11.4720  -14.5036   27.4447 C   0  0  0  0  0  0  0  0  0  0  0  0
   10.3550  -14.9340   26.7500 C   0  0  0  0  0  0  0  0  0  0  0  0
   10.4436  -15.0621   25.2878 C   0  0  1  0  0  0  0  0  0  0  0  0
   11.1481  -16.3370   24.9360 N   0  0  0  0  0  0  0  0  0  0  0  0
   11.1351  -16.4119   23.4663 C   0  0  0  0  0  0  0  0  0  0  0  0
   10.4584  -17.5416   25.4519 O   0  0  0  0  0  0  0  0  0  0  0  0
    9.2518  -17.9978   24.8837 C   0  0  0  0  0  0  0  0  0  0  0  0
    9.1818  -15.2257   27.4156 C   0  0  0  0  0  0  0  0  0  0  0  0
    9.0863  -15.0980   28.7902 O   0  0  0  0  0  0  0  0  0  0  0  0
  2  3  1  0
  2  1  1  6
  3  4  1  0
  4  5  1  0
  5  6  2  0
  7  2  1  0
  7 18  1  0
  8  7  2  0
  9  5  1  0
 10 11  1  0
 11 12  2  0
 13 11  1  0
 13 14  1  0
 15 16  1  0
 15 14  1  0
 17 16  1  1
 17 18  1  0
 17 19  1  0
 19 20  2  0
 19 28  1  0
 22 21  1  0
 23 22  2  0
 24 23  1  0
 25 24  2  0
 25 31  1  0
 26 25  1  0
 27 26  1  6
 28 27  1  0
 29 30  1  0
 29 27  1  0
 31 32  2  0
 32 22  1  0
 33 29  2  0
M  END
$$$$
