FDN.pdb
     RDKit          3D

 28 28  0  0  1  0  0  0  0  0999 V2000
    4.4822  -18.4000   20.4837 N   0  0  0  0  0  0  0  0  0  0  0  0
    5.4224  -17.3487   20.2014 C   0  0  1  0  0  0  0  0  0  0  0  0
    5.6839  -16.6310   21.5089 C   0  0  0  0  0  0  0  0  0  0  0  0
    6.3383  -15.3331   21.1395 C   0  0  0  0  0  0  0  0  0  0  0  0
    7.0879  -14.6501   22.0737 C   0  0  0  0  0  0  0  0  0  0  0  0
    7.7224  -13.4415   21.7788 C   0  0  0  0  0  0  0  0  0  0  0  0
    7.5958  -12.9159   20.5165 C   0  0  0  0  0  0  0  0  0  0  0  0
    6.8457  -13.6001   19.5834 C   0  0  0  0  0  0  0  0  0  0  0  0
    6.2198  -14.7966   19.8818 C   0  0  0  0  0  0  0  0  0  0  0  0
    6.7243  -17.9115   19.6630 C   0  0  0  0  0  0  0  0  0  0  0  0
    7.2825  -18.7723   20.3592 O   0  0  0  0  0  0  0  0  0  0  0  0
    7.2598  -17.4833   18.4527 N   0  0  0  0  0  0  0  0  0  0  0  0
    8.5737  -17.6446   17.9668 C   0  0  1  0  0  0  0  0  0  0  0  0
    8.9002  -17.0304   16.6218 C   0  0  0  0  0  0  0  0  0  0  0  0
   10.1782  -17.5080   16.0445 C   0  0  0  0  0  0  0  0  0  0  0  0
   11.1883  -16.8195   15.8540 O   0  0  0  0  0  0  0  0  0  0  0  0
    9.6605  -17.5111   18.9166 C   0  0  0  0  0  0  0  0  0  0  0  0
   10.8452  -17.8657   18.5571 O   0  0  0  0  0  0  0  0  0  0  0  0
   10.2113  -18.8631   15.6951 O   0  0  0  0  0  0  0  0  0  0  0  0
   12.7828  -16.7075   22.9771 N   0  0  0  0  0  0  0  0  0  0  0  0
   11.5347  -16.0267   23.2629 C   0  0  0  0  0  0  0  0  0  0  0  0
   11.5492  -15.3914   24.3445 O   0  0  0  0  0  0  0  0  0  0  0  0
   10.4029  -16.1167   22.3301 C   0  0  0  0  0  0  0  0  0  0  0  0
   10.7612  -16.9497   21.1276 C   0  0  2  0  0  0  0  0  0  0  0  0
    9.5693  -17.0201   20.2380 N   0  0  0  0  0  0  0  0  0  0  0  0
   11.1637  -18.3427   21.4709 C   0  0  0  0  0  0  0  0  0  0  0  0
   12.3161  -18.7864   21.5360 O   0  0  0  0  0  0  0  0  0  0  0  0
   10.1407  -19.2675   21.7539 O   0  0  0  0  0  0  0  0  0  0  0  0
  2  1  1  1
  2  3  1  0
  2 10  1  0
  4  9  2  0
  4  3  1  0
  5  4  1  0
  6  7  1  0
  6  5  2  0
  7  8  2  0
  8  9  1  0
 10 11  2  0
 12 10  1  0
 12 13  1  0
 13 14  1  6
 14 15  1  0
 15 19  1  0
 15 16  2  0
 17 13  1  0
 17 18  2  0
 20 21  1  0
 21 23  1  0
 21 22  2  0
 24 23  1  1
 24 25  1  0
 25 17  1  0
 26 24  1  0
 26 28  1  0
 27 26  2  0
M  END
$$$$
