FDN.pdb
     RDKit          3D

 28 28  0  0  1  0  0  0  0  0999 V2000
    6.2085  -16.4518   24.5852 N   0  0  0  0  0  0  0  0  0  0  0  0
    7.5044  -15.8309   24.5221 C   0  0  1  0  0  0  0  0  0  0  0  0
    7.7409  -15.1714   25.8646 C   0  0  0  0  0  0  0  0  0  0  0  0
    7.1245  -13.8079   25.7651 C   0  0  0  0  0  0  0  0  0  0  0  0
    5.9926  -13.5096   26.4937 C   0  0  0  0  0  0  0  0  0  0  0  0
    5.3836  -12.2539   26.4413 C   0  0  0  0  0  0  0  0  0  0  0  0
    5.9304  -11.2840   25.6377 C   0  0  0  0  0  0  0  0  0  0  0  0
    7.0623  -11.5838   24.9094 C   0  0  0  0  0  0  0  0  0  0  0  0
    7.6606  -12.8294   24.9657 C   0  0  0  0  0  0  0  0  0  0  0  0
    8.5898  -16.8590   24.2643 C   0  0  0  0  0  0  0  0  0  0  0  0
    8.4253  -17.9751   24.7787 O   0  0  0  0  0  0  0  0  0  0  0  0
    9.7076  -16.5626   23.4913 N   0  0  0  0  0  0  0  0  0  0  0  0
   11.0413  -16.9807   23.6779 C   0  0  1  0  0  0  0  0  0  0  0  0
   12.0816  -16.4430   22.7180 C   0  0  0  0  0  0  0  0  0  0  0  0
   11.6131  -16.3675   21.3146 C   0  0  0  0  0  0  0  0  0  0  0  0
   10.8640  -17.1791   20.7571 O   0  0  0  0  0  0  0  0  0  0  0  0
   11.5328  -17.0651   25.0390 C   0  0  0  0  0  0  0  0  0  0  0  0
   12.8048  -17.0982   25.2379 O   0  0  0  0  0  0  0  0  0  0  0  0
   12.0777  -15.2680   20.5835 O   0  0  0  0  0  0  0  0  0  0  0  0
   11.5004  -14.3725   27.3968 N   0  0  0  0  0  0  0  0  0  0  0  0
   10.5751  -14.9384   28.3594 C   0  0  0  0  0  0  0  0  0  0  0  0
    9.9344  -14.0737   29.0038 O   0  0  0  0  0  0  0  0  0  0  0  0
   10.4524  -16.3948   28.5121 C   0  0  0  0  0  0  0  0  0  0  0  0
   11.3774  -17.1151   27.5666 C   0  0  2  0  0  0  0  0  0  0  0  0
   10.7522  -17.1173   26.2152 N   0  0  0  0  0  0  0  0  0  0  0  0
   11.6388  -18.5292   27.9563 C   0  0  0  0  0  0  0  0  0  0  0  0
   11.3325  -19.5428   27.3175 O   0  0  0  0  0  0  0  0  0  0  0  0
   12.3027  -18.7588   29.1764 O   0  0  0  0  0  0  0  0  0  0  0  0
  2  1  1  1
  2  3  1  0
  2 10  1  0
  4  9  2  0
  4  3  1  0
  5  4  1  0
  6  7  1  0
  6  5  2  0
  7  8  2  0
  8  9  1  0
 10 11  2  0
 12 10  1  0
 12 13  1  0
 13 14  1  6
 14 15  1  0
 15 19  1  0
 15 16  2  0
 17 13  1  0
 17 18  2  0
 20 21  1  0
 21 23  1  0
 21 22  2  0
 24 23  1  1
 24 25  1  0
 25 17  1  0
 26 24  1  0
 26 28  1  0
 27 26  2  0
M  END
$$$$
