FDN.pdb
     RDKit          3D

 28 28  0  0  1  0  0  0  0  0999 V2000
    6.2362  -16.5528   24.8787 N   0  0  0  0  0  0  0  0  0  0  0  0
    7.4298  -15.8701   24.4565 C   0  0  1  0  0  0  0  0  0  0  0  0
    8.0642  -15.2851   25.7008 C   0  0  0  0  0  0  0  0  0  0  0  0
    7.3531  -13.9888   25.9521 C   0  0  0  0  0  0  0  0  0  0  0  0
    6.7708  -13.7499   27.1788 C   0  0  0  0  0  0  0  0  0  0  0  0
    6.1027  -12.5576   27.4655 C   0  0  0  0  0  0  0  0  0  0  0  0
    6.0234  -11.5907   26.4936 C   0  0  0  0  0  0  0  0  0  0  0  0
    6.6062  -11.8311   25.2672 C   0  0  0  0  0  0  0  0  0  0  0  0
    7.2664  -13.0142   24.9895 C   0  0  0  0  0  0  0  0  0  0  0  0
    8.4016  -16.8291   23.7951 C   0  0  0  0  0  0  0  0  0  0  0  0
    8.3445  -18.0121   24.1620 O   0  0  0  0  0  0  0  0  0  0  0  0
    9.3061  -16.4013   22.8288 N   0  0  0  0  0  0  0  0  0  0  0  0
   10.2856  -17.1530   22.1478 C   0  0  1  0  0  0  0  0  0  0  0  0
   10.5782  -16.7776   20.7103 C   0  0  0  0  0  0  0  0  0  0  0  0
    9.3780  -16.3606   19.9485 C   0  0  0  0  0  0  0  0  0  0  0  0
    9.2047  -15.2560   19.4189 O   0  0  0  0  0  0  0  0  0  0  0  0
   11.4821  -17.5155   22.8814 C   0  0  0  0  0  0  0  0  0  0  0  0
   12.2228  -18.4667   22.4284 O   0  0  0  0  0  0  0  0  0  0  0  0
    8.3706  -17.3260   19.8372 O   0  0  0  0  0  0  0  0  0  0  0  0
   14.7458  -15.0501   22.9247 N   0  0  0  0  0  0  0  0  0  0  0  0
   14.7325  -16.3733   23.5179 C   0  0  0  0  0  0  0  0  0  0  0  0
   15.1945  -17.2629   22.7638 O   0  0  0  0  0  0  0  0  0  0  0  0
   14.2123  -16.5786   24.8769 C   0  0  0  0  0  0  0  0  0  0  0  0
   13.0511  -17.5377   24.8696 C   0  0  2  0  0  0  0  0  0  0  0  0
   11.9477  -16.9269   24.0781 N   0  0  0  0  0  0  0  0  0  0  0  0
   12.5278  -17.8443   26.2305 C   0  0  0  0  0  0  0  0  0  0  0  0
   13.1482  -18.3706   27.1619 O   0  0  0  0  0  0  0  0  0  0  0  0
   11.1889  -17.5084   26.5069 O   0  0  0  0  0  0  0  0  0  0  0  0
  2  1  1  1
  2  3  1  0
  2 10  1  0
  4  9  2  0
  4  3  1  0
  5  4  1  0
  6  7  1  0
  6  5  2  0
  7  8  2  0
  8  9  1  0
 10 11  2  0
 12 10  1  0
 12 13  1  0
 13 14  1  6
 14 15  1  0
 15 19  1  0
 15 16  2  0
 17 13  1  0
 17 18  2  0
 20 21  1  0
 21 23  1  0
 21 22  2  0
 24 23  1  1
 24 25  1  0
 25 17  1  0
 26 24  1  0
 26 28  1  0
 27 26  2  0
M  END
$$$$
