FDN.pdb
     RDKit          3D

 28 28  0  0  1  0  0  0  0  0999 V2000
    5.6187  -18.4943   20.2569 N   0  0  0  0  0  0  0  0  0  0  0  0
    6.3651  -17.2722   20.1216 C   0  0  1  0  0  0  0  0  0  0  0  0
    5.8932  -16.3457   21.2225 C   0  0  0  0  0  0  0  0  0  0  0  0
    6.5989  -15.0427   20.9913 C   0  0  0  0  0  0  0  0  0  0  0  0
    7.3526  -14.4799   21.9994 C   0  0  0  0  0  0  0  0  0  0  0  0
    8.0338  -13.2723   21.8333 C   0  0  0  0  0  0  0  0  0  0  0  0
    7.9507  -12.6237   20.6257 C   0  0  0  0  0  0  0  0  0  0  0  0
    7.1964  -13.1878   19.6185 C   0  0  0  0  0  0  0  0  0  0  0  0
    6.5241  -14.3841   19.7894 C   0  0  0  0  0  0  0  0  0  0  0  0
    7.8536  -17.5227   20.2734 C   0  0  0  0  0  0  0  0  0  0  0  0
    8.2001  -18.2167   21.2408 O   0  0  0  0  0  0  0  0  0  0  0  0
    8.7774  -17.0012   19.3737 N   0  0  0  0  0  0  0  0  0  0  0  0
   10.1836  -17.1025   19.3998 C   0  0  1  0  0  0  0  0  0  0  0  0
   10.9278  -16.8119   18.1136 C   0  0  0  0  0  0  0  0  0  0  0  0
   10.6105  -17.7559   17.0167 C   0  0  0  0  0  0  0  0  0  0  0  0
   10.4362  -18.9746   17.1387 O   0  0  0  0  0  0  0  0  0  0  0  0
   10.8709  -16.5871   20.5674 C   0  0  0  0  0  0  0  0  0  0  0  0
   10.6137  -15.3874   20.9590 O   0  0  0  0  0  0  0  0  0  0  0  0
   10.5056  -17.1849   15.7430 O   0  0  0  0  0  0  0  0  0  0  0  0
   12.8943  -15.7053   25.1418 N   0  0  0  0  0  0  0  0  0  0  0  0
   11.5129  -16.0613   24.8813 C   0  0  0  0  0  0  0  0  0  0  0  0
   10.7596  -15.8953   25.8706 O   0  0  0  0  0  0  0  0  0  0  0  0
   11.1058  -16.5627   23.5613 C   0  0  0  0  0  0  0  0  0  0  0  0
   12.2982  -16.7233   22.6553 C   0  0  2  0  0  0  0  0  0  0  0  0
   11.8241  -17.2709   21.3544 N   0  0  0  0  0  0  0  0  0  0  0  0
   13.3324  -17.6494   23.1963 C   0  0  0  0  0  0  0  0  0  0  0  0
   13.2263  -18.8723   23.3470 O   0  0  0  0  0  0  0  0  0  0  0  0
   14.5675  -17.0956   23.5833 O   0  0  0  0  0  0  0  0  0  0  0  0
  2  1  1  1
  2  3  1  0
  2 10  1  0
  4  9  2  0
  4  3  1  0
  5  4  1  0
  6  7  1  0
  6  5  2  0
  7  8  2  0
  8  9  1  0
 10 11  2  0
 12 10  1  0
 12 13  1  0
 13 14  1  6
 14 15  1  0
 15 19  1  0
 15 16  2  0
 17 13  1  0
 17 18  2  0
 20 21  1  0
 21 23  1  0
 21 22  2  0
 24 23  1  1
 24 25  1  0
 25 17  1  0
 26 24  1  0
 26 28  1  0
 27 26  2  0
M  END
$$$$
