FDN.pdb
     RDKit          3D

 28 28  0  0  1  0  0  0  0  0999 V2000
    5.4341  -17.0874   23.0186 N   0  0  0  0  0  0  0  0  0  0  0  0
    6.3151  -16.1222   23.6198 C   0  0  1  0  0  0  0  0  0  0  0  0
    5.7177  -15.7599   24.9633 C   0  0  0  0  0  0  0  0  0  0  0  0
    6.5322  -14.6100   25.4766 C   0  0  0  0  0  0  0  0  0  0  0  0
    6.8689  -13.5738   24.6316 C   0  0  0  0  0  0  0  0  0  0  0  0
    7.6198  -12.4776   25.0612 C   0  0  0  0  0  0  0  0  0  0  0  0
    8.0366  -12.4298   26.3688 C   0  0  0  0  0  0  0  0  0  0  0  0
    7.6992  -13.4668   27.2127 C   0  0  0  0  0  0  0  0  0  0  0  0
    6.9553  -14.5497   26.7810 C   0  0  0  0  0  0  0  0  0  0  0  0
    7.7025  -16.7016   23.8218 C   0  0  0  0  0  0  0  0  0  0  0  0
    7.7718  -17.7493   24.4814 O   0  0  0  0  0  0  0  0  0  0  0  0
    8.8339  -16.0888   23.2935 N   0  0  0  0  0  0  0  0  0  0  0  0
   10.1850  -16.4673   23.4333 C   0  0  1  0  0  0  0  0  0  0  0  0
   11.2034  -15.7481   22.5740 C   0  0  0  0  0  0  0  0  0  0  0  0
   12.5225  -16.4207   22.5266 C   0  0  0  0  0  0  0  0  0  0  0  0
   13.6172  -15.8586   22.3990 O   0  0  0  0  0  0  0  0  0  0  0  0
   10.6731  -16.7260   24.7735 C   0  0  0  0  0  0  0  0  0  0  0  0
   11.1214  -15.7405   25.4710 O   0  0  0  0  0  0  0  0  0  0  0  0
   12.4910  -17.8156   22.6393 O   0  0  0  0  0  0  0  0  0  0  0  0
   11.4218  -20.4218   29.3188 N   0  0  0  0  0  0  0  0  0  0  0  0
   10.8643  -19.1254   28.9848 C   0  0  0  0  0  0  0  0  0  0  0  0
   10.9129  -18.3027   29.9305 O   0  0  0  0  0  0  0  0  0  0  0  0
   10.3119  -18.8709   27.6471 C   0  0  0  0  0  0  0  0  0  0  0  0
   11.3002  -18.1251   26.7895 C   0  0  2  0  0  0  0  0  0  0  0  0
   10.7165  -17.9772   25.4277 N   0  0  0  0  0  0  0  0  0  0  0  0
   12.6115  -18.8200   26.6565 C   0  0  0  0  0  0  0  0  0  0  0  0
   13.7001  -18.4406   27.1041 O   0  0  0  0  0  0  0  0  0  0  0  0
   12.6372  -20.0377   25.9504 O   0  0  0  0  0  0  0  0  0  0  0  0
  2  1  1  1
  2  3  1  0
  2 10  1  0
  4  9  2  0
  4  3  1  0
  5  4  1  0
  6  7  1  0
  6  5  2  0
  7  8  2  0
  8  9  1  0
 10 11  2  0
 12 10  1  0
 12 13  1  0
 13 14  1  1
 14 15  1  0
 15 19  1  0
 15 16  2  0
 17 13  1  0
 17 18  2  0
 20 21  1  0
 21 23  1  0
 21 22  2  0
 24 23  1  1
 24 25  1  0
 25 17  1  0
 26 24  1  0
 26 28  1  0
 27 26  2  0
M  END
$$$$
