FDN.pdb
     RDKit          3D

 28 28  0  0  1  0  0  0  0  0999 V2000
    7.2656  -16.9507   25.6678 N   0  0  0  0  0  0  0  0  0  0  0  0
    6.8261  -17.1571   24.3139 C   0  0  1  0  0  0  0  0  0  0  0  0
    5.8592  -16.0373   23.9909 C   0  0  0  0  0  0  0  0  0  0  0  0
    6.4594  -14.7957   24.5803 C   0  0  0  0  0  0  0  0  0  0  0  0
    6.3617  -14.5605   25.9354 C   0  0  0  0  0  0  0  0  0  0  0  0
    6.9084  -13.4237   26.5344 C   0  0  0  0  0  0  0  0  0  0  0  0
    7.5654  -12.5097   25.7479 C   0  0  0  0  0  0  0  0  0  0  0  0
    7.6623  -12.7462   24.3928 C   0  0  0  0  0  0  0  0  0  0  0  0
    7.1186  -13.8741   23.8057 C   0  0  0  0  0  0  0  0  0  0  0  0
    7.9951  -17.1116   23.3480 C   0  0  0  0  0  0  0  0  0  0  0  0
    7.7664  -17.4841   22.1877 O   0  0  0  0  0  0  0  0  0  0  0  0
    9.2542  -16.6741   23.7456 N   0  0  0  0  0  0  0  0  0  0  0  0
   10.4939  -16.8608   23.1002 C   0  0  1  0  0  0  0  0  0  0  0  0
   10.8242  -15.9400   21.9444 C   0  0  0  0  0  0  0  0  0  0  0  0
   12.0012  -16.3737   21.1562 C   0  0  0  0  0  0  0  0  0  0  0  0
   11.9988  -16.6678   19.9544 O   0  0  0  0  0  0  0  0  0  0  0  0
   11.6468  -17.1427   23.9323 C   0  0  0  0  0  0  0  0  0  0  0  0
   12.1607  -16.1859   24.6245 O   0  0  0  0  0  0  0  0  0  0  0  0
   13.2063  -16.4458   21.8645 O   0  0  0  0  0  0  0  0  0  0  0  0
   12.4806  -20.4294   27.7817 N   0  0  0  0  0  0  0  0  0  0  0  0
   11.2254  -19.8422   27.3546 C   0  0  0  0  0  0  0  0  0  0  0  0
   10.2954  -19.9958   28.1822 O   0  0  0  0  0  0  0  0  0  0  0  0
   11.1251  -19.1490   26.0627 C   0  0  0  0  0  0  0  0  0  0  0  0
   12.4783  -19.0213   25.4139 C   0  0  2  0  0  0  0  0  0  0  0  0
   12.2964  -18.3886   24.0783 N   0  0  0  0  0  0  0  0  0  0  0  0
   13.1655  -20.3284   25.2155 C   0  0  0  0  0  0  0  0  0  0  0  0
   14.2148  -20.7030   25.7522 O   0  0  0  0  0  0  0  0  0  0  0  0
   12.5762  -21.2485   24.3278 O   0  0  0  0  0  0  0  0  0  0  0  0
  2  1  1  1
  2  3  1  0
  2 10  1  0
  4  9  2  0
  4  3  1  0
  5  4  1  0
  6  7  1  0
  6  5  2  0
  7  8  2  0
  8  9  1  0
 10 11  2  0
 12 10  1  0
 12 13  1  0
 13 14  1  1
 14 15  1  0
 15 19  1  0
 15 16  2  0
 17 13  1  0
 17 18  2  0
 20 21  1  0
 21 23  1  0
 21 22  2  0
 24 23  1  6
 24 25  1  0
 25 17  1  0
 26 24  1  0
 26 28  1  0
 27 26  2  0
M  END
$$$$
