FDN.pdb
     RDKit          3D

 28 28  0  0  1  0  0  0  0  0999 V2000
    7.5865  -17.8891   19.2063 N   0  0  0  0  0  0  0  0  0  0  0  0
    7.9267  -16.7304   19.9878 C   0  0  1  0  0  0  0  0  0  0  0  0
    6.6227  -16.0732   20.3888 C   0  0  0  0  0  0  0  0  0  0  0  0
    7.0015  -14.7796   21.0463 C   0  0  0  0  0  0  0  0  0  0  0  0
    6.9548  -14.6662   22.4196 C   0  0  0  0  0  0  0  0  0  0  0  0
    7.3031  -13.4865   23.0808 C   0  0  0  0  0  0  0  0  0  0  0  0
    7.7058  -12.4035   22.3388 C   0  0  0  0  0  0  0  0  0  0  0  0
    7.7519  -12.5185   20.9653 C   0  0  0  0  0  0  0  0  0  0  0  0
    7.4056  -13.6896   20.3166 C   0  0  0  0  0  0  0  0  0  0  0  0
    8.7014  -17.1203   21.2325 C   0  0  0  0  0  0  0  0  0  0  0  0
    8.2247  -18.0408   21.9128 O   0  0  0  0  0  0  0  0  0  0  0  0
    9.8831  -16.4784   21.5882 N   0  0  0  0  0  0  0  0  0  0  0  0
   10.6987  -16.7006   22.7167 C   0  0  1  0  0  0  0  0  0  0  0  0
   12.0605  -16.0388   22.7342 C   0  0  0  0  0  0  0  0  0  0  0  0
   13.0970  -16.7913   21.9897 C   0  0  0  0  0  0  0  0  0  0  0  0
   13.1862  -18.0233   21.9191 O   0  0  0  0  0  0  0  0  0  0  0  0
   10.0598  -16.6902   24.0178 C   0  0  0  0  0  0  0  0  0  0  0  0
   10.2521  -15.6814   24.7950 O   0  0  0  0  0  0  0  0  0  0  0  0
   14.0428  -16.0083   21.3177 O   0  0  0  0  0  0  0  0  0  0  0  0
    5.9651  -17.8617   24.0132 N   0  0  0  0  0  0  0  0  0  0  0  0
    6.4711  -17.3977   25.2905 C   0  0  0  0  0  0  0  0  0  0  0  0
    6.0349  -16.2686   25.6198 O   0  0  0  0  0  0  0  0  0  0  0  0
    7.4034  -18.2236   26.0704 C   0  0  0  0  0  0  0  0  0  0  0  0
    8.8057  -17.6813   25.9826 C   0  0  2  0  0  0  0  0  0  0  0  0
    9.2208  -17.6929   24.5527 N   0  0  0  0  0  0  0  0  0  0  0  0
    9.7982  -18.4778   26.7577 C   0  0  0  0  0  0  0  0  0  0  0  0
   10.1716  -19.6321   26.5181 O   0  0  0  0  0  0  0  0  0  0  0  0
   10.3847  -17.8723   27.8853 O   0  0  0  0  0  0  0  0  0  0  0  0
  2  1  1  1
  2  3  1  0
  2 10  1  0
  4  9  2  0
  4  3  1  0
  5  4  1  0
  6  7  1  0
  6  5  2  0
  7  8  2  0
  8  9  1  0
 10 11  2  0
 12 10  1  0
 12 13  1  0
 13 14  1  1
 14 15  1  0
 15 19  1  0
 15 16  2  0
 17 13  1  0
 17 18  2  0
 20 21  1  0
 21 23  1  0
 21 22  2  0
 24 23  1  6
 24 25  1  0
 25 17  1  0
 26 24  1  0
 26 28  1  0
 27 26  2  0
M  END
$$$$
