FDN.pdb
     RDKit          3D

 28 28  0  0  1  0  0  0  0  0999 V2000
    5.7718  -17.1998   24.2959 N   0  0  0  0  0  0  0  0  0  0  0  0
    6.8512  -16.2749   24.5161 C   0  0  1  0  0  0  0  0  0  0  0  0
    6.8324  -15.9212   25.9884 C   0  0  0  0  0  0  0  0  0  0  0  0
    6.7004  -14.4285   26.0490 C   0  0  0  0  0  0  0  0  0  0  0  0
    7.7351  -13.6280   25.6134 C   0  0  0  0  0  0  0  0  0  0  0  0
    7.6600  -12.2338   25.6428 C   0  0  0  0  0  0  0  0  0  0  0  0
    6.5178  -11.6404   26.1211 C   0  0  0  0  0  0  0  0  0  0  0  0
    5.4839  -12.4423   26.5565 C   0  0  0  0  0  0  0  0  0  0  0  0
    5.5645  -13.8225   26.5248 C   0  0  0  0  0  0  0  0  0  0  0  0
    8.1868  -16.9014   24.1624 C   0  0  0  0  0  0  0  0  0  0  0  0
    8.3459  -18.0852   24.4951 O   0  0  0  0  0  0  0  0  0  0  0  0
    9.1773  -16.1840   23.4998 N   0  0  0  0  0  0  0  0  0  0  0  0
   10.4851  -16.5928   23.1668 C   0  0  1  0  0  0  0  0  0  0  0  0
   11.2531  -15.7384   22.1804 C   0  0  0  0  0  0  0  0  0  0  0  0
   12.4743  -16.3908   21.6533 C   0  0  0  0  0  0  0  0  0  0  0  0
   13.5407  -15.8228   21.3873 O   0  0  0  0  0  0  0  0  0  0  0  0
   11.3236  -17.0939   24.2378 C   0  0  0  0  0  0  0  0  0  0  0  0
   11.8389  -16.2536   25.0666 O   0  0  0  0  0  0  0  0  0  0  0  0
   12.3784  -17.7724   21.4503 O   0  0  0  0  0  0  0  0  0  0  0  0
   11.9558  -18.5006   28.3360 N   0  0  0  0  0  0  0  0  0  0  0  0
   11.5706  -19.7636   27.7364 C   0  0  0  0  0  0  0  0  0  0  0  0
   11.0150  -20.5492   28.5412 O   0  0  0  0  0  0  0  0  0  0  0  0
   11.8373  -20.0295   26.3160 C   0  0  0  0  0  0  0  0  0  0  0  0
   12.4855  -18.8398   25.6581 C   0  0  2  0  0  0  0  0  0  0  0  0
   11.6538  -18.4444   24.4880 N   0  0  0  0  0  0  0  0  0  0  0  0
   13.8671  -19.1121   25.1713 C   0  0  0  0  0  0  0  0  0  0  0  0
   14.2244  -20.0400   24.4359 O   0  0  0  0  0  0  0  0  0  0  0  0
   14.8888  -18.2338   25.5794 O   0  0  0  0  0  0  0  0  0  0  0  0
  2  1  1  1
  2  3  1  0
  2 10  1  0
  4  9  2  0
  4  3  1  0
  5  4  1  0
  6  7  1  0
  6  5  2  0
  7  8  2  0
  8  9  1  0
 10 11  2  0
 12 10  1  0
 12 13  1  0
 13 14  1  1
 14 15  1  0
 15 19  1  0
 15 16  2  0
 17 13  1  0
 17 18  2  0
 20 21  1  0
 21 23  1  0
 21 22  2  0
 24 23  1  6
 24 25  1  0
 25 17  1  0
 26 24  1  0
 26 28  1  0
 27 26  2  0
M  END
$$$$
