FDN.pdb
     RDKit          3D

 28 28  0  0  1  0  0  0  0  0999 V2000
    6.1738  -16.8303   24.7312 N   0  0  0  0  0  0  0  0  0  0  0  0
    7.3470  -16.0098   24.5923 C   0  0  1  0  0  0  0  0  0  0  0  0
    7.5775  -15.3433   25.9323 C   0  0  0  0  0  0  0  0  0  0  0  0
    7.1306  -13.9215   25.7645 C   0  0  0  0  0  0  0  0  0  0  0  0
    6.0278  -13.4612   26.4521 C   0  0  0  0  0  0  0  0  0  0  0  0
    5.5745  -12.1454   26.3357 C   0  0  0  0  0  0  0  0  0  0  0  0
    6.2496  -11.2812   25.5093 C   0  0  0  0  0  0  0  0  0  0  0  0
    7.3524  -11.7432   24.8221 C   0  0  0  0  0  0  0  0  0  0  0  0
    7.7962  -13.0475   24.9417 C   0  0  0  0  0  0  0  0  0  0  0  0
    8.5583  -16.8474   24.2279 C   0  0  0  0  0  0  0  0  0  0  0  0
    8.6314  -17.9685   24.7525 O   0  0  0  0  0  0  0  0  0  0  0  0
    9.5323  -16.3803   23.3515 N   0  0  0  0  0  0  0  0  0  0  0  0
   10.7949  -16.9377   23.0626 C   0  0  1  0  0  0  0  0  0  0  0  0
   11.5106  -16.4393   21.8248 C   0  0  0  0  0  0  0  0  0  0  0  0
   10.7256  -16.6001   20.5787 C   0  0  0  0  0  0  0  0  0  0  0  0
   10.0981  -17.6126   20.2444 O   0  0  0  0  0  0  0  0  0  0  0  0
   11.6984  -17.1622   24.1736 C   0  0  0  0  0  0  0  0  0  0  0  0
   11.8960  -16.2072   25.0148 O   0  0  0  0  0  0  0  0  0  0  0  0
   10.7139  -15.4891   19.7273 O   0  0  0  0  0  0  0  0  0  0  0  0
   12.7982  -19.6718   28.4558 N   0  0  0  0  0  0  0  0  0  0  0  0
   11.4763  -19.4466   27.9038 C   0  0  0  0  0  0  0  0  0  0  0  0
   10.5490  -19.7039   28.7085 O   0  0  0  0  0  0  0  0  0  0  0  0
   11.3136  -18.9631   26.5257 C   0  0  0  0  0  0  0  0  0  0  0  0
   12.6499  -18.8064   25.8489 C   0  0  2  0  0  0  0  0  0  0  0  0
   12.4134  -18.3482   24.4520 N   0  0  0  0  0  0  0  0  0  0  0  0
   13.4371  -20.0703   25.7929 C   0  0  0  0  0  0  0  0  0  0  0  0
   13.1207  -21.1154   25.2123 O   0  0  0  0  0  0  0  0  0  0  0  0
   14.6737  -20.1003   26.4650 O   0  0  0  0  0  0  0  0  0  0  0  0
  2  1  1  1
  2  3  1  0
  2 10  1  0
  4  9  2  0
  4  3  1  0
  5  4  1  0
  6  7  1  0
  6  5  2  0
  7  8  2  0
  8  9  1  0
 10 11  2  0
 12 10  1  0
 12 13  1  0
 13 14  1  6
 14 15  1  0
 15 19  1  0
 15 16  2  0
 17 13  1  0
 17 18  2  0
 20 21  1  0
 21 23  1  0
 21 22  2  0
 24 23  1  6
 24 25  1  0
 25 17  1  0
 26 24  1  0
 26 28  1  0
 27 26  2  0
M  END
$$$$
