FDN.pdb
     RDKit          3D

 28 28  0  0  1  0  0  0  0  0999 V2000
    8.7352  -14.7775   25.2491 N   0  0  0  0  0  0  0  0  0  0  0  0
    7.6857  -15.7049   24.9212 C   0  0  1  0  0  0  0  0  0  0  0  0
    6.5472  -14.8920   24.3415 C   0  0  0  0  0  0  0  0  0  0  0  0
    6.5528  -13.5904   25.0864 C   0  0  0  0  0  0  0  0  0  0  0  0
    5.8285  -13.4619   26.2526 C   0  0  0  0  0  0  0  0  0  0  0  0
    5.8054  -12.2742   26.9868 C   0  0  0  0  0  0  0  0  0  0  0  0
    6.5282  -11.1987   26.5326 C   0  0  0  0  0  0  0  0  0  0  0  0
    7.2520  -11.3287   25.3660 C   0  0  0  0  0  0  0  0  0  0  0  0
    7.2707  -12.5077   24.6435 C   0  0  0  0  0  0  0  0  0  0  0  0
    8.1558  -16.7208   23.8972 C   0  0  0  0  0  0  0  0  0  0  0  0
    7.3055  -17.5251   23.4880 O   0  0  0  0  0  0  0  0  0  0  0  0
    9.4704  -16.7453   23.4432 N   0  0  0  0  0  0  0  0  0  0  0  0
   10.3964  -17.8076   23.4889 C   0  0  1  0  0  0  0  0  0  0  0  0
   11.3095  -17.9889   22.2947 C   0  0  0  0  0  0  0  0  0  0  0  0
   12.2062  -16.8351   22.0512 C   0  0  0  0  0  0  0  0  0  0  0  0
   12.0820  -15.7060   22.5413 O   0  0  0  0  0  0  0  0  0  0  0  0
   11.0730  -18.0530   24.7472 C   0  0  0  0  0  0  0  0  0  0  0  0
   11.6071  -17.0591   25.3682 O   0  0  0  0  0  0  0  0  0  0  0  0
   13.2788  -17.0790   21.1855 O   0  0  0  0  0  0  0  0  0  0  0  0
   10.6266  -21.1900   29.6669 N   0  0  0  0  0  0  0  0  0  0  0  0
   10.7876  -19.8809   29.0642 C   0  0  0  0  0  0  0  0  0  0  0  0
   11.2510  -19.0221   29.8525 O   0  0  0  0  0  0  0  0  0  0  0  0
   10.4217  -19.6542   27.6592 C   0  0  0  0  0  0  0  0  0  0  0  0
   11.6445  -19.3917   26.8200 C   0  0  2  0  0  0  0  0  0  0  0  0
   11.2206  -19.2993   25.3956 N   0  0  0  0  0  0  0  0  0  0  0  0
   12.6761  -20.4616   26.9259 C   0  0  0  0  0  0  0  0  0  0  0  0
   12.5643  -21.6378   26.5604 O   0  0  0  0  0  0  0  0  0  0  0  0
   13.9155  -20.1200   27.4997 O   0  0  0  0  0  0  0  0  0  0  0  0
  2  1  1  6
  2  3  1  0
  2 10  1  0
  4  9  2  0
  4  3  1  0
  5  4  1  0
  6  7  1  0
  6  5  2  0
  7  8  2  0
  8  9  1  0
 10 11  2  0
 12 10  1  0
 12 13  1  0
 13 14  1  6
 14 15  1  0
 15 19  1  0
 15 16  2  0
 17 13  1  0
 17 18  2  0
 20 21  1  0
 21 23  1  0
 21 22  2  0
 24 23  1  1
 24 25  1  0
 25 17  1  0
 26 24  1  0
 26 28  1  0
 27 26  2  0
M  END
$$$$
