FDN.pdb
     RDKit          3D

 28 28  0  0  1  0  0  0  0  0999 V2000
    6.4144  -16.2386   24.5037 N   0  0  0  0  0  0  0  0  0  0  0  0
    7.7068  -15.6286   24.6668 C   0  0  1  0  0  0  0  0  0  0  0  0
    7.7552  -15.0731   26.0748 C   0  0  0  0  0  0  0  0  0  0  0  0
    7.0718  -13.7395   26.0123 C   0  0  0  0  0  0  0  0  0  0  0  0
    7.6700  -12.6903   25.3473 C   0  0  0  0  0  0  0  0  0  0  0  0
    7.0731  -11.4312   25.2547 C   0  0  0  0  0  0  0  0  0  0  0  0
    5.8496  -11.2315   25.8453 C   0  0  0  0  0  0  0  0  0  0  0  0
    5.2526  -12.2818   26.5102 C   0  0  0  0  0  0  0  0  0  0  0  0
    5.8491  -13.5264   26.5983 C   0  0  0  0  0  0  0  0  0  0  0  0
    8.8171  -16.6463   24.4852 C   0  0  0  0  0  0  0  0  0  0  0  0
    8.6645  -17.7365   25.0558 O   0  0  0  0  0  0  0  0  0  0  0  0
    9.9439  -16.3687   23.7184 N   0  0  0  0  0  0  0  0  0  0  0  0
   11.2154  -16.9759   23.7725 C   0  0  1  0  0  0  0  0  0  0  0  0
   12.2130  -16.6025   22.6963 C   0  0  0  0  0  0  0  0  0  0  0  0
   11.7228  -16.8481   21.3200 C   0  0  0  0  0  0  0  0  0  0  0  0
   11.2123  -17.8979   20.9103 O   0  0  0  0  0  0  0  0  0  0  0  0
   11.8332  -17.1220   25.0756 C   0  0  0  0  0  0  0  0  0  0  0  0
   12.4331  -16.1073   25.5946 O   0  0  0  0  0  0  0  0  0  0  0  0
   11.8649  -15.7766   20.4306 O   0  0  0  0  0  0  0  0  0  0  0  0
   10.6938  -15.4813   29.6319 N   0  0  0  0  0  0  0  0  0  0  0  0
   11.5034  -16.2156   28.6789 C   0  0  0  0  0  0  0  0  0  0  0  0
   12.6942  -15.8241   28.6295 O   0  0  0  0  0  0  0  0  0  0  0  0
   10.9185  -17.3020   27.8807 C   0  0  0  0  0  0  0  0  0  0  0  0
   11.9900  -18.2194   27.3530 C   0  0  2  0  0  0  0  0  0  0  0  0
   11.8555  -18.2886   25.8717 N   0  0  0  0  0  0  0  0  0  0  0  0
   11.8993  -19.6063   27.8899 C   0  0  0  0  0  0  0  0  0  0  0  0
   11.0753  -20.4718   27.5716 O   0  0  0  0  0  0  0  0  0  0  0  0
   12.8401  -19.9932   28.8631 O   0  0  0  0  0  0  0  0  0  0  0  0
  2  1  1  1
  2  3  1  0
  2 10  1  0
  4  9  2  0
  4  3  1  0
  5  4  1  0
  6  7  1  0
  6  5  2  0
  7  8  2  0
  8  9  1  0
 10 11  2  0
 12 10  1  0
 12 13  1  0
 13 14  1  6
 14 15  1  0
 15 19  1  0
 15 16  2  0
 17 13  1  0
 17 18  2  0
 20 21  1  0
 21 23  1  0
 21 22  2  0
 24 23  1  1
 24 25  1  0
 25 17  1  0
 26 24  1  0
 26 28  1  0
 27 26  2  0
M  END
$$$$
