FDN.pdb
     RDKit          3D

 28 28  0  0  1  0  0  0  0  0999 V2000
    8.2063  -16.7734   20.5270 N   0  0  0  0  0  0  0  0  0  0  0  0
    8.4434  -16.7001   19.1101 C   0  0  1  0  0  0  0  0  0  0  0  0
    7.5434  -15.6083   18.5705 C   0  0  0  0  0  0  0  0  0  0  0  0
    7.8869  -14.3730   19.3485 C   0  0  0  0  0  0  0  0  0  0  0  0
    8.6410  -13.3784   18.7627 C   0  0  0  0  0  0  0  0  0  0  0  0
    8.9827  -12.2067   19.4413 C   0  0  0  0  0  0  0  0  0  0  0  0
    8.5534  -12.0393   20.7349 C   0  0  0  0  0  0  0  0  0  0  0  0
    7.7994  -13.0350   21.3194 C   0  0  0  0  0  0  0  0  0  0  0  0
    7.4644  -14.1931   20.6420 C   0  0  0  0  0  0  0  0  0  0  0  0
    9.8911  -16.3546   18.8166 C   0  0  0  0  0  0  0  0  0  0  0  0
   10.2101  -16.2865   17.6203 O   0  0  0  0  0  0  0  0  0  0  0  0
   10.8087  -16.1262   19.8368 N   0  0  0  0  0  0  0  0  0  0  0  0
   12.1749  -15.7934   19.7319 C   0  0  1  0  0  0  0  0  0  0  0  0
   12.5754  -14.8271   18.6371 C   0  0  0  0  0  0  0  0  0  0  0  0
   14.0367  -14.7692   18.4003 C   0  0  0  0  0  0  0  0  0  0  0  0
   14.7952  -15.7429   18.3163 O   0  0  0  0  0  0  0  0  0  0  0  0
   12.9069  -15.5716   20.9633 C   0  0  0  0  0  0  0  0  0  0  0  0
   13.4238  -14.4115   21.1769 O   0  0  0  0  0  0  0  0  0  0  0  0
   14.5736  -13.4837   18.2638 O   0  0  0  0  0  0  0  0  0  0  0  0
    8.7278  -16.2946   24.2694 N   0  0  0  0  0  0  0  0  0  0  0  0
   10.1774  -16.2565   24.2799 C   0  0  0  0  0  0  0  0  0  0  0  0
   10.6649  -16.1242   25.4282 O   0  0  0  0  0  0  0  0  0  0  0  0
   10.9377  -16.3672   23.0273 C   0  0  0  0  0  0  0  0  0  0  0  0
   12.4181  -16.4206   23.2990 C   0  0  2  0  0  0  0  0  0  0  0  0
   13.1281  -16.5125   21.9934 N   0  0  0  0  0  0  0  0  0  0  0  0
   12.8260  -17.5886   24.1293 C   0  0  0  0  0  0  0  0  0  0  0  0
   13.3845  -17.5550   25.2322 O   0  0  0  0  0  0  0  0  0  0  0  0
   12.5575  -18.8750   23.6243 O   0  0  0  0  0  0  0  0  0  0  0  0
  2  1  1  1
  2  3  1  0
  2 10  1  0
  4  9  2  0
  4  3  1  0
  5  4  1  0
  6  7  1  0
  6  5  2  0
  7  8  2  0
  8  9  1  0
 10 11  2  0
 12 10  1  0
 12 13  1  0
 13 14  1  6
 14 15  1  0
 15 19  1  0
 15 16  2  0
 17 13  1  0
 17 18  2  0
 20 21  1  0
 21 23  1  0
 21 22  2  0
 24 23  1  6
 24 25  1  0
 25 17  1  0
 26 24  1  0
 26 28  1  0
 27 26  2  0
M  END
$$$$
