FDN.pdb
     RDKit          3D

 28 28  0  0  1  0  0  0  0  0999 V2000
    6.5285  -15.5438   21.0232 N   0  0  0  0  0  0  0  0  0  0  0  0
    7.1696  -14.9690   22.1754 C   0  0  1  0  0  0  0  0  0  0  0  0
    6.0854  -14.7219   23.2032 C   0  0  0  0  0  0  0  0  0  0  0  0
    6.7388  -13.9485   24.3096 C   0  0  0  0  0  0  0  0  0  0  0  0
    6.8224  -14.4930   25.5736 C   0  0  0  0  0  0  0  0  0  0  0  0
    7.4260  -13.8171   26.6362 C   0  0  0  0  0  0  0  0  0  0  0  0
    7.9541  -12.5691   26.4149 C   0  0  0  0  0  0  0  0  0  0  0  0
    7.8697  -12.0258   25.1503 C   0  0  0  0  0  0  0  0  0  0  0  0
    7.2706  -12.7003   24.1021 C   0  0  0  0  0  0  0  0  0  0  0  0
    8.2071  -15.9146   22.7506 C   0  0  0  0  0  0  0  0  0  0  0  0
    7.7983  -17.0281   23.1117 O   0  0  0  0  0  0  0  0  0  0  0  0
    9.5445  -15.5495   22.8647 N   0  0  0  0  0  0  0  0  0  0  0  0
   10.6347  -16.3302   23.3009 C   0  0  1  0  0  0  0  0  0  0  0  0
   11.9960  -16.0148   22.7177 C   0  0  0  0  0  0  0  0  0  0  0  0
   12.1034  -16.3032   21.2685 C   0  0  0  0  0  0  0  0  0  0  0  0
   12.1280  -17.4282   20.7544 O   0  0  0  0  0  0  0  0  0  0  0  0
   10.6983  -16.6643   24.7100 C   0  0  0  0  0  0  0  0  0  0  0  0
   11.0126  -15.7421   25.5523 O   0  0  0  0  0  0  0  0  0  0  0  0
   12.1815  -15.1807   20.4359 O   0  0  0  0  0  0  0  0  0  0  0  0
   10.9144  -19.0623   29.3333 N   0  0  0  0  0  0  0  0  0  0  0  0
    9.6273  -19.2436   28.6901 C   0  0  0  0  0  0  0  0  0  0  0  0
    8.7680  -19.7742   29.4341 O   0  0  0  0  0  0  0  0  0  0  0  0
    9.4214  -18.8230   27.2973 C   0  0  0  0  0  0  0  0  0  0  0  0
   10.6632  -18.1779   26.7405 C   0  0  2  0  0  0  0  0  0  0  0  0
   10.4472  -17.9283   25.2885 N   0  0  0  0  0  0  0  0  0  0  0  0
   11.8842  -19.0192   26.8874 C   0  0  0  0  0  0  0  0  0  0  0  0
   12.5233  -19.5630   25.9790 O   0  0  0  0  0  0  0  0  0  0  0  0
   12.3794  -19.2308   28.1881 O   0  0  0  0  0  0  0  0  0  0  0  0
  2  1  1  6
  2  3  1  0
  2 10  1  0
  4  9  2  0
  4  3  1  0
  5  4  1  0
  6  7  1  0
  6  5  2  0
  7  8  2  0
  8  9  1  0
 10 11  2  0
 12 10  1  0
 12 13  1  0
 13 14  1  1
 14 15  1  0
 15 19  1  0
 15 16  2  0
 17 13  1  0
 17 18  2  0
 20 21  1  0
 21 23  1  0
 21 22  2  0
 24 23  1  6
 24 25  1  0
 25 17  1  0
 26 24  1  0
 26 28  1  0
 27 26  2  0
M  END
$$$$
