FDN.pdb
     RDKit          3D

 28 28  0  0  1  0  0  0  0  0999 V2000
    6.8099  -16.9028   22.1934 N   0  0  0  0  0  0  0  0  0  0  0  0
    7.4990  -16.0655   23.1385 C   0  0  1  0  0  0  0  0  0  0  0  0
    6.6148  -15.9672   24.3639 C   0  0  0  0  0  0  0  0  0  0  0  0
    7.2284  -14.9053   25.2272 C   0  0  0  0  0  0  0  0  0  0  0  0
    7.2630  -13.5981   24.7900 C   0  0  0  0  0  0  0  0  0  0  0  0
    7.8170  -12.5715   25.5577 C   0  0  0  0  0  0  0  0  0  0  0  0
    8.3446  -12.8738   26.7889 C   0  0  0  0  0  0  0  0  0  0  0  0
    8.3093  -14.1816   27.2247 C   0  0  0  0  0  0  0  0  0  0  0  0
    7.7592  -15.1938   26.4596 C   0  0  0  0  0  0  0  0  0  0  0  0
    8.8368  -16.6669   23.5259 C   0  0  0  0  0  0  0  0  0  0  0  0
    8.8009  -17.7526   24.1237 O   0  0  0  0  0  0  0  0  0  0  0  0
   10.0374  -16.0325   23.2243 N   0  0  0  0  0  0  0  0  0  0  0  0
   11.3410  -16.3754   23.6384 C   0  0  1  0  0  0  0  0  0  0  0  0
   12.4982  -15.7545   22.8846 C   0  0  0  0  0  0  0  0  0  0  0  0
   12.4445  -15.9803   21.4214 C   0  0  0  0  0  0  0  0  0  0  0  0
   12.1109  -17.0330   20.8635 O   0  0  0  0  0  0  0  0  0  0  0  0
   11.5900  -16.4631   25.0637 C   0  0  0  0  0  0  0  0  0  0  0  0
   12.7084  -16.9572   25.4684 O   0  0  0  0  0  0  0  0  0  0  0  0
   12.8093  -14.8851   20.6298 O   0  0  0  0  0  0  0  0  0  0  0  0
   11.7423  -15.2027   30.3675 N   0  0  0  0  0  0  0  0  0  0  0  0
   10.4462  -15.4936   29.7858 C   0  0  0  0  0  0  0  0  0  0  0  0
    9.6055  -15.9055   30.6208 O   0  0  0  0  0  0  0  0  0  0  0  0
   10.2115  -15.3015   28.3479 C   0  0  0  0  0  0  0  0  0  0  0  0
   11.0790  -16.2242   27.5329 C   0  0  2  0  0  0  0  0  0  0  0  0
   10.7185  -16.0557   26.0980 N   0  0  0  0  0  0  0  0  0  0  0  0
   10.9091  -17.6619   27.8855 C   0  0  0  0  0  0  0  0  0  0  0  0
   11.3732  -18.2424   28.8739 O   0  0  0  0  0  0  0  0  0  0  0  0
   10.1440  -18.4621   27.0159 O   0  0  0  0  0  0  0  0  0  0  0  0
  2  1  1  6
  2  3  1  0
  2 10  1  0
  4  9  2  0
  4  3  1  0
  5  4  1  0
  6  7  1  0
  6  5  2  0
  7  8  2  0
  8  9  1  0
 10 11  2  0
 12 10  1  0
 12 13  1  0
 13 14  1  1
 14 15  1  0
 15 19  1  0
 15 16  2  0
 17 13  1  0
 17 18  2  0
 20 21  1  0
 21 23  1  0
 21 22  2  0
 24 23  1  1
 24 25  1  0
 25 17  1  0
 26 24  1  0
 26 28  1  0
 27 26  2  0
M  END
$$$$
