AFR.pdb
     RDKit          3D

 28 28  0  0  1  0  0  0  0  0999 V2000
   27.1753  -23.7935  -19.8154 C   0  0  0  0  0  0  0  0  0  0  0  0
   27.1425  -22.6392  -18.8564 C   0  0  2  0  0  0  0  0  0  0  0  0
   28.4506  -22.1813  -18.5049 N   0  0  0  0  0  0  0  0  0  0  0  0
   26.3420  -23.0520  -17.6683 C   0  0  0  0  0  0  0  0  0  0  0  0
   26.0870  -24.2665  -17.4716 O   0  0  0  0  0  0  0  0  0  0  0  0
   25.8363  -22.1263  -16.7186 N   0  0  0  0  0  0  0  0  0  0  0  0
   25.2146  -22.5008  -15.4635 C   0  0  1  0  0  0  0  0  0  0  0  0
   25.9852  -22.0266  -14.2776 C   0  0  0  0  0  0  0  0  0  0  0  0
   26.5887  -20.6917  -14.4221 C   0  0  0  0  0  0  0  0  0  0  0  0
   25.9091  -19.5712  -13.9730 C   0  0  0  0  0  0  0  0  0  0  0  0
   26.4287  -18.2996  -14.0857 C   0  0  0  0  0  0  0  0  0  0  0  0
   27.6638  -18.0840  -14.6578 C   0  0  0  0  0  0  0  0  0  0  0  0
   28.3530  -19.1889  -15.1099 C   0  0  0  0  0  0  0  0  0  0  0  0
   27.8212  -20.4716  -14.9925 C   0  0  0  0  0  0  0  0  0  0  0  0
   23.8120  -22.0437  -15.4862 C   0  0  0  0  0  0  0  0  0  0  0  0
   23.5003  -20.9903  -16.1081 O   0  0  0  0  0  0  0  0  0  0  0  0
   17.7543  -24.6376  -18.7566 N   0  0  0  0  0  0  0  0  0  0  0  0
   16.8512  -23.7848  -18.0722 C   0  0  0  0  0  0  0  0  0  0  0  0
   15.8237  -23.2318  -18.6439 N   0  0  0  0  0  0  0  0  0  0  0  0
   17.0655  -23.5087  -16.6920 N   0  0  0  0  0  0  0  0  0  0  0  0
   18.1685  -24.1013  -15.9384 C   0  0  0  0  0  0  0  0  0  0  0  0
   19.0519  -22.9807  -15.4838 C   0  0  0  0  0  0  0  0  0  0  0  0
   20.4748  -23.3558  -15.2674 C   0  0  0  0  0  0  0  0  0  0  0  0
   21.3742  -22.1962  -14.8779 C   0  0  2  0  0  0  0  0  0  0  0  0
   22.7320  -22.7176  -14.8425 N   0  0  0  0  0  0  0  0  0  0  0  0
   20.9557  -21.5828  -13.6071 C   0  0  0  0  0  0  0  0  0  0  0  0
   20.1216  -20.4772  -13.6460 O   0  0  0  0  0  0  0  0  0  0  0  0
   21.3088  -21.9994  -12.4836 O   0  0  0  0  0  0  0  0  0  0  0  0
  2  1  1  6
  2  3  1  0
  4  5  2  0
  4  2  1  0
  6  4  1  0
  7  6  1  0
  7  8  1  1
  9 14  2  0
  9  8  1  0
 10  9  1  0
 11 12  1  0
 11 10  2  0
 12 13  2  0
 13 14  1  0
 15 16  2  0
 15  7  1  0
 17 18  1  0
 18 19  2  0
 20 21  1  0
 20 18  1  0
 21 22  1  0
 22 23  1  0
 24 23  1  1
 24 25  1  0
 25 15  1  0
 26 24  1  0
 27 26  1  0
 28 26  2  0
M  END
$$$$
