AFR.pdb
     RDKit          3D

 28 28  0  0  1  0  0  0  0  0999 V2000
   21.4361  -17.2663  -20.0931 C   0  0  0  0  0  0  0  0  0  0  0  0
   22.8034  -17.1112  -19.4931 C   0  0  2  0  0  0  0  0  0  0  0  0
   23.2846  -18.3225  -18.9053 N   0  0  0  0  0  0  0  0  0  0  0  0
   22.7521  -15.9834  -18.5194 C   0  0  0  0  0  0  0  0  0  0  0  0
   22.0445  -16.0756  -17.4853 O   0  0  0  0  0  0  0  0  0  0  0  0
   23.4772  -14.7762  -18.6973 N   0  0  0  0  0  0  0  0  0  0  0  0
   23.5061  -13.6912  -17.7362 C   0  0  1  0  0  0  0  0  0  0  0  0
   24.8933  -13.3140  -17.3382 C   0  0  0  0  0  0  0  0  0  0  0  0
   25.6482  -14.3685  -16.6413 C   0  0  0  0  0  0  0  0  0  0  0  0
   26.5428  -15.1599  -17.3431 C   0  0  0  0  0  0  0  0  0  0  0  0
   27.2725  -16.1609  -16.7389 C   0  0  0  0  0  0  0  0  0  0  0  0
   27.1427  -16.4221  -15.3920 C   0  0  0  0  0  0  0  0  0  0  0  0
   26.2562  -15.6433  -14.6794 C   0  0  0  0  0  0  0  0  0  0  0  0
   25.5217  -14.6329  -15.2972 C   0  0  0  0  0  0  0  0  0  0  0  0
   22.7146  -12.5703  -18.2783 C   0  0  0  0  0  0  0  0  0  0  0  0
   22.9388  -12.1442  -19.4453 O   0  0  0  0  0  0  0  0  0  0  0  0
   14.5566  -12.5714  -18.1715 N   0  0  0  0  0  0  0  0  0  0  0  0
   15.2196  -12.6952  -16.9240 C   0  0  0  0  0  0  0  0  0  0  0  0
   14.6244  -13.0903  -15.8387 N   0  0  0  0  0  0  0  0  0  0  0  0
   16.6040  -12.3741  -16.8371 N   0  0  0  0  0  0  0  0  0  0  0  0
   17.4043  -12.0405  -18.0136 C   0  0  0  0  0  0  0  0  0  0  0  0
   18.7349  -11.5562  -17.5261 C   0  0  0  0  0  0  0  0  0  0  0  0
   19.6691  -11.1152  -18.5961 C   0  0  0  0  0  0  0  0  0  0  0  0
   21.0408  -10.6992  -18.0953 C   0  0  2  0  0  0  0  0  0  0  0  0
   21.6730  -11.9000  -17.5708 N   0  0  0  0  0  0  0  0  0  0  0  0
   20.9554   -9.6109  -17.1081 C   0  0  0  0  0  0  0  0  0  0  0  0
   21.3495   -9.8642  -15.8042 O   0  0  0  0  0  0  0  0  0  0  0  0
   20.5452   -8.4611  -17.3733 O   0  0  0  0  0  0  0  0  0  0  0  0
  2  1  1  1
  2  3  1  0
  4  5  2  0
  4  2  1  0
  6  4  1  0
  7  6  1  0
  7  8  1  6
  9 14  2  0
  9  8  1  0
 10  9  1  0
 11 12  1  0
 11 10  2  0
 12 13  2  0
 13 14  1  0
 15 16  2  0
 15  7  1  0
 17 18  1  0
 18 19  2  0
 20 21  1  0
 20 18  1  0
 21 22  1  0
 22 23  1  0
 24 23  1  1
 24 25  1  0
 25 15  1  0
 26 24  1  0
 27 26  1  0
 28 26  2  0
M  END
$$$$
