AFR.pdb
     RDKit          3D

 28 28  0  0  1  0  0  0  0  0999 V2000
   22.3595  -22.4677   -8.1010 C   0  0  0  0  0  0  0  0  0  0  0  0
   23.0107  -21.7299   -6.9674 C   0  0  2  0  0  0  0  0  0  0  0  0
   22.0657  -21.0294   -6.1546 N   0  0  0  0  0  0  0  0  0  0  0  0
   24.0497  -20.8288   -7.5429 C   0  0  0  0  0  0  0  0  0  0  0  0
   23.7872  -19.6183   -7.7534 O   0  0  0  0  0  0  0  0  0  0  0  0
   25.3565  -21.2712   -7.8766 N   0  0  0  0  0  0  0  0  0  0  0  0
   26.4063  -20.4095   -8.3837 C   0  0  1  0  0  0  0  0  0  0  0  0
   27.7406  -20.7237   -7.7956 C   0  0  0  0  0  0  0  0  0  0  0  0
   28.0255  -20.0611   -6.5122 C   0  0  0  0  0  0  0  0  0  0  0  0
   28.6078  -20.7749   -5.4776 C   0  0  0  0  0  0  0  0  0  0  0  0
   28.8935  -20.2026   -4.2567 C   0  0  0  0  0  0  0  0  0  0  0  0
   28.6088  -18.8773   -4.0083 C   0  0  0  0  0  0  0  0  0  0  0  0
   28.0291  -18.1530   -5.0279 C   0  0  0  0  0  0  0  0  0  0  0  0
   27.7430  -18.7386   -6.2597 C   0  0  0  0  0  0  0  0  0  0  0  0
   26.3763  -20.4604   -9.8578 C   0  0  0  0  0  0  0  0  0  0  0  0
   27.2412  -19.8326  -10.5299 O   0  0  0  0  0  0  0  0  0  0  0  0
   24.0504  -25.9795  -14.6312 N   0  0  0  0  0  0  0  0  0  0  0  0
   24.3689  -25.2846  -15.8258 C   0  0  0  0  0  0  0  0  0  0  0  0
   24.6714  -25.8842  -16.9380 N   0  0  0  0  0  0  0  0  0  0  0  0
   24.3631  -23.8607  -15.8248 N   0  0  0  0  0  0  0  0  0  0  0  0
   24.1156  -23.0809  -14.6139 C   0  0  0  0  0  0  0  0  0  0  0  0
   25.4482  -22.6834  -14.0584 C   0  0  0  0  0  0  0  0  0  0  0  0
   25.4929  -22.5507  -12.5776 C   0  0  0  0  0  0  0  0  0  0  0  0
   25.3849  -21.1220  -12.0750 C   0  0  2  0  0  0  0  0  0  0  0  0
   25.4175  -21.1895  -10.6220 N   0  0  0  0  0  0  0  0  0  0  0  0
   24.1850  -20.4482  -12.5970 C   0  0  0  0  0  0  0  0  0  0  0  0
   24.2305  -19.9015  -13.8693 O   0  0  0  0  0  0  0  0  0  0  0  0
   23.1168  -20.3357  -11.9591 O   0  0  0  0  0  0  0  0  0  0  0  0
  2  1  1  6
  2  3  1  0
  4  5  2  0
  4  2  1  0
  6  4  1  0
  7  6  1  0
  7  8  1  1
  9 14  2  0
  9  8  1  0
 10  9  1  0
 11 12  1  0
 11 10  2  0
 12 13  2  0
 13 14  1  0
 15 16  2  0
 15  7  1  0
 17 18  1  0
 18 19  2  0
 20 21  1  0
 20 18  1  0
 21 22  1  0
 22 23  1  0
 24 23  1  6
 24 25  1  0
 25 15  1  0
 26 24  1  0
 27 26  1  0
 28 26  2  0
M  END
$$$$
