AFR.pdb
     RDKit          3D

 28 28  0  0  1  0  0  0  0  0999 V2000
   27.3618  -21.7084  -17.8100 C   0  0  0  0  0  0  0  0  0  0  0  0
   28.2819  -21.8493  -16.6324 C   0  0  2  0  0  0  0  0  0  0  0  0
   29.2282  -22.9081  -16.7997 N   0  0  0  0  0  0  0  0  0  0  0  0
   27.4428  -22.0190  -15.4119 C   0  0  0  0  0  0  0  0  0  0  0  0
   26.9959  -23.1532  -15.1073 O   0  0  0  0  0  0  0  0  0  0  0  0
   27.1094  -20.9430  -14.5484 N   0  0  0  0  0  0  0  0  0  0  0  0
   26.4265  -21.0957  -13.2787 C   0  0  1  0  0  0  0  0  0  0  0  0
   26.9897  -20.2148  -12.2147 C   0  0  0  0  0  0  0  0  0  0  0  0
   28.2515  -20.6865  -11.6210 C   0  0  0  0  0  0  0  0  0  0  0  0
   29.4625  -20.3258  -12.1890 C   0  0  0  0  0  0  0  0  0  0  0  0
   30.6712  -20.7415  -11.6735 C   0  0  0  0  0  0  0  0  0  0  0  0
   30.7292  -21.5450  -10.5554 C   0  0  0  0  0  0  0  0  0  0  0  0
   29.5326  -21.9130   -9.9782 C   0  0  0  0  0  0  0  0  0  0  0  0
   28.3142  -21.4887  -10.5051 C   0  0  0  0  0  0  0  0  0  0  0  0
   24.9805  -20.9100  -13.5045 C   0  0  0  0  0  0  0  0  0  0  0  0
   24.5710  -19.9690  -14.2397 O   0  0  0  0  0  0  0  0  0  0  0  0
   19.5253  -27.0758  -14.5274 N   0  0  0  0  0  0  0  0  0  0  0  0
   19.7618  -26.4582  -13.2728 C   0  0  0  0  0  0  0  0  0  0  0  0
   19.6319  -27.0793  -12.1389 N   0  0  0  0  0  0  0  0  0  0  0  0
   20.1605  -25.0919  -13.2343 N   0  0  0  0  0  0  0  0  0  0  0  0
   19.9702  -24.1899  -14.3682 C   0  0  0  0  0  0  0  0  0  0  0  0
   20.5417  -22.8605  -13.9824 C   0  0  0  0  0  0  0  0  0  0  0  0
   21.9842  -22.8823  -13.6207 C   0  0  0  0  0  0  0  0  0  0  0  0
   22.5540  -21.5266  -13.2428 C   0  0  2  0  0  0  0  0  0  0  0  0
   23.9622  -21.7368  -12.9438 N   0  0  0  0  0  0  0  0  0  0  0  0
   21.8109  -20.9120  -12.1309 C   0  0  0  0  0  0  0  0  0  0  0  0
   20.5747  -20.3436  -12.3918 O   0  0  0  0  0  0  0  0  0  0  0  0
   22.2284  -20.8691  -10.9543 O   0  0  0  0  0  0  0  0  0  0  0  0
  2  1  1  6
  2  3  1  0
  4  5  2  0
  4  2  1  0
  6  4  1  0
  7  6  1  0
  7  8  1  1
  9 14  2  0
  9  8  1  0
 10  9  1  0
 11 12  1  0
 11 10  2  0
 12 13  2  0
 13 14  1  0
 15 16  2  0
 15  7  1  0
 17 18  1  0
 18 19  2  0
 20 21  1  0
 20 18  1  0
 21 22  1  0
 22 23  1  0
 24 23  1  1
 24 25  1  0
 25 15  1  0
 26 24  1  0
 27 26  1  0
 28 26  2  0
M  END
$$$$
