AFR.pdb
     RDKit          3D

 28 28  0  0  1  0  0  0  0  0999 V2000
   16.7380  -24.2476   -7.9245 C   0  0  0  0  0  0  0  0  0  0  0  0
   18.0445  -24.8979   -7.5731 C   0  0  2  0  0  0  0  0  0  0  0  0
   18.6632  -25.5277   -8.6978 N   0  0  0  0  0  0  0  0  0  0  0  0
   17.7978  -25.8465   -6.4499 C   0  0  0  0  0  0  0  0  0  0  0  0
   17.1215  -26.8879   -6.6418 O   0  0  0  0  0  0  0  0  0  0  0  0
   18.2966  -25.6360   -5.1378 N   0  0  0  0  0  0  0  0  0  0  0  0
   18.2378  -26.6190   -4.0738 C   0  0  1  0  0  0  0  0  0  0  0  0
   19.3910  -26.5162   -3.1333 C   0  0  0  0  0  0  0  0  0  0  0  0
   19.3673  -27.4726   -2.0143 C   0  0  0  0  0  0  0  0  0  0  0  0
   19.7520  -28.7877   -2.2179 C   0  0  0  0  0  0  0  0  0  0  0  0
   19.7465  -29.7225   -1.2051 C   0  0  0  0  0  0  0  0  0  0  0  0
   19.3529  -29.3855    0.0718 C   0  0  0  0  0  0  0  0  0  0  0  0
   18.9669  -28.0803    0.2910 C   0  0  0  0  0  0  0  0  0  0  0  0
   18.9751  -27.1407   -0.7381 C   0  0  0  0  0  0  0  0  0  0  0  0
   16.9207  -26.5139   -3.4176 C   0  0  0  0  0  0  0  0  0  0  0  0
   16.4498  -25.3803   -3.1228 O   0  0  0  0  0  0  0  0  0  0  0  0
    9.5821  -26.4509   -5.5818 N   0  0  0  0  0  0  0  0  0  0  0  0
   10.0011  -27.7768   -5.8606 C   0  0  0  0  0  0  0  0  0  0  0  0
    9.4700  -28.5088   -6.7936 N   0  0  0  0  0  0  0  0  0  0  0  0
   11.0522  -28.3506   -5.0905 N   0  0  0  0  0  0  0  0  0  0  0  0
   11.3121  -27.9572   -3.7072 C   0  0  0  0  0  0  0  0  0  0  0  0
   12.6485  -27.2818   -3.6785 C   0  0  0  0  0  0  0  0  0  0  0  0
   13.7792  -28.1527   -3.2599 C   0  0  0  0  0  0  0  0  0  0  0  0
   14.8194  -27.4559   -2.4009 C   0  0  2  0  0  0  0  0  0  0  0  0
   16.0971  -27.6272   -3.0753 N   0  0  0  0  0  0  0  0  0  0  0  0
   14.8197  -27.9669   -1.0206 C   0  0  0  0  0  0  0  0  0  0  0  0
   13.7829  -27.6022   -0.1770 O   0  0  0  0  0  0  0  0  0  0  0  0
   15.7049  -28.7159   -0.5558 O   0  0  0  0  0  0  0  0  0  0  0  0
  2  1  1  6
  2  3  1  0
  4  5  2  0
  4  2  1  0
  6  4  1  0
  7  6  1  0
  7  8  1  1
  9 14  2  0
  9  8  1  0
 10  9  1  0
 11 12  1  0
 11 10  2  0
 12 13  2  0
 13 14  1  0
 15 16  2  0
 15  7  1  0
 17 18  1  0
 18 19  2  0
 20 21  1  0
 20 18  1  0
 21 22  1  0
 22 23  1  0
 24 23  1  6
 24 25  1  0
 25 15  1  0
 26 24  1  0
 27 26  1  0
 28 26  2  0
M  END
$$$$
