AFR.pdb
     RDKit          3D

 28 28  0  0  1  0  0  0  0  0999 V2000
   22.5266  -22.9099   -7.0735 C   0  0  0  0  0  0  0  0  0  0  0  0
   22.8018  -21.5986   -6.3965 C   0  0  2  0  0  0  0  0  0  0  0  0
   21.6070  -20.8638   -6.1189 N   0  0  0  0  0  0  0  0  0  0  0  0
   23.7590  -20.8349   -7.2468 C   0  0  0  0  0  0  0  0  0  0  0  0
   23.3552  -19.8624   -7.9323 O   0  0  0  0  0  0  0  0  0  0  0  0
   25.1401  -21.1513   -7.3299 N   0  0  0  0  0  0  0  0  0  0  0  0
   26.0922  -20.4424   -8.1623 C   0  0  1  0  0  0  0  0  0  0  0  0
   27.4838  -20.5127   -7.6298 C   0  0  0  0  0  0  0  0  0  0  0  0
   27.6811  -19.8699   -6.3201 C   0  0  0  0  0  0  0  0  0  0  0  0
   28.2020  -18.5882   -6.2484 C   0  0  0  0  0  0  0  0  0  0  0  0
   28.4077  -17.9424   -5.0483 C   0  0  0  0  0  0  0  0  0  0  0  0
   28.1001  -18.5513   -3.8509 C   0  0  0  0  0  0  0  0  0  0  0  0
   27.5809  -19.8272   -3.9052 C   0  0  0  0  0  0  0  0  0  0  0  0
   27.3757  -20.4739   -5.1224 C   0  0  0  0  0  0  0  0  0  0  0  0
   25.9564  -20.9362   -9.5458 C   0  0  0  0  0  0  0  0  0  0  0  0
   25.3892  -22.0415   -9.7699 O   0  0  0  0  0  0  0  0  0  0  0  0
   21.6039  -20.6124  -15.4367 N   0  0  0  0  0  0  0  0  0  0  0  0
   20.9365  -21.2159  -14.3405 C   0  0  0  0  0  0  0  0  0  0  0  0
   20.1015  -22.2027  -14.4724 N   0  0  0  0  0  0  0  0  0  0  0  0
   21.1799  -20.7295  -13.0247 N   0  0  0  0  0  0  0  0  0  0  0  0
   22.0366  -19.5746  -12.7643 C   0  0  0  0  0  0  0  0  0  0  0  0
   23.4534  -20.0142  -12.9689 C   0  0  0  0  0  0  0  0  0  0  0  0
   24.3191  -19.9119  -11.7637 C   0  0  0  0  0  0  0  0  0  0  0  0
   25.7546  -20.3536  -11.9864 C   0  0  2  0  0  0  0  0  0  0  0  0
   26.4269  -20.2438  -10.7009 N   0  0  0  0  0  0  0  0  0  0  0  0
   26.4076  -19.5739  -13.0503 C   0  0  0  0  0  0  0  0  0  0  0  0
   26.8755  -18.3044  -12.7519 O   0  0  0  0  0  0  0  0  0  0  0  0
   26.5682  -19.9877  -14.2180 O   0  0  0  0  0  0  0  0  0  0  0  0
  2  1  1  6
  2  3  1  0
  4  5  2  0
  4  2  1  0
  6  4  1  0
  7  6  1  0
  7  8  1  1
  9 14  2  0
  9  8  1  0
 10  9  1  0
 11 12  1  0
 11 10  2  0
 12 13  2  0
 13 14  1  0
 15 16  2  0
 15  7  1  0
 17 18  1  0
 18 19  2  0
 20 21  1  0
 20 18  1  0
 21 22  1  0
 22 23  1  0
 24 23  1  1
 24 25  1  0
 25 15  1  0
 26 24  1  0
 27 26  1  0
 28 26  2  0
M  END
$$$$
