AFR.pdb
     RDKit          3D

 28 28  0  0  1  0  0  0  0  0999 V2000
   25.8351  -19.1784  -20.0956 C   0  0  0  0  0  0  0  0  0  0  0  0
   25.0825  -18.9015  -18.8267 C   0  0  2  0  0  0  0  0  0  0  0  0
   24.7833  -17.5134  -18.6587 N   0  0  0  0  0  0  0  0  0  0  0  0
   25.8743  -19.4577  -17.6925 C   0  0  0  0  0  0  0  0  0  0  0  0
   26.1793  -20.6764  -17.6752 O   0  0  0  0  0  0  0  0  0  0  0  0
   26.3167  -18.6681  -16.5992 N   0  0  0  0  0  0  0  0  0  0  0  0
   27.0763  -19.1805  -15.4757 C   0  0  1  0  0  0  0  0  0  0  0  0
   28.3372  -18.4190  -15.2406 C   0  0  0  0  0  0  0  0  0  0  0  0
   29.3049  -18.4619  -16.3492 C   0  0  0  0  0  0  0  0  0  0  0  0
   30.1850  -19.5259  -16.4604 C   0  0  0  0  0  0  0  0  0  0  0  0
   31.1108  -19.6134  -17.4776 C   0  0  0  0  0  0  0  0  0  0  0  0
   31.2029  -18.6331  -18.4419 C   0  0  0  0  0  0  0  0  0  0  0  0
   30.3340  -17.5673  -18.3453 C   0  0  0  0  0  0  0  0  0  0  0  0
   29.4005  -17.4858  -17.3139 C   0  0  0  0  0  0  0  0  0  0  0  0
   26.1854  -19.2381  -14.3012 C   0  0  0  0  0  0  0  0  0  0  0  0
   25.2673  -18.3830  -14.1614 O   0  0  0  0  0  0  0  0  0  0  0  0
   19.6697  -23.6210  -12.4292 N   0  0  0  0  0  0  0  0  0  0  0  0
   19.3986  -22.2685  -12.0996 C   0  0  0  0  0  0  0  0  0  0  0  0
   18.2937  -21.8819  -11.5358 N   0  0  0  0  0  0  0  0  0  0  0  0
   20.3720  -21.2722  -12.3946 N   0  0  0  0  0  0  0  0  0  0  0  0
   21.5621  -21.5547  -13.1944 C   0  0  0  0  0  0  0  0  0  0  0  0
   22.7530  -21.1496  -12.3818 C   0  0  0  0  0  0  0  0  0  0  0  0
   23.9719  -20.8354  -13.1741 C   0  0  0  0  0  0  0  0  0  0  0  0
   25.1783  -20.4487  -12.3373 C   0  0  2  0  0  0  0  0  0  0  0  0
   26.2725  -20.2179  -13.2681 N   0  0  0  0  0  0  0  0  0  0  0  0
   25.4875  -21.4670  -11.3206 C   0  0  0  0  0  0  0  0  0  0  0  0
   25.1048  -21.2345  -10.0095 O   0  0  0  0  0  0  0  0  0  0  0  0
   26.0800  -22.5389  -11.5668 O   0  0  0  0  0  0  0  0  0  0  0  0
  2  1  1  6
  2  3  1  0
  4  5  2  0
  4  2  1  0
  6  4  1  0
  7  6  1  0
  7  8  1  1
  9 14  2  0
  9  8  1  0
 10  9  1  0
 11 12  1  0
 11 10  2  0
 12 13  2  0
 13 14  1  0
 15 16  2  0
 15  7  1  0
 17 18  1  0
 18 19  2  0
 20 21  1  0
 20 18  1  0
 21 22  1  0
 22 23  1  0
 24 23  1  6
 24 25  1  0
 25 15  1  0
 26 24  1  0
 27 26  1  0
 28 26  2  0
M  END
$$$$
