AFR.pdb
     RDKit          3D

 28 28  0  0  1  0  0  0  0  0999 V2000
   22.5732  -22.2994   -9.1908 C   0  0  0  0  0  0  0  0  0  0  0  0
   23.1853  -21.5344   -8.0534 C   0  0  2  0  0  0  0  0  0  0  0  0
   22.2543  -20.6507   -7.4234 N   0  0  0  0  0  0  0  0  0  0  0  0
   24.3881  -20.8232   -8.5730 C   0  0  0  0  0  0  0  0  0  0  0  0
   24.2728  -19.6813   -9.0842 O   0  0  0  0  0  0  0  0  0  0  0  0
   25.6941  -21.3767   -8.5225 N   0  0  0  0  0  0  0  0  0  0  0  0
   26.8808  -20.7185   -9.0327 C   0  0  1  0  0  0  0  0  0  0  0  0
   28.0936  -21.0062   -8.2133 C   0  0  0  0  0  0  0  0  0  0  0  0
   28.1266  -20.3445   -6.8987 C   0  0  0  0  0  0  0  0  0  0  0  0
   27.7895  -19.0053   -6.7879 C   0  0  0  0  0  0  0  0  0  0  0  0
   27.8056  -18.3386   -5.5818 C   0  0  0  0  0  0  0  0  0  0  0  0
   28.1624  -18.9834   -4.4173 C   0  0  0  0  0  0  0  0  0  0  0  0
   28.5007  -20.3165   -4.5106 C   0  0  0  0  0  0  0  0  0  0  0  0
   28.4821  -20.9840   -5.7337 C   0  0  0  0  0  0  0  0  0  0  0  0
   27.0272  -21.0664  -10.4589 C   0  0  0  0  0  0  0  0  0  0  0  0
   26.7704  -22.2377  -10.8537 O   0  0  0  0  0  0  0  0  0  0  0  0
   23.5875  -18.4812  -16.3725 N   0  0  0  0  0  0  0  0  0  0  0  0
   23.1243  -19.7784  -16.7104 C   0  0  0  0  0  0  0  0  0  0  0  0
   22.7111  -20.0982  -17.9000 N   0  0  0  0  0  0  0  0  0  0  0  0
   23.1027  -20.7916  -15.7103 N   0  0  0  0  0  0  0  0  0  0  0  0
   23.4833  -20.5297  -14.3239 C   0  0  0  0  0  0  0  0  0  0  0  0
   24.9791  -20.4771  -14.2736 C   0  0  0  0  0  0  0  0  0  0  0  0
   25.5539  -20.3542  -12.9073 C   0  0  0  0  0  0  0  0  0  0  0  0
   27.0716  -20.3359  -12.8674 C   0  0  2  0  0  0  0  0  0  0  0  0
   27.4482  -20.1564  -11.4736 N   0  0  0  0  0  0  0  0  0  0  0  0
   27.6293  -19.3035  -13.7559 C   0  0  0  0  0  0  0  0  0  0  0  0
   27.9874  -18.0810  -13.2111 O   0  0  0  0  0  0  0  0  0  0  0  0
   27.8017  -19.4604  -14.9832 O   0  0  0  0  0  0  0  0  0  0  0  0
  2  1  1  6
  2  3  1  0
  4  5  2  0
  4  2  1  0
  6  4  1  0
  7  6  1  0
  7  8  1  1
  9 14  2  0
  9  8  1  0
 10  9  1  0
 11 12  1  0
 11 10  2  0
 12 13  2  0
 13 14  1  0
 15 16  2  0
 15  7  1  0
 17 18  1  0
 18 19  2  0
 20 21  1  0
 20 18  1  0
 21 22  1  0
 22 23  1  0
 24 23  1  1
 24 25  1  0
 25 15  1  0
 26 24  1  0
 27 26  1  0
 28 26  2  0
M  END
$$$$
