AFR.pdb
     RDKit          3D

 28 28  0  0  1  0  0  0  0  0999 V2000
   22.2116  -22.4544   -9.2046 C   0  0  0  0  0  0  0  0  0  0  0  0
   22.7266  -21.8243   -7.9433 C   0  0  2  0  0  0  0  0  0  0  0  0
   21.7189  -21.0845   -7.2491 N   0  0  0  0  0  0  0  0  0  0  0  0
   23.9089  -20.9881   -8.2974 C   0  0  0  0  0  0  0  0  0  0  0  0
   23.7629  -19.7663   -8.5518 O   0  0  0  0  0  0  0  0  0  0  0  0
   25.2285  -21.5063   -8.3660 N   0  0  0  0  0  0  0  0  0  0  0  0
   26.4028  -20.7135   -8.6729 C   0  0  1  0  0  0  0  0  0  0  0  0
   27.5902  -21.1090   -7.8612 C   0  0  0  0  0  0  0  0  0  0  0  0
   27.8889  -20.2226   -6.7244 C   0  0  0  0  0  0  0  0  0  0  0  0
   28.7204  -20.6580   -5.7056 C   0  0  0  0  0  0  0  0  0  0  0  0
   29.0304  -19.8686   -4.6191 C   0  0  0  0  0  0  0  0  0  0  0  0
   28.5199  -18.5944   -4.4968 C   0  0  0  0  0  0  0  0  0  0  0  0
   27.6904  -18.1462   -5.5025 C   0  0  0  0  0  0  0  0  0  0  0  0
   27.3815  -18.9501   -6.5981 C   0  0  0  0  0  0  0  0  0  0  0  0
   26.6305  -20.7665  -10.1295 C   0  0  0  0  0  0  0  0  0  0  0  0
   27.5543  -21.4873  -10.5993 O   0  0  0  0  0  0  0  0  0  0  0  0
   24.8452  -23.5159  -16.9986 N   0  0  0  0  0  0  0  0  0  0  0  0
   24.9003  -24.6950  -16.2126 C   0  0  0  0  0  0  0  0  0  0  0  0
   25.0899  -25.8774  -16.7169 N   0  0  0  0  0  0  0  0  0  0  0  0
   24.7410  -24.5981  -14.8011 N   0  0  0  0  0  0  0  0  0  0  0  0
   24.2497  -23.3847  -14.1514 C   0  0  0  0  0  0  0  0  0  0  0  0
   25.4352  -22.5090  -13.8858 C   0  0  0  0  0  0  0  0  0  0  0  0
   25.4806  -21.9165  -12.5223 C   0  0  0  0  0  0  0  0  0  0  0  0
   25.8325  -20.4397  -12.4945 C   0  0  2  0  0  0  0  0  0  0  0  0
   25.8644  -20.0469  -11.0940 N   0  0  0  0  0  0  0  0  0  0  0  0
   24.8958  -19.6393  -13.2996 C   0  0  0  0  0  0  0  0  0  0  0  0
   23.7921  -19.0813  -12.6752 O   0  0  0  0  0  0  0  0  0  0  0  0
   25.0335  -19.4292  -14.5233 O   0  0  0  0  0  0  0  0  0  0  0  0
  2  1  1  6
  2  3  1  0
  4  5  2  0
  4  2  1  0
  6  4  1  0
  7  6  1  0
  7  8  1  1
  9 14  2  0
  9  8  1  0
 10  9  1  0
 11 12  1  0
 11 10  2  0
 12 13  2  0
 13 14  1  0
 15 16  2  0
 15  7  1  0
 17 18  1  0
 18 19  2  0
 20 21  1  0
 20 18  1  0
 21 22  1  0
 22 23  1  0
 24 23  1  1
 24 25  1  0
 25 15  1  0
 26 24  1  0
 27 26  1  0
 28 26  2  0
M  END
$$$$
