AFR.pdb
     RDKit          3D

 28 28  0  0  1  0  0  0  0  0999 V2000
   27.8061  -20.6039  -17.3384 C   0  0  0  0  0  0  0  0  0  0  0  0
   28.5240  -21.2350  -16.1810 C   0  0  2  0  0  0  0  0  0  0  0  0
   29.2836  -22.3831  -16.5673 N   0  0  0  0  0  0  0  0  0  0  0  0
   27.5148  -21.5440  -15.1281 C   0  0  0  0  0  0  0  0  0  0  0  0
   27.0918  -22.7186  -14.9863 O   0  0  0  0  0  0  0  0  0  0  0  0
   26.9883  -20.5603  -14.2507 N   0  0  0  0  0  0  0  0  0  0  0  0
   26.1618  -20.8533  -13.0963 C   0  0  1  0  0  0  0  0  0  0  0  0
   26.3812  -19.8940  -11.9752 C   0  0  0  0  0  0  0  0  0  0  0  0
   26.9701  -20.4818  -10.7608 C   0  0  0  0  0  0  0  0  0  0  0  0
   28.2709  -20.9578  -10.7816 C   0  0  0  0  0  0  0  0  0  0  0  0
   28.8685  -21.5182   -9.6732 C   0  0  0  0  0  0  0  0  0  0  0  0
   28.1891  -21.6313   -8.4795 C   0  0  0  0  0  0  0  0  0  0  0  0
   26.8933  -21.1623   -8.4424 C   0  0  0  0  0  0  0  0  0  0  0  0
   26.2958  -20.5969   -9.5671 C   0  0  0  0  0  0  0  0  0  0  0  0
   24.7579  -20.9410  -13.5412 C   0  0  0  0  0  0  0  0  0  0  0  0
   24.2717  -20.0412  -14.2813 O   0  0  0  0  0  0  0  0  0  0  0  0
   20.0745  -26.2880  -16.1574 N   0  0  0  0  0  0  0  0  0  0  0  0
   21.0448  -26.6097  -15.1744 C   0  0  0  0  0  0  0  0  0  0  0  0
   21.9654  -27.5094  -15.3517 N   0  0  0  0  0  0  0  0  0  0  0  0
   21.0239  -25.9249  -13.9262 N   0  0  0  0  0  0  0  0  0  0  0  0
   19.9828  -24.9588  -13.5820 C   0  0  0  0  0  0  0  0  0  0  0  0
   20.5369  -23.5925  -13.8441 C   0  0  0  0  0  0  0  0  0  0  0  0
   21.9486  -23.3990  -13.4176 C   0  0  0  0  0  0  0  0  0  0  0  0
   22.4674  -21.9836  -13.5989 C   0  0  2  0  0  0  0  0  0  0  0  0
   23.8655  -21.9991  -13.1964 N   0  0  0  0  0  0  0  0  0  0  0  0
   21.6602  -21.0056  -12.8518 C   0  0  0  0  0  0  0  0  0  0  0  0
   20.6654  -20.3137  -13.5235 O   0  0  0  0  0  0  0  0  0  0  0  0
   21.8168  -20.7562  -11.6377 O   0  0  0  0  0  0  0  0  0  0  0  0
  2  1  1  6
  2  3  1  0
  4  5  2  0
  4  2  1  0
  6  4  1  0
  7  6  1  0
  7  8  1  1
  9 14  2  0
  9  8  1  0
 10  9  1  0
 11 12  1  0
 11 10  2  0
 12 13  2  0
 13 14  1  0
 15 16  2  0
 15  7  1  0
 17 18  1  0
 18 19  2  0
 20 21  1  0
 20 18  1  0
 21 22  1  0
 22 23  1  0
 24 23  1  1
 24 25  1  0
 25 15  1  0
 26 24  1  0
 27 26  1  0
 28 26  2  0
M  END
$$$$
