AFR.pdb
     RDKit          3D

 28 28  0  0  1  0  0  0  0  0999 V2000
   29.3935  -22.5015  -13.4203 C   0  0  0  0  0  0  0  0  0  0  0  0
   28.7969  -21.2314  -12.8873 C   0  0  2  0  0  0  0  0  0  0  0  0
   29.6504  -20.1009  -13.0823 N   0  0  0  0  0  0  0  0  0  0  0  0
   28.4563  -21.4508  -11.4526 C   0  0  0  0  0  0  0  0  0  0  0  0
   27.6649  -22.3706  -11.1266 O   0  0  0  0  0  0  0  0  0  0  0  0
   28.9892  -20.6583  -10.4026 N   0  0  0  0  0  0  0  0  0  0  0  0
   28.5334  -20.7104   -9.0274 C   0  0  1  0  0  0  0  0  0  0  0  0
   29.4822  -20.0520   -8.0831 C   0  0  0  0  0  0  0  0  0  0  0  0
   28.9628  -19.8505   -6.7204 C   0  0  0  0  0  0  0  0  0  0  0  0
   28.4381  -18.6221   -6.3531 C   0  0  0  0  0  0  0  0  0  0  0  0
   27.9409  -18.3809   -5.0905 C   0  0  0  0  0  0  0  0  0  0  0  0
   27.9437  -19.3643   -4.1250 C   0  0  0  0  0  0  0  0  0  0  0  0
   28.4627  -20.5926   -4.4747 C   0  0  0  0  0  0  0  0  0  0  0  0
   28.9638  -20.8290   -5.7534 C   0  0  0  0  0  0  0  0  0  0  0  0
   27.1627  -20.1675   -8.9722 C   0  0  0  0  0  0  0  0  0  0  0  0
   26.9191  -19.0176   -9.4327 O   0  0  0  0  0  0  0  0  0  0  0  0
   20.7577  -19.6819  -13.2131 N   0  0  0  0  0  0  0  0  0  0  0  0
   22.0036  -19.1568  -13.6413 C   0  0  0  0  0  0  0  0  0  0  0  0
   22.1087  -18.1716  -14.4819 N   0  0  0  0  0  0  0  0  0  0  0  0
   23.2080  -19.7248  -13.1373 N   0  0  0  0  0  0  0  0  0  0  0  0
   23.2335  -21.0048  -12.4326 C   0  0  0  0  0  0  0  0  0  0  0  0
   23.2938  -20.7063  -10.9664 C   0  0  0  0  0  0  0  0  0  0  0  0
   24.6376  -20.8710  -10.3505 C   0  0  0  0  0  0  0  0  0  0  0  0
   24.6820  -20.5797   -8.8610 C   0  0  2  0  0  0  0  0  0  0  0  0
   26.0414  -20.8581   -8.4239 N   0  0  0  0  0  0  0  0  0  0  0  0
   23.6671  -21.3490   -8.1231 C   0  0  0  0  0  0  0  0  0  0  0  0
   22.3536  -20.9085   -8.1453 O   0  0  0  0  0  0  0  0  0  0  0  0
   23.9170  -22.3844   -7.4704 O   0  0  0  0  0  0  0  0  0  0  0  0
  2  1  1  1
  2  3  1  0
  4  5  2  0
  4  2  1  0
  6  4  1  0
  7  6  1  0
  7  8  1  1
  9 14  2  0
  9  8  1  0
 10  9  1  0
 11 12  1  0
 11 10  2  0
 12 13  2  0
 13 14  1  0
 15 16  2  0
 15  7  1  0
 17 18  1  0
 18 19  2  0
 20 21  1  0
 20 18  1  0
 21 22  1  0
 22 23  1  0
 24 23  1  6
 24 25  1  0
 25 15  1  0
 26 24  1  0
 27 26  1  0
 28 26  2  0
M  END
$$$$
