AFR.pdb
     RDKit          3D

 28 28  0  0  1  0  0  0  0  0999 V2000
   27.6691  -17.6031  -14.6008 C   0  0  0  0  0  0  0  0  0  0  0  0
   28.3901  -18.9015  -14.3822 C   0  0  2  0  0  0  0  0  0  0  0  0
   28.8575  -19.4812  -15.6029 N   0  0  0  0  0  0  0  0  0  0  0  0
   27.4804  -19.8105  -13.6282 C   0  0  0  0  0  0  0  0  0  0  0  0
   26.7702  -20.6439  -14.2444 O   0  0  0  0  0  0  0  0  0  0  0  0
   27.3662  -19.7891  -12.2136 N   0  0  0  0  0  0  0  0  0  0  0  0
   26.5249  -20.6880  -11.4480 C   0  0  1  0  0  0  0  0  0  0  0  0
   26.9315  -20.7739  -10.0154 C   0  0  0  0  0  0  0  0  0  0  0  0
   28.3463  -21.1133   -9.7905 C   0  0  0  0  0  0  0  0  0  0  0  0
   28.9856  -20.6909   -8.6365 C   0  0  0  0  0  0  0  0  0  0  0  0
   30.3082  -20.9803   -8.3785 C   0  0  0  0  0  0  0  0  0  0  0  0
   31.0630  -21.7124   -9.2693 C   0  0  0  0  0  0  0  0  0  0  0  0
   30.4414  -22.1403  -10.4229 C   0  0  0  0  0  0  0  0  0  0  0  0
   29.1036  -21.8438  -10.6768 C   0  0  0  0  0  0  0  0  0  0  0  0
   25.1185  -20.2889  -11.6468 C   0  0  0  0  0  0  0  0  0  0  0  0
   24.8449  -19.2269  -12.2721 O   0  0  0  0  0  0  0  0  0  0  0  0
   20.1635  -23.6577  -17.1311 N   0  0  0  0  0  0  0  0  0  0  0  0
   20.3413  -22.2616  -17.3055 C   0  0  0  0  0  0  0  0  0  0  0  0
   19.6783  -21.5640  -18.1786 N   0  0  0  0  0  0  0  0  0  0  0  0
   21.2887  -21.5744  -16.4947 N   0  0  0  0  0  0  0  0  0  0  0  0
   22.1527  -22.2693  -15.5427 C   0  0  0  0  0  0  0  0  0  0  0  0
   21.8640  -21.7076  -14.1849 C   0  0  0  0  0  0  0  0  0  0  0  0
   23.0447  -21.6101  -13.2857 C   0  0  0  0  0  0  0  0  0  0  0  0
   22.7352  -21.0562  -11.9062 C   0  0  2  0  0  0  0  0  0  0  0  0
   23.9940  -21.0303  -11.1772 N   0  0  0  0  0  0  0  0  0  0  0  0
   21.6879  -21.8357  -11.2266 C   0  0  0  0  0  0  0  0  0  0  0  0
   20.4027  -21.3204  -11.1774 O   0  0  0  0  0  0  0  0  0  0  0  0
   21.8859  -22.9437  -10.6848 O   0  0  0  0  0  0  0  0  0  0  0  0
  2  1  1  6
  2  3  1  0
  4  5  2  0
  4  2  1  0
  6  4  1  0
  7  6  1  0
  7  8  1  1
  9 14  2  0
  9  8  1  0
 10  9  1  0
 11 12  1  0
 11 10  2  0
 12 13  2  0
 13 14  1  0
 15 16  2  0
 15  7  1  0
 17 18  1  0
 18 19  2  0
 20 21  1  0
 20 18  1  0
 21 22  1  0
 22 23  1  0
 24 23  1  6
 24 25  1  0
 25 15  1  0
 26 24  1  0
 27 26  1  0
 28 26  2  0
M  END
$$$$
