SDW.pdb
     RDKit          3D

 29 30  0  0  1  0  0  0  0  0999 V2000
   28.5486  -19.2668  -15.7000 O   0  0  0  0  0  0  0  0  0  0  0  0
   28.8677  -20.5010  -15.1073 C   0  0  0  0  0  0  0  0  0  0  0  0
   27.6118  -21.3262  -14.9088 C   0  0  2  0  0  0  0  0  0  0  0  0
   26.9050  -21.4620  -16.1919 N   0  0  0  0  0  0  0  0  0  0  0  0
   26.6716  -20.6864  -13.9767 C   0  0  0  0  0  0  0  0  0  0  0  0
   26.0679  -19.5907  -14.2425 O   0  0  0  0  0  0  0  0  0  0  0  0
   26.3422  -21.2253  -12.6869 N   0  0  0  0  0  0  0  0  0  0  0  0
   25.3011  -20.6701  -11.8648 C   0  0  1  0  0  0  0  0  0  0  0  0
   23.9066  -20.8944  -12.3791 C   0  0  0  0  0  0  0  0  0  0  0  0
   23.6167  -19.9784  -13.4684 C   0  0  0  0  0  0  0  0  0  0  0  0
   23.6884  -18.7304  -13.2606 O   0  0  0  0  0  0  0  0  0  0  0  0
   25.3287  -21.2763  -10.4827 C   0  0  0  0  0  0  0  0  0  0  0  0
   25.5577  -22.5006  -10.3224 O   0  0  0  0  0  0  0  0  0  0  0  0
   23.2593  -20.3705  -14.7446 O   0  0  0  0  0  0  0  0  0  0  0  0
   25.0997  -20.4964   -9.3202 N   0  0  0  0  0  0  0  0  0  0  0  0
   24.9729  -21.0746   -7.9971 C   0  0  1  0  0  0  0  0  0  0  0  0
   25.3220  -20.0802   -6.9124 C   0  0  0  0  0  0  0  0  0  0  0  0
   26.7681  -19.7490   -6.9210 C   0  0  0  0  0  0  0  0  0  0  0  0
   27.5056  -19.2780   -7.9864 C   0  0  0  0  0  0  0  0  0  0  0  0
   28.7774  -19.0954   -7.5960 N   0  0  0  0  0  0  0  0  0  0  0  0
   28.9189  -19.4295   -6.2998 C   0  0  0  0  0  0  0  0  0  0  0  0
   30.0022  -19.4280   -5.4255 C   0  0  0  0  0  0  0  0  0  0  0  0
   29.8235  -19.8387   -4.1222 C   0  0  0  0  0  0  0  0  0  0  0  0
   28.5835  -20.2485   -3.6831 C   0  0  0  0  0  0  0  0  0  0  0  0
   27.5010  -20.2496   -4.5579 C   0  0  0  0  0  0  0  0  0  0  0  0
   27.6748  -19.8385   -5.8666 C   0  0  0  0  0  0  0  0  0  0  0  0
   23.6250  -21.6532   -7.7969 C   0  0  0  0  0  0  0  0  0  0  0  0
   23.3304  -22.4980   -6.7466 O   0  0  0  0  0  0  0  0  0  0  0  0
   22.7198  -21.3649   -8.6112 O   0  0  0  0  0  0  0  0  0  0  0  0
  2  1  1  0
  3  2  1  0
  3  4  1  6
  5  7  1  0
  5  3  1  0
  6  5  2  0
  8  9  1  6
  8  7  1  0
 10 14  1  0
 10  9  1  0
 11 10  2  0
 12  8  1  0
 12 13  2  0
 15 12  1  0
 16 15  1  0
 16 27  1  0
 16 17  1  1
 18 17  1  0
 19 18  2  0
 20 19  1  0
 21 26  2  0
 21 20  1  0
 22 21  1  0
 23 22  2  0
 23 24  1  0
 24 25  2  0
 25 26  1  0
 26 18  1  0
 27 29  2  0
 27 28  1  0
M  END
$$$$
