SDW.pdb
     RDKit          3D

 29 30  0  0  1  0  0  0  0  0999 V2000
   20.8232   -6.1722  -22.2904 O   0  0  0  0  0  0  0  0  0  0  0  0
   21.2765   -5.0073  -22.9336 C   0  0  0  0  0  0  0  0  0  0  0  0
   22.6985   -4.6960  -22.5110 C   0  0  2  0  0  0  0  0  0  0  0  0
   23.5272   -5.9041  -22.6468 N   0  0  0  0  0  0  0  0  0  0  0  0
   22.7792   -4.2873  -21.1009 C   0  0  0  0  0  0  0  0  0  0  0  0
   23.8396   -4.4218  -20.3986 O   0  0  0  0  0  0  0  0  0  0  0  0
   21.6837   -3.7016  -20.3803 N   0  0  0  0  0  0  0  0  0  0  0  0
   21.8262   -3.1976  -19.0410 C   0  0  1  0  0  0  0  0  0  0  0  0
   21.3301   -1.7929  -18.8415 C   0  0  0  0  0  0  0  0  0  0  0  0
   21.7164   -1.3025  -17.5300 C   0  0  0  0  0  0  0  0  0  0  0  0
   22.8944   -1.5151  -17.1142 O   0  0  0  0  0  0  0  0  0  0  0  0
   21.0509   -4.0469  -18.0633 C   0  0  0  0  0  0  0  0  0  0  0  0
   19.8925   -4.4470  -18.3373 O   0  0  0  0  0  0  0  0  0  0  0  0
   20.8794   -0.6059  -16.6789 O   0  0  0  0  0  0  0  0  0  0  0  0
   21.5930   -4.4243  -16.8079 N   0  0  0  0  0  0  0  0  0  0  0  0
   20.9013   -5.3009  -15.8836 C   0  0  1  0  0  0  0  0  0  0  0  0
   21.8601   -6.2015  -15.1376 C   0  0  0  0  0  0  0  0  0  0  0  0
   21.1397   -7.2299  -14.3473 C   0  0  0  0  0  0  0  0  0  0  0  0
   20.5396   -7.0620  -13.1175 C   0  0  0  0  0  0  0  0  0  0  0  0
   19.9889   -8.2248  -12.7332 N   0  0  0  0  0  0  0  0  0  0  0  0
   20.2000   -9.1710  -13.6669 C   0  0  0  0  0  0  0  0  0  0  0  0
   19.8496  -10.5149  -13.7618 C   0  0  0  0  0  0  0  0  0  0  0  0
   20.2231  -11.2372  -14.8743 C   0  0  0  0  0  0  0  0  0  0  0  0
   20.9384  -10.6379  -15.8881 C   0  0  0  0  0  0  0  0  0  0  0  0
   21.2883   -9.2942  -15.7924 C   0  0  0  0  0  0  0  0  0  0  0  0
   20.9160   -8.5649  -14.6783 C   0  0  0  0  0  0  0  0  0  0  0  0
   20.0438   -4.5267  -14.9578 C   0  0  0  0  0  0  0  0  0  0  0  0
   18.7251   -4.8558  -14.7202 O   0  0  0  0  0  0  0  0  0  0  0  0
   20.5340   -3.5372  -14.3694 O   0  0  0  0  0  0  0  0  0  0  0  0
  2  1  1  0
  3  2  1  0
  3  4  1  1
  5  7  1  0
  5  3  1  0
  6  5  2  0
  8  9  1  6
  8  7  1  0
 10 14  1  0
 10  9  1  0
 11 10  2  0
 12  8  1  0
 12 13  2  0
 15 12  1  0
 16 15  1  0
 16 27  1  0
 16 17  1  1
 18 17  1  0
 19 18  2  0
 20 19  1  0
 21 26  2  0
 21 20  1  0
 22 21  1  0
 23 22  2  0
 23 24  1  0
 24 25  2  0
 25 26  1  0
 26 18  1  0
 27 29  2  0
 27 28  1  0
M  END
$$$$
