SDW.pdb
     RDKit          3D

 29 30  0  0  1  0  0  0  0  0999 V2000
   26.9219  -18.2003  -16.6855 O   0  0  0  0  0  0  0  0  0  0  0  0
   27.8248  -19.1966  -16.2752 C   0  0  0  0  0  0  0  0  0  0  0  0
   27.5808  -20.4755  -17.0514 C   0  0  2  0  0  0  0  0  0  0  0  0
   27.6277  -20.1912  -18.4943 N   0  0  0  0  0  0  0  0  0  0  0  0
   26.2523  -21.0432  -16.7779 C   0  0  0  0  0  0  0  0  0  0  0  0
   25.2440  -20.8495  -17.5405 O   0  0  0  0  0  0  0  0  0  0  0  0
   25.9597  -21.8643  -15.6366 N   0  0  0  0  0  0  0  0  0  0  0  0
   24.6525  -22.4152  -15.4006 C   0  0  1  0  0  0  0  0  0  0  0  0
   24.6466  -23.7350  -14.6815 C   0  0  0  0  0  0  0  0  0  0  0  0
   25.1184  -24.7910  -15.5602 C   0  0  0  0  0  0  0  0  0  0  0  0
   25.3631  -24.5204  -16.7737 O   0  0  0  0  0  0  0  0  0  0  0  0
   23.8236  -21.4835  -14.5503 C   0  0  0  0  0  0  0  0  0  0  0  0
   24.3649  -20.7459  -13.6901 O   0  0  0  0  0  0  0  0  0  0  0  0
   25.3257  -26.0998  -15.1673 O   0  0  0  0  0  0  0  0  0  0  0  0
   22.4139  -21.4033  -14.6864 N   0  0  0  0  0  0  0  0  0  0  0  0
   21.6228  -20.3533  -14.0756 C   0  0  1  0  0  0  0  0  0  0  0  0
   22.0509  -18.9808  -14.5449 C   0  0  0  0  0  0  0  0  0  0  0  0
   21.8511  -18.8170  -16.0058 C   0  0  0  0  0  0  0  0  0  0  0  0
   20.7339  -19.1646  -16.7351 C   0  0  0  0  0  0  0  0  0  0  0  0
   20.9361  -18.8552  -18.0260 N   0  0  0  0  0  0  0  0  0  0  0  0
   22.1559  -18.3098  -18.1884 C   0  0  0  0  0  0  0  0  0  0  0  0
   22.8465  -17.8260  -19.2961 C   0  0  0  0  0  0  0  0  0  0  0  0
   24.1166  -17.3161  -19.1350 C   0  0  0  0  0  0  0  0  0  0  0  0
   24.7029  -17.2834  -17.8885 C   0  0  0  0  0  0  0  0  0  0  0  0
   24.0117  -17.7674  -16.7817 C   0  0  0  0  0  0  0  0  0  0  0  0
   22.7370  -18.2800  -16.9377 C   0  0  0  0  0  0  0  0  0  0  0  0
   20.1768  -20.5813  -14.2954 C   0  0  0  0  0  0  0  0  0  0  0  0
   19.2057  -19.7988  -13.7051 O   0  0  0  0  0  0  0  0  0  0  0  0
   19.8227  -21.5190  -15.0445 O   0  0  0  0  0  0  0  0  0  0  0  0
  2  1  1  0
  3  2  1  0
  3  4  1  6
  5  7  1  0
  5  3  1  0
  6  5  2  0
  8  9  1  1
  8  7  1  0
 10 14  1  0
 10  9  1  0
 11 10  2  0
 12  8  1  0
 12 13  2  0
 15 12  1  0
 16 15  1  0
 16 27  1  0
 16 17  1  6
 18 17  1  0
 19 18  2  0
 20 19  1  0
 21 26  2  0
 21 20  1  0
 22 21  1  0
 23 22  2  0
 23 24  1  0
 24 25  2  0
 25 26  1  0
 26 18  1  0
 27 29  2  0
 27 28  1  0
M  END
$$$$
