SDW.pdb
     RDKit          3D

 29 30  0  0  1  0  0  0  0  0999 V2000
   21.1836  -12.6348  -19.5038 O   0  0  0  0  0  0  0  0  0  0  0  0
   21.8023  -11.6141  -18.7612 C   0  0  0  0  0  0  0  0  0  0  0  0
   22.8066  -10.8753  -19.6232 C   0  0  2  0  0  0  0  0  0  0  0  0
   24.0938  -11.5875  -19.5982 N   0  0  0  0  0  0  0  0  0  0  0  0
   23.0683   -9.5165  -19.1258 C   0  0  0  0  0  0  0  0  0  0  0  0
   23.8522   -9.2755  -18.1444 O   0  0  0  0  0  0  0  0  0  0  0  0
   22.4738   -8.3368  -19.6890 N   0  0  0  0  0  0  0  0  0  0  0  0
   22.7043   -7.0255  -19.1459 C   0  0  1  0  0  0  0  0  0  0  0  0
   22.3365   -5.8918  -20.0617 C   0  0  0  0  0  0  0  0  0  0  0  0
   22.7803   -4.6267  -19.5027 C   0  0  0  0  0  0  0  0  0  0  0  0
   22.1535   -3.5666  -19.8013 O   0  0  0  0  0  0  0  0  0  0  0  0
   21.8934   -6.8151  -17.8903 C   0  0  0  0  0  0  0  0  0  0  0  0
   20.6474   -6.9715  -17.8962 O   0  0  0  0  0  0  0  0  0  0  0  0
   23.8593   -4.4848  -18.6507 O   0  0  0  0  0  0  0  0  0  0  0  0
   22.4988   -6.4363  -16.6647 N   0  0  0  0  0  0  0  0  0  0  0  0
   21.7399   -6.1964  -15.4532 C   0  0  1  0  0  0  0  0  0  0  0  0
   22.1625   -7.1195  -14.3322 C   0  0  0  0  0  0  0  0  0  0  0  0
   22.0921   -8.5435  -14.7424 C   0  0  0  0  0  0  0  0  0  0  0  0
   23.1500   -9.4097  -14.9197 C   0  0  0  0  0  0  0  0  0  0  0  0
   22.6787  -10.6118  -15.2885 N   0  0  0  0  0  0  0  0  0  0  0  0
   21.3352  -10.5815  -15.3652 C   0  0  0  0  0  0  0  0  0  0  0  0
   20.3753  -11.5340  -15.6954 C   0  0  0  0  0  0  0  0  0  0  0  0
   19.0418  -11.1869  -15.6830 C   0  0  0  0  0  0  0  0  0  0  0  0
   18.6565   -9.9074  -15.3467 C   0  0  0  0  0  0  0  0  0  0  0  0
   19.6169   -8.9558  -15.0167 C   0  0  0  0  0  0  0  0  0  0  0  0
   20.9563   -9.2988  -15.0275 C   0  0  0  0  0  0  0  0  0  0  0  0
   21.8175   -4.7740  -15.0505 C   0  0  0  0  0  0  0  0  0  0  0  0
   22.5697   -3.8482  -15.7438 O   0  0  0  0  0  0  0  0  0  0  0  0
   21.1768   -4.3981  -14.0436 O   0  0  0  0  0  0  0  0  0  0  0  0
  2  1  1  0
  3  2  1  0
  3  4  1  1
  5  7  1  0
  5  3  1  0
  6  5  2  0
  8  9  1  6
  8  7  1  0
 10 14  1  0
 10  9  1  0
 11 10  2  0
 12  8  1  0
 12 13  2  0
 15 12  1  0
 16 15  1  0
 16 27  1  0
 16 17  1  1
 18 17  1  0
 19 18  2  0
 20 19  1  0
 21 26  2  0
 21 20  1  0
 22 21  1  0
 23 22  2  0
 23 24  1  0
 24 25  2  0
 25 26  1  0
 26 18  1  0
 27 29  2  0
 27 28  1  0
M  END
$$$$
