SDW.pdb
     RDKit          3D

 29 30  0  0  1  0  0  0  0  0999 V2000
   27.5183  -24.5552  -18.1371 O   0  0  0  0  0  0  0  0  0  0  0  0
   27.5046  -23.4567  -19.0143 C   0  0  0  0  0  0  0  0  0  0  0  0
   28.6699  -22.5344  -18.7158 C   0  0  2  0  0  0  0  0  0  0  0  0
   29.9216  -23.1620  -19.1674 N   0  0  0  0  0  0  0  0  0  0  0  0
   28.8214  -22.2837  -17.2749 C   0  0  0  0  0  0  0  0  0  0  0  0
   29.9590  -22.1142  -16.7155 O   0  0  0  0  0  0  0  0  0  0  0  0
   27.7153  -22.2052  -16.3622 N   0  0  0  0  0  0  0  0  0  0  0  0
   27.5709  -21.1285  -15.4201 C   0  0  1  0  0  0  0  0  0  0  0  0
   27.5687  -19.7548  -16.0302 C   0  0  0  0  0  0  0  0  0  0  0  0
   27.5442  -18.7406  -14.9908 C   0  0  0  0  0  0  0  0  0  0  0  0
   28.5472  -18.6164  -14.2263 O   0  0  0  0  0  0  0  0  0  0  0  0
   26.2661  -21.2439  -14.6700 C   0  0  0  0  0  0  0  0  0  0  0  0
   25.2647  -20.5692  -15.0150 O   0  0  0  0  0  0  0  0  0  0  0  0
   26.4869  -17.8799  -14.7639 O   0  0  0  0  0  0  0  0  0  0  0  0
   26.1187  -22.1100  -13.5564 N   0  0  0  0  0  0  0  0  0  0  0  0
   25.7938  -21.6336  -12.2264 C   0  0  1  0  0  0  0  0  0  0  0  0
   27.0050  -21.0666  -11.5202 C   0  0  0  0  0  0  0  0  0  0  0  0
   26.6752  -20.6213  -10.1441 C   0  0  0  0  0  0  0  0  0  0  0  0
   25.4576  -20.1609   -9.6898 C   0  0  0  0  0  0  0  0  0  0  0  0
   25.5587  -19.8603   -8.3850 N   0  0  0  0  0  0  0  0  0  0  0  0
   26.8077  -20.1041   -7.9466 C   0  0  0  0  0  0  0  0  0  0  0  0
   27.4296  -19.9674   -6.7086 C   0  0  0  0  0  0  0  0  0  0  0  0
   28.7577  -20.3096   -6.5743 C   0  0  0  0  0  0  0  0  0  0  0  0
   29.4691  -20.7841   -7.6547 C   0  0  0  0  0  0  0  0  0  0  0  0
   28.8466  -20.9205   -8.8920 C   0  0  0  0  0  0  0  0  0  0  0  0
   27.5141  -20.5787   -9.0322 C   0  0  0  0  0  0  0  0  0  0  0  0
   24.6786  -20.6610  -12.2682 C   0  0  0  0  0  0  0  0  0  0  0  0
   24.7745  -19.4523  -12.9267 O   0  0  0  0  0  0  0  0  0  0  0  0
   23.6094  -20.9465  -11.6842 O   0  0  0  0  0  0  0  0  0  0  0  0
  2  1  1  0
  3  2  1  0
  3  4  1  1
  5  7  1  0
  5  3  1  0
  6  5  2  0
  8  9  1  6
  8  7  1  0
 10 14  1  0
 10  9  1  0
 11 10  2  0
 12  8  1  0
 12 13  2  0
 15 12  1  0
 16 15  1  0
 16 27  1  0
 16 17  1  6
 18 17  1  0
 19 18  2  0
 20 19  1  0
 21 26  2  0
 21 20  1  0
 22 21  1  0
 23 22  2  0
 23 24  1  0
 24 25  2  0
 25 26  1  0
 26 18  1  0
 27 29  2  0
 27 28  1  0
M  END
$$$$
