SDW.pdb
     RDKit          3D

 29 30  0  0  1  0  0  0  0  0999 V2000
   14.9250   -9.7249  -17.3295 O   0  0  0  0  0  0  0  0  0  0  0  0
   14.9859  -10.8616  -16.5045 C   0  0  0  0  0  0  0  0  0  0  0  0
   16.4260  -11.2962  -16.3183 C   0  0  2  0  0  0  0  0  0  0  0  0
   16.4769  -12.4526  -15.4100 N   0  0  0  0  0  0  0  0  0  0  0  0
   17.2464  -10.2422  -15.7031 C   0  0  0  0  0  0  0  0  0  0  0  0
   17.0782   -9.8455  -14.4989 O   0  0  0  0  0  0  0  0  0  0  0  0
   18.3081   -9.5608  -16.3892 N   0  0  0  0  0  0  0  0  0  0  0  0
   18.9653   -8.4075  -15.8361 C   0  0  1  0  0  0  0  0  0  0  0  0
   20.4655   -8.4356  -15.9245 C   0  0  0  0  0  0  0  0  0  0  0  0
   21.0305   -7.2535  -15.2976 C   0  0  0  0  0  0  0  0  0  0  0  0
   21.3335   -6.2574  -16.0200 O   0  0  0  0  0  0  0  0  0  0  0  0
   18.5377   -7.1508  -16.5546 C   0  0  0  0  0  0  0  0  0  0  0  0
   18.0703   -7.2037  -17.7189 O   0  0  0  0  0  0  0  0  0  0  0  0
   21.2703   -7.1269  -13.9424 O   0  0  0  0  0  0  0  0  0  0  0  0
   18.6448   -5.8718  -15.9506 N   0  0  0  0  0  0  0  0  0  0  0  0
   18.1216   -4.6663  -16.5625 C   0  0  1  0  0  0  0  0  0  0  0  0
   16.7089   -4.8587  -17.0668 C   0  0  0  0  0  0  0  0  0  0  0  0
   16.2041   -3.6435  -17.7518 C   0  0  0  0  0  0  0  0  0  0  0  0
   16.7720   -3.0034  -18.8329 C   0  0  0  0  0  0  0  0  0  0  0  0
   16.0167   -1.9440  -19.1648 N   0  0  0  0  0  0  0  0  0  0  0  0
   14.9571   -1.8509  -18.3399 C   0  0  0  0  0  0  0  0  0  0  0  0
   13.8922   -0.9589  -18.2492 C   0  0  0  0  0  0  0  0  0  0  0  0
   12.9412   -1.1343  -17.2676 C   0  0  0  0  0  0  0  0  0  0  0  0
   13.0393   -2.1836  -16.3799 C   0  0  0  0  0  0  0  0  0  0  0  0
   14.1043   -3.0749  -16.4713 C   0  0  0  0  0  0  0  0  0  0  0  0
   15.0613   -2.9035  -17.4545 C   0  0  0  0  0  0  0  0  0  0  0  0
   18.2213   -3.5147  -15.6376 C   0  0  0  0  0  0  0  0  0  0  0  0
   18.5153   -2.2389  -16.0730 O   0  0  0  0  0  0  0  0  0  0  0  0
   18.0319   -3.7064  -14.4157 O   0  0  0  0  0  0  0  0  0  0  0  0
  2  1  1  0
  3  2  1  0
  3  4  1  1
  5  7  1  0
  5  3  1  0
  6  5  2  0
  8  9  1  6
  8  7  1  0
 10 14  1  0
 10  9  1  0
 11 10  2  0
 12  8  1  0
 12 13  2  0
 15 12  1  0
 16 15  1  0
 16 27  1  0
 16 17  1  1
 18 17  1  0
 19 18  2  0
 20 19  1  0
 21 26  2  0
 21 20  1  0
 22 21  1  0
 23 22  2  0
 23 24  1  0
 24 25  2  0
 25 26  1  0
 26 18  1  0
 27 29  2  0
 27 28  1  0
M  END
$$$$
