SDW.pdb
     RDKit          3D

 29 30  0  0  1  0  0  0  0  0999 V2000
   29.1314  -23.0589  -15.4326 O   0  0  0  0  0  0  0  0  0  0  0  0
   28.2541  -22.7883  -16.4972 C   0  0  0  0  0  0  0  0  0  0  0  0
   28.0782  -21.2919  -16.6626 C   0  0  2  0  0  0  0  0  0  0  0  0
   29.3762  -20.6766  -16.9810 N   0  0  0  0  0  0  0  0  0  0  0  0
   27.6012  -20.6515  -15.4279 C   0  0  0  0  0  0  0  0  0  0  0  0
   28.3122  -19.8310  -14.7519 O   0  0  0  0  0  0  0  0  0  0  0  0
   26.3005  -20.8832  -14.8650 N   0  0  0  0  0  0  0  0  0  0  0  0
   25.8249  -20.1713  -13.7096 C   0  0  1  0  0  0  0  0  0  0  0  0
   24.4376  -19.6086  -13.8445 C   0  0  0  0  0  0  0  0  0  0  0  0
   24.4411  -18.4662  -14.7415 C   0  0  0  0  0  0  0  0  0  0  0  0
   23.8348  -18.5511  -15.8509 O   0  0  0  0  0  0  0  0  0  0  0  0
   25.7825  -21.0762  -12.5022 C   0  0  0  0  0  0  0  0  0  0  0  0
   25.1620  -22.1675  -12.5385 O   0  0  0  0  0  0  0  0  0  0  0  0
   25.0698  -17.2648  -14.4738 O   0  0  0  0  0  0  0  0  0  0  0  0
   26.4349  -20.7351  -11.2897 N   0  0  0  0  0  0  0  0  0  0  0  0
   26.3311  -21.5381  -10.0874 C   0  0  1  0  0  0  0  0  0  0  0  0
   27.5887  -21.4639   -9.2507 C   0  0  0  0  0  0  0  0  0  0  0  0
   27.4737  -20.4406   -8.1827 C   0  0  0  0  0  0  0  0  0  0  0  0
   26.6067  -19.3690   -8.1495 C   0  0  0  0  0  0  0  0  0  0  0  0
   26.8048  -18.6765   -7.0162 N   0  0  0  0  0  0  0  0  0  0  0  0
   27.7792  -19.2490   -6.2851 C   0  0  0  0  0  0  0  0  0  0  0  0
   28.3604  -18.9398   -5.0585 C   0  0  0  0  0  0  0  0  0  0  0  0
   29.3657  -19.7411   -4.5622 C   0  0  0  0  0  0  0  0  0  0  0  0
   29.7957  -20.8415   -5.2712 C   0  0  0  0  0  0  0  0  0  0  0  0
   29.2140  -21.1499   -6.4974 C   0  0  0  0  0  0  0  0  0  0  0  0
   28.2049  -20.3492   -7.0000 C   0  0  0  0  0  0  0  0  0  0  0  0
   25.1296  -21.1702   -9.3047 C   0  0  0  0  0  0  0  0  0  0  0  0
   24.6546  -21.9473   -8.2683 O   0  0  0  0  0  0  0  0  0  0  0  0
   24.5228  -20.1151   -9.5947 O   0  0  0  0  0  0  0  0  0  0  0  0
  2  1  1  0
  3  2  1  0
  3  4  1  1
  5  7  1  0
  5  3  1  0
  6  5  2  0
  8  9  1  6
  8  7  1  0
 10 14  1  0
 10  9  1  0
 11 10  2  0
 12  8  1  0
 12 13  2  0
 15 12  1  0
 16 15  1  0
 16 27  1  0
 16 17  1  1
 18 17  1  0
 19 18  2  0
 20 19  1  0
 21 26  2  0
 21 20  1  0
 22 21  1  0
 23 22  2  0
 23 24  1  0
 24 25  2  0
 25 26  1  0
 26 18  1  0
 27 29  2  0
 27 28  1  0
M  END
$$$$
