SDW.pdb
     RDKit          3D

 29 30  0  0  1  0  0  0  0  0999 V2000
   19.0366  -19.3888  -13.4789 O   0  0  0  0  0  0  0  0  0  0  0  0
   19.9130  -20.1823  -12.7184 C   0  0  0  0  0  0  0  0  0  0  0  0
   20.4117  -21.3507  -13.5453 C   0  0  2  0  0  0  0  0  0  0  0  0
   19.4171  -22.4344  -13.5148 N   0  0  0  0  0  0  0  0  0  0  0  0
   21.6615  -21.9121  -13.0115 C   0  0  0  0  0  0  0  0  0  0  0  0
   21.7012  -22.6494  -11.9672 O   0  0  0  0  0  0  0  0  0  0  0  0
   22.9496  -21.6890  -13.6061 N   0  0  0  0  0  0  0  0  0  0  0  0
   24.1664  -22.1656  -13.0060 C   0  0  1  0  0  0  0  0  0  0  0  0
   25.2765  -22.4527  -13.9778 C   0  0  0  0  0  0  0  0  0  0  0  0
   25.1508  -23.8006  -14.5043 C   0  0  0  0  0  0  0  0  0  0  0  0
   24.2136  -24.5424  -14.0833 O   0  0  0  0  0  0  0  0  0  0  0  0
   24.7225  -21.1476  -12.0403 C   0  0  0  0  0  0  0  0  0  0  0  0
   24.6462  -19.9187  -12.2874 O   0  0  0  0  0  0  0  0  0  0  0  0
   25.9941  -24.3514  -15.4507 O   0  0  0  0  0  0  0  0  0  0  0  0
   25.3477  -21.5327  -10.8267 N   0  0  0  0  0  0  0  0  0  0  0  0
   26.0282  -20.5919   -9.9589 C   0  0  1  0  0  0  0  0  0  0  0  0
   26.2080  -21.1431   -8.5621 C   0  0  0  0  0  0  0  0  0  0  0  0
   26.9204  -20.1825   -7.6842 C   0  0  0  0  0  0  0  0  0  0  0  0
   26.9168  -18.8073   -7.7829 C   0  0  0  0  0  0  0  0  0  0  0  0
   27.6775  -18.2929   -6.8033 N   0  0  0  0  0  0  0  0  0  0  0  0
   28.1936  -19.2800   -6.0476 C   0  0  0  0  0  0  0  0  0  0  0  0
   29.0288  -19.2937   -4.9340 C   0  0  0  0  0  0  0  0  0  0  0  0
   29.3903  -20.4985   -4.3711 C   0  0  0  0  0  0  0  0  0  0  0  0
   28.9309  -21.6836   -4.9032 C   0  0  0  0  0  0  0  0  0  0  0  0
   28.0960  -21.6688   -6.0166 C   0  0  0  0  0  0  0  0  0  0  0  0
   27.7301  -20.4627   -6.5853 C   0  0  0  0  0  0  0  0  0  0  0  0
   27.3161  -20.1612  -10.5482 C   0  0  0  0  0  0  0  0  0  0  0  0
   28.1008  -21.0035  -11.3087 O   0  0  0  0  0  0  0  0  0  0  0  0
   27.7070  -18.9894  -10.3486 O   0  0  0  0  0  0  0  0  0  0  0  0
  2  1  1  0
  3  2  1  0
  3  4  1  1
  5  7  1  0
  5  3  1  0
  6  5  2  0
  8  9  1  6
  8  7  1  0
 10 14  1  0
 10  9  1  0
 11 10  2  0
 12  8  1  0
 12 13  2  0
 15 12  1  0
 16 15  1  0
 16 27  1  0
 16 17  1  1
 18 17  1  0
 19 18  2  0
 20 19  1  0
 21 26  2  0
 21 20  1  0
 22 21  1  0
 23 22  2  0
 23 24  1  0
 24 25  2  0
 25 26  1  0
 26 18  1  0
 27 29  2  0
 27 28  1  0
M  END
$$$$
