SDW.pdb
     RDKit          3D

 29 30  0  0  1  0  0  0  0  0999 V2000
   26.6178  -27.6320  -15.5382 O   0  0  0  0  0  0  0  0  0  0  0  0
   26.5161  -27.9189  -16.9106 C   0  0  0  0  0  0  0  0  0  0  0  0
   27.5396  -27.1174  -17.6899 C   0  0  2  0  0  0  0  0  0  0  0  0
   28.8923  -27.4662  -17.2281 N   0  0  0  0  0  0  0  0  0  0  0  0
   27.3843  -25.6702  -17.4808 C   0  0  0  0  0  0  0  0  0  0  0  0
   28.3735  -24.8907  -17.2581 O   0  0  0  0  0  0  0  0  0  0  0  0
   26.1164  -24.9962  -17.5059 N   0  0  0  0  0  0  0  0  0  0  0  0
   26.0045  -23.5654  -17.4161 C   0  0  1  0  0  0  0  0  0  0  0  0
   25.3484  -22.9103  -18.5992 C   0  0  0  0  0  0  0  0  0  0  0  0
   26.0877  -23.2053  -19.8141 C   0  0  0  0  0  0  0  0  0  0  0  0
   25.4635  -23.6484  -20.8239 O   0  0  0  0  0  0  0  0  0  0  0  0
   25.1773  -23.1665  -16.2182 C   0  0  0  0  0  0  0  0  0  0  0  0
   24.2649  -23.9151  -15.7892 O   0  0  0  0  0  0  0  0  0  0  0  0
   27.4520  -23.0374  -19.9586 O   0  0  0  0  0  0  0  0  0  0  0  0
   25.3942  -21.9426  -15.5346 N   0  0  0  0  0  0  0  0  0  0  0  0
   24.7304  -21.6079  -14.2902 C   0  0  1  0  0  0  0  0  0  0  0  0
   25.5077  -20.5823  -13.4959 C   0  0  0  0  0  0  0  0  0  0  0  0
   25.6216  -19.2971  -14.2282 C   0  0  0  0  0  0  0  0  0  0  0  0
   24.7353  -18.2415  -14.1955 C   0  0  0  0  0  0  0  0  0  0  0  0
   25.1909  -17.2584  -14.9886 N   0  0  0  0  0  0  0  0  0  0  0  0
   26.3573  -17.6199  -15.5547 C   0  0  0  0  0  0  0  0  0  0  0  0
   27.2277  -16.9867  -16.4376 C   0  0  0  0  0  0  0  0  0  0  0  0
   28.3730  -17.6358  -16.8448 C   0  0  0  0  0  0  0  0  0  0  0  0
   28.6589  -18.9026  -16.3842 C   0  0  0  0  0  0  0  0  0  0  0  0
   27.7882  -19.5349  -15.5016 C   0  0  0  0  0  0  0  0  0  0  0  0
   26.6375  -18.8880  -15.0898 C   0  0  0  0  0  0  0  0  0  0  0  0
   23.3364  -21.1723  -14.5320 C   0  0  0  0  0  0  0  0  0  0  0  0
   22.4070  -21.0673  -13.5176 O   0  0  0  0  0  0  0  0  0  0  0  0
   22.9888  -20.8890  -15.7001 O   0  0  0  0  0  0  0  0  0  0  0  0
  2  1  1  0
  3  2  1  0
  3  4  1  1
  5  7  1  0
  5  3  1  0
  6  5  2  0
  8  9  1  6
  8  7  1  0
 10 14  1  0
 10  9  1  0
 11 10  2  0
 12  8  1  0
 12 13  2  0
 15 12  1  0
 16 15  1  0
 16 27  1  0
 16 17  1  6
 18 17  1  0
 19 18  2  0
 20 19  1  0
 21 26  2  0
 21 20  1  0
 22 21  1  0
 23 22  2  0
 23 24  1  0
 24 25  2  0
 25 26  1  0
 26 18  1  0
 27 29  2  0
 27 28  1  0
M  END
$$$$
