SDW.pdb
     RDKit          3D

 29 30  0  0  1  0  0  0  0  0999 V2000
   29.7391  -22.9763  -14.8002 O   0  0  0  0  0  0  0  0  0  0  0  0
   28.9764  -23.2714  -15.9436 C   0  0  0  0  0  0  0  0  0  0  0  0
   28.5081  -21.9905  -16.6050 C   0  0  2  0  0  0  0  0  0  0  0  0
   29.6492  -21.3274  -17.2553 N   0  0  0  0  0  0  0  0  0  0  0  0
   27.9644  -21.0323  -15.6311 C   0  0  0  0  0  0  0  0  0  0  0  0
   27.8531  -19.7818  -15.8753 O   0  0  0  0  0  0  0  0  0  0  0  0
   27.5088  -21.4043  -14.3210 N   0  0  0  0  0  0  0  0  0  0  0  0
   26.4608  -20.6926  -13.6406 C   0  0  1  0  0  0  0  0  0  0  0  0
   25.1366  -20.6917  -14.3517 C   0  0  0  0  0  0  0  0  0  0  0  0
   24.5338  -19.3715  -14.2949 C   0  0  0  0  0  0  0  0  0  0  0  0
   24.8567  -18.5079  -15.1643 O   0  0  0  0  0  0  0  0  0  0  0  0
   26.1948  -21.2982  -12.2838 C   0  0  0  0  0  0  0  0  0  0  0  0
   26.8930  -22.2510  -11.8572 O   0  0  0  0  0  0  0  0  0  0  0  0
   23.6139  -18.9731  -13.3434 O   0  0  0  0  0  0  0  0  0  0  0  0
   25.1565  -20.8211  -11.4433 N   0  0  0  0  0  0  0  0  0  0  0  0
   25.1974  -20.9369   -9.9989 C   0  0  1  0  0  0  0  0  0  0  0  0
   26.5048  -20.4319   -9.4307 C   0  0  0  0  0  0  0  0  0  0  0  0
   26.5194  -20.5038   -7.9489 C   0  0  0  0  0  0  0  0  0  0  0  0
   25.5408  -21.0316   -7.1336 C   0  0  0  0  0  0  0  0  0  0  0  0
   25.9244  -20.9150   -5.8520 N   0  0  0  0  0  0  0  0  0  0  0  0
   27.1318  -20.3245   -5.7794 C   0  0  0  0  0  0  0  0  0  0  0  0
   27.9621  -19.9747   -4.7182 C   0  0  0  0  0  0  0  0  0  0  0  0
   29.1706  -19.3641   -4.9742 C   0  0  0  0  0  0  0  0  0  0  0  0
   29.5588  -19.0999   -6.2696 C   0  0  0  0  0  0  0  0  0  0  0  0
   28.7281  -19.4500   -7.3299 C   0  0  0  0  0  0  0  0  0  0  0  0
   27.5143  -20.0628   -7.0786 C   0  0  0  0  0  0  0  0  0  0  0  0
   24.0339  -20.2638   -9.3788 C   0  0  0  0  0  0  0  0  0  0  0  0
   23.3132  -20.8311   -8.3480 O   0  0  0  0  0  0  0  0  0  0  0  0
   23.6918  -19.1386   -9.8060 O   0  0  0  0  0  0  0  0  0  0  0  0
  2  1  1  0
  3  2  1  0
  3  4  1  1
  5  7  1  0
  5  3  1  0
  6  5  2  0
  8  9  1  6
  8  7  1  0
 10 14  1  0
 10  9  1  0
 11 10  2  0
 12  8  1  0
 12 13  2  0
 15 12  1  0
 16 15  1  0
 16 27  1  0
 16 17  1  1
 18 17  1  0
 19 18  2  0
 20 19  1  0
 21 26  2  0
 21 20  1  0
 22 21  1  0
 23 22  2  0
 23 24  1  0
 24 25  2  0
 25 26  1  0
 26 18  1  0
 27 29  2  0
 27 28  1  0
M  END
$$$$
