SDW.pdb
     RDKit          3D

 29 30  0  0  1  0  0  0  0  0999 V2000
   18.5242  -13.2971  -16.1837 O   0  0  0  0  0  0  0  0  0  0  0  0
   18.7825  -11.9794  -15.7674 C   0  0  0  0  0  0  0  0  0  0  0  0
   20.0923  -11.4925  -16.3546 C   0  0  2  0  0  0  0  0  0  0  0  0
   21.1632  -12.4461  -16.0251 N   0  0  0  0  0  0  0  0  0  0  0  0
   20.4993  -10.1942  -15.7970 C   0  0  0  0  0  0  0  0  0  0  0  0
   21.0477  -10.0733  -14.6479 O   0  0  0  0  0  0  0  0  0  0  0  0
   20.3221   -8.9451  -16.4831 N   0  0  0  0  0  0  0  0  0  0  0  0
   20.8237   -7.7029  -15.9603 C   0  0  1  0  0  0  0  0  0  0  0  0
   21.1013   -6.6505  -16.9969 C   0  0  0  0  0  0  0  0  0  0  0  0
   22.1623   -7.0867  -17.8878 C   0  0  0  0  0  0  0  0  0  0  0  0
   21.8585   -7.5627  -19.0223 O   0  0  0  0  0  0  0  0  0  0  0  0
   19.8320   -7.0837  -15.0056 C   0  0  0  0  0  0  0  0  0  0  0  0
   18.6542   -7.5136  -14.9341 O   0  0  0  0  0  0  0  0  0  0  0  0
   23.5099   -7.0226  -17.5878 O   0  0  0  0  0  0  0  0  0  0  0  0
   20.1856   -6.0021  -14.1586 N   0  0  0  0  0  0  0  0  0  0  0  0
   19.2926   -5.4687  -13.1490 C   0  0  1  0  0  0  0  0  0  0  0  0
   18.9351   -6.5066  -12.1088 C   0  0  0  0  0  0  0  0  0  0  0  0
   19.9133   -6.5206  -10.9935 C   0  0  0  0  0  0  0  0  0  0  0  0
   19.9513   -5.6666   -9.9117 C   0  0  0  0  0  0  0  0  0  0  0  0
   20.9819   -6.0037   -9.1198 N   0  0  0  0  0  0  0  0  0  0  0  0
   21.6395   -7.0589   -9.6354 C   0  0  0  0  0  0  0  0  0  0  0  0
   22.7527   -7.7858   -9.2226 C   0  0  0  0  0  0  0  0  0  0  0  0
   23.1969   -8.8414   -9.9890 C   0  0  0  0  0  0  0  0  0  0  0  0
   22.5471   -9.1787  -11.1564 C   0  0  0  0  0  0  0  0  0  0  0  0
   21.4344   -8.4514  -11.5683 C   0  0  0  0  0  0  0  0  0  0  0  0
   20.9844   -7.3913  -10.8030 C   0  0  0  0  0  0  0  0  0  0  0  0
   19.8569   -4.2468  -12.5326 C   0  0  0  0  0  0  0  0  0  0  0  0
   19.0907   -3.3686  -11.7940 O   0  0  0  0  0  0  0  0  0  0  0  0
   21.0741   -4.0019  -12.6877 O   0  0  0  0  0  0  0  0  0  0  0  0
  2  1  1  0
  3  2  1  0
  3  4  1  1
  5  7  1  0
  5  3  1  0
  6  5  2  0
  8  9  1  6
  8  7  1  0
 10 14  1  0
 10  9  1  0
 11 10  2  0
 12  8  1  0
 12 13  2  0
 15 12  1  0
 16 15  1  0
 16 27  1  0
 16 17  1  1
 18 17  1  0
 19 18  2  0
 20 19  1  0
 21 26  2  0
 21 20  1  0
 22 21  1  0
 23 22  2  0
 23 24  1  0
 24 25  2  0
 25 26  1  0
 26 18  1  0
 27 29  2  0
 27 28  1  0
M  END
$$$$
