SDW.pdb
     RDKit          3D

 29 30  0  0  1  0  0  0  0  0999 V2000
   11.8207  -17.2092    1.6787 O   0  0  0  0  0  0  0  0  0  0  0  0
   12.4799  -17.4426    2.8983 C   0  0  0  0  0  0  0  0  0  0  0  0
   11.8712  -18.6397    3.6011 C   0  0  2  0  0  0  0  0  0  0  0  0
   10.4934  -18.3225    4.0082 N   0  0  0  0  0  0  0  0  0  0  0  0
   12.6017  -18.9906    4.8281 C   0  0  0  0  0  0  0  0  0  0  0  0
   12.0338  -19.5099    5.8497 O   0  0  0  0  0  0  0  0  0  0  0  0
   14.0130  -18.7861    4.9976 N   0  0  0  0  0  0  0  0  0  0  0  0
   14.7020  -19.1453    6.2076 C   0  0  1  0  0  0  0  0  0  0  0  0
   14.8550  -20.6241    6.4290 C   0  0  0  0  0  0  0  0  0  0  0  0
   15.4385  -20.8816    7.7341 C   0  0  0  0  0  0  0  0  0  0  0  0
   15.6596  -19.9076    8.5140 O   0  0  0  0  0  0  0  0  0  0  0  0
   16.1035  -18.5847    6.2131 C   0  0  0  0  0  0  0  0  0  0  0  0
   16.9357  -18.9265    5.3370 O   0  0  0  0  0  0  0  0  0  0  0  0
   15.7805  -22.1359    8.2031 O   0  0  0  0  0  0  0  0  0  0  0  0
   16.5337  -17.6585    7.1976 N   0  0  0  0  0  0  0  0  0  0  0  0
   17.1753  -16.4011    6.8680 C   0  0  1  0  0  0  0  0  0  0  0  0
   16.3463  -15.5818    5.9043 C   0  0  0  0  0  0  0  0  0  0  0  0
   17.1120  -14.4292    5.3695 C   0  0  0  0  0  0  0  0  0  0  0  0
   17.1575  -13.1514    5.8855 C   0  0  0  0  0  0  0  0  0  0  0  0
   17.9638  -12.3961    5.1223 N   0  0  0  0  0  0  0  0  0  0  0  0
   18.4627  -13.1264    4.1076 C   0  0  0  0  0  0  0  0  0  0  0  0
   19.3259  -12.8353    3.0549 C   0  0  0  0  0  0  0  0  0  0  0  0
   19.6556  -13.8243    2.1537 C   0  0  0  0  0  0  0  0  0  0  0  0
   19.1371  -15.0937    2.2895 C   0  0  0  0  0  0  0  0  0  0  0  0
   18.2743  -15.3838    3.3422 C   0  0  0  0  0  0  0  0  0  0  0  0
   17.9403  -14.3951    4.2494 C   0  0  0  0  0  0  0  0  0  0  0  0
   17.5074  -15.6372    8.0918 C   0  0  0  0  0  0  0  0  0  0  0  0
   16.5424  -15.1955    8.9735 O   0  0  0  0  0  0  0  0  0  0  0  0
   18.7082  -15.3830    8.3349 O   0  0  0  0  0  0  0  0  0  0  0  0
  2  1  1  0
  3  2  1  0
  3  4  1  1
  5  7  1  0
  5  3  1  0
  6  5  2  0
  8  9  1  6
  8  7  1  0
 10 14  1  0
 10  9  1  0
 11 10  2  0
 12  8  1  0
 12 13  2  0
 15 12  1  0
 16 15  1  0
 16 27  1  0
 16 17  1  6
 18 17  1  0
 19 18  2  0
 20 19  1  0
 21 26  2  0
 21 20  1  0
 22 21  1  0
 23 22  2  0
 23 24  1  0
 24 25  2  0
 25 26  1  0
 26 18  1  0
 27 29  2  0
 27 28  1  0
M  END
$$$$
