SDW.pdb
     RDKit          3D

 29 30  0  0  1  0  0  0  0  0999 V2000
   26.1067  -19.1091  -12.2048 O   0  0  0  0  0  0  0  0  0  0  0  0
   25.8113  -19.7501  -10.9890 C   0  0  0  0  0  0  0  0  0  0  0  0
   25.2137  -21.1182  -11.2506 C   0  0  2  0  0  0  0  0  0  0  0  0
   26.2291  -21.9893  -11.8628 N   0  0  0  0  0  0  0  0  0  0  0  0
   24.0874  -21.0583  -12.1940 C   0  0  0  0  0  0  0  0  0  0  0  0
   24.0559  -21.7310  -13.2813 O   0  0  0  0  0  0  0  0  0  0  0  0
   22.9220  -20.2447  -11.9882 N   0  0  0  0  0  0  0  0  0  0  0  0
   21.8253  -20.2233  -12.9181 C   0  0  1  0  0  0  0  0  0  0  0  0
   20.5177  -19.7620  -12.3379 C   0  0  0  0  0  0  0  0  0  0  0  0
   19.8794  -20.8436  -11.6081 C   0  0  0  0  0  0  0  0  0  0  0  0
   19.2016  -20.5731  -10.5722 O   0  0  0  0  0  0  0  0  0  0  0  0
   22.1147  -19.2878  -14.0668 C   0  0  0  0  0  0  0  0  0  0  0  0
   22.3818  -18.0785  -13.8591 O   0  0  0  0  0  0  0  0  0  0  0  0
   19.9559  -22.1772  -11.9630 O   0  0  0  0  0  0  0  0  0  0  0  0
   22.0971  -19.7314  -15.4140 N   0  0  0  0  0  0  0  0  0  0  0  0
   22.4706  -18.8814  -16.5273 C   0  0  1  0  0  0  0  0  0  0  0  0
   23.8983  -18.3965  -16.4108 C   0  0  0  0  0  0  0  0  0  0  0  0
   24.8496  -19.5274  -16.2807 C   0  0  0  0  0  0  0  0  0  0  0  0
   24.5384  -20.8669  -16.1817 C   0  0  0  0  0  0  0  0  0  0  0  0
   25.6736  -21.5773  -16.0837 N   0  0  0  0  0  0  0  0  0  0  0  0
   26.7403  -20.7568  -16.1135 C   0  0  0  0  0  0  0  0  0  0  0  0
   28.1139  -20.9726  -16.0468 C   0  0  0  0  0  0  0  0  0  0  0  0
   28.9738  -19.8973  -16.1039 C   0  0  0  0  0  0  0  0  0  0  0  0
   28.4822  -18.6159  -16.2261 C   0  0  0  0  0  0  0  0  0  0  0  0
   27.1087  -18.4011  -16.2927 C   0  0  0  0  0  0  0  0  0  0  0  0
   26.2415  -19.4766  -16.2359 C   0  0  0  0  0  0  0  0  0  0  0  0
   22.2262  -19.5606  -17.8197 C   0  0  0  0  0  0  0  0  0  0  0  0
   22.4508  -18.9448  -19.0338 O   0  0  0  0  0  0  0  0  0  0  0  0
   21.7999  -20.7370  -17.8099 O   0  0  0  0  0  0  0  0  0  0  0  0
  2  1  1  0
  3  2  1  0
  3  4  1  6
  5  7  1  0
  5  3  1  0
  6  5  2  0
  8  9  1  1
  8  7  1  0
 10 14  1  0
 10  9  1  0
 11 10  2  0
 12  8  1  0
 12 13  2  0
 15 12  1  0
 16 15  1  0
 16 27  1  0
 16 17  1  1
 18 17  1  0
 19 18  2  0
 20 19  1  0
 21 26  2  0
 21 20  1  0
 22 21  1  0
 23 22  2  0
 23 24  1  0
 24 25  2  0
 25 26  1  0
 26 18  1  0
 27 29  2  0
 27 28  1  0
M  END
$$$$
