SDW.pdb
     RDKit          3D

 29 30  0  0  1  0  0  0  0  0999 V2000
   29.3784  -25.2744  -16.3664 O   0  0  0  0  0  0  0  0  0  0  0  0
   29.8631  -24.1477  -17.0533 C   0  0  0  0  0  0  0  0  0  0  0  0
   30.6203  -23.2415  -16.1030 C   0  0  2  0  0  0  0  0  0  0  0  0
   31.3007  -24.0562  -15.0842 N   0  0  0  0  0  0  0  0  0  0  0  0
   29.7247  -22.3264  -15.3802 C   0  0  0  0  0  0  0  0  0  0  0  0
   29.7937  -22.1414  -14.1165 O   0  0  0  0  0  0  0  0  0  0  0  0
   28.6931  -21.5571  -16.0176 N   0  0  0  0  0  0  0  0  0  0  0  0
   27.8047  -20.7011  -15.2789 C   0  0  1  0  0  0  0  0  0  0  0  0
   27.0130  -19.7398  -16.1204 C   0  0  0  0  0  0  0  0  0  0  0  0
   27.9047  -18.8754  -16.8738 C   0  0  0  0  0  0  0  0  0  0  0  0
   28.5351  -17.9595  -16.2661 O   0  0  0  0  0  0  0  0  0  0  0  0
   26.7846  -21.5144  -14.5196 C   0  0  0  0  0  0  0  0  0  0  0  0
   26.7141  -22.7592  -14.6701 O   0  0  0  0  0  0  0  0  0  0  0  0
   28.1243  -18.9755  -18.2347 O   0  0  0  0  0  0  0  0  0  0  0  0
   25.8733  -20.9128  -13.6143 N   0  0  0  0  0  0  0  0  0  0  0  0
   25.2253  -21.6471  -12.5456 C   0  0  1  0  0  0  0  0  0  0  0  0
   26.2276  -22.2253  -11.5718 C   0  0  0  0  0  0  0  0  0  0  0  0
   26.4371  -21.3292  -10.4082 C   0  0  0  0  0  0  0  0  0  0  0  0
   25.5126  -20.4809   -9.8365 C   0  0  0  0  0  0  0  0  0  0  0  0
   26.0814  -19.8418   -8.8016 N   0  0  0  0  0  0  0  0  0  0  0  0
   27.3611  -20.2338   -8.6588 C   0  0  0  0  0  0  0  0  0  0  0  0
   28.3720  -19.8893   -7.7659 C   0  0  0  0  0  0  0  0  0  0  0  0
   29.6112  -20.4808   -7.8820 C   0  0  0  0  0  0  0  0  0  0  0  0
   29.8527  -21.4071   -8.8731 C   0  0  0  0  0  0  0  0  0  0  0  0
   28.8414  -21.7509   -9.7653 C   0  0  0  0  0  0  0  0  0  0  0  0
   27.5961  -21.1604   -9.6533 C   0  0  0  0  0  0  0  0  0  0  0  0
   24.2164  -20.8082  -11.8601 C   0  0  0  0  0  0  0  0  0  0  0  0
   24.1506  -19.4407  -12.0318 O   0  0  0  0  0  0  0  0  0  0  0  0
   23.3931  -21.3605  -11.0968 O   0  0  0  0  0  0  0  0  0  0  0  0
  2  1  1  0
  3  2  1  0
  3  4  1  1
  5  7  1  0
  5  3  1  0
  6  5  2  0
  8  9  1  6
  8  7  1  0
 10 14  1  0
 10  9  1  0
 11 10  2  0
 12  8  1  0
 12 13  2  0
 15 12  1  0
 16 15  1  0
 16 27  1  0
 16 17  1  1
 18 17  1  0
 19 18  2  0
 20 19  1  0
 21 26  2  0
 21 20  1  0
 22 21  1  0
 23 22  2  0
 23 24  1  0
 24 25  2  0
 25 26  1  0
 26 18  1  0
 27 29  2  0
 27 28  1  0
M  END
$$$$
