DWF.pdb
     RDKit          3D

 34 36  0  0  1  0  0  0  0  0999 V2000
   10.0976  -18.8346   19.9295 N   0  0  0  0  0  0  0  0  0  0  0  0
   11.0885  -17.7846   20.1865 C   0  0  1  0  0  0  0  0  0  0  0  0
   11.3557  -17.0640   18.9261 C   0  0  0  0  0  0  0  0  0  0  0  0
   11.9450  -17.8899   17.8599 C   0  0  0  0  0  0  0  0  0  0  0  0
   12.2967  -19.0655   18.0099 O   0  0  0  0  0  0  0  0  0  0  0  0
   10.7604  -17.0272   21.3796 C   0  0  0  0  0  0  0  0  0  0  0  0
   11.5649  -16.0595   21.6693 O   0  0  0  0  0  0  0  0  0  0  0  0
   12.1128  -17.3115   16.6165 O   0  0  0  0  0  0  0  0  0  0  0  0
    9.6989  -17.1910   22.2742 N   0  0  0  0  0  0  0  0  0  0  0  0
    9.5182  -16.3981   23.4998 C   0  0  1  0  0  0  0  0  0  0  0  0
    8.1125  -15.9441   23.6503 C   0  0  0  0  0  0  0  0  0  0  0  0
    7.4253  -15.6269   22.3911 C   0  0  0  0  0  0  0  0  0  0  0  0
    6.4864  -16.3140   21.6665 C   0  0  0  0  0  0  0  0  0  0  0  0
    6.1678  -15.5847   20.5562 N   0  0  0  0  0  0  0  0  0  0  0  0
    6.8713  -14.4467   20.5383 C   0  0  0  0  0  0  0  0  0  0  0  0
    6.9176  -13.3917   19.6554 C   0  0  0  0  0  0  0  0  0  0  0  0
    7.7572  -12.3316   19.9038 C   0  0  0  0  0  0  0  0  0  0  0  0
    8.5722  -12.2920   21.0340 C   0  0  0  0  0  0  0  0  0  0  0  0
    8.4988  -13.3680   21.8963 C   0  0  0  0  0  0  0  0  0  0  0  0
    7.6639  -14.4609   21.6849 C   0  0  0  0  0  0  0  0  0  0  0  0
    9.8210  -17.3178   24.6259 C   0  0  0  0  0  0  0  0  0  0  0  0
    8.8969  -18.0175   25.1357 O   0  0  0  0  0  0  0  0  0  0  0  0
   11.1123  -17.4632   25.1755 N   0  0  0  0  0  0  0  0  0  0  0  0
   11.4830  -16.7500   26.4126 C   0  0  1  0  0  0  0  0  0  0  0  0
   11.3009  -15.2811   26.1294 C   0  0  0  0  0  0  0  0  0  0  0  0
   10.3167  -14.6439   27.0113 C   0  0  0  0  0  0  0  0  0  0  0  0
   10.7222  -14.4239   28.3311 C   0  0  0  0  0  0  0  0  0  0  0  0
    9.9124  -13.8420   29.2747 C   0  0  0  0  0  0  0  0  0  0  0  0
    8.6423  -13.4488   28.9340 C   0  0  0  0  0  0  0  0  0  0  0  0
    8.2250  -13.6571   27.6380 C   0  0  0  0  0  0  0  0  0  0  0  0
    9.0535  -14.2487   26.6849 C   0  0  0  0  0  0  0  0  0  0  0  0
   10.5953  -17.2427   27.4821 C   0  0  0  0  0  0  0  0  0  0  0  0
    9.4421  -17.9288   27.1870 O   0  0  0  0  0  0  0  0  0  0  0  0
   10.8891  -17.0366   28.6790 O   0  0  0  0  0  0  0  0  0  0  0  0
  2  1  1  6
  2  3  1  0
  3  4  1  0
  4  8  1  0
  5  4  2  0
  6  2  1  0
  6  7  2  0
  9  6  1  0
 10  9  1  0
 10 11  1  1
 11 12  1  0
 12 13  2  0
 12 20  1  0
 13 14  1  0
 14 15  1  0
 15 16  2  0
 16 17  1  0
 18 17  2  0
 19 18  1  0
 20 19  2  0
 20 15  1  0
 21 10  1  0
 22 21  2  0
 23 21  1  0
 24 25  1  6
 24 23  1  0
 25 26  1  0
 26 31  1  0
 27 26  2  0
 27 28  1  0
 28 29  2  0
 29 30  1  0
 31 30  2  0
 32 24  1  0
 33 32  1  0
 34 32  2  0
M  END
$$$$
