DWF.pdb
     RDKit          3D

 34 36  0  0  1  0  0  0  0  0999 V2000
   11.0243  -18.8937   20.0718 N   0  0  0  0  0  0  0  0  0  0  0  0
   11.8135  -17.6831   20.3206 C   0  0  1  0  0  0  0  0  0  0  0  0
   12.0297  -16.9844   19.0382 C   0  0  0  0  0  0  0  0  0  0  0  0
   13.1765  -17.4755   18.2572 C   0  0  0  0  0  0  0  0  0  0  0  0
   13.1032  -18.3730   17.4103 O   0  0  0  0  0  0  0  0  0  0  0  0
   11.2990  -16.9390   21.4547 C   0  0  0  0  0  0  0  0  0  0  0  0
   12.0166  -15.9375   21.8415 O   0  0  0  0  0  0  0  0  0  0  0  0
   14.4083  -16.8943   18.4881 O   0  0  0  0  0  0  0  0  0  0  0  0
   10.1363  -17.1468   22.2024 N   0  0  0  0  0  0  0  0  0  0  0  0
    9.7097  -16.2970   23.3245 C   0  0  1  0  0  0  0  0  0  0  0  0
    8.2462  -16.3968   23.5552 C   0  0  0  0  0  0  0  0  0  0  0  0
    7.4099  -15.9272   22.4423 C   0  0  0  0  0  0  0  0  0  0  0  0
    6.4157  -16.5418   21.7263 C   0  0  0  0  0  0  0  0  0  0  0  0
    5.9497  -15.6699   20.7835 N   0  0  0  0  0  0  0  0  0  0  0  0
    6.6112  -14.5098   20.8657 C   0  0  0  0  0  0  0  0  0  0  0  0
    6.5236  -13.3331   20.1570 C   0  0  0  0  0  0  0  0  0  0  0  0
    7.3531  -12.2833   20.4738 C   0  0  0  0  0  0  0  0  0  0  0  0
    8.2906  -12.3751   21.5014 C   0  0  0  0  0  0  0  0  0  0  0  0
    8.3496  -13.5707   22.1896 C   0  0  0  0  0  0  0  0  0  0  0  0
    7.5301  -14.6583   21.9035 C   0  0  0  0  0  0  0  0  0  0  0  0
   10.3962  -16.8369   24.5258 C   0  0  0  0  0  0  0  0  0  0  0  0
   11.6015  -17.2170   24.4469 O   0  0  0  0  0  0  0  0  0  0  0  0
    9.7687  -16.9533   25.7841 N   0  0  0  0  0  0  0  0  0  0  0  0
   10.5403  -16.7539   27.0255 C   0  0  1  0  0  0  0  0  0  0  0  0
   10.9283  -15.2981   27.0579 C   0  0  0  0  0  0  0  0  0  0  0  0
    9.7779  -14.4003   27.2096 C   0  0  0  0  0  0  0  0  0  0  0  0
    9.9066  -13.3889   28.1663 C   0  0  0  0  0  0  0  0  0  0  0  0
    8.9155  -12.4752   28.4261 C   0  0  0  0  0  0  0  0  0  0  0  0
    7.7342  -12.5344   27.7296 C   0  0  0  0  0  0  0  0  0  0  0  0
    7.5890  -13.5240   26.7826 C   0  0  0  0  0  0  0  0  0  0  0  0
    8.6005  -14.4485   26.5241 C   0  0  0  0  0  0  0  0  0  0  0  0
    9.6660  -17.1399   28.1486 C   0  0  0  0  0  0  0  0  0  0  0  0
    8.3943  -17.6108   27.9282 O   0  0  0  0  0  0  0  0  0  0  0  0
   10.0808  -17.0398   29.3230 O   0  0  0  0  0  0  0  0  0  0  0  0
  2  1  1  6
  2  3  1  0
  3  4  1  0
  4  8  1  0
  5  4  2  0
  6  2  1  0
  6  7  2  0
  9  6  1  0
 10  9  1  0
 10 11  1  1
 11 12  1  0
 12 13  2  0
 12 20  1  0
 13 14  1  0
 14 15  1  0
 15 16  2  0
 16 17  1  0
 18 17  2  0
 19 18  1  0
 20 19  2  0
 20 15  1  0
 21 10  1  0
 22 21  2  0
 23 21  1  0
 24 25  1  1
 24 23  1  0
 25 26  1  0
 26 31  1  0
 27 26  2  0
 27 28  1  0
 28 29  2  0
 29 30  1  0
 31 30  2  0
 32 24  1  0
 33 32  1  0
 34 32  2  0
M  END
$$$$
