DWF.pdb
     RDKit          3D

 34 36  0  0  1  0  0  0  0  0999 V2000
    7.3096  -17.7985   20.6475 N   0  0  0  0  0  0  0  0  0  0  0  0
    8.7737  -17.8103   20.7287 C   0  0  1  0  0  0  0  0  0  0  0  0
    9.3264  -17.7467   19.3613 C   0  0  0  0  0  0  0  0  0  0  0  0
   10.7683  -18.0269   19.2683 C   0  0  0  0  0  0  0  0  0  0  0  0
   11.5216  -17.5084   18.4366 O   0  0  0  0  0  0  0  0  0  0  0  0
    9.2561  -16.8798   21.7318 C   0  0  0  0  0  0  0  0  0  0  0  0
   10.0566  -15.9603   21.3059 O   0  0  0  0  0  0  0  0  0  0  0  0
   11.3085  -18.9251   20.1684 O   0  0  0  0  0  0  0  0  0  0  0  0
    8.9876  -16.8304   23.1027 N   0  0  0  0  0  0  0  0  0  0  0  0
    9.5067  -15.7975   24.0120 C   0  0  1  0  0  0  0  0  0  0  0  0
    8.7719  -15.7912   25.3024 C   0  0  0  0  0  0  0  0  0  0  0  0
    7.4080  -15.2492   25.2364 C   0  0  0  0  0  0  0  0  0  0  0  0
    6.1850  -15.8638   25.1640 C   0  0  0  0  0  0  0  0  0  0  0  0
    5.2131  -14.9048   25.1192 N   0  0  0  0  0  0  0  0  0  0  0  0
    5.7680  -13.6880   25.1597 C   0  0  0  0  0  0  0  0  0  0  0  0
    5.2362  -12.4185   25.1409 C   0  0  0  0  0  0  0  0  0  0  0  0
    6.0725  -11.3286   25.1966 C   0  0  0  0  0  0  0  0  0  0  0  0
    7.4572  -11.4710   25.2718 C   0  0  0  0  0  0  0  0  0  0  0  0
    7.9537  -12.7593   25.2881 C   0  0  0  0  0  0  0  0  0  0  0  0
    7.1452  -13.8905   25.2339 C   0  0  0  0  0  0  0  0  0  0  0  0
   10.9149  -16.1760   24.2938 C   0  0  0  0  0  0  0  0  0  0  0  0
   11.8596  -15.5906   23.6869 O   0  0  0  0  0  0  0  0  0  0  0  0
   11.2725  -17.1751   25.2236 N   0  0  0  0  0  0  0  0  0  0  0  0
   12.6474  -17.2452   25.7539 C   0  0  1  0  0  0  0  0  0  0  0  0
   12.8923  -15.9468   26.4784 C   0  0  0  0  0  0  0  0  0  0  0  0
   11.9929  -15.7476   27.6202 C   0  0  0  0  0  0  0  0  0  0  0  0
   11.2675  -14.5524   27.6329 C   0  0  0  0  0  0  0  0  0  0  0  0
   10.3900  -14.2212   28.6354 C   0  0  0  0  0  0  0  0  0  0  0  0
   10.1970  -15.0844   29.6850 C   0  0  0  0  0  0  0  0  0  0  0  0
   10.9028  -16.2672   29.6898 C   0  0  0  0  0  0  0  0  0  0  0  0
   11.7923  -16.5967   28.6676 C   0  0  0  0  0  0  0  0  0  0  0  0
   12.7118  -18.4197   26.6433 C   0  0  0  0  0  0  0  0  0  0  0  0
   13.8894  -18.7880   27.2478 O   0  0  0  0  0  0  0  0  0  0  0  0
   11.6833  -19.0967   26.8556 O   0  0  0  0  0  0  0  0  0  0  0  0
  2  1  1  6
  2  3  1  0
  3  4  1  0
  4  8  1  0
  5  4  2  0
  6  2  1  0
  6  7  2  0
  9  6  1  0
 10  9  1  0
 10 11  1  1
 11 12  1  0
 12 13  2  0
 12 20  1  0
 13 14  1  0
 14 15  1  0
 15 16  2  0
 16 17  1  0
 18 17  2  0
 19 18  1  0
 20 19  2  0
 20 15  1  0
 21 10  1  0
 22 21  2  0
 23 21  1  0
 24 25  1  1
 24 23  1  0
 25 26  1  0
 26 31  1  0
 27 26  2  0
 27 28  1  0
 28 29  2  0
 29 30  1  0
 31 30  2  0
 32 24  1  0
 33 32  1  0
 34 32  2  0
M  END
$$$$
