DWF.pdb
     RDKit          3D

 34 36  0  0  1  0  0  0  0  0999 V2000
   10.1298  -19.0731   20.0263 N   0  0  0  0  0  0  0  0  0  0  0  0
   11.2316  -18.1055   20.0363 C   0  0  1  0  0  0  0  0  0  0  0  0
   11.3993  -17.5615   18.6742 C   0  0  0  0  0  0  0  0  0  0  0  0
   12.2529  -18.3718   17.7904 C   0  0  0  0  0  0  0  0  0  0  0  0
   12.7943  -19.4296   18.1310 O   0  0  0  0  0  0  0  0  0  0  0  0
   11.1223  -17.1898   21.1563 C   0  0  0  0  0  0  0  0  0  0  0  0
   12.0863  -16.3399   21.2829 O   0  0  0  0  0  0  0  0  0  0  0  0
   12.4583  -17.9183   16.5017 O   0  0  0  0  0  0  0  0  0  0  0  0
   10.1254  -17.0905   22.1310 N   0  0  0  0  0  0  0  0  0  0  0  0
   10.0604  -16.0266   23.1446 C   0  0  1  0  0  0  0  0  0  0  0  0
    8.6774  -15.8458   23.6539 C   0  0  0  0  0  0  0  0  0  0  0  0
    7.6716  -15.5499   22.6247 C   0  0  0  0  0  0  0  0  0  0  0  0
    6.5273  -16.2063   22.2525 C   0  0  0  0  0  0  0  0  0  0  0  0
    5.9389  -15.5184   21.2294 N   0  0  0  0  0  0  0  0  0  0  0  0
    6.6663  -14.4370   20.9266 C   0  0  0  0  0  0  0  0  0  0  0  0
    6.5099  -13.4386   19.9920 C   0  0  0  0  0  0  0  0  0  0  0  0
    7.4405  -12.4299   19.9102 C   0  0  0  0  0  0  0  0  0  0  0  0
    8.5499  -12.3869   20.7532 C   0  0  0  0  0  0  0  0  0  0  0  0
    8.6733  -13.4053   21.6774 C   0  0  0  0  0  0  0  0  0  0  0  0
    7.7562  -14.4451   21.7956 C   0  0  0  0  0  0  0  0  0  0  0  0
   10.9030  -16.4922   24.2755 C   0  0  0  0  0  0  0  0  0  0  0  0
   12.1562  -16.3127   24.2450 O   0  0  0  0  0  0  0  0  0  0  0  0
   10.3759  -17.1386   25.4135 N   0  0  0  0  0  0  0  0  0  0  0  0
   11.2543  -17.4993   26.5424 C   0  0  1  0  0  0  0  0  0  0  0  0
   11.8399  -16.2096   27.0568 C   0  0  0  0  0  0  0  0  0  0  0  0
   10.8194  -15.2405   27.4713 C   0  0  0  0  0  0  0  0  0  0  0  0
   10.5561  -15.1704   28.8426 C   0  0  0  0  0  0  0  0  0  0  0  0
    9.6263  -14.3168   29.3825 C   0  0  0  0  0  0  0  0  0  0  0  0
    8.9082  -13.4834   28.5617 C   0  0  0  0  0  0  0  0  0  0  0  0
    9.1540  -13.5380   27.2075 C   0  0  0  0  0  0  0  0  0  0  0  0
   10.1004  -14.4077   26.6664 C   0  0  0  0  0  0  0  0  0  0  0  0
   10.4179  -18.1889   27.5422 C   0  0  0  0  0  0  0  0  0  0  0  0
   10.9642  -18.6938   28.6974 O   0  0  0  0  0  0  0  0  0  0  0  0
    9.1914  -18.3207   27.3430 O   0  0  0  0  0  0  0  0  0  0  0  0
  2  1  1  6
  2  3  1  0
  3  4  1  0
  4  8  1  0
  5  4  2  0
  6  2  1  0
  6  7  2  0
  9  6  1  0
 10  9  1  0
 10 11  1  1
 11 12  1  0
 12 13  2  0
 12 20  1  0
 13 14  1  0
 14 15  1  0
 15 16  2  0
 16 17  1  0
 18 17  2  0
 19 18  1  0
 20 19  2  0
 20 15  1  0
 21 10  1  0
 22 21  2  0
 23 21  1  0
 24 25  1  1
 24 23  1  0
 25 26  1  0
 26 31  1  0
 27 26  2  0
 27 28  1  0
 28 29  2  0
 29 30  1  0
 31 30  2  0
 32 24  1  0
 33 32  1  0
 34 32  2  0
M  END
$$$$
