DWF.pdb
     RDKit          3D

 34 36  0  0  1  0  0  0  0  0999 V2000
    9.9190  -19.0416   18.8441 N   0  0  0  0  0  0  0  0  0  0  0  0
   11.1578  -18.4556   19.3660 C   0  0  1  0  0  0  0  0  0  0  0  0
   11.9790  -17.9905   18.2308 C   0  0  0  0  0  0  0  0  0  0  0  0
   12.3565  -19.0434   17.2742 C   0  0  0  0  0  0  0  0  0  0  0  0
   13.1830  -18.8905   16.3677 O   0  0  0  0  0  0  0  0  0  0  0  0
   10.8922  -17.5486   20.4667 C   0  0  0  0  0  0  0  0  0  0  0  0
   11.9008  -16.8557   20.8792 O   0  0  0  0  0  0  0  0  0  0  0  0
   11.7473  -20.2768   17.4014 O   0  0  0  0  0  0  0  0  0  0  0  0
    9.7004  -17.3128   21.1581 N   0  0  0  0  0  0  0  0  0  0  0  0
    9.5813  -16.4260   22.3255 C   0  0  1  0  0  0  0  0  0  0  0  0
    8.1602  -16.1361   22.6442 C   0  0  0  0  0  0  0  0  0  0  0  0
    7.9042  -14.7850   23.1614 C   0  0  0  0  0  0  0  0  0  0  0  0
    8.2082  -13.5450   22.6630 C   0  0  0  0  0  0  0  0  0  0  0  0
    7.7521  -12.5970   23.5345 N   0  0  0  0  0  0  0  0  0  0  0  0
    7.1624  -13.1839   24.5823 C   0  0  0  0  0  0  0  0  0  0  0  0
    6.5545  -12.6846   25.7118 C   0  0  0  0  0  0  0  0  0  0  0  0
    6.0234  -13.5498   26.6390 C   0  0  0  0  0  0  0  0  0  0  0  0
    6.0827  -14.9322   26.4689 C   0  0  0  0  0  0  0  0  0  0  0  0
    6.7003  -15.3958   25.3242 C   0  0  0  0  0  0  0  0  0  0  0  0
    7.2508  -14.5572   24.3599 C   0  0  0  0  0  0  0  0  0  0  0  0
   10.1577  -17.1799   23.4679 C   0  0  0  0  0  0  0  0  0  0  0  0
   10.9726  -18.1252   23.2538 O   0  0  0  0  0  0  0  0  0  0  0  0
    9.8439  -16.8970   24.8140 N   0  0  0  0  0  0  0  0  0  0  0  0
   10.7342  -17.3488   25.9001 C   0  0  1  0  0  0  0  0  0  0  0  0
   11.4991  -16.1339   26.3584 C   0  0  0  0  0  0  0  0  0  0  0  0
   10.7285  -15.2798   27.2689 C   0  0  0  0  0  0  0  0  0  0  0  0
   10.2450  -14.0832   26.7313 C   0  0  0  0  0  0  0  0  0  0  0  0
    9.5120  -13.1790   27.4592 C   0  0  0  0  0  0  0  0  0  0  0  0
    9.2264  -13.4363   28.7769 C   0  0  0  0  0  0  0  0  0  0  0  0
    9.6942  -14.6105   29.3241 C   0  0  0  0  0  0  0  0  0  0  0  0
   10.4380  -15.5243   28.5783 C   0  0  0  0  0  0  0  0  0  0  0  0
    9.8780  -17.9200   26.9561 C   0  0  0  0  0  0  0  0  0  0  0  0
    8.5122  -17.9659   26.8145 O   0  0  0  0  0  0  0  0  0  0  0  0
   10.3952  -18.3715   28.0001 O   0  0  0  0  0  0  0  0  0  0  0  0
  2  1  1  6
  2  3  1  0
  3  4  1  0
  4  8  1  0
  5  4  2  0
  6  2  1  0
  6  7  2  0
  9  6  1  0
 10  9  1  0
 10 11  1  1
 11 12  1  0
 12 13  2  0
 12 20  1  0
 13 14  1  0
 14 15  1  0
 15 16  2  0
 16 17  1  0
 18 17  2  0
 19 18  1  0
 20 19  2  0
 20 15  1  0
 21 10  1  0
 22 21  2  0
 23 21  1  0
 24 25  1  1
 24 23  1  0
 25 26  1  0
 26 31  1  0
 27 26  2  0
 27 28  1  0
 28 29  2  0
 29 30  1  0
 31 30  2  0
 32 24  1  0
 33 32  1  0
 34 32  2  0
M  END
$$$$
