DWF.pdb
     RDKit          3D

 34 36  0  0  1  0  0  0  0  0999 V2000
   10.6084  -18.8149   19.3576 N   0  0  0  0  0  0  0  0  0  0  0  0
   11.6324  -17.8538   19.7799 C   0  0  1  0  0  0  0  0  0  0  0  0
   12.0697  -17.0771   18.6032 C   0  0  0  0  0  0  0  0  0  0  0  0
   12.9838  -17.7941   17.6995 C   0  0  0  0  0  0  0  0  0  0  0  0
   13.3402  -18.9664   17.8634 O   0  0  0  0  0  0  0  0  0  0  0  0
   11.2342  -17.1507   20.9847 C   0  0  0  0  0  0  0  0  0  0  0  0
   12.0095  -16.1863   21.3542 O   0  0  0  0  0  0  0  0  0  0  0  0
   13.4703  -17.1109   16.6017 O   0  0  0  0  0  0  0  0  0  0  0  0
   10.1314  -17.3641   21.8168 N   0  0  0  0  0  0  0  0  0  0  0  0
    9.7701  -16.5008   22.9515 C   0  0  1  0  0  0  0  0  0  0  0  0
    8.3231  -16.5998   23.2698 C   0  0  0  0  0  0  0  0  0  0  0  0
    7.4330  -15.9035   22.3310 C   0  0  0  0  0  0  0  0  0  0  0  0
    6.1397  -16.1484   21.9485 C   0  0  0  0  0  0  0  0  0  0  0  0
    5.7643  -15.2025   21.0371 N   0  0  0  0  0  0  0  0  0  0  0  0
    6.7739  -14.3527   20.8166 C   0  0  0  0  0  0  0  0  0  0  0  0
    6.9045  -13.2488   20.0048 C   0  0  0  0  0  0  0  0  0  0  0  0
    8.0904  -12.5534   19.9856 C   0  0  0  0  0  0  0  0  0  0  0  0
    9.1767  -12.9363   20.7709 C   0  0  0  0  0  0  0  0  0  0  0  0
    9.0085  -14.0484   21.5719 C   0  0  0  0  0  0  0  0  0  0  0  0
    7.8269  -14.7815   21.6232 C   0  0  0  0  0  0  0  0  0  0  0  0
   10.5277  -17.0246   24.1167 C   0  0  0  0  0  0  0  0  0  0  0  0
   10.9706  -18.2108   24.1004 O   0  0  0  0  0  0  0  0  0  0  0  0
   10.7917  -16.2579   25.2713 N   0  0  0  0  0  0  0  0  0  0  0  0
   11.5707  -16.8293   26.3861 C   0  0  1  0  0  0  0  0  0  0  0  0
   11.9974  -15.6689   27.2477 C   0  0  0  0  0  0  0  0  0  0  0  0
   10.8673  -14.8754   27.7433 C   0  0  0  0  0  0  0  0  0  0  0  0
   10.5466  -15.0355   29.0947 C   0  0  0  0  0  0  0  0  0  0  0  0
    9.5138  -14.3655   29.7023 C   0  0  0  0  0  0  0  0  0  0  0  0
    8.7450  -13.4928   28.9734 C   0  0  0  0  0  0  0  0  0  0  0  0
    9.0461  -13.3216   27.6403 C   0  0  0  0  0  0  0  0  0  0  0  0
   10.0970  -14.0056   27.0301 C   0  0  0  0  0  0  0  0  0  0  0  0
   10.6886  -17.7757   27.0938 C   0  0  0  0  0  0  0  0  0  0  0  0
    9.3819  -17.9522   26.7074 O   0  0  0  0  0  0  0  0  0  0  0  0
   11.1287  -18.4314   28.0622 O   0  0  0  0  0  0  0  0  0  0  0  0
  2  1  1  6
  2  3  1  0
  3  4  1  0
  4  8  1  0
  5  4  2  0
  6  2  1  0
  6  7  2  0
  9  6  1  0
 10  9  1  0
 10 11  1  1
 11 12  1  0
 12 13  2  0
 12 20  1  0
 13 14  1  0
 14 15  1  0
 15 16  2  0
 16 17  1  0
 18 17  2  0
 19 18  1  0
 20 19  2  0
 20 15  1  0
 21 10  1  0
 22 21  2  0
 23 21  1  0
 24 25  1  1
 24 23  1  0
 25 26  1  0
 26 31  1  0
 27 26  2  0
 27 28  1  0
 28 29  2  0
 29 30  1  0
 31 30  2  0
 32 24  1  0
 33 32  1  0
 34 32  2  0
M  END
$$$$
