DWF.pdb
     RDKit          3D

 34 36  0  0  1  0  0  0  0  0999 V2000
   10.4625  -16.7060   18.9680 N   0  0  0  0  0  0  0  0  0  0  0  0
   11.2887  -17.3551   19.9909 C   0  0  1  0  0  0  0  0  0  0  0  0
   12.7005  -17.3082   19.5621 C   0  0  0  0  0  0  0  0  0  0  0  0
   12.9699  -17.9501   18.2653 C   0  0  0  0  0  0  0  0  0  0  0  0
   13.5524  -17.3955   17.3266 O   0  0  0  0  0  0  0  0  0  0  0  0
   10.9374  -16.9000   21.3228 C   0  0  0  0  0  0  0  0  0  0  0  0
   11.5407  -15.8328   21.7289 O   0  0  0  0  0  0  0  0  0  0  0  0
   12.5441  -19.2528   18.0915 O   0  0  0  0  0  0  0  0  0  0  0  0
   10.0407  -17.4493   22.2437 N   0  0  0  0  0  0  0  0  0  0  0  0
    9.6462  -16.8015   23.5039 C   0  0  1  0  0  0  0  0  0  0  0  0
    8.1778  -16.8712   23.7136 C   0  0  0  0  0  0  0  0  0  0  0  0
    7.4483  -15.6338   23.4052 C   0  0  0  0  0  0  0  0  0  0  0  0
    6.8278  -15.2020   22.2618 C   0  0  0  0  0  0  0  0  0  0  0  0
    6.2942  -13.9655   22.4914 N   0  0  0  0  0  0  0  0  0  0  0  0
    6.5498  -13.5824   23.7476 C   0  0  0  0  0  0  0  0  0  0  0  0
    6.2377  -12.4459   24.4588 C   0  0  0  0  0  0  0  0  0  0  0  0
    6.6429  -12.3281   25.7673 C   0  0  0  0  0  0  0  0  0  0  0  0
    7.3684  -13.3346   26.4028 C   0  0  0  0  0  0  0  0  0  0  0  0
    7.6630  -14.4592   25.6578 C   0  0  0  0  0  0  0  0  0  0  0  0
    7.2732  -14.6210   24.3318 C   0  0  0  0  0  0  0  0  0  0  0  0
   10.2964  -17.5864   24.5842 C   0  0  0  0  0  0  0  0  0  0  0  0
   10.3670  -18.8474   24.4936 O   0  0  0  0  0  0  0  0  0  0  0  0
   10.8567  -16.9943   25.7358 N   0  0  0  0  0  0  0  0  0  0  0  0
   11.5057  -17.8287   26.7649 C   0  0  1  0  0  0  0  0  0  0  0  0
   12.2893  -16.8890   27.6446 C   0  0  0  0  0  0  0  0  0  0  0  0
   11.4589  -15.8417   28.2495 C   0  0  0  0  0  0  0  0  0  0  0  0
   11.2745  -14.6839   27.4878 C   0  0  0  0  0  0  0  0  0  0  0  0
   10.5279  -13.6159   27.9199 C   0  0  0  0  0  0  0  0  0  0  0  0
    9.9239  -13.6603   29.1517 C   0  0  0  0  0  0  0  0  0  0  0  0
   10.0940  -14.7930   29.9166 C   0  0  0  0  0  0  0  0  0  0  0  0
   10.8538  -15.8741   29.4707 C   0  0  0  0  0  0  0  0  0  0  0  0
   10.4348  -18.5360   27.4912 C   0  0  0  0  0  0  0  0  0  0  0  0
    9.1119  -18.3272   27.1843 O   0  0  0  0  0  0  0  0  0  0  0  0
   10.7267  -19.3398   28.4023 O   0  0  0  0  0  0  0  0  0  0  0  0
  2  1  1  6
  2  3  1  0
  3  4  1  0
  4  8  1  0
  5  4  2  0
  6  2  1  0
  6  7  2  0
  9  6  1  0
 10  9  1  0
 10 11  1  1
 11 12  1  0
 12 13  2  0
 12 20  1  0
 13 14  1  0
 14 15  1  0
 15 16  2  0
 16 17  1  0
 18 17  2  0
 19 18  1  0
 20 19  2  0
 20 15  1  0
 21 10  1  0
 22 21  2  0
 23 21  1  0
 24 25  1  1
 24 23  1  0
 25 26  1  0
 26 31  1  0
 27 26  2  0
 27 28  1  0
 28 29  2  0
 29 30  1  0
 31 30  2  0
 32 24  1  0
 33 32  1  0
 34 32  2  0
M  END
$$$$
