DWF.pdb
     RDKit          3D

 34 36  0  0  1  0  0  0  0  0999 V2000
   10.6243  -17.8956   19.3543 N   0  0  0  0  0  0  0  0  0  0  0  0
   11.5349  -17.8218   20.5014 C   0  0  1  0  0  0  0  0  0  0  0  0
   12.8809  -17.4568   20.0173 C   0  0  0  0  0  0  0  0  0  0  0  0
   13.4714  -18.4124   19.0663 C   0  0  0  0  0  0  0  0  0  0  0  0
   13.6043  -19.6206   19.2921 O   0  0  0  0  0  0  0  0  0  0  0  0
   10.9483  -17.0720   21.5960 C   0  0  0  0  0  0  0  0  0  0  0  0
   11.2716  -15.8233   21.6581 O   0  0  0  0  0  0  0  0  0  0  0  0
   13.9016  -17.9245   17.8475 O   0  0  0  0  0  0  0  0  0  0  0  0
   10.0826  -17.5013   22.6060 N   0  0  0  0  0  0  0  0  0  0  0  0
    9.5899  -16.6442   23.6950 C   0  0  1  0  0  0  0  0  0  0  0  0
    8.1058  -16.6239   23.7409 C   0  0  0  0  0  0  0  0  0  0  0  0
    7.4568  -16.0517   22.5535 C   0  0  0  0  0  0  0  0  0  0  0  0
    6.5996  -16.5947   21.6321 C   0  0  0  0  0  0  0  0  0  0  0  0
    6.2837  -15.6387   20.7087 N   0  0  0  0  0  0  0  0  0  0  0  0
    6.9097  -14.4933   21.0027 C   0  0  0  0  0  0  0  0  0  0  0  0
    6.9254  -13.2566   20.3987 C   0  0  0  0  0  0  0  0  0  0  0  0
    7.6802  -12.2431   20.9406 C   0  0  0  0  0  0  0  0  0  0  0  0
    8.4387  -12.4317   22.0950 C   0  0  0  0  0  0  0  0  0  0  0  0
    8.3983  -13.6854   22.6723 C   0  0  0  0  0  0  0  0  0  0  0  0
    7.6488  -14.7393   22.1588 C   0  0  0  0  0  0  0  0  0  0  0  0
   10.0741  -17.2680   24.9528 C   0  0  0  0  0  0  0  0  0  0  0  0
    9.7684  -18.4671   25.2213 O   0  0  0  0  0  0  0  0  0  0  0  0
   10.8776  -16.5861   25.8909 N   0  0  0  0  0  0  0  0  0  0  0  0
   10.3874  -16.3477   27.2618 C   0  0  1  0  0  0  0  0  0  0  0  0
    8.9537  -15.9022   27.1311 C   0  0  0  0  0  0  0  0  0  0  0  0
    8.8080  -14.4433   27.0797 C   0  0  0  0  0  0  0  0  0  0  0  0
    8.0805  -13.9336   26.0000 C   0  0  0  0  0  0  0  0  0  0  0  0
    7.8624  -12.5912   25.8127 C   0  0  0  0  0  0  0  0  0  0  0  0
    8.3704  -11.6863   26.7110 C   0  0  0  0  0  0  0  0  0  0  0  0
    9.0898  -12.1696   27.7815 C   0  0  0  0  0  0  0  0  0  0  0  0
    9.3070  -13.5348   27.9652 C   0  0  0  0  0  0  0  0  0  0  0  0
   10.5292  -17.6154   28.0017 C   0  0  0  0  0  0  0  0  0  0  0  0
    9.6477  -18.6516   27.8094 O   0  0  0  0  0  0  0  0  0  0  0  0
   11.4634  -17.7575   28.8193 O   0  0  0  0  0  0  0  0  0  0  0  0
  2  1  1  6
  2  3  1  0
  3  4  1  0
  4  8  1  0
  5  4  2  0
  6  2  1  0
  6  7  2  0
  9  6  1  0
 10  9  1  0
 10 11  1  1
 11 12  1  0
 12 13  2  0
 12 20  1  0
 13 14  1  0
 14 15  1  0
 15 16  2  0
 16 17  1  0
 18 17  2  0
 19 18  1  0
 20 19  2  0
 20 15  1  0
 21 10  1  0
 22 21  2  0
 23 21  1  0
 24 25  1  6
 24 23  1  0
 25 26  1  0
 26 31  1  0
 27 26  2  0
 27 28  1  0
 28 29  2  0
 29 30  1  0
 31 30  2  0
 32 24  1  0
 33 32  1  0
 34 32  2  0
M  END
$$$$
