DWF.pdb
     RDKit          3D

 34 36  0  0  1  0  0  0  0  0999 V2000
   11.1755  -19.2152   19.5977 N   0  0  0  0  0  0  0  0  0  0  0  0
   11.7900  -17.9061   19.8409 C   0  0  1  0  0  0  0  0  0  0  0  0
   12.3037  -17.3770   18.5621 C   0  0  0  0  0  0  0  0  0  0  0  0
   13.3881  -18.1700   17.9609 C   0  0  0  0  0  0  0  0  0  0  0  0
   14.0575  -19.0063   18.5779 O   0  0  0  0  0  0  0  0  0  0  0  0
   10.9403  -17.0669   20.6646 C   0  0  0  0  0  0  0  0  0  0  0  0
   11.3430  -15.8512   20.8302 O   0  0  0  0  0  0  0  0  0  0  0  0
   13.6712  -17.9639   16.6245 O   0  0  0  0  0  0  0  0  0  0  0  0
    9.7438  -17.3790   21.3163 N   0  0  0  0  0  0  0  0  0  0  0  0
    8.9330  -16.4098   22.0691 C   0  0  1  0  0  0  0  0  0  0  0  0
    7.5326  -16.3749   21.5766 C   0  0  0  0  0  0  0  0  0  0  0  0
    7.3239  -15.5820   20.3575 C   0  0  0  0  0  0  0  0  0  0  0  0
    6.9416  -15.9404   19.0909 C   0  0  0  0  0  0  0  0  0  0  0  0
    6.8988  -14.8196   18.3110 N   0  0  0  0  0  0  0  0  0  0  0  0
    7.2417  -13.7462   19.0324 C   0  0  0  0  0  0  0  0  0  0  0  0
    7.3533  -12.4098   18.7222 C   0  0  0  0  0  0  0  0  0  0  0  0
    7.7350  -11.5144   19.6932 C   0  0  0  0  0  0  0  0  0  0  0  0
    8.0161  -11.9226   20.9961 C   0  0  0  0  0  0  0  0  0  0  0  0
    7.8937  -13.2705   21.2696 C   0  0  0  0  0  0  0  0  0  0  0  0
    7.5104  -14.2113   20.3188 C   0  0  0  0  0  0  0  0  0  0  0  0
    8.9090  -16.9027   23.4699 C   0  0  0  0  0  0  0  0  0  0  0  0
    7.8015  -17.0908   24.0543 O   0  0  0  0  0  0  0  0  0  0  0  0
   10.0785  -17.1828   24.2078 N   0  0  0  0  0  0  0  0  0  0  0  0
   10.5347  -16.2601   25.2645 C   0  0  1  0  0  0  0  0  0  0  0  0
    9.4007  -16.1459   26.2505 C   0  0  0  0  0  0  0  0  0  0  0  0
    9.7693  -15.4142   27.4675 C   0  0  0  0  0  0  0  0  0  0  0  0
    9.5190  -14.0387   27.4600 C   0  0  0  0  0  0  0  0  0  0  0  0
    9.8129  -13.2197   28.5219 C   0  0  0  0  0  0  0  0  0  0  0  0
   10.3787  -13.7490   29.6548 C   0  0  0  0  0  0  0  0  0  0  0  0
   10.6325  -15.1025   29.6809 C   0  0  0  0  0  0  0  0  0  0  0  0
   10.3310  -15.9282   28.5983 C   0  0  0  0  0  0  0  0  0  0  0  0
   11.7530  -16.8434   25.8562 C   0  0  0  0  0  0  0  0  0  0  0  0
   11.9592  -18.2018   25.8603 O   0  0  0  0  0  0  0  0  0  0  0  0
   12.6168  -16.0972   26.3644 O   0  0  0  0  0  0  0  0  0  0  0  0
  2  1  1  6
  2  3  1  0
  3  4  1  0
  4  8  1  0
  5  4  2  0
  6  2  1  0
  6  7  2  0
  9  6  1  0
 10  9  1  0
 10 11  1  6
 11 12  1  0
 12 13  2  0
 12 20  1  0
 13 14  1  0
 14 15  1  0
 15 16  2  0
 16 17  1  0
 18 17  2  0
 19 18  1  0
 20 19  2  0
 20 15  1  0
 21 10  1  0
 22 21  2  0
 23 21  1  0
 24 25  1  1
 24 23  1  0
 25 26  1  0
 26 31  1  0
 27 26  2  0
 27 28  1  0
 28 29  2  0
 29 30  1  0
 31 30  2  0
 32 24  1  0
 33 32  1  0
 34 32  2  0
M  END
$$$$
