DWF.pdb
     RDKit          3D

 34 36  0  0  1  0  0  0  0  0999 V2000
    8.1192  -18.2364   21.6143 N   0  0  0  0  0  0  0  0  0  0  0  0
    9.2455  -17.4480   21.1044 C   0  0  1  0  0  0  0  0  0  0  0  0
    8.9065  -16.9510   19.7563 C   0  0  0  0  0  0  0  0  0  0  0  0
    8.8952  -17.9827   18.7066 C   0  0  0  0  0  0  0  0  0  0  0  0
    9.1570  -19.1745   18.9051 O   0  0  0  0  0  0  0  0  0  0  0  0
    9.7329  -16.5140   22.1018 C   0  0  0  0  0  0  0  0  0  0  0  0
   10.6187  -15.6677   21.6933 O   0  0  0  0  0  0  0  0  0  0  0  0
    8.5709  -17.5903   17.4223 O   0  0  0  0  0  0  0  0  0  0  0  0
    9.3899  -16.3935   23.4515 N   0  0  0  0  0  0  0  0  0  0  0  0
   10.0258  -15.4538   24.3875 C   0  0  1  0  0  0  0  0  0  0  0  0
    9.2388  -15.3186   25.6394 C   0  0  0  0  0  0  0  0  0  0  0  0
    7.8197  -14.9906   25.4471 C   0  0  0  0  0  0  0  0  0  0  0  0
    6.7147  -15.7844   25.2808 C   0  0  0  0  0  0  0  0  0  0  0  0
    5.6167  -14.9846   25.1360 N   0  0  0  0  0  0  0  0  0  0  0  0
    5.9756  -13.6974   25.2029 C   0  0  0  0  0  0  0  0  0  0  0  0
    5.2618  -12.5237   25.1164 C   0  0  0  0  0  0  0  0  0  0  0  0
    5.9155  -11.3190   25.2247 C   0  0  0  0  0  0  0  0  0  0  0  0
    7.2938  -11.2488   25.4210 C   0  0  0  0  0  0  0  0  0  0  0  0
    7.9761  -12.4465   25.5022 C   0  0  0  0  0  0  0  0  0  0  0  0
    7.3557  -13.6877   25.3985 C   0  0  0  0  0  0  0  0  0  0  0  0
   11.3370  -16.0562   24.7387 C   0  0  0  0  0  0  0  0  0  0  0  0
   12.4050  -15.4071   24.5352 O   0  0  0  0  0  0  0  0  0  0  0  0
   11.4670  -17.3431   25.3024 N   0  0  0  0  0  0  0  0  0  0  0  0
   12.6223  -17.6707   26.1593 C   0  0  1  0  0  0  0  0  0  0  0  0
   12.0709  -17.9360   27.5364 C   0  0  0  0  0  0  0  0  0  0  0  0
   11.4493  -16.7541   28.1437 C   0  0  0  0  0  0  0  0  0  0  0  0
   10.7496  -16.9684   29.3350 C   0  0  0  0  0  0  0  0  0  0  0  0
   10.1115  -15.9632   30.0184 C   0  0  0  0  0  0  0  0  0  0  0  0
   10.1459  -14.6800   29.5324 C   0  0  0  0  0  0  0  0  0  0  0  0
   10.8307  -14.4492   28.3598 C   0  0  0  0  0  0  0  0  0  0  0  0
   11.4767  -15.4755   27.6713 C   0  0  0  0  0  0  0  0  0  0  0  0
   13.2824  -18.8497   25.5684 C   0  0  0  0  0  0  0  0  0  0  0  0
   12.7864  -19.4464   24.4345 O   0  0  0  0  0  0  0  0  0  0  0  0
   14.3097  -19.3202   26.1018 O   0  0  0  0  0  0  0  0  0  0  0  0
  2  1  1  1
  2  3  1  0
  3  4  1  0
  4  8  1  0
  5  4  2  0
  6  2  1  0
  6  7  2  0
  9  6  1  0
 10  9  1  0
 10 11  1  1
 11 12  1  0
 12 13  2  0
 12 20  1  0
 13 14  1  0
 14 15  1  0
 15 16  2  0
 16 17  1  0
 18 17  2  0
 19 18  1  0
 20 19  2  0
 20 15  1  0
 21 10  1  0
 22 21  2  0
 23 21  1  0
 24 25  1  1
 24 23  1  0
 25 26  1  0
 26 31  1  0
 27 26  2  0
 27 28  1  0
 28 29  2  0
 29 30  1  0
 31 30  2  0
 32 24  1  0
 33 32  1  0
 34 32  2  0
M  END
$$$$
