THL.pdb
     RDKit          3D

 26 26  0  0  1  0  0  0  0  0999 V2000
   22.4572  -14.9867  -14.4231 C   0  0  0  0  0  0  0  0  0  0  0  0
   22.1954  -15.8393  -15.6393 C   0  0  1  0  0  0  0  0  0  0  0  0
   22.3386  -17.1754  -15.2896 O   0  0  0  0  0  0  0  0  0  0  0  0
   20.7882  -15.6438  -16.1456 C   0  0  2  0  0  0  0  0  0  0  0  0
   20.4064  -16.5654  -17.1669 N   0  0  0  0  0  0  0  0  0  0  0  0
   20.5776  -14.2224  -16.5116 C   0  0  0  0  0  0  0  0  0  0  0  0
   21.2515  -13.7701  -17.4671 O   0  0  0  0  0  0  0  0  0  0  0  0
   19.6695  -13.3636  -15.8486 N   0  0  0  0  0  0  0  0  0  0  0  0
   19.4886  -11.9575  -16.1940 C   0  0  1  0  0  0  0  0  0  0  0  0
   18.0790  -11.5274  -16.0688 C   0  0  0  0  0  0  0  0  0  0  0  0
   17.8956  -10.1300  -16.5158 C   0  0  0  0  0  0  0  0  0  0  0  0
   18.5770   -9.4183  -17.4964 C   0  0  0  0  0  0  0  0  0  0  0  0
   18.1022   -8.1624  -17.5381 N   0  0  0  0  0  0  0  0  0  0  0  0
   17.1352   -8.0346  -16.6168 C   0  0  0  0  0  0  0  0  0  0  0  0
   17.0137   -9.2190  -16.0042 N   0  0  0  0  0  0  0  0  0  0  0  0
   20.3384  -11.1375  -15.3020 C   0  0  0  0  0  0  0  0  0  0  0  0
   20.3327  -11.3165  -14.0415 O   0  0  0  0  0  0  0  0  0  0  0  0
   24.5235  -10.9700  -14.0084 C   0  0  0  0  0  0  0  0  0  0  0  0
   24.1739  -10.5307  -15.3856 C   0  0  2  0  0  0  0  0  0  0  0  0
   25.4933  -10.4345  -16.1767 C   0  0  0  0  0  0  0  0  0  0  0  0
   23.3398   -9.3427  -15.5829 C   0  0  0  0  0  0  0  0  0  0  0  0
   21.9754   -9.2901  -14.9850 C   0  0  2  0  0  0  0  0  0  0  0  0
   21.1569  -10.1492  -15.8933 N   0  0  0  0  0  0  0  0  0  0  0  0
   21.3374   -7.9808  -15.0514 C   0  0  0  0  0  0  0  0  0  0  0  0
   20.7317   -7.5777  -16.0812 O   0  0  0  0  0  0  0  0  0  0  0  0
   21.3893   -7.1199  -13.9303 O   0  0  0  0  0  0  0  0  0  0  0  0
  2  1  1  1
  3  2  1  0
  4  2  1  0
  4  6  1  0
  4  5  1  6
  6  7  2  0
  8  6  1  0
  8  9  1  0
  9 10  1  1
 11 10  1  0
 12 11  2  0
 13 12  1  0
 14 13  1  0
 14 15  2  0
 15 11  1  0
 16  9  1  0
 16 17  2  0
 19 18  1  1
 19 21  1  0
 19 20  1  0
 22 21  1  6
 22 23  1  0
 23 16  1  0
 24 26  1  0
 24 22  1  0
 25 24  2  0
M  END
$$$$
