THL.pdb
     RDKit          3D

 26 26  0  0  1  0  0  0  0  0999 V2000
   14.8640   -8.1096  -14.7650 C   0  0  0  0  0  0  0  0  0  0  0  0
   14.3959   -9.4313  -14.2097 C   0  0  1  0  0  0  0  0  0  0  0  0
   13.0124   -9.4046  -14.0948 O   0  0  0  0  0  0  0  0  0  0  0  0
   14.7596  -10.5667  -15.1335 C   0  0  2  0  0  0  0  0  0  0  0  0
   14.3199  -11.8468  -14.6796 N   0  0  0  0  0  0  0  0  0  0  0  0
   16.2057  -10.5096  -15.4565 C   0  0  0  0  0  0  0  0  0  0  0  0
   16.9956  -11.0553  -14.6503 O   0  0  0  0  0  0  0  0  0  0  0  0
   16.7319   -9.8809  -16.6096 N   0  0  0  0  0  0  0  0  0  0  0  0
   18.1561   -9.8295  -16.9228 C   0  0  1  0  0  0  0  0  0  0  0  0
   18.4046   -9.5599  -18.3557 C   0  0  0  0  0  0  0  0  0  0  0  0
   18.2310  -10.7780  -19.1758 C   0  0  0  0  0  0  0  0  0  0  0  0
   18.0524  -12.0967  -18.7741 C   0  0  0  0  0  0  0  0  0  0  0  0
   17.9771  -12.8813  -19.8620 N   0  0  0  0  0  0  0  0  0  0  0  0
   18.1012  -12.1158  -20.9569 C   0  0  0  0  0  0  0  0  0  0  0  0
   18.2537  -10.8523  -20.5408 N   0  0  0  0  0  0  0  0  0  0  0  0
   18.7835   -8.7693  -16.1026 C   0  0  0  0  0  0  0  0  0  0  0  0
   18.1000   -7.7922  -15.6568 O   0  0  0  0  0  0  0  0  0  0  0  0
   21.2417   -9.3752  -12.1145 C   0  0  0  0  0  0  0  0  0  0  0  0
   21.8944   -9.6267  -13.4270 C   0  0  2  0  0  0  0  0  0  0  0  0
   23.2661  -10.2657  -13.1333 C   0  0  0  0  0  0  0  0  0  0  0  0
   22.0038   -8.5435  -14.4071 C   0  0  0  0  0  0  0  0  0  0  0  0
   20.7707   -7.8698  -14.9046 C   0  0  2  0  0  0  0  0  0  0  0  0
   20.1657   -8.8756  -15.8295 N   0  0  0  0  0  0  0  0  0  0  0  0
   21.0171   -6.7050  -15.7462 C   0  0  0  0  0  0  0  0  0  0  0  0
   21.3003   -5.5742  -15.2659 O   0  0  0  0  0  0  0  0  0  0  0  0
   20.9405   -6.8301  -17.1532 O   0  0  0  0  0  0  0  0  0  0  0  0
  2  1  1  6
  3  2  1  0
  4  2  1  0
  4  6  1  0
  4  5  1  1
  6  7  2  0
  8  6  1  0
  8  9  1  0
  9 10  1  6
 11 10  1  0
 12 11  2  0
 13 12  1  0
 14 13  1  0
 14 15  2  0
 15 11  1  0
 16  9  1  0
 16 17  2  0
 19 18  1  1
 19 21  1  0
 19 20  1  0
 22 21  1  6
 22 23  1  0
 23 16  1  0
 24 26  1  0
 24 22  1  0
 25 24  2  0
M  END
$$$$
