THL.pdb
     RDKit          3D

 26 26  0  0  1  0  0  0  0  0999 V2000
   27.3117  -21.8844  -16.0530 C   0  0  0  0  0  0  0  0  0  0  0  0
   28.1456  -20.6785  -16.4065 C   0  0  1  0  0  0  0  0  0  0  0  0
   29.2397  -21.0935  -17.1540 O   0  0  0  0  0  0  0  0  0  0  0  0
   27.3586  -19.7022  -17.2444 C   0  0  2  0  0  0  0  0  0  0  0  0
   28.1272  -18.5986  -17.7236 N   0  0  0  0  0  0  0  0  0  0  0  0
   26.1225  -19.3056  -16.5279 C   0  0  0  0  0  0  0  0  0  0  0  0
   26.1459  -18.2201  -15.9011 O   0  0  0  0  0  0  0  0  0  0  0  0
   24.9365  -20.0768  -16.5152 N   0  0  0  0  0  0  0  0  0  0  0  0
   23.6991  -19.6451  -15.8737 C   0  0  1  0  0  0  0  0  0  0  0  0
   22.5766  -19.5471  -16.8319 C   0  0  0  0  0  0  0  0  0  0  0  0
   22.6240  -18.2825  -17.5967 C   0  0  0  0  0  0  0  0  0  0  0  0
   23.4880  -17.2015  -17.4658 C   0  0  0  0  0  0  0  0  0  0  0  0
   23.1383  -16.2500  -18.3473 N   0  0  0  0  0  0  0  0  0  0  0  0
   22.0755  -16.6770  -19.0461 C   0  0  0  0  0  0  0  0  0  0  0  0
   21.7690  -17.8989  -18.5923 N   0  0  0  0  0  0  0  0  0  0  0  0
   23.3569  -20.6113  -14.8062 C   0  0  0  0  0  0  0  0  0  0  0  0
   23.3443  -21.8641  -15.0328 O   0  0  0  0  0  0  0  0  0  0  0  0
   25.5585  -21.9731  -11.3861 C   0  0  0  0  0  0  0  0  0  0  0  0
   24.8907  -20.6564  -11.2070 C   0  0  2  0  0  0  0  0  0  0  0  0
   25.4513  -20.0393   -9.9104 C   0  0  0  0  0  0  0  0  0  0  0  0
   23.4294  -20.5664  -11.2582 C   0  0  0  0  0  0  0  0  0  0  0  0
   22.6989  -21.0791  -12.4521 C   0  0  2  0  0  0  0  0  0  0  0  0
   23.0445  -20.0998  -13.5267 N   0  0  0  0  0  0  0  0  0  0  0  0
   21.2465  -21.0063  -12.3482 C   0  0  0  0  0  0  0  0  0  0  0  0
   20.5846  -20.0420  -12.8192 O   0  0  0  0  0  0  0  0  0  0  0  0
   20.5387  -22.0455  -11.7002 O   0  0  0  0  0  0  0  0  0  0  0  0
  2  1  1  6
  3  2  1  0
  4  2  1  0
  4  6  1  0
  4  5  1  1
  6  7  2  0
  8  6  1  0
  8  9  1  0
  9 10  1  6
 11 10  1  0
 12 11  2  0
 13 12  1  0
 14 13  1  0
 14 15  2  0
 15 11  1  0
 16  9  1  0
 16 17  2  0
 19 18  1  1
 19 21  1  0
 19 20  1  0
 22 21  1  1
 22 23  1  0
 23 16  1  0
 24 26  1  0
 24 22  1  0
 25 24  2  0
M  END
$$$$
