THL.pdb
     RDKit          3D

 26 26  0  0  1  0  0  0  0  0999 V2000
   27.1652  -17.1096  -16.5278 C   0  0  0  0  0  0  0  0  0  0  0  0
   27.4051  -18.0961  -17.6430 C   0  0  1  0  0  0  0  0  0  0  0  0
   28.7404  -18.4763  -17.6258 O   0  0  0  0  0  0  0  0  0  0  0  0
   26.5700  -19.3382  -17.4569 C   0  0  2  0  0  0  0  0  0  0  0  0
   26.9485  -20.4234  -18.3039 N   0  0  0  0  0  0  0  0  0  0  0  0
   25.1299  -18.9929  -17.5324 C   0  0  0  0  0  0  0  0  0  0  0  0
   24.7659  -18.2543  -18.4778 O   0  0  0  0  0  0  0  0  0  0  0  0
   24.1606  -19.4468  -16.6073 N   0  0  0  0  0  0  0  0  0  0  0  0
   22.7547  -19.0591  -16.6549 C   0  0  1  0  0  0  0  0  0  0  0  0
   21.8500  -20.2034  -16.4099 C   0  0  0  0  0  0  0  0  0  0  0  0
   21.6747  -21.0273  -17.6251 C   0  0  0  0  0  0  0  0  0  0  0  0
   22.1796  -20.8334  -18.9056 C   0  0  0  0  0  0  0  0  0  0  0  0
   21.7314  -21.8133  -19.7079 N   0  0  0  0  0  0  0  0  0  0  0  0
   20.9517  -22.6369  -18.9910 C   0  0  0  0  0  0  0  0  0  0  0  0
   20.9198  -22.1615  -17.7397 N   0  0  0  0  0  0  0  0  0  0  0  0
   22.5173  -18.0122  -15.6361 C   0  0  0  0  0  0  0  0  0  0  0  0
   22.8567  -18.1879  -14.4217 O   0  0  0  0  0  0  0  0  0  0  0  0
   21.8941  -12.5340  -14.6841 C   0  0  0  0  0  0  0  0  0  0  0  0
   22.9863  -13.5392  -14.5918 C   0  0  2  0  0  0  0  0  0  0  0  0
   24.3022  -12.8067  -14.9208 C   0  0  0  0  0  0  0  0  0  0  0  0
   22.8773  -14.8044  -15.3222 C   0  0  0  0  0  0  0  0  0  0  0  0
   21.7392  -15.7247  -15.0401 C   0  0  2  0  0  0  0  0  0  0  0  0
   21.9019  -16.8109  -16.0536 N   0  0  0  0  0  0  0  0  0  0  0  0
   20.4238  -15.1614  -15.3201 C   0  0  0  0  0  0  0  0  0  0  0  0
   19.9318  -15.1428  -16.4808 O   0  0  0  0  0  0  0  0  0  0  0  0
   19.6589  -14.6129  -14.2642 O   0  0  0  0  0  0  0  0  0  0  0  0
  2  1  1  1
  3  2  1  0
  4  2  1  0
  4  6  1  0
  4  5  1  6
  6  7  2  0
  8  6  1  0
  8  9  1  0
  9 10  1  1
 11 10  1  0
 12 11  2  0
 13 12  1  0
 14 13  1  0
 14 15  2  0
 15 11  1  0
 16  9  1  0
 16 17  2  0
 19 18  1  6
 19 21  1  0
 19 20  1  0
 22 21  1  6
 22 23  1  0
 23 16  1  0
 24 26  1  0
 24 22  1  0
 25 24  2  0
M  END
$$$$
