THL.pdb
     RDKit          3D

 26 26  0  0  1  0  0  0  0  0999 V2000
   28.2786  -23.0177  -16.4569 C   0  0  0  0  0  0  0  0  0  0  0  0
   27.7173  -22.2644  -15.2771 C   0  0  1  0  0  0  0  0  0  0  0  0
   28.7373  -21.5290  -14.6883 O   0  0  0  0  0  0  0  0  0  0  0  0
   26.6442  -21.2979  -15.7119 C   0  0  2  0  0  0  0  0  0  0  0  0
   27.0558  -20.4004  -16.7430 N   0  0  0  0  0  0  0  0  0  0  0  0
   26.0639  -20.6228  -14.5260 C   0  0  0  0  0  0  0  0  0  0  0  0
   26.3738  -19.4223  -14.3405 O   0  0  0  0  0  0  0  0  0  0  0  0
   25.1921  -21.2537  -13.6075 N   0  0  0  0  0  0  0  0  0  0  0  0
   24.6331  -20.5870  -12.4361 C   0  0  1  0  0  0  0  0  0  0  0  0
   23.1681  -20.7653  -12.3367 C   0  0  0  0  0  0  0  0  0  0  0  0
   22.4533  -19.9674  -13.3559 C   0  0  0  0  0  0  0  0  0  0  0  0
   22.9603  -19.0928  -14.3100 C   0  0  0  0  0  0  0  0  0  0  0  0
   21.9405  -18.5568  -15.0011 N   0  0  0  0  0  0  0  0  0  0  0  0
   20.7880  -19.0541  -14.5272 C   0  0  0  0  0  0  0  0  0  0  0  0
   21.0999  -19.9015  -13.5385 N   0  0  0  0  0  0  0  0  0  0  0  0
   25.2826  -21.1348  -11.2244 C   0  0  0  0  0  0  0  0  0  0  0  0
   25.6609  -22.3493  -11.1734 O   0  0  0  0  0  0  0  0  0  0  0  0
   27.7380  -18.6363   -6.1871 C   0  0  0  0  0  0  0  0  0  0  0  0
   27.4996  -19.8517   -7.0103 C   0  0  2  0  0  0  0  0  0  0  0  0
   28.8310  -20.6267   -7.0661 C   0  0  0  0  0  0  0  0  0  0  0  0
   26.8934  -19.7265   -8.3380 C   0  0  0  0  0  0  0  0  0  0  0  0
   26.0656  -20.8410   -8.8805 C   0  0  2  0  0  0  0  0  0  0  0  0
   25.4701  -20.2671  -10.1252 N   0  0  0  0  0  0  0  0  0  0  0  0
   24.9151  -21.1942   -8.0574 C   0  0  0  0  0  0  0  0  0  0  0  0
   24.9669  -22.0964   -7.1781 O   0  0  0  0  0  0  0  0  0  0  0  0
   23.6900  -20.5105   -8.2376 O   0  0  0  0  0  0  0  0  0  0  0  0
  2  1  1  6
  3  2  1  0
  4  2  1  0
  4  6  1  0
  4  5  1  6
  6  7  2  0
  8  6  1  0
  8  9  1  0
  9 10  1  1
 11 10  1  0
 12 11  2  0
 13 12  1  0
 14 13  1  0
 14 15  2  0
 15 11  1  0
 16  9  1  0
 16 17  2  0
 19 18  1  6
 19 21  1  0
 19 20  1  0
 22 21  1  1
 22 23  1  0
 23 16  1  0
 24 26  1  0
 24 22  1  0
 25 24  2  0
M  END
$$$$
