THL.pdb
     RDKit          3D

 26 26  0  0  1  0  0  0  0  0999 V2000
   19.0360  -14.5695  -20.6932 C   0  0  0  0  0  0  0  0  0  0  0  0
   20.0702  -13.6049  -21.2172 C   0  0  1  0  0  0  0  0  0  0  0  0
   19.4661  -12.3732  -21.4324 O   0  0  0  0  0  0  0  0  0  0  0  0
   21.1808  -13.4047  -20.2167 C   0  0  2  0  0  0  0  0  0  0  0  0
   21.9534  -14.5788  -19.9658 N   0  0  0  0  0  0  0  0  0  0  0  0
   20.6449  -12.7665  -18.9902 C   0  0  0  0  0  0  0  0  0  0  0  0
   19.4278  -12.4660  -18.9848 O   0  0  0  0  0  0  0  0  0  0  0  0
   21.4240  -12.4835  -17.8437 N   0  0  0  0  0  0  0  0  0  0  0  0
   20.8843  -11.8823  -16.6286 C   0  0  1  0  0  0  0  0  0  0  0  0
   21.1612  -12.7012  -15.4284 C   0  0  0  0  0  0  0  0  0  0  0  0
   20.3342  -13.9267  -15.4042 C   0  0  0  0  0  0  0  0  0  0  0  0
   19.2727  -14.2937  -16.2231 C   0  0  0  0  0  0  0  0  0  0  0  0
   18.7906  -15.4788  -15.8134 N   0  0  0  0  0  0  0  0  0  0  0  0
   19.5037  -15.8935  -14.7552 C   0  0  0  0  0  0  0  0  0  0  0  0
   20.4305  -14.9582  -14.5120 N   0  0  0  0  0  0  0  0  0  0  0  0
   21.4803  -10.5382  -16.4602 C   0  0  0  0  0  0  0  0  0  0  0  0
   22.5638  -10.2211  -17.0487 O   0  0  0  0  0  0  0  0  0  0  0  0
   20.6680   -5.8830  -18.7678 C   0  0  0  0  0  0  0  0  0  0  0  0
   21.1580   -6.3652  -17.4490 C   0  0  2  0  0  0  0  0  0  0  0  0
   22.6461   -5.9750  -17.3508 C   0  0  0  0  0  0  0  0  0  0  0  0
   20.9397   -7.7591  -17.0546 C   0  0  0  0  0  0  0  0  0  0  0  0
   21.2549   -8.1913  -15.6633 C   0  0  2  0  0  0  0  0  0  0  0  0
   20.8087   -9.6171  -15.6253 N   0  0  0  0  0  0  0  0  0  0  0  0
   20.4598   -7.5348  -14.6326 C   0  0  0  0  0  0  0  0  0  0  0  0
   19.3019   -7.9262  -14.3231 O   0  0  0  0  0  0  0  0  0  0  0  0
   20.9907   -6.4184  -13.9449 O   0  0  0  0  0  0  0  0  0  0  0  0
  2  1  1  1
  3  2  1  0
  4  2  1  0
  4  6  1  0
  4  5  1  1
  6  7  2  0
  8  6  1  0
  8  9  1  0
  9 10  1  1
 11 10  1  0
 12 11  2  0
 13 12  1  0
 14 13  1  0
 14 15  2  0
 15 11  1  0
 16  9  1  0
 16 17  2  0
 19 18  1  6
 19 21  1  0
 19 20  1  0
 22 21  1  6
 22 23  1  0
 23 16  1  0
 24 26  1  0
 24 22  1  0
 25 24  2  0
M  END
$$$$
