THL.pdb
     RDKit          3D

 26 26  0  0  1  0  0  0  0  0999 V2000
   15.9290  -11.4912  -15.3476 C   0  0  0  0  0  0  0  0  0  0  0  0
   16.4688  -12.8852  -15.5470 C   0  0  1  0  0  0  0  0  0  0  0  0
   15.4192  -13.7897  -15.4565 O   0  0  0  0  0  0  0  0  0  0  0  0
   17.0901  -13.0356  -16.9131 C   0  0  2  0  0  0  0  0  0  0  0  0
   17.5901  -14.3456  -17.1814 N   0  0  0  0  0  0  0  0  0  0  0  0
   18.0835  -11.9575  -17.1360 C   0  0  0  0  0  0  0  0  0  0  0  0
   19.2729  -12.1996  -16.8222 O   0  0  0  0  0  0  0  0  0  0  0  0
   17.7635  -10.6896  -17.6760 N   0  0  0  0  0  0  0  0  0  0  0  0
   18.7617   -9.6810  -18.0156 C   0  0  1  0  0  0  0  0  0  0  0  0
   18.2601   -8.7109  -19.0132 C   0  0  0  0  0  0  0  0  0  0  0  0
   18.3265   -9.2589  -20.3850 C   0  0  0  0  0  0  0  0  0  0  0  0
   19.2831  -10.0862  -20.9617 C   0  0  0  0  0  0  0  0  0  0  0  0
   18.9599  -10.3022  -22.2476 N   0  0  0  0  0  0  0  0  0  0  0  0
   17.8253   -9.6422  -22.5253 C   0  0  0  0  0  0  0  0  0  0  0  0
   17.4474   -9.0162  -21.4036 N   0  0  0  0  0  0  0  0  0  0  0  0
   19.1512   -8.9653  -16.7802 C   0  0  0  0  0  0  0  0  0  0  0  0
   18.2915   -8.6852  -15.8840 O   0  0  0  0  0  0  0  0  0  0  0  0
   21.7466  -10.0822  -13.0831 C   0  0  0  0  0  0  0  0  0  0  0  0
   22.3954   -9.8700  -14.4044 C   0  0  2  0  0  0  0  0  0  0  0  0
   23.8700  -10.2939  -14.2558 C   0  0  0  0  0  0  0  0  0  0  0  0
   22.2727   -8.5749  -15.0779 C   0  0  0  0  0  0  0  0  0  0  0  0
   20.9217   -7.9955  -15.3248 C   0  0  2  0  0  0  0  0  0  0  0  0
   20.5081   -8.6025  -16.6263 N   0  0  0  0  0  0  0  0  0  0  0  0
   20.9178   -6.5594  -15.5768 C   0  0  0  0  0  0  0  0  0  0  0  0
   20.9773   -6.0792  -16.7411 O   0  0  0  0  0  0  0  0  0  0  0  0
   20.8443   -5.6587  -14.4885 O   0  0  0  0  0  0  0  0  0  0  0  0
  2  1  1  6
  3  2  1  0
  4  2  1  0
  4  6  1  0
  4  5  1  1
  6  7  2  0
  8  6  1  0
  8  9  1  0
  9 10  1  6
 11 10  1  0
 12 11  2  0
 13 12  1  0
 14 13  1  0
 14 15  2  0
 15 11  1  0
 16  9  1  0
 16 17  2  0
 19 18  1  1
 19 21  1  0
 19 20  1  0
 22 21  1  6
 22 23  1  0
 23 16  1  0
 24 26  1  0
 24 22  1  0
 25 24  2  0
M  END
$$$$
