THL.pdb
     RDKit          3D

 26 26  0  0  1  0  0  0  0  0999 V2000
   22.0061  -11.4764  -18.1201 C   0  0  0  0  0  0  0  0  0  0  0  0
   21.5106  -10.2162  -17.4561 C   0  0  1  0  0  0  0  0  0  0  0  0
   21.6592   -9.1556  -18.3399 O   0  0  0  0  0  0  0  0  0  0  0  0
   20.0468  -10.3257  -17.1098 C   0  0  2  0  0  0  0  0  0  0  0  0
   19.1928  -10.4784  -18.2436 N   0  0  0  0  0  0  0  0  0  0  0  0
   19.6571   -9.2120  -16.2116 C   0  0  0  0  0  0  0  0  0  0  0  0
   19.2836   -8.1438  -16.7511 O   0  0  0  0  0  0  0  0  0  0  0  0
   19.6846   -9.2914  -14.7994 N   0  0  0  0  0  0  0  0  0  0  0  0
   19.3296   -8.1818  -13.9209 C   0  0  1  0  0  0  0  0  0  0  0  0
   18.8773   -8.6438  -12.5905 C   0  0  0  0  0  0  0  0  0  0  0  0
   18.5181   -7.5083  -11.7142 C   0  0  0  0  0  0  0  0  0  0  0  0
   18.4606   -6.1503  -12.0051 C   0  0  0  0  0  0  0  0  0  0  0  0
   18.1246   -5.4762  -10.8927 N   0  0  0  0  0  0  0  0  0  0  0  0
   17.9622   -6.3516   -9.8888 C   0  0  0  0  0  0  0  0  0  0  0  0
   18.1996   -7.5719  -10.3861 N   0  0  0  0  0  0  0  0  0  0  0  0
   20.5108   -7.3038  -13.7658 C   0  0  0  0  0  0  0  0  0  0  0  0
   21.6622   -7.7883  -13.5202 O   0  0  0  0  0  0  0  0  0  0  0  0
   20.2359   -3.9730  -16.5735 C   0  0  0  0  0  0  0  0  0  0  0  0
   21.6786   -4.2007  -16.2930 C   0  0  2  0  0  0  0  0  0  0  0  0
   22.3590   -4.4986  -17.6438 C   0  0  0  0  0  0  0  0  0  0  0  0
   22.0788   -5.1640  -15.2645 C   0  0  0  0  0  0  0  0  0  0  0  0
   21.5344   -5.0384  -13.8825 C   0  0  2  0  0  0  0  0  0  0  0  0
   20.3207   -5.9101  -13.8990 N   0  0  0  0  0  0  0  0  0  0  0  0
   21.0246   -3.7128  -13.5529 C   0  0  0  0  0  0  0  0  0  0  0  0
   19.7917   -3.4493  -13.5381 O   0  0  0  0  0  0  0  0  0  0  0  0
   21.9308   -2.6741  -13.2353 O   0  0  0  0  0  0  0  0  0  0  0  0
  2  1  1  6
  3  2  1  0
  4  2  1  0
  4  6  1  0
  4  5  1  6
  6  7  2  0
  8  6  1  0
  8  9  1  0
  9 10  1  1
 11 10  1  0
 12 11  2  0
 13 12  1  0
 14 13  1  0
 14 15  2  0
 15 11  1  0
 16  9  1  0
 16 17  2  0
 19 18  1  6
 19 21  1  0
 19 20  1  0
 22 21  1  6
 22 23  1  0
 23 16  1  0
 24 26  1  0
 24 22  1  0
 25 24  2  0
M  END
$$$$
