THL.pdb
     RDKit          3D

 26 26  0  0  1  0  0  0  0  0999 V2000
   12.7772   -9.5215  -13.8257 C   0  0  0  0  0  0  0  0  0  0  0  0
   13.3547  -10.8555  -14.2275 C   0  0  1  0  0  0  0  0  0  0  0  0
   12.5444  -11.4190  -15.2041 O   0  0  0  0  0  0  0  0  0  0  0  0
   14.7359  -10.6944  -14.8115 C   0  0  2  0  0  0  0  0  0  0  0  0
   15.3130  -11.9134  -15.2798 N   0  0  0  0  0  0  0  0  0  0  0  0
   15.5990   -9.9475  -13.8649 C   0  0  0  0  0  0  0  0  0  0  0  0
   16.0445  -10.5764  -12.8762 O   0  0  0  0  0  0  0  0  0  0  0  0
   15.9403   -8.5830  -14.0176 N   0  0  0  0  0  0  0  0  0  0  0  0
   16.8963   -7.8888  -13.1612 C   0  0  1  0  0  0  0  0  0  0  0  0
   18.0428   -7.3497  -13.9246 C   0  0  0  0  0  0  0  0  0  0  0  0
   18.8679   -8.4321  -14.5025 C   0  0  0  0  0  0  0  0  0  0  0  0
   18.8694   -8.9508  -15.7921 C   0  0  0  0  0  0  0  0  0  0  0  0
   19.7588   -9.9552  -15.8610 N   0  0  0  0  0  0  0  0  0  0  0  0
   20.3348  -10.1063  -14.6587 C   0  0  0  0  0  0  0  0  0  0  0  0
   19.7970   -9.1893  -13.8446 N   0  0  0  0  0  0  0  0  0  0  0  0
   16.1969   -6.7830  -12.4698 C   0  0  0  0  0  0  0  0  0  0  0  0
   15.4409   -5.9821  -13.1085 O   0  0  0  0  0  0  0  0  0  0  0  0
   13.3741   -8.2181   -8.7675 C   0  0  0  0  0  0  0  0  0  0  0  0
   14.5597   -7.3475   -8.9865 C   0  0  2  0  0  0  0  0  0  0  0  0
   15.1131   -6.9810   -7.5953 C   0  0  0  0  0  0  0  0  0  0  0  0
   14.4502   -6.1691   -9.8500 C   0  0  0  0  0  0  0  0  0  0  0  0
   15.6849   -5.5266  -10.3834 C   0  0  2  0  0  0  0  0  0  0  0  0
   16.3943   -6.6438  -11.0777 N   0  0  0  0  0  0  0  0  0  0  0  0
   16.6235   -5.0809   -9.3606 C   0  0  0  0  0  0  0  0  0  0  0  0
   16.3846   -4.0968   -8.6095 O   0  0  0  0  0  0  0  0  0  0  0  0
   17.8497   -5.7653   -9.1908 O   0  0  0  0  0  0  0  0  0  0  0  0
  2  1  1  6
  3  2  1  0
  4  2  1  0
  4  6  1  0
  4  5  1  1
  6  7  2  0
  8  6  1  0
  8  9  1  0
  9 10  1  6
 11 10  1  0
 12 11  2  0
 13 12  1  0
 14 13  1  0
 14 15  2  0
 15 11  1  0
 16  9  1  0
 16 17  2  0
 19 18  1  1
 19 21  1  0
 19 20  1  0
 22 21  1  1
 22 23  1  0
 23 16  1  0
 24 26  1  0
 24 22  1  0
 25 24  2  0
M  END
$$$$
