THL.pdb
     RDKit          3D

 26 26  0  0  1  0  0  0  0  0999 V2000
   16.9638   -9.3801  -19.1940 C   0  0  0  0  0  0  0  0  0  0  0  0
   17.7957   -8.7869  -18.0847 C   0  0  1  0  0  0  0  0  0  0  0  0
   16.9470   -8.2599  -17.1204 O   0  0  0  0  0  0  0  0  0  0  0  0
   18.6471   -9.8412  -17.4226 C   0  0  2  0  0  0  0  0  0  0  0  0
   17.9018  -10.9303  -16.8782 N   0  0  0  0  0  0  0  0  0  0  0  0
   19.5736   -9.2057  -16.4547 C   0  0  0  0  0  0  0  0  0  0  0  0
   19.1154   -8.9241  -15.3222 O   0  0  0  0  0  0  0  0  0  0  0  0
   20.9266   -8.9054  -16.7389 N   0  0  0  0  0  0  0  0  0  0  0  0
   21.8317   -8.2748  -15.7838 C   0  0  1  0  0  0  0  0  0  0  0  0
   23.2227   -8.7565  -15.9290 C   0  0  0  0  0  0  0  0  0  0  0  0
   23.3399  -10.1899  -15.5855 C   0  0  0  0  0  0  0  0  0  0  0  0
   22.3834  -11.0571  -15.0705 C   0  0  0  0  0  0  0  0  0  0  0  0
   22.9425  -12.2630  -14.8759 N   0  0  0  0  0  0  0  0  0  0  0  0
   24.2306  -12.2076  -15.2472 C   0  0  0  0  0  0  0  0  0  0  0  0
   24.4661  -10.9602  -15.6731 N   0  0  0  0  0  0  0  0  0  0  0  0
   21.7905   -6.8097  -15.9884 C   0  0  0  0  0  0  0  0  0  0  0  0
   21.5000   -6.3125  -17.1239 O   0  0  0  0  0  0  0  0  0  0  0  0
   20.0071   -1.9979  -14.4315 C   0  0  0  0  0  0  0  0  0  0  0  0
   19.9442   -2.9779  -15.5484 C   0  0  2  0  0  0  0  0  0  0  0  0
   18.4808   -3.0179  -16.0313 C   0  0  0  0  0  0  0  0  0  0  0  0
   20.4887   -4.3259  -15.3680 C   0  0  0  0  0  0  0  0  0  0  0  0
   21.9374   -4.5032  -15.0654 C   0  0  2  0  0  0  0  0  0  0  0  0
   22.0835   -5.9793  -14.8835 N   0  0  0  0  0  0  0  0  0  0  0  0
   22.3614   -3.9368  -13.7906 C   0  0  0  0  0  0  0  0  0  0  0  0
   22.2922   -4.5826  -12.7098 O   0  0  0  0  0  0  0  0  0  0  0  0
   22.8713   -2.6182  -13.7462 O   0  0  0  0  0  0  0  0  0  0  0  0
  2  1  1  6
  3  2  1  0
  4  2  1  0
  4  6  1  0
  4  5  1  1
  6  7  2  0
  8  6  1  0
  8  9  1  0
  9 10  1  6
 11 10  1  0
 12 11  2  0
 13 12  1  0
 14 13  1  0
 14 15  2  0
 15 11  1  0
 16  9  1  0
 16 17  2  0
 19 18  1  1
 19 21  1  0
 19 20  1  0
 22 21  1  1
 22 23  1  0
 23 16  1  0
 24 26  1  0
 24 22  1  0
 25 24  2  0
M  END
$$$$
