THL.pdb
     RDKit          3D

 26 26  0  0  1  0  0  0  0  0999 V2000
   15.3432  -14.3004  -15.8921 C   0  0  0  0  0  0  0  0  0  0  0  0
   16.4189  -13.2646  -16.1036 C   0  0  1  0  0  0  0  0  0  0  0  0
   17.4449  -13.4921  -15.1961 O   0  0  0  0  0  0  0  0  0  0  0  0
   17.0010  -13.3633  -17.4914 C   0  0  2  0  0  0  0  0  0  0  0  0
   17.5580  -14.6419  -17.7967 N   0  0  0  0  0  0  0  0  0  0  0  0
   17.9301  -12.2325  -17.7294 C   0  0  0  0  0  0  0  0  0  0  0  0
   19.1348  -12.5131  -17.9335 O   0  0  0  0  0  0  0  0  0  0  0  0
   17.5335  -10.8745  -17.7380 N   0  0  0  0  0  0  0  0  0  0  0  0
   18.4413   -9.7698  -18.0289 C   0  0  1  0  0  0  0  0  0  0  0  0
   17.7399   -8.6103  -18.6219 C   0  0  0  0  0  0  0  0  0  0  0  0
   17.2967   -8.8922  -20.0040 C   0  0  0  0  0  0  0  0  0  0  0  0
   16.0173   -9.1345  -20.4906 C   0  0  0  0  0  0  0  0  0  0  0  0
   16.0879   -9.3815  -21.8092 N   0  0  0  0  0  0  0  0  0  0  0  0
   17.3708   -9.3081  -22.1951 C   0  0  0  0  0  0  0  0  0  0  0  0
   18.0945   -9.0139  -21.1076 N   0  0  0  0  0  0  0  0  0  0  0  0
   19.1046   -9.3581  -16.7716 C   0  0  0  0  0  0  0  0  0  0  0  0
   18.4559   -9.2885  -15.6784 O   0  0  0  0  0  0  0  0  0  0  0  0
   24.8793   -9.9003  -14.8998 C   0  0  0  0  0  0  0  0  0  0  0  0
   23.5071   -9.3863  -14.6455 C   0  0  2  0  0  0  0  0  0  0  0  0
   23.0439   -9.9832  -13.3020 C   0  0  0  0  0  0  0  0  0  0  0  0
   22.4757   -9.5181  -15.6775 C   0  0  0  0  0  0  0  0  0  0  0  0
   21.1841   -8.7891  -15.5285 C   0  0  2  0  0  0  0  0  0  0  0  0
   20.4814   -9.0448  -16.8224 N   0  0  0  0  0  0  0  0  0  0  0  0
   21.3136   -7.3382  -15.4665 C   0  0  0  0  0  0  0  0  0  0  0  0
   21.3413   -6.6191  -16.5018 O   0  0  0  0  0  0  0  0  0  0  0  0
   21.4121   -6.6981  -14.2089 O   0  0  0  0  0  0  0  0  0  0  0  0
  2  1  1  6
  3  2  1  0
  4  2  1  0
  4  6  1  0
  4  5  1  1
  6  7  2  0
  8  6  1  0
  8  9  1  0
  9 10  1  1
 11 10  1  0
 12 11  2  0
 13 12  1  0
 14 13  1  0
 14 15  2  0
 15 11  1  0
 16  9  1  0
 16 17  2  0
 19 18  1  6
 19 21  1  0
 19 20  1  0
 22 21  1  6
 22 23  1  0
 23 16  1  0
 24 26  1  0
 24 22  1  0
 25 24  2  0
M  END
$$$$
