HNK.pdb
     RDKit          3D

 28 28  0  0  1  0  0  0  0  0999 V2000
   25.3504  -19.4650  -17.6993 N   0  0  0  0  0  0  0  0  0  0  0  0
   24.4946  -18.6910  -16.8218 C   0  0  1  0  0  0  0  0  0  0  0  0
   23.5638  -17.8362  -17.6844 C   0  0  0  0  0  0  0  0  0  0  0  0
   24.3326  -16.8029  -18.4181 C   0  0  0  0  0  0  0  0  0  0  0  0
   24.4600  -16.6478  -19.7816 C   0  0  0  0  0  0  0  0  0  0  0  0
   25.2546  -15.5709  -20.0274 N   0  0  0  0  0  0  0  0  0  0  0  0
   25.6176  -15.0615  -18.8375 C   0  0  0  0  0  0  0  0  0  0  0  0
   25.0561  -15.8122  -17.8776 N   0  0  0  0  0  0  0  0  0  0  0  0
   23.7129  -19.6352  -15.9847 C   0  0  0  0  0  0  0  0  0  0  0  0
   23.1194  -20.5929  -16.5376 O   0  0  0  0  0  0  0  0  0  0  0  0
   24.6593  -22.3547  -13.6390 N   0  0  0  0  0  0  0  0  0  0  0  0
   24.4528  -21.6455  -12.4292 C   0  0  0  0  0  0  0  0  0  0  0  0
   25.1298  -21.9617  -11.4211 O   0  0  0  0  0  0  0  0  0  0  0  0
   23.4377  -20.5611  -12.4295 C   0  0  0  0  0  0  0  0  0  0  0  0
   22.8041  -20.3857  -13.7851 C   0  0  2  0  0  0  0  0  0  0  0  0
   23.6030  -19.5064  -14.5794 N   0  0  0  0  0  0  0  0  0  0  0  0
   21.3906  -19.9361  -13.6850 C   0  0  0  0  0  0  0  0  0  0  0  0
   21.1940  -18.7512  -13.2826 O   0  0  0  0  0  0  0  0  0  0  0  0
   20.2923  -20.7364  -14.0052 N   0  0  0  0  0  0  0  0  0  0  0  0
   18.8872  -20.2292  -13.8976 C   0  0  1  0  0  0  0  0  0  0  0  0
   17.9901  -21.1650  -14.5913 C   0  0  0  0  0  0  0  0  0  0  0  0
   16.5424  -20.9679  -14.6451 C   0  0  0  0  0  0  0  0  0  0  0  0
   15.6474  -21.9350  -15.2811 C   0  0  0  0  0  0  0  0  0  0  0  0
   14.2043  -21.6086  -15.4454 C   0  0  0  0  0  0  0  0  0  0  0  0
   13.3707  -22.7222  -15.8166 N   0  0  0  0  0  0  0  0  0  0  0  0
   18.5935  -20.1137  -12.4337 C   0  0  0  0  0  0  0  0  0  0  0  0
   19.1744  -21.0197  -11.5189 O   0  0  0  0  0  0  0  0  0  0  0  0
   17.8539  -19.2580  -11.9229 O   0  0  0  0  0  0  0  0  0  0  0  0
  2  1  1  6
  2  9  1  0
  3  2  1  0
  4  3  1  0
  5  4  2  0
  6  5  1  0
  7  6  1  0
  7  8  2  0
  8  4  1  0
  9 10  2  0
 11 12  1  0
 12 14  1  0
 13 12  2  0
 15 14  1  1
 15 17  1  0
 16  9  1  0
 16 15  1  0
 17 18  2  0
 19 20  1  0
 19 17  1  0
 20 26  1  0
 20 21  1  1
 22 21  1  0
 23 22  1  0
 24 23  1  0
 25 24  1  0
 26 28  2  0
 26 27  1  0
M  END
$$$$
