HNK.pdb
     RDKit          3D

 28 28  0  0  1  0  0  0  0  0999 V2000
   18.2695  -20.5404  -18.9402 N   0  0  0  0  0  0  0  0  0  0  0  0
   18.5649  -19.2132  -18.4374 C   0  0  1  0  0  0  0  0  0  0  0  0
   19.2978  -18.4338  -19.5312 C   0  0  0  0  0  0  0  0  0  0  0  0
   20.6287  -19.0299  -19.7961 C   0  0  0  0  0  0  0  0  0  0  0  0
   21.0147  -19.8019  -20.8706 C   0  0  0  0  0  0  0  0  0  0  0  0
   22.3242  -20.1395  -20.7193 N   0  0  0  0  0  0  0  0  0  0  0  0
   22.7494  -19.5878  -19.5696 C   0  0  0  0  0  0  0  0  0  0  0  0
   21.7194  -18.9231  -19.0241 N   0  0  0  0  0  0  0  0  0  0  0  0
   17.2818  -18.5513  -18.0927 C   0  0  0  0  0  0  0  0  0  0  0  0
   16.3810  -18.4761  -18.9634 O   0  0  0  0  0  0  0  0  0  0  0  0
   14.3160  -19.7318  -16.2289 N   0  0  0  0  0  0  0  0  0  0  0  0
   14.6920  -19.1380  -14.9980 C   0  0  0  0  0  0  0  0  0  0  0  0
   14.4076  -19.7316  -13.9296 O   0  0  0  0  0  0  0  0  0  0  0  0
   15.4066  -17.8368  -15.0491 C   0  0  0  0  0  0  0  0  0  0  0  0
   15.7536  -17.4421  -16.4611 C   0  0  2  0  0  0  0  0  0  0  0  0
   17.0224  -17.9951  -16.8172 N   0  0  0  0  0  0  0  0  0  0  0  0
   15.6993  -15.9694  -16.6568 C   0  0  0  0  0  0  0  0  0  0  0  0
   16.6998  -15.3019  -16.2592 O   0  0  0  0  0  0  0  0  0  0  0  0
   14.6247  -15.2990  -17.2443 N   0  0  0  0  0  0  0  0  0  0  0  0
   14.6264  -13.8127  -17.4285 C   0  0  1  0  0  0  0  0  0  0  0  0
   13.5296  -13.4455  -18.3362 C   0  0  0  0  0  0  0  0  0  0  0  0
   13.2690  -12.0619  -18.7302 C   0  0  0  0  0  0  0  0  0  0  0  0
   12.1922  -11.7044  -19.6542 C   0  0  0  0  0  0  0  0  0  0  0  0
   12.0306  -10.2895  -20.0878 C   0  0  0  0  0  0  0  0  0  0  0  0
   10.8944  -10.0431  -20.9369 N   0  0  0  0  0  0  0  0  0  0  0  0
   14.4777  -13.2200  -16.0613 C   0  0  0  0  0  0  0  0  0  0  0  0
   13.7999  -13.9332  -15.0478 O   0  0  0  0  0  0  0  0  0  0  0  0
   14.9132  -12.1101  -15.7170 O   0  0  0  0  0  0  0  0  0  0  0  0
  2  1  1  6
  2  9  1  0
  3  2  1  0
  4  3  1  0
  5  4  2  0
  6  5  1  0
  7  6  1  0
  7  8  2  0
  8  4  1  0
  9 10  2  0
 11 12  1  0
 12 14  1  0
 13 12  2  0
 15 14  1  1
 15 17  1  0
 16  9  1  0
 16 15  1  0
 17 18  2  0
 19 20  1  0
 19 17  1  0
 20 26  1  0
 20 21  1  6
 22 21  1  0
 23 22  1  0
 24 23  1  0
 25 24  1  0
 26 28  2  0
 26 27  1  0
M  END
$$$$
