HNK.pdb
     RDKit          3D

 28 28  0  0  1  0  0  0  0  0999 V2000
   24.8430  -33.7152   -3.9942 N   0  0  0  0  0  0  0  0  0  0  0  0
   26.0152  -32.9571   -3.6032 C   0  0  1  0  0  0  0  0  0  0  0  0
   26.0147  -31.6346   -4.3728 C   0  0  0  0  0  0  0  0  0  0  0  0
   26.2554  -31.8692   -5.8163 C   0  0  0  0  0  0  0  0  0  0  0  0
   27.4338  -32.2304   -6.4329 C   0  0  0  0  0  0  0  0  0  0  0  0
   27.2120  -32.3412   -7.7709 N   0  0  0  0  0  0  0  0  0  0  0  0
   25.9165  -32.0540   -7.9868 C   0  0  0  0  0  0  0  0  0  0  0  0
   25.3526  -31.7717   -6.8025 N   0  0  0  0  0  0  0  0  0  0  0  0
   25.9432  -32.7125   -2.1410 C   0  0  0  0  0  0  0  0  0  0  0  0
   26.8190  -31.9956   -1.5985 O   0  0  0  0  0  0  0  0  0  0  0  0
   21.5017  -31.7820   -0.2621 N   0  0  0  0  0  0  0  0  0  0  0  0
   22.7044  -31.8323    0.4862 C   0  0  0  0  0  0  0  0  0  0  0  0
   23.1042  -30.7887    1.0571 O   0  0  0  0  0  0  0  0  0  0  0  0
   23.4245  -33.1299    0.5492 C   0  0  0  0  0  0  0  0  0  0  0  0
   24.8520  -33.0028    0.0845 C   0  0  2  0  0  0  0  0  0  0  0  0
   24.9248  -33.2540   -1.3205 N   0  0  0  0  0  0  0  0  0  0  0  0
   25.7714  -33.8708    0.8664 C   0  0  0  0  0  0  0  0  0  0  0  0
   25.6335  -35.1223    0.7274 O   0  0  0  0  0  0  0  0  0  0  0  0
   26.7582  -33.3870    1.7275 N   0  0  0  0  0  0  0  0  0  0  0  0
   27.6598  -34.3069    2.4916 C   0  0  1  0  0  0  0  0  0  0  0  0
   28.9049  -33.5934    2.8119 C   0  0  0  0  0  0  0  0  0  0  0  0
   29.9684  -34.1955    3.6145 C   0  0  0  0  0  0  0  0  0  0  0  0
   31.1277  -33.4293    4.0725 C   0  0  0  0  0  0  0  0  0  0  0  0
   32.1881  -34.1018    4.8722 C   0  0  0  0  0  0  0  0  0  0  0  0
   33.2967  -33.2588    5.2372 N   0  0  0  0  0  0  0  0  0  0  0  0
   26.8965  -34.7271    3.7095 C   0  0  0  0  0  0  0  0  0  0  0  0
   25.9779  -33.8401    4.3133 O   0  0  0  0  0  0  0  0  0  0  0  0
   26.9982  -35.8319    4.2655 O   0  0  0  0  0  0  0  0  0  0  0  0
  2  1  1  6
  2  9  1  0
  3  2  1  0
  4  3  1  0
  5  4  2  0
  6  5  1  0
  7  6  1  0
  7  8  2  0
  8  4  1  0
  9 10  2  0
 11 12  1  0
 12 14  1  0
 13 12  2  0
 15 14  1  1
 15 17  1  0
 16  9  1  0
 16 15  1  0
 17 18  2  0
 19 20  1  0
 19 17  1  0
 20 26  1  0
 20 21  1  1
 22 21  1  0
 23 22  1  0
 24 23  1  0
 25 24  1  0
 26 28  2  0
 26 27  1  0
M  END
$$$$
