HNK.pdb
     RDKit          3D

 28 28  0  0  1  0  0  0  0  0999 V2000
   17.8744  -11.9632  -15.1888 N   0  0  0  0  0  0  0  0  0  0  0  0
   18.5398  -11.3546  -16.3239 C   0  0  1  0  0  0  0  0  0  0  0  0
   17.5017  -11.1156  -17.4221 C   0  0  0  0  0  0  0  0  0  0  0  0
   17.0195  -12.4033  -17.9755 C   0  0  0  0  0  0  0  0  0  0  0  0
   17.6783  -13.2595  -18.8313 C   0  0  0  0  0  0  0  0  0  0  0  0
   16.8743  -14.3272  -19.0871 N   0  0  0  0  0  0  0  0  0  0  0  0
   15.7324  -14.1413  -18.4026 C   0  0  0  0  0  0  0  0  0  0  0  0
   15.8329  -12.9800  -17.7381 N   0  0  0  0  0  0  0  0  0  0  0  0
   19.1363  -10.0705  -15.8783 C   0  0  0  0  0  0  0  0  0  0  0  0
   18.4593   -9.3030  -15.1517 O   0  0  0  0  0  0  0  0  0  0  0  0
   21.5905  -10.1203  -13.6988 N   0  0  0  0  0  0  0  0  0  0  0  0
   22.7281   -9.5570  -14.3295 C   0  0  0  0  0  0  0  0  0  0  0  0
   23.8662   -9.8292  -13.8765 O   0  0  0  0  0  0  0  0  0  0  0  0
   22.5005   -8.6703  -15.4994 C   0  0  0  0  0  0  0  0  0  0  0  0
   21.0329   -8.4528  -15.7616 C   0  0  2  0  0  0  0  0  0  0  0  0
   20.4443   -9.6653  -16.2368 N   0  0  0  0  0  0  0  0  0  0  0  0
   20.7951   -7.3071  -16.6787 C   0  0  0  0  0  0  0  0  0  0  0  0
   21.1509   -7.4562  -17.8852 O   0  0  0  0  0  0  0  0  0  0  0  0
   20.2117   -6.1009  -16.2859 N   0  0  0  0  0  0  0  0  0  0  0  0
   20.0229   -4.9659  -17.2446 C   0  0  1  0  0  0  0  0  0  0  0  0
   18.5977   -4.8714  -17.5937 C   0  0  0  0  0  0  0  0  0  0  0  0
   18.0582   -3.7723  -18.3927 C   0  0  0  0  0  0  0  0  0  0  0  0
   16.6443   -3.6979  -18.7616 C   0  0  0  0  0  0  0  0  0  0  0  0
   16.1776   -2.6284  -19.6860 C   0  0  0  0  0  0  0  0  0  0  0  0
   14.7629   -2.6344  -19.9528 N   0  0  0  0  0  0  0  0  0  0  0  0
   20.5381   -3.7418  -16.5528 C   0  0  0  0  0  0  0  0  0  0  0  0
   20.6604   -3.7194  -15.1458 O   0  0  0  0  0  0  0  0  0  0  0  0
   20.8843   -2.6957  -17.1239 O   0  0  0  0  0  0  0  0  0  0  0  0
  2  1  1  1
  2  9  1  0
  3  2  1  0
  4  3  1  0
  5  4  2  0
  6  5  1  0
  7  6  1  0
  7  8  2  0
  8  4  1  0
  9 10  2  0
 11 12  1  0
 12 14  1  0
 13 12  2  0
 15 14  1  6
 15 17  1  0
 16  9  1  0
 16 15  1  0
 17 18  2  0
 19 20  1  0
 19 17  1  0
 20 26  1  0
 20 21  1  1
 22 21  1  0
 23 22  1  0
 24 23  1  0
 25 24  1  0
 26 28  2  0
 26 27  1  0
M  END
$$$$
