HNK.pdb
     RDKit          3D

 28 28  0  0  1  0  0  0  0  0999 V2000
   25.8587  -31.8987  -13.0937 N   0  0  0  0  0  0  0  0  0  0  0  0
   25.1332  -33.1438  -12.9362 C   0  0  1  0  0  0  0  0  0  0  0  0
   25.6541  -34.1415  -13.9727 C   0  0  0  0  0  0  0  0  0  0  0  0
   26.8001  -33.5702  -14.7191 C   0  0  0  0  0  0  0  0  0  0  0  0
   28.0574  -33.2672  -14.2429 C   0  0  0  0  0  0  0  0  0  0  0  0
   28.8026  -32.7632  -15.2638 N   0  0  0  0  0  0  0  0  0  0  0  0
   28.0241  -32.7515  -16.3597 C   0  0  0  0  0  0  0  0  0  0  0  0
   26.8218  -33.2396  -16.0180 N   0  0  0  0  0  0  0  0  0  0  0  0
   25.3686  -33.6472  -11.5599 C   0  0  0  0  0  0  0  0  0  0  0  0
   26.5471  -33.8441  -11.1756 O   0  0  0  0  0  0  0  0  0  0  0  0
   26.5963  -32.7390   -8.6639 N   0  0  0  0  0  0  0  0  0  0  0  0
   25.3591  -32.4248   -8.0476 C   0  0  0  0  0  0  0  0  0  0  0  0
   25.2964  -31.4214   -7.2967 O   0  0  0  0  0  0  0  0  0  0  0  0
   24.2017  -33.3115   -8.3315 C   0  0  0  0  0  0  0  0  0  0  0  0
   24.5516  -34.3912   -9.3223 C   0  0  2  0  0  0  0  0  0  0  0  0
   24.3182  -33.9190  -10.6508 N   0  0  0  0  0  0  0  0  0  0  0  0
   23.8360  -35.6625   -9.0361 C   0  0  0  0  0  0  0  0  0  0  0  0
   22.5973  -35.6938   -9.2992 O   0  0  0  0  0  0  0  0  0  0  0  0
   24.4470  -36.7994   -8.5037 N   0  0  0  0  0  0  0  0  0  0  0  0
   23.6777  -38.0553   -8.2317 C   0  0  1  0  0  0  0  0  0  0  0  0
   24.6271  -39.1616   -8.0403 C   0  0  0  0  0  0  0  0  0  0  0  0
   24.1907  -40.5283   -7.7590 C   0  0  0  0  0  0  0  0  0  0  0  0
   25.1394  -41.6272   -7.5763 C   0  0  0  0  0  0  0  0  0  0  0  0
   24.6353  -43.0179   -7.4093 C   0  0  0  0  0  0  0  0  0  0  0  0
   25.6597  -44.0230   -7.2949 N   0  0  0  0  0  0  0  0  0  0  0  0
   22.8445  -37.7827   -7.0177 C   0  0  0  0  0  0  0  0  0  0  0  0
   21.6040  -38.4364   -6.8460 O   0  0  0  0  0  0  0  0  0  0  0  0
   23.1536  -37.0009   -6.1048 O   0  0  0  0  0  0  0  0  0  0  0  0
  2  1  1  1
  2  9  1  0
  3  2  1  0
  4  3  1  0
  5  4  2  0
  6  5  1  0
  7  6  1  0
  7  8  2  0
  8  4  1  0
  9 10  2  0
 11 12  1  0
 12 14  1  0
 13 12  2  0
 15 14  1  1
 15 17  1  0
 16  9  1  0
 16 15  1  0
 17 18  2  0
 19 20  1  0
 19 17  1  0
 20 26  1  0
 20 21  1  1
 22 21  1  0
 23 22  1  0
 24 23  1  0
 25 24  1  0
 26 28  2  0
 26 27  1  0
M  END
$$$$
