HNK.pdb
     RDKit          3D

 28 28  0  0  1  0  0  0  0  0999 V2000
   24.1477  -13.3026  -16.9478 N   0  0  0  0  0  0  0  0  0  0  0  0
   24.8622  -12.0522  -16.7821 C   0  0  1  0  0  0  0  0  0  0  0  0
   26.2417  -12.1941  -17.4286 C   0  0  0  0  0  0  0  0  0  0  0  0
   27.0446  -13.2240  -16.7276 C   0  0  0  0  0  0  0  0  0  0  0  0
   27.1460  -14.5668  -17.0212 C   0  0  0  0  0  0  0  0  0  0  0  0
   27.9912  -15.1479  -16.1271 N   0  0  0  0  0  0  0  0  0  0  0  0
   28.4111  -14.1845  -15.2888 C   0  0  0  0  0  0  0  0  0  0  0  0
   27.8339  -13.0319  -15.6613 N   0  0  0  0  0  0  0  0  0  0  0  0
   24.0802  -10.9794  -17.4459 C   0  0  0  0  0  0  0  0  0  0  0  0
   24.5348   -9.8095  -17.4549 O   0  0  0  0  0  0  0  0  0  0  0  0
   20.3534   -9.4638  -21.6078 N   0  0  0  0  0  0  0  0  0  0  0  0
   20.1883   -9.7061  -20.2211 C   0  0  0  0  0  0  0  0  0  0  0  0
   19.3417   -9.0311  -19.5869 O   0  0  0  0  0  0  0  0  0  0  0  0
   21.0363  -10.7545  -19.5978 C   0  0  0  0  0  0  0  0  0  0  0  0
   22.0555  -10.1662  -18.6572 C   0  0  2  0  0  0  0  0  0  0  0  0
   22.8342  -11.2138  -18.0753 N   0  0  0  0  0  0  0  0  0  0  0  0
   21.4280   -9.2882  -17.6347 C   0  0  0  0  0  0  0  0  0  0  0  0
   21.0521   -9.8408  -16.5587 O   0  0  0  0  0  0  0  0  0  0  0  0
   21.2363   -7.9147  -17.7968 N   0  0  0  0  0  0  0  0  0  0  0  0
   20.6131   -7.0726  -16.7265 C   0  0  1  0  0  0  0  0  0  0  0  0
   21.3329   -5.7928  -16.6500 C   0  0  0  0  0  0  0  0  0  0  0  0
   20.7037   -4.5185  -16.9934 C   0  0  0  0  0  0  0  0  0  0  0  0
   21.4232   -3.2471  -16.9115 C   0  0  0  0  0  0  0  0  0  0  0  0
   20.6901   -1.9689  -17.1235 C   0  0  0  0  0  0  0  0  0  0  0  0
   21.5027   -0.7837  -17.0348 N   0  0  0  0  0  0  0  0  0  0  0  0
   19.1729   -6.9121  -17.1039 C   0  0  0  0  0  0  0  0  0  0  0  0
   18.2479   -6.3921  -16.1715 O   0  0  0  0  0  0  0  0  0  0  0  0
   18.6911   -7.2058  -18.2092 O   0  0  0  0  0  0  0  0  0  0  0  0
  2  1  1  6
  2  9  1  0
  3  2  1  0
  4  3  1  0
  5  4  2  0
  6  5  1  0
  7  6  1  0
  7  8  2  0
  8  4  1  0
  9 10  2  0
 11 12  1  0
 12 14  1  0
 13 12  2  0
 15 14  1  1
 15 17  1  0
 16  9  1  0
 16 15  1  0
 17 18  2  0
 19 20  1  0
 19 17  1  0
 20 26  1  0
 20 21  1  6
 22 21  1  0
 23 22  1  0
 24 23  1  0
 25 24  1  0
 26 28  2  0
 26 27  1  0
M  END
$$$$
