HNK.pdb
     RDKit          3D

 28 28  0  0  1  0  0  0  0  0999 V2000
   18.2637  -10.6497  -16.7911 N   0  0  0  0  0  0  0  0  0  0  0  0
   18.7736  -10.7576  -15.4384 C   0  0  1  0  0  0  0  0  0  0  0  0
   19.6246  -12.0256  -15.3420 C   0  0  0  0  0  0  0  0  0  0  0  0
   18.8199  -13.2229  -15.6825 C   0  0  0  0  0  0  0  0  0  0  0  0
   17.6543  -13.6590  -15.0905 C   0  0  0  0  0  0  0  0  0  0  0  0
   17.2475  -14.7992  -15.7120 N   0  0  0  0  0  0  0  0  0  0  0  0
   18.1440  -15.0710  -16.6762 C   0  0  0  0  0  0  0  0  0  0  0  0
   19.0848  -14.1148  -16.6476 N   0  0  0  0  0  0  0  0  0  0  0  0
   19.5936   -9.5535  -15.1542 C   0  0  0  0  0  0  0  0  0  0  0  0
   20.0821   -9.4047  -14.0077 O   0  0  0  0  0  0  0  0  0  0  0  0
   22.1569   -5.2010  -15.3419 N   0  0  0  0  0  0  0  0  0  0  0  0
   22.7205   -6.1828  -16.1948 C   0  0  0  0  0  0  0  0  0  0  0  0
   23.9106   -6.0465  -16.5686 O   0  0  0  0  0  0  0  0  0  0  0  0
   21.8590   -7.3239  -16.5976 C   0  0  0  0  0  0  0  0  0  0  0  0
   20.5690   -7.3550  -15.8201 C   0  0  2  0  0  0  0  0  0  0  0  0
   19.8536   -8.5546  -16.1229 N   0  0  0  0  0  0  0  0  0  0  0  0
   19.7529   -6.1331  -16.0464 C   0  0  0  0  0  0  0  0  0  0  0  0
   18.7573   -6.2452  -16.8215 O   0  0  0  0  0  0  0  0  0  0  0  0
   20.0223   -4.8949  -15.4603 N   0  0  0  0  0  0  0  0  0  0  0  0
   19.1349   -3.7082  -15.6780 C   0  0  1  0  0  0  0  0  0  0  0  0
   17.7646   -4.0604  -15.2781 C   0  0  0  0  0  0  0  0  0  0  0  0
   16.6970   -3.0662  -15.1808 C   0  0  0  0  0  0  0  0  0  0  0  0
   15.3147   -3.4346  -14.8734 C   0  0  0  0  0  0  0  0  0  0  0  0
   14.2555   -2.3886  -14.8685 C   0  0  0  0  0  0  0  0  0  0  0  0
   12.9240   -2.8772  -14.6211 N   0  0  0  0  0  0  0  0  0  0  0  0
   19.7147   -2.5948  -14.8616 C   0  0  0  0  0  0  0  0  0  0  0  0
   19.6554   -1.2640  -15.3313 O   0  0  0  0  0  0  0  0  0  0  0  0
   20.2686   -2.7356  -13.7599 O   0  0  0  0  0  0  0  0  0  0  0  0
  2  1  1  6
  2  9  1  0
  3  2  1  0
  4  3  1  0
  5  4  2  0
  6  5  1  0
  7  6  1  0
  7  8  2  0
  8  4  1  0
  9 10  2  0
 11 12  1  0
 12 14  1  0
 13 12  2  0
 15 14  1  6
 15 17  1  0
 16  9  1  0
 16 15  1  0
 17 18  2  0
 19 20  1  0
 19 17  1  0
 20 26  1  0
 20 21  1  1
 22 21  1  0
 23 22  1  0
 24 23  1  0
 25 24  1  0
 26 28  2  0
 26 27  1  0
M  END
$$$$
