HNK.pdb
     RDKit          3D

 28 28  0  0  1  0  0  0  0  0999 V2000
   24.3544  -12.7635  -17.3091 N   0  0  0  0  0  0  0  0  0  0  0  0
   24.6514  -11.6951  -16.3754 C   0  0  1  0  0  0  0  0  0  0  0  0
   25.9646  -11.0338  -16.7989 C   0  0  0  0  0  0  0  0  0  0  0  0
   27.0892  -11.9943  -16.7018 C   0  0  0  0  0  0  0  0  0  0  0  0
   27.6602  -12.5210  -15.5634 C   0  0  0  0  0  0  0  0  0  0  0  0
   28.6644  -13.3643  -15.9271 N   0  0  0  0  0  0  0  0  0  0  0  0
   28.7200  -13.3645  -17.2703 C   0  0  0  0  0  0  0  0  0  0  0  0
   27.7669  -12.5360  -17.7237 N   0  0  0  0  0  0  0  0  0  0  0  0
   23.5350  -10.7179  -16.4180 C   0  0  0  0  0  0  0  0  0  0  0  0
   23.1133  -10.3216  -17.5317 O   0  0  0  0  0  0  0  0  0  0  0  0
   19.5939   -7.7462  -15.2163 N   0  0  0  0  0  0  0  0  0  0  0  0
   19.5930   -8.8231  -14.2946 C   0  0  0  0  0  0  0  0  0  0  0  0
   18.5973   -8.9767  -13.5466 O   0  0  0  0  0  0  0  0  0  0  0  0
   20.7828   -9.7121  -14.2707 C   0  0  0  0  0  0  0  0  0  0  0  0
   21.8064   -9.3076  -15.2995 C   0  0  2  0  0  0  0  0  0  0  0  0
   22.9171  -10.2058  -15.2520 N   0  0  0  0  0  0  0  0  0  0  0  0
   22.2165   -7.8867  -15.1481 C   0  0  0  0  0  0  0  0  0  0  0  0
   23.1238   -7.6402  -14.2992 O   0  0  0  0  0  0  0  0  0  0  0  0
   21.6643   -6.8327  -15.8785 N   0  0  0  0  0  0  0  0  0  0  0  0
   22.1287   -5.4200  -15.7007 C   0  0  1  0  0  0  0  0  0  0  0  0
   21.6525   -4.6172  -16.8368 C   0  0  0  0  0  0  0  0  0  0  0  0
   21.8582   -3.1718  -16.9153 C   0  0  0  0  0  0  0  0  0  0  0  0
   21.3466   -2.3712  -18.0281 C   0  0  0  0  0  0  0  0  0  0  0  0
   21.5408   -0.8953  -18.0263 C   0  0  0  0  0  0  0  0  0  0  0  0
   20.9721   -0.2090  -19.1570 N   0  0  0  0  0  0  0  0  0  0  0  0
   21.5775   -4.9591  -14.3869 C   0  0  0  0  0  0  0  0  0  0  0  0
   22.3562   -4.1424  -13.5371 O   0  0  0  0  0  0  0  0  0  0  0  0
   20.4492   -5.2388  -13.9524 O   0  0  0  0  0  0  0  0  0  0  0  0
  2  1  1  6
  2  9  1  0
  3  2  1  0
  4  3  1  0
  5  4  2  0
  6  5  1  0
  7  6  1  0
  7  8  2  0
  8  4  1  0
  9 10  2  0
 11 12  1  0
 12 14  1  0
 13 12  2  0
 15 14  1  1
 15 17  1  0
 16  9  1  0
 16 15  1  0
 17 18  2  0
 19 20  1  0
 19 17  1  0
 20 26  1  0
 20 21  1  6
 22 21  1  0
 23 22  1  0
 24 23  1  0
 25 24  1  0
 26 28  2  0
 26 27  1  0
M  END
$$$$
