HNK.pdb
     RDKit          3D

 28 28  0  0  1  0  0  0  0  0999 V2000
   26.5071  -10.3085  -15.6385 N   0  0  0  0  0  0  0  0  0  0  0  0
   25.4977   -9.7821  -16.5361 C   0  0  1  0  0  0  0  0  0  0  0  0
   24.8725  -10.9512  -17.2998 C   0  0  0  0  0  0  0  0  0  0  0  0
   25.8624  -11.5677  -18.2146 C   0  0  0  0  0  0  0  0  0  0  0  0
   27.1596  -11.1691  -18.4554 C   0  0  0  0  0  0  0  0  0  0  0  0
   27.7161  -12.0151  -19.3644 N   0  0  0  0  0  0  0  0  0  0  0  0
   26.7824  -12.9271  -19.6862 C   0  0  0  0  0  0  0  0  0  0  0  0
   25.6719  -12.6464  -18.9874 N   0  0  0  0  0  0  0  0  0  0  0  0
   24.4737   -9.0804  -15.7223 C   0  0  0  0  0  0  0  0  0  0  0  0
   24.1331   -9.5684  -14.6173 O   0  0  0  0  0  0  0  0  0  0  0  0
   22.3410   -3.5644  -14.4376 N   0  0  0  0  0  0  0  0  0  0  0  0
   22.3330   -4.9796  -14.3581 C   0  0  0  0  0  0  0  0  0  0  0  0
   21.5577   -5.5340  -13.5419 O   0  0  0  0  0  0  0  0  0  0  0  0
   23.2521   -5.7265  -15.2548 C   0  0  0  0  0  0  0  0  0  0  0  0
   22.8941   -7.1877  -15.3344 C   0  0  2  0  0  0  0  0  0  0  0  0
   23.8563   -7.8758  -16.1364 N   0  0  0  0  0  0  0  0  0  0  0  0
   21.5018   -7.3945  -15.8130 C   0  0  0  0  0  0  0  0  0  0  0  0
   21.2992   -7.2666  -17.0568 O   0  0  0  0  0  0  0  0  0  0  0  0
   20.4293   -7.7160  -14.9789 N   0  0  0  0  0  0  0  0  0  0  0  0
   19.0629   -7.9990  -15.5230 C   0  0  1  0  0  0  0  0  0  0  0  0
   18.7482   -9.4181  -15.3013 C   0  0  0  0  0  0  0  0  0  0  0  0
   17.4314   -9.9830  -15.5919 C   0  0  0  0  0  0  0  0  0  0  0  0
   17.1150  -11.3898  -15.3435 C   0  0  0  0  0  0  0  0  0  0  0  0
   15.8110  -11.9449  -15.7992 C   0  0  0  0  0  0  0  0  0  0  0  0
   15.0786  -12.6713  -14.7948 N   0  0  0  0  0  0  0  0  0  0  0  0
   18.1266   -7.0737  -14.8091 C   0  0  0  0  0  0  0  0  0  0  0  0
   17.0868   -6.4305  -15.5164 O   0  0  0  0  0  0  0  0  0  0  0  0
   18.1790   -6.8049  -13.5986 O   0  0  0  0  0  0  0  0  0  0  0  0
  2  1  1  1
  2  9  1  0
  3  2  1  0
  4  3  1  0
  5  4  2  0
  6  5  1  0
  7  6  1  0
  7  8  2  0
  8  4  1  0
  9 10  2  0
 11 12  1  0
 12 14  1  0
 13 12  2  0
 15 14  1  6
 15 17  1  0
 16  9  1  0
 16 15  1  0
 17 18  2  0
 19 20  1  0
 19 17  1  0
 20 26  1  0
 20 21  1  1
 22 21  1  0
 23 22  1  0
 24 23  1  0
 25 24  1  0
 26 28  2  0
 26 27  1  0
M  END
$$$$
