HNK.pdb
     RDKit          3D

 28 28  0  0  1  0  0  0  0  0999 V2000
   19.5886  -11.3956  -16.0218 N   0  0  0  0  0  0  0  0  0  0  0  0
   19.7975  -10.2287  -16.8562 C   0  0  1  0  0  0  0  0  0  0  0  0
   18.6634  -10.1574  -17.8808 C   0  0  0  0  0  0  0  0  0  0  0  0
   18.7913  -11.2450  -18.8795 C   0  0  0  0  0  0  0  0  0  0  0  0
   19.7472  -12.2361  -18.9378 C   0  0  0  0  0  0  0  0  0  0  0  0
   19.4924  -13.0274  -20.0151 N   0  0  0  0  0  0  0  0  0  0  0  0
   18.3957  -12.5390  -20.6199 C   0  0  0  0  0  0  0  0  0  0  0  0
   17.9840  -11.4666  -19.9265 N   0  0  0  0  0  0  0  0  0  0  0  0
   19.7920   -9.0277  -15.9840 C   0  0  0  0  0  0  0  0  0  0  0  0
   18.9794   -8.9709  -15.0291 O   0  0  0  0  0  0  0  0  0  0  0  0
   20.8462   -4.4841  -13.8837 N   0  0  0  0  0  0  0  0  0  0  0  0
   22.0806   -5.0680  -14.2636 C   0  0  0  0  0  0  0  0  0  0  0  0
   23.1439   -4.5822  -13.8075 O   0  0  0  0  0  0  0  0  0  0  0  0
   22.0390   -6.2304  -15.1874 C   0  0  0  0  0  0  0  0  0  0  0  0
   20.6411   -6.7682  -15.3503 C   0  0  2  0  0  0  0  0  0  0  0  0
   20.6670   -7.9322  -16.1790 N   0  0  0  0  0  0  0  0  0  0  0  0
   19.7011   -5.7321  -15.8533 C   0  0  0  0  0  0  0  0  0  0  0  0
   19.7797   -5.4363  -17.0825 O   0  0  0  0  0  0  0  0  0  0  0  0
   18.7562   -5.0825  -15.0567 N   0  0  0  0  0  0  0  0  0  0  0  0
   17.8455   -4.0305  -15.6107 C   0  0  1  0  0  0  0  0  0  0  0  0
   16.4653   -4.3366  -15.2067 C   0  0  0  0  0  0  0  0  0  0  0  0
   15.3554   -3.4166  -15.4504 C   0  0  0  0  0  0  0  0  0  0  0  0
   13.9681   -3.7726  -15.1513 C   0  0  0  0  0  0  0  0  0  0  0  0
   12.8814   -2.7882  -15.4083 C   0  0  0  0  0  0  0  0  0  0  0  0
   11.5478   -3.2952  -15.2150 N   0  0  0  0  0  0  0  0  0  0  0  0
   18.3367   -2.7230  -15.0706 C   0  0  0  0  0  0  0  0  0  0  0  0
   18.6422   -1.6608  -15.9502 O   0  0  0  0  0  0  0  0  0  0  0  0
   18.5094   -2.4711  -13.8677 O   0  0  0  0  0  0  0  0  0  0  0  0
  2  1  1  1
  2  9  1  0
  3  2  1  0
  4  3  1  0
  5  4  2  0
  6  5  1  0
  7  6  1  0
  7  8  2  0
  8  4  1  0
  9 10  2  0
 11 12  1  0
 12 14  1  0
 13 12  2  0
 15 14  1  6
 15 17  1  0
 16  9  1  0
 16 15  1  0
 17 18  2  0
 19 20  1  0
 19 17  1  0
 20 26  1  0
 20 21  1  1
 22 21  1  0
 23 22  1  0
 24 23  1  0
 25 24  1  0
 26 28  2  0
 26 27  1  0
M  END
$$$$
