HNK.pdb
     RDKit          3D

 28 28  0  0  1  0  0  0  0  0999 V2000
   15.9790  -10.7537  -16.7352 N   0  0  0  0  0  0  0  0  0  0  0  0
   15.6052  -11.0540  -15.3671 C   0  0  1  0  0  0  0  0  0  0  0  0
   15.9143  -12.5273  -15.0935 C   0  0  0  0  0  0  0  0  0  0  0  0
   17.1268  -12.9534  -15.8319 C   0  0  0  0  0  0  0  0  0  0  0  0
   18.4184  -13.0484  -15.3607 C   0  0  0  0  0  0  0  0  0  0  0  0
   19.2221  -13.4807  -16.3701 N   0  0  0  0  0  0  0  0  0  0  0  0
   18.4457  -13.6530  -17.4539 C   0  0  0  0  0  0  0  0  0  0  0  0
   17.1873  -13.3322  -17.1164 N   0  0  0  0  0  0  0  0  0  0  0  0
   16.3953  -10.1770  -14.4671 C   0  0  0  0  0  0  0  0  0  0  0  0
   16.2288  -10.2677  -13.2264 O   0  0  0  0  0  0  0  0  0  0  0  0
   20.8304   -7.9553  -12.4684 N   0  0  0  0  0  0  0  0  0  0  0  0
   20.3309   -7.4145  -13.6797 C   0  0  0  0  0  0  0  0  0  0  0  0
   20.6000   -6.2225  -13.9649 O   0  0  0  0  0  0  0  0  0  0  0  0
   19.5116   -8.3011  -14.5454 C   0  0  0  0  0  0  0  0  0  0  0  0
   18.0828   -8.3809  -14.0744 C   0  0  2  0  0  0  0  0  0  0  0  0
   17.3363   -9.2337  -14.9450 N   0  0  0  0  0  0  0  0  0  0  0  0
   17.4679   -7.0351  -13.9309 C   0  0  0  0  0  0  0  0  0  0  0  0
   17.0540   -6.4789  -14.9911 O   0  0  0  0  0  0  0  0  0  0  0  0
   17.3262   -6.3673  -12.7130 N   0  0  0  0  0  0  0  0  0  0  0  0
   16.6264   -5.0469  -12.6129 C   0  0  1  0  0  0  0  0  0  0  0  0
   16.1412   -4.8700  -11.2363 C   0  0  0  0  0  0  0  0  0  0  0  0
   15.4766   -3.6460  -10.7914 C   0  0  0  0  0  0  0  0  0  0  0  0
   15.0163   -3.4658   -9.4142 C   0  0  0  0  0  0  0  0  0  0  0  0
   14.2742   -2.2309   -9.0394 C   0  0  0  0  0  0  0  0  0  0  0  0
   13.7302   -2.2332   -7.7065 N   0  0  0  0  0  0  0  0  0  0  0  0
   17.6273   -4.0095  -13.0183 C   0  0  0  0  0  0  0  0  0  0  0  0
   19.0059   -4.3171  -13.0261 O   0  0  0  0  0  0  0  0  0  0  0  0
   17.3488   -2.8507  -13.3645 O   0  0  0  0  0  0  0  0  0  0  0  0
  2  1  1  6
  2  9  1  0
  3  2  1  0
  4  3  1  0
  5  4  2  0
  6  5  1  0
  7  6  1  0
  7  8  2  0
  8  4  1  0
  9 10  2  0
 11 12  1  0
 12 14  1  0
 13 12  2  0
 15 14  1  6
 15 17  1  0
 16  9  1  0
 16 15  1  0
 17 18  2  0
 19 20  1  0
 19 17  1  0
 20 26  1  0
 20 21  1  1
 22 21  1  0
 23 22  1  0
 24 23  1  0
 25 24  1  0
 26 28  2  0
 26 27  1  0
M  END
$$$$
