HNK.pdb
     RDKit          3D

 28 28  0  0  1  0  0  0  0  0999 V2000
   43.9375  -15.1767   -6.9800 N   0  0  0  0  0  0  0  0  0  0  0  0
   44.1729  -14.9089   -8.3851 C   0  0  1  0  0  0  0  0  0  0  0  0
   44.6928  -13.4767   -8.5241 C   0  0  0  0  0  0  0  0  0  0  0  0
   43.6132  -12.4991   -8.2488 C   0  0  0  0  0  0  0  0  0  0  0  0
   42.3303  -12.7513   -7.8130 C   0  0  0  0  0  0  0  0  0  0  0  0
   41.6698  -11.5681   -7.6881 N   0  0  0  0  0  0  0  0  0  0  0  0
   42.5257  -10.5930   -8.0399 C   0  0  0  0  0  0  0  0  0  0  0  0
   43.6913  -11.1669   -8.3750 N   0  0  0  0  0  0  0  0  0  0  0  0
   45.1784  -15.8818   -8.8807 C   0  0  0  0  0  0  0  0  0  0  0  0
   46.0245  -16.3467   -8.0787 O   0  0  0  0  0  0  0  0  0  0  0  0
   43.6192  -18.8013  -12.8348 N   0  0  0  0  0  0  0  0  0  0  0  0
   44.6989  -18.8459  -11.9175 C   0  0  0  0  0  0  0  0  0  0  0  0
   44.7194  -19.7552  -11.0531 O   0  0  0  0  0  0  0  0  0  0  0  0
   45.7500  -17.8032  -12.0374 C   0  0  0  0  0  0  0  0  0  0  0  0
   46.1772  -17.2795  -10.6909 C   0  0  2  0  0  0  0  0  0  0  0  0
   45.2303  -16.3147  -10.2275 N   0  0  0  0  0  0  0  0  0  0  0  0
   47.5656  -16.7484  -10.7150 C   0  0  0  0  0  0  0  0  0  0  0  0
   47.7268  -15.5897  -11.2008 O   0  0  0  0  0  0  0  0  0  0  0  0
   48.6770  -17.4470  -10.2395 N   0  0  0  0  0  0  0  0  0  0  0  0
   50.0367  -16.8220  -10.1804 C   0  0  1  0  0  0  0  0  0  0  0  0
   50.8388  -17.5250   -9.1684 C   0  0  0  0  0  0  0  0  0  0  0  0
   52.2361  -17.1864   -8.9028 C   0  0  0  0  0  0  0  0  0  0  0  0
   53.0205  -17.8673   -7.8722 C   0  0  0  0  0  0  0  0  0  0  0  0
   54.4522  -17.5092   -7.6770 C   0  0  0  0  0  0  0  0  0  0  0  0
   55.1118  -18.2139   -6.6088 N   0  0  0  0  0  0  0  0  0  0  0  0
   50.6092  -16.9311  -11.5599 C   0  0  0  0  0  0  0  0  0  0  0  0
   50.1268  -17.9128  -12.4537 O   0  0  0  0  0  0  0  0  0  0  0  0
   51.5092  -16.2077  -12.0148 O   0  0  0  0  0  0  0  0  0  0  0  0
  2  1  1  1
  2  9  1  0
  3  2  1  0
  4  3  1  0
  5  4  2  0
  6  5  1  0
  7  6  1  0
  7  8  2  0
  8  4  1  0
  9 10  2  0
 11 12  1  0
 12 14  1  0
 13 12  2  0
 15 14  1  6
 15 17  1  0
 16  9  1  0
 16 15  1  0
 17 18  2  0
 19 20  1  0
 19 17  1  0
 20 26  1  0
 20 21  1  1
 22 21  1  0
 23 22  1  0
 24 23  1  0
 25 24  1  0
 26 28  2  0
 26 27  1  0
M  END
$$$$
