HNK.pdb
     RDKit          3D

 28 28  0  0  1  0  0  0  0  0999 V2000
   13.9074   -9.9271  -10.8915 N   0  0  0  0  0  0  0  0  0  0  0  0
   15.3490   -9.8877  -10.7431 C   0  0  1  0  0  0  0  0  0  0  0  0
   15.9706  -10.7797  -11.8196 C   0  0  0  0  0  0  0  0  0  0  0  0
   15.6837  -12.2078  -11.5456 C   0  0  0  0  0  0  0  0  0  0  0  0
   15.7745  -12.8768  -10.3441 C   0  0  0  0  0  0  0  0  0  0  0  0
   15.4191  -14.1759  -10.5382 N   0  0  0  0  0  0  0  0  0  0  0  0
   15.1114  -14.3164  -11.8393 C   0  0  0  0  0  0  0  0  0  0  0  0
   15.2749  -13.1248  -12.4339 N   0  0  0  0  0  0  0  0  0  0  0  0
   15.7940   -8.4812  -10.9068 C   0  0  0  0  0  0  0  0  0  0  0  0
   15.3235   -7.7982  -11.8488 O   0  0  0  0  0  0  0  0  0  0  0  0
   18.2810   -4.0531  -10.4761 N   0  0  0  0  0  0  0  0  0  0  0  0
   17.6422   -4.3439   -9.2447 C   0  0  0  0  0  0  0  0  0  0  0  0
   17.5280   -3.4294   -8.3931 O   0  0  0  0  0  0  0  0  0  0  0  0
   17.1423   -5.7271   -9.0362 C   0  0  0  0  0  0  0  0  0  0  0  0
   17.2621   -6.5613  -10.2850 C   0  0  2  0  0  0  0  0  0  0  0  0
   16.7329   -7.8668  -10.0439 N   0  0  0  0  0  0  0  0  0  0  0  0
   18.6569   -6.5983  -10.7982 C   0  0  0  0  0  0  0  0  0  0  0  0
   19.5366   -7.0888  -10.0300 O   0  0  0  0  0  0  0  0  0  0  0  0
   19.0381   -6.1301  -12.0570 N   0  0  0  0  0  0  0  0  0  0  0  0
   20.4366   -6.2895  -12.5687 C   0  0  1  0  0  0  0  0  0  0  0  0
   20.3879   -6.9255  -13.8934 C   0  0  0  0  0  0  0  0  0  0  0  0
   20.1152   -8.3512  -14.0683 C   0  0  0  0  0  0  0  0  0  0  0  0
   20.0809   -8.9819  -15.3881 C   0  0  0  0  0  0  0  0  0  0  0  0
   19.7538  -10.4293  -15.5065 C   0  0  0  0  0  0  0  0  0  0  0  0
   19.6786  -10.9241  -16.8564 N   0  0  0  0  0  0  0  0  0  0  0  0
   21.0312   -4.9155  -12.6009 C   0  0  0  0  0  0  0  0  0  0  0  0
   22.4236   -4.7399  -12.4404 O   0  0  0  0  0  0  0  0  0  0  0  0
   20.3878   -3.8667  -12.7627 O   0  0  0  0  0  0  0  0  0  0  0  0
  2  1  1  6
  2  9  1  0
  3  2  1  0
  4  3  1  0
  5  4  2  0
  6  5  1  0
  7  6  1  0
  7  8  2  0
  8  4  1  0
  9 10  2  0
 11 12  1  0
 12 14  1  0
 13 12  2  0
 15 14  1  1
 15 17  1  0
 16  9  1  0
 16 15  1  0
 17 18  2  0
 19 20  1  0
 19 17  1  0
 20 26  1  0
 20 21  1  6
 22 21  1  0
 23 22  1  0
 24 23  1  0
 25 24  1  0
 26 28  2  0
 26 27  1  0
M  END
$$$$
