HRD.pdb
     RDKit          3D

 30 30  0  0  1  0  0  0  0  0999 V2000
    9.3795  -15.6407   18.0451 N   0  0  0  0  0  0  0  0  0  0  0  0
    9.0285  -14.5703   18.9885 C   0  0  1  0  0  0  0  0  0  0  0  0
    7.5546  -14.3219   18.7339 C   0  0  0  0  0  0  0  0  0  0  0  0
    7.4087  -14.0007   17.2915 C   0  0  0  0  0  0  0  0  0  0  0  0
    7.5192  -12.7874   16.6374 C   0  0  0  0  0  0  0  0  0  0  0  0
    7.3102  -12.9487   15.3245 N   0  0  0  0  0  0  0  0  0  0  0  0
    7.0662  -14.2410   15.1075 C   0  0  0  0  0  0  0  0  0  0  0  0
    7.1236  -14.8874   16.2942 N   0  0  0  0  0  0  0  0  0  0  0  0
    9.2889  -15.0728   20.3462 C   0  0  0  0  0  0  0  0  0  0  0  0
    8.9640  -14.3596   21.3201 O   0  0  0  0  0  0  0  0  0  0  0  0
    7.0712  -20.4907   18.9807 N   0  0  0  0  0  0  0  0  0  0  0  0
    7.4600  -21.3135   20.0539 C   0  0  0  0  0  0  0  0  0  0  0  0
    7.6739  -22.5770   19.8590 N   0  0  0  0  0  0  0  0  0  0  0  0
    7.6302  -20.8100   21.3715 N   0  0  0  0  0  0  0  0  0  0  0  0
    7.5516  -19.3961   21.6601 C   0  0  0  0  0  0  0  0  0  0  0  0
    8.8461  -18.6722   21.3333 C   0  0  0  0  0  0  0  0  0  0  0  0
    9.4022  -17.8830   22.4807 C   0  0  0  0  0  0  0  0  0  0  0  0
   10.1758  -16.7213   22.0306 C   0  0  2  0  0  0  0  0  0  0  0  0
    9.8810  -16.3033   20.6653 N   0  0  0  0  0  0  0  0  0  0  0  0
   11.6272  -16.9761   22.0762 C   0  0  0  0  0  0  0  0  0  0  0  0
   12.1078  -18.0286   21.6155 O   0  0  0  0  0  0  0  0  0  0  0  0
    7.9282  -23.2463   20.6000 N   0  0  0  0  0  0  0  0  0  0  0  0
   12.5606  -16.0547   22.6394 C   0  0  1  0  0  0  0  0  0  0  0  0
   13.9826  -16.3209   22.7220 C   0  0  0  0  0  0  0  0  0  0  0  0
   14.6983  -15.0172   22.3874 C   0  0  0  0  0  0  0  0  0  0  0  0
   16.1609  -15.2294   22.3873 O   0  0  0  0  0  0  0  0  0  0  0  0
   16.6261  -16.3992   22.5696 C   0  0  0  0  0  0  0  0  0  0  0  0
   14.3811  -16.7620   24.0679 O   0  0  0  0  0  0  0  0  0  0  0  0
   13.4712  -16.6911   25.1042 O   0  0  0  0  0  0  0  0  0  0  0  0
   17.0288  -14.1715   22.1930 O   0  0  0  0  0  0  0  0  0  0  0  0
  2  1  1  6
  2  3  1  0
  2  9  1  0
  3  4  1  0
  4  5  2  0
  4  8  1  0
  5  6  1  0
  6  7  1  0
  8  7  2  0
  9 10  2  0
 12 11  1  0
 12 14  1  0
 13 12  2  0
 15 14  1  0
 15 16  1  0
 18 17  1  6
 17 16  1  0
 19  9  1  0
 19 18  1  0
 20 21  2  0
 20 18  1  0
 22 20  1  0
 23 27  1  0
 23 22  1  0
 23 24  1  1
 25 24  1  0
 25 26  2  0
 27 28  1  0
 29 25  1  0
 30 27  2  0
M  END
$$$$
