HRD.pdb
     RDKit          3D

 30 30  0  0  1  0  0  0  0  0999 V2000
    6.6161  -15.5128   26.3857 N   0  0  0  0  0  0  0  0  0  0  0  0
    7.0363  -14.8141   25.1632 C   0  0  1  0  0  0  0  0  0  0  0  0
    7.8395  -13.6324   25.6704 C   0  0  0  0  0  0  0  0  0  0  0  0
    6.8833  -12.7021   26.3226 C   0  0  0  0  0  0  0  0  0  0  0  0
    5.9561  -11.8446   25.7595 C   0  0  0  0  0  0  0  0  0  0  0  0
    5.2963  -11.1822   26.7182 N   0  0  0  0  0  0  0  0  0  0  0  0
    5.7722  -11.5892   27.8948 C   0  0  0  0  0  0  0  0  0  0  0  0
    6.7352  -12.5110   27.6655 N   0  0  0  0  0  0  0  0  0  0  0  0
    7.8501  -15.7515   24.3742 C   0  0  0  0  0  0  0  0  0  0  0  0
    8.4247  -16.6900   24.9673 O   0  0  0  0  0  0  0  0  0  0  0  0
    7.4842  -13.2935   18.4902 N   0  0  0  0  0  0  0  0  0  0  0  0
    8.3971  -13.8851   17.5978 C   0  0  0  0  0  0  0  0  0  0  0  0
    9.0886  -13.1439   16.7900 N   0  0  0  0  0  0  0  0  0  0  0  0
    8.5973  -15.2905   17.5399 N   0  0  0  0  0  0  0  0  0  0  0  0
    8.0036  -16.1827   18.5096 C   0  0  0  0  0  0  0  0  0  0  0  0
    8.5376  -15.9424   19.9109 C   0  0  0  0  0  0  0  0  0  0  0  0
    8.1212  -16.9874   20.9025 C   0  0  0  0  0  0  0  0  0  0  0  0
    8.7034  -16.7561   22.2285 C   0  0  2  0  0  0  0  0  0  0  0  0
    8.0515  -15.6957   22.9874 N   0  0  0  0  0  0  0  0  0  0  0  0
   10.1277  -16.3843   22.1463 C   0  0  0  0  0  0  0  0  0  0  0  0
   10.4728  -15.1952   22.0125 O   0  0  0  0  0  0  0  0  0  0  0  0
    9.7467  -13.5067   16.0850 N   0  0  0  0  0  0  0  0  0  0  0  0
   11.1855  -17.3403   22.2125 C   0  0  1  0  0  0  0  0  0  0  0  0
   12.5859  -16.9769   22.1314 C   0  0  0  0  0  0  0  0  0  0  0  0
   13.3656  -18.0416   22.8944 C   0  0  0  0  0  0  0  0  0  0  0  0
   13.1503  -17.8812   24.3478 O   0  0  0  0  0  0  0  0  0  0  0  0
   13.2552  -16.7283   24.8749 C   0  0  0  0  0  0  0  0  0  0  0  0
   13.0613  -16.9310   20.7397 O   0  0  0  0  0  0  0  0  0  0  0  0
   14.3759  -16.5967   20.4807 O   0  0  0  0  0  0  0  0  0  0  0  0
   12.8379  -18.9693   25.1406 O   0  0  0  0  0  0  0  0  0  0  0  0
  2  1  1  1
  2  3  1  0
  2  9  1  0
  3  4  1  0
  4  5  2  0
  4  8  1  0
  5  6  1  0
  6  7  1  0
  8  7  2  0
  9 10  2  0
 12 11  1  0
 12 14  1  0
 13 12  2  0
 15 14  1  0
 15 16  1  0
 18 17  1  6
 17 16  1  0
 19  9  1  0
 19 18  1  0
 20 21  2  0
 20 18  1  0
 22 20  1  0
 23 27  1  0
 23 22  1  0
 23 24  1  6
 25 24  1  0
 25 26  2  0
 27 28  1  0
 29 25  1  0
 30 27  2  0
M  END
$$$$
