HRD.pdb
     RDKit          3D

 30 30  0  0  1  0  0  0  0  0999 V2000
    6.2780  -15.6869   24.2205 N   0  0  0  0  0  0  0  0  0  0  0  0
    7.3613  -14.6997   24.1145 C   0  0  1  0  0  0  0  0  0  0  0  0
    7.8794  -14.5657   25.5331 C   0  0  0  0  0  0  0  0  0  0  0  0
    7.0713  -13.5105   26.1953 C   0  0  0  0  0  0  0  0  0  0  0  0
    5.9376  -12.8534   25.7535 C   0  0  0  0  0  0  0  0  0  0  0  0
    5.5287  -11.9680   26.6713 N   0  0  0  0  0  0  0  0  0  0  0  0
    6.3705  -12.0334   27.7026 C   0  0  0  0  0  0  0  0  0  0  0  0
    7.3097  -12.9660   27.4235 N   0  0  0  0  0  0  0  0  0  0  0  0
    8.3710  -15.2463   23.1951 C   0  0  0  0  0  0  0  0  0  0  0  0
    8.5771  -16.4793   23.1981 O   0  0  0  0  0  0  0  0  0  0  0  0
    7.6958  -15.3989   16.1488 N   0  0  0  0  0  0  0  0  0  0  0  0
    7.5739  -14.3199   17.0437 C   0  0  0  0  0  0  0  0  0  0  0  0
    7.5182  -13.1058   16.5932 N   0  0  0  0  0  0  0  0  0  0  0  0
    7.5100  -14.5062   18.4507 N   0  0  0  0  0  0  0  0  0  0  0  0
    8.6339  -15.0196   19.2005 C   0  0  0  0  0  0  0  0  0  0  0  0
    9.8109  -14.0598   19.1972 C   0  0  0  0  0  0  0  0  0  0  0  0
   10.6846  -14.1725   20.4106 C   0  0  0  0  0  0  0  0  0  0  0  0
   10.1354  -15.1006   21.4043 C   0  0  2  0  0  0  0  0  0  0  0  0
    9.1459  -14.5033   22.2929 N   0  0  0  0  0  0  0  0  0  0  0  0
   11.1858  -15.6570   22.2766 C   0  0  0  0  0  0  0  0  0  0  0  0
   10.9789  -15.8421   23.4906 O   0  0  0  0  0  0  0  0  0  0  0  0
    7.5097  -12.2636   17.1867 N   0  0  0  0  0  0  0  0  0  0  0  0
   12.4833  -16.0134   21.8003 C   0  0  2  0  0  0  0  0  0  0  0  0
   13.4120  -16.8209   22.5651 C   0  0  0  0  0  0  0  0  0  0  0  0
   12.7298  -18.1600   22.8204 C   0  0  0  0  0  0  0  0  0  0  0  0
   12.9374  -18.5735   24.2240 O   0  0  0  0  0  0  0  0  0  0  0  0
   13.6467  -17.8504   24.9936 C   0  0  0  0  0  0  0  0  0  0  0  0
   14.6704  -17.0481   21.8372 O   0  0  0  0  0  0  0  0  0  0  0  0
   15.8740  -16.7832   22.4602 O   0  0  0  0  0  0  0  0  0  0  0  0
   12.3714  -19.7371   24.7094 O   0  0  0  0  0  0  0  0  0  0  0  0
  2  1  1  1
  2  3  1  0
  2  9  1  0
  3  4  1  0
  4  5  2  0
  4  8  1  0
  5  6  1  0
  6  7  1  0
  8  7  2  0
  9 10  2  0
 12 11  1  0
 12 14  1  0
 13 12  2  0
 15 14  1  0
 15 16  1  0
 18 17  1  6
 17 16  1  0
 19  9  1  0
 19 18  1  0
 20 21  2  0
 20 18  1  0
 22 20  1  0
 23 27  1  0
 23 22  1  0
 23 24  1  1
 25 24  1  0
 25 26  2  0
 27 28  1  0
 29 25  1  0
 30 27  2  0
M  END
$$$$
