HRD.pdb
     RDKit          3D

 30 30  0  0  1  0  0  0  0  0999 V2000
   13.5466  -16.2365   14.7184 N   0  0  0  0  0  0  0  0  0  0  0  0
   12.9685  -17.0654   15.7851 C   0  0  1  0  0  0  0  0  0  0  0  0
   13.9406  -18.2208   15.9233 C   0  0  0  0  0  0  0  0  0  0  0  0
   13.5692  -19.2289   14.8983 C   0  0  0  0  0  0  0  0  0  0  0  0
   12.3576  -19.4493   14.2693 C   0  0  0  0  0  0  0  0  0  0  0  0
   12.4627  -20.4683   13.4068 N   0  0  0  0  0  0  0  0  0  0  0  0
   13.7166  -20.9173   13.4588 C   0  0  0  0  0  0  0  0  0  0  0  0
   14.3956  -20.1722   14.3606 N   0  0  0  0  0  0  0  0  0  0  0  0
   12.8988  -16.2393   17.0001 C   0  0  0  0  0  0  0  0  0  0  0  0
   13.9202  -15.6127   17.3565 O   0  0  0  0  0  0  0  0  0  0  0  0
    5.9362  -12.4892   19.8841 N   0  0  0  0  0  0  0  0  0  0  0  0
    7.0801  -12.7044   20.6747 C   0  0  0  0  0  0  0  0  0  0  0  0
    7.0335  -12.4990   21.9537 N   0  0  0  0  0  0  0  0  0  0  0  0
    8.3121  -13.1446   20.1207 N   0  0  0  0  0  0  0  0  0  0  0  0
    8.5238  -13.2052   18.6923 C   0  0  0  0  0  0  0  0  0  0  0  0
    9.8867  -13.7745   18.3391 C   0  0  0  0  0  0  0  0  0  0  0  0
   10.4254  -14.7290   19.3624 C   0  0  0  0  0  0  0  0  0  0  0  0
   11.7559  -15.2315   19.0050 C   0  0  2  0  0  0  0  0  0  0  0  0
   11.7722  -16.0808   17.8201 N   0  0  0  0  0  0  0  0  0  0  0  0
   12.3511  -16.0321   20.0906 C   0  0  0  0  0  0  0  0  0  0  0  0
   12.0861  -17.2427   20.2134 O   0  0  0  0  0  0  0  0  0  0  0  0
    7.8296  -12.6300   22.5946 N   0  0  0  0  0  0  0  0  0  0  0  0
   13.2519  -15.4867   21.0543 C   0  0  2  0  0  0  0  0  0  0  0  0
   13.7394  -16.2367   22.1942 C   0  0  0  0  0  0  0  0  0  0  0  0
   15.0156  -15.5489   22.6651 C   0  0  0  0  0  0  0  0  0  0  0  0
   16.0551  -15.6411   21.6187 O   0  0  0  0  0  0  0  0  0  0  0  0
   16.0346  -16.6117   20.7967 C   0  0  0  0  0  0  0  0  0  0  0  0
   12.7640  -16.2571   23.2956 O   0  0  0  0  0  0  0  0  0  0  0  0
   13.0278  -17.0081   24.4240 O   0  0  0  0  0  0  0  0  0  0  0  0
   17.0496  -14.6862   21.5238 O   0  0  0  0  0  0  0  0  0  0  0  0
  2  1  1  6
  2  3  1  0
  2  9  1  0
  3  4  1  0
  4  5  2  0
  4  8  1  0
  5  6  1  0
  6  7  1  0
  8  7  2  0
  9 10  2  0
 12 11  1  0
 12 14  1  0
 13 12  2  0
 15 14  1  0
 15 16  1  0
 18 17  1  1
 17 16  1  0
 19  9  1  0
 19 18  1  0
 20 21  2  0
 20 18  1  0
 22 20  1  0
 23 27  1  0
 23 22  1  0
 23 24  1  6
 25 24  1  0
 25 26  2  0
 27 28  1  0
 29 25  1  0
 30 27  2  0
M  END
$$$$
