HRD.pdb
     RDKit          3D

 30 30  0  0  1  0  0  0  0  0999 V2000
    8.4597  -14.6754   26.0751 N   0  0  0  0  0  0  0  0  0  0  0  0
    7.5224  -15.7334   25.6735 C   0  0  1  0  0  0  0  0  0  0  0  0
    6.1568  -15.0891   25.8106 C   0  0  0  0  0  0  0  0  0  0  0  0
    6.3732  -13.7114   26.3206 C   0  0  0  0  0  0  0  0  0  0  0  0
    7.5488  -13.0619   26.6494 C   0  0  0  0  0  0  0  0  0  0  0  0
    7.2877  -11.8187   27.0732 N   0  0  0  0  0  0  0  0  0  0  0  0
    5.9673  -11.6425   27.0275 C   0  0  0  0  0  0  0  0  0  0  0  0
    5.4037  -12.7848   26.5724 N   0  0  0  0  0  0  0  0  0  0  0  0
    7.8358  -16.0994   24.2837 C   0  0  0  0  0  0  0  0  0  0  0  0
    7.1720  -17.0090   23.7408 O   0  0  0  0  0  0  0  0  0  0  0  0
    8.4996  -12.5093   17.8164 N   0  0  0  0  0  0  0  0  0  0  0  0
    8.4066  -13.9133   17.8271 C   0  0  0  0  0  0  0  0  0  0  0  0
    8.9452  -14.6069   16.8737 N   0  0  0  0  0  0  0  0  0  0  0  0
    7.7316  -14.6200   18.8583 N   0  0  0  0  0  0  0  0  0  0  0  0
    7.0443  -13.9309   19.9267 C   0  0  0  0  0  0  0  0  0  0  0  0
    7.8139  -13.9902   21.2346 C   0  0  0  0  0  0  0  0  0  0  0  0
    9.0779  -14.7930   21.1548 C   0  0  0  0  0  0  0  0  0  0  0  0
    9.0865  -15.9088   22.1064 C   0  0  2  0  0  0  0  0  0  0  0  0
    8.8309  -15.5152   23.4866 N   0  0  0  0  0  0  0  0  0  0  0  0
   10.3811  -16.6141   22.1150 C   0  0  0  0  0  0  0  0  0  0  0  0
   11.3257  -16.2111   22.8196 O   0  0  0  0  0  0  0  0  0  0  0  0
    8.8676  -15.6303   16.7819 N   0  0  0  0  0  0  0  0  0  0  0  0
   10.6355  -17.7812   21.3336 C   0  0  2  0  0  0  0  0  0  0  0  0
   11.9415  -18.4023   21.2421 C   0  0  0  0  0  0  0  0  0  0  0  0
   11.7163  -19.8485   20.8162 C   0  0  0  0  0  0  0  0  0  0  0  0
   11.7219  -20.7311   22.0015 O   0  0  0  0  0  0  0  0  0  0  0  0
   11.9390  -20.2356   23.1528 C   0  0  0  0  0  0  0  0  0  0  0  0
   12.7996  -17.7326   20.2522 O   0  0  0  0  0  0  0  0  0  0  0  0
   14.1607  -17.6566   20.4725 O   0  0  0  0  0  0  0  0  0  0  0  0
   11.4955  -22.0885   21.8734 O   0  0  0  0  0  0  0  0  0  0  0  0
  2  1  1  6
  2  3  1  0
  2  9  1  0
  3  4  1  0
  4  5  2  0
  4  8  1  0
  5  6  1  0
  6  7  1  0
  8  7  2  0
  9 10  2  0
 12 11  1  0
 12 14  1  0
 13 12  2  0
 15 14  1  0
 15 16  1  0
 18 17  1  6
 17 16  1  0
 19  9  1  0
 19 18  1  0
 20 21  2  0
 20 18  1  0
 22 20  1  0
 23 27  1  0
 23 22  1  0
 23 24  1  1
 25 24  1  0
 25 26  2  0
 27 28  1  0
 29 25  1  0
 30 27  2  0
M  END
$$$$
