HRD.pdb
     RDKit          3D

 30 30  0  0  1  0  0  0  0  0999 V2000
    9.8180  -16.3580   17.2210 N   0  0  0  0  0  0  0  0  0  0  0  0
   10.4413  -15.6133   18.3237 C   0  0  1  0  0  0  0  0  0  0  0  0
    9.3415  -15.4995   19.3612 C   0  0  0  0  0  0  0  0  0  0  0  0
    8.6012  -14.2441   19.0769 C   0  0  0  0  0  0  0  0  0  0  0  0
    8.7804  -13.3185   18.0652 C   0  0  0  0  0  0  0  0  0  0  0  0
    7.8884  -12.3265   18.1823 N   0  0  0  0  0  0  0  0  0  0  0  0
    7.1307  -12.5848   19.2480 C   0  0  0  0  0  0  0  0  0  0  0  0
    7.5552  -13.7456   19.7974 N   0  0  0  0  0  0  0  0  0  0  0  0
   11.5865  -16.4035   18.8010 C   0  0  0  0  0  0  0  0  0  0  0  0
   11.5157  -17.6505   18.7486 O   0  0  0  0  0  0  0  0  0  0  0  0
   17.6760  -12.2754   16.6047 N   0  0  0  0  0  0  0  0  0  0  0  0
   17.0185  -13.1884   15.7598 C   0  0  0  0  0  0  0  0  0  0  0  0
   17.1278  -13.0770   14.4731 N   0  0  0  0  0  0  0  0  0  0  0  0
   16.2202  -14.2492   16.2658 N   0  0  0  0  0  0  0  0  0  0  0  0
   16.1535  -14.5416   17.6796 C   0  0  0  0  0  0  0  0  0  0  0  0
   15.4056  -15.8327   17.9626 C   0  0  0  0  0  0  0  0  0  0  0  0
   15.2208  -16.1150   19.4236 C   0  0  0  0  0  0  0  0  0  0  0  0
   13.9138  -16.7148   19.7110 C   0  0  2  0  0  0  0  0  0  0  0  0
   12.7802  -15.8844   19.3228 N   0  0  0  0  0  0  0  0  0  0  0  0
   13.7420  -16.9963   21.1479 C   0  0  0  0  0  0  0  0  0  0  0  0
   13.4593  -16.0863   21.9498 O   0  0  0  0  0  0  0  0  0  0  0  0
   16.6022  -13.6442   13.7920 N   0  0  0  0  0  0  0  0  0  0  0  0
   13.8849  -18.3021   21.7065 C   0  0  1  0  0  0  0  0  0  0  0  0
   13.7750  -18.5711   23.1261 C   0  0  0  0  0  0  0  0  0  0  0  0
   13.3844  -20.0374   23.2710 C   0  0  0  0  0  0  0  0  0  0  0  0
   12.0216  -20.1443   23.8325 O   0  0  0  0  0  0  0  0  0  0  0  0
   11.4458  -21.2778   23.8728 C   0  0  0  0  0  0  0  0  0  0  0  0
   15.0457  -18.3353   23.8294 O   0  0  0  0  0  0  0  0  0  0  0  0
   15.0433  -18.1658   25.1999 O   0  0  0  0  0  0  0  0  0  0  0  0
   11.3651  -19.0269   24.3128 O   0  0  0  0  0  0  0  0  0  0  0  0
  2  1  1  6
  2  3  1  0
  2  9  1  0
  3  4  1  0
  4  5  2  0
  4  8  1  0
  5  6  1  0
  6  7  1  0
  8  7  2  0
  9 10  2  0
 12 11  1  0
 12 14  1  0
 13 12  2  0
 15 14  1  0
 15 16  1  0
 18 17  1  1
 17 16  1  0
 19  9  1  0
 19 18  1  0
 20 21  2  0
 20 18  1  0
 22 20  1  0
 23 27  1  0
 23 22  1  0
 23 24  1  1
 25 24  1  0
 25 26  2  0
 27 28  1  0
 29 25  1  0
 30 27  2  0
M  END
$$$$
