HRD.pdb
     RDKit          3D

 30 30  0  0  1  0  0  0  0  0999 V2000
    7.8938  -16.7337   19.3335 N   0  0  0  0  0  0  0  0  0  0  0  0
    8.7984  -16.2521   20.3865 C   0  0  1  0  0  0  0  0  0  0  0  0
    7.9722  -15.2324   21.1458 C   0  0  0  0  0  0  0  0  0  0  0  0
    7.6384  -14.1438   20.1927 C   0  0  0  0  0  0  0  0  0  0  0  0
    6.4098  -13.6061   19.8554 C   0  0  0  0  0  0  0  0  0  0  0  0
    6.5637  -12.6346   18.9467 N   0  0  0  0  0  0  0  0  0  0  0  0
    7.8659  -12.5262   18.6839 C   0  0  0  0  0  0  0  0  0  0  0  0
    8.5261  -13.4374   19.4346 N   0  0  0  0  0  0  0  0  0  0  0  0
    9.1681  -17.4086   21.2167 C   0  0  0  0  0  0  0  0  0  0  0  0
    8.6673  -17.5100   22.3576 O   0  0  0  0  0  0  0  0  0  0  0  0
   10.7421  -21.2627   17.0476 N   0  0  0  0  0  0  0  0  0  0  0  0
    9.3781  -21.5250   16.8223 C   0  0  0  0  0  0  0  0  0  0  0  0
    8.8669  -21.3389   15.6458 N   0  0  0  0  0  0  0  0  0  0  0  0
    8.5167  -21.9931   17.8506 N   0  0  0  0  0  0  0  0  0  0  0  0
    8.9627  -22.1094   19.2204 C   0  0  0  0  0  0  0  0  0  0  0  0
    9.4067  -20.7748   19.7932 C   0  0  0  0  0  0  0  0  0  0  0  0
    9.8703  -20.8537   21.2171 C   0  0  0  0  0  0  0  0  0  0  0  0
   10.3703  -19.5659   21.7091 C   0  0  2  0  0  0  0  0  0  0  0  0
   10.0495  -18.4349   20.8469 N   0  0  0  0  0  0  0  0  0  0  0  0
   11.8372  -19.5655   21.8560 C   0  0  0  0  0  0  0  0  0  0  0  0
   12.5707  -19.1065   20.9603 O   0  0  0  0  0  0  0  0  0  0  0  0
    7.8750  -21.4895   15.4107 N   0  0  0  0  0  0  0  0  0  0  0  0
   12.5029  -20.0798   23.0092 C   0  0  1  0  0  0  0  0  0  0  0  0
   13.9444  -20.0768   23.1571 C   0  0  0  0  0  0  0  0  0  0  0  0
   14.2399  -20.3376   24.6296 C   0  0  0  0  0  0  0  0  0  0  0  0
   13.8837  -19.1504   25.4345 O   0  0  0  0  0  0  0  0  0  0  0  0
   13.5296  -18.0778   24.8493 C   0  0  0  0  0  0  0  0  0  0  0  0
   14.5820  -21.1222   22.3413 O   0  0  0  0  0  0  0  0  0  0  0  0
   13.7938  -22.0245   21.6547 O   0  0  0  0  0  0  0  0  0  0  0  0
   13.9322  -19.1916   26.8150 O   0  0  0  0  0  0  0  0  0  0  0  0
  2  1  1  6
  2  3  1  0
  2  9  1  0
  3  4  1  0
  4  5  2  0
  4  8  1  0
  5  6  1  0
  6  7  1  0
  8  7  2  0
  9 10  2  0
 12 11  1  0
 12 14  1  0
 13 12  2  0
 15 14  1  0
 15 16  1  0
 18 17  1  6
 17 16  1  0
 19  9  1  0
 19 18  1  0
 20 21  2  0
 20 18  1  0
 22 20  1  0
 23 27  1  0
 23 22  1  0
 23 24  1  6
 25 24  1  0
 25 26  2  0
 27 28  1  0
 29 25  1  0
 30 27  2  0
M  END
$$$$
