HRD.pdb
     RDKit          3D

 30 30  0  0  1  0  0  0  0  0999 V2000
   14.8073  -15.2100   14.4879 N   0  0  0  0  0  0  0  0  0  0  0  0
   14.0250  -16.0370   15.4171 C   0  0  1  0  0  0  0  0  0  0  0  0
   14.6963  -17.3952   15.3579 C   0  0  0  0  0  0  0  0  0  0  0  0
   14.0469  -18.1559   14.2604 C   0  0  0  0  0  0  0  0  0  0  0  0
   13.6261  -17.7296   13.0140 C   0  0  0  0  0  0  0  0  0  0  0  0
   13.0876  -18.7496   12.3335 N   0  0  0  0  0  0  0  0  0  0  0  0
   13.1482  -19.8323   13.1085 C   0  0  0  0  0  0  0  0  0  0  0  0
   13.7283  -19.4825   14.2793 N   0  0  0  0  0  0  0  0  0  0  0  0
   14.1201  -15.4190   16.7485 C   0  0  0  0  0  0  0  0  0  0  0  0
   15.1925  -14.8661   17.0757 O   0  0  0  0  0  0  0  0  0  0  0  0
    6.6346  -13.4951   19.9440 N   0  0  0  0  0  0  0  0  0  0  0  0
    7.1879  -13.3506   18.6583 C   0  0  0  0  0  0  0  0  0  0  0  0
    6.4121  -13.2637   17.6236 N   0  0  0  0  0  0  0  0  0  0  0  0
    8.5905  -13.2968   18.4388 N   0  0  0  0  0  0  0  0  0  0  0  0
    9.5160  -14.0510   19.2533 C   0  0  0  0  0  0  0  0  0  0  0  0
   10.9626  -13.7081   18.9432 C   0  0  0  0  0  0  0  0  0  0  0  0
   11.9552  -14.5334   19.7061 C   0  0  0  0  0  0  0  0  0  0  0  0
   13.2223  -14.6840   18.9835 C   0  0  2  0  0  0  0  0  0  0  0  0
   13.1020  -15.3878   17.7124 N   0  0  0  0  0  0  0  0  0  0  0  0
   14.2196  -15.4306   19.7719 C   0  0  0  0  0  0  0  0  0  0  0  0
   14.3344  -16.6652   19.6557 O   0  0  0  0  0  0  0  0  0  0  0  0
    6.7433  -13.2106   16.6493 N   0  0  0  0  0  0  0  0  0  0  0  0
   15.1022  -14.8037   20.7023 C   0  0  2  0  0  0  0  0  0  0  0  0
   16.0976  -15.5327   21.4622 C   0  0  0  0  0  0  0  0  0  0  0  0
   17.3009  -14.6100   21.6173 C   0  0  0  0  0  0  0  0  0  0  0  0
   18.3612  -15.2881   22.3921 O   0  0  0  0  0  0  0  0  0  0  0  0
   18.0932  -15.7634   23.5412 C   0  0  0  0  0  0  0  0  0  0  0  0
   15.6017  -15.9121   22.7945 O   0  0  0  0  0  0  0  0  0  0  0  0
   16.2107  -16.9459   23.4780 O   0  0  0  0  0  0  0  0  0  0  0  0
   19.6403  -15.4103   21.8834 O   0  0  0  0  0  0  0  0  0  0  0  0
  2  1  1  6
  2  3  1  0
  2  9  1  0
  3  4  1  0
  4  5  2  0
  4  8  1  0
  5  6  1  0
  6  7  1  0
  8  7  2  0
  9 10  2  0
 12 11  1  0
 12 14  1  0
 13 12  2  0
 15 14  1  0
 15 16  1  0
 18 17  1  1
 17 16  1  0
 19  9  1  0
 19 18  1  0
 20 21  2  0
 20 18  1  0
 22 20  1  0
 23 27  1  0
 23 22  1  0
 23 24  1  1
 25 24  1  0
 25 26  2  0
 27 28  1  0
 29 25  1  0
 30 27  2  0
M  END
$$$$
