HRD.pdb
     RDKit          3D

 30 30  0  0  1  0  0  0  0  0999 V2000
   12.8876  -16.3212   17.9147 N   0  0  0  0  0  0  0  0  0  0  0  0
   13.6867  -15.4216   18.7581 C   0  0  1  0  0  0  0  0  0  0  0  0
   13.9010  -14.1959   17.8918 C   0  0  0  0  0  0  0  0  0  0  0  0
   14.7769  -14.6054   16.7648 C   0  0  0  0  0  0  0  0  0  0  0  0
   14.4466  -14.9750   15.4739 C   0  0  0  0  0  0  0  0  0  0  0  0
   15.5531  -15.2706   14.7798 N   0  0  0  0  0  0  0  0  0  0  0  0
   16.5983  -15.1015   15.5895 C   0  0  0  0  0  0  0  0  0  0  0  0
   16.1379  -14.6982   16.7957 N   0  0  0  0  0  0  0  0  0  0  0  0
   12.8982  -15.1281   19.9646 C   0  0  0  0  0  0  0  0  0  0  0  0
   13.3581  -14.3162   20.7965 O   0  0  0  0  0  0  0  0  0  0  0  0
    7.6875  -14.0907   17.6917 N   0  0  0  0  0  0  0  0  0  0  0  0
    7.8184  -12.9873   18.5550 C   0  0  0  0  0  0  0  0  0  0  0  0
    8.4551  -11.9284   18.1634 N   0  0  0  0  0  0  0  0  0  0  0  0
    7.2733  -12.9831   19.8670 N   0  0  0  0  0  0  0  0  0  0  0  0
    7.7240  -13.9108   20.8795 C   0  0  0  0  0  0  0  0  0  0  0  0
    8.9863  -14.6450   20.4622 C   0  0  0  0  0  0  0  0  0  0  0  0
    9.5379  -15.5482   21.5244 C   0  0  0  0  0  0  0  0  0  0  0  0
   11.0029  -15.5097   21.5783 C   0  0  2  0  0  0  0  0  0  0  0  0
   11.6502  -15.6827   20.2834 N   0  0  0  0  0  0  0  0  0  0  0  0
   11.5488  -16.5637   22.4528 C   0  0  0  0  0  0  0  0  0  0  0  0
   11.3692  -17.7684   22.1933 O   0  0  0  0  0  0  0  0  0  0  0  0
    8.6185  -11.0964   18.7490 N   0  0  0  0  0  0  0  0  0  0  0  0
   12.3037  -16.2820   23.6310 C   0  0  1  0  0  0  0  0  0  0  0  0
   12.7376  -17.3092   24.5564 C   0  0  0  0  0  0  0  0  0  0  0  0
   14.1226  -16.9062   25.0493 C   0  0  0  0  0  0  0  0  0  0  0  0
   15.0543  -16.7997   23.9070 O   0  0  0  0  0  0  0  0  0  0  0  0
   15.1385  -17.7570   23.0736 C   0  0  0  0  0  0  0  0  0  0  0  0
   11.8290  -17.4305   25.7073 O   0  0  0  0  0  0  0  0  0  0  0  0
   10.8922  -16.4432   25.9414 O   0  0  0  0  0  0  0  0  0  0  0  0
   15.8358  -15.6729   23.7347 O   0  0  0  0  0  0  0  0  0  0  0  0
  2  1  1  6
  2  3  1  0
  2  9  1  0
  3  4  1  0
  4  5  2  0
  4  8  1  0
  5  6  1  0
  6  7  1  0
  8  7  2  0
  9 10  2  0
 12 11  1  0
 12 14  1  0
 13 12  2  0
 15 14  1  0
 15 16  1  0
 18 17  1  6
 17 16  1  0
 19  9  1  0
 19 18  1  0
 20 21  2  0
 20 18  1  0
 22 20  1  0
 23 27  1  0
 23 22  1  0
 23 24  1  6
 25 24  1  0
 25 26  2  0
 27 28  1  0
 29 25  1  0
 30 27  2  0
M  END
$$$$
