HRD.pdb
     RDKit          3D

 30 30  0  0  1  0  0  0  0  0999 V2000
    9.6218  -19.4312   25.6051 N   0  0  0  0  0  0  0  0  0  0  0  0
   10.5654  -18.3089   25.5086 C   0  0  1  0  0  0  0  0  0  0  0  0
   11.9117  -18.9296   25.8268 C   0  0  0  0  0  0  0  0  0  0  0  0
   11.9506  -19.1602   27.2932 C   0  0  0  0  0  0  0  0  0  0  0  0
   11.6758  -18.2933   28.3349 C   0  0  0  0  0  0  0  0  0  0  0  0
   11.8366  -18.9159   29.5096 N   0  0  0  0  0  0  0  0  0  0  0  0
   12.2099  -20.1703   29.2572 C   0  0  0  0  0  0  0  0  0  0  0  0
   12.2819  -20.3283   27.9158 N   0  0  0  0  0  0  0  0  0  0  0  0
   10.4957  -17.7878   24.1349 C   0  0  0  0  0  0  0  0  0  0  0  0
   10.8533  -18.5303   23.1949 O   0  0  0  0  0  0  0  0  0  0  0  0
    7.5111  -12.4842   18.3580 N   0  0  0  0  0  0  0  0  0  0  0  0
    8.3100  -13.4513   17.7205 C   0  0  0  0  0  0  0  0  0  0  0  0
    8.2600  -13.5883   16.4325 N   0  0  0  0  0  0  0  0  0  0  0  0
    9.1869  -14.3050   18.4422 N   0  0  0  0  0  0  0  0  0  0  0  0
    8.8621  -14.7820   19.7673 C   0  0  0  0  0  0  0  0  0  0  0  0
    9.7313  -14.1415   20.8354 C   0  0  0  0  0  0  0  0  0  0  0  0
    9.5013  -14.6927   22.2108 C   0  0  0  0  0  0  0  0  0  0  0  0
   10.1701  -15.9826   22.4096 C   0  0  2  0  0  0  0  0  0  0  0  0
   10.0576  -16.5080   23.7649 N   0  0  0  0  0  0  0  0  0  0  0  0
   11.6135  -15.9040   22.1196 C   0  0  0  0  0  0  0  0  0  0  0  0
   12.3918  -15.3176   22.8950 O   0  0  0  0  0  0  0  0  0  0  0  0
    8.8727  -14.2132   15.8885 N   0  0  0  0  0  0  0  0  0  0  0  0
   12.2048  -16.4815   20.9559 C   0  0  2  0  0  0  0  0  0  0  0  0
   13.5851  -16.2573   20.5763 C   0  0  0  0  0  0  0  0  0  0  0  0
   13.9351  -17.3114   19.5323 C   0  0  0  0  0  0  0  0  0  0  0  0
   14.1150  -18.6264   20.1825 O   0  0  0  0  0  0  0  0  0  0  0  0
   14.4934  -18.6808   21.3957 C   0  0  0  0  0  0  0  0  0  0  0  0
   13.7853  -14.9182   20.0002 O   0  0  0  0  0  0  0  0  0  0  0  0
   15.0680  -14.4617   19.7699 O   0  0  0  0  0  0  0  0  0  0  0  0
   13.8783  -19.7972   19.4873 O   0  0  0  0  0  0  0  0  0  0  0  0
  2  1  1  6
  2  3  1  0
  2  9  1  0
  3  4  1  0
  4  5  2  0
  4  8  1  0
  5  6  1  0
  6  7  1  0
  8  7  2  0
  9 10  2  0
 12 11  1  0
 12 14  1  0
 13 12  2  0
 15 14  1  0
 15 16  1  0
 18 17  1  1
 17 16  1  0
 19  9  1  0
 19 18  1  0
 20 21  2  0
 20 18  1  0
 22 20  1  0
 23 27  1  0
 23 22  1  0
 23 24  1  1
 25 24  1  0
 25 26  2  0
 27 28  1  0
 29 25  1  0
 30 27  2  0
M  END
$$$$
