HRD.pdb
     RDKit          3D

 30 30  0  0  1  0  0  0  0  0999 V2000
    6.1994  -15.9824   25.5517 N   0  0  0  0  0  0  0  0  0  0  0  0
    6.9659  -14.9476   24.8441 C   0  0  1  0  0  0  0  0  0  0  0  0
    7.8553  -14.3485   25.9160 C   0  0  0  0  0  0  0  0  0  0  0  0
    7.0321  -13.3684   26.6688 C   0  0  0  0  0  0  0  0  0  0  0  0
    6.1440  -12.4150   26.2058 C   0  0  0  0  0  0  0  0  0  0  0  0
    5.6143  -11.7384   27.2330 N   0  0  0  0  0  0  0  0  0  0  0  0
    6.1370  -12.2299   28.3563 C   0  0  0  0  0  0  0  0  0  0  0  0
    6.9981  -13.2188   28.0247 N   0  0  0  0  0  0  0  0  0  0  0  0
    7.7346  -15.6139   23.7816 C   0  0  0  0  0  0  0  0  0  0  0  0
    8.1264  -16.7856   23.9723 O   0  0  0  0  0  0  0  0  0  0  0  0
    9.6536  -14.7782   16.8952 N   0  0  0  0  0  0  0  0  0  0  0  0
    8.3470  -14.2649   16.9905 C   0  0  0  0  0  0  0  0  0  0  0  0
    7.4690  -14.5513   16.0810 N   0  0  0  0  0  0  0  0  0  0  0  0
    7.9389  -13.4261   18.0622 N   0  0  0  0  0  0  0  0  0  0  0  0
    8.8895  -12.8824   19.0052 C   0  0  0  0  0  0  0  0  0  0  0  0
    8.8529  -13.6089   20.3384 C   0  0  0  0  0  0  0  0  0  0  0  0
    8.8372  -15.1029   20.2111 C   0  0  0  0  0  0  0  0  0  0  0  0
    8.8246  -15.7700   21.5169 C   0  0  2  0  0  0  0  0  0  0  0  0
    8.0814  -15.0512   22.5447 N   0  0  0  0  0  0  0  0  0  0  0  0
   10.1857  -15.9575   22.0517 C   0  0  0  0  0  0  0  0  0  0  0  0
   10.7623  -15.0437   22.6709 O   0  0  0  0  0  0  0  0  0  0  0  0
    6.4910  -14.2271   16.0923 N   0  0  0  0  0  0  0  0  0  0  0  0
   10.9199  -17.1721   21.8995 C   0  0  1  0  0  0  0  0  0  0  0  0
   12.2836  -17.3347   22.3616 C   0  0  0  0  0  0  0  0  0  0  0  0
   12.4380  -18.7909   22.7852 C   0  0  0  0  0  0  0  0  0  0  0  0
   11.8395  -18.9947   24.1210 O   0  0  0  0  0  0  0  0  0  0  0  0
   11.3888  -17.9957   24.7666 C   0  0  0  0  0  0  0  0  0  0  0  0
   13.2612  -17.0302   21.3049 O   0  0  0  0  0  0  0  0  0  0  0  0
   12.8178  -16.7622   20.0249 O   0  0  0  0  0  0  0  0  0  0  0  0
   11.7652  -20.2577   24.6773 O   0  0  0  0  0  0  0  0  0  0  0  0
  2  1  1  1
  2  3  1  0
  2  9  1  0
  3  4  1  0
  4  5  2  0
  4  8  1  0
  5  6  1  0
  6  7  1  0
  8  7  2  0
  9 10  2  0
 12 11  1  0
 12 14  1  0
 13 12  2  0
 15 14  1  0
 15 16  1  0
 18 17  1  6
 17 16  1  0
 19  9  1  0
 19 18  1  0
 20 21  2  0
 20 18  1  0
 22 20  1  0
 23 27  1  0
 23 22  1  0
 23 24  1  1
 25 24  1  0
 25 26  2  0
 27 28  1  0
 29 25  1  0
 30 27  2  0
M  END
$$$$
