HRD.pdb
     RDKit          3D

 30 30  0  0  1  0  0  0  0  0999 V2000
    9.4842  -15.4027   20.6885 N   0  0  0  0  0  0  0  0  0  0  0  0
    8.5951  -14.7370   21.6506 C   0  0  1  0  0  0  0  0  0  0  0  0
    7.2862  -14.5852   20.9005 C   0  0  0  0  0  0  0  0  0  0  0  0
    7.5858  -13.8550   19.6427 C   0  0  0  0  0  0  0  0  0  0  0  0
    7.8543  -12.5141   19.4381 C   0  0  0  0  0  0  0  0  0  0  0  0
    8.0696  -12.2785   18.1375 N   0  0  0  0  0  0  0  0  0  0  0  0
    7.9481  -13.4366   17.4890 C   0  0  0  0  0  0  0  0  0  0  0  0
    7.6546  -14.3988   18.3932 N   0  0  0  0  0  0  0  0  0  0  0  0
    8.4736  -15.6160   22.8237 C   0  0  0  0  0  0  0  0  0  0  0  0
    7.5931  -15.3605   23.6735 O   0  0  0  0  0  0  0  0  0  0  0  0
   11.3849  -20.0404   20.0426 N   0  0  0  0  0  0  0  0  0  0  0  0
   10.0902  -20.5913   20.0341 C   0  0  0  0  0  0  0  0  0  0  0  0
    9.4297  -20.6803   18.9224 N   0  0  0  0  0  0  0  0  0  0  0  0
    9.4597  -21.0628   21.2168 N   0  0  0  0  0  0  0  0  0  0  0  0
   10.0828  -20.9299   22.5140 C   0  0  0  0  0  0  0  0  0  0  0  0
   10.1337  -19.4851   22.9794 C   0  0  0  0  0  0  0  0  0  0  0  0
    8.9421  -19.0700   23.7895 C   0  0  0  0  0  0  0  0  0  0  0  0
    9.0091  -17.6613   24.1917 C   0  0  2  0  0  0  0  0  0  0  0  0
    9.2677  -16.7405   23.0913 N   0  0  0  0  0  0  0  0  0  0  0  0
   10.0734  -17.4228   25.1836 C   0  0  0  0  0  0  0  0  0  0  0  0
   11.2065  -17.0463   24.8297 O   0  0  0  0  0  0  0  0  0  0  0  0
    8.4445  -20.9738   18.8514 N   0  0  0  0  0  0  0  0  0  0  0  0
    9.8826  -17.6034   26.5866 C   0  0  1  0  0  0  0  0  0  0  0  0
   10.9252  -17.3626   27.5638 C   0  0  0  0  0  0  0  0  0  0  0  0
   10.2386  -16.8744   28.8341 C   0  0  0  0  0  0  0  0  0  0  0  0
   11.2495  -16.5509   29.8625 O   0  0  0  0  0  0  0  0  0  0  0  0
   12.4285  -16.2328   29.5063 C   0  0  0  0  0  0  0  0  0  0  0  0
   11.6893  -18.5838   27.8634 O   0  0  0  0  0  0  0  0  0  0  0  0
   12.9351  -18.4799   28.4499 O   0  0  0  0  0  0  0  0  0  0  0  0
   10.9291  -16.5913   31.2063 O   0  0  0  0  0  0  0  0  0  0  0  0
  2  1  1  6
  2  3  1  0
  2  9  1  0
  3  4  1  0
  4  5  2  0
  4  8  1  0
  5  6  1  0
  6  7  1  0
  8  7  2  0
  9 10  2  0
 12 11  1  0
 12 14  1  0
 13 12  2  0
 15 14  1  0
 15 16  1  0
 18 17  1  6
 17 16  1  0
 19  9  1  0
 19 18  1  0
 20 21  2  0
 20 18  1  0
 22 20  1  0
 23 27  1  0
 23 22  1  0
 23 24  1  1
 25 24  1  0
 25 26  2  0
 27 28  1  0
 29 25  1  0
 30 27  2  0
M  END
$$$$
