CLQ.pdb
     RDKit          3D

 24 23  0  0  1  0  0  0  0  0999 V2000
   12.5792  -17.6639    5.3748 N   0  0  0  0  0  0  0  0  0  0  0  0
   12.9443  -19.0598    5.3116 C   0  0  1  0  0  0  0  0  0  0  0  0
   11.7156  -19.9472    5.3505 C   0  0  0  0  0  0  0  0  0  0  0  0
   11.5936  -20.7419    6.9662 S   0  0  0  0  0  0  0  0  0  0  0  0
   13.7715  -19.3656    4.1165 C   0  0  0  0  0  0  0  0  0  0  0  0
   13.2677  -19.0852    2.9952 O   0  0  0  0  0  0  0  0  0  0  0  0
   16.8209  -17.9841    1.2404 C   0  0  0  0  0  0  0  0  0  0  0  0
   17.3593  -18.3323    2.6414 C   0  0  2  0  0  0  0  0  0  0  0  0
   18.7782  -17.8735    2.7347 C   0  0  0  0  0  0  0  0  0  0  0  0
   17.1830  -19.7960    2.9141 C   0  0  0  0  0  0  0  0  0  0  0  0
   15.7858  -20.2838    3.0203 C   0  0  2  0  0  0  0  0  0  0  0  0
   15.0593  -19.9399    4.1883 N   0  0  0  0  0  0  0  0  0  0  0  0
   15.8139  -21.7658    2.7849 C   0  0  0  0  0  0  0  0  0  0  0  0
   15.8878  -22.4925    3.8034 O   0  0  0  0  0  0  0  0  0  0  0  0
   13.6403  -26.7908    1.3871 N   0  0  0  0  0  0  0  0  0  0  0  0
   12.9005  -25.6742    0.9304 C   0  0  0  0  0  0  0  0  0  0  0  0
   11.8510  -25.8291    0.2746 O   0  0  0  0  0  0  0  0  0  0  0  0
   13.4089  -24.3149    1.2538 C   0  0  0  0  0  0  0  0  0  0  0  0
   14.6519  -24.4510    2.1078 C   0  0  0  0  0  0  0  0  0  0  0  0
   15.7857  -23.7724    1.3667 C   0  0  2  0  0  0  0  0  0  0  0  0
   15.7619  -22.3507    1.5019 N   0  0  0  0  0  0  0  0  0  0  0  0
   15.8080  -24.1332   -0.0589 C   0  0  0  0  0  0  0  0  0  0  0  0
   15.6047  -23.3027   -0.9828 O   0  0  0  0  0  0  0  0  0  0  0  0
   16.0622  -25.4408   -0.4292 O   0  0  0  0  0  0  0  0  0  0  0  0
  2  1  1  6
  3  2  1  0
  4  3  1  0
  5  6  2  0
  5  2  1  0
  8 10  1  0
  8  7  1  6
  9  8  1  0
 11 10  1  1
 11 12  1  0
 12  5  1  0
 13 11  1  0
 14 13  2  0
 16 15  1  0
 17 16  2  0
 18 16  1  0
 19 18  1  0
 20 19  1  6
 20 21  1  0
 21 13  1  0
 22 24  1  0
 22 20  1  0
 23 22  2  0
M  END
$$$$
