CLQ.pdb
     RDKit          3D

 24 23  0  0  1  0  0  0  0  0999 V2000
   28.1350  -19.8919  -15.9752 N   0  0  0  0  0  0  0  0  0  0  0  0
   27.2423  -19.1007  -15.1610 C   0  0  1  0  0  0  0  0  0  0  0  0
   26.5394  -18.0443  -15.9908 C   0  0  0  0  0  0  0  0  0  0  0  0
   27.7419  -16.8283  -16.5675 S   0  0  0  0  0  0  0  0  0  0  0  0
   26.2529  -19.9420  -14.4403 C   0  0  0  0  0  0  0  0  0  0  0  0
   25.8501  -20.9763  -15.0385 O   0  0  0  0  0  0  0  0  0  0  0  0
   25.6650  -20.6472   -8.7318 C   0  0  0  0  0  0  0  0  0  0  0  0
   25.5741  -21.2113  -10.1627 C   0  0  2  0  0  0  0  0  0  0  0  0
   26.9590  -21.3877  -10.6948 C   0  0  0  0  0  0  0  0  0  0  0  0
   24.7128  -20.3268  -11.0135 C   0  0  0  0  0  0  0  0  0  0  0  0
   24.8495  -20.4878  -12.4821 C   0  0  2  0  0  0  0  0  0  0  0  0
   25.7633  -19.6355  -13.1520 N   0  0  0  0  0  0  0  0  0  0  0  0
   23.4694  -20.4126  -13.0673 C   0  0  0  0  0  0  0  0  0  0  0  0
   23.0400  -19.2675  -13.3414 O   0  0  0  0  0  0  0  0  0  0  0  0
   20.4222  -24.3166  -16.7633 N   0  0  0  0  0  0  0  0  0  0  0  0
   19.5627  -23.1938  -16.7059 C   0  0  0  0  0  0  0  0  0  0  0  0
   18.5842  -23.0994  -17.4735 O   0  0  0  0  0  0  0  0  0  0  0  0
   19.8588  -22.1330  -15.7070 C   0  0  0  0  0  0  0  0  0  0  0  0
   21.1463  -22.4844  -14.9916 C   0  0  0  0  0  0  0  0  0  0  0  0
   21.4065  -21.3967  -13.9696 C   0  0  2  0  0  0  0  0  0  0  0  0
   22.6653  -21.5460  -13.3116 N   0  0  0  0  0  0  0  0  0  0  0  0
   20.3324  -21.3109  -12.9686 C   0  0  0  0  0  0  0  0  0  0  0  0
   20.3794  -21.8977  -11.8559 O   0  0  0  0  0  0  0  0  0  0  0  0
   19.2059  -20.5559  -13.2377 O   0  0  0  0  0  0  0  0  0  0  0  0
  2  1  1  6
  3  2  1  0
  4  3  1  0
  5  6  2  0
  5  2  1  0
  8 10  1  0
  8  7  1  1
  9  8  1  0
 11 10  1  1
 11 12  1  0
 12  5  1  0
 13 11  1  0
 14 13  2  0
 16 15  1  0
 17 16  2  0
 18 16  1  0
 19 18  1  0
 20 19  1  6
 20 21  1  0
 21 13  1  0
 22 24  1  0
 22 20  1  0
 23 22  2  0
M  END
$$$$
