CLQ.pdb
     RDKit          3D

 24 23  0  0  1  0  0  0  0  0999 V2000
   23.4743  -15.2498  -18.5160 N   0  0  0  0  0  0  0  0  0  0  0  0
   24.0532  -14.1093  -19.1866 C   0  0  1  0  0  0  0  0  0  0  0  0
   23.1021  -13.5458  -20.2240 C   0  0  0  0  0  0  0  0  0  0  0  0
   23.1604  -14.5621  -21.7143 S   0  0  0  0  0  0  0  0  0  0  0  0
   24.4677  -13.0519  -18.2295 C   0  0  0  0  0  0  0  0  0  0  0  0
   23.6605  -12.7864  -17.2980 O   0  0  0  0  0  0  0  0  0  0  0  0
   27.6779  -12.8113  -15.1898 C   0  0  0  0  0  0  0  0  0  0  0  0
   28.2162  -12.4091  -16.5764 C   0  0  2  0  0  0  0  0  0  0  0  0
   29.6964  -12.2304  -16.4799 C   0  0  0  0  0  0  0  0  0  0  0  0
   27.4965  -11.1930  -17.0776 C   0  0  0  0  0  0  0  0  0  0  0  0
   26.0537  -11.3584  -17.3813 C   0  0  2  0  0  0  0  0  0  0  0  0
   25.6928  -12.3560  -18.3220 N   0  0  0  0  0  0  0  0  0  0  0  0
   25.5208  -10.0061  -17.7552 C   0  0  0  0  0  0  0  0  0  0  0  0
   25.8979   -9.5415  -18.8565 O   0  0  0  0  0  0  0  0  0  0  0  0
   20.4835   -6.8360  -15.7599 N   0  0  0  0  0  0  0  0  0  0  0  0
   21.0252   -5.9835  -16.7512 C   0  0  0  0  0  0  0  0  0  0  0  0
   20.4332   -4.9384  -17.0868 O   0  0  0  0  0  0  0  0  0  0  0  0
   22.3167   -6.3687  -17.3792 C   0  0  0  0  0  0  0  0  0  0  0  0
   22.7569   -7.7006  -16.8088 C   0  0  0  0  0  0  0  0  0  0  0  0
   24.1093   -8.0245  -17.4096 C   0  0  2  0  0  0  0  0  0  0  0  0
   24.6407   -9.2641  -16.9394 N   0  0  0  0  0  0  0  0  0  0  0  0
   25.0867   -6.9494  -17.1820 C   0  0  0  0  0  0  0  0  0  0  0  0
   25.2453   -5.9838  -17.9740 O   0  0  0  0  0  0  0  0  0  0  0  0
   25.8822   -6.9767  -16.0516 O   0  0  0  0  0  0  0  0  0  0  0  0
  2  1  1  1
  3  2  1  0
  4  3  1  0
  5  6  2  0
  5  2  1  0
  8 10  1  0
  8  7  1  1
  9  8  1  0
 11 10  1  6
 11 12  1  0
 12  5  1  0
 13 11  1  0
 14 13  2  0
 16 15  1  0
 17 16  2  0
 18 16  1  0
 19 18  1  0
 20 19  1  1
 20 21  1  0
 21 13  1  0
 22 24  1  0
 22 20  1  0
 23 22  2  0
M  END
$$$$
