CLQ.pdb
     RDKit          3D

 24 23  0  0  1  0  0  0  0  0999 V2000
   26.5248  -21.5298  -12.4188 N   0  0  0  0  0  0  0  0  0  0  0  0
   25.4096  -20.7043  -12.0179 C   0  0  1  0  0  0  0  0  0  0  0  0
   25.4403  -20.4329  -10.5266 C   0  0  0  0  0  0  0  0  0  0  0  0
   25.8631  -21.9491   -9.6438 S   0  0  0  0  0  0  0  0  0  0  0  0
   25.3578  -19.4302  -12.7794 C   0  0  0  0  0  0  0  0  0  0  0  0
   26.0748  -18.4865  -12.3492 O   0  0  0  0  0  0  0  0  0  0  0  0
   25.0772  -16.2463  -17.0703 C   0  0  0  0  0  0  0  0  0  0  0  0
   25.9490  -16.2116  -15.8004 C   0  0  2  0  0  0  0  0  0  0  0  0
   27.3216  -15.7568  -16.1764 C   0  0  0  0  0  0  0  0  0  0  0  0
   25.9250  -17.5475  -15.1200 C   0  0  0  0  0  0  0  0  0  0  0  0
   24.5978  -18.0359  -14.6717 C   0  0  2  0  0  0  0  0  0  0  0  0
   24.5608  -19.2436  -13.9298 N   0  0  0  0  0  0  0  0  0  0  0  0
   23.7111  -18.0855  -15.8816 C   0  0  0  0  0  0  0  0  0  0  0  0
   24.0034  -18.9360  -16.7546 O   0  0  0  0  0  0  0  0  0  0  0  0
   19.7036  -17.7929  -12.4251 N   0  0  0  0  0  0  0  0  0  0  0  0
   18.9535  -18.5643  -13.3444 C   0  0  0  0  0  0  0  0  0  0  0  0
   17.7872  -18.9174  -13.0789 O   0  0  0  0  0  0  0  0  0  0  0  0
   19.5942  -18.9408  -14.6323 C   0  0  0  0  0  0  0  0  0  0  0  0
   21.0261  -18.4485  -14.6254 C   0  0  0  0  0  0  0  0  0  0  0  0
   21.2757  -17.7662  -15.9548 C   0  0  2  0  0  0  0  0  0  0  0  0
   22.5981  -17.2380  -16.0656 N   0  0  0  0  0  0  0  0  0  0  0  0
   20.2947  -16.7039  -16.2233 C   0  0  0  0  0  0  0  0  0  0  0  0
   20.5186  -15.4862  -15.9957 O   0  0  0  0  0  0  0  0  0  0  0  0
   19.0595  -17.0314  -16.7510 O   0  0  0  0  0  0  0  0  0  0  0  0
  2  1  1  6
  3  2  1  0
  4  3  1  0
  5  6  2  0
  5  2  1  0
  8 10  1  0
  8  7  1  6
  9  8  1  0
 11 10  1  6
 11 12  1  0
 12  5  1  0
 13 11  1  0
 14 13  2  0
 16 15  1  0
 17 16  2  0
 18 16  1  0
 19 18  1  0
 20 19  1  1
 20 21  1  0
 21 13  1  0
 22 24  1  0
 22 20  1  0
 23 22  2  0
M  END
$$$$
