CLQ.pdb
     RDKit          3D

 24 23  0  0  1  0  0  0  0  0999 V2000
   19.7654  -12.5959  -17.1466 N   0  0  0  0  0  0  0  0  0  0  0  0
   20.5564  -11.6553  -17.9051 C   0  0  1  0  0  0  0  0  0  0  0  0
   19.6941  -10.8810  -18.8826 C   0  0  0  0  0  0  0  0  0  0  0  0
   19.0275  -12.0069  -20.1256 S   0  0  0  0  0  0  0  0  0  0  0  0
   21.3118  -10.7265  -17.0260 C   0  0  0  0  0  0  0  0  0  0  0  0
   20.7103  -10.3056  -16.0010 O   0  0  0  0  0  0  0  0  0  0  0  0
   27.0267  -10.2828  -15.7957 C   0  0  0  0  0  0  0  0  0  0  0  0
   25.5463  -10.1064  -15.4063 C   0  0  2  0  0  0  0  0  0  0  0  0
   24.9791  -11.4466  -15.0683 C   0  0  0  0  0  0  0  0  0  0  0  0
   24.8044   -9.3997  -16.5010 C   0  0  0  0  0  0  0  0  0  0  0  0
   23.3233   -9.4274  -16.4187 C   0  0  2  0  0  0  0  0  0  0  0  0
   22.6356  -10.3114  -17.2882 N   0  0  0  0  0  0  0  0  0  0  0  0
   22.8445   -8.0114  -16.5539 C   0  0  0  0  0  0  0  0  0  0  0  0
   22.5551   -7.6272  -17.7113 O   0  0  0  0  0  0  0  0  0  0  0  0
   18.1875   -5.8696  -17.0333 N   0  0  0  0  0  0  0  0  0  0  0  0
   18.6889   -4.6134  -16.6169 C   0  0  0  0  0  0  0  0  0  0  0  0
   17.9896   -3.5848  -16.7094 O   0  0  0  0  0  0  0  0  0  0  0  0
   20.0694   -4.5553  -16.0676 C   0  0  0  0  0  0  0  0  0  0  0  0
   20.6190   -5.9637  -15.9835 C   0  0  0  0  0  0  0  0  0  0  0  0
   22.0924   -5.8543  -15.6485 C   0  0  2  0  0  0  0  0  0  0  0  0
   22.7131   -7.1272  -15.4623 N   0  0  0  0  0  0  0  0  0  0  0  0
   22.3291   -5.0112  -14.4670 C   0  0  0  0  0  0  0  0  0  0  0  0
   22.7021   -5.4712  -13.3561 O   0  0  0  0  0  0  0  0  0  0  0  0
   22.1403   -3.6443  -14.5536 O   0  0  0  0  0  0  0  0  0  0  0  0
  2  1  1  1
  3  2  1  0
  4  3  1  0
  5  6  2  0
  5  2  1  0
  8 10  1  0
  8  7  1  6
  9  8  1  0
 11 10  1  6
 11 12  1  0
 12  5  1  0
 13 11  1  0
 14 13  2  0
 16 15  1  0
 17 16  2  0
 18 16  1  0
 19 18  1  0
 20 19  1  1
 20 21  1  0
 21 13  1  0
 22 24  1  0
 22 20  1  0
 23 22  2  0
M  END
$$$$
