CLQ.pdb
     RDKit          3D

 24 23  0  0  1  0  0  0  0  0999 V2000
   28.3871  -20.3623  -15.9130 N   0  0  0  0  0  0  0  0  0  0  0  0
   27.4920  -19.4735  -15.2098 C   0  0  1  0  0  0  0  0  0  0  0  0
   26.9431  -18.4067  -16.1368 C   0  0  0  0  0  0  0  0  0  0  0  0
   28.1120  -17.0355  -16.2412 S   0  0  0  0  0  0  0  0  0  0  0  0
   26.3849  -20.2085  -14.5464 C   0  0  0  0  0  0  0  0  0  0  0  0
   25.9285  -21.2124  -15.1576 O   0  0  0  0  0  0  0  0  0  0  0  0
   26.4146  -22.2501  -10.6522 C   0  0  0  0  0  0  0  0  0  0  0  0
   25.9565  -20.8029  -10.3877 C   0  0  2  0  0  0  0  0  0  0  0  0
   25.7777  -20.6207   -8.9157 C   0  0  0  0  0  0  0  0  0  0  0  0
   24.7235  -20.4971  -11.1842 C   0  0  0  0  0  0  0  0  0  0  0  0
   24.8444  -20.6138  -12.6583 C   0  0  2  0  0  0  0  0  0  0  0  0
   25.8428  -19.8358  -13.2971 N   0  0  0  0  0  0  0  0  0  0  0  0
   23.4803  -20.3724  -13.2360 C   0  0  0  0  0  0  0  0  0  0  0  0
   23.0991  -19.1797  -13.2900 O   0  0  0  0  0  0  0  0  0  0  0  0
   21.6342  -20.7204  -18.6775 N   0  0  0  0  0  0  0  0  0  0  0  0
   21.5982  -21.8628  -17.8430 C   0  0  0  0  0  0  0  0  0  0  0  0
   21.1153  -22.9373  -18.2525 O   0  0  0  0  0  0  0  0  0  0  0  0
   22.1512  -21.7455  -16.4677 C   0  0  0  0  0  0  0  0  0  0  0  0
   21.0227  -21.9205  -15.4733 C   0  0  0  0  0  0  0  0  0  0  0  0
   21.3612  -21.0865  -14.2547 C   0  0  2  0  0  0  0  0  0  0  0  0
   22.6403  -21.4047  -13.7047 N   0  0  0  0  0  0  0  0  0  0  0  0
   20.3327  -21.1937  -13.2089 C   0  0  0  0  0  0  0  0  0  0  0  0
   20.4297  -21.9728  -12.2248 O   0  0  0  0  0  0  0  0  0  0  0  0
   19.1947  -20.4125  -13.2865 O   0  0  0  0  0  0  0  0  0  0  0  0
  2  1  1  6
  3  2  1  0
  4  3  1  0
  5  6  2  0
  5  2  1  0
  8 10  1  0
  8  7  1  1
  9  8  1  0
 11 10  1  1
 11 12  1  0
 12  5  1  0
 13 11  1  0
 14 13  2  0
 16 15  1  0
 17 16  2  0
 18 16  1  0
 19 18  1  0
 20 19  1  6
 20 21  1  0
 21 13  1  0
 22 24  1  0
 22 20  1  0
 23 22  2  0
M  END
$$$$
