CLQ.pdb
     RDKit          3D

 24 23  0  0  1  0  0  0  0  0999 V2000
   21.5648  -19.3741  -13.8544 N   0  0  0  0  0  0  0  0  0  0  0  0
   22.2840  -20.6246  -13.9236 C   0  0  1  0  0  0  0  0  0  0  0  0
   21.5754  -21.6119  -14.8300 C   0  0  0  0  0  0  0  0  0  0  0  0
   20.0176  -22.1189  -14.0728 S   0  0  0  0  0  0  0  0  0  0  0  0
   23.6915  -20.4342  -14.3581 C   0  0  0  0  0  0  0  0  0  0  0  0
   23.9108  -19.4864  -15.1602 O   0  0  0  0  0  0  0  0  0  0  0  0
   27.9637  -19.1747  -12.7346 C   0  0  0  0  0  0  0  0  0  0  0  0
   27.4773  -20.5487  -12.2349 C   0  0  2  0  0  0  0  0  0  0  0  0
   28.5014  -21.1064  -11.3010 C   0  0  0  0  0  0  0  0  0  0  0  0
   27.1753  -21.4448  -13.3984 C   0  0  0  0  0  0  0  0  0  0  0  0
   26.0964  -20.9973  -14.3133 C   0  0  2  0  0  0  0  0  0  0  0  0
   24.7577  -21.2495  -13.9199 N   0  0  0  0  0  0  0  0  0  0  0  0
   26.4044  -21.5583  -15.6709 C   0  0  0  0  0  0  0  0  0  0  0  0
   27.5278  -22.0959  -15.8120 O   0  0  0  0  0  0  0  0  0  0  0  0
   25.6007  -26.1347  -15.9237 N   0  0  0  0  0  0  0  0  0  0  0  0
   25.1169  -26.1993  -17.2521 C   0  0  0  0  0  0  0  0  0  0  0  0
   25.1356  -27.2728  -17.8865 O   0  0  0  0  0  0  0  0  0  0  0  0
   24.5871  -24.9538  -17.8678 C   0  0  0  0  0  0  0  0  0  0  0  0
   24.7187  -23.8234  -16.8690 C   0  0  0  0  0  0  0  0  0  0  0  0
   25.3352  -22.6466  -17.5972 C   0  0  2  0  0  0  0  0  0  0  0  0
   25.5055  -21.5042  -16.7571 N   0  0  0  0  0  0  0  0  0  0  0  0
   24.5646  -22.2712  -18.7923 C   0  0  0  0  0  0  0  0  0  0  0  0
   23.7206  -21.3372  -18.8023 O   0  0  0  0  0  0  0  0  0  0  0  0
   24.7572  -22.9614  -19.9746 O   0  0  0  0  0  0  0  0  0  0  0  0
  2  1  1  6
  3  2  1  0
  4  3  1  0
  5  6  2  0
  5  2  1  0
  8 10  1  0
  8  7  1  6
  9  8  1  0
 11 10  1  1
 11 12  1  0
 12  5  1  0
 13 11  1  0
 14 13  2  0
 16 15  1  0
 17 16  2  0
 18 16  1  0
 19 18  1  0
 20 19  1  1
 20 21  1  0
 21 13  1  0
 22 24  1  0
 22 20  1  0
 23 22  2  0
M  END
$$$$
