CLQ.pdb
     RDKit          3D

 24 23  0  0  1  0  0  0  0  0999 V2000
   27.6878  -22.4709  -15.4027 N   0  0  0  0  0  0  0  0  0  0  0  0
   27.2531  -21.2021  -14.8669 C   0  0  1  0  0  0  0  0  0  0  0  0
   26.8676  -20.2445  -15.9773 C   0  0  0  0  0  0  0  0  0  0  0  0
   28.3332  -19.8060  -16.9348 S   0  0  0  0  0  0  0  0  0  0  0  0
   26.1355  -21.3589  -13.9013 C   0  0  0  0  0  0  0  0  0  0  0  0
   25.2441  -22.1984  -14.2018 O   0  0  0  0  0  0  0  0  0  0  0  0
   26.0213  -22.0338   -9.2354 C   0  0  0  0  0  0  0  0  0  0  0  0
   26.1746  -20.5578   -9.6501 C   0  0  2  0  0  0  0  0  0  0  0  0
   26.3506  -19.7319   -8.4176 C   0  0  0  0  0  0  0  0  0  0  0  0
   25.0104  -20.1344  -10.4948 C   0  0  0  0  0  0  0  0  0  0  0  0
   24.9150  -20.7482  -11.8422 C   0  0  2  0  0  0  0  0  0  0  0  0
   26.0385  -20.6258  -12.6985 N   0  0  0  0  0  0  0  0  0  0  0  0
   23.6577  -20.2307  -12.4777 C   0  0  0  0  0  0  0  0  0  0  0  0
   23.7983  -19.3546  -13.3629 O   0  0  0  0  0  0  0  0  0  0  0  0
   22.1843  -23.6557  -16.0888 N   0  0  0  0  0  0  0  0  0  0  0  0
   20.9549  -22.9649  -16.2082 C   0  0  0  0  0  0  0  0  0  0  0  0
   20.1856  -23.1917  -17.1633 O   0  0  0  0  0  0  0  0  0  0  0  0
   20.6077  -21.9638  -15.1650 C   0  0  0  0  0  0  0  0  0  0  0  0
   21.7547  -21.8691  -14.1810 C   0  0  0  0  0  0  0  0  0  0  0  0
   21.3704  -20.8407  -13.1370 C   0  0  2  0  0  0  0  0  0  0  0  0
   22.3669  -20.6795  -12.1266 N   0  0  0  0  0  0  0  0  0  0  0  0
   20.0757  -21.1470  -12.5102 C   0  0  0  0  0  0  0  0  0  0  0  0
   19.0004  -21.2360  -13.1588 O   0  0  0  0  0  0  0  0  0  0  0  0
   20.0086  -21.3513  -11.1445 O   0  0  0  0  0  0  0  0  0  0  0  0
  2  1  1  6
  3  2  1  0
  4  3  1  0
  5  6  2  0
  5  2  1  0
  8 10  1  0
  8  7  1  1
  9  8  1  0
 11 10  1  1
 11 12  1  0
 12  5  1  0
 13 11  1  0
 14 13  2  0
 16 15  1  0
 17 16  2  0
 18 16  1  0
 19 18  1  0
 20 19  1  6
 20 21  1  0
 21 13  1  0
 22 24  1  0
 22 20  1  0
 23 22  2  0
M  END
$$$$
