CLQ.pdb
     RDKit          3D

 24 23  0  0  1  0  0  0  0  0999 V2000
   18.6622  -12.7522  -17.1994 N   0  0  0  0  0  0  0  0  0  0  0  0
   19.3911  -11.6623  -17.8047 C   0  0  1  0  0  0  0  0  0  0  0  0
   18.4474  -10.5865  -18.3053 C   0  0  0  0  0  0  0  0  0  0  0  0
   17.3961  -11.2615  -19.6078 S   0  0  0  0  0  0  0  0  0  0  0  0
   20.3981  -11.0836  -16.8788 C   0  0  0  0  0  0  0  0  0  0  0  0
   20.0070  -10.8298  -15.7073 O   0  0  0  0  0  0  0  0  0  0  0  0
   26.3963  -10.7065  -15.5273 C   0  0  0  0  0  0  0  0  0  0  0  0
   24.9928  -10.0866  -15.3863 C   0  0  2  0  0  0  0  0  0  0  0  0
   24.5751  -10.1726  -13.9544 C   0  0  0  0  0  0  0  0  0  0  0  0
   24.0367  -10.7510  -16.3310 C   0  0  0  0  0  0  0  0  0  0  0  0
   22.6512  -10.2204  -16.3491 C   0  0  2  0  0  0  0  0  0  0  0  0
   21.7336  -10.8163  -17.2508 N   0  0  0  0  0  0  0  0  0  0  0  0
   22.7473   -8.7344  -16.5362 C   0  0  0  0  0  0  0  0  0  0  0  0
   23.3615   -8.3376  -17.5542 O   0  0  0  0  0  0  0  0  0  0  0  0
   17.3990   -6.0380  -15.7437 N   0  0  0  0  0  0  0  0  0  0  0  0
   18.6303   -5.4891  -16.1741 C   0  0  0  0  0  0  0  0  0  0  0  0
   18.6609   -4.5880  -17.0358 O   0  0  0  0  0  0  0  0  0  0  0  0
   19.8832   -6.0162  -15.5710 C   0  0  0  0  0  0  0  0  0  0  0  0
   21.0062   -5.8686  -16.5760 C   0  0  0  0  0  0  0  0  0  0  0  0
   22.2664   -6.4029  -15.9268 C   0  0  2  0  0  0  0  0  0  0  0  0
   22.1902   -7.7996  -15.6381 N   0  0  0  0  0  0  0  0  0  0  0  0
   22.6140   -5.6635  -14.7040 C   0  0  0  0  0  0  0  0  0  0  0  0
   22.9267   -4.4440  -14.7019 O   0  0  0  0  0  0  0  0  0  0  0  0
   22.6048   -6.3155  -13.4848 O   0  0  0  0  0  0  0  0  0  0  0  0
  2  1  1  1
  3  2  1  0
  4  3  1  0
  5  6  2  0
  5  2  1  0
  8 10  1  0
  8  7  1  1
  9  8  1  0
 11 10  1  6
 11 12  1  0
 12  5  1  0
 13 11  1  0
 14 13  2  0
 16 15  1  0
 17 16  2  0
 18 16  1  0
 19 18  1  0
 20 19  1  1
 20 21  1  0
 21 13  1  0
 22 24  1  0
 22 20  1  0
 23 22  2  0
M  END
$$$$
