CLQ.pdb
     RDKit          3D

 24 23  0  0  1  0  0  0  0  0999 V2000
   18.3212  -12.7885  -17.3390 N   0  0  0  0  0  0  0  0  0  0  0  0
   18.7052  -11.5652  -18.0036 C   0  0  1  0  0  0  0  0  0  0  0  0
   17.5736  -11.0312  -18.8597 C   0  0  0  0  0  0  0  0  0  0  0  0
   17.3849  -12.0645  -20.3272 S   0  0  0  0  0  0  0  0  0  0  0  0
   19.1660  -10.5305  -17.0428 C   0  0  0  0  0  0  0  0  0  0  0  0
   18.3666  -10.2246  -16.1170 O   0  0  0  0  0  0  0  0  0  0  0  0
   21.2719   -9.7517  -13.3294 C   0  0  0  0  0  0  0  0  0  0  0  0
   22.2358  -10.0673  -14.4893 C   0  0  2  0  0  0  0  0  0  0  0  0
   23.6151  -10.2183  -13.9355 C   0  0  0  0  0  0  0  0  0  0  0  0
   22.1279   -9.0152  -15.5521 C   0  0  0  0  0  0  0  0  0  0  0  0
   20.8077   -8.8804  -16.2155 C   0  0  2  0  0  0  0  0  0  0  0  0
   20.4254   -9.8978  -17.1260 N   0  0  0  0  0  0  0  0  0  0  0  0
   20.7606   -7.5151  -16.8371 C   0  0  0  0  0  0  0  0  0  0  0  0
   21.5261   -7.3167  -17.8094 O   0  0  0  0  0  0  0  0  0  0  0  0
   15.7905   -4.9496  -16.8137 N   0  0  0  0  0  0  0  0  0  0  0  0
   16.2484   -5.5556  -18.0078 C   0  0  0  0  0  0  0  0  0  0  0  0
   15.4516   -6.1218  -18.7823 O   0  0  0  0  0  0  0  0  0  0  0  0
   17.7029   -5.4980  -18.3116 C   0  0  0  0  0  0  0  0  0  0  0  0
   18.4012   -4.7370  -17.2043 C   0  0  0  0  0  0  0  0  0  0  0  0
   19.8195   -5.2628  -17.1198 C   0  0  2  0  0  0  0  0  0  0  0  0
   19.9143   -6.4820  -16.3819 N   0  0  0  0  0  0  0  0  0  0  0  0
   20.7442   -4.2690  -16.5538 C   0  0  0  0  0  0  0  0  0  0  0  0
   20.9065   -4.1055  -15.3162 O   0  0  0  0  0  0  0  0  0  0  0  0
   21.4829   -3.4628  -17.3999 O   0  0  0  0  0  0  0  0  0  0  0  0
  2  1  1  1
  3  2  1  0
  4  3  1  0
  5  6  2  0
  5  2  1  0
  8 10  1  0
  8  7  1  1
  9  8  1  0
 11 10  1  6
 11 12  1  0
 12  5  1  0
 13 11  1  0
 14 13  2  0
 16 15  1  0
 17 16  2  0
 18 16  1  0
 19 18  1  0
 20 19  1  1
 20 21  1  0
 21 13  1  0
 22 24  1  0
 22 20  1  0
 23 22  2  0
M  END
$$$$
