CLQ.pdb
     RDKit          3D

 24 23  0  0  1  0  0  0  0  0999 V2000
   22.2335  -14.9449  -16.2239 N   0  0  0  0  0  0  0  0  0  0  0  0
   22.3220  -13.8925  -17.2089 C   0  0  1  0  0  0  0  0  0  0  0  0
   21.0647  -13.8290  -18.0537 C   0  0  0  0  0  0  0  0  0  0  0  0
   20.8374  -15.3959  -18.9198 S   0  0  0  0  0  0  0  0  0  0  0  0
   22.6017  -12.5719  -16.5892 C   0  0  0  0  0  0  0  0  0  0  0  0
   21.8674  -12.2365  -15.6207 O   0  0  0  0  0  0  0  0  0  0  0  0
   26.3419  -11.1654  -14.6155 C   0  0  0  0  0  0  0  0  0  0  0  0
   26.4191  -10.8349  -16.1184 C   0  0  2  0  0  0  0  0  0  0  0  0
   27.7660  -10.2585  -16.4115 C   0  0  0  0  0  0  0  0  0  0  0  0
   25.2842   -9.9365  -16.5094 C   0  0  0  0  0  0  0  0  0  0  0  0
   23.9180  -10.4945  -16.3563 C   0  0  2  0  0  0  0  0  0  0  0  0
   23.6265  -11.7070  -17.0310 N   0  0  0  0  0  0  0  0  0  0  0  0
   22.9504   -9.4024  -16.7078 C   0  0  0  0  0  0  0  0  0  0  0  0
   22.7481   -9.2063  -17.9291 O   0  0  0  0  0  0  0  0  0  0  0  0
   17.6625   -7.6660  -14.2194 N   0  0  0  0  0  0  0  0  0  0  0  0
   17.8175   -6.6975  -15.2396 C   0  0  0  0  0  0  0  0  0  0  0  0
   16.8936   -5.9058  -15.5136 O   0  0  0  0  0  0  0  0  0  0  0  0
   19.1099   -6.6511  -15.9734 C   0  0  0  0  0  0  0  0  0  0  0  0
   20.0123   -7.7432  -15.4386 C   0  0  0  0  0  0  0  0  0  0  0  0
   21.3373   -7.6301  -16.1644 C   0  0  2  0  0  0  0  0  0  0  0  0
   22.2829   -8.6152  -15.7457 N   0  0  0  0  0  0  0  0  0  0  0  0
   21.9276   -6.2897  -16.0310 C   0  0  0  0  0  0  0  0  0  0  0  0
   23.0228   -6.0743  -15.4488 O   0  0  0  0  0  0  0  0  0  0  0  0
   21.2683   -5.1964  -16.5615 O   0  0  0  0  0  0  0  0  0  0  0  0
  2  1  1  1
  3  2  1  0
  4  3  1  0
  5  6  2  0
  5  2  1  0
  8 10  1  0
  8  7  1  1
  9  8  1  0
 11 10  1  6
 11 12  1  0
 12  5  1  0
 13 11  1  0
 14 13  2  0
 16 15  1  0
 17 16  2  0
 18 16  1  0
 19 18  1  0
 20 19  1  1
 20 21  1  0
 21 13  1  0
 22 24  1  0
 22 20  1  0
 23 22  2  0
M  END
$$$$
