FDP.pdb
     RDKit          3D

 27 28  0  0  1  0  0  0  0  0999 V2000
    6.2835  -16.7484   23.9453 N   0  0  0  0  0  0  0  0  0  0  0  0
    7.2745  -15.9101   24.5478 C   0  0  1  0  0  0  0  0  0  0  0  0
    6.7452  -15.4040   25.8612 C   0  0  0  0  0  0  0  0  0  0  0  0
    6.5754  -13.9334   25.7325 C   0  0  0  0  0  0  0  0  0  0  0  0
    5.4089  -13.2786   26.0906 C   0  0  0  0  0  0  0  0  0  0  0  0
    5.2701  -11.9042   25.9628 C   0  0  0  0  0  0  0  0  0  0  0  0
    6.3016  -11.1405   25.4696 C   0  0  0  0  0  0  0  0  0  0  0  0
    7.4789  -11.7949   25.1074 C   0  0  0  0  0  0  0  0  0  0  0  0
    7.6034  -13.1458   25.2375 C   0  0  0  0  0  0  0  0  0  0  0  0
    8.5865  -16.6201   24.7195 C   0  0  0  0  0  0  0  0  0  0  0  0
    8.5520  -17.8219   25.0742 O   0  0  0  0  0  0  0  0  0  0  0  0
    9.8111  -15.9759   24.4950 N   0  0  0  0  0  0  0  0  0  0  0  0
   11.1543  -16.5480   24.5995 C   0  0  1  0  0  0  0  0  0  0  0  0
   11.8720  -16.3733   23.3412 C   0  0  0  0  0  0  0  0  0  0  0  0
   11.1138  -16.6123   22.0945 C   0  0  0  0  0  0  0  0  0  0  0  0
   10.6431  -15.6918   21.3838 O   0  0  0  0  0  0  0  0  0  0  0  0
   11.7549  -16.4747   25.9031 C   0  0  0  0  0  0  0  0  0  0  0  0
   12.8937  -17.0912   25.9727 O   0  0  0  0  0  0  0  0  0  0  0  0
   10.8891  -17.9071   21.6527 O   0  0  0  0  0  0  0  0  0  0  0  0
   11.3306  -15.8685   27.0688 N   0  0  0  0  0  0  0  0  0  0  0  0
   10.8946  -14.4638   27.2542 C   0  0  0  0  0  0  0  0  0  0  0  0
    9.5052  -14.7260   27.8956 C   0  0  0  0  0  0  0  0  0  0  0  0
    9.6472  -16.1134   28.5418 C   0  0  0  0  0  0  0  0  0  0  0  0
   11.1773  -16.3027   28.4482 C   0  0  1  0  0  0  0  0  0  0  0  0
   11.6538  -17.5937   28.8082 C   0  0  0  0  0  0  0  0  0  0  0  0
   11.3517  -18.5818   28.0050 O   0  0  0  0  0  0  0  0  0  0  0  0
   12.3887  -17.9871   29.8814 O   0  0  0  0  0  0  0  0  0  0  0  0
  2  1  1  1
  3  2  1  0
  4  3  1  0
  5  4  2  0
  6  5  1  0
  7  6  2  0
  7  8  1  0
  8  9  2  0
  9  4  1  0
 10 11  2  0
 10  2  1  0
 12 10  1  0
 13 12  1  0
 13 14  1  6
 15 16  2  0
 15 14  1  0
 17 13  1  0
 18 17  2  0
 19 15  1  0
 20 21  1  0
 20 17  1  0
 22 21  1  0
 23 24  1  0
 23 22  1  0
 24 20  1  0
 25 27  1  0
 24 25  1  6
 26 25  2  0
M  END
$$$$
