FDP.pdb
     RDKit          3D

 27 28  0  0  1  0  0  0  0  0999 V2000
    5.7974  -16.8694   23.0354 N   0  0  0  0  0  0  0  0  0  0  0  0
    6.5945  -15.9984   23.8439 C   0  0  1  0  0  0  0  0  0  0  0  0
    5.7265  -15.4123   24.9229 C   0  0  0  0  0  0  0  0  0  0  0  0
    6.5116  -14.3408   25.5888 C   0  0  0  0  0  0  0  0  0  0  0  0
    7.1543  -14.5249   26.8016 C   0  0  0  0  0  0  0  0  0  0  0  0
    7.8828  -13.5115   27.4073 C   0  0  0  0  0  0  0  0  0  0  0  0
    7.9898  -12.2764   26.8127 C   0  0  0  0  0  0  0  0  0  0  0  0
    7.3445  -12.0853   25.5910 C   0  0  0  0  0  0  0  0  0  0  0  0
    6.6317  -13.0887   25.0058 C   0  0  0  0  0  0  0  0  0  0  0  0
    7.7910  -16.6997   24.4197 C   0  0  0  0  0  0  0  0  0  0  0  0
    7.5876  -17.7526   25.0689 O   0  0  0  0  0  0  0  0  0  0  0  0
    9.0918  -16.2072   24.2458 N   0  0  0  0  0  0  0  0  0  0  0  0
   10.3371  -16.7657   24.7748 C   0  0  1  0  0  0  0  0  0  0  0  0
   11.4656  -16.3378   23.9547 C   0  0  0  0  0  0  0  0  0  0  0  0
   11.4973  -16.8096   22.5538 C   0  0  0  0  0  0  0  0  0  0  0  0
   11.7673  -16.0666   21.5795 O   0  0  0  0  0  0  0  0  0  0  0  0
   10.3782  -16.9366   26.2012 C   0  0  0  0  0  0  0  0  0  0  0  0
   10.8131  -15.8867   26.8259 O   0  0  0  0  0  0  0  0  0  0  0  0
   11.2202  -18.1355   22.2583 O   0  0  0  0  0  0  0  0  0  0  0  0
   10.0372  -18.0097   27.0002 N   0  0  0  0  0  0  0  0  0  0  0  0
    8.8331  -18.8687   26.9005 C   0  0  0  0  0  0  0  0  0  0  0  0
    9.5317  -20.2527   26.8146 C   0  0  0  0  0  0  0  0  0  0  0  0
   10.8870  -20.0312   27.5050 C   0  0  0  0  0  0  0  0  0  0  0  0
   10.6390  -18.6532   28.1572 C   0  0  1  0  0  0  0  0  0  0  0  0
   11.7805  -18.0470   28.7512 C   0  0  0  0  0  0  0  0  0  0  0  0
   12.5717  -17.3700   27.9583 O   0  0  0  0  0  0  0  0  0  0  0  0
   12.2039  -18.0565   30.0424 O   0  0  0  0  0  0  0  0  0  0  0  0
  2  1  1  1
  3  2  1  0
  4  3  1  0
  5  4  2  0
  6  5  1  0
  7  6  2  0
  7  8  1  0
  8  9  2  0
  9  4  1  0
 10 11  2  0
 10  2  1  0
 12 10  1  0
 13 12  1  0
 13 14  1  1
 15 16  2  0
 15 14  1  0
 17 13  1  0
 18 17  2  0
 19 15  1  0
 20 21  1  0
 20 17  1  0
 22 21  1  0
 23 24  1  0
 23 22  1  0
 24 20  1  0
 25 27  1  0
 24 25  1  6
 26 25  2  0
M  END
$$$$
