FDP.pdb
     RDKit          3D

 27 28  0  0  1  0  0  0  0  0999 V2000
    6.3718  -15.0048   22.2514 N   0  0  0  0  0  0  0  0  0  0  0  0
    7.6994  -14.7605   22.7264 C   0  0  1  0  0  0  0  0  0  0  0  0
    7.9316  -13.2754   22.7688 C   0  0  0  0  0  0  0  0  0  0  0  0
    7.3571  -12.7743   24.0443 C   0  0  0  0  0  0  0  0  0  0  0  0
    6.0499  -13.0235   24.4276 C   0  0  0  0  0  0  0  0  0  0  0  0
    5.5321  -12.5467   25.6230 C   0  0  0  0  0  0  0  0  0  0  0  0
    6.3129  -11.8017   26.4750 C   0  0  0  0  0  0  0  0  0  0  0  0
    7.6303  -11.5476   26.0940 C   0  0  0  0  0  0  0  0  0  0  0  0
    8.1277  -12.0215   24.9170 C   0  0  0  0  0  0  0  0  0  0  0  0
    7.9462  -15.3951   24.0648 C   0  0  0  0  0  0  0  0  0  0  0  0
    7.4235  -14.8535   25.0672 O   0  0  0  0  0  0  0  0  0  0  0  0
    8.7293  -16.5495   24.2030 N   0  0  0  0  0  0  0  0  0  0  0  0
    9.0914  -17.2410   25.4413 C   0  0  1  0  0  0  0  0  0  0  0  0
    8.6405  -18.6277   25.3903 C   0  0  0  0  0  0  0  0  0  0  0  0
    7.4081  -18.9075   24.6227 C   0  0  0  0  0  0  0  0  0  0  0  0
    6.2569  -18.6305   25.0374 O   0  0  0  0  0  0  0  0  0  0  0  0
   10.3100  -16.7971   26.0605 C   0  0  0  0  0  0  0  0  0  0  0  0
   11.3705  -17.3141   25.5220 O   0  0  0  0  0  0  0  0  0  0  0  0
    7.4851  -19.5065   23.3747 O   0  0  0  0  0  0  0  0  0  0  0  0
   10.5348  -15.9288   27.1102 N   0  0  0  0  0  0  0  0  0  0  0  0
   10.1868  -14.4899   27.1878 C   0  0  0  0  0  0  0  0  0  0  0  0
    9.3645  -14.5121   28.5046 C   0  0  0  0  0  0  0  0  0  0  0  0
    9.9030  -15.7368   29.2614 C   0  0  0  0  0  0  0  0  0  0  0  0
   11.1591  -16.0480   28.4181 C   0  0  1  0  0  0  0  0  0  0  0  0
   11.8240  -17.2630   28.7425 C   0  0  0  0  0  0  0  0  0  0  0  0
   12.6432  -17.2357   29.7627 O   0  0  0  0  0  0  0  0  0  0  0  0
   11.7533  -18.4839   28.1503 O   0  0  0  0  0  0  0  0  0  0  0  0
  2  1  1  1
  3  2  1  0
  4  3  1  0
  5  4  2  0
  6  5  1  0
  7  6  2  0
  7  8  1  0
  8  9  2  0
  9  4  1  0
 10 11  2  0
 10  2  1  0
 12 10  1  0
 13 12  1  0
 13 14  1  6
 15 16  2  0
 15 14  1  0
 17 13  1  0
 18 17  2  0
 19 15  1  0
 20 21  1  0
 20 17  1  0
 22 21  1  0
 23 24  1  0
 23 22  1  0
 24 20  1  0
 25 27  1  0
 24 25  1  1
 26 25  2  0
M  END
$$$$
