FDP.pdb
     RDKit          3D

 27 28  0  0  1  0  0  0  0  0999 V2000
    7.2467  -16.0304   21.3657 N   0  0  0  0  0  0  0  0  0  0  0  0
    7.5576  -15.2809   22.5444 C   0  0  1  0  0  0  0  0  0  0  0  0
    6.2724  -14.8547   23.1986 C   0  0  0  0  0  0  0  0  0  0  0  0
    6.6311  -14.0538   24.3978 C   0  0  0  0  0  0  0  0  0  0  0  0
    7.2138  -12.8002   24.3160 C   0  0  0  0  0  0  0  0  0  0  0  0
    7.5412  -12.0680   25.4479 C   0  0  0  0  0  0  0  0  0  0  0  0
    7.2932  -12.5726   26.7026 C   0  0  0  0  0  0  0  0  0  0  0  0
    6.7064  -13.8349   26.7909 C   0  0  0  0  0  0  0  0  0  0  0  0
    6.3892  -14.5447   25.6716 C   0  0  0  0  0  0  0  0  0  0  0  0
    8.4281  -16.0544   23.4924 C   0  0  0  0  0  0  0  0  0  0  0  0
    7.9875  -17.1462   23.9229 O   0  0  0  0  0  0  0  0  0  0  0  0
    9.6881  -15.5856   23.8896 N   0  0  0  0  0  0  0  0  0  0  0  0
   10.7259  -16.3183   24.6167 C   0  0  1  0  0  0  0  0  0  0  0  0
   11.4806  -17.1624   23.6965 C   0  0  0  0  0  0  0  0  0  0  0  0
   12.4938  -18.0636   24.2860 C   0  0  0  0  0  0  0  0  0  0  0  0
   13.7298  -17.8697   24.1930 O   0  0  0  0  0  0  0  0  0  0  0  0
   11.2876  -15.6308   25.7469 C   0  0  0  0  0  0  0  0  0  0  0  0
   12.5505  -15.3712   25.6069 O   0  0  0  0  0  0  0  0  0  0  0  0
   12.0990  -19.1931   24.9863 O   0  0  0  0  0  0  0  0  0  0  0  0
   10.7179  -15.2082   26.9314 N   0  0  0  0  0  0  0  0  0  0  0  0
    9.7924  -14.0686   27.1373 C   0  0  0  0  0  0  0  0  0  0  0  0
    8.6347  -14.8237   27.8445 C   0  0  0  0  0  0  0  0  0  0  0  0
    9.3185  -16.0430   28.4834 C   0  0  0  0  0  0  0  0  0  0  0  0
   10.8010  -15.6429   28.3167 C   0  0  1  0  0  0  0  0  0  0  0  0
   11.7452  -16.6520   28.6538 C   0  0  0  0  0  0  0  0  0  0  0  0
   12.9936  -16.2784   28.7749 O   0  0  0  0  0  0  0  0  0  0  0  0
   11.5646  -17.9808   28.8734 O   0  0  0  0  0  0  0  0  0  0  0  0
  2  1  1  6
  3  2  1  0
  4  3  1  0
  5  4  2  0
  6  5  1  0
  7  6  2  0
  7  8  1  0
  8  9  2  0
  9  4  1  0
 10 11  2  0
 10  2  1  0
 12 10  1  0
 13 12  1  0
 13 14  1  6
 15 16  2  0
 15 14  1  0
 17 13  1  0
 18 17  2  0
 19 15  1  0
 20 21  1  0
 20 17  1  0
 22 21  1  0
 23 24  1  0
 23 22  1  0
 24 20  1  0
 25 27  1  0
 24 25  1  6
 26 25  2  0
M  END
$$$$
