FDP.pdb
     RDKit          3D

 27 28  0  0  1  0  0  0  0  0999 V2000
    8.0626  -14.8396   20.8737 N   0  0  0  0  0  0  0  0  0  0  0  0
    8.0917  -14.4778   22.2579 C   0  0  1  0  0  0  0  0  0  0  0  0
    6.7189  -14.0196   22.6662 C   0  0  0  0  0  0  0  0  0  0  0  0
    6.8331  -13.4421   24.0306 C   0  0  0  0  0  0  0  0  0  0  0  0
    7.4469  -12.2264   24.2818 C   0  0  0  0  0  0  0  0  0  0  0  0
    7.5433  -11.7041   25.5633 C   0  0  0  0  0  0  0  0  0  0  0  0
    7.0248  -12.3879   26.6376 C   0  0  0  0  0  0  0  0  0  0  0  0
    6.4055  -13.6129   26.3903 C   0  0  0  0  0  0  0  0  0  0  0  0
    6.3169  -14.1158   25.1267 C   0  0  0  0  0  0  0  0  0  0  0  0
    8.5776  -15.6028   23.1257 C   0  0  0  0  0  0  0  0  0  0  0  0
    7.9317  -16.6768   23.0964 O   0  0  0  0  0  0  0  0  0  0  0  0
    9.7091  -15.4713   23.9426 N   0  0  0  0  0  0  0  0  0  0  0  0
   10.3578  -16.5095   24.7451 C   0  0  1  0  0  0  0  0  0  0  0  0
   10.6701  -17.6650   23.9106 C   0  0  0  0  0  0  0  0  0  0  0  0
   11.3250  -18.8149   24.5703 C   0  0  0  0  0  0  0  0  0  0  0  0
   10.7679  -19.5191   25.4465 O   0  0  0  0  0  0  0  0  0  0  0  0
   11.1785  -16.0310   25.8235 C   0  0  0  0  0  0  0  0  0  0  0  0
   12.4450  -16.2235   25.6216 O   0  0  0  0  0  0  0  0  0  0  0  0
   12.6225  -19.1666   24.2313 O   0  0  0  0  0  0  0  0  0  0  0  0
   10.8496  -15.4121   27.0131 N   0  0  0  0  0  0  0  0  0  0  0  0
   10.2431  -14.0726   27.2016 C   0  0  0  0  0  0  0  0  0  0  0  0
    9.0207  -14.4818   28.0670 C   0  0  0  0  0  0  0  0  0  0  0  0
    9.4627  -15.7886   28.7447 C   0  0  0  0  0  0  0  0  0  0  0  0
   10.9722  -15.7686   28.4176 C   0  0  1  0  0  0  0  0  0  0  0  0
   11.6837  -16.9531   28.7555 C   0  0  0  0  0  0  0  0  0  0  0  0
   11.4283  -18.0210   28.0434 O   0  0  0  0  0  0  0  0  0  0  0  0
   12.6093  -17.1707   29.7263 O   0  0  0  0  0  0  0  0  0  0  0  0
  2  1  1  6
  3  2  1  0
  4  3  1  0
  5  4  2  0
  6  5  1  0
  7  6  2  0
  7  8  1  0
  8  9  2  0
  9  4  1  0
 10 11  2  0
 10  2  1  0
 12 10  1  0
 13 12  1  0
 13 14  1  6
 15 16  2  0
 15 14  1  0
 17 13  1  0
 18 17  2  0
 19 15  1  0
 20 21  1  0
 20 17  1  0
 22 21  1  0
 23 24  1  0
 23 22  1  0
 24 20  1  0
 25 27  1  0
 24 25  1  6
 26 25  2  0
M  END
$$$$
