FDP.pdb
     RDKit          3D

 27 28  0  0  1  0  0  0  0  0999 V2000
    5.8852  -17.3369   24.0484 N   0  0  0  0  0  0  0  0  0  0  0  0
    6.7230  -16.3018   24.5724 C   0  0  1  0  0  0  0  0  0  0  0  0
    6.1068  -15.7770   25.8397 C   0  0  0  0  0  0  0  0  0  0  0  0
    6.2040  -14.2948   25.7979 C   0  0  0  0  0  0  0  0  0  0  0  0
    5.1150  -13.4653   26.0066 C   0  0  0  0  0  0  0  0  0  0  0  0
    5.2264  -12.0832   25.9634 C   0  0  0  0  0  0  0  0  0  0  0  0
    6.4392  -11.4875   25.7085 C   0  0  0  0  0  0  0  0  0  0  0  0
    7.5395  -12.3182   25.4977 C   0  0  0  0  0  0  0  0  0  0  0  0
    7.4175  -13.6748   25.5426 C   0  0  0  0  0  0  0  0  0  0  0  0
    8.1302  -16.7745   24.7988 C   0  0  0  0  0  0  0  0  0  0  0  0
    8.2861  -17.8480   25.4270 O   0  0  0  0  0  0  0  0  0  0  0  0
    9.2372  -16.0529   24.3311 N   0  0  0  0  0  0  0  0  0  0  0  0
   10.6526  -16.4016   24.4640 C   0  0  1  0  0  0  0  0  0  0  0  0
   11.4298  -15.7468   23.4171 C   0  0  0  0  0  0  0  0  0  0  0  0
   12.8401  -16.1641   23.2643 C   0  0  0  0  0  0  0  0  0  0  0  0
   13.1909  -17.3477   23.0404 O   0  0  0  0  0  0  0  0  0  0  0  0
   11.1090  -16.6200   25.8092 C   0  0  0  0  0  0  0  0  0  0  0  0
   11.1983  -17.8766   26.1172 O   0  0  0  0  0  0  0  0  0  0  0  0
   13.8586  -15.2291   23.3669 O   0  0  0  0  0  0  0  0  0  0  0  0
   11.4623  -15.7331   26.8066 N   0  0  0  0  0  0  0  0  0  0  0  0
   11.8164  -14.3007   26.6634 C   0  0  0  0  0  0  0  0  0  0  0  0
   10.7990  -13.6996   27.6706 C   0  0  0  0  0  0  0  0  0  0  0  0
   10.5145  -14.8517   28.6474 C   0  0  0  0  0  0  0  0  0  0  0  0
   11.6380  -15.8330   28.2467 C   0  0  1  0  0  0  0  0  0  0  0  0
   11.5659  -17.1194   28.8496 C   0  0  0  0  0  0  0  0  0  0  0  0
   10.3852  -17.6811   28.9073 O   0  0  0  0  0  0  0  0  0  0  0  0
   12.5459  -17.8852   29.3970 O   0  0  0  0  0  0  0  0  0  0  0  0
  2  1  1  1
  3  2  1  0
  4  3  1  0
  5  4  2  0
  6  5  1  0
  7  6  2  0
  7  8  1  0
  8  9  2  0
  9  4  1  0
 10 11  2  0
 10  2  1  0
 12 10  1  0
 13 12  1  0
 13 14  1  1
 15 16  2  0
 15 14  1  0
 17 13  1  0
 18 17  2  0
 19 15  1  0
 20 21  1  0
 20 17  1  0
 22 21  1  0
 23 24  1  0
 23 22  1  0
 24 20  1  0
 25 27  1  0
 24 25  1  1
 26 25  2  0
M  END
$$$$
