FDP.pdb
     RDKit          3D

 27 28  0  0  1  0  0  0  0  0999 V2000
    7.1929  -14.7184   20.7276 N   0  0  0  0  0  0  0  0  0  0  0  0
    7.4964  -14.3320   22.0716 C   0  0  1  0  0  0  0  0  0  0  0  0
    6.2141  -13.9820   22.7747 C   0  0  0  0  0  0  0  0  0  0  0  0
    6.5623  -13.6124   24.1713 C   0  0  0  0  0  0  0  0  0  0  0  0
    6.2198  -14.3941   25.2618 C   0  0  0  0  0  0  0  0  0  0  0  0
    6.5542  -14.0316   26.5585 C   0  0  0  0  0  0  0  0  0  0  0  0
    7.2456  -12.8684   26.8026 C   0  0  0  0  0  0  0  0  0  0  0  0
    7.5930  -12.0771   25.7079 C   0  0  0  0  0  0  0  0  0  0  0  0
    7.2589  -12.4439   24.4385 C   0  0  0  0  0  0  0  0  0  0  0  0
    8.2552  -15.3983   22.8081 C   0  0  0  0  0  0  0  0  0  0  0  0
    7.8057  -16.5674   22.7585 O   0  0  0  0  0  0  0  0  0  0  0  0
    9.4233  -15.1115   23.5280 N   0  0  0  0  0  0  0  0  0  0  0  0
   10.3226  -16.0599   24.1871 C   0  0  1  0  0  0  0  0  0  0  0  0
   11.6154  -16.0764   23.5110 C   0  0  0  0  0  0  0  0  0  0  0  0
   12.5819  -17.1137   23.9309 C   0  0  0  0  0  0  0  0  0  0  0  0
   13.6204  -16.8654   24.5897 O   0  0  0  0  0  0  0  0  0  0  0  0
   10.1369  -16.2003   25.6053 C   0  0  0  0  0  0  0  0  0  0  0  0
   11.0127  -15.5421   26.2994 O   0  0  0  0  0  0  0  0  0  0  0  0
   12.3663  -18.4425   23.5994 O   0  0  0  0  0  0  0  0  0  0  0  0
    9.2000  -16.9032   26.3363 N   0  0  0  0  0  0  0  0  0  0  0  0
    7.7260  -16.8837   26.1796 C   0  0  0  0  0  0  0  0  0  0  0  0
    7.4818  -18.4079   26.0125 C   0  0  0  0  0  0  0  0  0  0  0  0
    8.6806  -19.0588   26.7207 C   0  0  0  0  0  0  0  0  0  0  0  0
    9.2637  -17.8309   27.4544 C   0  0  1  0  0  0  0  0  0  0  0  0
   10.5194  -18.0409   28.0888 C   0  0  0  0  0  0  0  0  0  0  0  0
   11.5693  -18.1228   27.3118 O   0  0  0  0  0  0  0  0  0  0  0  0
   10.8214  -18.1799   29.4064 O   0  0  0  0  0  0  0  0  0  0  0  0
  2  1  1  6
  3  2  1  0
  4  3  1  0
  5  4  2  0
  6  5  1  0
  7  6  2  0
  7  8  1  0
  8  9  2  0
  9  4  1  0
 10 11  2  0
 10  2  1  0
 12 10  1  0
 13 12  1  0
 13 14  1  1
 15 16  2  0
 15 14  1  0
 17 13  1  0
 18 17  2  0
 19 15  1  0
 20 21  1  0
 20 17  1  0
 22 21  1  0
 23 24  1  0
 23 22  1  0
 24 20  1  0
 25 27  1  0
 24 25  1  6
 26 25  2  0
M  END
$$$$
