FDP.pdb
     RDKit          3D

 27 28  0  0  1  0  0  0  0  0999 V2000
    6.8853  -16.2733   25.8314 N   0  0  0  0  0  0  0  0  0  0  0  0
    6.7882  -16.2285   24.4044 C   0  0  1  0  0  0  0  0  0  0  0  0
    5.9582  -15.0368   24.0141 C   0  0  0  0  0  0  0  0  0  0  0  0
    6.3290  -13.9224   24.9245 C   0  0  0  0  0  0  0  0  0  0  0  0
    5.7195  -13.7216   26.1516 C   0  0  0  0  0  0  0  0  0  0  0  0
    6.0801  -12.6748   26.9875 C   0  0  0  0  0  0  0  0  0  0  0  0
    7.0677  -11.7929   26.6168 C   0  0  0  0  0  0  0  0  0  0  0  0
    7.6850  -11.9904   25.3818 C   0  0  0  0  0  0  0  0  0  0  0  0
    7.3220  -13.0225   24.5693 C   0  0  0  0  0  0  0  0  0  0  0  0
    8.1379  -16.1988   23.7470 C   0  0  0  0  0  0  0  0  0  0  0  0
    8.1853  -16.4127   22.5127 O   0  0  0  0  0  0  0  0  0  0  0  0
    9.3091  -15.9429   24.4735 N   0  0  0  0  0  0  0  0  0  0  0  0
   10.6108  -16.5969   24.3302 C   0  0  1  0  0  0  0  0  0  0  0  0
   11.4918  -15.7817   23.5007 C   0  0  0  0  0  0  0  0  0  0  0  0
   12.8182  -16.3456   23.1706 C   0  0  0  0  0  0  0  0  0  0  0  0
   13.0178  -17.1278   22.2102 O   0  0  0  0  0  0  0  0  0  0  0  0
   11.0369  -17.3744   25.4613 C   0  0  0  0  0  0  0  0  0  0  0  0
   11.8841  -16.7481   26.2175 O   0  0  0  0  0  0  0  0  0  0  0  0
   13.9256  -16.0178   23.9378 O   0  0  0  0  0  0  0  0  0  0  0  0
   10.7002  -18.6497   25.8690 N   0  0  0  0  0  0  0  0  0  0  0  0
    9.6113  -19.5107   25.3488 C   0  0  0  0  0  0  0  0  0  0  0  0
   10.4486  -20.7691   24.9937 C   0  0  0  0  0  0  0  0  0  0  0  0
   11.6708  -20.6792   25.9214 C   0  0  0  0  0  0  0  0  0  0  0  0
   11.2028  -19.5640   26.8821 C   0  0  1  0  0  0  0  0  0  0  0  0
   12.1890  -19.0907   27.7914 C   0  0  0  0  0  0  0  0  0  0  0  0
   11.8996  -19.1565   29.0660 O   0  0  0  0  0  0  0  0  0  0  0  0
   13.4172  -18.5608   27.5520 O   0  0  0  0  0  0  0  0  0  0  0  0
  2  1  1  1
  3  2  1  0
  4  3  1  0
  5  4  2  0
  6  5  1  0
  7  6  2  0
  7  8  1  0
  8  9  2  0
  9  4  1  0
 10 11  2  0
 10  2  1  0
 12 10  1  0
 13 12  1  0
 13 14  1  1
 15 16  2  0
 15 14  1  0
 17 13  1  0
 18 17  2  0
 19 15  1  0
 20 21  1  0
 20 17  1  0
 22 21  1  0
 23 24  1  0
 23 22  1  0
 24 20  1  0
 25 27  1  0
 24 25  1  6
 26 25  2  0
M  END
$$$$
