FDP.pdb
     RDKit          3D

 27 28  0  0  1  0  0  0  0  0999 V2000
    5.8660  -16.4008   25.2923 N   0  0  0  0  0  0  0  0  0  0  0  0
    6.8312  -16.2490   24.2468 C   0  0  1  0  0  0  0  0  0  0  0  0
    6.6969  -14.8702   23.6620 C   0  0  0  0  0  0  0  0  0  0  0  0
    6.7504  -13.9043   24.7900 C   0  0  0  0  0  0  0  0  0  0  0  0
    5.9906  -14.0495   25.9387 C   0  0  0  0  0  0  0  0  0  0  0  0
    6.0549  -13.1364   26.9812 C   0  0  0  0  0  0  0  0  0  0  0  0
    6.8869  -12.0445   26.9035 C   0  0  0  0  0  0  0  0  0  0  0  0
    7.6544  -11.8934   25.7488 C   0  0  0  0  0  0  0  0  0  0  0  0
    7.5827  -12.7971   24.7313 C   0  0  0  0  0  0  0  0  0  0  0  0
    8.2299  -16.5099   24.7270 C   0  0  0  0  0  0  0  0  0  0  0  0
    8.3645  -17.0661   25.8423 O   0  0  0  0  0  0  0  0  0  0  0  0
    9.3518  -16.1504   23.9674 N   0  0  0  0  0  0  0  0  0  0  0  0
   10.7417  -16.5588   24.1775 C   0  0  1  0  0  0  0  0  0  0  0  0
   11.3804  -16.8381   22.8958 C   0  0  0  0  0  0  0  0  0  0  0  0
   12.7093  -17.4855   22.9323 C   0  0  0  0  0  0  0  0  0  0  0  0
   13.7828  -16.8743   22.7135 O   0  0  0  0  0  0  0  0  0  0  0  0
   11.3964  -15.9562   25.3061 C   0  0  0  0  0  0  0  0  0  0  0  0
   12.6803  -15.8548   25.1534 O   0  0  0  0  0  0  0  0  0  0  0  0
   12.8183  -18.8374   23.2197 O   0  0  0  0  0  0  0  0  0  0  0  0
   10.8962  -15.4759   26.5000 N   0  0  0  0  0  0  0  0  0  0  0  0
    9.8622  -14.4319   26.6960 C   0  0  0  0  0  0  0  0  0  0  0  0
    8.8796  -15.2323   27.5931 C   0  0  0  0  0  0  0  0  0  0  0  0
    9.7664  -16.2916   28.2668 C   0  0  0  0  0  0  0  0  0  0  0  0
   11.1655  -15.7477   27.9030 C   0  0  1  0  0  0  0  0  0  0  0  0
   12.2545  -16.6026   28.2298 C   0  0  0  0  0  0  0  0  0  0  0  0
   13.1641  -16.1204   29.0378 O   0  0  0  0  0  0  0  0  0  0  0  0
   12.5203  -17.8732   27.8282 O   0  0  0  0  0  0  0  0  0  0  0  0
  2  1  1  1
  3  2  1  0
  4  3  1  0
  5  4  2  0
  6  5  1  0
  7  6  2  0
  7  8  1  0
  8  9  2  0
  9  4  1  0
 10 11  2  0
 10  2  1  0
 12 10  1  0
 13 12  1  0
 13 14  1  6
 15 16  2  0
 15 14  1  0
 17 13  1  0
 18 17  2  0
 19 15  1  0
 20 21  1  0
 20 17  1  0
 22 21  1  0
 23 24  1  0
 23 22  1  0
 24 20  1  0
 25 27  1  0
 24 25  1  6
 26 25  2  0
M  END
$$$$
