FDP.pdb
     RDKit          3D

 27 28  0  0  1  0  0  0  0  0999 V2000
    7.3275  -16.3360   21.7234 N   0  0  0  0  0  0  0  0  0  0  0  0
    7.5667  -15.5160   22.8716 C   0  0  1  0  0  0  0  0  0  0  0  0
    6.2598  -15.2796   23.5769 C   0  0  0  0  0  0  0  0  0  0  0  0
    6.5141  -14.2956   24.6609 C   0  0  0  0  0  0  0  0  0  0  0  0
    6.2571  -14.5655   25.9946 C   0  0  0  0  0  0  0  0  0  0  0  0
    6.5015  -13.6331   26.9923 C   0  0  0  0  0  0  0  0  0  0  0  0
    7.0135  -12.3953   26.6818 C   0  0  0  0  0  0  0  0  0  0  0  0
    7.2743  -12.1181   25.3400 C   0  0  0  0  0  0  0  0  0  0  0  0
    7.0300  -13.0424   24.3687 C   0  0  0  0  0  0  0  0  0  0  0  0
    8.5886  -16.1180   23.7926 C   0  0  0  0  0  0  0  0  0  0  0  0
    8.3140  -17.2220   24.3192 O   0  0  0  0  0  0  0  0  0  0  0  0
    9.8077  -15.4809   24.0624 N   0  0  0  0  0  0  0  0  0  0  0  0
   11.0802  -16.1044   24.4293 C   0  0  1  0  0  0  0  0  0  0  0  0
   12.0616  -15.9002   23.3691 C   0  0  0  0  0  0  0  0  0  0  0  0
   13.3985  -16.5012   23.5639 C   0  0  0  0  0  0  0  0  0  0  0  0
   14.4559  -15.8293   23.6308 O   0  0  0  0  0  0  0  0  0  0  0  0
   11.3804  -16.1098   25.8348 C   0  0  0  0  0  0  0  0  0  0  0  0
   12.1571  -17.0879   26.1841 O   0  0  0  0  0  0  0  0  0  0  0  0
   13.5341  -17.8757   23.6835 O   0  0  0  0  0  0  0  0  0  0  0  0
   10.9888  -15.2639   26.8532 N   0  0  0  0  0  0  0  0  0  0  0  0
   10.6251  -13.8303   26.7525 C   0  0  0  0  0  0  0  0  0  0  0  0
    9.2248  -13.8900   27.4206 C   0  0  0  0  0  0  0  0  0  0  0  0
    9.2968  -15.1268   28.3304 C   0  0  0  0  0  0  0  0  0  0  0  0
   10.8152  -15.4073   28.2899 C   0  0  1  0  0  0  0  0  0  0  0  0
   11.2258  -16.6234   28.9030 C   0  0  0  0  0  0  0  0  0  0  0  0
   12.0607  -16.5283   29.9064 O   0  0  0  0  0  0  0  0  0  0  0  0
   10.8907  -17.9074   28.6106 O   0  0  0  0  0  0  0  0  0  0  0  0
  2  1  1  6
  3  2  1  0
  4  3  1  0
  5  4  2  0
  6  5  1  0
  7  6  2  0
  7  8  1  0
  8  9  2  0
  9  4  1  0
 10 11  2  0
 10  2  1  0
 12 10  1  0
 13 12  1  0
 13 14  1  6
 15 16  2  0
 15 14  1  0
 17 13  1  0
 18 17  2  0
 19 15  1  0
 20 21  1  0
 20 17  1  0
 22 21  1  0
 23 24  1  0
 23 22  1  0
 24 20  1  0
 25 27  1  0
 24 25  1  6
 26 25  2  0
M  END
$$$$
