FDP.pdb
     RDKit          3D

 27 28  0  0  1  0  0  0  0  0999 V2000
    5.6020  -17.2661   24.7349 N   0  0  0  0  0  0  0  0  0  0  0  0
    6.5894  -16.2416   24.8868 C   0  0  1  0  0  0  0  0  0  0  0  0
    6.4892  -15.6767   26.2768 C   0  0  0  0  0  0  0  0  0  0  0  0
    6.4617  -14.1963   26.1515 C   0  0  0  0  0  0  0  0  0  0  0  0
    5.2973  -13.4553   26.2647 C   0  0  0  0  0  0  0  0  0  0  0  0
    5.2925  -12.0732   26.1446 C   0  0  0  0  0  0  0  0  0  0  0  0
    6.4607  -11.3884   25.9062 C   0  0  0  0  0  0  0  0  0  0  0  0
    7.6365  -12.1298   25.7913 C   0  0  0  0  0  0  0  0  0  0  0  0
    7.6286  -13.4873   25.9112 C   0  0  0  0  0  0  0  0  0  0  0  0
    7.9741  -16.7440   24.5950 C   0  0  0  0  0  0  0  0  0  0  0  0
    8.2882  -17.8704   25.0466 O   0  0  0  0  0  0  0  0  0  0  0  0
    8.8912  -15.9926   23.8471 N   0  0  0  0  0  0  0  0  0  0  0  0
   10.2361  -16.3870   23.4247 C   0  0  1  0  0  0  0  0  0  0  0  0
   10.4552  -16.0068   22.0331 C   0  0  0  0  0  0  0  0  0  0  0  0
   11.7743  -16.3273   21.4470 C   0  0  0  0  0  0  0  0  0  0  0  0
   12.1552  -17.4966   21.1985 O   0  0  0  0  0  0  0  0  0  0  0  0
   11.2398  -16.3502   24.4527 C   0  0  0  0  0  0  0  0  0  0  0  0
   12.3454  -16.9312   24.1036 O   0  0  0  0  0  0  0  0  0  0  0  0
   12.6667  -15.3112   21.1413 O   0  0  0  0  0  0  0  0  0  0  0  0
   11.2235  -15.8091   25.7228 N   0  0  0  0  0  0  0  0  0  0  0  0
   10.6985  -14.4867   26.1389 C   0  0  0  0  0  0  0  0  0  0  0  0
    9.7240  -14.9548   27.2535 C   0  0  0  0  0  0  0  0  0  0  0  0
   10.3048  -16.3001   27.7174 C   0  0  0  0  0  0  0  0  0  0  0  0
   11.6862  -16.2534   27.0279 C   0  0  1  0  0  0  0  0  0  0  0  0
   12.4452  -17.4540   27.1042 C   0  0  0  0  0  0  0  0  0  0  0  0
   13.7116  -17.3355   27.4126 O   0  0  0  0  0  0  0  0  0  0  0  0
   12.0665  -18.7429   26.8999 O   0  0  0  0  0  0  0  0  0  0  0  0
  2  1  1  1
  3  2  1  0
  4  3  1  0
  5  4  2  0
  6  5  1  0
  7  6  2  0
  7  8  1  0
  8  9  2  0
  9  4  1  0
 10 11  2  0
 10  2  1  0
 12 10  1  0
 13 12  1  0
 13 14  1  6
 15 16  2  0
 15 14  1  0
 17 13  1  0
 18 17  2  0
 19 15  1  0
 20 21  1  0
 20 17  1  0
 22 21  1  0
 23 24  1  0
 23 22  1  0
 24 20  1  0
 25 27  1  0
 24 25  1  6
 26 25  2  0
M  END
$$$$
