FDP.pdb
     RDKit          3D

 27 28  0  0  1  0  0  0  0  0999 V2000
    7.9467  -18.1856   19.9676 N   0  0  0  0  0  0  0  0  0  0  0  0
    7.9644  -16.8459   20.4704 C   0  0  1  0  0  0  0  0  0  0  0  0
    7.2291  -15.9580   19.5048 C   0  0  0  0  0  0  0  0  0  0  0  0
    7.4094  -14.5573   19.9669 C   0  0  0  0  0  0  0  0  0  0  0  0
    6.5441  -13.9437   20.8571 C   0  0  0  0  0  0  0  0  0  0  0  0
    6.7298  -12.6344   21.2765 C   0  0  0  0  0  0  0  0  0  0  0  0
    7.7940  -11.8967   20.8141 C   0  0  0  0  0  0  0  0  0  0  0  0
    8.6687  -12.5098   19.9173 C   0  0  0  0  0  0  0  0  0  0  0  0
    8.4758  -13.7968   19.5125 C   0  0  0  0  0  0  0  0  0  0  0  0
    7.3862  -16.7539   21.8532 C   0  0  0  0  0  0  0  0  0  0  0  0
    6.1571  -16.9641   21.9817 O   0  0  0  0  0  0  0  0  0  0  0  0
    8.1789  -16.4454   22.9674 N   0  0  0  0  0  0  0  0  0  0  0  0
    7.7987  -16.5073   24.3795 C   0  0  1  0  0  0  0  0  0  0  0  0
    7.3634  -17.8572   24.7219 C   0  0  0  0  0  0  0  0  0  0  0  0
    7.0179  -18.1152   26.1362 C   0  0  0  0  0  0  0  0  0  0  0  0
    5.8666  -17.9530   26.6078 O   0  0  0  0  0  0  0  0  0  0  0  0
    8.5354  -15.6367   25.2541 C   0  0  0  0  0  0  0  0  0  0  0  0
    9.6291  -16.1722   25.7001 O   0  0  0  0  0  0  0  0  0  0  0  0
    7.9881  -18.5607   27.0207 O   0  0  0  0  0  0  0  0  0  0  0  0
    8.2785  -14.3514   25.6880 N   0  0  0  0  0  0  0  0  0  0  0  0
    7.5707  -13.2721   24.9588 C   0  0  0  0  0  0  0  0  0  0  0  0
    6.4927  -12.9300   26.0226 C   0  0  0  0  0  0  0  0  0  0  0  0
    7.1274  -13.3672   27.3524 C   0  0  0  0  0  0  0  0  0  0  0  0
    8.5843  -13.6011   26.8956 C   0  0  1  0  0  0  0  0  0  0  0  0
    9.4376  -14.1974   27.8649 C   0  0  0  0  0  0  0  0  0  0  0  0
   10.1050  -13.3862   28.6456 O   0  0  0  0  0  0  0  0  0  0  0  0
    9.6881  -15.5080   28.1220 O   0  0  0  0  0  0  0  0  0  0  0  0
  2  1  1  6
  3  2  1  0
  4  3  1  0
  5  4  2  0
  6  5  1  0
  7  6  2  0
  7  8  1  0
  8  9  2  0
  9  4  1  0
 10 11  2  0
 10  2  1  0
 12 10  1  0
 13 12  1  0
 13 14  1  1
 15 16  2  0
 15 14  1  0
 17 13  1  0
 18 17  2  0
 19 15  1  0
 20 21  1  0
 20 17  1  0
 22 21  1  0
 23 24  1  0
 23 22  1  0
 24 20  1  0
 25 27  1  0
 24 25  1  1
 26 25  2  0
M  END
$$$$
