QQG.pdb
     RDKit          3D

 23 22  0  0  1  0  0  0  0  0999 V2000
    9.0952  -12.6869   17.5056 N   0  0  0  0  0  0  0  0  0  0  0  0
    8.0284  -13.5717   17.2407 C   0  0  0  0  0  0  0  0  0  0  0  0
    7.7163  -13.8177   16.0557 O   0  0  0  0  0  0  0  0  0  0  0  0
    7.2656  -14.2193   18.3303 C   0  0  0  0  0  0  0  0  0  0  0  0
    7.7967  -13.7868   19.6961 C   0  0  0  0  0  0  0  0  0  0  0  0
    8.2948  -15.0027   20.4327 C   0  0  2  0  0  0  0  0  0  0  0  0
    7.3201  -16.0545   20.3995 N   0  0  0  0  0  0  0  0  0  0  0  0
    8.6696  -14.6153   21.8104 C   0  0  0  0  0  0  0  0  0  0  0  0
    9.4921  -13.6655   21.9886 O   0  0  0  0  0  0  0  0  0  0  0  0
    5.3146  -12.9073   26.4798 N   0  0  0  0  0  0  0  0  0  0  0  0
    6.6505  -12.5741   26.8064 C   0  0  0  0  0  0  0  0  0  0  0  0
    6.8836  -11.7499   27.7327 O   0  0  0  0  0  0  0  0  0  0  0  0
    7.7983  -13.1683   26.0991 C   0  0  0  0  0  0  0  0  0  0  0  0
    7.4986  -14.0935   24.9941 C   0  0  0  0  0  0  0  0  0  0  0  0
    8.6114  -14.8174   24.3299 C   0  0  2  0  0  0  0  0  0  0  0  0
    8.1636  -15.2441   22.9756 N   0  0  0  0  0  0  0  0  0  0  0  0
    9.1331  -16.0203   24.9774 C   0  0  0  0  0  0  0  0  0  0  0  0
    8.5997  -17.1756   24.8927 O   0  0  0  0  0  0  0  0  0  0  0  0
   10.3220  -15.9970   25.7839 N   0  0  0  0  0  0  0  0  0  0  0  0
   10.2722  -16.1345   27.2194 C   0  0  0  0  0  0  0  0  0  0  0  0
   10.4306  -17.5612   27.6366 C   0  0  0  0  0  0  0  0  0  0  0  0
   11.5673  -18.0393   28.2366 O   0  0  0  0  0  0  0  0  0  0  0  0
    9.4915  -18.3446   27.4299 O   0  0  0  0  0  0  0  0  0  0  0  0
  1  2  1  0
  2  3  2  0
  4  5  1  0
  4  2  1  0
  6  8  1  0
  6  7  1  1
  6  5  1  0
  8  9  2  0
 10 11  1  0
 11 12  2  0
 13 11  1  0
 13 14  1  0
 15 14  1  1
 15 17  1  0
 16 15  1  0
 16  8  1  0
 17 18  2  0
 17 19  1  0
 19 20  1  0
 21 20  1  0
 21 22  1  0
 23 21  2  0
M  END
$$$$
