QQG.pdb
     RDKit          3D

 23 22  0  0  1  0  0  0  0  0999 V2000
    4.5488  -18.9280   19.9189 N   0  0  0  0  0  0  0  0  0  0  0  0
    5.7810  -19.5645   20.1789 C   0  0  0  0  0  0  0  0  0  0  0  0
    5.7919  -20.6449   20.8073 O   0  0  0  0  0  0  0  0  0  0  0  0
    7.0659  -18.9870   19.7270 C   0  0  0  0  0  0  0  0  0  0  0  0
    7.7248  -18.1852   20.8483 C   0  0  0  0  0  0  0  0  0  0  0  0
    7.4773  -16.7187   20.6090 C   0  0  2  0  0  0  0  0  0  0  0  0
    7.8619  -16.3466   19.2782 N   0  0  0  0  0  0  0  0  0  0  0  0
    8.1799  -15.9327   21.6468 C   0  0  0  0  0  0  0  0  0  0  0  0
    9.3575  -15.5163   21.4224 O   0  0  0  0  0  0  0  0  0  0  0  0
    5.4484  -12.7254   26.4366 N   0  0  0  0  0  0  0  0  0  0  0  0
    6.8320  -12.5241   26.6539 C   0  0  0  0  0  0  0  0  0  0  0  0
    7.2180  -11.7877   27.6028 O   0  0  0  0  0  0  0  0  0  0  0  0
    7.8557  -13.1580   25.8047 C   0  0  0  0  0  0  0  0  0  0  0  0
    7.3788  -13.9787   24.6797 C   0  0  0  0  0  0  0  0  0  0  0  0
    8.3600  -14.7454   23.8717 C   0  0  2  0  0  0  0  0  0  0  0  0
    7.6189  -15.6025   22.9059 N   0  0  0  0  0  0  0  0  0  0  0  0
    9.2821  -15.6371   24.5738 C   0  0  0  0  0  0  0  0  0  0  0  0
    8.9236  -16.5591   25.3786 O   0  0  0  0  0  0  0  0  0  0  0  0
   10.7065  -15.5438   24.4090 N   0  0  0  0  0  0  0  0  0  0  0  0
   11.6188  -16.3332   25.2005 C   0  0  0  0  0  0  0  0  0  0  0  0
   13.0307  -16.1589   24.7414 C   0  0  0  0  0  0  0  0  0  0  0  0
   14.1018  -16.6973   25.4076 O   0  0  0  0  0  0  0  0  0  0  0  0
   13.2398  -15.4981   23.7128 O   0  0  0  0  0  0  0  0  0  0  0  0
  1  2  1  0
  2  3  2  0
  4  5  1  0
  4  2  1  0
  6  8  1  0
  6  7  1  6
  6  5  1  0
  8  9  2  0
 10 11  1  0
 11 12  2  0
 13 11  1  0
 13 14  1  0
 15 14  1  1
 15 17  1  0
 16 15  1  0
 16  8  1  0
 17 18  2  0
 17 19  1  0
 19 20  1  0
 21 20  1  0
 21 22  1  0
 23 21  2  0
M  END
$$$$
