QQG.pdb
     RDKit          3D

 23 22  0  0  1  0  0  0  0  0999 V2000
    8.0565  -12.2829   18.0619 N   0  0  0  0  0  0  0  0  0  0  0  0
    7.7646  -13.3995   17.2499 C   0  0  0  0  0  0  0  0  0  0  0  0
    7.8658  -13.2972   16.0083 O   0  0  0  0  0  0  0  0  0  0  0  0
    7.3405  -14.6931   17.8288 C   0  0  0  0  0  0  0  0  0  0  0  0
    7.2924  -14.6155   19.3539 C   0  0  0  0  0  0  0  0  0  0  0  0
    8.0033  -15.8142   19.9256 C   0  0  2  0  0  0  0  0  0  0  0  0
    7.1380  -16.9579   19.9486 N   0  0  0  0  0  0  0  0  0  0  0  0
    8.5320  -15.4717   21.2642 C   0  0  0  0  0  0  0  0  0  0  0  0
    8.1329  -14.4134   21.8396 O   0  0  0  0  0  0  0  0  0  0  0  0
    7.7691  -18.1223   25.9821 N   0  0  0  0  0  0  0  0  0  0  0  0
    8.3063  -16.9330   26.5288 C   0  0  0  0  0  0  0  0  0  0  0  0
    8.3998  -16.8034   27.7803 O   0  0  0  0  0  0  0  0  0  0  0  0
    8.7749  -15.8250   25.6780 C   0  0  0  0  0  0  0  0  0  0  0  0
    8.6433  -15.9964   24.2220 C   0  0  0  0  0  0  0  0  0  0  0  0
    9.8563  -15.9273   23.3691 C   0  0  2  0  0  0  0  0  0  0  0  0
    9.4761  -16.2601   21.9686 N   0  0  0  0  0  0  0  0  0  0  0  0
   10.9799  -16.8032   23.6987 C   0  0  0  0  0  0  0  0  0  0  0  0
   10.9778  -18.0694   23.5465 O   0  0  0  0  0  0  0  0  0  0  0  0
   12.2114  -16.2938   24.2357 N   0  0  0  0  0  0  0  0  0  0  0  0
   13.1522  -15.5613   23.4231 C   0  0  0  0  0  0  0  0  0  0  0  0
   14.4637  -16.2729   23.3314 C   0  0  0  0  0  0  0  0  0  0  0  0
   15.5133  -15.8055   22.5826 O   0  0  0  0  0  0  0  0  0  0  0  0
   14.6061  -17.3319   23.9611 O   0  0  0  0  0  0  0  0  0  0  0  0
  1  2  1  0
  2  3  2  0
  4  5  1  0
  4  2  1  0
  6  8  1  0
  6  7  1  1
  6  5  1  0
  8  9  2  0
 10 11  1  0
 11 12  2  0
 13 11  1  0
 13 14  1  0
 15 14  1  1
 15 17  1  0
 16 15  1  0
 16  8  1  0
 17 18  2  0
 17 19  1  0
 19 20  1  0
 21 20  1  0
 21 22  1  0
 23 21  2  0
M  END
$$$$
