QQG.pdb
     RDKit          3D

 23 22  0  0  1  0  0  0  0  0999 V2000
    7.6687  -12.2112   19.3342 N   0  0  0  0  0  0  0  0  0  0  0  0
    7.5994  -13.6182   19.2512 C   0  0  0  0  0  0  0  0  0  0  0  0
    6.5352  -14.1982   19.5566 O   0  0  0  0  0  0  0  0  0  0  0  0
    8.7553  -14.4298   18.8110 C   0  0  0  0  0  0  0  0  0  0  0  0
    9.7877  -14.5556   19.9302 C   0  0  0  0  0  0  0  0  0  0  0  0
    9.3746  -15.6740   20.8509 C   0  0  2  0  0  0  0  0  0  0  0  0
    8.0678  -16.1582   20.5114 N   0  0  0  0  0  0  0  0  0  0  0  0
    9.4641  -15.2070   22.2517 C   0  0  0  0  0  0  0  0  0  0  0  0
   10.5164  -14.6176   22.6461 O   0  0  0  0  0  0  0  0  0  0  0  0
    5.6038  -12.1436   25.9116 N   0  0  0  0  0  0  0  0  0  0  0  0
    6.7111  -12.4193   26.7483 C   0  0  0  0  0  0  0  0  0  0  0  0
    6.8570  -11.7818   27.8272 O   0  0  0  0  0  0  0  0  0  0  0  0
    7.7124  -13.4444   26.4054 C   0  0  0  0  0  0  0  0  0  0  0  0
    7.6784  -13.9825   25.0357 C   0  0  0  0  0  0  0  0  0  0  0  0
    8.6559  -15.0275   24.6406 C   0  0  2  0  0  0  0  0  0  0  0  0
    8.4332  -15.3745   23.2101 N   0  0  0  0  0  0  0  0  0  0  0  0
    8.6391  -16.2957   25.3684 C   0  0  0  0  0  0  0  0  0  0  0  0
    7.7209  -17.1748   25.2671 O   0  0  0  0  0  0  0  0  0  0  0  0
    9.6851  -16.6639   26.2822 N   0  0  0  0  0  0  0  0  0  0  0  0
    9.5208  -17.7317   27.2386 C   0  0  0  0  0  0  0  0  0  0  0  0
   10.7265  -17.8730   28.1110 C   0  0  0  0  0  0  0  0  0  0  0  0
   11.1939  -19.0875   28.5438 O   0  0  0  0  0  0  0  0  0  0  0  0
   11.3286  -16.8453   28.4569 O   0  0  0  0  0  0  0  0  0  0  0  0
  1  2  1  0
  2  3  2  0
  4  5  1  0
  4  2  1  0
  6  8  1  0
  6  7  1  6
  6  5  1  0
  8  9  2  0
 10 11  1  0
 11 12  2  0
 13 11  1  0
 13 14  1  0
 15 14  1  1
 15 17  1  0
 16 15  1  0
 16  8  1  0
 17 18  2  0
 17 19  1  0
 19 20  1  0
 21 20  1  0
 21 22  1  0
 23 21  2  0
M  END
$$$$
