QQG.pdb
     RDKit          3D

 23 22  0  0  1  0  0  0  0  0999 V2000
   10.2155  -13.7962   19.9659 N   0  0  0  0  0  0  0  0  0  0  0  0
    9.2020  -13.1855   19.1972 C   0  0  0  0  0  0  0  0  0  0  0  0
    9.3898  -12.9953   17.9761 O   0  0  0  0  0  0  0  0  0  0  0  0
    7.9179  -12.7622   19.7977 C   0  0  0  0  0  0  0  0  0  0  0  0
    7.8165  -13.2312   21.2482 C   0  0  0  0  0  0  0  0  0  0  0  0
    7.4867  -14.7010   21.2633 C   0  0  2  0  0  0  0  0  0  0  0  0
    6.3196  -14.9704   20.4742 N   0  0  0  0  0  0  0  0  0  0  0  0
    7.3443  -15.1517   22.6651 C   0  0  0  0  0  0  0  0  0  0  0  0
    6.5247  -14.5576   23.4304 O   0  0  0  0  0  0  0  0  0  0  0  0
    5.6066  -20.4683   24.2419 N   0  0  0  0  0  0  0  0  0  0  0  0
    6.9783  -20.4842   24.5887 C   0  0  0  0  0  0  0  0  0  0  0  0
    7.5648  -21.5846   24.7806 O   0  0  0  0  0  0  0  0  0  0  0  0
    7.7622  -19.2446   24.7294 C   0  0  0  0  0  0  0  0  0  0  0  0
    7.0442  -17.9730   24.5439 C   0  0  0  0  0  0  0  0  0  0  0  0
    7.7973  -16.6958   24.6152 C   0  0  2  0  0  0  0  0  0  0  0  0
    8.0756  -16.2265   23.2300 N   0  0  0  0  0  0  0  0  0  0  0  0
    9.0862  -16.6946   25.3058 C   0  0  0  0  0  0  0  0  0  0  0  0
   10.1833  -16.3024   24.7873 O   0  0  0  0  0  0  0  0  0  0  0  0
    9.2245  -17.1481   26.6622 N   0  0  0  0  0  0  0  0  0  0  0  0
   10.5100  -17.2242   27.3132 C   0  0  0  0  0  0  0  0  0  0  0  0
   10.3788  -17.6928   28.7266 C   0  0  0  0  0  0  0  0  0  0  0  0
   11.4469  -17.7874   29.5816 O   0  0  0  0  0  0  0  0  0  0  0  0
    9.2536  -18.0092   29.1417 O   0  0  0  0  0  0  0  0  0  0  0  0
  1  2  1  0
  2  3  2  0
  4  5  1  0
  4  2  1  0
  6  8  1  0
  6  7  1  6
  6  5  1  0
  8  9  2  0
 10 11  1  0
 11 12  2  0
 13 11  1  0
 13 14  1  0
 15 14  1  6
 15 17  1  0
 16 15  1  0
 16  8  1  0
 17 18  2  0
 17 19  1  0
 19 20  1  0
 21 20  1  0
 21 22  1  0
 23 21  2  0
M  END
$$$$
