QQG.pdb
     RDKit          3D

 23 22  0  0  1  0  0  0  0  0999 V2000
    7.4730  -19.8389   29.2180 N   0  0  0  0  0  0  0  0  0  0  0  0
    7.7008  -18.7513   28.3484 C   0  0  0  0  0  0  0  0  0  0  0  0
    8.5524  -17.8894   28.6553 O   0  0  0  0  0  0  0  0  0  0  0  0
    6.9572  -18.6013   27.0783 C   0  0  0  0  0  0  0  0  0  0  0  0
    7.9191  -18.4791   25.8975 C   0  0  0  0  0  0  0  0  0  0  0  0
    7.1355  -18.1021   24.6675 C   0  0  2  0  0  0  0  0  0  0  0  0
    6.3402  -19.2051   24.2109 N   0  0  0  0  0  0  0  0  0  0  0  0
    8.0675  -17.6036   23.6325 C   0  0  0  0  0  0  0  0  0  0  0  0
    8.6961  -18.4344   22.9078 O   0  0  0  0  0  0  0  0  0  0  0  0
    6.2675  -13.2448   19.2657 N   0  0  0  0  0  0  0  0  0  0  0  0
    7.3429  -13.3211   20.1822 C   0  0  0  0  0  0  0  0  0  0  0  0
    7.9488  -12.2700   20.5282 O   0  0  0  0  0  0  0  0  0  0  0  0
    7.7842  -14.6014   20.7627 C   0  0  0  0  0  0  0  0  0  0  0  0
    8.8813  -14.5499   21.7428 C   0  0  0  0  0  0  0  0  0  0  0  0
    9.3381  -15.8056   22.3895 C   0  0  2  0  0  0  0  0  0  0  0  0
    8.3159  -16.2302   23.3852 N   0  0  0  0  0  0  0  0  0  0  0  0
   10.6125  -15.7863   23.1062 C   0  0  0  0  0  0  0  0  0  0  0  0
   10.7346  -15.5728   24.3575 O   0  0  0  0  0  0  0  0  0  0  0  0
   11.8652  -16.0124   22.4397 N   0  0  0  0  0  0  0  0  0  0  0  0
   13.1241  -15.9521   23.1420 C   0  0  0  0  0  0  0  0  0  0  0  0
   14.2791  -16.1100   22.2061 C   0  0  0  0  0  0  0  0  0  0  0  0
   14.1239  -16.4000   20.8747 O   0  0  0  0  0  0  0  0  0  0  0  0
   15.4267  -15.9721   22.6560 O   0  0  0  0  0  0  0  0  0  0  0  0
  1  2  1  0
  2  3  2  0
  4  5  1  0
  4  2  1  0
  6  8  1  0
  6  7  1  6
  6  5  1  0
  8  9  2  0
 10 11  1  0
 11 12  2  0
 13 11  1  0
 13 14  1  0
 15 14  1  1
 15 17  1  0
 16 15  1  0
 16  8  1  0
 17 18  2  0
 17 19  1  0
 19 20  1  0
 21 20  1  0
 21 22  1  0
 23 21  2  0
M  END
$$$$
