QQG.pdb
     RDKit          3D

 23 22  0  0  1  0  0  0  0  0999 V2000
    7.1011  -13.2201   16.3220 N   0  0  0  0  0  0  0  0  0  0  0  0
    7.9416  -14.0861   15.5908 C   0  0  0  0  0  0  0  0  0  0  0  0
    7.6757  -14.3327   14.3946 O   0  0  0  0  0  0  0  0  0  0  0  0
    9.1338  -14.7134   16.2023 C   0  0  0  0  0  0  0  0  0  0  0  0
    9.2391  -14.3501   17.6826 C   0  0  0  0  0  0  0  0  0  0  0  0
    9.3459  -15.6178   18.4892 C   0  0  2  0  0  0  0  0  0  0  0  0
    8.1011  -16.3305   18.4870 N   0  0  0  0  0  0  0  0  0  0  0  0
    9.8115  -15.2867   19.8537 C   0  0  0  0  0  0  0  0  0  0  0  0
   10.9348  -14.7166   20.0076 O   0  0  0  0  0  0  0  0  0  0  0  0
    6.5077  -15.5703   25.3914 N   0  0  0  0  0  0  0  0  0  0  0  0
    7.8436  -15.3285   25.7903 C   0  0  0  0  0  0  0  0  0  0  0  0
    8.1107  -15.1394   27.0087 O   0  0  0  0  0  0  0  0  0  0  0  0
    8.9535  -15.2958   24.8219 C   0  0  0  0  0  0  0  0  0  0  0  0
    8.6027  -15.4058   23.3965 C   0  0  0  0  0  0  0  0  0  0  0  0
    9.6813  -15.3688   22.3773 C   0  0  2  0  0  0  0  0  0  0  0  0
    9.0752  -15.5672   21.0320 N   0  0  0  0  0  0  0  0  0  0  0  0
   10.7594  -16.3513   22.4805 C   0  0  0  0  0  0  0  0  0  0  0  0
   10.5927  -17.6147   22.4317 O   0  0  0  0  0  0  0  0  0  0  0  0
   12.1320  -15.9616   22.6500 N   0  0  0  0  0  0  0  0  0  0  0  0
   13.0701  -16.7751   23.3848 C   0  0  0  0  0  0  0  0  0  0  0  0
   14.4374  -16.1708   23.3794 C   0  0  0  0  0  0  0  0  0  0  0  0
   15.5038  -16.7366   24.0301 O   0  0  0  0  0  0  0  0  0  0  0  0
   14.6122  -15.1114   22.7586 O   0  0  0  0  0  0  0  0  0  0  0  0
  1  2  1  0
  2  3  2  0
  4  5  1  0
  4  2  1  0
  6  8  1  0
  6  7  1  1
  6  5  1  0
  8  9  2  0
 10 11  1  0
 11 12  2  0
 13 11  1  0
 13 14  1  0
 15 14  1  1
 15 17  1  0
 16 15  1  0
 16  8  1  0
 17 18  2  0
 17 19  1  0
 19 20  1  0
 21 20  1  0
 21 22  1  0
 23 21  2  0
M  END
$$$$
