QQG.pdb
     RDKit          3D

 23 22  0  0  1  0  0  0  0  0999 V2000
   10.0486  -14.8187   16.9366 N   0  0  0  0  0  0  0  0  0  0  0  0
    8.9802  -14.1591   16.2927 C   0  0  0  0  0  0  0  0  0  0  0  0
    8.6954  -14.4607   15.1136 O   0  0  0  0  0  0  0  0  0  0  0  0
    8.1842  -13.1162   16.9762 C   0  0  0  0  0  0  0  0  0  0  0  0
    8.5972  -12.9918   18.4419 C   0  0  0  0  0  0  0  0  0  0  0  0
    7.8905  -14.0566   19.2395 C   0  0  2  0  0  0  0  0  0  0  0  0
    6.4988  -13.7433   19.3886 N   0  0  0  0  0  0  0  0  0  0  0  0
    8.5792  -14.2275   20.5375 C   0  0  0  0  0  0  0  0  0  0  0  0
    8.6977  -13.2323   21.3159 O   0  0  0  0  0  0  0  0  0  0  0  0
    7.3772  -13.2351   24.8697 N   0  0  0  0  0  0  0  0  0  0  0  0
    8.0975  -14.4524   24.8311 C   0  0  0  0  0  0  0  0  0  0  0  0
    9.0119  -14.6680   25.6731 O   0  0  0  0  0  0  0  0  0  0  0  0
    7.8105  -15.4978   23.8331 C   0  0  0  0  0  0  0  0  0  0  0  0
    8.9623  -16.2223   23.2715 C   0  0  0  0  0  0  0  0  0  0  0  0
    9.8430  -15.5392   22.2910 C   0  0  2  0  0  0  0  0  0  0  0  0
    9.1306  -15.4538   20.9864 N   0  0  0  0  0  0  0  0  0  0  0  0
   11.1437  -16.1401   21.9992 C   0  0  0  0  0  0  0  0  0  0  0  0
   11.3713  -17.3947   21.9764 O   0  0  0  0  0  0  0  0  0  0  0  0
   12.3030  -15.3432   21.7064 N   0  0  0  0  0  0  0  0  0  0  0  0
   13.1797  -14.8621   22.7465 C   0  0  0  0  0  0  0  0  0  0  0  0
   14.3162  -15.8044   22.9812 C   0  0  0  0  0  0  0  0  0  0  0  0
   14.1934  -16.9467   23.7302 O   0  0  0  0  0  0  0  0  0  0  0  0
   15.4172  -15.5393   22.4753 O   0  0  0  0  0  0  0  0  0  0  0  0
  1  2  1  0
  2  3  2  0
  4  5  1  0
  4  2  1  0
  6  8  1  0
  6  7  1  1
  6  5  1  0
  8  9  2  0
 10 11  1  0
 11 12  2  0
 13 11  1  0
 13 14  1  0
 15 14  1  1
 15 17  1  0
 16 15  1  0
 16  8  1  0
 17 18  2  0
 17 19  1  0
 19 20  1  0
 21 20  1  0
 21 22  1  0
 23 21  2  0
M  END
$$$$
