QQG.pdb
     RDKit          3D

 23 22  0  0  1  0  0  0  0  0999 V2000
    8.8793  -17.6571   18.0496 N   0  0  0  0  0  0  0  0  0  0  0  0
    8.1430  -16.6750   17.3535 C   0  0  0  0  0  0  0  0  0  0  0  0
    7.9444  -16.8129   16.1272 O   0  0  0  0  0  0  0  0  0  0  0  0
    7.5971  -15.4818   18.0367 C   0  0  0  0  0  0  0  0  0  0  0  0
    7.9046  -15.5248   19.5327 C   0  0  0  0  0  0  0  0  0  0  0  0
    7.3907  -14.2615   20.1724 C   0  0  2  0  0  0  0  0  0  0  0  0
    7.5665  -13.1384   19.2977 N   0  0  0  0  0  0  0  0  0  0  0  0
    8.0555  -14.0753   21.4808 C   0  0  0  0  0  0  0  0  0  0  0  0
    9.1278  -13.3997   21.5443 O   0  0  0  0  0  0  0  0  0  0  0  0
    5.6386  -12.0722   26.6327 N   0  0  0  0  0  0  0  0  0  0  0  0
    7.0167  -12.1793   26.9354 C   0  0  0  0  0  0  0  0  0  0  0  0
    7.4807  -11.6083   27.9602 O   0  0  0  0  0  0  0  0  0  0  0  0
    7.9439  -12.9509   26.0893 C   0  0  0  0  0  0  0  0  0  0  0  0
    7.3903  -13.5547   24.8663 C   0  0  0  0  0  0  0  0  0  0  0  0
    8.2775  -14.3534   23.9839 C   0  0  2  0  0  0  0  0  0  0  0  0
    7.5692  -14.6107   22.6999 N   0  0  0  0  0  0  0  0  0  0  0  0
    8.7283  -15.6596   24.4621 C   0  0  0  0  0  0  0  0  0  0  0  0
    7.9519  -16.6197   24.7810 O   0  0  0  0  0  0  0  0  0  0  0  0
   10.1215  -15.9757   24.6158 N   0  0  0  0  0  0  0  0  0  0  0  0
   11.0036  -16.1045   23.4812 C   0  0  0  0  0  0  0  0  0  0  0  0
   12.3695  -16.5454   23.8994 C   0  0  0  0  0  0  0  0  0  0  0  0
   13.4176  -15.6747   24.0545 O   0  0  0  0  0  0  0  0  0  0  0  0
   12.5603  -17.7519   24.1148 O   0  0  0  0  0  0  0  0  0  0  0  0
  1  2  1  0
  2  3  2  0
  4  5  1  0
  4  2  1  0
  6  8  1  0
  6  7  1  6
  6  5  1  0
  8  9  2  0
 10 11  1  0
 11 12  2  0
 13 11  1  0
 13 14  1  0
 15 14  1  1
 15 17  1  0
 16 15  1  0
 16  8  1  0
 17 18  2  0
 17 19  1  0
 19 20  1  0
 21 20  1  0
 21 22  1  0
 23 21  2  0
M  END
$$$$
