QQG.pdb
     RDKit          3D

 23 22  0  0  1  0  0  0  0  0999 V2000
   13.4522  -18.3210   15.3723 N   0  0  0  0  0  0  0  0  0  0  0  0
   12.1457  -18.8414   15.2562 C   0  0  0  0  0  0  0  0  0  0  0  0
   11.8495  -19.5370   14.2608 O   0  0  0  0  0  0  0  0  0  0  0  0
   11.1121  -18.5862   16.2834 C   0  0  0  0  0  0  0  0  0  0  0  0
   11.6756  -17.7356   17.4206 C   0  0  0  0  0  0  0  0  0  0  0  0
   11.1470  -18.2605   18.7299 C   0  0  2  0  0  0  0  0  0  0  0  0
    9.8837  -18.9141   18.5451 N   0  0  0  0  0  0  0  0  0  0  0  0
   11.0777  -17.1502   19.7050 C   0  0  0  0  0  0  0  0  0  0  0  0
   12.1185  -16.4643   19.9433 O   0  0  0  0  0  0  0  0  0  0  0  0
    7.3727  -12.0297   19.1216 N   0  0  0  0  0  0  0  0  0  0  0  0
    7.4590  -13.0986   20.0448 C   0  0  0  0  0  0  0  0  0  0  0  0
    6.4881  -13.3462   20.8113 O   0  0  0  0  0  0  0  0  0  0  0  0
    8.6565  -13.9517   20.1412 C   0  0  0  0  0  0  0  0  0  0  0  0
    8.7388  -14.8630   21.2943 C   0  0  0  0  0  0  0  0  0  0  0  0
    9.9356  -15.7265   21.4545 C   0  0  2  0  0  0  0  0  0  0  0  0
    9.9031  -16.7876   20.4107 N   0  0  0  0  0  0  0  0  0  0  0  0
   10.1167  -16.4219   22.7280 C   0  0  0  0  0  0  0  0  0  0  0  0
    9.3918  -17.3903   23.1319 O   0  0  0  0  0  0  0  0  0  0  0  0
   11.1549  -16.0601   23.6531 N   0  0  0  0  0  0  0  0  0  0  0  0
   11.1407  -16.5029   25.0263 C   0  0  0  0  0  0  0  0  0  0  0  0
   12.1823  -17.5461   25.2739 C   0  0  0  0  0  0  0  0  0  0  0  0
   12.5218  -17.9752   26.5315 O   0  0  0  0  0  0  0  0  0  0  0  0
   12.7633  -18.0438   24.2976 O   0  0  0  0  0  0  0  0  0  0  0  0
  1  2  1  0
  2  3  2  0
  4  5  1  0
  4  2  1  0
  6  8  1  0
  6  7  1  6
  6  5  1  0
  8  9  2  0
 10 11  1  0
 11 12  2  0
 13 11  1  0
 13 14  1  0
 15 14  1  1
 15 17  1  0
 16 15  1  0
 16  8  1  0
 17 18  2  0
 17 19  1  0
 19 20  1  0
 21 20  1  0
 21 22  1  0
 23 21  2  0
M  END
$$$$
