QQG.pdb
     RDKit          3D

 23 22  0  0  1  0  0  0  0  0999 V2000
   10.9240  -16.2152   12.9630 N   0  0  0  0  0  0  0  0  0  0  0  0
    9.6642  -16.4036   13.5701 C   0  0  0  0  0  0  0  0  0  0  0  0
    8.7183  -16.8573   12.8905 O   0  0  0  0  0  0  0  0  0  0  0  0
    9.4300  -16.0780   14.9941 C   0  0  0  0  0  0  0  0  0  0  0  0
   10.6397  -15.3625   15.5932 C   0  0  0  0  0  0  0  0  0  0  0  0
   10.7866  -15.7767   17.0341 C   0  0  2  0  0  0  0  0  0  0  0  0
    9.8907  -15.0340   17.8726 N   0  0  0  0  0  0  0  0  0  0  0  0
   12.2017  -15.6291   17.4392 C   0  0  0  0  0  0  0  0  0  0  0  0
   13.1077  -16.1987   16.7573 O   0  0  0  0  0  0  0  0  0  0  0  0
   17.2061  -15.0665   17.5110 N   0  0  0  0  0  0  0  0  0  0  0  0
   16.3518  -14.7622   16.4249 C   0  0  0  0  0  0  0  0  0  0  0  0
   16.7014  -15.0574   15.2492 O   0  0  0  0  0  0  0  0  0  0  0  0
   15.0451  -14.1097   16.6187 C   0  0  0  0  0  0  0  0  0  0  0  0
   14.6813  -13.7339   17.9947 C   0  0  0  0  0  0  0  0  0  0  0  0
   14.0767  -14.7516   18.8906 C   0  0  2  0  0  0  0  0  0  0  0  0
   12.6300  -14.8785   18.5628 N   0  0  0  0  0  0  0  0  0  0  0  0
   14.1427  -14.5240   20.3335 C   0  0  0  0  0  0  0  0  0  0  0  0
   13.5156  -13.5995   20.9486 O   0  0  0  0  0  0  0  0  0  0  0  0
   14.9417  -15.3468   21.1991 N   0  0  0  0  0  0  0  0  0  0  0  0
   14.9101  -15.1991   22.6340 C   0  0  0  0  0  0  0  0  0  0  0  0
   15.9896  -15.9997   23.2887 C   0  0  0  0  0  0  0  0  0  0  0  0
   16.3579  -15.8223   24.5978 O   0  0  0  0  0  0  0  0  0  0  0  0
   16.5760  -16.8613   22.6163 O   0  0  0  0  0  0  0  0  0  0  0  0
  1  2  1  0
  2  3  2  0
  4  5  1  0
  4  2  1  0
  6  8  1  0
  6  7  1  1
  6  5  1  0
  8  9  2  0
 10 11  1  0
 11 12  2  0
 13 11  1  0
 13 14  1  0
 15 14  1  6
 15 17  1  0
 16 15  1  0
 16  8  1  0
 17 18  2  0
 17 19  1  0
 19 20  1  0
 21 20  1  0
 21 22  1  0
 23 21  2  0
M  END
$$$$
