QQG.pdb
     RDKit          3D

 23 22  0  0  1  0  0  0  0  0999 V2000
   13.9144  -18.9668   16.0198 N   0  0  0  0  0  0  0  0  0  0  0  0
   12.6009  -19.4490   15.8376 C   0  0  0  0  0  0  0  0  0  0  0  0
   12.3777  -20.2977   14.9474 O   0  0  0  0  0  0  0  0  0  0  0  0
   11.4755  -18.9767   16.6736 C   0  0  0  0  0  0  0  0  0  0  0  0
   11.9718  -18.0363   17.7708 C   0  0  0  0  0  0  0  0  0  0  0  0
   10.8105  -17.6626   18.6545 C   0  0  2  0  0  0  0  0  0  0  0  0
    9.7741  -17.0267   17.8936 N   0  0  0  0  0  0  0  0  0  0  0  0
   11.2997  -16.8202   19.7678 C   0  0  0  0  0  0  0  0  0  0  0  0
   11.3791  -15.5636   19.6101 O   0  0  0  0  0  0  0  0  0  0  0  0
    9.9441  -17.4821   25.7745 N   0  0  0  0  0  0  0  0  0  0  0  0
   10.7284  -16.3047   25.7460 C   0  0  0  0  0  0  0  0  0  0  0  0
   10.8371  -15.5973   26.7850 O   0  0  0  0  0  0  0  0  0  0  0  0
   11.4402  -15.8703   24.5313 C   0  0  0  0  0  0  0  0  0  0  0  0
   11.2882  -16.7074   23.3300 C   0  0  0  0  0  0  0  0  0  0  0  0
   12.1073  -16.4101   22.1283 C   0  0  2  0  0  0  0  0  0  0  0  0
   11.6965  -17.3279   21.0303 N   0  0  0  0  0  0  0  0  0  0  0  0
   13.5598  -16.5391   22.2366 C   0  0  0  0  0  0  0  0  0  0  0  0
   14.1661  -17.6021   22.5956 O   0  0  0  0  0  0  0  0  0  0  0  0
   14.4462  -15.4481   21.9390 N   0  0  0  0  0  0  0  0  0  0  0  0
   15.7336  -15.3160   22.5770 C   0  0  0  0  0  0  0  0  0  0  0  0
   16.7491  -16.2147   21.9479 C   0  0  0  0  0  0  0  0  0  0  0  0
   17.8233  -15.7422   21.2383 O   0  0  0  0  0  0  0  0  0  0  0  0
   16.6116  -17.4409   22.0747 O   0  0  0  0  0  0  0  0  0  0  0  0
  1  2  1  0
  2  3  2  0
  4  5  1  0
  4  2  1  0
  6  8  1  0
  6  7  1  6
  6  5  1  0
  8  9  2  0
 10 11  1  0
 11 12  2  0
 13 11  1  0
 13 14  1  0
 15 14  1  1
 15 17  1  0
 16 15  1  0
 16  8  1  0
 17 18  2  0
 17 19  1  0
 19 20  1  0
 21 20  1  0
 21 22  1  0
 23 21  2  0
M  END
$$$$
