YPG.pdb
     RDKit          3D

 24 25  0  0  1  0  0  0  0  0999 V2000
    5.9136  -10.7565   28.3298 O   0  0  0  0  0  0  0  0  0  0  0  0
    6.4557  -11.6808   27.4658 C   0  0  0  0  0  0  0  0  0  0  0  0
    6.1285  -11.6579   26.1298 C   0  0  0  0  0  0  0  0  0  0  0  0
    6.6738  -12.5926   25.2435 C   0  0  0  0  0  0  0  0  0  0  0  0
    7.5391  -13.5355   25.7129 C   0  0  0  0  0  0  0  0  0  0  0  0
    8.1173  -14.5260   24.7756 C   0  0  0  0  0  0  0  0  0  0  0  0
    6.9770  -15.3237   24.1167 C   0  0  2  0  0  0  0  0  0  0  0  0
    6.6014  -16.3705   25.0674 N   0  0  0  0  0  0  0  0  0  0  0  0
    7.4402  -15.9405   22.8693 C   0  0  0  0  0  0  0  0  0  0  0  0
    7.3327  -17.2141   22.7612 O   0  0  0  0  0  0  0  0  0  0  0  0
    7.8697  -13.5592   27.0606 C   0  0  0  0  0  0  0  0  0  0  0  0
    7.3264  -12.6317   27.9307 C   0  0  0  0  0  0  0  0  0  0  0  0
    7.9973  -15.2620   21.7656 N   0  0  0  0  0  0  0  0  0  0  0  0
    8.2951  -13.8490   21.6548 C   0  0  0  0  0  0  0  0  0  0  0  0
    8.0229  -13.5518   20.1992 C   0  0  0  0  0  0  0  0  0  0  0  0
    7.7377  -14.8776   19.5286 C   0  0  0  0  0  0  0  0  0  0  0  0
    8.3766  -15.8503   20.5044 C   0  0  1  0  0  0  0  0  0  0  0  0
    9.8607  -15.8053   20.2903 C   0  0  0  0  0  0  0  0  0  0  0  0
   10.6333  -15.0308   20.8959 O   0  0  0  0  0  0  0  0  0  0  0  0
   10.3902  -16.7184   19.3275 N   0  0  0  0  0  0  0  0  0  0  0  0
   10.5609  -18.1080   19.6928 C   0  0  0  0  0  0  0  0  0  0  0  0
   11.8600  -18.3203   20.3677 C   0  0  0  0  0  0  0  0  0  0  0  0
   11.9814  -17.9879   21.7030 O   0  0  0  0  0  0  0  0  0  0  0  0
   12.8352  -18.7927   19.7434 O   0  0  0  0  0  0  0  0  0  0  0  0
  2  1  1  0
  3  2  2  0
  4  3  1  0
  5 11  1  0
  5  4  2  0
  6  5  1  0
  7  6  1  0
  7  9  1  0
  7  8  1  1
  9 13  1  0
 10  9  2  0
 11 12  2  0
 12  2  1  0
 13 17  1  0
 13 14  1  0
 14 15  1  0
 16 15  1  0
 17 16  1  0
 18 19  2  0
 17 18  1  6
 20 18  1  0
 21 20  1  0
 22 21  1  0
 22 23  1  0
 24 22  2  0
M  END
$$$$
