YPG.pdb
     RDKit          3D

 24 25  0  0  1  0  0  0  0  0999 V2000
   13.1765  -16.9175   12.4619 O   0  0  0  0  0  0  0  0  0  0  0  0
   12.8688  -16.7217   13.7892 C   0  0  0  0  0  0  0  0  0  0  0  0
   11.6454  -16.2061   14.1497 C   0  0  0  0  0  0  0  0  0  0  0  0
   11.3230  -16.0033   15.4956 C   0  0  0  0  0  0  0  0  0  0  0  0
   12.2342  -16.3215   16.4582 C   0  0  0  0  0  0  0  0  0  0  0  0
   11.8942  -16.1073   17.8838 C   0  0  0  0  0  0  0  0  0  0  0  0
   11.9587  -14.6013   18.1978 C   0  0  2  0  0  0  0  0  0  0  0  0
   13.3755  -14.2365   18.1857 N   0  0  0  0  0  0  0  0  0  0  0  0
   11.3967  -14.3324   19.5255 C   0  0  0  0  0  0  0  0  0  0  0  0
   12.2122  -14.2698   20.5136 O   0  0  0  0  0  0  0  0  0  0  0  0
   13.4687  -16.8418   16.0952 C   0  0  0  0  0  0  0  0  0  0  0  0
   13.7801  -17.0394   14.7624 C   0  0  0  0  0  0  0  0  0  0  0  0
   10.0329  -14.1330   19.8240 N   0  0  0  0  0  0  0  0  0  0  0  0
    8.9117  -14.1781   18.9085 C   0  0  0  0  0  0  0  0  0  0  0  0
    7.9709  -13.1347   19.4627 C   0  0  0  0  0  0  0  0  0  0  0  0
    8.5598  -12.6693   20.7764 C   0  0  0  0  0  0  0  0  0  0  0  0
    9.4781  -13.8290   21.1204 C   0  0  1  0  0  0  0  0  0  0  0  0
    8.6264  -14.9490   21.6406 C   0  0  0  0  0  0  0  0  0  0  0  0
    8.0414  -15.7810   20.9133 O   0  0  0  0  0  0  0  0  0  0  0  0
    8.4980  -15.0407   23.0606 N   0  0  0  0  0  0  0  0  0  0  0  0
    9.6735  -14.8725   23.8872 C   0  0  0  0  0  0  0  0  0  0  0  0
   10.3320  -16.1731   24.1388 C   0  0  0  0  0  0  0  0  0  0  0  0
   11.3006  -16.6130   23.2576 O   0  0  0  0  0  0  0  0  0  0  0  0
   10.0200  -16.8663   25.1317 O   0  0  0  0  0  0  0  0  0  0  0  0
  2  1  1  0
  3  2  2  0
  4  3  1  0
  5 11  1  0
  5  4  2  0
  6  5  1  0
  7  6  1  0
  7  9  1  0
  7  8  1  1
  9 13  1  0
 10  9  2  0
 11 12  2  0
 12  2  1  0
 13 17  1  0
 13 14  1  0
 14 15  1  0
 16 15  1  0
 17 16  1  0
 18 19  2  0
 17 18  1  6
 20 18  1  0
 21 20  1  0
 22 21  1  0
 22 23  1  0
 24 22  2  0
M  END
$$$$
