YPG.pdb
     RDKit          3D

 24 25  0  0  1  0  0  0  0  0999 V2000
    6.0758  -10.5255   26.9581 O   0  0  0  0  0  0  0  0  0  0  0  0
    6.5302  -11.7915   26.6654 C   0  0  0  0  0  0  0  0  0  0  0  0
    7.5013  -11.9766   25.7088 C   0  0  0  0  0  0  0  0  0  0  0  0
    7.9700  -13.2588   25.4039 C   0  0  0  0  0  0  0  0  0  0  0  0
    7.4561  -14.3347   26.0645 C   0  0  0  0  0  0  0  0  0  0  0  0
    7.9513  -15.6930   25.7428 C   0  0  0  0  0  0  0  0  0  0  0  0
    6.8983  -16.4262   24.8915 C   0  0  2  0  0  0  0  0  0  0  0  0
    6.4759  -17.5913   25.6693 N   0  0  0  0  0  0  0  0  0  0  0  0
    7.4870  -16.8724   23.6246 C   0  0  0  0  0  0  0  0  0  0  0  0
    7.7749  -18.1170   23.5096 O   0  0  0  0  0  0  0  0  0  0  0  0
    6.4763  -14.1486   27.0298 C   0  0  0  0  0  0  0  0  0  0  0  0
    6.0181  -12.8778   27.3256 C   0  0  0  0  0  0  0  0  0  0  0  0
    7.7694  -16.0575   22.5087 N   0  0  0  0  0  0  0  0  0  0  0  0
    7.6996  -14.6132   22.4284 C   0  0  0  0  0  0  0  0  0  0  0  0
    7.2469  -14.3676   21.0086 C   0  0  0  0  0  0  0  0  0  0  0  0
    7.2448  -15.7108   20.3124 C   0  0  0  0  0  0  0  0  0  0  0  0
    8.1799  -16.5109   21.2023 C   0  0  1  0  0  0  0  0  0  0  0  0
    9.5850  -16.0944   20.8821 C   0  0  0  0  0  0  0  0  0  0  0  0
   10.1537  -15.1009   21.3851 O   0  0  0  0  0  0  0  0  0  0  0  0
   10.2876  -16.9064   19.9397 N   0  0  0  0  0  0  0  0  0  0  0  0
   10.8474  -18.1677   20.3748 C   0  0  0  0  0  0  0  0  0  0  0  0
   12.1788  -17.9702   20.9886 C   0  0  0  0  0  0  0  0  0  0  0  0
   12.9074  -19.0784   21.3749 O   0  0  0  0  0  0  0  0  0  0  0  0
   12.6411  -16.8205   21.1569 O   0  0  0  0  0  0  0  0  0  0  0  0
  2  1  1  0
  3  2  2  0
  4  3  1  0
  5 11  1  0
  5  4  2  0
  6  5  1  0
  7  6  1  0
  7  9  1  0
  7  8  1  1
  9 13  1  0
 10  9  2  0
 11 12  2  0
 12  2  1  0
 13 17  1  0
 13 14  1  0
 14 15  1  0
 16 15  1  0
 17 16  1  0
 18 19  2  0
 17 18  1  6
 20 18  1  0
 21 20  1  0
 22 21  1  0
 22 23  1  0
 24 22  2  0
M  END
$$$$
