YPG.pdb
     RDKit          3D

 24 25  0  0  1  0  0  0  0  0999 V2000
    5.5066  -10.6167   27.2675 O   0  0  0  0  0  0  0  0  0  0  0  0
    6.0762  -11.8466   27.0272 C   0  0  0  0  0  0  0  0  0  0  0  0
    7.4401  -11.9660   26.8935 C   0  0  0  0  0  0  0  0  0  0  0  0
    8.0288  -13.2112   26.6492 C   0  0  0  0  0  0  0  0  0  0  0  0
    7.2384  -14.3167   26.5432 C   0  0  0  0  0  0  0  0  0  0  0  0
    7.8603  -15.6358   26.2845 C   0  0  0  0  0  0  0  0  0  0  0  0
    6.9836  -16.4218   25.2922 C   0  0  2  0  0  0  0  0  0  0  0  0
    6.6024  -17.6616   25.9691 N   0  0  0  0  0  0  0  0  0  0  0  0
    7.7456  -16.7415   24.0805 C   0  0  0  0  0  0  0  0  0  0  0  0
    8.1327  -17.9545   23.9256 O   0  0  0  0  0  0  0  0  0  0  0  0
    5.8623  -14.1970   26.6780 C   0  0  0  0  0  0  0  0  0  0  0  0
    5.2877  -12.9625   26.9194 C   0  0  0  0  0  0  0  0  0  0  0  0
    8.0967  -15.8356   23.0583 N   0  0  0  0  0  0  0  0  0  0  0  0
    7.8812  -14.4037   23.0336 C   0  0  0  0  0  0  0  0  0  0  0  0
    7.6166  -14.1193   21.5741 C   0  0  0  0  0  0  0  0  0  0  0  0
    7.8638  -15.4107   20.8258 C   0  0  0  0  0  0  0  0  0  0  0  0
    8.7410  -16.1642   21.8103 C   0  0  1  0  0  0  0  0  0  0  0  0
   10.1235  -15.5881   21.7261 C   0  0  0  0  0  0  0  0  0  0  0  0
   10.3893  -14.3769   21.8869 O   0  0  0  0  0  0  0  0  0  0  0  0
   11.1780  -16.5095   21.4432 N   0  0  0  0  0  0  0  0  0  0  0  0
   12.4779  -16.2993   22.0429 C   0  0  0  0  0  0  0  0  0  0  0  0
   13.4343  -17.3405   21.6076 C   0  0  0  0  0  0  0  0  0  0  0  0
   12.9449  -18.5089   21.0566 O   0  0  0  0  0  0  0  0  0  0  0  0
   14.6666  -17.1700   21.7345 O   0  0  0  0  0  0  0  0  0  0  0  0
  2  1  1  0
  3  2  2  0
  4  3  1  0
  5 11  1  0
  5  4  2  0
  6  5  1  0
  7  6  1  0
  7  9  1  0
  7  8  1  1
  9 13  1  0
 10  9  2  0
 11 12  2  0
 12  2  1  0
 13 17  1  0
 13 14  1  0
 14 15  1  0
 16 15  1  0
 17 16  1  0
 18 19  2  0
 17 18  1  1
 20 18  1  0
 21 20  1  0
 22 21  1  0
 22 23  1  0
 24 22  2  0
M  END
$$$$
