YPG.pdb
     RDKit          3D

 24 25  0  0  1  0  0  0  0  0999 V2000
   11.5483  -15.1935   31.7741 O   0  0  0  0  0  0  0  0  0  0  0  0
   11.0251  -15.4580   30.5286 C   0  0  0  0  0  0  0  0  0  0  0  0
   10.5420  -14.4344   29.7467 C   0  0  0  0  0  0  0  0  0  0  0  0
   10.0084  -14.6925   28.4798 C   0  0  0  0  0  0  0  0  0  0  0  0
    9.9683  -15.9744   28.0181 C   0  0  0  0  0  0  0  0  0  0  0  0
    9.4035  -16.2493   26.6768 C   0  0  0  0  0  0  0  0  0  0  0  0
    7.8807  -16.4416   26.7995 C   0  0  2  0  0  0  0  0  0  0  0  0
    7.6448  -17.8855   26.8006 N   0  0  0  0  0  0  0  0  0  0  0  0
    7.1958  -15.8360   25.6527 C   0  0  0  0  0  0  0  0  0  0  0  0
    6.5373  -16.6153   24.8754 O   0  0  0  0  0  0  0  0  0  0  0  0
   10.4555  -17.0076   28.8064 C   0  0  0  0  0  0  0  0  0  0  0  0
   10.9816  -16.7445   30.0579 C   0  0  0  0  0  0  0  0  0  0  0  0
    7.1902  -14.4658   25.3189 N   0  0  0  0  0  0  0  0  0  0  0  0
    7.7702  -13.3708   26.0686 C   0  0  0  0  0  0  0  0  0  0  0  0
    6.8164  -12.2295   25.8068 C   0  0  0  0  0  0  0  0  0  0  0  0
    5.8245  -12.7174   24.7739 C   0  0  0  0  0  0  0  0  0  0  0  0
    6.5860  -13.8741   24.1504 C   0  0  1  0  0  0  0  0  0  0  0  0
    7.6130  -13.2983   23.2208 C   0  0  0  0  0  0  0  0  0  0  0  0
    8.7156  -12.8395   23.5916 O   0  0  0  0  0  0  0  0  0  0  0  0
    7.2772  -13.2898   21.8322 N   0  0  0  0  0  0  0  0  0  0  0  0
    6.8535  -14.5213   21.2016 C   0  0  0  0  0  0  0  0  0  0  0  0
    8.0203  -15.3418   20.8095 C   0  0  0  0  0  0  0  0  0  0  0  0
    9.2859  -14.9149   21.1618 O   0  0  0  0  0  0  0  0  0  0  0  0
    7.8680  -16.4053   20.1695 O   0  0  0  0  0  0  0  0  0  0  0  0
  2  1  1  0
  3  2  2  0
  4  3  1  0
  5 11  1  0
  5  4  2  0
  6  5  1  0
  7  6  1  0
  7  9  1  0
  7  8  1  6
  9 13  1  0
 10  9  2  0
 11 12  2  0
 12  2  1  0
 13 17  1  0
 13 14  1  0
 14 15  1  0
 16 15  1  0
 17 16  1  0
 18 19  2  0
 17 18  1  6
 20 18  1  0
 21 20  1  0
 22 21  1  0
 22 23  1  0
 24 22  2  0
M  END
$$$$
