YPG.pdb
     RDKit          3D

 24 25  0  0  1  0  0  0  0  0999 V2000
   11.2423  -14.9159   29.5939 O   0  0  0  0  0  0  0  0  0  0  0  0
   10.1944  -14.9053   28.7013 C   0  0  0  0  0  0  0  0  0  0  0  0
    9.7720  -16.0747   28.1126 C   0  0  0  0  0  0  0  0  0  0  0  0
    8.7082  -16.0749   27.2044 C   0  0  0  0  0  0  0  0  0  0  0  0
    8.0855  -14.9007   26.9017 C   0  0  0  0  0  0  0  0  0  0  0  0
    6.9589  -14.8992   25.9401 C   0  0  0  0  0  0  0  0  0  0  0  0
    6.7486  -16.3281   25.4061 C   0  0  2  0  0  0  0  0  0  0  0  0
    7.0552  -17.2330   26.5141 N   0  0  0  0  0  0  0  0  0  0  0  0
    7.6622  -16.5954   24.2904 C   0  0  0  0  0  0  0  0  0  0  0  0
    8.2122  -17.7530   24.2379 O   0  0  0  0  0  0  0  0  0  0  0  0
    8.5112  -13.7205   27.4952 C   0  0  0  0  0  0  0  0  0  0  0  0
    9.5637  -13.7285   28.3922 C   0  0  0  0  0  0  0  0  0  0  0  0
    7.9972  -15.6943   23.2586 N   0  0  0  0  0  0  0  0  0  0  0  0
    7.6943  -14.2799   23.1871 C   0  0  0  0  0  0  0  0  0  0  0  0
    7.4716  -14.0485   21.7113 C   0  0  0  0  0  0  0  0  0  0  0  0
    7.8285  -15.3397   21.0081 C   0  0  0  0  0  0  0  0  0  0  0  0
    8.7105  -16.0120   22.0457 C   0  0  1  0  0  0  0  0  0  0  0  0
   10.0567  -15.3518   21.9996 C   0  0  0  0  0  0  0  0  0  0  0  0
   10.3159  -14.2500   22.5309 O   0  0  0  0  0  0  0  0  0  0  0  0
   11.0833  -16.0541   21.2966 N   0  0  0  0  0  0  0  0  0  0  0  0
   12.1068  -16.7462   22.0494 C   0  0  0  0  0  0  0  0  0  0  0  0
   13.1769  -17.2394   21.1550 C   0  0  0  0  0  0  0  0  0  0  0  0
   12.8279  -17.9637   20.0318 O   0  0  0  0  0  0  0  0  0  0  0  0
   14.3793  -17.0068   21.4079 O   0  0  0  0  0  0  0  0  0  0  0  0
  2  1  1  0
  3  2  2  0
  4  3  1  0
  5 11  1  0
  5  4  2  0
  6  5  1  0
  7  6  1  0
  7  9  1  0
  7  8  1  1
  9 13  1  0
 10  9  2  0
 11 12  2  0
 12  2  1  0
 13 17  1  0
 13 14  1  0
 14 15  1  0
 16 15  1  0
 17 16  1  0
 18 19  2  0
 17 18  1  1
 20 18  1  0
 21 20  1  0
 22 21  1  0
 22 23  1  0
 24 22  2  0
M  END
$$$$
