YPG.pdb
     RDKit          3D

 24 25  0  0  1  0  0  0  0  0999 V2000
    6.8142  -11.0269   26.8665 O   0  0  0  0  0  0  0  0  0  0  0  0
    6.9438  -12.3889   26.7147 C   0  0  0  0  0  0  0  0  0  0  0  0
    5.8440  -13.2078   26.8270 C   0  0  0  0  0  0  0  0  0  0  0  0
    5.9649  -14.5930   26.6745 C   0  0  0  0  0  0  0  0  0  0  0  0
    7.1881  -15.1339   26.4116 C   0  0  0  0  0  0  0  0  0  0  0  0
    7.3177  -16.6005   26.2498 C   0  0  0  0  0  0  0  0  0  0  0  0
    6.6385  -17.0257   24.9350 C   0  0  2  0  0  0  0  0  0  0  0  0
    6.0694  -18.3523   25.1735 N   0  0  0  0  0  0  0  0  0  0  0  0
    7.6257  -17.1054   23.8533 C   0  0  0  0  0  0  0  0  0  0  0  0
    8.1331  -18.2551   23.5963 O   0  0  0  0  0  0  0  0  0  0  0  0
    8.2981  -14.3084   26.2981 C   0  0  0  0  0  0  0  0  0  0  0  0
    8.1705  -12.9398   26.4502 C   0  0  0  0  0  0  0  0  0  0  0  0
    8.0752  -16.0297   23.0597 N   0  0  0  0  0  0  0  0  0  0  0  0
    7.8165  -14.6183   23.2552 C   0  0  0  0  0  0  0  0  0  0  0  0
    7.7332  -14.0838   21.8451 C   0  0  0  0  0  0  0  0  0  0  0  0
    8.1185  -15.2203   20.9238 C   0  0  0  0  0  0  0  0  0  0  0  0
    8.8861  -16.1263   21.8706 C   0  0  1  0  0  0  0  0  0  0  0  0
   10.2476  -15.5298   22.0724 C   0  0  0  0  0  0  0  0  0  0  0  0
   10.5457  -14.7666   23.0170 O   0  0  0  0  0  0  0  0  0  0  0  0
   11.2412  -15.8769   21.1063 N   0  0  0  0  0  0  0  0  0  0  0  0
   11.9956  -17.0996   21.2788 C   0  0  0  0  0  0  0  0  0  0  0  0
   13.0034  -16.9508   22.3514 C   0  0  0  0  0  0  0  0  0  0  0  0
   12.9569  -17.8062   23.4351 O   0  0  0  0  0  0  0  0  0  0  0  0
   13.8848  -16.0664   22.2824 O   0  0  0  0  0  0  0  0  0  0  0  0
  2  1  1  0
  3  2  2  0
  4  3  1  0
  5 11  1  0
  5  4  2  0
  6  5  1  0
  7  6  1  0
  7  9  1  0
  7  8  1  1
  9 13  1  0
 10  9  2  0
 11 12  2  0
 12  2  1  0
 13 17  1  0
 13 14  1  0
 14 15  1  0
 16 15  1  0
 17 16  1  0
 18 19  2  0
 17 18  1  1
 20 18  1  0
 21 20  1  0
 22 21  1  0
 22 23  1  0
 24 22  2  0
M  END
$$$$
