YPG.pdb
     RDKit          3D

 24 25  0  0  1  0  0  0  0  0999 V2000
   11.3841  -14.8822   29.8153 O   0  0  0  0  0  0  0  0  0  0  0  0
   10.3953  -14.7618   28.8652 C   0  0  0  0  0  0  0  0  0  0  0  0
    9.0770  -14.9573   29.2065 C   0  0  0  0  0  0  0  0  0  0  0  0
    8.0647  -14.8374   28.2487 C   0  0  0  0  0  0  0  0  0  0  0  0
    8.3922  -14.5230   26.9634 C   0  0  0  0  0  0  0  0  0  0  0  0
    7.3214  -14.3957   25.9481 C   0  0  0  0  0  0  0  0  0  0  0  0
    6.7932  -15.7977   25.5923 C   0  0  2  0  0  0  0  0  0  0  0  0
    7.0890  -16.6548   26.7405 N   0  0  0  0  0  0  0  0  0  0  0  0
    7.4818  -16.3163   24.4057 C   0  0  0  0  0  0  0  0  0  0  0  0
    7.6563  -17.5847   24.3278 O   0  0  0  0  0  0  0  0  0  0  0  0
    9.7220  -14.3257   26.6184 C   0  0  0  0  0  0  0  0  0  0  0  0
   10.7172  -14.4461   27.5710 C   0  0  0  0  0  0  0  0  0  0  0  0
    7.9747  -15.5479   23.3308 N   0  0  0  0  0  0  0  0  0  0  0  0
    8.0591  -14.1050   23.2410 C   0  0  0  0  0  0  0  0  0  0  0  0
    7.8054  -13.8345   21.7769 C   0  0  0  0  0  0  0  0  0  0  0  0
    7.7525  -15.1800   21.0870 C   0  0  0  0  0  0  0  0  0  0  0  0
    8.4907  -16.0567   22.0835 C   0  0  1  0  0  0  0  0  0  0  0  0
    9.9583  -15.7852   21.9334 C   0  0  0  0  0  0  0  0  0  0  0  0
   10.5510  -14.8211   22.4650 O   0  0  0  0  0  0  0  0  0  0  0  0
   10.6939  -16.7060   21.1258 N   0  0  0  0  0  0  0  0  0  0  0  0
   12.1400  -16.6630   21.1464 C   0  0  0  0  0  0  0  0  0  0  0  0
   12.6912  -17.8104   21.9001 C   0  0  0  0  0  0  0  0  0  0  0  0
   13.4950  -18.7193   21.2399 O   0  0  0  0  0  0  0  0  0  0  0  0
   12.4361  -17.9590   23.1153 O   0  0  0  0  0  0  0  0  0  0  0  0
  2  1  1  0
  3  2  2  0
  4  3  1  0
  5 11  1  0
  5  4  2  0
  6  5  1  0
  7  6  1  0
  7  9  1  0
  7  8  1  1
  9 13  1  0
 10  9  2  0
 11 12  2  0
 12  2  1  0
 13 17  1  0
 13 14  1  0
 14 15  1  0
 16 15  1  0
 17 16  1  0
 18 19  2  0
 17 18  1  1
 20 18  1  0
 21 20  1  0
 22 21  1  0
 22 23  1  0
 24 22  2  0
M  END
$$$$
