YPG.pdb
     RDKit          3D

 24 25  0  0  1  0  0  0  0  0999 V2000
    5.8478  -10.7076   27.0030 O   0  0  0  0  0  0  0  0  0  0  0  0
    6.3164  -11.9841   26.7892 C   0  0  0  0  0  0  0  0  0  0  0  0
    7.6491  -12.1992   26.5243 C   0  0  0  0  0  0  0  0  0  0  0  0
    8.1354  -13.4924   26.3056 C   0  0  0  0  0  0  0  0  0  0  0  0
    7.2757  -14.5490   26.3564 C   0  0  0  0  0  0  0  0  0  0  0  0
    7.7892  -15.9189   26.1250 C   0  0  0  0  0  0  0  0  0  0  0  0
    6.8799  -16.6343   25.1090 C   0  0  2  0  0  0  0  0  0  0  0  0
    6.4127  -17.8576   25.7617 N   0  0  0  0  0  0  0  0  0  0  0  0
    7.6380  -16.9835   23.9031 C   0  0  0  0  0  0  0  0  0  0  0  0
    7.9775  -18.2109   23.7500 O   0  0  0  0  0  0  0  0  0  0  0  0
    5.9310  -14.3327   26.6236 C   0  0  0  0  0  0  0  0  0  0  0  0
    5.4578  -13.0513   26.8387 C   0  0  0  0  0  0  0  0  0  0  0  0
    8.0330  -16.0916   22.8845 N   0  0  0  0  0  0  0  0  0  0  0  0
    7.9396  -14.6465   22.8896 C   0  0  0  0  0  0  0  0  0  0  0  0
    7.6549  -14.3136   21.4442 C   0  0  0  0  0  0  0  0  0  0  0  0
    7.7679  -15.6072   20.6677 C   0  0  0  0  0  0  0  0  0  0  0  0
    8.6079  -16.4504   21.6111 C   0  0  1  0  0  0  0  0  0  0  0  0
   10.0311  -15.9918   21.4911 C   0  0  0  0  0  0  0  0  0  0  0  0
   10.5177  -15.0389   22.1383 O   0  0  0  0  0  0  0  0  0  0  0  0
   10.8535  -16.7115   20.5708 N   0  0  0  0  0  0  0  0  0  0  0  0
   11.6780  -17.7950   21.0603 C   0  0  0  0  0  0  0  0  0  0  0  0
   12.9730  -17.2868   21.5632 C   0  0  0  0  0  0  0  0  0  0  0  0
   13.1720  -17.1989   22.9274 O   0  0  0  0  0  0  0  0  0  0  0  0
   13.8759  -16.9413   20.7700 O   0  0  0  0  0  0  0  0  0  0  0  0
  2  1  1  0
  3  2  2  0
  4  3  1  0
  5 11  1  0
  5  4  2  0
  6  5  1  0
  7  6  1  0
  7  9  1  0
  7  8  1  1
  9 13  1  0
 10  9  2  0
 11 12  2  0
 12  2  1  0
 13 17  1  0
 13 14  1  0
 14 15  1  0
 16 15  1  0
 17 16  1  0
 18 19  2  0
 17 18  1  1
 20 18  1  0
 21 20  1  0
 22 21  1  0
 22 23  1  0
 24 22  2  0
M  END
$$$$
