YPG.pdb
     RDKit          3D

 24 25  0  0  1  0  0  0  0  0999 V2000
   11.2652  -15.0985   29.6368 O   0  0  0  0  0  0  0  0  0  0  0  0
   10.2157  -15.0518   28.7473 C   0  0  0  0  0  0  0  0  0  0  0  0
    9.6690  -13.8436   28.3814 C   0  0  0  0  0  0  0  0  0  0  0  0
    8.6024  -13.7852   27.4783 C   0  0  0  0  0  0  0  0  0  0  0  0
    8.1018  -14.9409   26.9570 C   0  0  0  0  0  0  0  0  0  0  0  0
    6.9724  -14.8807   26.0007 C   0  0  0  0  0  0  0  0  0  0  0  0
    6.6928  -16.2948   25.4594 C   0  0  2  0  0  0  0  0  0  0  0  0
    6.9539  -17.2192   26.5630 N   0  0  0  0  0  0  0  0  0  0  0  0
    7.5929  -16.6010   24.3427 C   0  0  0  0  0  0  0  0  0  0  0  0
    8.0489  -17.7969   24.2587 O   0  0  0  0  0  0  0  0  0  0  0  0
    8.6530  -16.1602   27.3257 C   0  0  0  0  0  0  0  0  0  0  0  0
    9.7073  -16.2098   28.2191 C   0  0  0  0  0  0  0  0  0  0  0  0
    8.0092  -15.6990   23.3417 N   0  0  0  0  0  0  0  0  0  0  0  0
    7.9394  -14.2528   23.3702 C   0  0  0  0  0  0  0  0  0  0  0  0
    7.6697  -13.8915   21.9287 C   0  0  0  0  0  0  0  0  0  0  0  0
    7.7666  -15.1738   21.1316 C   0  0  0  0  0  0  0  0  0  0  0  0
    8.5864  -16.0461   22.0661 C   0  0  1  0  0  0  0  0  0  0  0  0
   10.0178  -15.6091   21.9628 C   0  0  0  0  0  0  0  0  0  0  0  0
   10.5516  -14.7711   22.7220 O   0  0  0  0  0  0  0  0  0  0  0  0
   10.7897  -16.2083   20.9206 N   0  0  0  0  0  0  0  0  0  0  0  0
   11.6943  -17.2897   21.2457 C   0  0  0  0  0  0  0  0  0  0  0  0
   12.9014  -16.7795   21.9319 C   0  0  0  0  0  0  0  0  0  0  0  0
   13.1254  -17.1401   23.2464 O   0  0  0  0  0  0  0  0  0  0  0  0
   13.7088  -16.0337   21.3354 O   0  0  0  0  0  0  0  0  0  0  0  0
  2  1  1  0
  3  2  2  0
  4  3  1  0
  5 11  1  0
  5  4  2  0
  6  5  1  0
  7  6  1  0
  7  9  1  0
  7  8  1  1
  9 13  1  0
 10  9  2  0
 11 12  2  0
 12  2  1  0
 13 17  1  0
 13 14  1  0
 14 15  1  0
 16 15  1  0
 17 16  1  0
 18 19  2  0
 17 18  1  1
 20 18  1  0
 21 20  1  0
 22 21  1  0
 22 23  1  0
 24 22  2  0
M  END
$$$$
