YPG.pdb
     RDKit          3D

 24 25  0  0  1  0  0  0  0  0999 V2000
    5.8288  -10.3703   27.5840 O   0  0  0  0  0  0  0  0  0  0  0  0
    6.3620  -11.5149   27.0360 C   0  0  0  0  0  0  0  0  0  0  0  0
    7.4008  -11.4358   26.1375 C   0  0  0  0  0  0  0  0  0  0  0  0
    7.9498  -12.5928   25.5748 C   0  0  0  0  0  0  0  0  0  0  0  0
    7.4469  -13.8109   25.9233 C   0  0  0  0  0  0  0  0  0  0  0  0
    8.0271  -15.0369   25.3283 C   0  0  0  0  0  0  0  0  0  0  0  0
    6.9719  -15.7121   24.4331 C   0  0  2  0  0  0  0  0  0  0  0  0
    6.4196  -16.8222   25.2098 N   0  0  0  0  0  0  0  0  0  0  0  0
    7.5963  -16.2334   23.2127 C   0  0  0  0  0  0  0  0  0  0  0  0
    7.7517  -17.5033   23.1212 O   0  0  0  0  0  0  0  0  0  0  0  0
    6.3989  -13.8915   26.8297 C   0  0  0  0  0  0  0  0  0  0  0  0
    5.8615  -12.7430   27.3817 C   0  0  0  0  0  0  0  0  0  0  0  0
    8.0462  -15.4659   22.1183 N   0  0  0  0  0  0  0  0  0  0  0  0
    8.0947  -14.0225   22.0112 C   0  0  0  0  0  0  0  0  0  0  0  0
    7.8011  -13.7745   20.5506 C   0  0  0  0  0  0  0  0  0  0  0  0
    7.7639  -15.1285   19.8766 C   0  0  0  0  0  0  0  0  0  0  0  0
    8.5451  -15.9766   20.8649 C   0  0  1  0  0  0  0  0  0  0  0  0
   10.0022  -15.6727   20.6778 C   0  0  0  0  0  0  0  0  0  0  0  0
   10.5020  -14.5330   20.7990 O   0  0  0  0  0  0  0  0  0  0  0  0
   10.8420  -16.7784   20.3408 N   0  0  0  0  0  0  0  0  0  0  0  0
   11.4696  -17.5361   21.4017 C   0  0  0  0  0  0  0  0  0  0  0  0
   12.3891  -18.5550   20.8494 C   0  0  0  0  0  0  0  0  0  0  0  0
   12.4652  -18.7137   19.4793 O   0  0  0  0  0  0  0  0  0  0  0  0
   13.0879  -19.2633   21.6069 O   0  0  0  0  0  0  0  0  0  0  0  0
  2  1  1  0
  3  2  2  0
  4  3  1  0
  5 11  1  0
  5  4  2  0
  6  5  1  0
  7  6  1  0
  7  9  1  0
  7  8  1  1
  9 13  1  0
 10  9  2  0
 11 12  2  0
 12  2  1  0
 13 17  1  0
 13 14  1  0
 14 15  1  0
 16 15  1  0
 17 16  1  0
 18 19  2  0
 17 18  1  1
 20 18  1  0
 21 20  1  0
 22 21  1  0
 22 23  1  0
 24 22  2  0
M  END
$$$$
