YPG.pdb
     RDKit          3D

 24 25  0  0  1  0  0  0  0  0999 V2000
    5.9856  -10.5601   27.1285 O   0  0  0  0  0  0  0  0  0  0  0  0
    6.3487  -11.8153   26.6956 C   0  0  0  0  0  0  0  0  0  0  0  0
    5.6465  -12.9230   27.1107 C   0  0  0  0  0  0  0  0  0  0  0  0
    6.0073  -14.2029   26.6766 C   0  0  0  0  0  0  0  0  0  0  0  0
    7.0675  -14.3500   25.8326 C   0  0  0  0  0  0  0  0  0  0  0  0
    7.4508  -15.7046   25.3721 C   0  0  0  0  0  0  0  0  0  0  0  0
    6.4959  -16.1448   24.2473 C   0  0  2  0  0  0  0  0  0  0  0  0
    5.8712  -17.3887   24.6982 N   0  0  0  0  0  0  0  0  0  0  0  0
    7.2445  -16.3947   23.0111 C   0  0  0  0  0  0  0  0  0  0  0  0
    7.4446  -17.6163   22.6751 O   0  0  0  0  0  0  0  0  0  0  0  0
    7.7764  -13.2328   25.4133 C   0  0  0  0  0  0  0  0  0  0  0  0
    7.4136  -11.9708   25.8469 C   0  0  0  0  0  0  0  0  0  0  0  0
    7.7701  -15.4120   22.1468 N   0  0  0  0  0  0  0  0  0  0  0  0
    7.8264  -13.9815   22.3649 C   0  0  0  0  0  0  0  0  0  0  0  0
    7.6359  -13.4129   20.9787 C   0  0  0  0  0  0  0  0  0  0  0  0
    7.6455  -14.5842   20.0211 C   0  0  0  0  0  0  0  0  0  0  0  0
    8.3554  -15.6416   20.8485 C   0  0  1  0  0  0  0  0  0  0  0  0
    9.8220  -15.3271   20.8329 C   0  0  0  0  0  0  0  0  0  0  0  0
   10.3370  -14.3550   21.4273 O   0  0  0  0  0  0  0  0  0  0  0  0
   10.6527  -16.2148   20.0824 N   0  0  0  0  0  0  0  0  0  0  0  0
   11.7625  -16.8685   20.7416 C   0  0  0  0  0  0  0  0  0  0  0  0
   12.4975  -17.7394   19.7984 C   0  0  0  0  0  0  0  0  0  0  0  0
   13.7842  -17.3934   19.4337 O   0  0  0  0  0  0  0  0  0  0  0  0
   11.9666  -18.7730   19.3363 O   0  0  0  0  0  0  0  0  0  0  0  0
  2  1  1  0
  3  2  2  0
  4  3  1  0
  5 11  1  0
  5  4  2  0
  6  5  1  0
  7  6  1  0
  7  9  1  0
  7  8  1  1
  9 13  1  0
 10  9  2  0
 11 12  2  0
 12  2  1  0
 13 17  1  0
 13 14  1  0
 14 15  1  0
 16 15  1  0
 17 16  1  0
 18 19  2  0
 17 18  1  1
 20 18  1  0
 21 20  1  0
 22 21  1  0
 22 23  1  0
 24 22  2  0
M  END
$$$$
