YPG.pdb
     RDKit          3D

 24 25  0  0  1  0  0  0  0  0999 V2000
   11.1821  -14.8968   29.5400 O   0  0  0  0  0  0  0  0  0  0  0  0
   10.1207  -14.9266   28.6640 C   0  0  0  0  0  0  0  0  0  0  0  0
    9.6030  -16.1291   28.2412 C   0  0  0  0  0  0  0  0  0  0  0  0
    8.5246  -16.1704   27.3513 C   0  0  0  0  0  0  0  0  0  0  0  0
    7.9832  -15.0036   26.9000 C   0  0  0  0  0  0  0  0  0  0  0  0
    6.8413  -15.0458   25.9577 C   0  0  0  0  0  0  0  0  0  0  0  0
    6.6738  -16.4830   25.4309 C   0  0  2  0  0  0  0  0  0  0  0  0
    7.0614  -17.3727   26.5259 N   0  0  0  0  0  0  0  0  0  0  0  0
    7.5553  -16.7111   24.2812 C   0  0  0  0  0  0  0  0  0  0  0  0
    8.0921  -17.8703   24.1656 O   0  0  0  0  0  0  0  0  0  0  0  0
    8.5050  -13.7902   27.3261 C   0  0  0  0  0  0  0  0  0  0  0  0
    9.5713  -13.7575   28.2061 C   0  0  0  0  0  0  0  0  0  0  0  0
    7.8725  -15.7701   23.2797 N   0  0  0  0  0  0  0  0  0  0  0  0
    7.6360  -14.3415   23.3021 C   0  0  0  0  0  0  0  0  0  0  0  0
    7.3376  -14.0181   21.8573 C   0  0  0  0  0  0  0  0  0  0  0  0
    7.5879  -15.2831   21.0659 C   0  0  0  0  0  0  0  0  0  0  0  0
    8.4957  -16.0521   22.0098 C   0  0  1  0  0  0  0  0  0  0  0  0
    9.8678  -15.4531   21.9153 C   0  0  0  0  0  0  0  0  0  0  0  0
   10.1731  -14.3258   22.3619 O   0  0  0  0  0  0  0  0  0  0  0  0
   10.8632  -16.2480   21.2684 N   0  0  0  0  0  0  0  0  0  0  0  0
   12.0338  -16.6566   22.0143 C   0  0  0  0  0  0  0  0  0  0  0  0
   12.9667  -17.4191   21.1560 C   0  0  0  0  0  0  0  0  0  0  0  0
   13.9975  -16.7473   20.5281 O   0  0  0  0  0  0  0  0  0  0  0  0
   12.8281  -18.6519   20.9986 O   0  0  0  0  0  0  0  0  0  0  0  0
  2  1  1  0
  3  2  2  0
  4  3  1  0
  5 11  1  0
  5  4  2  0
  6  5  1  0
  7  6  1  0
  7  9  1  0
  7  8  1  1
  9 13  1  0
 10  9  2  0
 11 12  2  0
 12  2  1  0
 13 17  1  0
 13 14  1  0
 14 15  1  0
 16 15  1  0
 17 16  1  0
 18 19  2  0
 17 18  1  1
 20 18  1  0
 21 20  1  0
 22 21  1  0
 22 23  1  0
 24 22  2  0
M  END
$$$$
