YPG.pdb
     RDKit          3D

 24 25  0  0  1  0  0  0  0  0999 V2000
    7.0090  -12.5607   29.1135 O   0  0  0  0  0  0  0  0  0  0  0  0
    7.1224  -12.7839   27.7599 C   0  0  0  0  0  0  0  0  0  0  0  0
    6.0397  -12.5960   26.9321 C   0  0  0  0  0  0  0  0  0  0  0  0
    6.1443  -12.8199   25.5554 C   0  0  0  0  0  0  0  0  0  0  0  0
    7.3345  -13.2291   25.0317 C   0  0  0  0  0  0  0  0  0  0  0  0
    7.4468  -13.4667   23.5740 C   0  0  0  0  0  0  0  0  0  0  0  0
    6.8890  -14.8638   23.2454 C   0  0  2  0  0  0  0  0  0  0  0  0
    7.1555  -15.7013   24.4152 N   0  0  0  0  0  0  0  0  0  0  0  0
    7.5747  -15.4251   22.0768 C   0  0  0  0  0  0  0  0  0  0  0  0
    7.7451  -16.6959   22.0422 O   0  0  0  0  0  0  0  0  0  0  0  0
    8.4272  -13.4189   25.8662 C   0  0  0  0  0  0  0  0  0  0  0  0
    8.3158  -13.1954   27.2263 C   0  0  0  0  0  0  0  0  0  0  0  0
    8.0690  -14.6956   20.9756 N   0  0  0  0  0  0  0  0  0  0  0  0
    8.1947  -13.2582   20.8520 C   0  0  0  0  0  0  0  0  0  0  0  0
    7.9203  -13.0122   19.3873 C   0  0  0  0  0  0  0  0  0  0  0  0
    7.8137  -14.3702   18.7289 C   0  0  0  0  0  0  0  0  0  0  0  0
    8.5448  -15.2469   19.7305 C   0  0  1  0  0  0  0  0  0  0  0  0
   10.0167  -15.0232   19.5463 C   0  0  0  0  0  0  0  0  0  0  0  0
   10.6408  -14.0446   20.0113 O   0  0  0  0  0  0  0  0  0  0  0  0
   10.7176  -16.0100   18.7872 N   0  0  0  0  0  0  0  0  0  0  0  0
   11.6835  -16.8571   19.4529 C   0  0  0  0  0  0  0  0  0  0  0  0
   12.4131  -17.6943   18.4757 C   0  0  0  0  0  0  0  0  0  0  0  0
   13.3949  -17.1116   17.6980 O   0  0  0  0  0  0  0  0  0  0  0  0
   12.1486  -18.9103   18.3522 O   0  0  0  0  0  0  0  0  0  0  0  0
  2  1  1  0
  3  2  2  0
  4  3  1  0
  5 11  1  0
  5  4  2  0
  6  5  1  0
  7  6  1  0
  7  9  1  0
  7  8  1  1
  9 13  1  0
 10  9  2  0
 11 12  2  0
 12  2  1  0
 13 17  1  0
 13 14  1  0
 14 15  1  0
 16 15  1  0
 17 16  1  0
 18 19  2  0
 17 18  1  1
 20 18  1  0
 21 20  1  0
 22 21  1  0
 22 23  1  0
 24 22  2  0
M  END
$$$$
