YPG.pdb
     RDKit          3D

 24 25  0  0  1  0  0  0  0  0999 V2000
   11.1595  -14.9321   29.5604 O   0  0  0  0  0  0  0  0  0  0  0  0
   10.0743  -14.9709   28.7144 C   0  0  0  0  0  0  0  0  0  0  0  0
    9.6412  -13.8254   28.0877 C   0  0  0  0  0  0  0  0  0  0  0  0
    8.5396  -13.8540   27.2262 C   0  0  0  0  0  0  0  0  0  0  0  0
    7.8904  -15.0324   27.0076 C   0  0  0  0  0  0  0  0  0  0  0  0
    6.7237  -15.0643   26.0957 C   0  0  0  0  0  0  0  0  0  0  0  0
    6.5887  -16.4766   25.4972 C   0  0  2  0  0  0  0  0  0  0  0  0
    6.8220  -17.4152   26.5951 N   0  0  0  0  0  0  0  0  0  0  0  0
    7.5968  -16.6867   24.4529 C   0  0  0  0  0  0  0  0  0  0  0  0
    8.2396  -17.7966   24.4631 O   0  0  0  0  0  0  0  0  0  0  0  0
    8.3267  -16.1886   27.6396 C   0  0  0  0  0  0  0  0  0  0  0  0
    9.4166  -16.1522   28.4900 C   0  0  0  0  0  0  0  0  0  0  0  0
    7.9306  -15.7778   23.4275 N   0  0  0  0  0  0  0  0  0  0  0  0
    7.6335  -14.3616   23.3701 C   0  0  0  0  0  0  0  0  0  0  0  0
    7.4045  -14.1161   21.8976 C   0  0  0  0  0  0  0  0  0  0  0  0
    7.7524  -15.4024   21.1811 C   0  0  0  0  0  0  0  0  0  0  0  0
    8.6365  -16.0877   22.2083 C   0  0  1  0  0  0  0  0  0  0  0  0
    9.9854  -15.4329   22.1614 C   0  0  0  0  0  0  0  0  0  0  0  0
   10.2220  -14.2831   22.5922 O   0  0  0  0  0  0  0  0  0  0  0  0
   11.0424  -16.1998   21.5820 N   0  0  0  0  0  0  0  0  0  0  0  0
   12.2365  -16.4542   22.3585 C   0  0  0  0  0  0  0  0  0  0  0  0
   13.2740  -17.1085   21.5316 C   0  0  0  0  0  0  0  0  0  0  0  0
   12.9329  -17.5735   20.2763 O   0  0  0  0  0  0  0  0  0  0  0  0
   14.4422  -17.2407   21.9579 O   0  0  0  0  0  0  0  0  0  0  0  0
  2  1  1  0
  3  2  2  0
  4  3  1  0
  5 11  1  0
  5  4  2  0
  6  5  1  0
  7  6  1  0
  7  9  1  0
  7  8  1  1
  9 13  1  0
 10  9  2  0
 11 12  2  0
 12  2  1  0
 13 17  1  0
 13 14  1  0
 14 15  1  0
 16 15  1  0
 17 16  1  0
 18 19  2  0
 17 18  1  1
 20 18  1  0
 21 20  1  0
 22 21  1  0
 22 23  1  0
 24 22  2  0
M  END
$$$$
