DEC.pdb
     RDKit          3D

 24 23  0  0  1  0  0  0  0  0999 V2000
    9.7834  -16.1452   19.5404 N   0  0  0  0  0  0  0  0  0  0  0  0
    8.3936  -15.9068   19.7705 C   0  0  1  0  0  0  0  0  0  0  0  0
    7.5044  -16.6838   18.8438 C   0  0  0  0  0  0  0  0  0  0  0  0
    8.3088  -17.1703   17.7062 C   0  0  0  0  0  0  0  0  0  0  0  0
    9.1096  -18.1072   17.8675 O   0  0  0  0  0  0  0  0  0  0  0  0
    8.0147  -16.1448   21.1985 C   0  0  0  0  0  0  0  0  0  0  0  0
    6.8214  -15.9645   21.5111 O   0  0  0  0  0  0  0  0  0  0  0  0
    8.1128  -16.5238   16.4741 O   0  0  0  0  0  0  0  0  0  0  0  0
    8.9227  -16.5513   22.1726 N   0  0  0  0  0  0  0  0  0  0  0  0
    8.4622  -16.6925   23.5689 C   0  0  1  0  0  0  0  0  0  0  0  0
    9.3056  -17.7243   24.2462 C   0  0  0  0  0  0  0  0  0  0  0  0
   10.6852  -17.2525   24.5238 C   0  0  0  0  0  0  0  0  0  0  0  0
   11.5546  -18.2094   25.2417 C   0  0  0  0  0  0  0  0  0  0  0  0
   12.7032  -17.8467   25.5709 O   0  0  0  0  0  0  0  0  0  0  0  0
    8.5258  -15.3399   24.1583 C   0  0  0  0  0  0  0  0  0  0  0  0
    9.1002  -14.4192   23.4804 O   0  0  0  0  0  0  0  0  0  0  0  0
   11.1756  -19.4867   25.5737 O   0  0  0  0  0  0  0  0  0  0  0  0
    7.9988  -14.9668   25.4163 N   0  0  0  0  0  0  0  0  0  0  0  0
    7.8427  -13.6128   25.8671 C   0  0  1  0  0  0  0  0  0  0  0  0
    6.5841  -12.9449   25.4287 C   0  0  0  0  0  0  0  0  0  0  0  0
    6.3230  -11.4020   26.3747 S   0  0  0  0  0  0  0  0  0  0  0  0
    8.1171  -13.4553   27.3262 C   0  0  0  0  0  0  0  0  0  0  0  0
    8.0802  -14.4311   28.0935 O   0  0  0  0  0  0  0  0  0  0  0  0
    8.4174  -12.2108   27.8407 O   0  0  0  0  0  0  0  0  0  0  0  0
  2  1  1  1
  2  3  1  0
  3  4  1  0
  4  5  2  0
  4  8  1  0
  6  2  1  0
  6  9  1  0
  7  6  2  0
 10  9  1  0
 10 15  1  0
 10 11  1  1
 12 11  1  0
 13 12  1  0
 14 13  2  0
 15 18  1  0
 16 15  2  0
 17 13  1  0
 18 19  1  0
 19 20  1  1
 19 22  1  0
 20 21  1  0
 22 24  1  0
 23 22  2  0
M  END
$$$$
