DEC.pdb
     RDKit          3D

 24 23  0  0  1  0  0  0  0  0999 V2000
   13.9704  -20.7925   17.8467 N   0  0  0  0  0  0  0  0  0  0  0  0
   13.3911  -19.5198   18.1401 C   0  0  1  0  0  0  0  0  0  0  0  0
   12.5403  -18.9913   17.0220 C   0  0  0  0  0  0  0  0  0  0  0  0
   13.4120  -18.6346   15.8860 C   0  0  0  0  0  0  0  0  0  0  0  0
   12.9252  -18.4888   14.7515 O   0  0  0  0  0  0  0  0  0  0  0  0
   12.6301  -19.5358   19.4285 C   0  0  0  0  0  0  0  0  0  0  0  0
   11.4133  -19.2694   19.3772 O   0  0  0  0  0  0  0  0  0  0  0  0
   14.7798  -18.4773   16.1667 O   0  0  0  0  0  0  0  0  0  0  0  0
   13.2142  -19.8303   20.6576 N   0  0  0  0  0  0  0  0  0  0  0  0
   12.3633  -19.8767   21.8640 C   0  0  1  0  0  0  0  0  0  0  0  0
   12.9492  -20.8635   22.8220 C   0  0  0  0  0  0  0  0  0  0  0  0
   13.0291  -22.2358   22.2622 C   0  0  0  0  0  0  0  0  0  0  0  0
   13.7336  -23.2278   23.1027 C   0  0  0  0  0  0  0  0  0  0  0  0
   14.7468  -23.7937   22.6419 O   0  0  0  0  0  0  0  0  0  0  0  0
   12.2824  -18.4880   22.3598 C   0  0  0  0  0  0  0  0  0  0  0  0
   13.3156  -17.7450   22.2273 O   0  0  0  0  0  0  0  0  0  0  0  0
   13.3407  -23.5710   24.3729 O   0  0  0  0  0  0  0  0  0  0  0  0
   11.1512  -17.8987   22.9704 N   0  0  0  0  0  0  0  0  0  0  0  0
   11.1513  -16.6247   23.6322 C   0  0  1  0  0  0  0  0  0  0  0  0
    9.9034  -15.8271   23.4617 C   0  0  0  0  0  0  0  0  0  0  0  0
    9.4102  -15.7912   21.7013 S   0  0  0  0  0  0  0  0  0  0  0  0
   11.6069  -16.7118   25.0513 C   0  0  0  0  0  0  0  0  0  0  0  0
   11.7424  -17.8106   25.6138 O   0  0  0  0  0  0  0  0  0  0  0  0
   11.8845  -15.5598   25.7581 O   0  0  0  0  0  0  0  0  0  0  0  0
  2  1  1  6
  2  3  1  0
  3  4  1  0
  4  5  2  0
  4  8  1  0
  6  2  1  0
  6  9  1  0
  7  6  2  0
 10  9  1  0
 10 15  1  0
 10 11  1  1
 12 11  1  0
 13 12  1  0
 14 13  2  0
 15 18  1  0
 16 15  2  0
 17 13  1  0
 18 19  1  0
 19 20  1  1
 19 22  1  0
 20 21  1  0
 22 24  1  0
 23 22  2  0
M  END
$$$$
