DEC.pdb
     RDKit          3D

 24 23  0  0  1  0  0  0  0  0999 V2000
    8.5292  -15.4152   19.3808 N   0  0  0  0  0  0  0  0  0  0  0  0
    7.4521  -16.0340   20.0868 C   0  0  1  0  0  0  0  0  0  0  0  0
    7.0374  -17.3470   19.4892 C   0  0  0  0  0  0  0  0  0  0  0  0
    6.9489  -17.1982   18.0237 C   0  0  0  0  0  0  0  0  0  0  0  0
    7.4401  -16.1994   17.4701 O   0  0  0  0  0  0  0  0  0  0  0  0
    7.7521  -16.1822   21.5454 C   0  0  0  0  0  0  0  0  0  0  0  0
    6.8155  -16.5349   22.2887 O   0  0  0  0  0  0  0  0  0  0  0  0
    6.2947  -18.2265   17.3244 O   0  0  0  0  0  0  0  0  0  0  0  0
    9.0096  -15.9469   22.0948 N   0  0  0  0  0  0  0  0  0  0  0  0
    9.2084  -16.1475   23.5446 C   0  0  1  0  0  0  0  0  0  0  0  0
   10.6059  -16.6274   23.7715 C   0  0  0  0  0  0  0  0  0  0  0  0
   11.0818  -17.5464   22.7076 C   0  0  0  0  0  0  0  0  0  0  0  0
   12.4638  -18.0475   22.8683 C   0  0  0  0  0  0  0  0  0  0  0  0
   12.9046  -18.8700   22.0386 O   0  0  0  0  0  0  0  0  0  0  0  0
    8.8721  -14.8597   24.1845 C   0  0  0  0  0  0  0  0  0  0  0  0
    8.8778  -13.8097   23.4534 O   0  0  0  0  0  0  0  0  0  0  0  0
   13.3040  -17.6619   23.8836 O   0  0  0  0  0  0  0  0  0  0  0  0
    8.5364  -14.6826   25.5467 N   0  0  0  0  0  0  0  0  0  0  0  0
    7.8325  -13.5477   26.0734 C   0  0  1  0  0  0  0  0  0  0  0  0
    6.5217  -13.2630   25.4229 C   0  0  0  0  0  0  0  0  0  0  0  0
    5.7293  -11.8114   26.2031 S   0  0  0  0  0  0  0  0  0  0  0  0
    7.7624  -13.5534   27.5647 C   0  0  0  0  0  0  0  0  0  0  0  0
    7.8609  -14.6123   28.2061 O   0  0  0  0  0  0  0  0  0  0  0  0
    7.5858  -12.3696   28.2510 O   0  0  0  0  0  0  0  0  0  0  0  0
  2  1  1  6
  2  3  1  0
  3  4  1  0
  4  5  2  0
  4  8  1  0
  6  2  1  0
  6  9  1  0
  7  6  2  0
 10  9  1  0
 10 15  1  0
 10 11  1  6
 12 11  1  0
 13 12  1  0
 14 13  2  0
 15 18  1  0
 16 15  2  0
 17 13  1  0
 18 19  1  0
 19 20  1  6
 19 22  1  0
 20 21  1  0
 22 24  1  0
 23 22  2  0
M  END
$$$$
