DEC.pdb
     RDKit          3D

 24 23  0  0  1  0  0  0  0  0999 V2000
    8.6267  -13.6778   18.6204 N   0  0  0  0  0  0  0  0  0  0  0  0
    9.3854  -14.4819   19.5255 C   0  0  1  0  0  0  0  0  0  0  0  0
   10.8382  -14.1065   19.5663 C   0  0  0  0  0  0  0  0  0  0  0  0
   11.4544  -14.4403   18.2677 C   0  0  0  0  0  0  0  0  0  0  0  0
   10.7796  -14.9975   17.3849 O   0  0  0  0  0  0  0  0  0  0  0  0
    8.7955  -14.4834   20.9008 C   0  0  0  0  0  0  0  0  0  0  0  0
    8.4468  -13.3842   21.3746 O   0  0  0  0  0  0  0  0  0  0  0  0
   12.8073  -14.0966   18.1054 O   0  0  0  0  0  0  0  0  0  0  0  0
    8.6238  -15.6395   21.6575 N   0  0  0  0  0  0  0  0  0  0  0  0
    7.9462  -15.5464   22.9667 C   0  0  1  0  0  0  0  0  0  0  0  0
    6.8641  -16.5766   23.0169 C   0  0  0  0  0  0  0  0  0  0  0  0
    7.3851  -17.9541   23.2014 C   0  0  0  0  0  0  0  0  0  0  0  0
    6.3616  -19.0192   23.2726 C   0  0  0  0  0  0  0  0  0  0  0  0
    6.0037  -19.4340   24.3947 O   0  0  0  0  0  0  0  0  0  0  0  0
    9.0050  -15.6938   23.9856 C   0  0  0  0  0  0  0  0  0  0  0  0
   10.1725  -15.2535   23.7021 O   0  0  0  0  0  0  0  0  0  0  0  0
    5.7722  -19.5886   22.1708 O   0  0  0  0  0  0  0  0  0  0  0  0
    8.8406  -16.2801   25.2618 N   0  0  0  0  0  0  0  0  0  0  0  0
    9.3038  -15.7024   26.4917 C   0  0  1  0  0  0  0  0  0  0  0  0
    8.7852  -14.3345   26.7789 C   0  0  0  0  0  0  0  0  0  0  0  0
    9.6136  -13.6397   28.2535 S   0  0  0  0  0  0  0  0  0  0  0  0
    9.1799  -16.6358   27.6502 C   0  0  0  0  0  0  0  0  0  0  0  0
    8.3395  -17.5502   27.6486 O   0  0  0  0  0  0  0  0  0  0  0  0
   10.0070  -16.4895   28.7449 O   0  0  0  0  0  0  0  0  0  0  0  0
  2  1  1  6
  2  3  1  0
  3  4  1  0
  4  5  2  0
  4  8  1  0
  6  2  1  0
  6  9  1  0
  7  6  2  0
 10  9  1  0
 10 15  1  0
 10 11  1  6
 12 11  1  0
 13 12  1  0
 14 13  2  0
 15 18  1  0
 16 15  2  0
 17 13  1  0
 18 19  1  0
 19 20  1  1
 19 22  1  0
 20 21  1  0
 22 24  1  0
 23 22  2  0
M  END
$$$$
