DEC.pdb
     RDKit          3D

 24 23  0  0  1  0  0  0  0  0999 V2000
    9.4329  -16.2051   19.0558 N   0  0  0  0  0  0  0  0  0  0  0  0
    8.0474  -16.1924   19.4046 C   0  0  1  0  0  0  0  0  0  0  0  0
    7.2243  -17.1297   18.5696 C   0  0  0  0  0  0  0  0  0  0  0  0
    7.8457  -17.2532   17.2369 C   0  0  0  0  0  0  0  0  0  0  0  0
    8.3846  -16.2653   16.7090 O   0  0  0  0  0  0  0  0  0  0  0  0
    7.8359  -16.4509   20.8633 C   0  0  0  0  0  0  0  0  0  0  0  0
    6.6772  -16.7242   21.2334 O   0  0  0  0  0  0  0  0  0  0  0  0
    7.7873  -18.5190   16.6295 O   0  0  0  0  0  0  0  0  0  0  0  0
    8.8603  -16.3997   21.8049 N   0  0  0  0  0  0  0  0  0  0  0  0
    8.5456  -16.6670   23.2231 C   0  0  1  0  0  0  0  0  0  0  0  0
    9.5618  -17.6204   23.7646 C   0  0  0  0  0  0  0  0  0  0  0  0
    9.7850  -18.7916   22.8806 C   0  0  0  0  0  0  0  0  0  0  0  0
   10.8088  -19.7537   23.3423 C   0  0  0  0  0  0  0  0  0  0  0  0
   11.7914  -19.3240   23.9818 O   0  0  0  0  0  0  0  0  0  0  0  0
    8.5012  -15.3485   23.8868 C   0  0  0  0  0  0  0  0  0  0  0  0
    9.3907  -14.4871   23.5645 O   0  0  0  0  0  0  0  0  0  0  0  0
   10.7479  -21.1057   23.1102 O   0  0  0  0  0  0  0  0  0  0  0  0
    7.5504  -14.9475   24.8536 N   0  0  0  0  0  0  0  0  0  0  0  0
    7.5881  -13.7034   25.5690 C   0  0  1  0  0  0  0  0  0  0  0  0
    6.3119  -12.9328   25.5589 C   0  0  0  0  0  0  0  0  0  0  0  0
    6.4578  -11.4518   26.6214 S   0  0  0  0  0  0  0  0  0  0  0  0
    8.1850  -13.8388   26.9307 C   0  0  0  0  0  0  0  0  0  0  0  0
    8.2013  -14.9337   27.5166 O   0  0  0  0  0  0  0  0  0  0  0  0
    8.7299  -12.7368   27.5572 O   0  0  0  0  0  0  0  0  0  0  0  0
  2  1  1  6
  2  3  1  0
  3  4  1  0
  4  5  2  0
  4  8  1  0
  6  2  1  0
  6  9  1  0
  7  6  2  0
 10  9  1  0
 10 15  1  0
 10 11  1  1
 12 11  1  0
 13 12  1  0
 14 13  2  0
 15 18  1  0
 16 15  2  0
 17 13  1  0
 18 19  1  0
 19 20  1  1
 19 22  1  0
 20 21  1  0
 22 24  1  0
 23 22  2  0
M  END
$$$$
