DEC.pdb
     RDKit          3D

 24 23  0  0  1  0  0  0  0  0999 V2000
    9.6237  -17.9146   19.7870 N   0  0  0  0  0  0  0  0  0  0  0  0
    9.0809  -16.6151   20.0279 C   0  0  1  0  0  0  0  0  0  0  0  0
    8.0347  -16.2220   19.0258 C   0  0  0  0  0  0  0  0  0  0  0  0
    8.5110  -16.5753   17.6746 C   0  0  0  0  0  0  0  0  0  0  0  0
    9.6891  -16.9337   17.5053 O   0  0  0  0  0  0  0  0  0  0  0  0
    8.5613  -16.4766   21.4245 C   0  0  0  0  0  0  0  0  0  0  0  0
    7.3630  -16.1606   21.5600 O   0  0  0  0  0  0  0  0  0  0  0  0
    7.5738  -16.4814   16.6318 O   0  0  0  0  0  0  0  0  0  0  0  0
    9.3463  -16.6823   22.5559 N   0  0  0  0  0  0  0  0  0  0  0  0
    8.7040  -16.6762   23.8859 C   0  0  1  0  0  0  0  0  0  0  0  0
    9.3918  -17.6825   24.7514 C   0  0  0  0  0  0  0  0  0  0  0  0
    8.8594  -19.0568   24.5758 C   0  0  0  0  0  0  0  0  0  0  0  0
    9.4922  -20.0982   25.4137 C   0  0  0  0  0  0  0  0  0  0  0  0
    9.0208  -20.3251   26.5474 O   0  0  0  0  0  0  0  0  0  0  0  0
    8.7714  -15.2810   24.3653 C   0  0  0  0  0  0  0  0  0  0  0  0
    9.8189  -14.6024   24.0835 O   0  0  0  0  0  0  0  0  0  0  0  0
   10.5782  -20.8408   25.0205 O   0  0  0  0  0  0  0  0  0  0  0  0
    7.7689  -14.6199   25.1118 N   0  0  0  0  0  0  0  0  0  0  0  0
    7.8786  -13.2821   25.6211 C   0  0  1  0  0  0  0  0  0  0  0  0
    6.6929  -12.4140   25.3697 C   0  0  0  0  0  0  0  0  0  0  0  0
    5.3019  -12.9143   26.4461 S   0  0  0  0  0  0  0  0  0  0  0  0
    8.3509  -13.2405   27.0367 C   0  0  0  0  0  0  0  0  0  0  0  0
    8.3387  -14.2600   27.7458 O   0  0  0  0  0  0  0  0  0  0  0  0
    8.8103  -12.0564   27.5756 O   0  0  0  0  0  0  0  0  0  0  0  0
  2  1  1  6
  2  3  1  0
  3  4  1  0
  4  5  2  0
  4  8  1  0
  6  2  1  0
  6  9  1  0
  7  6  2  0
 10  9  1  0
 10 15  1  0
 10 11  1  1
 12 11  1  0
 13 12  1  0
 14 13  2  0
 15 18  1  0
 16 15  2  0
 17 13  1  0
 18 19  1  0
 19 20  1  1
 19 22  1  0
 20 21  1  0
 22 24  1  0
 23 22  2  0
M  END
$$$$
