DEC.pdb
     RDKit          3D

 24 23  0  0  1  0  0  0  0  0999 V2000
   10.6393  -20.9178   17.2412 N   0  0  0  0  0  0  0  0  0  0  0  0
   11.4397  -19.9062   17.8556 C   0  0  1  0  0  0  0  0  0  0  0  0
   11.1415  -18.5287   17.3391 C   0  0  0  0  0  0  0  0  0  0  0  0
   11.4934  -18.4690   15.9072 C   0  0  0  0  0  0  0  0  0  0  0  0
   12.3316  -19.2591   15.4402 O   0  0  0  0  0  0  0  0  0  0  0  0
   11.3450  -19.9488   19.3485 C   0  0  0  0  0  0  0  0  0  0  0  0
   10.3275  -20.4735   19.8421 O   0  0  0  0  0  0  0  0  0  0  0  0
   10.8384  -17.4925   15.1378 O   0  0  0  0  0  0  0  0  0  0  0  0
   12.3275  -19.4363   20.1915 N   0  0  0  0  0  0  0  0  0  0  0  0
   12.1701  -19.5876   21.6524 C   0  0  1  0  0  0  0  0  0  0  0  0
   13.4586  -20.0894   22.2205 C   0  0  0  0  0  0  0  0  0  0  0  0
   14.2123  -19.0439   22.9564 C   0  0  0  0  0  0  0  0  0  0  0  0
   15.5296  -19.4595   23.4846 C   0  0  0  0  0  0  0  0  0  0  0  0
   16.2183  -18.6234   24.1058 O   0  0  0  0  0  0  0  0  0  0  0  0
   11.7303  -18.2701   22.1540 C   0  0  0  0  0  0  0  0  0  0  0  0
   12.3843  -17.2378   21.7751 O   0  0  0  0  0  0  0  0  0  0  0  0
   16.0508  -20.7209   23.3341 O   0  0  0  0  0  0  0  0  0  0  0  0
   10.6364  -18.0452   23.0214 N   0  0  0  0  0  0  0  0  0  0  0  0
   10.1869  -16.7508   23.4500 C   0  0  1  0  0  0  0  0  0  0  0  0
    8.7068  -16.5972   23.5412 C   0  0  0  0  0  0  0  0  0  0  0  0
    7.9038  -17.3072   22.0597 S   0  0  0  0  0  0  0  0  0  0  0  0
   10.9068  -16.2627   24.6634 C   0  0  0  0  0  0  0  0  0  0  0  0
   11.6399  -17.0197   25.3206 O   0  0  0  0  0  0  0  0  0  0  0  0
   10.7627  -14.9521   25.0699 O   0  0  0  0  0  0  0  0  0  0  0  0
  2  1  1  6
  2  3  1  0
  3  4  1  0
  4  5  2  0
  4  8  1  0
  6  2  1  0
  6  9  1  0
  7  6  2  0
 10  9  1  0
 10 15  1  0
 10 11  1  1
 12 11  1  0
 13 12  1  0
 14 13  2  0
 15 18  1  0
 16 15  2  0
 17 13  1  0
 18 19  1  0
 19 20  1  1
 19 22  1  0
 20 21  1  0
 22 24  1  0
 23 22  2  0
M  END
$$$$
