DEC.pdb
     RDKit          3D

 24 23  0  0  1  0  0  0  0  0999 V2000
    8.2778  -16.2542   17.6690 N   0  0  0  0  0  0  0  0  0  0  0  0
    7.5825  -16.9203   18.7245 C   0  0  1  0  0  0  0  0  0  0  0  0
    6.7913  -18.1042   18.2496 C   0  0  0  0  0  0  0  0  0  0  0  0
    7.5965  -18.8531   17.2656 C   0  0  0  0  0  0  0  0  0  0  0  0
    8.8210  -18.6546   17.1850 O   0  0  0  0  0  0  0  0  0  0  0  0
    8.5000  -17.3050   19.8425 C   0  0  0  0  0  0  0  0  0  0  0  0
    7.9855  -17.8300   20.8494 O   0  0  0  0  0  0  0  0  0  0  0  0
    6.9072  -19.7721   16.4563 O   0  0  0  0  0  0  0  0  0  0  0  0
    9.8772  -17.1043   19.8043 N   0  0  0  0  0  0  0  0  0  0  0  0
   10.6965  -17.5276   20.9582 C   0  0  1  0  0  0  0  0  0  0  0  0
   12.1131  -17.6799   20.5058 C   0  0  0  0  0  0  0  0  0  0  0  0
   13.0271  -18.0988   21.5977 C   0  0  0  0  0  0  0  0  0  0  0  0
   14.4553  -18.2050   21.2288 C   0  0  0  0  0  0  0  0  0  0  0  0
   14.7853  -18.0040   20.0415 O   0  0  0  0  0  0  0  0  0  0  0  0
   10.4756  -16.5139   22.0092 C   0  0  0  0  0  0  0  0  0  0  0  0
   10.8349  -15.3106   21.7638 O   0  0  0  0  0  0  0  0  0  0  0  0
   15.4542  -18.5144   22.1188 O   0  0  0  0  0  0  0  0  0  0  0  0
    9.8920  -16.7563   23.2742 N   0  0  0  0  0  0  0  0  0  0  0  0
    9.8773  -15.8174   24.3602 C   0  0  1  0  0  0  0  0  0  0  0  0
    8.8160  -14.7739   24.2753 C   0  0  0  0  0  0  0  0  0  0  0  0
    7.1606  -15.5447   24.3713 S   0  0  0  0  0  0  0  0  0  0  0  0
    9.9484  -16.4797   25.6963 C   0  0  0  0  0  0  0  0  0  0  0  0
   10.1244  -15.8160   26.7312 O   0  0  0  0  0  0  0  0  0  0  0  0
    9.8177  -17.8497   25.7945 O   0  0  0  0  0  0  0  0  0  0  0  0
  2  1  1  6
  2  3  1  0
  3  4  1  0
  4  5  2  0
  4  8  1  0
  6  2  1  0
  6  9  1  0
  7  6  2  0
 10  9  1  0
 10 15  1  0
 10 11  1  6
 12 11  1  0
 13 12  1  0
 14 13  2  0
 15 18  1  0
 16 15  2  0
 17 13  1  0
 18 19  1  0
 19 20  1  1
 19 22  1  0
 20 21  1  0
 22 24  1  0
 23 22  2  0
M  END
$$$$
