DEC.pdb
     RDKit          3D

 24 23  0  0  1  0  0  0  0  0999 V2000
   13.3108  -18.0703   21.9078 N   0  0  0  0  0  0  0  0  0  0  0  0
   12.3558  -17.0470   21.6210 C   0  0  1  0  0  0  0  0  0  0  0  0
   11.7240  -17.1977   20.2677 C   0  0  0  0  0  0  0  0  0  0  0  0
   12.7625  -17.0244   19.2338 C   0  0  0  0  0  0  0  0  0  0  0  0
   13.0561  -15.8848   18.8333 O   0  0  0  0  0  0  0  0  0  0  0  0
   11.3125  -16.9412   22.6886 C   0  0  0  0  0  0  0  0  0  0  0  0
   10.3467  -16.1834   22.4712 O   0  0  0  0  0  0  0  0  0  0  0  0
   13.3731  -18.1946   18.7519 O   0  0  0  0  0  0  0  0  0  0  0  0
   11.3755  -17.6408   23.8908 N   0  0  0  0  0  0  0  0  0  0  0  0
   10.3007  -17.4546   24.8867 C   0  0  1  0  0  0  0  0  0  0  0  0
    9.9308  -18.7918   25.4433 C   0  0  0  0  0  0  0  0  0  0  0  0
   11.0686  -19.4780   26.1047 C   0  0  0  0  0  0  0  0  0  0  0  0
   10.7455  -20.7650   26.7574 C   0  0  0  0  0  0  0  0  0  0  0  0
   11.1851  -21.8202   26.2548 O   0  0  0  0  0  0  0  0  0  0  0  0
   10.8200  -16.4836   25.8708 C   0  0  0  0  0  0  0  0  0  0  0  0
   12.0887  -16.3979   26.0134 O   0  0  0  0  0  0  0  0  0  0  0  0
    9.9838  -20.8761   27.8945 O   0  0  0  0  0  0  0  0  0  0  0  0
   10.0319  -15.6280   26.6747 N   0  0  0  0  0  0  0  0  0  0  0  0
   10.5554  -14.7025   27.6393 C   0  0  1  0  0  0  0  0  0  0  0  0
    9.8572  -13.3864   27.6919 C   0  0  0  0  0  0  0  0  0  0  0  0
    8.1354  -13.5587   27.1008 S   0  0  0  0  0  0  0  0  0  0  0  0
   10.7521  -15.3205   28.9840 C   0  0  0  0  0  0  0  0  0  0  0  0
   11.3040  -14.6926   29.9025 O   0  0  0  0  0  0  0  0  0  0  0  0
   10.3178  -16.6085   29.2210 O   0  0  0  0  0  0  0  0  0  0  0  0
  2  1  1  1
  2  3  1  0
  3  4  1  0
  4  5  2  0
  4  8  1  0
  6  2  1  0
  6  9  1  0
  7  6  2  0
 10  9  1  0
 10 15  1  0
 10 11  1  1
 12 11  1  0
 13 12  1  0
 14 13  2  0
 15 18  1  0
 16 15  2  0
 17 13  1  0
 18 19  1  0
 19 20  1  1
 19 22  1  0
 20 21  1  0
 22 24  1  0
 23 22  2  0
M  END
$$$$
