DEC.pdb
     RDKit          3D

 24 23  0  0  1  0  0  0  0  0999 V2000
   20.4829  -16.0114   15.4183 N   0  0  0  0  0  0  0  0  0  0  0  0
   20.8182  -16.5044   16.7167 C   0  0  1  0  0  0  0  0  0  0  0  0
   21.3615  -15.4402   17.6253 C   0  0  0  0  0  0  0  0  0  0  0  0
   22.5235  -14.8044   16.9749 C   0  0  0  0  0  0  0  0  0  0  0  0
   23.4047  -15.5082   16.4521 O   0  0  0  0  0  0  0  0  0  0  0  0
   19.6694  -17.2181   17.3573 C   0  0  0  0  0  0  0  0  0  0  0  0
   18.5243  -16.9374   16.9522 O   0  0  0  0  0  0  0  0  0  0  0  0
   22.5621  -13.3998   16.9879 O   0  0  0  0  0  0  0  0  0  0  0  0
   19.8247  -18.1639   18.3673 N   0  0  0  0  0  0  0  0  0  0  0  0
   18.6333  -18.8747   18.8743 C   0  0  1  0  0  0  0  0  0  0  0  0
   19.0093  -20.2941   19.1546 C   0  0  0  0  0  0  0  0  0  0  0  0
   17.8738  -21.1037   19.6627 C   0  0  0  0  0  0  0  0  0  0  0  0
   18.1768  -22.5243   19.9404 C   0  0  0  0  0  0  0  0  0  0  0  0
   17.8805  -23.3805   19.0811 O   0  0  0  0  0  0  0  0  0  0  0  0
   18.1649  -18.1037   20.0435 C   0  0  0  0  0  0  0  0  0  0  0  0
   18.4137  -16.8488   20.0703 O   0  0  0  0  0  0  0  0  0  0  0  0
   18.7703  -22.9680   21.0964 O   0  0  0  0  0  0  0  0  0  0  0  0
   17.4546  -18.6334   21.1455 N   0  0  0  0  0  0  0  0  0  0  0  0
   16.9794  -17.8610   22.2584 C   0  0  1  0  0  0  0  0  0  0  0  0
   16.1458  -16.6800   21.8943 C   0  0  0  0  0  0  0  0  0  0  0  0
   15.8107  -15.6605   23.3749 S   0  0  0  0  0  0  0  0  0  0  0  0
   16.3712  -18.7053   23.3290 C   0  0  0  0  0  0  0  0  0  0  0  0
   16.6525  -18.5236   24.5248 O   0  0  0  0  0  0  0  0  0  0  0  0
   15.4815  -19.7059   22.9957 O   0  0  0  0  0  0  0  0  0  0  0  0
  2  1  1  6
  2  3  1  0
  3  4  1  0
  4  5  2  0
  4  8  1  0
  6  2  1  0
  6  9  1  0
  7  6  2  0
 10  9  1  0
 10 15  1  0
 10 11  1  1
 12 11  1  0
 13 12  1  0
 14 13  2  0
 15 18  1  0
 16 15  2  0
 17 13  1  0
 18 19  1  0
 19 20  1  6
 19 22  1  0
 20 21  1  0
 22 24  1  0
 23 22  2  0
M  END
$$$$
