DEC.pdb
     RDKit          3D

 24 23  0  0  1  0  0  0  0  0999 V2000
   11.3273  -16.8003   19.9027 N   0  0  0  0  0  0  0  0  0  0  0  0
   11.7717  -17.3251   21.1550 C   0  0  1  0  0  0  0  0  0  0  0  0
   13.1303  -16.8247   21.5513 C   0  0  0  0  0  0  0  0  0  0  0  0
   14.1107  -17.2470   20.5324 C   0  0  0  0  0  0  0  0  0  0  0  0
   14.6416  -16.4005   19.7929 O   0  0  0  0  0  0  0  0  0  0  0  0
   10.7757  -17.0865   22.2460 C   0  0  0  0  0  0  0  0  0  0  0  0
   10.0998  -16.0408   22.1846 O   0  0  0  0  0  0  0  0  0  0  0  0
   14.3914  -18.6219   20.4600 O   0  0  0  0  0  0  0  0  0  0  0  0
   10.5772  -17.9675   23.3058 N   0  0  0  0  0  0  0  0  0  0  0  0
    9.4913  -17.6974   24.2700 C   0  0  1  0  0  0  0  0  0  0  0  0
    8.8740  -18.9992   24.6686 C   0  0  0  0  0  0  0  0  0  0  0  0
    7.8851  -18.8584   25.7664 C   0  0  0  0  0  0  0  0  0  0  0  0
    7.2254  -20.1104   26.1956 C   0  0  0  0  0  0  0  0  0  0  0  0
    7.1802  -20.3779   27.4145 O   0  0  0  0  0  0  0  0  0  0  0  0
   10.1051  -16.9274   25.3706 C   0  0  0  0  0  0  0  0  0  0  0  0
   11.3201  -17.1869   25.6763 O   0  0  0  0  0  0  0  0  0  0  0  0
    6.6525  -21.0089   25.3297 O   0  0  0  0  0  0  0  0  0  0  0  0
    9.4642  -15.9149   26.1214 N   0  0  0  0  0  0  0  0  0  0  0  0
   10.0611  -15.2131   27.2225 C   0  0  1  0  0  0  0  0  0  0  0  0
    9.3789  -13.9435   27.6034 C   0  0  0  0  0  0  0  0  0  0  0  0
   10.2764  -13.1282   28.9722 S   0  0  0  0  0  0  0  0  0  0  0  0
   10.3458  -16.1026   28.3873 C   0  0  0  0  0  0  0  0  0  0  0  0
    9.5379  -16.9789   28.7361 O   0  0  0  0  0  0  0  0  0  0  0  0
   11.5218  -15.9574   29.0941 O   0  0  0  0  0  0  0  0  0  0  0  0
  2  1  1  6
  2  3  1  0
  3  4  1  0
  4  5  2  0
  4  8  1  0
  6  2  1  0
  6  9  1  0
  7  6  2  0
 10  9  1  0
 10 15  1  0
 10 11  1  1
 12 11  1  0
 13 12  1  0
 14 13  2  0
 15 18  1  0
 16 15  2  0
 17 13  1  0
 18 19  1  0
 19 20  1  1
 19 22  1  0
 20 21  1  0
 22 24  1  0
 23 22  2  0
M  END
$$$$
