DEC.pdb
     RDKit          3D

 24 23  0  0  1  0  0  0  0  0999 V2000
   10.0225  -16.3483   20.0619 N   0  0  0  0  0  0  0  0  0  0  0  0
    8.6694  -16.0319   20.3942 C   0  0  1  0  0  0  0  0  0  0  0  0
    7.6712  -16.7504   19.5337 C   0  0  0  0  0  0  0  0  0  0  0  0
    8.1911  -16.8186   18.1543 C   0  0  0  0  0  0  0  0  0  0  0  0
    9.4159  -16.7660   17.9490 O   0  0  0  0  0  0  0  0  0  0  0  0
    8.3832  -16.2571   21.8457 C   0  0  0  0  0  0  0  0  0  0  0  0
    7.1880  -16.3694   22.1821 O   0  0  0  0  0  0  0  0  0  0  0  0
    7.2394  -16.9425   17.1279 O   0  0  0  0  0  0  0  0  0  0  0  0
    9.3777  -16.3445   22.8162 N   0  0  0  0  0  0  0  0  0  0  0  0
    8.9919  -16.6065   24.2177 C   0  0  1  0  0  0  0  0  0  0  0  0
    9.9231  -17.6295   24.7844 C   0  0  0  0  0  0  0  0  0  0  0  0
    9.6615  -17.9196   26.2163 C   0  0  0  0  0  0  0  0  0  0  0  0
   10.5503  -18.9259   26.8363 C   0  0  0  0  0  0  0  0  0  0  0  0
   11.0682  -18.6689   27.9431 O   0  0  0  0  0  0  0  0  0  0  0  0
    9.0067  -15.2953   24.8969 C   0  0  0  0  0  0  0  0  0  0  0  0
   10.0812  -14.6032   24.8366 O   0  0  0  0  0  0  0  0  0  0  0  0
   10.8466  -20.1395   26.2664 O   0  0  0  0  0  0  0  0  0  0  0  0
    7.9262  -14.7286   25.6117 N   0  0  0  0  0  0  0  0  0  0  0  0
    8.0096  -13.5376   26.4090 C   0  0  1  0  0  0  0  0  0  0  0  0
    6.7356  -12.7735   26.5338 C   0  0  0  0  0  0  0  0  0  0  0  0
    5.8322  -12.7844   24.9440 S   0  0  0  0  0  0  0  0  0  0  0  0
    8.6914  -13.7660   27.7174 C   0  0  0  0  0  0  0  0  0  0  0  0
    9.0039  -14.9102   28.0853 O   0  0  0  0  0  0  0  0  0  0  0  0
    8.9837  -12.6962   28.5383 O   0  0  0  0  0  0  0  0  0  0  0  0
  2  1  1  6
  2  3  1  0
  3  4  1  0
  4  5  2  0
  4  8  1  0
  6  2  1  0
  6  9  1  0
  7  6  2  0
 10  9  1  0
 10 15  1  0
 10 11  1  1
 12 11  1  0
 13 12  1  0
 14 13  2  0
 15 18  1  0
 16 15  2  0
 17 13  1  0
 18 19  1  0
 19 20  1  1
 19 22  1  0
 20 21  1  0
 22 24  1  0
 23 22  2  0
M  END
$$$$
