DEC.pdb
     RDKit          3D

 24 23  0  0  1  0  0  0  0  0999 V2000
    8.7032  -18.3724   19.3962 N   0  0  0  0  0  0  0  0  0  0  0  0
    8.6683  -17.0029   19.8020 C   0  0  1  0  0  0  0  0  0  0  0  0
    7.5831  -16.2182   19.1239 C   0  0  0  0  0  0  0  0  0  0  0  0
    7.9687  -15.9859   17.7186 C   0  0  0  0  0  0  0  0  0  0  0  0
    9.0374  -16.4479   17.2832 O   0  0  0  0  0  0  0  0  0  0  0  0
    8.5787  -16.8630   21.2893 C   0  0  0  0  0  0  0  0  0  0  0  0
    7.6574  -17.4731   21.8665 O   0  0  0  0  0  0  0  0  0  0  0  0
    7.0758  -15.2336   16.9366 O   0  0  0  0  0  0  0  0  0  0  0  0
    9.4648  -16.0943   22.0393 N   0  0  0  0  0  0  0  0  0  0  0  0
    9.4071  -16.1661   23.5135 C   0  0  1  0  0  0  0  0  0  0  0  0
   10.7743  -16.4824   24.0286 C   0  0  0  0  0  0  0  0  0  0  0  0
   11.1325  -17.9148   23.8771 C   0  0  0  0  0  0  0  0  0  0  0  0
   12.4944  -18.2824   24.3208 C   0  0  0  0  0  0  0  0  0  0  0  0
   12.7232  -19.4685   24.6372 O   0  0  0  0  0  0  0  0  0  0  0  0
    8.8465  -14.8760   23.9632 C   0  0  0  0  0  0  0  0  0  0  0  0
    8.3768  -14.0859   23.0732 O   0  0  0  0  0  0  0  0  0  0  0  0
   13.5366  -17.3926   24.4085 O   0  0  0  0  0  0  0  0  0  0  0  0
    8.7779  -14.4334   25.3045 N   0  0  0  0  0  0  0  0  0  0  0  0
    7.8863  -13.4154   25.7839 C   0  0  1  0  0  0  0  0  0  0  0  0
    6.4684  -13.5649   25.3484 C   0  0  0  0  0  0  0  0  0  0  0  0
    5.4217  -12.3002   26.1539 S   0  0  0  0  0  0  0  0  0  0  0  0
    8.0306  -13.1652   27.2486 C   0  0  0  0  0  0  0  0  0  0  0  0
    7.6358  -12.1039   27.7586 O   0  0  0  0  0  0  0  0  0  0  0  0
    8.6101  -14.1210   28.0574 O   0  0  0  0  0  0  0  0  0  0  0  0
  2  1  1  1
  2  3  1  0
  3  4  1  0
  4  5  2  0
  4  8  1  0
  6  2  1  0
  6  9  1  0
  7  6  2  0
 10  9  1  0
 10 15  1  0
 10 11  1  1
 12 11  1  0
 13 12  1  0
 14 13  2  0
 15 18  1  0
 16 15  2  0
 17 13  1  0
 18 19  1  0
 19 20  1  1
 19 22  1  0
 20 21  1  0
 22 24  1  0
 23 22  2  0
M  END
$$$$
