DEC.pdb
     RDKit          3D

 24 23  0  0  1  0  0  0  0  0999 V2000
    7.2359  -18.9262   20.0508 N   0  0  0  0  0  0  0  0  0  0  0  0
    8.0019  -17.8303   20.5545 C   0  0  1  0  0  0  0  0  0  0  0  0
    7.8654  -16.5884   19.7224 C   0  0  0  0  0  0  0  0  0  0  0  0
    8.7786  -16.6846   18.5673 C   0  0  0  0  0  0  0  0  0  0  0  0
    9.9581  -17.0390   18.7359 O   0  0  0  0  0  0  0  0  0  0  0  0
    7.6941  -17.5469   21.9913 C   0  0  0  0  0  0  0  0  0  0  0  0
    6.5059  -17.6530   22.3532 O   0  0  0  0  0  0  0  0  0  0  0  0
    8.2409  -16.3595   17.3104 O   0  0  0  0  0  0  0  0  0  0  0  0
    8.6618  -17.1769   22.9216 N   0  0  0  0  0  0  0  0  0  0  0  0
    8.2690  -17.0014   24.3346 C   0  0  1  0  0  0  0  0  0  0  0  0
    9.2720  -17.6973   25.1974 C   0  0  0  0  0  0  0  0  0  0  0  0
    9.0675  -19.1664   25.2525 C   0  0  0  0  0  0  0  0  0  0  0  0
   10.0352  -19.9147   26.0834 C   0  0  0  0  0  0  0  0  0  0  0  0
   10.3545  -21.0715   25.7383 O   0  0  0  0  0  0  0  0  0  0  0  0
    8.1556  -15.5447   24.5487 C   0  0  0  0  0  0  0  0  0  0  0  0
    9.1210  -14.8053   24.1507 O   0  0  0  0  0  0  0  0  0  0  0  0
   10.6125  -19.4134   27.2240 O   0  0  0  0  0  0  0  0  0  0  0  0
    7.0615  -14.8868   25.1568 N   0  0  0  0  0  0  0  0  0  0  0  0
    7.0753  -13.5231   25.6053 C   0  0  1  0  0  0  0  0  0  0  0  0
    5.7309  -12.9295   25.8556 C   0  0  0  0  0  0  0  0  0  0  0  0
    5.9009  -11.2511   26.5612 S   0  0  0  0  0  0  0  0  0  0  0  0
    8.0394  -13.2926   26.7216 C   0  0  0  0  0  0  0  0  0  0  0  0
    8.2708  -14.1784   27.5607 O   0  0  0  0  0  0  0  0  0  0  0  0
    8.6891  -12.0804   26.8321 O   0  0  0  0  0  0  0  0  0  0  0  0
  2  1  1  6
  2  3  1  0
  3  4  1  0
  4  5  2  0
  4  8  1  0
  6  2  1  0
  6  9  1  0
  7  6  2  0
 10  9  1  0
 10 15  1  0
 10 11  1  1
 12 11  1  0
 13 12  1  0
 14 13  2  0
 15 18  1  0
 16 15  2  0
 17 13  1  0
 18 19  1  0
 19 20  1  1
 19 22  1  0
 20 21  1  0
 22 24  1  0
 23 22  2  0
M  END
$$$$
