DEC.pdb
     RDKit          3D

 24 23  0  0  1  0  0  0  0  0999 V2000
   11.5152  -16.8594   19.2382 N   0  0  0  0  0  0  0  0  0  0  0  0
   11.6146  -15.9375   20.3252 C   0  0  1  0  0  0  0  0  0  0  0  0
   11.8941  -14.5321   19.8781 C   0  0  0  0  0  0  0  0  0  0  0  0
   13.2453  -14.4786   19.2873 C   0  0  0  0  0  0  0  0  0  0  0  0
   13.4011  -14.0493   18.1312 O   0  0  0  0  0  0  0  0  0  0  0  0
   10.4096  -15.9863   21.2113 C   0  0  0  0  0  0  0  0  0  0  0  0
    9.3020  -16.1458   20.6619 O   0  0  0  0  0  0  0  0  0  0  0  0
   14.3037  -14.9303   20.0937 O   0  0  0  0  0  0  0  0  0  0  0  0
   10.4743  -15.8632   22.5967 N   0  0  0  0  0  0  0  0  0  0  0  0
    9.2426  -16.0441   23.3916 C   0  0  1  0  0  0  0  0  0  0  0  0
    9.1959  -17.4552   23.8828 C   0  0  0  0  0  0  0  0  0  0  0  0
   10.4412  -17.8673   24.5775 C   0  0  0  0  0  0  0  0  0  0  0  0
   10.4287  -19.2282   25.1559 C   0  0  0  0  0  0  0  0  0  0  0  0
   10.6101  -20.2042   24.3984 O   0  0  0  0  0  0  0  0  0  0  0  0
    9.2817  -15.0104   24.4456 C   0  0  0  0  0  0  0  0  0  0  0  0
   10.4281  -14.6362   24.8733 O   0  0  0  0  0  0  0  0  0  0  0  0
   10.2280  -19.4912   26.4886 O   0  0  0  0  0  0  0  0  0  0  0  0
    8.1532  -14.3875   25.0271 N   0  0  0  0  0  0  0  0  0  0  0  0
    8.2126  -13.3697   26.0379 C   0  0  1  0  0  0  0  0  0  0  0  0
    7.0250  -12.4705   26.0959 C   0  0  0  0  0  0  0  0  0  0  0  0
    5.4847  -13.4558   26.1122 S   0  0  0  0  0  0  0  0  0  0  0  0
    8.6133  -13.9050   27.3728 C   0  0  0  0  0  0  0  0  0  0  0  0
    8.5798  -15.1236   27.6101 O   0  0  0  0  0  0  0  0  0  0  0  0
    9.0289  -13.0415   28.3653 O   0  0  0  0  0  0  0  0  0  0  0  0
  2  1  1  6
  2  3  1  0
  3  4  1  0
  4  5  2  0
  4  8  1  0
  6  2  1  0
  6  9  1  0
  7  6  2  0
 10  9  1  0
 10 15  1  0
 10 11  1  1
 12 11  1  0
 13 12  1  0
 14 13  2  0
 15 18  1  0
 16 15  2  0
 17 13  1  0
 18 19  1  0
 19 20  1  1
 19 22  1  0
 20 21  1  0
 22 24  1  0
 23 22  2  0
M  END
$$$$
