DEC.pdb
     RDKit          3D

 24 23  0  0  1  0  0  0  0  0999 V2000
    9.2458  -12.9563   19.1526 N   0  0  0  0  0  0  0  0  0  0  0  0
    7.8906  -13.2495   19.4974 C   0  0  1  0  0  0  0  0  0  0  0  0
    7.1348  -13.9185   18.3864 C   0  0  0  0  0  0  0  0  0  0  0  0
    7.8742  -15.1236   17.9638 C   0  0  0  0  0  0  0  0  0  0  0  0
    9.0882  -15.0493   17.7069 O   0  0  0  0  0  0  0  0  0  0  0  0
    7.7951  -14.0438   20.7621 C   0  0  0  0  0  0  0  0  0  0  0  0
    6.6532  -14.3240   21.1764 O   0  0  0  0  0  0  0  0  0  0  0  0
    7.1367  -16.3165   17.8754 O   0  0  0  0  0  0  0  0  0  0  0  0
    8.9076  -14.4740   21.4803 N   0  0  0  0  0  0  0  0  0  0  0  0
    8.7058  -15.2765   22.7038 C   0  0  1  0  0  0  0  0  0  0  0  0
    9.8640  -16.2090   22.8579 C   0  0  0  0  0  0  0  0  0  0  0  0
    9.7003  -17.4669   22.0874 C   0  0  0  0  0  0  0  0  0  0  0  0
   10.7779  -18.4651   22.2588 C   0  0  0  0  0  0  0  0  0  0  0  0
   11.6006  -18.3073   23.1848 O   0  0  0  0  0  0  0  0  0  0  0  0
    8.5264  -14.3066   23.8030 C   0  0  0  0  0  0  0  0  0  0  0  0
    9.2267  -13.2361   23.7754 O   0  0  0  0  0  0  0  0  0  0  0  0
   10.9340  -19.5678   21.4556 O   0  0  0  0  0  0  0  0  0  0  0  0
    7.6370  -14.4551   24.8922 N   0  0  0  0  0  0  0  0  0  0  0  0
    7.5130  -13.5242   25.9780 C   0  0  1  0  0  0  0  0  0  0  0  0
    6.2036  -12.8155   26.0527 C   0  0  0  0  0  0  0  0  0  0  0  0
    6.1524  -11.7328   27.5254 S   0  0  0  0  0  0  0  0  0  0  0  0
    7.9474  -14.1009   27.2848 C   0  0  0  0  0  0  0  0  0  0  0  0
    7.9806  -15.3295   27.4629 O   0  0  0  0  0  0  0  0  0  0  0  0
    8.3199  -13.2650   28.3174 O   0  0  0  0  0  0  0  0  0  0  0  0
  2  1  1  6
  2  3  1  0
  3  4  1  0
  4  5  2  0
  4  8  1  0
  6  2  1  0
  6  9  1  0
  7  6  2  0
 10  9  1  0
 10 15  1  0
 10 11  1  1
 12 11  1  0
 13 12  1  0
 14 13  2  0
 15 18  1  0
 16 15  2  0
 17 13  1  0
 18 19  1  0
 19 20  1  1
 19 22  1  0
 20 21  1  0
 22 24  1  0
 23 22  2  0
M  END
$$$$
