DEC.pdb
     RDKit          3D

 24 23  0  0  1  0  0  0  0  0999 V2000
    7.9573  -18.2700   19.5599 N   0  0  0  0  0  0  0  0  0  0  0  0
    8.8920  -17.8540   20.5573 C   0  0  1  0  0  0  0  0  0  0  0  0
    9.9029  -16.8723   20.0401 C   0  0  0  0  0  0  0  0  0  0  0  0
   11.2218  -17.5315   19.9806 C   0  0  0  0  0  0  0  0  0  0  0  0
   11.3305  -18.7319   20.2845 O   0  0  0  0  0  0  0  0  0  0  0  0
    8.2077  -17.3228   21.7775 C   0  0  0  0  0  0  0  0  0  0  0  0
    7.6722  -16.2004   21.6899 O   0  0  0  0  0  0  0  0  0  0  0  0
   12.3057  -16.7361   19.5715 O   0  0  0  0  0  0  0  0  0  0  0  0
    8.1461  -18.0175   22.9826 N   0  0  0  0  0  0  0  0  0  0  0  0
    7.3442  -17.4615   24.0915 C   0  0  1  0  0  0  0  0  0  0  0  0
    6.6714  -18.5899   24.8048 C   0  0  0  0  0  0  0  0  0  0  0  0
    7.0485  -19.9209   24.2672 C   0  0  0  0  0  0  0  0  0  0  0  0
    6.5081  -21.0834   25.0044 C   0  0  0  0  0  0  0  0  0  0  0  0
    7.0018  -21.3729   26.1142 O   0  0  0  0  0  0  0  0  0  0  0  0
    8.2790  -16.6649   24.9116 C   0  0  0  0  0  0  0  0  0  0  0  0
    9.5330  -16.8506   24.7384 O   0  0  0  0  0  0  0  0  0  0  0  0
    5.4858  -21.8748   24.5416 O   0  0  0  0  0  0  0  0  0  0  0  0
    7.9076  -15.7019   25.8781 N   0  0  0  0  0  0  0  0  0  0  0  0
    8.8321  -14.9457   26.6747 C   0  0  1  0  0  0  0  0  0  0  0  0
    8.3466  -13.6004   27.0951 C   0  0  0  0  0  0  0  0  0  0  0  0
    9.6583  -12.7098   28.0061 S   0  0  0  0  0  0  0  0  0  0  0  0
    9.4117  -15.7414   27.7972 C   0  0  0  0  0  0  0  0  0  0  0  0
    8.7651  -16.6555   28.3344 O   0  0  0  0  0  0  0  0  0  0  0  0
   10.6845  -15.4653   28.2525 O   0  0  0  0  0  0  0  0  0  0  0  0
  2  1  1  6
  2  3  1  0
  3  4  1  0
  4  5  2  0
  4  8  1  0
  6  2  1  0
  6  9  1  0
  7  6  2  0
 10  9  1  0
 10 15  1  0
 10 11  1  1
 12 11  1  0
 13 12  1  0
 14 13  2  0
 15 18  1  0
 16 15  2  0
 17 13  1  0
 18 19  1  0
 19 20  1  1
 19 22  1  0
 20 21  1  0
 22 24  1  0
 23 22  2  0
M  END
$$$$
