DEC.pdb
     RDKit          3D

 24 23  0  0  1  0  0  0  0  0999 V2000
   11.6546  -17.7163   20.5002 N   0  0  0  0  0  0  0  0  0  0  0  0
   12.4290  -17.6431   21.6986 C   0  0  1  0  0  0  0  0  0  0  0  0
   13.3948  -16.4941   21.7031 C   0  0  0  0  0  0  0  0  0  0  0  0
   14.4125  -16.7214   20.6590 C   0  0  0  0  0  0  0  0  0  0  0  0
   14.3952  -16.0439   19.6169 O   0  0  0  0  0  0  0  0  0  0  0  0
   11.5661  -17.6201   22.9211 C   0  0  0  0  0  0  0  0  0  0  0  0
   10.5746  -16.8645   22.9069 O   0  0  0  0  0  0  0  0  0  0  0  0
   15.3667  -17.7203   20.9162 O   0  0  0  0  0  0  0  0  0  0  0  0
   11.8207  -18.3929   24.0509 N   0  0  0  0  0  0  0  0  0  0  0  0
   10.8240  -18.4213   25.1406 C   0  0  1  0  0  0  0  0  0  0  0  0
   10.8560  -19.7722   25.7799 C   0  0  0  0  0  0  0  0  0  0  0  0
   10.0673  -19.8367   27.0357 C   0  0  0  0  0  0  0  0  0  0  0  0
   10.0669  -21.1464   27.7224 C   0  0  0  0  0  0  0  0  0  0  0  0
    9.4584  -21.2552   28.8074 O   0  0  0  0  0  0  0  0  0  0  0  0
   11.1620  -17.2935   26.0322 C   0  0  0  0  0  0  0  0  0  0  0  0
   12.3899  -17.1338   26.3544 O   0  0  0  0  0  0  0  0  0  0  0  0
   10.7002  -22.2643   27.2381 O   0  0  0  0  0  0  0  0  0  0  0  0
   10.2402  -16.3619   26.5633 N   0  0  0  0  0  0  0  0  0  0  0  0
   10.5608  -15.3653   27.5457 C   0  0  1  0  0  0  0  0  0  0  0  0
    9.5692  -14.2587   27.6661 C   0  0  0  0  0  0  0  0  0  0  0  0
   10.1303  -13.0375   28.9062 S   0  0  0  0  0  0  0  0  0  0  0  0
   10.9490  -15.9557   28.8609 C   0  0  0  0  0  0  0  0  0  0  0  0
   11.9296  -15.5266   29.4907 O   0  0  0  0  0  0  0  0  0  0  0  0
   10.2139  -16.9944   29.3942 O   0  0  0  0  0  0  0  0  0  0  0  0
  2  1  1  6
  2  3  1  0
  3  4  1  0
  4  5  2  0
  4  8  1  0
  6  2  1  0
  6  9  1  0
  7  6  2  0
 10  9  1  0
 10 15  1  0
 10 11  1  1
 12 11  1  0
 13 12  1  0
 14 13  2  0
 15 18  1  0
 16 15  2  0
 17 13  1  0
 18 19  1  0
 19 20  1  1
 19 22  1  0
 20 21  1  0
 22 24  1  0
 23 22  2  0
M  END
$$$$
