DEC.pdb
     RDKit          3D

 24 23  0  0  1  0  0  0  0  0999 V2000
    8.1789  -17.3732   19.0203 N   0  0  0  0  0  0  0  0  0  0  0  0
    8.3701  -16.0914   19.6216 C   0  0  1  0  0  0  0  0  0  0  0  0
    7.5765  -15.0064   18.9536 C   0  0  0  0  0  0  0  0  0  0  0  0
    8.1116  -14.7904   17.5954 C   0  0  0  0  0  0  0  0  0  0  0  0
    9.0449  -15.4963   17.1761 O   0  0  0  0  0  0  0  0  0  0  0  0
    8.1027  -16.1192   21.0938 C   0  0  0  0  0  0  0  0  0  0  0  0
    6.9157  -16.2332   21.4573 O   0  0  0  0  0  0  0  0  0  0  0  0
    7.5139  -13.7688   16.8380 O   0  0  0  0  0  0  0  0  0  0  0  0
    9.1060  -16.0248   22.0546 N   0  0  0  0  0  0  0  0  0  0  0  0
    8.7669  -16.2638   23.4722 C   0  0  1  0  0  0  0  0  0  0  0  0
    9.8598  -17.0728   24.0932 C   0  0  0  0  0  0  0  0  0  0  0  0
    9.8569  -18.4883   23.6467 C   0  0  0  0  0  0  0  0  0  0  0  0
   10.9433  -19.3313   24.1907 C   0  0  0  0  0  0  0  0  0  0  0  0
   12.1006  -19.1793   23.7472 O   0  0  0  0  0  0  0  0  0  0  0  0
    8.5511  -14.9309   24.0704 C   0  0  0  0  0  0  0  0  0  0  0  0
    9.3846  -14.0042   23.7815 O   0  0  0  0  0  0  0  0  0  0  0  0
   10.7593  -20.2822   25.1641 O   0  0  0  0  0  0  0  0  0  0  0  0
    7.4914  -14.5829   24.9396 N   0  0  0  0  0  0  0  0  0  0  0  0
    7.4159  -13.3587   25.6858 C   0  0  1  0  0  0  0  0  0  0  0  0
    6.0362  -12.8352   25.8978 C   0  0  0  0  0  0  0  0  0  0  0  0
    6.0790  -11.3504   26.9641 S   0  0  0  0  0  0  0  0  0  0  0  0
    8.2325  -13.3931   26.9351 C   0  0  0  0  0  0  0  0  0  0  0  0
    8.5802  -12.3442   27.5017 O   0  0  0  0  0  0  0  0  0  0  0  0
    8.6124  -14.6038   27.4771 O   0  0  0  0  0  0  0  0  0  0  0  0
  2  1  1  6
  2  3  1  0
  3  4  1  0
  4  5  2  0
  4  8  1  0
  6  2  1  0
  6  9  1  0
  7  6  2  0
 10  9  1  0
 10 15  1  0
 10 11  1  1
 12 11  1  0
 13 12  1  0
 14 13  2  0
 15 18  1  0
 16 15  2  0
 17 13  1  0
 18 19  1  0
 19 20  1  1
 19 22  1  0
 20 21  1  0
 22 24  1  0
 23 22  2  0
M  END
$$$$
