ESE.pdb
     RDKit          3D

 25 24  0  0  1  0  0  0  0  0999 V2000
    8.3038  -12.9328   17.6519 N   0  0  0  0  0  0  0  0  0  0  0  0
    8.0746  -14.2551   18.2977 C   0  0  1  0  0  0  0  0  0  0  0  0
    8.9422  -15.1929   17.5199 C   0  0  0  0  0  0  0  0  0  0  0  0
   10.3981  -15.1499   17.6966 C   0  0  0  0  0  0  0  0  0  0  0  0
   11.2267  -16.1096   16.9758 C   0  0  0  0  0  0  0  0  0  0  0  0
   10.7001  -16.9536   16.1753 O   0  0  0  0  0  0  0  0  0  0  0  0
    8.4820  -14.1659   19.7103 C   0  0  0  0  0  0  0  0  0  0  0  0
    9.4144  -13.4087   20.0466 O   0  0  0  0  0  0  0  0  0  0  0  0
   12.6121  -16.1225   17.1461 O   0  0  0  0  0  0  0  0  0  0  0  0
    6.2342  -15.7794   22.9296 O   0  0  0  0  0  0  0  0  0  0  0  0
    7.0646  -14.6584   22.9907 C   0  0  0  0  0  0  0  0  0  0  0  0
    8.2889  -14.8713   22.1366 C   0  0  2  0  0  0  0  0  0  0  0  0
    7.8689  -14.9070   20.7573 N   0  0  0  0  0  0  0  0  0  0  0  0
    9.0828  -16.0584   22.5202 C   0  0  0  0  0  0  0  0  0  0  0  0
    9.3063  -16.9003   21.6024 O   0  0  0  0  0  0  0  0  0  0  0  0
    9.5895  -16.2983   23.8137 N   0  0  0  0  0  0  0  0  0  0  0  0
   10.9036  -16.9502   24.0513 C   0  0  1  0  0  0  0  0  0  0  0  0
   11.8366  -16.3387   23.0695 C   0  0  0  0  0  0  0  0  0  0  0  0
   13.2531  -16.7882   23.1973 C   0  0  0  0  0  0  0  0  0  0  0  0
   14.1688  -16.2333   22.1871 C   0  0  0  0  0  0  0  0  0  0  0  0
   13.9789  -16.5046   20.9756 O   0  0  0  0  0  0  0  0  0  0  0  0
   11.2416  -17.0550   25.4399 C   0  0  0  0  0  0  0  0  0  0  0  0
   10.7944  -16.1965   26.2712 O   0  0  0  0  0  0  0  0  0  0  0  0
   15.2254  -15.4254   22.5345 O   0  0  0  0  0  0  0  0  0  0  0  0
   12.0520  -18.0854   25.9439 O   0  0  0  0  0  0  0  0  0  0  0  0
  2  1  1  6
  3  2  1  0
  4  3  1  0
  5  9  1  0
  5  4  1  0
  6  5  2  0
  7  2  1  0
  7  8  2  0
 10 11  1  0
 12 11  1  1
 12 13  1  0
 12 14  1  0
 13  7  1  0
 14 16  1  0
 15 14  2  0
 16 17  1  0
 17 22  1  0
 18 19  1  0
 17 18  1  6
 19 20  1  0
 20 21  2  0
 20 24  1  0
 22 23  2  0
 22 25  1  0
M  END
$$$$
