ESE.pdb
     RDKit          3D

 25 24  0  0  1  0  0  0  0  0999 V2000
    9.3276  -17.4084   17.2337 N   0  0  0  0  0  0  0  0  0  0  0  0
    9.6256  -18.0311   18.5533 C   0  0  1  0  0  0  0  0  0  0  0  0
   10.8506  -18.8506   18.2983 C   0  0  0  0  0  0  0  0  0  0  0  0
   11.6741  -18.5760   17.1155 C   0  0  0  0  0  0  0  0  0  0  0  0
   12.8689  -19.3797   16.8834 C   0  0  0  0  0  0  0  0  0  0  0  0
   12.8205  -20.4221   16.1475 O   0  0  0  0  0  0  0  0  0  0  0  0
    9.8697  -16.9603   19.5347 C   0  0  0  0  0  0  0  0  0  0  0  0
   11.0368  -16.6566   19.8530 O   0  0  0  0  0  0  0  0  0  0  0  0
   14.0890  -19.0235   17.4604 O   0  0  0  0  0  0  0  0  0  0  0  0
    6.7119  -15.8331   22.0544 O   0  0  0  0  0  0  0  0  0  0  0  0
    7.6659  -14.8614   21.7456 C   0  0  0  0  0  0  0  0  0  0  0  0
    8.9854  -15.5140   21.4182 C   0  0  2  0  0  0  0  0  0  0  0  0
    8.8350  -16.2204   20.1699 N   0  0  0  0  0  0  0  0  0  0  0  0
    9.5073  -16.3760   22.5003 C   0  0  0  0  0  0  0  0  0  0  0  0
    9.9390  -17.5124   22.1489 O   0  0  0  0  0  0  0  0  0  0  0  0
    9.5495  -16.0138   23.8621 N   0  0  0  0  0  0  0  0  0  0  0  0
   10.6928  -16.3562   24.7472 C   0  0  1  0  0  0  0  0  0  0  0  0
   11.9128  -15.9653   23.9940 C   0  0  0  0  0  0  0  0  0  0  0  0
   12.7918  -17.1051   23.6029 C   0  0  0  0  0  0  0  0  0  0  0  0
   14.0470  -16.7155   22.9399 C   0  0  0  0  0  0  0  0  0  0  0  0
   14.7917  -15.8676   23.4914 O   0  0  0  0  0  0  0  0  0  0  0  0
   10.4946  -15.9575   26.1093 C   0  0  0  0  0  0  0  0  0  0  0  0
    9.8180  -14.9086   26.3742 O   0  0  0  0  0  0  0  0  0  0  0  0
   14.4262  -17.2558   21.7341 O   0  0  0  0  0  0  0  0  0  0  0  0
   11.0124  -16.6865   27.1924 O   0  0  0  0  0  0  0  0  0  0  0  0
  2  1  1  6
  3  2  1  0
  4  3  1  0
  5  9  1  0
  5  4  1  0
  6  5  2  0
  7  2  1  0
  7  8  2  0
 10 11  1  0
 12 11  1  1
 12 13  1  0
 12 14  1  0
 13  7  1  0
 14 16  1  0
 15 14  2  0
 16 17  1  0
 17 22  1  0
 18 19  1  0
 17 18  1  6
 19 20  1  0
 20 21  2  0
 20 24  1  0
 22 23  2  0
 22 25  1  0
M  END
$$$$
