ESE.pdb
     RDKit          3D

 25 24  0  0  1  0  0  0  0  0999 V2000
    9.4231  -16.3782   14.9946 N   0  0  0  0  0  0  0  0  0  0  0  0
   10.7812  -16.7446   15.4837 C   0  0  1  0  0  0  0  0  0  0  0  0
   11.6723  -16.4755   14.3128 C   0  0  0  0  0  0  0  0  0  0  0  0
   13.1116  -16.7386   14.4207 C   0  0  0  0  0  0  0  0  0  0  0  0
   13.9891  -16.3289   13.3301 C   0  0  0  0  0  0  0  0  0  0  0  0
   15.2366  -16.1447   13.5313 O   0  0  0  0  0  0  0  0  0  0  0  0
   11.1114  -15.8924   16.6387 C   0  0  0  0  0  0  0  0  0  0  0  0
   12.2680  -15.4466   16.7779 O   0  0  0  0  0  0  0  0  0  0  0  0
   13.4820  -16.1320   12.0446 O   0  0  0  0  0  0  0  0  0  0  0  0
    8.4972  -15.4447   19.9376 O   0  0  0  0  0  0  0  0  0  0  0  0
    9.2161  -14.3391   19.4787 C   0  0  0  0  0  0  0  0  0  0  0  0
   10.5051  -14.7872   18.8370 C   0  0  2  0  0  0  0  0  0  0  0  0
   10.1747  -15.5274   17.6442 N   0  0  0  0  0  0  0  0  0  0  0  0
   11.3919  -15.5425   19.7478 C   0  0  0  0  0  0  0  0  0  0  0  0
   11.4552  -16.7916   19.5557 O   0  0  0  0  0  0  0  0  0  0  0  0
   12.1484  -14.9662   20.7884 N   0  0  0  0  0  0  0  0  0  0  0  0
   13.0015  -15.7720   21.6999 C   0  0  1  0  0  0  0  0  0  0  0  0
   14.3291  -15.1041   21.6999 C   0  0  0  0  0  0  0  0  0  0  0  0
   15.3745  -15.8026   22.5024 C   0  0  0  0  0  0  0  0  0  0  0  0
   16.7126  -15.1928   22.4345 C   0  0  0  0  0  0  0  0  0  0  0  0
   17.5930  -15.5585   23.2523 O   0  0  0  0  0  0  0  0  0  0  0  0
   12.3446  -16.1309   22.9218 C   0  0  0  0  0  0  0  0  0  0  0  0
   11.3559  -15.4412   23.3401 O   0  0  0  0  0  0  0  0  0  0  0  0
   17.0244  -14.2348   21.4992 O   0  0  0  0  0  0  0  0  0  0  0  0
   12.7385  -17.2355   23.6947 O   0  0  0  0  0  0  0  0  0  0  0  0
  2  1  1  6
  3  2  1  0
  4  3  1  0
  5  9  1  0
  5  4  1  0
  6  5  2  0
  7  2  1  0
  7  8  2  0
 10 11  1  0
 12 11  1  1
 12 13  1  0
 12 14  1  0
 13  7  1  0
 14 16  1  0
 15 14  2  0
 16 17  1  0
 17 22  1  0
 18 19  1  0
 17 18  1  1
 19 20  1  0
 20 21  2  0
 20 24  1  0
 22 23  2  0
 22 25  1  0
M  END
$$$$
