ESE.pdb
     RDKit          3D

 25 24  0  0  1  0  0  0  0  0999 V2000
  101.3359   13.5450   -8.6644 N   0  0  0  0  0  0  0  0  0  0  0  0
  100.0360   14.0862   -9.1494 C   0  0  1  0  0  0  0  0  0  0  0  0
   99.6448   13.1543  -10.2521 C   0  0  0  0  0  0  0  0  0  0  0  0
  100.6825   12.4157  -10.9803 C   0  0  0  0  0  0  0  0  0  0  0  0
  101.8910   13.1185  -11.3960 C   0  0  0  0  0  0  0  0  0  0  0  0
  101.8854   14.3851  -11.5581 O   0  0  0  0  0  0  0  0  0  0  0  0
   99.0717   14.0633   -8.0363 C   0  0  0  0  0  0  0  0  0  0  0  0
   99.1460   14.9125   -7.1258 O   0  0  0  0  0  0  0  0  0  0  0  0
  103.0779   12.4197  -11.6230 O   0  0  0  0  0  0  0  0  0  0  0  0
   96.5907   12.9953   -5.1905 O   0  0  0  0  0  0  0  0  0  0  0  0
   96.7088   14.0100   -6.1423 C   0  0  0  0  0  0  0  0  0  0  0  0
   96.6715   13.4259   -7.5321 C   0  0  2  0  0  0  0  0  0  0  0  0
   98.0244   13.1090   -7.9183 N   0  0  0  0  0  0  0  0  0  0  0  0
   95.9843   14.2850   -8.5202 C   0  0  0  0  0  0  0  0  0  0  0  0
   94.7277   14.3753   -8.4024 O   0  0  0  0  0  0  0  0  0  0  0  0
   96.6315   14.9882   -9.5565 N   0  0  0  0  0  0  0  0  0  0  0  0
   95.9102   15.9115  -10.4704 C   0  0  1  0  0  0  0  0  0  0  0  0
   96.9061   16.9407  -10.8670 C   0  0  0  0  0  0  0  0  0  0  0  0
   96.8746   18.1838  -10.0432 C   0  0  0  0  0  0  0  0  0  0  0  0
   98.1872   18.6258   -9.5448 C   0  0  0  0  0  0  0  0  0  0  0  0
   99.1554   17.8265   -9.5813 O   0  0  0  0  0  0  0  0  0  0  0  0
   95.1073   15.2328  -11.4442 C   0  0  0  0  0  0  0  0  0  0  0  0
   93.9149   15.6254  -11.6725 O   0  0  0  0  0  0  0  0  0  0  0  0
   98.3817   19.8903   -9.0418 O   0  0  0  0  0  0  0  0  0  0  0  0
   95.5827   14.1374  -12.1836 O   0  0  0  0  0  0  0  0  0  0  0  0
  2  1  1  1
  3  2  1  0
  4  3  1  0
  5  9  1  0
  5  4  1  0
  6  5  2  0
  7  2  1  0
  7  8  2  0
 10 11  1  0
 12 11  1  1
 12 13  1  0
 12 14  1  0
 13  7  1  0
 14 16  1  0
 15 14  2  0
 16 17  1  0
 17 22  1  0
 18 19  1  0
 17 18  1  6
 19 20  1  0
 20 21  2  0
 20 24  1  0
 22 23  2  0
 22 25  1  0
M  END
$$$$
