ESE.pdb
     RDKit          3D

 25 24  0  0  1  0  0  0  0  0999 V2000
   13.9153  -16.6053   15.9148 N   0  0  0  0  0  0  0  0  0  0  0  0
   15.2985  -16.8948   16.3847 C   0  0  1  0  0  0  0  0  0  0  0  0
   16.0571  -15.6451   16.0684 C   0  0  0  0  0  0  0  0  0  0  0  0
   15.3666  -14.3508   16.0945 C   0  0  0  0  0  0  0  0  0  0  0  0
   16.1201  -13.1408   15.7857 C   0  0  0  0  0  0  0  0  0  0  0  0
   16.9491  -12.6564   16.6276 O   0  0  0  0  0  0  0  0  0  0  0  0
   15.2569  -17.1665   17.8317 C   0  0  0  0  0  0  0  0  0  0  0  0
   14.2901  -16.7739   18.5151 O   0  0  0  0  0  0  0  0  0  0  0  0
   15.9505  -12.4898   14.5626 O   0  0  0  0  0  0  0  0  0  0  0  0
   18.5791  -18.1115   20.2330 O   0  0  0  0  0  0  0  0  0  0  0  0
   17.4735  -18.9629   20.2832 C   0  0  0  0  0  0  0  0  0  0  0  0
   16.2175  -18.2047   19.9343 C   0  0  2  0  0  0  0  0  0  0  0  0
   16.2751  -17.8685   18.5330 N   0  0  0  0  0  0  0  0  0  0  0  0
   15.9769  -17.0250   20.7929 C   0  0  0  0  0  0  0  0  0  0  0  0
   15.3802  -16.0512   20.2481 O   0  0  0  0  0  0  0  0  0  0  0  0
   16.3641  -16.9269   22.1448 N   0  0  0  0  0  0  0  0  0  0  0  0
   15.6136  -16.1133   23.1362 C   0  0  1  0  0  0  0  0  0  0  0  0
   14.1963  -16.5439   23.0161 C   0  0  0  0  0  0  0  0  0  0  0  0
   13.2089  -15.6015   23.6174 C   0  0  0  0  0  0  0  0  0  0  0  0
   11.8102  -16.0571   23.5623 C   0  0  0  0  0  0  0  0  0  0  0  0
   10.9065  -15.3120   24.0158 O   0  0  0  0  0  0  0  0  0  0  0  0
   16.2647  -16.0291   24.4099 C   0  0  0  0  0  0  0  0  0  0  0  0
   16.9326  -17.0229   24.8510 O   0  0  0  0  0  0  0  0  0  0  0  0
   11.4670  -17.2758   23.0267 O   0  0  0  0  0  0  0  0  0  0  0  0
   16.2104  -14.8767   25.2109 O   0  0  0  0  0  0  0  0  0  0  0  0
  2  1  1  1
  3  2  1  0
  4  3  1  0
  5  9  1  0
  5  4  1  0
  6  5  2  0
  7  2  1  0
  7  8  2  0
 10 11  1  0
 12 11  1  1
 12 13  1  0
 12 14  1  0
 13  7  1  0
 14 16  1  0
 15 14  2  0
 16 17  1  0
 17 22  1  0
 18 19  1  0
 17 18  1  1
 19 20  1  0
 20 21  2  0
 20 24  1  0
 22 23  2  0
 22 25  1  0
M  END
$$$$
