ESE.pdb
     RDKit          3D

 25 24  0  0  1  0  0  0  0  0999 V2000
    8.4784  -13.7591   16.4353 N   0  0  0  0  0  0  0  0  0  0  0  0
    7.7223  -14.4278   17.5303 C   0  0  1  0  0  0  0  0  0  0  0  0
    7.6915  -15.8666   17.1226 C   0  0  0  0  0  0  0  0  0  0  0  0
    8.9515  -16.5901   16.9186 C   0  0  0  0  0  0  0  0  0  0  0  0
    8.9089  -17.9509   16.3955 C   0  0  0  0  0  0  0  0  0  0  0  0
    7.7930  -18.5159   16.1384 O   0  0  0  0  0  0  0  0  0  0  0  0
    8.4488  -14.2258   18.7955 C   0  0  0  0  0  0  0  0  0  0  0  0
    9.6766  -14.0060   18.7845 O   0  0  0  0  0  0  0  0  0  0  0  0
   10.0880  -18.6613   16.1641 O   0  0  0  0  0  0  0  0  0  0  0  0
    6.5653  -14.5509   22.5765 O   0  0  0  0  0  0  0  0  0  0  0  0
    7.4947  -13.5397   22.3245 C   0  0  0  0  0  0  0  0  0  0  0  0
    8.5156  -14.0108   21.3196 C   0  0  2  0  0  0  0  0  0  0  0  0
    7.8314  -14.2648   20.0757 N   0  0  0  0  0  0  0  0  0  0  0  0
    9.3109  -15.1699   21.7783 C   0  0  0  0  0  0  0  0  0  0  0  0
    8.9437  -16.3027   21.3504 O   0  0  0  0  0  0  0  0  0  0  0  0
   10.4228  -15.0865   22.6410 N   0  0  0  0  0  0  0  0  0  0  0  0
   11.0448  -16.2834   23.2644 C   0  0  1  0  0  0  0  0  0  0  0  0
   12.5120  -16.0735   23.1568 C   0  0  0  0  0  0  0  0  0  0  0  0
   13.0263  -15.9962   21.7588 C   0  0  0  0  0  0  0  0  0  0  0  0
   14.4836  -15.8202   21.6476 C   0  0  0  0  0  0  0  0  0  0  0  0
   15.1645  -15.6860   22.6944 O   0  0  0  0  0  0  0  0  0  0  0  0
   10.4318  -16.6604   24.5036 C   0  0  0  0  0  0  0  0  0  0  0  0
    9.5513  -15.9048   25.0348 O   0  0  0  0  0  0  0  0  0  0  0  0
   15.1188  -15.8001   20.4286 O   0  0  0  0  0  0  0  0  0  0  0  0
   10.7530  -17.8526   25.1729 O   0  0  0  0  0  0  0  0  0  0  0  0
  2  1  1  6
  3  2  1  0
  4  3  1  0
  5  9  1  0
  5  4  1  0
  6  5  2  0
  7  2  1  0
  7  8  2  0
 10 11  1  0
 12 11  1  1
 12 13  1  0
 12 14  1  0
 13  7  1  0
 14 16  1  0
 15 14  2  0
 16 17  1  0
 17 22  1  0
 18 19  1  0
 17 18  1  1
 19 20  1  0
 20 21  2  0
 20 24  1  0
 22 23  2  0
 22 25  1  0
M  END
$$$$
