ESE.pdb
     RDKit          3D

 25 24  0  0  1  0  0  0  0  0999 V2000
   14.2684  -13.7107   17.4282 N   0  0  0  0  0  0  0  0  0  0  0  0
   13.0222  -14.5219   17.5098 C   0  0  1  0  0  0  0  0  0  0  0  0
   13.4979  -15.9321   17.3601 C   0  0  0  0  0  0  0  0  0  0  0  0
   14.6586  -16.3920   18.1308 C   0  0  0  0  0  0  0  0  0  0  0  0
   15.1527  -17.7485   17.9235 C   0  0  0  0  0  0  0  0  0  0  0  0
   16.1608  -17.9672   17.1709 O   0  0  0  0  0  0  0  0  0  0  0  0
   12.3917  -14.2859   18.8198 C   0  0  0  0  0  0  0  0  0  0  0  0
   13.0965  -14.0348   19.8179 O   0  0  0  0  0  0  0  0  0  0  0  0
   14.5337  -18.8339   18.5458 O   0  0  0  0  0  0  0  0  0  0  0  0
    8.2262  -15.0337   19.7213 O   0  0  0  0  0  0  0  0  0  0  0  0
    8.8961  -13.8664   20.0936 C   0  0  0  0  0  0  0  0  0  0  0  0
   10.3575  -14.1574   20.3254 C   0  0  2  0  0  0  0  0  0  0  0  0
   10.9875  -14.3252   19.0390 N   0  0  0  0  0  0  0  0  0  0  0  0
   10.6000  -15.3008   21.2311 C   0  0  0  0  0  0  0  0  0  0  0  0
   11.0535  -16.3523   20.6927 O   0  0  0  0  0  0  0  0  0  0  0  0
   10.3608  -15.2861   22.6203 N   0  0  0  0  0  0  0  0  0  0  0  0
   10.6601  -16.4478   23.4972 C   0  0  1  0  0  0  0  0  0  0  0  0
   12.0540  -16.8467   23.1708 C   0  0  0  0  0  0  0  0  0  0  0  0
   13.0698  -15.7738   23.3754 C   0  0  0  0  0  0  0  0  0  0  0  0
   14.4582  -16.1805   23.1035 C   0  0  0  0  0  0  0  0  0  0  0  0
   15.2382  -15.3628   22.5552 O   0  0  0  0  0  0  0  0  0  0  0  0
   10.2333  -16.2602   24.8522 C   0  0  0  0  0  0  0  0  0  0  0  0
   10.4177  -17.1847   25.7122 O   0  0  0  0  0  0  0  0  0  0  0  0
   14.9239  -17.4307   23.4347 O   0  0  0  0  0  0  0  0  0  0  0  0
    9.6165  -15.0778   25.2926 O   0  0  0  0  0  0  0  0  0  0  0  0
  2  1  1  1
  3  2  1  0
  4  3  1  0
  5  9  1  0
  5  4  1  0
  6  5  2  0
  7  2  1  0
  7  8  2  0
 10 11  1  0
 12 11  1  6
 12 13  1  0
 12 14  1  0
 13  7  1  0
 14 16  1  0
 15 14  2  0
 16 17  1  0
 17 22  1  0
 18 19  1  0
 17 18  1  1
 19 20  1  0
 20 21  2  0
 20 24  1  0
 22 23  2  0
 22 25  1  0
M  END
$$$$
