ESE.pdb
     RDKit          3D

 25 24  0  0  1  0  0  0  0  0999 V2000
    9.0552  -16.6670   15.3265 N   0  0  0  0  0  0  0  0  0  0  0  0
    9.1654  -17.8633   16.2066 C   0  0  1  0  0  0  0  0  0  0  0  0
   10.4242  -18.5318   15.7527 C   0  0  0  0  0  0  0  0  0  0  0  0
   10.3804  -19.4763   14.6309 C   0  0  0  0  0  0  0  0  0  0  0  0
   10.9671  -20.8011   14.7985 C   0  0  0  0  0  0  0  0  0  0  0  0
   12.2091  -20.9968   14.5759 O   0  0  0  0  0  0  0  0  0  0  0  0
    9.2513  -17.4119   17.6060 C   0  0  0  0  0  0  0  0  0  0  0  0
   10.2045  -16.6978   17.9763 O   0  0  0  0  0  0  0  0  0  0  0  0
   10.1819  -21.8804   15.2072 O   0  0  0  0  0  0  0  0  0  0  0  0
    6.3746  -18.4980   20.5369 O   0  0  0  0  0  0  0  0  0  0  0  0
    6.9523  -17.2270   20.5090 C   0  0  0  0  0  0  0  0  0  0  0  0
    8.3607  -17.3079   19.9762 C   0  0  2  0  0  0  0  0  0  0  0  0
    8.2928  -17.7426   18.6027 N   0  0  0  0  0  0  0  0  0  0  0  0
    9.2592  -18.1495   20.7954 C   0  0  0  0  0  0  0  0  0  0  0  0
    9.3345  -19.3691   20.4666 O   0  0  0  0  0  0  0  0  0  0  0  0
   10.0143  -17.6832   21.8907 N   0  0  0  0  0  0  0  0  0  0  0  0
   10.7778  -18.5935   22.7831 C   0  0  1  0  0  0  0  0  0  0  0  0
   12.1835  -18.1137   22.7358 C   0  0  0  0  0  0  0  0  0  0  0  0
   12.4600  -16.9195   23.5857 C   0  0  0  0  0  0  0  0  0  0  0  0
   13.8740  -16.5135   23.6361 C   0  0  0  0  0  0  0  0  0  0  0  0
   14.2574  -15.5457   22.9334 O   0  0  0  0  0  0  0  0  0  0  0  0
   10.1172  -18.8526   24.0281 C   0  0  0  0  0  0  0  0  0  0  0  0
   10.5275  -19.7961   24.7829 O   0  0  0  0  0  0  0  0  0  0  0  0
   14.7856  -17.1648   24.4329 O   0  0  0  0  0  0  0  0  0  0  0  0
    9.0209  -18.0958   24.4729 O   0  0  0  0  0  0  0  0  0  0  0  0
  2  1  1  6
  3  2  1  0
  4  3  1  0
  5  9  1  0
  5  4  1  0
  6  5  2  0
  7  2  1  0
  7  8  2  0
 10 11  1  0
 12 11  1  1
 12 13  1  0
 12 14  1  0
 13  7  1  0
 14 16  1  0
 15 14  2  0
 16 17  1  0
 17 22  1  0
 18 19  1  0
 17 18  1  1
 19 20  1  0
 20 21  2  0
 20 24  1  0
 22 23  2  0
 22 25  1  0
M  END
$$$$
