ESE.pdb
     RDKit          3D

 25 24  0  0  1  0  0  0  0  0999 V2000
    8.1098  -13.4295   18.3424 N   0  0  0  0  0  0  0  0  0  0  0  0
    9.2449  -14.1000   19.0350 C   0  0  1  0  0  0  0  0  0  0  0  0
   10.3079  -13.0491   19.0882 C   0  0  0  0  0  0  0  0  0  0  0  0
   11.6191  -13.3716   19.6623 C   0  0  0  0  0  0  0  0  0  0  0  0
   12.4445  -14.3852   19.0154 C   0  0  0  0  0  0  0  0  0  0  0  0
   12.5261  -14.4443   17.7424 O   0  0  0  0  0  0  0  0  0  0  0  0
    8.8014  -14.5081   20.3789 C   0  0  0  0  0  0  0  0  0  0  0  0
    8.1297  -13.7261   21.0811 O   0  0  0  0  0  0  0  0  0  0  0  0
   13.1627  -15.3095   19.7760 O   0  0  0  0  0  0  0  0  0  0  0  0
    8.7910  -18.5329   21.6614 O   0  0  0  0  0  0  0  0  0  0  0  0
    7.8726  -17.5379   22.0024 C   0  0  0  0  0  0  0  0  0  0  0  0
    8.5851  -16.2280   22.2274 C   0  0  2  0  0  0  0  0  0  0  0  0
    9.0938  -15.7740   20.9565 N   0  0  0  0  0  0  0  0  0  0  0  0
    9.6325  -16.2918   23.2693 C   0  0  0  0  0  0  0  0  0  0  0  0
   10.8222  -16.4177   22.8571 O   0  0  0  0  0  0  0  0  0  0  0  0
    9.3872  -16.2228   24.6558 N   0  0  0  0  0  0  0  0  0  0  0  0
   10.4548  -16.4251   25.6694 C   0  0  1  0  0  0  0  0  0  0  0  0
   10.0388  -15.6283   26.8529 C   0  0  0  0  0  0  0  0  0  0  0  0
   10.9284  -15.7730   28.0414 C   0  0  0  0  0  0  0  0  0  0  0  0
   10.5844  -14.9027   29.1777 C   0  0  0  0  0  0  0  0  0  0  0  0
    9.6851  -14.0376   29.0344 O   0  0  0  0  0  0  0  0  0  0  0  0
   10.8660  -17.7921   25.7947 C   0  0  0  0  0  0  0  0  0  0  0  0
   10.0143  -18.7301   25.6429 O   0  0  0  0  0  0  0  0  0  0  0  0
   11.2203  -15.0125   30.3915 O   0  0  0  0  0  0  0  0  0  0  0  0
   12.1927  -18.1589   26.0734 O   0  0  0  0  0  0  0  0  0  0  0  0
  2  1  1  6
  3  2  1  0
  4  3  1  0
  5  9  1  0
  5  4  1  0
  6  5  2  0
  7  2  1  0
  7  8  2  0
 10 11  1  0
 12 11  1  6
 12 13  1  0
 12 14  1  0
 13  7  1  0
 14 16  1  0
 15 14  2  0
 16 17  1  0
 17 22  1  0
 18 19  1  0
 17 18  1  1
 19 20  1  0
 20 21  2  0
 20 24  1  0
 22 23  2  0
 22 25  1  0
M  END
$$$$
