ESE.pdb
     RDKit          3D

 25 24  0  0  1  0  0  0  0  0999 V2000
    8.8520  -17.1404   16.9556 N   0  0  0  0  0  0  0  0  0  0  0  0
    8.7388  -17.8022   18.2850 C   0  0  1  0  0  0  0  0  0  0  0  0
    9.5878  -19.0265   18.1531 C   0  0  0  0  0  0  0  0  0  0  0  0
   10.3035  -19.2816   16.8980 C   0  0  0  0  0  0  0  0  0  0  0  0
   11.5146  -20.0938   16.9269 C   0  0  0  0  0  0  0  0  0  0  0  0
   11.4447  -21.3688   16.9233 O   0  0  0  0  0  0  0  0  0  0  0  0
    9.2505  -16.8813   19.3143 C   0  0  0  0  0  0  0  0  0  0  0  0
   10.4527  -16.5490   19.3157 O   0  0  0  0  0  0  0  0  0  0  0  0
   12.7740  -19.4923   16.9572 O   0  0  0  0  0  0  0  0  0  0  0  0
    6.9647  -15.7174   22.6869 O   0  0  0  0  0  0  0  0  0  0  0  0
    7.7494  -14.7734   22.0213 C   0  0  0  0  0  0  0  0  0  0  0  0
    8.9366  -15.4449   21.3783 C   0  0  2  0  0  0  0  0  0  0  0  0
    8.4457  -16.3230   20.3449 N   0  0  0  0  0  0  0  0  0  0  0  0
    9.8216  -16.1369   22.3398 C   0  0  0  0  0  0  0  0  0  0  0  0
    9.8185  -17.4013   22.2903 O   0  0  0  0  0  0  0  0  0  0  0  0
   10.6443  -15.4862   23.2816 N   0  0  0  0  0  0  0  0  0  0  0  0
   11.5464  -16.2246   24.2030 C   0  0  1  0  0  0  0  0  0  0  0  0
   12.9034  -16.1149   23.6072 C   0  0  0  0  0  0  0  0  0  0  0  0
   13.9751  -16.8153   24.3727 C   0  0  0  0  0  0  0  0  0  0  0  0
   15.3223  -16.7018   23.7905 C   0  0  0  0  0  0  0  0  0  0  0  0
   15.9420  -17.7479   23.4755 O   0  0  0  0  0  0  0  0  0  0  0  0
   11.3101  -15.9296   25.5853 C   0  0  0  0  0  0  0  0  0  0  0  0
   10.6268  -14.9019   25.9097 O   0  0  0  0  0  0  0  0  0  0  0  0
   15.9195  -15.4813   23.5813 O   0  0  0  0  0  0  0  0  0  0  0  0
   11.7967  -16.7398   26.6241 O   0  0  0  0  0  0  0  0  0  0  0  0
  2  1  1  6
  3  2  1  0
  4  3  1  0
  5  9  1  0
  5  4  1  0
  6  5  2  0
  7  2  1  0
  7  8  2  0
 10 11  1  0
 12 11  1  1
 12 13  1  0
 12 14  1  0
 13  7  1  0
 14 16  1  0
 15 14  2  0
 16 17  1  0
 17 22  1  0
 18 19  1  0
 17 18  1  6
 19 20  1  0
 20 21  2  0
 20 24  1  0
 22 23  2  0
 22 25  1  0
M  END
$$$$
