ESE.pdb
     RDKit          3D

 25 24  0  0  1  0  0  0  0  0999 V2000
    8.2550  -13.2171   19.8646 N   0  0  0  0  0  0  0  0  0  0  0  0
    7.3348  -13.8492   20.8503 C   0  0  1  0  0  0  0  0  0  0  0  0
    7.0505  -15.1970   20.2672 C   0  0  0  0  0  0  0  0  0  0  0  0
    8.1229  -16.1953   20.1903 C   0  0  0  0  0  0  0  0  0  0  0  0
    7.8282  -17.5080   19.6272 C   0  0  0  0  0  0  0  0  0  0  0  0
    6.6638  -17.7782   19.1781 O   0  0  0  0  0  0  0  0  0  0  0  0
    8.0260  -13.9413   22.1476 C   0  0  0  0  0  0  0  0  0  0  0  0
    9.2613  -14.1090   22.1887 O   0  0  0  0  0  0  0  0  0  0  0  0
    8.8144  -18.4940   19.5669 O   0  0  0  0  0  0  0  0  0  0  0  0
    5.9409  -14.1859   25.8283 O   0  0  0  0  0  0  0  0  0  0  0  0
    7.1014  -13.4149   25.7348 C   0  0  0  0  0  0  0  0  0  0  0  0
    8.0190  -13.9825   24.6814 C   0  0  2  0  0  0  0  0  0  0  0  0
    7.3647  -13.8505   23.4030 N   0  0  0  0  0  0  0  0  0  0  0  0
    8.4554  -15.3683   24.9567 C   0  0  0  0  0  0  0  0  0  0  0  0
    7.8328  -16.2817   24.3410 O   0  0  0  0  0  0  0  0  0  0  0  0
    9.4956  -15.7190   25.8413 N   0  0  0  0  0  0  0  0  0  0  0  0
    9.8626  -17.1302   26.1270 C   0  0  1  0  0  0  0  0  0  0  0  0
   10.6933  -17.5684   24.9753 C   0  0  0  0  0  0  0  0  0  0  0  0
   12.0055  -16.8693   24.8558 C   0  0  0  0  0  0  0  0  0  0  0  0
   12.8188  -17.2795   23.6994 C   0  0  0  0  0  0  0  0  0  0  0  0
   13.4538  -16.4059   23.0583 O   0  0  0  0  0  0  0  0  0  0  0  0
   10.2865  -17.3432   27.4792 C   0  0  0  0  0  0  0  0  0  0  0  0
   10.3706  -16.3561   28.2836 O   0  0  0  0  0  0  0  0  0  0  0  0
   12.9025  -18.5933   23.3035 O   0  0  0  0  0  0  0  0  0  0  0  0
   10.6124  -18.6154   27.9768 O   0  0  0  0  0  0  0  0  0  0  0  0
  2  1  1  6
  3  2  1  0
  4  3  1  0
  5  9  1  0
  5  4  1  0
  6  5  2  0
  7  2  1  0
  7  8  2  0
 10 11  1  0
 12 11  1  1
 12 13  1  0
 12 14  1  0
 13  7  1  0
 14 16  1  0
 15 14  2  0
 16 17  1  0
 17 22  1  0
 18 19  1  0
 17 18  1  6
 19 20  1  0
 20 21  2  0
 20 24  1  0
 22 23  2  0
 22 25  1  0
M  END
$$$$
