ESE.pdb
     RDKit          3D

 25 24  0  0  1  0  0  0  0  0999 V2000
    7.6824  -18.6816   18.6739 N   0  0  0  0  0  0  0  0  0  0  0  0
    9.1708  -18.6794   18.6242 C   0  0  1  0  0  0  0  0  0  0  0  0
    9.4841  -18.5296   17.1693 C   0  0  0  0  0  0  0  0  0  0  0  0
    8.6709  -17.6328   16.3405 C   0  0  0  0  0  0  0  0  0  0  0  0
    9.0668  -17.3954   14.9570 C   0  0  0  0  0  0  0  0  0  0  0  0
    8.4059  -16.5898   14.2189 O   0  0  0  0  0  0  0  0  0  0  0  0
    9.6666  -17.5419   19.4178 C   0  0  0  0  0  0  0  0  0  0  0  0
   10.8705  -17.2198   19.3664 O   0  0  0  0  0  0  0  0  0  0  0  0
   10.1773  -18.0435   14.4136 O   0  0  0  0  0  0  0  0  0  0  0  0
    7.3523  -15.8393   22.5479 O   0  0  0  0  0  0  0  0  0  0  0  0
    8.1679  -15.0210   21.7637 C   0  0  0  0  0  0  0  0  0  0  0  0
    9.3414  -15.8083   21.2372 C   0  0  2  0  0  0  0  0  0  0  0  0
    8.8440  -16.7554   20.2700 N   0  0  0  0  0  0  0  0  0  0  0  0
   10.1513  -16.4486   22.2958 C   0  0  0  0  0  0  0  0  0  0  0  0
    9.9639  -17.6880   22.4686 O   0  0  0  0  0  0  0  0  0  0  0  0
   11.0928  -15.7753   23.1006 N   0  0  0  0  0  0  0  0  0  0  0  0
   11.9596  -16.4805   24.0801 C   0  0  1  0  0  0  0  0  0  0  0  0
   13.3547  -16.2222   23.6381 C   0  0  0  0  0  0  0  0  0  0  0  0
   14.4018  -16.8697   24.4802 C   0  0  0  0  0  0  0  0  0  0  0  0
   15.7863  -16.5562   24.0906 C   0  0  0  0  0  0  0  0  0  0  0  0
   16.1725  -15.3613   24.1160 O   0  0  0  0  0  0  0  0  0  0  0  0
   11.5566  -16.2807   25.4406 C   0  0  0  0  0  0  0  0  0  0  0  0
   10.7517  -15.3353   25.7346 O   0  0  0  0  0  0  0  0  0  0  0  0
   16.6678  -17.5365   23.7010 O   0  0  0  0  0  0  0  0  0  0  0  0
   12.0071  -17.0991   26.4894 O   0  0  0  0  0  0  0  0  0  0  0  0
  2  1  1  6
  3  2  1  0
  4  3  1  0
  5  9  1  0
  5  4  1  0
  6  5  2  0
  7  2  1  0
  7  8  2  0
 10 11  1  0
 12 11  1  1
 12 13  1  0
 12 14  1  0
 13  7  1  0
 14 16  1  0
 15 14  2  0
 16 17  1  0
 17 22  1  0
 18 19  1  0
 17 18  1  1
 19 20  1  0
 20 21  2  0
 20 24  1  0
 22 23  2  0
 22 25  1  0
M  END
$$$$
