ESE.pdb
     RDKit          3D

 25 24  0  0  1  0  0  0  0  0999 V2000
   11.3364  -16.2750   17.2386 N   0  0  0  0  0  0  0  0  0  0  0  0
   12.7037  -16.5478   16.7152 C   0  0  1  0  0  0  0  0  0  0  0  0
   13.3231  -15.1915   16.5968 C   0  0  0  0  0  0  0  0  0  0  0  0
   14.4565  -14.8337   17.4570 C   0  0  0  0  0  0  0  0  0  0  0  0
   15.0590  -13.5126   17.3200 C   0  0  0  0  0  0  0  0  0  0  0  0
   16.2452  -13.3810   16.8660 O   0  0  0  0  0  0  0  0  0  0  0  0
   13.4165  -17.4000   17.6822 C   0  0  0  0  0  0  0  0  0  0  0  0
   13.0310  -17.4607   18.8669 O   0  0  0  0  0  0  0  0  0  0  0  0
   14.3493  -12.3660   17.6810 O   0  0  0  0  0  0  0  0  0  0  0  0
   15.8961  -21.3707   18.4406 O   0  0  0  0  0  0  0  0  0  0  0  0
   15.3098  -20.4394   17.5812 C   0  0  0  0  0  0  0  0  0  0  0  0
   15.2068  -19.0974   18.2613 C   0  0  2  0  0  0  0  0  0  0  0  0
   14.5540  -18.1870   17.3530 N   0  0  0  0  0  0  0  0  0  0  0  0
   16.5012  -18.5791   18.7537 C   0  0  0  0  0  0  0  0  0  0  0  0
   17.1828  -17.9053   17.9274 O   0  0  0  0  0  0  0  0  0  0  0  0
   17.0044  -18.7877   20.0539 N   0  0  0  0  0  0  0  0  0  0  0  0
   18.3052  -18.2315   20.5085 C   0  0  1  0  0  0  0  0  0  0  0  0
   18.1053  -17.8604   21.9335 C   0  0  0  0  0  0  0  0  0  0  0  0
   18.3711  -16.4258   22.2438 C   0  0  0  0  0  0  0  0  0  0  0  0
   18.2239  -16.0652   23.6633 C   0  0  0  0  0  0  0  0  0  0  0  0
   19.2392  -16.0673   24.4028 O   0  0  0  0  0  0  0  0  0  0  0  0
   19.4325  -19.0105   20.0891 C   0  0  0  0  0  0  0  0  0  0  0  0
   19.2787  -20.2389   19.7801 O   0  0  0  0  0  0  0  0  0  0  0  0
   17.0051  -15.7252   24.2007 O   0  0  0  0  0  0  0  0  0  0  0  0
   20.7265  -18.4735   19.9903 O   0  0  0  0  0  0  0  0  0  0  0  0
  2  1  1  1
  3  2  1  0
  4  3  1  0
  5  9  1  0
  5  4  1  0
  6  5  2  0
  7  2  1  0
  7  8  2  0
 10 11  1  0
 12 11  1  6
 12 13  1  0
 12 14  1  0
 13  7  1  0
 14 16  1  0
 15 14  2  0
 16 17  1  0
 17 22  1  0
 18 19  1  0
 17 18  1  1
 19 20  1  0
 20 21  2  0
 20 24  1  0
 22 23  2  0
 22 25  1  0
M  END
$$$$
