ESE.pdb
     RDKit          3D

 25 24  0  0  1  0  0  0  0  0999 V2000
   11.7483  -18.9520   16.9215 N   0  0  0  0  0  0  0  0  0  0  0  0
   11.3921  -19.9018   18.0119 C   0  0  1  0  0  0  0  0  0  0  0  0
   12.4655  -20.9417   17.9509 C   0  0  0  0  0  0  0  0  0  0  0  0
   13.8682  -20.5303   17.8254 C   0  0  0  0  0  0  0  0  0  0  0  0
   14.9032  -21.5559   17.7624 C   0  0  0  0  0  0  0  0  0  0  0  0
   16.0089  -21.4053   18.3830 O   0  0  0  0  0  0  0  0  0  0  0  0
   11.3988  -19.1730   19.2918 C   0  0  0  0  0  0  0  0  0  0  0  0
   12.2158  -18.2501   19.4828 O   0  0  0  0  0  0  0  0  0  0  0  0
   14.7039  -22.7233   17.0233 O   0  0  0  0  0  0  0  0  0  0  0  0
    8.3499  -19.6400   22.1801 O   0  0  0  0  0  0  0  0  0  0  0  0
    9.0264  -18.4429   21.9374 C   0  0  0  0  0  0  0  0  0  0  0  0
   10.4711  -18.7202   21.6061 C   0  0  2  0  0  0  0  0  0  0  0  0
   10.5103  -19.4546   20.3655 N   0  0  0  0  0  0  0  0  0  0  0  0
   11.2109  -19.3984   22.6922 C   0  0  0  0  0  0  0  0  0  0  0  0
   11.9447  -20.3691   22.3455 O   0  0  0  0  0  0  0  0  0  0  0  0
   11.1459  -19.0352   24.0528 N   0  0  0  0  0  0  0  0  0  0  0  0
   11.8963  -19.7586   25.1119 C   0  0  1  0  0  0  0  0  0  0  0  0
   13.2861  -19.8858   24.6014 C   0  0  0  0  0  0  0  0  0  0  0  0
   13.8315  -21.2738   24.6271 C   0  0  0  0  0  0  0  0  0  0  0  0
   15.2363  -21.3915   24.2033 C   0  0  0  0  0  0  0  0  0  0  0  0
   15.8760  -20.3505   23.9124 O   0  0  0  0  0  0  0  0  0  0  0  0
   11.6256  -19.2713   26.4320 C   0  0  0  0  0  0  0  0  0  0  0  0
   10.9572  -18.1959   26.5896 O   0  0  0  0  0  0  0  0  0  0  0  0
   15.8667  -22.6102   24.1187 O   0  0  0  0  0  0  0  0  0  0  0  0
   12.0619  -19.9396   27.5877 O   0  0  0  0  0  0  0  0  0  0  0  0
  2  1  1  6
  3  2  1  0
  4  3  1  0
  5  9  1  0
  5  4  1  0
  6  5  2  0
  7  2  1  0
  7  8  2  0
 10 11  1  0
 12 11  1  1
 12 13  1  0
 12 14  1  0
 13  7  1  0
 14 16  1  0
 15 14  2  0
 16 17  1  0
 17 22  1  0
 18 19  1  0
 17 18  1  6
 19 20  1  0
 20 21  2  0
 20 24  1  0
 22 23  2  0
 22 25  1  0
M  END
$$$$
