ILD.pdb
     RDKit          3D

 25 24  0  0  1  0  0  0  0  0999 V2000
   16.3739  -14.0065  -19.5462 C   0  0  0  0  0  0  0  0  0  0  0  0
   17.3763  -12.9001  -19.7101 C   0  0  0  0  0  0  0  0  0  0  0  0
   17.4434  -11.9460  -18.5612 C   0  0  2  0  0  0  0  0  0  0  0  0
   16.0554  -11.3643  -18.3666 C   0  0  0  0  0  0  0  0  0  0  0  0
   18.4674  -10.8637  -18.7981 C   0  0  2  0  0  0  0  0  0  0  0  0
   19.7159  -11.5199  -19.2871 N   0  0  0  0  0  0  0  0  0  0  0  0
   18.8857  -10.1498  -17.5723 C   0  0  0  0  0  0  0  0  0  0  0  0
   18.0329   -9.4517  -16.9118 O   0  0  0  0  0  0  0  0  0  0  0  0
   23.8925   -9.8183  -14.0340 C   0  0  0  0  0  0  0  0  0  0  0  0
   22.5066   -9.1776  -14.2472 C   0  0  2  0  0  0  0  0  0  0  0  0
   21.8220   -9.1777  -12.9261 C   0  0  0  0  0  0  0  0  0  0  0  0
   21.8105   -9.8834  -15.3389 C   0  0  0  0  0  0  0  0  0  0  0  0
   20.5173   -9.3155  -15.8217 C   0  0  2  0  0  0  0  0  0  0  0  0
   20.1777  -10.1452  -17.0091 N   0  0  0  0  0  0  0  0  0  0  0  0
   20.5975   -7.9038  -16.2694 C   0  0  0  0  0  0  0  0  0  0  0  0
   21.1120   -7.6428  -17.4018 O   0  0  0  0  0  0  0  0  0  0  0  0
   20.1440   -6.8004  -15.5411 N   0  0  0  0  0  0  0  0  0  0  0  0
   20.1112   -5.4417  -16.1096 C   0  0  1  0  0  0  0  0  0  0  0  0
   19.3491   -5.4046  -17.3853 C   0  0  0  0  0  0  0  0  0  0  0  0
   19.2031   -4.0176  -17.8493 C   0  0  0  0  0  0  0  0  0  0  0  0
   20.1736   -3.2692  -18.0927 O   0  0  0  0  0  0  0  0  0  0  0  0
   19.4855   -4.5337  -15.1239 C   0  0  0  0  0  0  0  0  0  0  0  0
   18.9141   -4.9861  -13.9593 O   0  0  0  0  0  0  0  0  0  0  0  0
   17.9288   -3.5120  -18.0267 O   0  0  0  0  0  0  0  0  0  0  0  0
   19.4571   -3.2883  -15.3313 O   0  0  0  0  0  0  0  0  0  0  0  0
  2  1  1  0
  3  2  1  0
  3  4  1  6
  3  5  1  0
  5  6  1  1
  7  8  2  0
  7  5  1  0
 10  9  1  1
 10 12  1  0
 11 10  1  0
 13 12  1  6
 13 14  1  0
 14  7  1  0
 15 13  1  0
 16 15  2  0
 17 15  1  0
 18 22  1  0
 18 17  1  0
 19 20  1  0
 18 19  1  6
 20 24  1  0
 21 20  2  0
 22 23  1  0
 25 22  2  0
M  END
$$$$
