ILD.pdb
     RDKit          3D

 25 24  0  0  1  0  0  0  0  0999 V2000
   15.5367  -10.3896  -19.5927 C   0  0  0  0  0  0  0  0  0  0  0  0
   16.8243  -11.0863  -19.2574 C   0  0  0  0  0  0  0  0  0  0  0  0
   17.6111  -10.4455  -18.1596 C   0  0  2  0  0  0  0  0  0  0  0  0
   18.0730   -9.0888  -18.6583 C   0  0  0  0  0  0  0  0  0  0  0  0
   18.7770  -11.3051  -17.7381 C   0  0  2  0  0  0  0  0  0  0  0  0
   18.2250  -12.5639  -17.1557 N   0  0  0  0  0  0  0  0  0  0  0  0
   19.5918  -10.7250  -16.6487 C   0  0  0  0  0  0  0  0  0  0  0  0
   19.1792  -10.7876  -15.4335 O   0  0  0  0  0  0  0  0  0  0  0  0
   22.7830  -11.4215  -13.7389 C   0  0  0  0  0  0  0  0  0  0  0  0
   23.1546  -11.3290  -15.2322 C   0  0  2  0  0  0  0  0  0  0  0  0
   24.5476  -11.8352  -15.3636 C   0  0  0  0  0  0  0  0  0  0  0  0
   22.9169   -9.9526  -15.7052 C   0  0  0  0  0  0  0  0  0  0  0  0
   21.5216   -9.4263  -15.6426 C   0  0  2  0  0  0  0  0  0  0  0  0
   20.8362  -10.0785  -16.7908 N   0  0  0  0  0  0  0  0  0  0  0  0
   21.4115   -7.9591  -15.8294 C   0  0  0  0  0  0  0  0  0  0  0  0
   21.7210   -7.4543  -16.9540 O   0  0  0  0  0  0  0  0  0  0  0  0
   20.9839   -7.0525  -14.8554 N   0  0  0  0  0  0  0  0  0  0  0  0
   20.9065   -5.6033  -15.1088 C   0  0  1  0  0  0  0  0  0  0  0  0
   19.5094   -5.1069  -15.0032 C   0  0  0  0  0  0  0  0  0  0  0  0
   19.4584   -3.6676  -15.2963 C   0  0  0  0  0  0  0  0  0  0  0  0
   20.0143   -3.1485  -16.2877 O   0  0  0  0  0  0  0  0  0  0  0  0
   21.7630   -4.9067  -14.1246 C   0  0  0  0  0  0  0  0  0  0  0  0
   22.1541   -3.5987  -14.2785 O   0  0  0  0  0  0  0  0  0  0  0  0
   18.7609   -2.8429  -14.4335 O   0  0  0  0  0  0  0  0  0  0  0  0
   22.1692   -5.5098  -13.0920 O   0  0  0  0  0  0  0  0  0  0  0  0
  2  1  1  0
  3  2  1  0
  3  4  1  6
  3  5  1  0
  5  6  1  1
  7  8  2  0
  7  5  1  0
 10  9  1  1
 10 12  1  0
 11 10  1  0
 13 12  1  6
 13 14  1  0
 14  7  1  0
 15 13  1  0
 16 15  2  0
 17 15  1  0
 18 22  1  0
 18 17  1  0
 19 20  1  0
 18 19  1  1
 20 24  1  0
 21 20  2  0
 22 23  1  0
 25 22  2  0
M  END
$$$$
