ILD.pdb
     RDKit          3D

 25 24  0  0  1  0  0  0  0  0999 V2000
   18.3650  -21.0750  -14.4081 C   0  0  0  0  0  0  0  0  0  0  0  0
   19.6949  -21.6168  -14.8481 C   0  0  0  0  0  0  0  0  0  0  0  0
   20.8740  -20.8217  -14.3876 C   0  0  2  0  0  0  0  0  0  0  0  0
   20.6261  -19.3732  -14.7657 C   0  0  0  0  0  0  0  0  0  0  0  0
   22.1589  -21.3368  -14.9873 C   0  0  2  0  0  0  0  0  0  0  0  0
   22.3494  -22.7400  -14.5147 N   0  0  0  0  0  0  0  0  0  0  0  0
   23.3697  -20.6268  -14.5216 C   0  0  0  0  0  0  0  0  0  0  0  0
   23.5259  -19.3794  -14.7871 O   0  0  0  0  0  0  0  0  0  0  0  0
   24.4064  -19.7488  -10.7072 C   0  0  0  0  0  0  0  0  0  0  0  0
   24.9971  -21.1157  -11.1064 C   0  0  2  0  0  0  0  0  0  0  0  0
   25.4065  -21.7945   -9.8473 C   0  0  0  0  0  0  0  0  0  0  0  0
   26.0599  -20.9092  -12.1077 C   0  0  0  0  0  0  0  0  0  0  0  0
   25.6587  -20.4096  -13.4557 C   0  0  2  0  0  0  0  0  0  0  0  0
   24.4299  -21.1838  -13.7784 N   0  0  0  0  0  0  0  0  0  0  0  0
   26.6497  -20.6747  -14.5270 C   0  0  0  0  0  0  0  0  0  0  0  0
   27.7577  -20.0523  -14.5117 O   0  0  0  0  0  0  0  0  0  0  0  0
   26.4746  -21.5742  -15.5823 N   0  0  0  0  0  0  0  0  0  0  0  0
   27.4569  -21.7104  -16.6717 C   0  0  1  0  0  0  0  0  0  0  0  0
   27.5124  -23.1054  -17.1822 C   0  0  0  0  0  0  0  0  0  0  0  0
   28.8140  -23.7103  -16.8659 C   0  0  0  0  0  0  0  0  0  0  0  0
   29.7477  -23.0845  -16.3203 O   0  0  0  0  0  0  0  0  0  0  0  0
   27.0779  -20.7898  -17.7654 C   0  0  0  0  0  0  0  0  0  0  0  0
   28.0047  -20.0810  -18.4908 O   0  0  0  0  0  0  0  0  0  0  0  0
   29.0194  -25.0391  -17.1871 O   0  0  0  0  0  0  0  0  0  0  0  0
   25.8632  -20.6247  -18.0687 O   0  0  0  0  0  0  0  0  0  0  0  0
  2  1  1  0
  3  2  1  0
  3  4  1  6
  3  5  1  0
  5  6  1  1
  7  8  2  0
  7  5  1  0
 10  9  1  1
 10 12  1  0
 11 10  1  0
 13 12  1  1
 13 14  1  0
 14  7  1  0
 15 13  1  0
 16 15  2  0
 17 15  1  0
 18 22  1  0
 18 17  1  0
 19 20  1  0
 18 19  1  6
 20 24  1  0
 21 20  2  0
 22 23  1  0
 25 22  2  0
M  END
$$$$
