ILD.pdb
     RDKit          3D

 25 24  0  0  1  0  0  0  0  0999 V2000
   23.2394  -41.2434   -7.8280 C   0  0  0  0  0  0  0  0  0  0  0  0
   23.1365  -39.8499   -8.3788 C   0  0  0  0  0  0  0  0  0  0  0  0
   24.2177  -38.9211   -7.9280 C   0  0  2  0  0  0  0  0  0  0  0  0
   24.1878  -38.8845   -6.4114 C   0  0  0  0  0  0  0  0  0  0  0  0
   24.0464  -37.5429   -8.5172 C   0  0  2  0  0  0  0  0  0  0  0  0
   24.2494  -37.6518   -9.9921 N   0  0  0  0  0  0  0  0  0  0  0  0
   25.0681  -36.5677   -8.0786 C   0  0  0  0  0  0  0  0  0  0  0  0
   26.2452  -36.5942   -8.5931 O   0  0  0  0  0  0  0  0  0  0  0  0
   26.8225  -32.6979   -8.8624 C   0  0  0  0  0  0  0  0  0  0  0  0
   25.4067  -32.7934   -8.2599 C   0  0  2  0  0  0  0  0  0  0  0  0
   24.7742  -31.4570   -8.4274 C   0  0  0  0  0  0  0  0  0  0  0  0
   25.5026  -33.2973   -6.8773 C   0  0  0  0  0  0  0  0  0  0  0  0
   26.0188  -34.6833   -6.6759 C   0  0  2  0  0  0  0  0  0  0  0  0
   24.8957  -35.5556   -7.1130 N   0  0  0  0  0  0  0  0  0  0  0  0
   26.3274  -35.0229   -5.2654 C   0  0  0  0  0  0  0  0  0  0  0  0
   25.3705  -35.2600   -4.4633 O   0  0  0  0  0  0  0  0  0  0  0  0
   27.6112  -35.1116   -4.7202 N   0  0  0  0  0  0  0  0  0  0  0  0
   27.8468  -35.5142   -3.3228 C   0  0  1  0  0  0  0  0  0  0  0  0
   29.2461  -35.9719   -3.1177 C   0  0  0  0  0  0  0  0  0  0  0  0
   29.4397  -36.4055   -1.7267 C   0  0  0  0  0  0  0  0  0  0  0  0
   30.5506  -36.7326   -1.2576 O   0  0  0  0  0  0  0  0  0  0  0  0
   27.5625  -34.3582   -2.4452 C   0  0  0  0  0  0  0  0  0  0  0  0
   27.4166  -34.4801   -1.0846 O   0  0  0  0  0  0  0  0  0  0  0  0
   28.3389  -36.4552   -0.8920 O   0  0  0  0  0  0  0  0  0  0  0  0
   27.4414  -33.2001   -2.9341 O   0  0  0  0  0  0  0  0  0  0  0  0
  2  1  1  0
  3  2  1  0
  3  4  1  1
  3  5  1  0
  5  6  1  6
  7  8  2  0
  7  5  1  0
 10  9  1  1
 10 12  1  0
 11 10  1  0
 13 12  1  1
 13 14  1  0
 14  7  1  0
 15 13  1  0
 16 15  2  0
 17 15  1  0
 18 22  1  0
 18 17  1  0
 19 20  1  0
 18 19  1  6
 20 24  1  0
 21 20  2  0
 22 23  1  0
 25 22  2  0
M  END
$$$$
