ILD.pdb
     RDKit          3D

 25 24  0  0  1  0  0  0  0  0999 V2000
   16.2026  -13.9409  -17.1185 C   0  0  0  0  0  0  0  0  0  0  0  0
   16.9909  -12.7706  -17.6332 C   0  0  0  0  0  0  0  0  0  0  0  0
   17.6879  -11.9764  -16.5758 C   0  0  2  0  0  0  0  0  0  0  0  0
   16.6348  -11.4948  -15.5952 C   0  0  0  0  0  0  0  0  0  0  0  0
   18.4604  -10.8232  -17.1669 C   0  0  2  0  0  0  0  0  0  0  0  0
   19.3126  -11.3646  -18.2665 N   0  0  0  0  0  0  0  0  0  0  0  0
   19.4222  -10.1990  -16.2328 C   0  0  0  0  0  0  0  0  0  0  0  0
   19.0153   -9.7341  -15.1062 O   0  0  0  0  0  0  0  0  0  0  0  0
   23.5065  -11.2052  -13.9250 C   0  0  0  0  0  0  0  0  0  0  0  0
   23.4947  -11.0910  -15.4623 C   0  0  2  0  0  0  0  0  0  0  0  0
   24.8431  -11.5036  -15.9373 C   0  0  0  0  0  0  0  0  0  0  0  0
   23.0596   -9.7344  -15.8430 C   0  0  0  0  0  0  0  0  0  0  0  0
   21.6743   -9.3186  -15.4743 C   0  0  2  0  0  0  0  0  0  0  0  0
   20.8080  -10.0468  -16.4400 N   0  0  0  0  0  0  0  0  0  0  0  0
   21.4064   -7.8688  -15.6365 C   0  0  0  0  0  0  0  0  0  0  0  0
   21.0247   -7.4337  -16.7680 O   0  0  0  0  0  0  0  0  0  0  0  0
   21.5362   -6.9077  -14.6301 N   0  0  0  0  0  0  0  0  0  0  0  0
   21.2684   -5.4786  -14.8673 C   0  0  1  0  0  0  0  0  0  0  0  0
   19.8161   -5.1752  -14.7757 C   0  0  0  0  0  0  0  0  0  0  0  0
   19.5844   -3.7372  -14.9728 C   0  0  0  0  0  0  0  0  0  0  0  0
   19.4063   -2.9350  -14.0315 O   0  0  0  0  0  0  0  0  0  0  0  0
   22.0115   -4.6871  -13.8629 C   0  0  0  0  0  0  0  0  0  0  0  0
   22.4520   -3.4087  -14.1062 O   0  0  0  0  0  0  0  0  0  0  0  0
   19.5618   -3.2435  -16.2638 O   0  0  0  0  0  0  0  0  0  0  0  0
   22.2690   -5.1768  -12.7276 O   0  0  0  0  0  0  0  0  0  0  0  0
  2  1  1  0
  3  2  1  0
  3  4  1  1
  3  5  1  0
  5  6  1  6
  7  8  2  0
  7  5  1  0
 10  9  1  1
 10 12  1  0
 11 10  1  0
 13 12  1  6
 13 14  1  0
 14  7  1  0
 15 13  1  0
 16 15  2  0
 17 15  1  0
 18 22  1  0
 18 17  1  0
 19 20  1  0
 18 19  1  1
 20 24  1  0
 21 20  2  0
 22 23  1  0
 25 22  2  0
M  END
$$$$
