ILD.pdb
     RDKit          3D

 25 24  0  0  1  0  0  0  0  0999 V2000
   24.0562  -41.9596   -5.8738 C   0  0  0  0  0  0  0  0  0  0  0  0
   24.3068  -40.5366   -6.2838 C   0  0  0  0  0  0  0  0  0  0  0  0
   24.8872  -39.6728   -5.2106 C   0  0  2  0  0  0  0  0  0  0  0  0
   23.9464  -39.7253   -4.0211 C   0  0  0  0  0  0  0  0  0  0  0  0
   25.0938  -38.2571   -5.6891 C   0  0  2  0  0  0  0  0  0  0  0  0
   26.1089  -38.2919   -6.7831 N   0  0  0  0  0  0  0  0  0  0  0  0
   25.6813  -37.3564   -4.6738 C   0  0  0  0  0  0  0  0  0  0  0  0
   26.9451  -37.3844   -4.4435 O   0  0  0  0  0  0  0  0  0  0  0  0
   27.1368  -33.1834   -4.0395 C   0  0  0  0  0  0  0  0  0  0  0  0
   25.6246  -33.3990   -4.2476 C   0  0  2  0  0  0  0  0  0  0  0  0
   25.0184  -32.0541   -4.4412 C   0  0  0  0  0  0  0  0  0  0  0  0
   25.0913  -34.1962   -3.1275 C   0  0  0  0  0  0  0  0  0  0  0  0
   25.6757  -35.5501   -2.8963 C   0  0  2  0  0  0  0  0  0  0  0  0
   24.9838  -36.4177   -3.8873 N   0  0  0  0  0  0  0  0  0  0  0  0
   25.4107  -36.1095   -1.5485 C   0  0  0  0  0  0  0  0  0  0  0  0
   24.2708  -36.6147   -1.3021 O   0  0  0  0  0  0  0  0  0  0  0  0
   26.3261  -36.1361   -0.4927 N   0  0  0  0  0  0  0  0  0  0  0  0
   26.0140  -36.7613    0.8042 C   0  0  1  0  0  0  0  0  0  0  0  0
   27.2470  -37.0234    1.5920 C   0  0  0  0  0  0  0  0  0  0  0  0
   26.9181  -37.7631    2.8187 C   0  0  0  0  0  0  0  0  0  0  0  0
   25.7604  -38.1344    3.1072 O   0  0  0  0  0  0  0  0  0  0  0  0
   25.1180  -35.8584    1.5589 C   0  0  0  0  0  0  0  0  0  0  0  0
   24.4753  -36.2456    2.7097 O   0  0  0  0  0  0  0  0  0  0  0  0
   27.9389  -38.0653    3.7006 O   0  0  0  0  0  0  0  0  0  0  0  0
   24.9130  -34.6792    1.1557 O   0  0  0  0  0  0  0  0  0  0  0  0
  2  1  1  0
  3  2  1  0
  3  4  1  1
  3  5  1  0
  5  6  1  6
  7  8  2  0
  7  5  1  0
 10  9  1  1
 10 12  1  0
 11 10  1  0
 13 12  1  1
 13 14  1  0
 14  7  1  0
 15 13  1  0
 16 15  2  0
 17 15  1  0
 18 22  1  0
 18 17  1  0
 19 20  1  0
 18 19  1  1
 20 24  1  0
 21 20  2  0
 22 23  1  0
 25 22  2  0
M  END
$$$$
