ILD.pdb
     RDKit          3D

 25 24  0  0  1  0  0  0  0  0999 V2000
   17.5664  -10.4687  -20.1677 C   0  0  0  0  0  0  0  0  0  0  0  0
   18.8479  -11.1233  -19.7376 C   0  0  0  0  0  0  0  0  0  0  0  0
   19.5879  -10.3956  -18.6618 C   0  0  2  0  0  0  0  0  0  0  0  0
   20.0129   -9.0524  -19.2256 C   0  0  0  0  0  0  0  0  0  0  0  0
   20.7738  -11.1883  -18.1704 C   0  0  2  0  0  0  0  0  0  0  0  0
   20.2536  -12.4326  -17.5304 N   0  0  0  0  0  0  0  0  0  0  0  0
   21.5440  -10.5207  -17.0988 C   0  0  0  0  0  0  0  0  0  0  0  0
   21.0421  -10.4065  -15.9216 O   0  0  0  0  0  0  0  0  0  0  0  0
   25.3377  -10.8729  -14.6911 C   0  0  0  0  0  0  0  0  0  0  0  0
   25.5684  -10.4587  -16.1579 C   0  0  2  0  0  0  0  0  0  0  0  0
   27.0382  -10.4819  -16.3882 C   0  0  0  0  0  0  0  0  0  0  0  0
   24.8924   -9.1723  -16.4091 C   0  0  0  0  0  0  0  0  0  0  0  0
   23.4220   -9.0991  -16.1635 C   0  0  2  0  0  0  0  0  0  0  0  0
   22.8342   -9.9666  -17.2197 N   0  0  0  0  0  0  0  0  0  0  0  0
   22.8413   -7.7436  -16.3222 C   0  0  0  0  0  0  0  0  0  0  0  0
   22.7781   -7.2304  -17.4832 O   0  0  0  0  0  0  0  0  0  0  0  0
   22.3396   -6.9550  -15.2831 N   0  0  0  0  0  0  0  0  0  0  0  0
   21.7261   -5.6369  -15.5209 C   0  0  1  0  0  0  0  0  0  0  0  0
   20.2457   -5.7351  -15.6130 C   0  0  0  0  0  0  0  0  0  0  0  0
   19.6615   -4.4047  -15.8347 C   0  0  0  0  0  0  0  0  0  0  0  0
   20.2238   -3.5103  -16.5016 O   0  0  0  0  0  0  0  0  0  0  0  0
   22.1017   -4.7352  -14.4103 C   0  0  0  0  0  0  0  0  0  0  0  0
   21.9838   -3.3690  -14.4939 O   0  0  0  0  0  0  0  0  0  0  0  0
   18.4271   -4.1253  -15.2785 O   0  0  0  0  0  0  0  0  0  0  0  0
   22.5534   -5.2075  -13.3296 O   0  0  0  0  0  0  0  0  0  0  0  0
  2  1  1  0
  3  2  1  0
  3  4  1  6
  3  5  1  0
  5  6  1  1
  7  8  2  0
  7  5  1  0
 10  9  1  1
 10 12  1  0
 11 10  1  0
 13 12  1  6
 13 14  1  0
 14  7  1  0
 15 13  1  0
 16 15  2  0
 17 15  1  0
 18 22  1  0
 18 17  1  0
 19 20  1  0
 18 19  1  1
 20 24  1  0
 21 20  2  0
 22 23  1  0
 25 22  2  0
M  END
$$$$
