ILD.pdb
     RDKit          3D

 25 24  0  0  1  0  0  0  0  0999 V2000
   12.2501  -18.7801    7.0651 C   0  0  0  0  0  0  0  0  0  0  0  0
   13.0812  -18.1729    5.9712 C   0  0  0  0  0  0  0  0  0  0  0  0
   14.4431  -17.7283    6.3982 C   0  0  2  0  0  0  0  0  0  0  0  0
   14.2658  -16.7163    7.5148 C   0  0  0  0  0  0  0  0  0  0  0  0
   15.2238  -17.1475    5.2453 C   0  0  2  0  0  0  0  0  0  0  0  0
   15.4618  -18.2440    4.2607 N   0  0  0  0  0  0  0  0  0  0  0  0
   16.5797  -16.6817    5.6083 C   0  0  0  0  0  0  0  0  0  0  0  0
   17.5662  -17.5048    5.6003 O   0  0  0  0  0  0  0  0  0  0  0  0
   19.8786  -12.5362    7.3982 C   0  0  0  0  0  0  0  0  0  0  0  0
   19.7150  -12.8622    5.9004 C   0  0  2  0  0  0  0  0  0  0  0  0
   19.8571  -11.5792    5.1603 C   0  0  0  0  0  0  0  0  0  0  0  0
   18.4485  -13.5904    5.6996 C   0  0  0  0  0  0  0  0  0  0  0  0
   18.3545  -14.9826    6.2295 C   0  0  2  0  0  0  0  0  0  0  0  0
   16.9401  -15.3708    5.9800 N   0  0  0  0  0  0  0  0  0  0  0  0
   18.6014  -15.1011    7.6872 C   0  0  0  0  0  0  0  0  0  0  0  0
   17.7759  -14.5764    8.4985 O   0  0  0  0  0  0  0  0  0  0  0  0
   19.6890  -15.7580    8.2695 N   0  0  0  0  0  0  0  0  0  0  0  0
   19.8120  -15.9372    9.7266 C   0  0  1  0  0  0  0  0  0  0  0  0
   20.1168  -17.3494   10.0766 C   0  0  0  0  0  0  0  0  0  0  0  0
   20.2142  -17.5012   11.5353 C   0  0  0  0  0  0  0  0  0  0  0  0
   19.6809  -16.7129   12.3449 O   0  0  0  0  0  0  0  0  0  0  0  0
   20.8899  -15.0532   10.2206 C   0  0  0  0  0  0  0  0  0  0  0  0
   21.7812  -14.4319    9.3797 O   0  0  0  0  0  0  0  0  0  0  0  0
   20.9314  -18.5694   12.0410 O   0  0  0  0  0  0  0  0  0  0  0  0
   21.0249  -14.8414   11.4582 O   0  0  0  0  0  0  0  0  0  0  0  0
  2  1  1  0
  3  2  1  0
  3  4  1  1
  3  5  1  0
  5  6  1  6
  7  8  2  0
  7  5  1  0
 10  9  1  1
 10 12  1  0
 11 10  1  0
 13 12  1  1
 13 14  1  0
 14  7  1  0
 15 13  1  0
 16 15  2  0
 17 15  1  0
 18 22  1  0
 18 17  1  0
 19 20  1  0
 18 19  1  6
 20 24  1  0
 21 20  2  0
 22 23  1  0
 25 22  2  0
M  END
$$$$
