CCC.pdb
     RDKit          3D

 19 18  0  0  1  0  0  0  0  0999 V2000
   16.8590  -11.5480  -12.1268 N   0  0  0  0  0  0  0  0  0  0  0  0
   16.4478  -11.0173  -10.8421 C   0  0  1  0  0  0  0  0  0  0  0  0
   16.5729  -12.0613   -9.7556 C   0  0  0  0  0  0  0  0  0  0  0  0
   15.3132  -13.3392   -9.8988 S   0  0  0  0  0  0  0  0  0  0  0  0
   17.3282   -9.8595  -10.5222 C   0  0  0  0  0  0  0  0  0  0  0  0
   17.3212   -9.3261   -9.3809 O   0  0  0  0  0  0  0  0  0  0  0  0
   18.2131   -9.3037  -11.4823 N   0  0  0  0  0  0  0  0  0  0  0  0
   18.9616   -8.0503  -11.2097 C   0  0  1  0  0  0  0  0  0  0  0  0
   20.1856   -8.0325  -12.0992 C   0  0  0  0  0  0  0  0  0  0  0  0
   21.0687   -6.4660  -12.0644 S   0  0  0  0  0  0  0  0  0  0  0  0
   18.0643   -6.8893  -11.4114 C   0  0  0  0  0  0  0  0  0  0  0  0
   17.2870   -6.9116  -12.4356 O   0  0  0  0  0  0  0  0  0  0  0  0
   18.0224   -5.7781  -10.5436 N   0  0  0  0  0  0  0  0  0  0  0  0
   17.1812   -4.6295  -10.8064 C   0  0  1  0  0  0  0  0  0  0  0  0
   16.3760   -4.2091   -9.6045 C   0  0  0  0  0  0  0  0  0  0  0  0
   15.4592   -2.7028  -10.0845 S   0  0  0  0  0  0  0  0  0  0  0  0
   18.0385   -3.4801  -11.1886 C   0  0  0  0  0  0  0  0  0  0  0  0
   19.2810   -3.5431  -11.0303 O   0  0  0  0  0  0  0  0  0  0  0  0
   17.5202   -2.3157  -11.7235 O   0  0  0  0  0  0  0  0  0  0  0  0
  2  3  1  0
  2  1  1  6
  3  4  1  0
  5  2  1  0
  5  6  2  0
  7  5  1  0
  8  7  1  0
  9 10  1  0
  8  9  1  6
 11  8  1  0
 11 13  1  0
 12 11  2  0
 14 13  1  0
 14 17  1  0
 14 15  1  1
 16 15  1  0
 17 18  2  0
 17 19  1  0
M  END
$$$$
