CCC.pdb
     RDKit          3D

 19 18  0  0  1  0  0  0  0  0999 V2000
   14.7727  -11.6224  -11.1090 N   0  0  0  0  0  0  0  0  0  0  0  0
   15.9282  -10.8201  -10.7597 C   0  0  1  0  0  0  0  0  0  0  0  0
   17.0313  -10.9789  -11.7815 C   0  0  0  0  0  0  0  0  0  0  0  0
   17.6860  -12.6553  -11.8135 S   0  0  0  0  0  0  0  0  0  0  0  0
   15.4982   -9.3952  -10.7104 C   0  0  0  0  0  0  0  0  0  0  0  0
   14.6334   -8.9432  -11.5071 O   0  0  0  0  0  0  0  0  0  0  0  0
   16.0390   -8.4818   -9.7684 N   0  0  0  0  0  0  0  0  0  0  0  0
   15.4737   -7.1189   -9.6004 C   0  0  1  0  0  0  0  0  0  0  0  0
   15.2963   -6.8643   -8.1195 C   0  0  0  0  0  0  0  0  0  0  0  0
   13.9251   -7.7783   -7.3987 S   0  0  0  0  0  0  0  0  0  0  0  0
   16.3561   -6.1358  -10.2702 C   0  0  0  0  0  0  0  0  0  0  0  0
   17.6125   -6.1870  -10.0013 O   0  0  0  0  0  0  0  0  0  0  0  0
   15.8888   -5.1620  -11.1775 N   0  0  0  0  0  0  0  0  0  0  0  0
   16.7838   -4.2357  -11.8385 C   0  0  1  0  0  0  0  0  0  0  0  0
   16.6508   -4.2665  -13.3389 C   0  0  0  0  0  0  0  0  0  0  0  0
   17.0084   -5.9798  -13.8648 S   0  0  0  0  0  0  0  0  0  0  0  0
   16.4654   -2.8561  -11.3944 C   0  0  0  0  0  0  0  0  0  0  0  0
   15.3644   -2.6109  -10.8460 O   0  0  0  0  0  0  0  0  0  0  0  0
   17.3457   -1.8034  -11.5604 O   0  0  0  0  0  0  0  0  0  0  0  0
  2  3  1  0
  2  1  1  6
  3  4  1  0
  5  2  1  0
  5  6  2  0
  7  5  1  0
  8  7  1  0
  9 10  1  0
  8  9  1  1
 11  8  1  0
 11 13  1  0
 12 11  2  0
 14 13  1  0
 14 17  1  0
 14 15  1  6
 16 15  1  0
 17 18  2  0
 17 19  1  0
M  END
$$$$
