CCC.pdb
     RDKit          3D

 19 18  0  0  1  0  0  0  0  0999 V2000
   17.3572  -11.5564  -12.4890 N   0  0  0  0  0  0  0  0  0  0  0  0
   17.2409  -10.3877  -13.3385 C   0  0  1  0  0  0  0  0  0  0  0  0
   16.5998  -10.7375  -14.6624 C   0  0  0  0  0  0  0  0  0  0  0  0
   17.4427  -12.1008  -15.4816 S   0  0  0  0  0  0  0  0  0  0  0  0
   16.3979   -9.3869  -12.6275 C   0  0  0  0  0  0  0  0  0  0  0  0
   16.0216   -8.3261  -13.1932 O   0  0  0  0  0  0  0  0  0  0  0  0
   15.9796   -9.5786  -11.2850 N   0  0  0  0  0  0  0  0  0  0  0  0
   15.1088   -8.5911  -10.5979 C   0  0  1  0  0  0  0  0  0  0  0  0
   14.1062   -9.3536   -9.7596 C   0  0  0  0  0  0  0  0  0  0  0  0
   13.2261  -10.6231  -10.6810 S   0  0  0  0  0  0  0  0  0  0  0  0
   15.9498   -7.6572   -9.8142 C   0  0  0  0  0  0  0  0  0  0  0  0
   17.0661   -8.1043   -9.3586 O   0  0  0  0  0  0  0  0  0  0  0  0
   15.5887   -6.3194   -9.5502 N   0  0  0  0  0  0  0  0  0  0  0  0
   16.4972   -5.3902   -8.9118 C   0  0  1  0  0  0  0  0  0  0  0  0
   17.7827   -5.2126   -9.6772 C   0  0  0  0  0  0  0  0  0  0  0  0
   18.7815   -3.9920   -8.7541 S   0  0  0  0  0  0  0  0  0  0  0  0
   15.8459   -4.0596   -8.8260 C   0  0  0  0  0  0  0  0  0  0  0  0
   15.0454   -3.6932   -9.7192 O   0  0  0  0  0  0  0  0  0  0  0  0
   16.0854   -3.1841   -7.7835 O   0  0  0  0  0  0  0  0  0  0  0  0
  2  3  1  0
  2  1  1  1
  3  4  1  0
  5  2  1  0
  5  6  2  0
  7  5  1  0
  8  7  1  0
  9 10  1  0
  8  9  1  1
 11  8  1  0
 11 13  1  0
 12 11  2  0
 14 13  1  0
 14 17  1  0
 14 15  1  6
 16 15  1  0
 17 18  2  0
 17 19  1  0
M  END
$$$$
