CCC.pdb
     RDKit          3D

 19 18  0  0  1  0  0  0  0  0999 V2000
   24.0449  -20.2002  -16.0598 N   0  0  0  0  0  0  0  0  0  0  0  0
   22.8029  -19.7218  -15.4854 C   0  0  1  0  0  0  0  0  0  0  0  0
   21.7046  -19.6749  -16.5234 C   0  0  0  0  0  0  0  0  0  0  0  0
   21.4546  -21.2722  -17.3148 S   0  0  0  0  0  0  0  0  0  0  0  0
   22.4141  -20.6560  -14.3927 C   0  0  0  0  0  0  0  0  0  0  0  0
   22.7590  -21.8674  -14.4120 O   0  0  0  0  0  0  0  0  0  0  0  0
   21.6401  -20.2291  -13.2825 N   0  0  0  0  0  0  0  0  0  0  0  0
   21.3348  -21.1456  -12.1546 C   0  0  1  0  0  0  0  0  0  0  0  0
   21.3924  -20.3455  -10.8716 C   0  0  0  0  0  0  0  0  0  0  0  0
   19.8258  -20.3008   -9.9890 S   0  0  0  0  0  0  0  0  0  0  0  0
   20.0247  -21.7950  -12.3909 C   0  0  0  0  0  0  0  0  0  0  0  0
   19.1734  -21.1645  -13.1198 O   0  0  0  0  0  0  0  0  0  0  0  0
   19.6742  -23.0551  -11.8628 N   0  0  0  0  0  0  0  0  0  0  0  0
   18.3967  -23.6765  -12.1420 C   0  0  1  0  0  0  0  0  0  0  0  0
   18.4154  -25.1682  -11.9314 C   0  0  0  0  0  0  0  0  0  0  0  0
   19.1882  -25.4608  -10.3013 S   0  0  0  0  0  0  0  0  0  0  0  0
   17.3748  -23.1131  -11.2253 C   0  0  0  0  0  0  0  0  0  0  0  0
   17.7231  -22.3720  -10.2754 O   0  0  0  0  0  0  0  0  0  0  0  0
   16.0251  -23.3726  -11.3723 O   0  0  0  0  0  0  0  0  0  0  0  0
  2  3  1  0
  2  1  1  6
  3  4  1  0
  5  2  1  0
  5  6  2  0
  7  5  1  0
  8  7  1  0
  9 10  1  0
  8  9  1  1
 11  8  1  0
 11 13  1  0
 12 11  2  0
 14 13  1  0
 14 17  1  0
 14 15  1  1
 16 15  1  0
 17 18  2  0
 17 19  1  0
M  END
$$$$
