CCC.pdb
     RDKit          3D

 19 18  0  0  1  0  0  0  0  0999 V2000
   18.7870  -10.4929  -15.3367 N   0  0  0  0  0  0  0  0  0  0  0  0
   18.8522   -9.2398  -16.0623 C   0  0  1  0  0  0  0  0  0  0  0  0
   17.5142   -8.8948  -16.6760 C   0  0  0  0  0  0  0  0  0  0  0  0
   17.5789   -7.3636  -17.6201 S   0  0  0  0  0  0  0  0  0  0  0  0
   19.2471   -8.1738  -15.1002 C   0  0  0  0  0  0  0  0  0  0  0  0
   18.6225   -8.0013  -14.0199 O   0  0  0  0  0  0  0  0  0  0  0  0
   20.3404   -7.3049  -15.3523 N   0  0  0  0  0  0  0  0  0  0  0  0
   20.7040   -6.2235  -14.4016 C   0  0  1  0  0  0  0  0  0  0  0  0
   22.0657   -6.5443  -13.8252 C   0  0  0  0  0  0  0  0  0  0  0  0
   22.7518   -5.2100  -12.8334 S   0  0  0  0  0  0  0  0  0  0  0  0
   20.6470   -4.9179  -15.0987 C   0  0  0  0  0  0  0  0  0  0  0  0
   21.1952   -4.8410  -16.2593 O   0  0  0  0  0  0  0  0  0  0  0  0
   20.0267   -3.7728  -14.5568 N   0  0  0  0  0  0  0  0  0  0  0  0
   20.0357   -2.4975  -15.2420 C   0  0  1  0  0  0  0  0  0  0  0  0
   18.6883   -1.8235  -15.2375 C   0  0  0  0  0  0  0  0  0  0  0  0
   17.5410   -2.9328  -16.1281 S   0  0  0  0  0  0  0  0  0  0  0  0
   20.9876   -1.5879  -14.5574 C   0  0  0  0  0  0  0  0  0  0  0  0
   21.5931   -1.9713  -13.5282 O   0  0  0  0  0  0  0  0  0  0  0  0
   21.2446   -0.3078  -15.0111 O   0  0  0  0  0  0  0  0  0  0  0  0
  2  3  1  0
  2  1  1  1
  3  4  1  0
  5  2  1  0
  5  6  2  0
  7  5  1  0
  8  7  1  0
  9 10  1  0
  8  9  1  6
 11  8  1  0
 11 13  1  0
 12 11  2  0
 14 13  1  0
 14 17  1  0
 14 15  1  1
 16 15  1  0
 17 18  2  0
 17 19  1  0
M  END
$$$$
