CCC.pdb
     RDKit          3D

 19 18  0  0  1  0  0  0  0  0999 V2000
   17.2651  -12.4562  -15.8100 N   0  0  0  0  0  0  0  0  0  0  0  0
   17.8767  -11.4836  -16.6938 C   0  0  1  0  0  0  0  0  0  0  0  0
   16.8517  -10.5046  -17.2200 C   0  0  0  0  0  0  0  0  0  0  0  0
   15.7800  -11.2499  -18.4595 S   0  0  0  0  0  0  0  0  0  0  0  0
   18.9134  -10.7481  -15.9177 C   0  0  0  0  0  0  0  0  0  0  0  0
   18.7071  -10.3830  -14.7298 O   0  0  0  0  0  0  0  0  0  0  0  0
   20.1774  -10.4244  -16.4758 N   0  0  0  0  0  0  0  0  0  0  0  0
   21.2195   -9.7292  -15.6783 C   0  0  1  0  0  0  0  0  0  0  0  0
   22.5565  -10.3582  -16.0043 C   0  0  0  0  0  0  0  0  0  0  0  0
   23.7481  -10.2345  -14.6627 S   0  0  0  0  0  0  0  0  0  0  0  0
   21.1633   -8.2759  -15.9583 C   0  0  0  0  0  0  0  0  0  0  0  0
   21.0636   -7.9122  -17.1876 O   0  0  0  0  0  0  0  0  0  0  0  0
   21.2112   -7.2873  -14.9532 N   0  0  0  0  0  0  0  0  0  0  0  0
   21.2181   -5.8737  -15.2659 C   0  0  1  0  0  0  0  0  0  0  0  0
   19.9077   -5.2004  -14.9505 C   0  0  0  0  0  0  0  0  0  0  0  0
   20.1401   -3.4168  -15.2743 S   0  0  0  0  0  0  0  0  0  0  0  0
   22.2656   -5.2047  -14.4552 C   0  0  0  0  0  0  0  0  0  0  0  0
   22.5561   -5.6447  -13.3173 O   0  0  0  0  0  0  0  0  0  0  0  0
   22.9527   -4.0931  -14.9057 O   0  0  0  0  0  0  0  0  0  0  0  0
  2  3  1  0
  2  1  1  1
  3  4  1  0
  5  2  1  0
  5  6  2  0
  7  5  1  0
  8  7  1  0
  9 10  1  0
  8  9  1  6
 11  8  1  0
 11 13  1  0
 12 11  2  0
 14 13  1  0
 14 17  1  0
 14 15  1  1
 16 15  1  0
 17 18  2  0
 17 19  1  0
M  END
$$$$
