CCC.pdb
     RDKit          3D

 19 18  0  0  1  0  0  0  0  0999 V2000
   24.1579  -24.6170  -14.6123 N   0  0  0  0  0  0  0  0  0  0  0  0
   25.2949  -24.0121  -13.9471 C   0  0  1  0  0  0  0  0  0  0  0  0
   26.4581  -23.8457  -14.8986 C   0  0  0  0  0  0  0  0  0  0  0  0
   25.9801  -24.1437  -16.6082 S   0  0  0  0  0  0  0  0  0  0  0  0
   24.8722  -22.6768  -13.4411 C   0  0  0  0  0  0  0  0  0  0  0  0
   23.8678  -22.0833  -13.9165 O   0  0  0  0  0  0  0  0  0  0  0  0
   25.5766  -22.0114  -12.4043 N   0  0  0  0  0  0  0  0  0  0  0  0
   25.1904  -20.6486  -11.9582 C   0  0  1  0  0  0  0  0  0  0  0  0
   25.7069  -20.4525  -10.5496 C   0  0  0  0  0  0  0  0  0  0  0  0
   24.9658  -21.5759   -9.3563 S   0  0  0  0  0  0  0  0  0  0  0  0
   25.7069  -19.6515  -12.9240 C   0  0  0  0  0  0  0  0  0  0  0  0
   26.9133  -19.2374  -12.7606 O   0  0  0  0  0  0  0  0  0  0  0  0
   24.9484  -19.1445  -13.9998 N   0  0  0  0  0  0  0  0  0  0  0  0
   25.5630  -18.4603  -15.1179 C   0  0  1  0  0  0  0  0  0  0  0  0
   26.5188  -19.3374  -15.8843 C   0  0  0  0  0  0  0  0  0  0  0  0
   28.1466  -19.1823  -15.0681 S   0  0  0  0  0  0  0  0  0  0  0  0
   24.5029  -18.0299  -16.0629 C   0  0  0  0  0  0  0  0  0  0  0  0
   23.3163  -18.3942  -15.8842 O   0  0  0  0  0  0  0  0  0  0  0  0
   24.7677  -17.2274  -17.1567 O   0  0  0  0  0  0  0  0  0  0  0  0
  2  3  1  0
  2  1  1  6
  3  4  1  0
  5  2  1  0
  5  6  2  0
  7  5  1  0
  8  7  1  0
  9 10  1  0
  8  9  1  1
 11  8  1  0
 11 13  1  0
 12 11  2  0
 14 13  1  0
 14 17  1  0
 14 15  1  6
 16 15  1  0
 17 18  2  0
 17 19  1  0
M  END
$$$$
