CCC.pdb
     RDKit          3D

 19 18  0  0  1  0  0  0  0  0999 V2000
   21.5696  -20.3552  -14.8183 N   0  0  0  0  0  0  0  0  0  0  0  0
   22.7492  -20.3015  -13.9776 C   0  0  1  0  0  0  0  0  0  0  0  0
   22.8577  -21.5355  -13.1109 C   0  0  0  0  0  0  0  0  0  0  0  0
   21.4364  -21.7235  -12.0225 S   0  0  0  0  0  0  0  0  0  0  0  0
   23.9409  -20.2122  -14.8662 C   0  0  0  0  0  0  0  0  0  0  0  0
   23.8761  -20.5281  -16.0840 O   0  0  0  0  0  0  0  0  0  0  0  0
   25.2011  -19.7692  -14.3868 N   0  0  0  0  0  0  0  0  0  0  0  0
   26.3700  -19.6364  -15.2931 C   0  0  1  0  0  0  0  0  0  0  0  0
   27.2159  -18.4824  -14.8011 C   0  0  0  0  0  0  0  0  0  0  0  0
   28.8040  -18.3564  -15.6360 S   0  0  0  0  0  0  0  0  0  0  0  0
   27.0978  -20.9253  -15.3471 C   0  0  0  0  0  0  0  0  0  0  0  0
   27.4002  -21.4827  -14.2285 O   0  0  0  0  0  0  0  0  0  0  0  0
   27.4671  -21.5606  -16.5512 N   0  0  0  0  0  0  0  0  0  0  0  0
   28.1853  -22.8176  -16.5674 C   0  0  1  0  0  0  0  0  0  0  0  0
   27.3423  -23.9646  -17.0611 C   0  0  0  0  0  0  0  0  0  0  0  0
   26.0946  -24.2966  -15.7677 S   0  0  0  0  0  0  0  0  0  0  0  0
   29.3481  -22.6977  -17.4816 C   0  0  0  0  0  0  0  0  0  0  0  0
   29.1664  -22.5662  -18.7155 O   0  0  0  0  0  0  0  0  0  0  0  0
   30.6531  -22.7248  -17.0266 O   0  0  0  0  0  0  0  0  0  0  0  0
  2  3  1  0
  2  1  1  6
  3  4  1  0
  5  2  1  0
  5  6  2  0
  7  5  1  0
  8  7  1  0
  9 10  1  0
  8  9  1  1
 11  8  1  0
 11 13  1  0
 12 11  2  0
 14 13  1  0
 14 17  1  0
 14 15  1  6
 16 15  1  0
 17 18  2  0
 17 19  1  0
M  END
$$$$
