CCC.pdb
     RDKit          3D

 19 18  0  0  1  0  0  0  0  0999 V2000
   12.5353  -12.1053  -12.9082 N   0  0  0  0  0  0  0  0  0  0  0  0
   13.5569  -11.4264  -12.1358 C   0  0  1  0  0  0  0  0  0  0  0  0
   14.3734  -12.4097  -11.3281 C   0  0  0  0  0  0  0  0  0  0  0  0
   13.4722  -13.0182   -9.8936 S   0  0  0  0  0  0  0  0  0  0  0  0
   14.4469  -10.7053  -13.0874 C   0  0  0  0  0  0  0  0  0  0  0  0
   14.7571  -11.2045  -14.2017 O   0  0  0  0  0  0  0  0  0  0  0  0
   14.9861   -9.4274  -12.7870 N   0  0  0  0  0  0  0  0  0  0  0  0
   15.7580   -8.6574  -13.7952 C   0  0  1  0  0  0  0  0  0  0  0  0
   15.1471   -7.2769  -13.8989 C   0  0  0  0  0  0  0  0  0  0  0  0
   16.2154   -6.0850  -14.7194 S   0  0  0  0  0  0  0  0  0  0  0  0
   17.1891   -8.6461  -13.4134 C   0  0  0  0  0  0  0  0  0  0  0  0
   17.4678   -8.5778  -12.1599 O   0  0  0  0  0  0  0  0  0  0  0  0
   18.2442   -8.7078  -14.3475 N   0  0  0  0  0  0  0  0  0  0  0  0
   19.6332   -8.6698  -13.9409 C   0  0  1  0  0  0  0  0  0  0  0  0
   20.4727   -9.7105  -14.6352 C   0  0  0  0  0  0  0  0  0  0  0  0
   22.1729   -9.5337  -13.9885 S   0  0  0  0  0  0  0  0  0  0  0  0
   20.2009   -7.3424  -14.2841 C   0  0  0  0  0  0  0  0  0  0  0  0
   19.9268   -6.8073  -15.3847 O   0  0  0  0  0  0  0  0  0  0  0  0
   21.0375   -6.6514  -13.4278 O   0  0  0  0  0  0  0  0  0  0  0  0
  2  3  1  0
  2  1  1  6
  3  4  1  0
  5  2  1  0
  5  6  2  0
  7  5  1  0
  8  7  1  0
  9 10  1  0
  8  9  1  1
 11  8  1  0
 11 13  1  0
 12 11  2  0
 14 13  1  0
 14 17  1  0
 14 15  1  6
 16 15  1  0
 17 18  2  0
 17 19  1  0
M  END
$$$$
