IHD.pdb
     RDKit          3D

 27 27  0  0  1  0  0  0  0  0999 V2000
   22.7554  -16.0894  -15.7411 C   0  0  0  0  0  0  0  0  0  0  0  0
   21.9371  -15.0369  -16.5028 C   0  0  0  0  0  0  0  0  0  0  0  0
   22.2202  -13.6850  -15.9287 C   0  0  2  0  0  0  0  0  0  0  0  0
   22.0522  -13.6796  -14.4036 C   0  0  0  0  0  0  0  0  0  0  0  0
   21.4739  -12.5555  -16.5579 C   0  0  2  0  0  0  0  0  0  0  0  0
   21.6317  -12.7018  -17.9997 N   0  0  0  0  0  0  0  0  0  0  0  0
   21.9160  -11.2103  -16.1127 C   0  0  0  0  0  0  0  0  0  0  0  0
   21.8868  -10.8582  -14.9112 O   0  0  0  0  0  0  0  0  0  0  0  0
   22.3840  -10.2975  -17.0665 N   0  0  0  0  0  0  0  0  0  0  0  0
   22.8036   -8.9426  -16.8082 C   0  0  1  0  0  0  0  0  0  0  0  0
   24.2046   -8.8090  -17.3492 C   0  0  0  0  0  0  0  0  0  0  0  0
   25.1888   -9.6514  -16.6342 C   0  0  0  0  0  0  0  0  0  0  0  0
   25.8269  -10.7698  -17.1133 C   0  0  0  0  0  0  0  0  0  0  0  0
   26.6645  -11.2747  -16.1581 N   0  0  0  0  0  0  0  0  0  0  0  0
   26.5401  -10.4661  -15.0934 C   0  0  0  0  0  0  0  0  0  0  0  0
   25.6599   -9.4884  -15.3618 N   0  0  0  0  0  0  0  0  0  0  0  0
   21.8619   -7.9198  -17.2523 C   0  0  0  0  0  0  0  0  0  0  0  0
   21.4524   -7.9601  -18.4404 O   0  0  0  0  0  0  0  0  0  0  0  0
   21.3968   -6.9006  -16.4118 N   0  0  0  0  0  0  0  0  0  0  0  0
   20.4371   -5.8809  -16.8260 C   0  0  1  0  0  0  0  0  0  0  0  0
   19.0429   -6.4844  -16.8885 C   0  0  0  0  0  0  0  0  0  0  0  0
   17.9760   -5.5242  -17.1667 C   0  0  0  0  0  0  0  0  0  0  0  0
   18.2059   -4.6622  -18.0850 O   0  0  0  0  0  0  0  0  0  0  0  0
   20.5146   -4.6959  -15.9533 C   0  0  0  0  0  0  0  0  0  0  0  0
   19.9635   -3.4963  -16.4579 O   0  0  0  0  0  0  0  0  0  0  0  0
   16.7625   -5.4438  -16.5545 O   0  0  0  0  0  0  0  0  0  0  0  0
   21.0086   -4.6256  -14.8239 O   0  0  0  0  0  0  0  0  0  0  0  0
  2  3  1  0
  2  1  1  0
  3  5  1  0
  3  4  1  1
  5  6  1  6
  7  5  1  0
  8  7  2  0
  9  7  1  0
 10  9  1  0
 10 11  1  6
 11 12  1  0
 12 13  2  0
 12 16  1  0
 13 14  1  0
 14 15  1  0
 16 15  2  0
 17 19  1  0
 17 10  1  0
 18 17  2  0
 20 19  1  0
 20 24  1  0
 20 21  1  1
 22 23  2  0
 22 21  1  0
 24 25  1  0
 26 22  1  0
 27 24  2  0
M  END
$$$$
