IHD.pdb
     RDKit          3D

 27 27  0  0  1  0  0  0  0  0999 V2000
   26.8109  -15.2111  -20.3533 C   0  0  0  0  0  0  0  0  0  0  0  0
   27.8483  -15.9344  -19.4825 C   0  0  0  0  0  0  0  0  0  0  0  0
   27.1399  -16.8324  -18.5186 C   0  0  2  0  0  0  0  0  0  0  0  0
   26.0570  -16.0732  -17.7407 C   0  0  0  0  0  0  0  0  0  0  0  0
   28.0250  -17.6047  -17.5973 C   0  0  2  0  0  0  0  0  0  0  0  0
   29.0165  -18.2722  -18.4320 N   0  0  0  0  0  0  0  0  0  0  0  0
   27.3084  -18.5848  -16.7435 C   0  0  0  0  0  0  0  0  0  0  0  0
   26.7228  -19.5853  -17.2173 O   0  0  0  0  0  0  0  0  0  0  0  0
   27.2830  -18.3888  -15.3568 N   0  0  0  0  0  0  0  0  0  0  0  0
   26.5911  -19.2128  -14.3971 C   0  0  1  0  0  0  0  0  0  0  0  0
   27.3429  -19.0921  -13.0957 C   0  0  0  0  0  0  0  0  0  0  0  0
   26.6994  -19.8211  -11.9805 C   0  0  0  0  0  0  0  0  0  0  0  0
   25.9305  -19.2878  -10.9746 C   0  0  0  0  0  0  0  0  0  0  0  0
   25.5122  -20.2789  -10.1310 N   0  0  0  0  0  0  0  0  0  0  0  0
   26.0244  -21.4199  -10.6194 C   0  0  0  0  0  0  0  0  0  0  0  0
   26.7384  -21.1635  -11.7272 N   0  0  0  0  0  0  0  0  0  0  0  0
   25.1541  -18.9719  -14.3136 C   0  0  0  0  0  0  0  0  0  0  0  0
   24.7430  -17.7849  -14.3692 O   0  0  0  0  0  0  0  0  0  0  0  0
   24.2185  -20.0049  -14.1760 N   0  0  0  0  0  0  0  0  0  0  0  0
   22.7806  -19.7862  -14.0452 C   0  0  1  0  0  0  0  0  0  0  0  0
   22.1372  -19.7704  -15.4228 C   0  0  0  0  0  0  0  0  0  0  0  0
   20.7156  -19.4285  -15.4267 C   0  0  0  0  0  0  0  0  0  0  0  0
   20.2091  -19.0711  -14.3063 O   0  0  0  0  0  0  0  0  0  0  0  0
   22.1753  -20.7763  -13.1367 C   0  0  0  0  0  0  0  0  0  0  0  0
   22.0833  -20.4168  -11.7731 O   0  0  0  0  0  0  0  0  0  0  0  0
   19.8681  -19.4500  -16.4920 O   0  0  0  0  0  0  0  0  0  0  0  0
   21.7357  -21.8929  -13.4278 O   0  0  0  0  0  0  0  0  0  0  0  0
  2  3  1  0
  2  1  1  0
  3  5  1  0
  3  4  1  1
  5  6  1  6
  7  5  1  0
  8  7  2  0
  9  7  1  0
 10  9  1  0
 10 11  1  1
 11 12  1  0
 12 13  2  0
 12 16  1  0
 13 14  1  0
 14 15  1  0
 16 15  2  0
 17 19  1  0
 17 10  1  0
 18 17  2  0
 20 19  1  0
 20 24  1  0
 20 21  1  6
 22 23  2  0
 22 21  1  0
 24 25  1  0
 26 22  1  0
 27 24  2  0
M  END
$$$$
