IHD.pdb
     RDKit          3D

 27 27  0  0  1  0  0  0  0  0999 V2000
   27.3395  -14.5042  -18.8812 C   0  0  0  0  0  0  0  0  0  0  0  0
   27.2347  -13.5943  -17.6487 C   0  0  0  0  0  0  0  0  0  0  0  0
   25.9512  -12.8289  -17.7112 C   0  0  2  0  0  0  0  0  0  0  0  0
   25.7934  -12.1121  -19.0586 C   0  0  0  0  0  0  0  0  0  0  0  0
   25.7087  -11.8955  -16.5716 C   0  0  2  0  0  0  0  0  0  0  0  0
   25.7508  -12.6996  -15.3563 N   0  0  0  0  0  0  0  0  0  0  0  0
   24.4328  -11.1425  -16.6619 C   0  0  0  0  0  0  0  0  0  0  0  0
   24.2448  -10.2405  -17.5102 O   0  0  0  0  0  0  0  0  0  0  0  0
   23.3978  -11.4476  -15.7688 N   0  0  0  0  0  0  0  0  0  0  0  0
   22.0893  -10.8423  -15.7495 C   0  0  1  0  0  0  0  0  0  0  0  0
   21.1249  -11.9027  -15.2818 C   0  0  0  0  0  0  0  0  0  0  0  0
   19.7162  -11.4501  -15.2800 C   0  0  0  0  0  0  0  0  0  0  0  0
   19.2430  -10.2091  -15.6312 C   0  0  0  0  0  0  0  0  0  0  0  0
   17.8826  -10.1738  -15.5007 N   0  0  0  0  0  0  0  0  0  0  0  0
   17.5214  -11.3931  -15.0696 C   0  0  0  0  0  0  0  0  0  0  0  0
   18.6078  -12.1700  -14.9321 N   0  0  0  0  0  0  0  0  0  0  0  0
   22.0178   -9.5726  -15.0335 C   0  0  0  0  0  0  0  0  0  0  0  0
   22.7882   -9.3936  -14.0560 O   0  0  0  0  0  0  0  0  0  0  0  0
   21.1307   -8.5494  -15.3904 N   0  0  0  0  0  0  0  0  0  0  0  0
   21.1359   -7.2214  -14.7831 C   0  0  1  0  0  0  0  0  0  0  0  0
   22.5347   -6.6297  -14.8564 C   0  0  0  0  0  0  0  0  0  0  0  0
   22.6559   -5.2832  -14.2999 C   0  0  0  0  0  0  0  0  0  0  0  0
   22.2554   -5.1232  -13.0943 O   0  0  0  0  0  0  0  0  0  0  0  0
   20.1106   -6.3564  -15.3935 C   0  0  0  0  0  0  0  0  0  0  0  0
   19.6050   -5.3065  -14.5939 O   0  0  0  0  0  0  0  0  0  0  0  0
   23.1470   -4.1771  -14.9238 O   0  0  0  0  0  0  0  0  0  0  0  0
   19.6361   -6.4411  -16.5302 O   0  0  0  0  0  0  0  0  0  0  0  0
  2  3  1  0
  2  1  1  0
  3  5  1  0
  3  4  1  6
  5  6  1  1
  7  5  1  0
  8  7  2  0
  9  7  1  0
 10  9  1  0
 10 11  1  1
 11 12  1  0
 12 13  2  0
 12 16  1  0
 13 14  1  0
 14 15  1  0
 16 15  2  0
 17 19  1  0
 17 10  1  0
 18 17  2  0
 20 19  1  0
 20 24  1  0
 20 21  1  6
 22 23  2  0
 22 21  1  0
 24 25  1  0
 26 22  1  0
 27 24  2  0
M  END
$$$$
