IHD.pdb
     RDKit          3D

 27 27  0  0  1  0  0  0  0  0999 V2000
   29.2725  -12.7315  -15.7163 C   0  0  0  0  0  0  0  0  0  0  0  0
   27.8751  -13.3321  -15.9269 C   0  0  0  0  0  0  0  0  0  0  0  0
   26.9280  -12.2446  -16.3241 C   0  0  2  0  0  0  0  0  0  0  0  0
   26.8435  -11.1563  -15.2459 C   0  0  0  0  0  0  0  0  0  0  0  0
   25.5683  -12.7020  -16.7371 C   0  0  2  0  0  0  0  0  0  0  0  0
   25.7639  -13.7705  -17.7094 N   0  0  0  0  0  0  0  0  0  0  0  0
   24.7091  -11.6294  -17.2978 C   0  0  0  0  0  0  0  0  0  0  0  0
   25.0128  -11.0017  -18.3381 O   0  0  0  0  0  0  0  0  0  0  0  0
   23.5140  -11.3032  -16.6442 N   0  0  0  0  0  0  0  0  0  0  0  0
   22.6091  -10.2428  -17.0122 C   0  0  1  0  0  0  0  0  0  0  0  0
   21.3994  -10.8965  -17.6309 C   0  0  0  0  0  0  0  0  0  0  0  0
   20.3675   -9.9267  -18.0597 C   0  0  0  0  0  0  0  0  0  0  0  0
   20.4490   -8.5559  -18.0185 C   0  0  0  0  0  0  0  0  0  0  0  0
   19.2950   -8.0047  -18.5017 N   0  0  0  0  0  0  0  0  0  0  0  0
   18.5058   -9.0372  -18.8391 C   0  0  0  0  0  0  0  0  0  0  0  0
   19.1331  -10.1959  -18.5807 N   0  0  0  0  0  0  0  0  0  0  0  0
   22.3265   -9.2876  -15.9456 C   0  0  0  0  0  0  0  0  0  0  0  0
   21.9620   -9.7316  -14.8271 O   0  0  0  0  0  0  0  0  0  0  0  0
   22.4458   -7.9027  -16.1162 N   0  0  0  0  0  0  0  0  0  0  0  0
   22.2945   -6.9349  -15.0332 C   0  0  1  0  0  0  0  0  0  0  0  0
   22.7963   -5.5736  -15.4884 C   0  0  0  0  0  0  0  0  0  0  0  0
   22.6862   -4.5172  -14.4837 C   0  0  0  0  0  0  0  0  0  0  0  0
   22.8471   -3.3156  -14.8957 O   0  0  0  0  0  0  0  0  0  0  0  0
   20.9054   -6.9033  -14.5420 C   0  0  0  0  0  0  0  0  0  0  0  0
   19.9057   -6.5617  -15.4808 O   0  0  0  0  0  0  0  0  0  0  0  0
   22.4327   -4.6700  -13.1548 O   0  0  0  0  0  0  0  0  0  0  0  0
   20.5076   -7.1413  -13.3976 O   0  0  0  0  0  0  0  0  0  0  0  0
  2  3  1  0
  2  1  1  0
  3  5  1  0
  3  4  1  1
  5  6  1  6
  7  5  1  0
  8  7  2  0
  9  7  1  0
 10  9  1  0
 10 11  1  1
 11 12  1  0
 12 13  2  0
 12 16  1  0
 13 14  1  0
 14 15  1  0
 16 15  2  0
 17 19  1  0
 17 10  1  0
 18 17  2  0
 20 19  1  0
 20 24  1  0
 20 21  1  6
 22 23  2  0
 22 21  1  0
 24 25  1  0
 26 22  1  0
 27 24  2  0
M  END
$$$$
