IHD.pdb
     RDKit          3D

 27 27  0  0  1  0  0  0  0  0999 V2000
   28.9873  -12.8283  -16.1325 C   0  0  0  0  0  0  0  0  0  0  0  0
   27.7602  -13.5936  -15.6165 C   0  0  0  0  0  0  0  0  0  0  0  0
   26.5310  -12.7808  -15.8729 C   0  0  2  0  0  0  0  0  0  0  0  0
   26.7073  -11.3346  -15.3918 C   0  0  0  0  0  0  0  0  0  0  0  0
   25.2585  -13.3691  -15.3598 C   0  0  2  0  0  0  0  0  0  0  0  0
   25.2547  -14.7710  -15.7598 N   0  0  0  0  0  0  0  0  0  0  0  0
   24.0332  -12.6809  -15.8375 C   0  0  0  0  0  0  0  0  0  0  0  0
   23.6313  -12.7707  -17.0203 O   0  0  0  0  0  0  0  0  0  0  0  0
   23.2955  -11.9016  -14.9373 N   0  0  0  0  0  0  0  0  0  0  0  0
   22.1387  -11.1031  -15.2582 C   0  0  1  0  0  0  0  0  0  0  0  0
   21.0150  -11.5896  -14.3783 C   0  0  0  0  0  0  0  0  0  0  0  0
   20.4347  -12.8736  -14.8298 C   0  0  0  0  0  0  0  0  0  0  0  0
   20.8043  -13.6104  -15.9288 C   0  0  0  0  0  0  0  0  0  0  0  0
   20.0364  -14.7381  -16.0149 N   0  0  0  0  0  0  0  0  0  0  0  0
   19.1959  -14.6931  -14.9688 C   0  0  0  0  0  0  0  0  0  0  0  0
   19.4211  -13.5825  -14.2486 N   0  0  0  0  0  0  0  0  0  0  0  0
   22.3702   -9.6623  -15.2372 C   0  0  0  0  0  0  0  0  0  0  0  0
   23.4811   -9.2416  -14.8252 O   0  0  0  0  0  0  0  0  0  0  0  0
   21.4096   -8.7335  -15.6569 N   0  0  0  0  0  0  0  0  0  0  0  0
   21.6780   -7.3082  -15.8270 C   0  0  1  0  0  0  0  0  0  0  0  0
   22.8833   -7.1184  -16.7345 C   0  0  0  0  0  0  0  0  0  0  0  0
   23.2130   -5.7239  -17.0247 C   0  0  0  0  0  0  0  0  0  0  0  0
   22.2396   -4.9629  -17.3607 O   0  0  0  0  0  0  0  0  0  0  0  0
   20.4786   -6.5972  -16.3042 C   0  0  0  0  0  0  0  0  0  0  0  0
   20.1401   -5.3992  -15.6352 O   0  0  0  0  0  0  0  0  0  0  0  0
   24.4439   -5.1437  -16.9791 O   0  0  0  0  0  0  0  0  0  0  0  0
   19.7271   -6.9269  -17.2268 O   0  0  0  0  0  0  0  0  0  0  0  0
  2  3  1  0
  2  1  1  0
  3  5  1  0
  3  4  1  1
  5  6  1  6
  7  5  1  0
  8  7  2  0
  9  7  1  0
 10  9  1  0
 10 11  1  1
 11 12  1  0
 12 13  2  0
 12 16  1  0
 13 14  1  0
 14 15  1  0
 16 15  2  0
 17 19  1  0
 17 10  1  0
 18 17  2  0
 20 19  1  0
 20 24  1  0
 20 21  1  6
 22 23  2  0
 22 21  1  0
 24 25  1  0
 26 22  1  0
 27 24  2  0
M  END
$$$$
