IHD.pdb
     RDKit          3D

 27 27  0  0  1  0  0  0  0  0999 V2000
   23.9382  -16.4984  -20.6909 C   0  0  0  0  0  0  0  0  0  0  0  0
   24.1445  -17.2254  -19.3542 C   0  0  0  0  0  0  0  0  0  0  0  0
   22.8469  -17.2647  -18.6113 C   0  0  2  0  0  0  0  0  0  0  0  0
   22.2424  -15.8617  -18.4684 C   0  0  0  0  0  0  0  0  0  0  0  0
   22.8850  -17.9724  -17.2973 C   0  0  2  0  0  0  0  0  0  0  0  0
   23.5096  -19.2675  -17.5380 N   0  0  0  0  0  0  0  0  0  0  0  0
   21.5567  -18.1383  -16.6561 C   0  0  0  0  0  0  0  0  0  0  0  0
   20.6426  -18.8203  -17.1735 O   0  0  0  0  0  0  0  0  0  0  0  0
   21.3111  -17.5119  -15.4276 N   0  0  0  0  0  0  0  0  0  0  0  0
   20.0776  -17.5619  -14.6827 C   0  0  1  0  0  0  0  0  0  0  0  0
   20.4402  -17.9095  -13.2610 C   0  0  0  0  0  0  0  0  0  0  0  0
   20.7549  -19.3430  -13.0731 C   0  0  0  0  0  0  0  0  0  0  0  0
   20.6746  -20.3404  -14.0144 C   0  0  0  0  0  0  0  0  0  0  0  0
   21.0479  -21.5343  -13.4628 N   0  0  0  0  0  0  0  0  0  0  0  0
   21.3572  -21.2691  -12.1833 C   0  0  0  0  0  0  0  0  0  0  0  0
   21.1870  -19.9609  -11.9333 N   0  0  0  0  0  0  0  0  0  0  0  0
   19.2242  -16.3887  -14.8412 C   0  0  0  0  0  0  0  0  0  0  0  0
   19.7717  -15.2625  -14.9552 O   0  0  0  0  0  0  0  0  0  0  0  0
   17.8261  -16.4663  -14.8728 N   0  0  0  0  0  0  0  0  0  0  0  0
   16.9530  -15.3127  -15.0711 C   0  0  1  0  0  0  0  0  0  0  0  0
   17.3771  -14.5577  -16.3210 C   0  0  0  0  0  0  0  0  0  0  0  0
   16.5150  -13.4306  -16.6731 C   0  0  0  0  0  0  0  0  0  0  0  0
   16.3107  -13.2336  -17.9217 O   0  0  0  0  0  0  0  0  0  0  0  0
   15.5366  -15.7191  -15.0950 C   0  0  0  0  0  0  0  0  0  0  0  0
   14.5822  -14.6919  -15.2716 O   0  0  0  0  0  0  0  0  0  0  0  0
   15.9052  -12.5639  -15.8184 O   0  0  0  0  0  0  0  0  0  0  0  0
   15.0805  -16.8605  -14.9774 O   0  0  0  0  0  0  0  0  0  0  0  0
  2  3  1  0
  2  1  1  0
  3  5  1  0
  3  4  1  1
  5  6  1  6
  7  5  1  0
  8  7  2  0
  9  7  1  0
 10  9  1  0
 10 11  1  1
 11 12  1  0
 12 13  2  0
 12 16  1  0
 13 14  1  0
 14 15  1  0
 16 15  2  0
 17 19  1  0
 17 10  1  0
 18 17  2  0
 20 19  1  0
 20 24  1  0
 20 21  1  6
 22 23  2  0
 22 21  1  0
 24 25  1  0
 26 22  1  0
 27 24  2  0
M  END
$$$$
