IHD.pdb
     RDKit          3D

 27 27  0  0  1  0  0  0  0  0999 V2000
   21.0516  -15.9290  -17.0664 C   0  0  0  0  0  0  0  0  0  0  0  0
   20.8220  -14.5460  -17.6929 C   0  0  0  0  0  0  0  0  0  0  0  0
   21.3994  -13.4983  -16.7950 C   0  0  2  0  0  0  0  0  0  0  0  0
   20.9429  -13.6934  -15.3433 C   0  0  0  0  0  0  0  0  0  0  0  0
   21.1905  -12.0892  -17.2418 C   0  0  2  0  0  0  0  0  0  0  0  0
   21.6340  -12.0203  -18.6289 N   0  0  0  0  0  0  0  0  0  0  0  0
   21.8916  -11.0771  -16.4129 C   0  0  0  0  0  0  0  0  0  0  0  0
   21.6489  -10.9236  -15.1939 O   0  0  0  0  0  0  0  0  0  0  0  0
   22.8609  -10.2613  -17.0103 N   0  0  0  0  0  0  0  0  0  0  0  0
   23.4993   -9.1201  -16.4028 C   0  0  1  0  0  0  0  0  0  0  0  0
   24.9340   -9.1246  -16.8665 C   0  0  0  0  0  0  0  0  0  0  0  0
   25.7220  -10.2486  -16.3143 C   0  0  0  0  0  0  0  0  0  0  0  0
   25.2808  -11.2311  -15.4613 C   0  0  0  0  0  0  0  0  0  0  0  0
   26.3018  -12.0940  -15.1750 N   0  0  0  0  0  0  0  0  0  0  0  0
   27.3690  -11.6409  -15.8522 C   0  0  0  0  0  0  0  0  0  0  0  0
   27.0389  -10.5359  -16.5400 N   0  0  0  0  0  0  0  0  0  0  0  0
   22.7879   -7.8586  -16.5831 C   0  0  0  0  0  0  0  0  0  0  0  0
   22.2713   -7.6189  -17.7041 O   0  0  0  0  0  0  0  0  0  0  0  0
   22.6569   -6.9090  -15.5621 N   0  0  0  0  0  0  0  0  0  0  0  0
   21.8331   -5.7081  -15.6707 C   0  0  1  0  0  0  0  0  0  0  0  0
   20.3872   -6.1002  -15.9309 C   0  0  0  0  0  0  0  0  0  0  0  0
   19.4391   -4.9879  -15.8955 C   0  0  0  0  0  0  0  0  0  0  0  0
   19.7203   -3.9719  -16.6223 O   0  0  0  0  0  0  0  0  0  0  0  0
   21.9934   -4.8476  -14.4850 C   0  0  0  0  0  0  0  0  0  0  0  0
   22.8952   -5.2930  -13.4921 O   0  0  0  0  0  0  0  0  0  0  0  0
   18.2882   -4.9116  -15.1721 O   0  0  0  0  0  0  0  0  0  0  0  0
   21.4280   -3.7746  -14.2535 O   0  0  0  0  0  0  0  0  0  0  0  0
  2  3  1  0
  2  1  1  0
  3  5  1  0
  3  4  1  1
  5  6  1  6
  7  5  1  0
  8  7  2  0
  9  7  1  0
 10  9  1  0
 10 11  1  6
 11 12  1  0
 12 13  2  0
 12 16  1  0
 13 14  1  0
 14 15  1  0
 16 15  2  0
 17 19  1  0
 17 10  1  0
 18 17  2  0
 20 19  1  0
 20 24  1  0
 20 21  1  1
 22 23  2  0
 22 21  1  0
 24 25  1  0
 26 22  1  0
 27 24  2  0
M  END
$$$$
