IHD.pdb
     RDKit          3D

 27 27  0  0  1  0  0  0  0  0999 V2000
   26.4848  -14.5263  -18.2643 C   0  0  0  0  0  0  0  0  0  0  0  0
   26.5666  -13.4571  -17.1653 C   0  0  0  0  0  0  0  0  0  0  0  0
   25.3309  -12.6152  -17.2064 C   0  0  2  0  0  0  0  0  0  0  0  0
   25.0161  -12.1548  -18.6358 C   0  0  0  0  0  0  0  0  0  0  0  0
   25.3089  -11.4672  -16.2524 C   0  0  2  0  0  0  0  0  0  0  0  0
   25.5028  -12.0268  -14.9202 N   0  0  0  0  0  0  0  0  0  0  0  0
   24.0688  -10.6533  -16.3073 C   0  0  0  0  0  0  0  0  0  0  0  0
   23.7167  -10.0360  -17.3384 O   0  0  0  0  0  0  0  0  0  0  0  0
   23.2590  -10.5692  -15.1675 N   0  0  0  0  0  0  0  0  0  0  0  0
   21.9984   -9.8759  -15.0730 C   0  0  1  0  0  0  0  0  0  0  0  0
   21.0371  -10.8103  -14.3830 C   0  0  0  0  0  0  0  0  0  0  0  0
   20.6453  -11.9663  -15.2194 C   0  0  0  0  0  0  0  0  0  0  0  0
   21.1593  -13.2393  -15.1685 C   0  0  0  0  0  0  0  0  0  0  0  0
   20.5424  -14.0296  -16.0979 N   0  0  0  0  0  0  0  0  0  0  0  0
   19.6501  -13.2414  -16.7188 C   0  0  0  0  0  0  0  0  0  0  0  0
   19.6989  -12.0020  -16.2046 N   0  0  0  0  0  0  0  0  0  0  0  0
   22.0837   -8.5347  -14.5039 C   0  0  0  0  0  0  0  0  0  0  0  0
   23.0630   -8.2607  -13.7642 O   0  0  0  0  0  0  0  0  0  0  0  0
   21.1240   -7.5444  -14.7484 N   0  0  0  0  0  0  0  0  0  0  0  0
   21.2768   -6.1487  -14.3470 C   0  0  1  0  0  0  0  0  0  0  0  0
   22.6079   -5.6133  -14.8506 C   0  0  0  0  0  0  0  0  0  0  0  0
   22.8230   -4.1883  -14.6046 C   0  0  0  0  0  0  0  0  0  0  0  0
   22.1994   -3.6779  -13.6096 O   0  0  0  0  0  0  0  0  0  0  0  0
   20.1256   -5.3419  -14.7893 C   0  0  0  0  0  0  0  0  0  0  0  0
   19.2738   -5.9239  -15.7553 O   0  0  0  0  0  0  0  0  0  0  0  0
   23.6136   -3.3410  -15.3194 O   0  0  0  0  0  0  0  0  0  0  0  0
   19.8143   -4.2077  -14.4136 O   0  0  0  0  0  0  0  0  0  0  0  0
  2  3  1  0
  2  1  1  0
  3  5  1  0
  3  4  1  6
  5  6  1  1
  7  5  1  0
  8  7  2  0
  9  7  1  0
 10  9  1  0
 10 11  1  1
 11 12  1  0
 12 13  2  0
 12 16  1  0
 13 14  1  0
 14 15  1  0
 16 15  2  0
 17 19  1  0
 17 10  1  0
 18 17  2  0
 20 19  1  0
 20 24  1  0
 20 21  1  6
 22 23  2  0
 22 21  1  0
 24 25  1  0
 26 22  1  0
 27 24  2  0
M  END
$$$$
