IHD.pdb
     RDKit          3D

 27 27  0  0  1  0  0  0  0  0999 V2000
   26.7737  -15.7004  -17.5243 C   0  0  0  0  0  0  0  0  0  0  0  0
   25.6439  -15.1563  -16.6381 C   0  0  0  0  0  0  0  0  0  0  0  0
   25.5469  -13.6749  -16.8206 C   0  0  2  0  0  0  0  0  0  0  0  0
   26.9143  -13.0004  -16.6496 C   0  0  0  0  0  0  0  0  0  0  0  0
   24.5038  -12.9973  -15.9950 C   0  0  2  0  0  0  0  0  0  0  0  0
   23.2588  -13.7226  -16.2167 N   0  0  0  0  0  0  0  0  0  0  0  0
   24.3336  -11.5534  -16.2939 C   0  0  0  0  0  0  0  0  0  0  0  0
   25.2551  -10.7213  -16.1303 O   0  0  0  0  0  0  0  0  0  0  0  0
   23.0997  -11.0993  -16.7768 N   0  0  0  0  0  0  0  0  0  0  0  0
   22.7797   -9.7411  -17.1397 C   0  0  1  0  0  0  0  0  0  0  0  0
   21.9357   -9.8099  -18.3872 C   0  0  0  0  0  0  0  0  0  0  0  0
   22.7166  -10.1285  -19.6030 C   0  0  0  0  0  0  0  0  0  0  0  0
   23.8839   -9.5351  -20.0185 C   0  0  0  0  0  0  0  0  0  0  0  0
   24.3048  -10.1016  -21.1893 N   0  0  0  0  0  0  0  0  0  0  0  0
   23.3957  -11.0423  -21.4919 C   0  0  0  0  0  0  0  0  0  0  0  0
   22.4375  -11.0715  -20.5518 N   0  0  0  0  0  0  0  0  0  0  0  0
   22.2271   -8.9364  -16.0547 C   0  0  0  0  0  0  0  0  0  0  0  0
   21.4801   -9.4991  -15.2142 O   0  0  0  0  0  0  0  0  0  0  0  0
   22.4953   -7.5693  -15.9116 N   0  0  0  0  0  0  0  0  0  0  0  0
   21.9286   -6.7369  -14.8540 C   0  0  1  0  0  0  0  0  0  0  0  0
   22.7483   -5.4645  -14.7086 C   0  0  0  0  0  0  0  0  0  0  0  0
   22.2704   -4.5474  -13.6751 C   0  0  0  0  0  0  0  0  0  0  0  0
   21.7158   -5.0779  -12.6502 O   0  0  0  0  0  0  0  0  0  0  0  0
   20.4979   -6.4774  -15.0943 C   0  0  0  0  0  0  0  0  0  0  0  0
   20.1020   -6.2877  -16.4376 O   0  0  0  0  0  0  0  0  0  0  0  0
   22.3483   -3.1881  -13.6826 O   0  0  0  0  0  0  0  0  0  0  0  0
   19.5961   -6.4048  -14.2541 O   0  0  0  0  0  0  0  0  0  0  0  0
  2  3  1  0
  2  1  1  0
  3  5  1  0
  3  4  1  1
  5  6  1  6
  7  5  1  0
  8  7  2  0
  9  7  1  0
 10  9  1  0
 10 11  1  6
 11 12  1  0
 12 13  2  0
 12 16  1  0
 13 14  1  0
 14 15  1  0
 16 15  2  0
 17 19  1  0
 17 10  1  0
 18 17  2  0
 20 19  1  0
 20 24  1  0
 20 21  1  6
 22 23  2  0
 22 21  1  0
 24 25  1  0
 26 22  1  0
 27 24  2  0
M  END
$$$$
