IHD.pdb
     RDKit          3D

 27 27  0  0  1  0  0  0  0  0999 V2000
   29.7904  -21.1996  -10.4919 C   0  0  0  0  0  0  0  0  0  0  0  0
   28.3589  -21.7385  -10.3578 C   0  0  0  0  0  0  0  0  0  0  0  0
   27.4254  -20.8453  -11.1115 C   0  0  2  0  0  0  0  0  0  0  0  0
   27.5481  -19.3886  -10.6455 C   0  0  0  0  0  0  0  0  0  0  0  0
   25.9994  -21.2864  -11.1346 C   0  0  2  0  0  0  0  0  0  0  0  0
   26.0115  -22.7303  -11.3353 N   0  0  0  0  0  0  0  0  0  0  0  0
   25.1714  -20.6170  -12.1686 C   0  0  0  0  0  0  0  0  0  0  0  0
   24.8102  -19.4220  -12.0687 O   0  0  0  0  0  0  0  0  0  0  0  0
   24.7768  -21.3431  -13.2995 N   0  0  0  0  0  0  0  0  0  0  0  0
   23.9605  -20.8499  -14.3809 C   0  0  1  0  0  0  0  0  0  0  0  0
   24.2966  -21.6789  -15.5946 C   0  0  0  0  0  0  0  0  0  0  0  0
   23.5316  -21.2867  -16.7989 C   0  0  0  0  0  0  0  0  0  0  0  0
   22.3983  -21.8854  -17.2934 C   0  0  0  0  0  0  0  0  0  0  0  0
   21.9823  -21.2367  -18.4227 N   0  0  0  0  0  0  0  0  0  0  0  0
   22.8604  -20.2405  -18.6208 C   0  0  0  0  0  0  0  0  0  0  0  0
   23.7951  -20.2562  -17.6570 N   0  0  0  0  0  0  0  0  0  0  0  0
   22.5385  -20.7450  -14.0696 C   0  0  0  0  0  0  0  0  0  0  0  0
   22.0545  -21.5297  -13.2146 O   0  0  0  0  0  0  0  0  0  0  0  0
   21.6951  -19.8089  -14.6811 N   0  0  0  0  0  0  0  0  0  0  0  0
   20.2770  -19.6645  -14.3642 C   0  0  1  0  0  0  0  0  0  0  0  0
   20.0258  -18.2964  -13.7499 C   0  0  0  0  0  0  0  0  0  0  0  0
   18.6178  -17.9885  -13.5047 C   0  0  0  0  0  0  0  0  0  0  0  0
   18.0126  -18.7196  -12.6451 O   0  0  0  0  0  0  0  0  0  0  0  0
   19.4406  -19.9277  -15.5487 C   0  0  0  0  0  0  0  0  0  0  0  0
   18.1874  -20.5395  -15.3202 O   0  0  0  0  0  0  0  0  0  0  0  0
   17.8762  -17.0092  -14.0919 O   0  0  0  0  0  0  0  0  0  0  0  0
   19.7073  -19.6756  -16.7277 O   0  0  0  0  0  0  0  0  0  0  0  0
  2  3  1  0
  2  1  1  0
  3  5  1  0
  3  4  1  1
  5  6  1  6
  7  5  1  0
  8  7  2  0
  9  7  1  0
 10  9  1  0
 10 11  1  6
 11 12  1  0
 12 13  2  0
 12 16  1  0
 13 14  1  0
 14 15  1  0
 16 15  2  0
 17 19  1  0
 17 10  1  0
 18 17  2  0
 20 19  1  0
 20 24  1  0
 20 21  1  6
 22 23  2  0
 22 21  1  0
 24 25  1  0
 26 22  1  0
 27 24  2  0
M  END
$$$$
