IHD.pdb
     RDKit          3D

 27 27  0  0  1  0  0  0  0  0999 V2000
   27.9166  -10.0614  -16.6333 C   0  0  0  0  0  0  0  0  0  0  0  0
   26.7331  -10.9550  -17.0314 C   0  0  0  0  0  0  0  0  0  0  0  0
   26.2313  -11.6739  -15.8194 C   0  0  2  0  0  0  0  0  0  0  0  0
   27.2971  -12.6190  -15.2494 C   0  0  0  0  0  0  0  0  0  0  0  0
   24.9238  -12.3742  -15.9886 C   0  0  2  0  0  0  0  0  0  0  0  0
   25.1205  -13.3828  -17.0227 N   0  0  0  0  0  0  0  0  0  0  0  0
   23.7928  -11.4775  -16.3347 C   0  0  0  0  0  0  0  0  0  0  0  0
   23.4104  -11.3049  -17.5147 O   0  0  0  0  0  0  0  0  0  0  0  0
   23.1251  -10.7971  -15.3085 N   0  0  0  0  0  0  0  0  0  0  0  0
   22.0301   -9.8742  -15.4763 C   0  0  1  0  0  0  0  0  0  0  0  0
   20.8217  -10.5099  -14.8367 C   0  0  0  0  0  0  0  0  0  0  0  0
   20.3154  -11.6825  -15.5837 C   0  0  0  0  0  0  0  0  0  0  0  0
   19.7224  -11.6840  -16.8229 C   0  0  0  0  0  0  0  0  0  0  0  0
   19.3903  -12.9611  -17.1802 N   0  0  0  0  0  0  0  0  0  0  0  0
   19.7795  -13.7428  -16.1603 C   0  0  0  0  0  0  0  0  0  0  0  0
   20.3357  -12.9927  -15.1955 N   0  0  0  0  0  0  0  0  0  0  0  0
   22.3165   -8.5079  -15.0508 C   0  0  0  0  0  0  0  0  0  0  0  0
   22.8900   -8.3341  -13.9453 O   0  0  0  0  0  0  0  0  0  0  0  0
   21.9812   -7.3874  -15.8211 N   0  0  0  0  0  0  0  0  0  0  0  0
   22.3246   -6.0165  -15.4532 C   0  0  1  0  0  0  0  0  0  0  0  0
   22.0805   -5.0921  -16.6355 C   0  0  0  0  0  0  0  0  0  0  0  0
   22.3265   -3.6769  -16.3626 C   0  0  0  0  0  0  0  0  0  0  0  0
   23.4453   -3.3855  -15.8124 O   0  0  0  0  0  0  0  0  0  0  0  0
   21.6054   -5.5994  -14.2363 C   0  0  0  0  0  0  0  0  0  0  0  0
   20.2820   -6.0715  -14.0854 O   0  0  0  0  0  0  0  0  0  0  0  0
   21.4946   -2.6321  -16.6275 O   0  0  0  0  0  0  0  0  0  0  0  0
   22.0252   -4.8796  -13.3252 O   0  0  0  0  0  0  0  0  0  0  0  0
  2  3  1  0
  2  1  1  0
  3  5  1  0
  3  4  1  6
  5  6  1  6
  7  5  1  0
  8  7  2  0
  9  7  1  0
 10  9  1  0
 10 11  1  1
 11 12  1  0
 12 13  2  0
 12 16  1  0
 13 14  1  0
 14 15  1  0
 16 15  2  0
 17 19  1  0
 17 10  1  0
 18 17  2  0
 20 19  1  0
 20 24  1  0
 20 21  1  6
 22 23  2  0
 22 21  1  0
 24 25  1  0
 26 22  1  0
 27 24  2  0
M  END
$$$$
