IHD.pdb
     RDKit          3D

 27 27  0  0  1  0  0  0  0  0999 V2000
   22.8514  -37.9264  -13.4755 C   0  0  0  0  0  0  0  0  0  0  0  0
   23.2254  -36.4428  -13.6049 C   0  0  0  0  0  0  0  0  0  0  0  0
   24.2329  -36.0971  -12.5548 C   0  0  2  0  0  0  0  0  0  0  0  0
   23.7367  -36.4846  -11.1556 C   0  0  0  0  0  0  0  0  0  0  0  0
   24.7249  -34.6879  -12.5818 C   0  0  2  0  0  0  0  0  0  0  0  0
   25.3625  -34.4925  -13.8782 N   0  0  0  0  0  0  0  0  0  0  0  0
   25.6575  -34.3470  -11.4786 C   0  0  0  0  0  0  0  0  0  0  0  0
   26.8332  -34.7765  -11.4372 O   0  0  0  0  0  0  0  0  0  0  0  0
   25.2121  -33.5151  -10.4435 N   0  0  0  0  0  0  0  0  0  0  0  0
   25.9939  -33.0733   -9.3155 C   0  0  1  0  0  0  0  0  0  0  0  0
   25.7217  -31.6001   -9.1459 C   0  0  0  0  0  0  0  0  0  0  0  0
   24.3223  -31.3053   -8.7663 C   0  0  0  0  0  0  0  0  0  0  0  0
   23.2532  -31.1281   -9.6108 C   0  0  0  0  0  0  0  0  0  0  0  0
   22.1226  -30.8733   -8.8858 N   0  0  0  0  0  0  0  0  0  0  0  0
   22.4981  -30.8942   -7.5968 C   0  0  0  0  0  0  0  0  0  0  0  0
   23.8128  -31.1516   -7.5075 N   0  0  0  0  0  0  0  0  0  0  0  0
   25.8329  -33.8815   -8.1109 C   0  0  0  0  0  0  0  0  0  0  0  0
   24.7322  -34.4592   -7.9217 O   0  0  0  0  0  0  0  0  0  0  0  0
   26.8507  -34.0399   -7.1620 N   0  0  0  0  0  0  0  0  0  0  0  0
   26.6870  -34.7739   -5.9102 C   0  0  1  0  0  0  0  0  0  0  0  0
   28.0282  -34.8857   -5.2025 C   0  0  0  0  0  0  0  0  0  0  0  0
   28.0165  -35.7252   -4.0055 C   0  0  0  0  0  0  0  0  0  0  0  0
   26.8831  -36.2056   -3.6535 O   0  0  0  0  0  0  0  0  0  0  0  0
   25.6409  -34.1626   -5.0714 C   0  0  0  0  0  0  0  0  0  0  0  0
   24.7453  -35.0452   -4.4263 O   0  0  0  0  0  0  0  0  0  0  0  0
   29.0799  -36.0520   -3.2205 O   0  0  0  0  0  0  0  0  0  0  0  0
   25.4517  -32.9602   -4.8638 O   0  0  0  0  0  0  0  0  0  0  0  0
  2  3  1  0
  2  1  1  0
  3  5  1  0
  3  4  1  1
  5  6  1  6
  7  5  1  0
  8  7  2  0
  9  7  1  0
 10  9  1  0
 10 11  1  1
 11 12  1  0
 12 13  2  0
 12 16  1  0
 13 14  1  0
 14 15  1  0
 16 15  2  0
 17 19  1  0
 17 10  1  0
 18 17  2  0
 20 19  1  0
 20 24  1  0
 20 21  1  1
 22 23  2  0
 22 21  1  0
 24 25  1  0
 26 22  1  0
 27 24  2  0
M  END
$$$$
