IHD.pdb
     RDKit          3D

 27 27  0  0  1  0  0  0  0  0999 V2000
   28.2909  -12.3940  -15.6958 C   0  0  0  0  0  0  0  0  0  0  0  0
   26.9288  -13.0638  -15.4635 C   0  0  0  0  0  0  0  0  0  0  0  0
   25.8415  -12.0773  -15.7495 C   0  0  2  0  0  0  0  0  0  0  0  0
   25.9788  -10.8251  -14.8736 C   0  0  0  0  0  0  0  0  0  0  0  0
   24.4534  -12.6241  -15.6956 C   0  0  2  0  0  0  0  0  0  0  0  0
   24.4398  -13.8142  -16.5374 N   0  0  0  0  0  0  0  0  0  0  0  0
   23.4039  -11.6648  -16.1214 C   0  0  0  0  0  0  0  0  0  0  0  0
   23.2852  -11.2836  -17.3084 O   0  0  0  0  0  0  0  0  0  0  0  0
   22.5108  -11.1645  -15.1653 N   0  0  0  0  0  0  0  0  0  0  0  0
   21.4756  -10.1890  -15.4014 C   0  0  1  0  0  0  0  0  0  0  0  0
   20.1599  -10.8764  -15.1375 C   0  0  0  0  0  0  0  0  0  0  0  0
   19.8495  -11.9388  -16.1195 C   0  0  0  0  0  0  0  0  0  0  0  0
   19.6727  -13.2773  -15.8657 C   0  0  0  0  0  0  0  0  0  0  0  0
   19.3988  -13.9411  -17.0290 N   0  0  0  0  0  0  0  0  0  0  0  0
   19.4076  -13.0097  -17.9962 C   0  0  0  0  0  0  0  0  0  0  0  0
   19.6760  -11.8047  -17.4684 N   0  0  0  0  0  0  0  0  0  0  0  0
   21.6678   -8.9193  -14.7078 C   0  0  0  0  0  0  0  0  0  0  0  0
   22.0510   -8.9445  -13.5105 O   0  0  0  0  0  0  0  0  0  0  0  0
   21.4449   -7.6794  -15.3197 N   0  0  0  0  0  0  0  0  0  0  0  0
   21.7108   -6.3962  -14.6753 C   0  0  1  0  0  0  0  0  0  0  0  0
   22.6428   -5.5687  -15.5462 C   0  0  0  0  0  0  0  0  0  0  0  0
   22.9936   -4.2621  -14.9918 C   0  0  0  0  0  0  0  0  0  0  0  0
   22.9996   -4.1641  -13.7152 O   0  0  0  0  0  0  0  0  0  0  0  0
   20.4547   -5.6981  -14.3483 C   0  0  0  0  0  0  0  0  0  0  0  0
   19.2537   -6.3298  -14.7430 O   0  0  0  0  0  0  0  0  0  0  0  0
   23.3136   -3.1344  -15.6845 O   0  0  0  0  0  0  0  0  0  0  0  0
   20.3258   -4.6170  -13.7660 O   0  0  0  0  0  0  0  0  0  0  0  0
  2  3  1  0
  2  1  1  0
  3  5  1  0
  3  4  1  1
  5  6  1  6
  7  5  1  0
  8  7  2  0
  9  7  1  0
 10  9  1  0
 10 11  1  1
 11 12  1  0
 12 13  2  0
 12 16  1  0
 13 14  1  0
 14 15  1  0
 16 15  2  0
 17 19  1  0
 17 10  1  0
 18 17  2  0
 20 19  1  0
 20 24  1  0
 20 21  1  6
 22 23  2  0
 22 21  1  0
 24 25  1  0
 26 22  1  0
 27 24  2  0
M  END
$$$$
