IHD.pdb
     RDKit          3D

 27 27  0  0  1  0  0  0  0  0999 V2000
   28.0220  -10.5105  -17.8178 C   0  0  0  0  0  0  0  0  0  0  0  0
   26.9310  -11.5540  -17.5377 C   0  0  0  0  0  0  0  0  0  0  0  0
   27.0701  -12.0445  -16.1315 C   0  0  2  0  0  0  0  0  0  0  0  0
   28.4319  -12.7144  -15.9058 C   0  0  0  0  0  0  0  0  0  0  0  0
   25.9555  -12.9099  -15.6443 C   0  0  2  0  0  0  0  0  0  0  0  0
   25.9998  -14.1335  -16.4355 N   0  0  0  0  0  0  0  0  0  0  0  0
   24.6146  -12.2785  -15.7238 C   0  0  0  0  0  0  0  0  0  0  0  0
   23.8540  -12.4407  -16.7054 O   0  0  0  0  0  0  0  0  0  0  0  0
   24.1788  -11.4710  -14.6656 N   0  0  0  0  0  0  0  0  0  0  0  0
   22.9307  -10.7514  -14.6072 C   0  0  1  0  0  0  0  0  0  0  0  0
   22.3735  -10.9559  -13.2212 C   0  0  0  0  0  0  0  0  0  0  0  0
   21.1069  -10.2271  -12.9883 C   0  0  0  0  0  0  0  0  0  0  0  0
   20.9152   -9.1350  -12.1772 C   0  0  0  0  0  0  0  0  0  0  0  0
   19.6062   -8.7431  -12.2233 N   0  0  0  0  0  0  0  0  0  0  0  0
   18.9953   -9.5949  -13.0625 C   0  0  0  0  0  0  0  0  0  0  0  0
   19.8800  -10.4903  -13.5296 N   0  0  0  0  0  0  0  0  0  0  0  0
   23.0085   -9.3632  -15.0511 C   0  0  0  0  0  0  0  0  0  0  0  0
   24.1441   -8.8362  -15.1684 O   0  0  0  0  0  0  0  0  0  0  0  0
   21.8745   -8.5983  -15.3518 N   0  0  0  0  0  0  0  0  0  0  0  0
   21.9272   -7.2754  -15.9679 C   0  0  1  0  0  0  0  0  0  0  0  0
   22.8273   -7.3159  -17.1928 C   0  0  0  0  0  0  0  0  0  0  0  0
   22.8906   -6.0628  -17.9433 C   0  0  0  0  0  0  0  0  0  0  0  0
   22.8508   -4.9819  -17.2581 O   0  0  0  0  0  0  0  0  0  0  0  0
   20.5729   -6.7749  -16.2632 C   0  0  0  0  0  0  0  0  0  0  0  0
   20.2322   -5.5095  -15.7341 O   0  0  0  0  0  0  0  0  0  0  0  0
   22.9857   -5.9175  -19.2937 O   0  0  0  0  0  0  0  0  0  0  0  0
   19.6923   -7.3350  -16.9231 O   0  0  0  0  0  0  0  0  0  0  0  0
  2  3  1  0
  2  1  1  0
  3  5  1  0
  3  4  1  6
  5  6  1  6
  7  5  1  0
  8  7  2  0
  9  7  1  0
 10  9  1  0
 10 11  1  1
 11 12  1  0
 12 13  2  0
 12 16  1  0
 13 14  1  0
 14 15  1  0
 16 15  2  0
 17 19  1  0
 17 10  1  0
 18 17  2  0
 20 19  1  0
 20 24  1  0
 20 21  1  6
 22 23  2  0
 22 21  1  0
 24 25  1  0
 26 22  1  0
 27 24  2  0
M  END
$$$$
