AMP.pdb
     RDKit          3D

 21 21  0  0  1  0  0  0  0  0999 V2000
   26.4337  -16.8785  -16.6408 C   0  0  0  0  0  0  0  0  0  0  0  0
   27.4536  -17.7491  -15.9876 C   0  0  2  0  0  0  0  0  0  0  0  0
   28.5270  -18.1527  -16.8622 N   0  0  0  0  0  0  0  0  0  0  0  0
   26.7370  -18.9687  -15.4344 C   0  0  0  0  0  0  0  0  0  0  0  0
   26.5181  -19.8544  -16.2948 O   0  0  0  0  0  0  0  0  0  0  0  0
   28.1621  -20.9597   -9.7003 C   0  0  0  0  0  0  0  0  0  0  0  0
   26.3538  -21.1942   -9.5452 S   0  0  0  0  0  0  0  0  0  0  0  0
   25.5923  -21.2366  -11.1962 C   0  0  0  0  0  0  0  0  0  0  0  0
   26.2203  -20.3404  -12.1772 C   0  0  0  0  0  0  0  0  0  0  0  0
   25.7445  -20.2572  -13.5665 C   0  0  2  0  0  0  0  0  0  0  0  0
   26.3866  -19.0203  -14.0712 N   0  0  0  0  0  0  0  0  0  0  0  0
   24.3319  -20.1150  -13.8635 C   0  0  0  0  0  0  0  0  0  0  0  0
   23.8148  -18.9227  -13.6837 O   0  0  0  0  0  0  0  0  0  0  0  0
   23.3808  -21.0297  -14.3233 N   0  0  0  0  0  0  0  0  0  0  0  0
   23.7351  -22.4027  -14.7306 C   0  0  0  0  0  0  0  0  0  0  0  0
   22.6119  -22.8272  -15.6504 C   0  0  0  0  0  0  0  0  0  0  0  0
   21.4240  -22.2646  -14.9234 C   0  0  0  0  0  0  0  0  0  0  0  0
   21.9648  -20.8970  -14.4585 C   0  0  1  0  0  0  0  0  0  0  0  0
   21.2855  -20.6748  -13.1493 C   0  0  0  0  0  0  0  0  0  0  0  0
   20.0902  -19.9900  -13.1001 O   0  0  0  0  0  0  0  0  0  0  0  0
   21.7945  -21.1057  -12.0984 O   0  0  0  0  0  0  0  0  0  0  0  0
  2  1  1  6
  3  2  1  0
  4  2  1  0
  4 11  1  0
  5  4  2  0
  7  6  1  0
  8  7  1  0
  9  8  1  0
 10  9  1  1
 10 11  1  0
 10 12  1  0
 12 14  1  0
 13 12  2  0
 14 15  1  0
 14 18  1  0
 15 16  1  0
 16 17  1  0
 18 19  1  1
 18 17  1  0
 19 20  1  0
 21 19  2  0
M  END
$$$$
