AMP.pdb
     RDKit          3D

 21 21  0  0  1  0  0  0  0  0999 V2000
   16.7084  -17.0990    1.5241 C   0  0  0  0  0  0  0  0  0  0  0  0
   15.8379  -18.3063    1.6212 C   0  0  2  0  0  0  0  0  0  0  0  0
   14.4258  -18.0132    1.6155 N   0  0  0  0  0  0  0  0  0  0  0  0
   16.2170  -19.0510    2.8896 C   0  0  0  0  0  0  0  0  0  0  0  0
   15.4330  -18.8431    3.8460 O   0  0  0  0  0  0  0  0  0  0  0  0
   19.9785  -25.5415    5.1331 C   0  0  0  0  0  0  0  0  0  0  0  0
   19.2593  -24.4296    3.8701 S   0  0  0  0  0  0  0  0  0  0  0  0
   18.6822  -22.8940    4.6552 C   0  0  0  0  0  0  0  0  0  0  0  0
   18.1595  -21.8917    3.7160 C   0  0  0  0  0  0  0  0  0  0  0  0
   17.6917  -20.5734    4.1709 C   0  0  2  0  0  0  0  0  0  0  0  0
   17.3575  -19.8773    2.9056 N   0  0  0  0  0  0  0  0  0  0  0  0
   18.5756  -19.6763    4.8903 C   0  0  0  0  0  0  0  0  0  0  0  0
   19.4239  -18.9866    4.1649 O   0  0  0  0  0  0  0  0  0  0  0  0
   18.7033  -19.3892    6.2519 N   0  0  0  0  0  0  0  0  0  0  0  0
   17.8030  -19.9636    7.2699 C   0  0  0  0  0  0  0  0  0  0  0  0
   17.8968  -19.0104    8.4404 C   0  0  0  0  0  0  0  0  0  0  0  0
   19.3695  -18.7149    8.4464 C   0  0  0  0  0  0  0  0  0  0  0  0
   19.6656  -18.5868    6.9382 C   0  0  1  0  0  0  0  0  0  0  0  0
   21.0522  -19.1198    6.8037 C   0  0  0  0  0  0  0  0  0  0  0  0
   22.1325  -18.3092    7.0797 O   0  0  0  0  0  0  0  0  0  0  0  0
   21.2388  -20.2961    6.4423 O   0  0  0  0  0  0  0  0  0  0  0  0
  2  1  1  1
  3  2  1  0
  4  2  1  0
  4 11  1  0
  5  4  2  0
  7  6  1  0
  8  7  1  0
  9  8  1  0
 10  9  1  6
 10 11  1  0
 10 12  1  0
 12 14  1  0
 13 12  2  0
 14 15  1  0
 14 18  1  0
 15 16  1  0
 16 17  1  0
 18 19  1  1
 18 17  1  0
 19 20  1  0
 21 19  2  0
M  END
$$$$
