AMP.pdb
     RDKit          3D

 21 21  0  0  1  0  0  0  0  0999 V2000
   20.3607  -18.1380  -15.1462 C   0  0  0  0  0  0  0  0  0  0  0  0
   21.2462  -19.1070  -15.8545 C   0  0  2  0  0  0  0  0  0  0  0  0
   20.6998  -20.4382  -15.9516 N   0  0  0  0  0  0  0  0  0  0  0  0
   22.5790  -19.1356  -15.1265 C   0  0  0  0  0  0  0  0  0  0  0  0
   23.1174  -18.0077  -15.0225 O   0  0  0  0  0  0  0  0  0  0  0  0
   26.3585  -20.4265   -9.2173 C   0  0  0  0  0  0  0  0  0  0  0  0
   24.9520  -20.2770  -10.3784 S   0  0  0  0  0  0  0  0  0  0  0  0
   25.1469  -21.4650  -11.7415 C   0  0  0  0  0  0  0  0  0  0  0  0
   24.1750  -21.3023  -12.8318 C   0  0  0  0  0  0  0  0  0  0  0  0
   24.3799  -20.3268  -13.9134 C   0  0  2  0  0  0  0  0  0  0  0  0
   23.0911  -20.3560  -14.6449 N   0  0  0  0  0  0  0  0  0  0  0  0
   25.4057  -20.5321  -14.9180 C   0  0  0  0  0  0  0  0  0  0  0  0
   25.1361  -21.4077  -15.8571 O   0  0  0  0  0  0  0  0  0  0  0  0
   26.6678  -19.9576  -15.0905 N   0  0  0  0  0  0  0  0  0  0  0  0
   27.1669  -18.8694  -14.2282 C   0  0  0  0  0  0  0  0  0  0  0  0
   28.2320  -18.1869  -15.0572 C   0  0  0  0  0  0  0  0  0  0  0  0
   28.9103  -19.3744  -15.6783 C   0  0  0  0  0  0  0  0  0  0  0  0
   27.7058  -20.2756  -16.0191 C   0  0  1  0  0  0  0  0  0  0  0  0
   28.2344  -21.6577  -15.8321 C   0  0  0  0  0  0  0  0  0  0  0  0
   29.0698  -22.2106  -16.7791 O   0  0  0  0  0  0  0  0  0  0  0  0
   27.9238  -22.3159  -14.8224 O   0  0  0  0  0  0  0  0  0  0  0  0
  2  1  1  1
  3  2  1  0
  4  2  1  0
  4 11  1  0
  5  4  2  0
  7  6  1  0
  8  7  1  0
  9  8  1  0
 10  9  1  1
 10 11  1  0
 10 12  1  0
 12 14  1  0
 13 12  2  0
 14 15  1  0
 14 18  1  0
 15 16  1  0
 16 17  1  0
 18 19  1  1
 18 17  1  0
 19 20  1  0
 21 19  2  0
M  END
$$$$
