AMP.pdb
     RDKit          3D

 21 21  0  0  1  0  0  0  0  0999 V2000
   27.1169  -10.8327  -15.4546 C   0  0  0  0  0  0  0  0  0  0  0  0
   26.1638  -11.5472  -16.3524 C   0  0  2  0  0  0  0  0  0  0  0  0
   26.7854  -12.1535  -17.5040 N   0  0  0  0  0  0  0  0  0  0  0  0
   25.1023  -10.5522  -16.7885 C   0  0  0  0  0  0  0  0  0  0  0  0
   25.4069   -9.9172  -17.8262 O   0  0  0  0  0  0  0  0  0  0  0  0
   19.6059  -12.5788  -15.7272 C   0  0  0  0  0  0  0  0  0  0  0  0
   18.9385  -11.0202  -16.4161 S   0  0  0  0  0  0  0  0  0  0  0  0
   20.3027   -9.8822  -16.8049 C   0  0  0  0  0  0  0  0  0  0  0  0
   21.6324  -10.3747  -16.4186 C   0  0  0  0  0  0  0  0  0  0  0  0
   22.8426   -9.5572  -16.5944 C   0  0  2  0  0  0  0  0  0  0  0  0
   23.9158  -10.4173  -16.0417 N   0  0  0  0  0  0  0  0  0  0  0  0
   22.9817   -8.2779  -15.9253 C   0  0  0  0  0  0  0  0  0  0  0  0
   23.3333   -8.3152  -14.6618 O   0  0  0  0  0  0  0  0  0  0  0  0
   22.8124   -6.9671  -16.3788 N   0  0  0  0  0  0  0  0  0  0  0  0
   22.4754   -6.6514  -17.7801 C   0  0  0  0  0  0  0  0  0  0  0  0
   22.9366   -5.2235  -17.9687 C   0  0  0  0  0  0  0  0  0  0  0  0
   22.5070   -4.6136  -16.6651 C   0  0  0  0  0  0  0  0  0  0  0  0
   22.8713   -5.7305  -15.6658 C   0  0  1  0  0  0  0  0  0  0  0  0
   21.8149   -5.6258  -14.6180 C   0  0  0  0  0  0  0  0  0  0  0  0
   21.9287   -4.6867  -13.6154 O   0  0  0  0  0  0  0  0  0  0  0  0
   20.8286   -6.3845  -14.6449 O   0  0  0  0  0  0  0  0  0  0  0  0
  2  1  1  6
  3  2  1  0
  4  2  1  0
  4 11  1  0
  5  4  2  0
  7  6  1  0
  8  7  1  0
  9  8  1  0
 10  9  1  1
 10 11  1  0
 10 12  1  0
 12 14  1  0
 13 12  2  0
 14 15  1  0
 14 18  1  0
 15 16  1  0
 16 17  1  0
 18 19  1  1
 18 17  1  0
 19 20  1  0
 21 19  2  0
M  END
$$$$
