AMP.pdb
     RDKit          3D

 21 21  0  0  1  0  0  0  0  0999 V2000
   21.0729  -21.2912  -15.5283 C   0  0  0  0  0  0  0  0  0  0  0  0
   21.0363  -21.0729  -14.0532 C   0  0  2  0  0  0  0  0  0  0  0  0
   19.9503  -20.2329  -13.6115 N   0  0  0  0  0  0  0  0  0  0  0  0
   22.3690  -20.4732  -13.6396 C   0  0  0  0  0  0  0  0  0  0  0  0
   22.3888  -19.2200  -13.6804 O   0  0  0  0  0  0  0  0  0  0  0  0
   24.7669  -20.3711   -8.8310 C   0  0  0  0  0  0  0  0  0  0  0  0
   26.4692  -20.4129   -9.5016 S   0  0  0  0  0  0  0  0  0  0  0  0
   26.4779  -21.2552  -11.1134 C   0  0  0  0  0  0  0  0  0  0  0  0
   25.1473  -21.4361  -11.7106 C   0  0  0  0  0  0  0  0  0  0  0  0
   24.7239  -20.6841  -12.9017 C   0  0  2  0  0  0  0  0  0  0  0  0
   23.4317  -21.3159  -13.2598 N   0  0  0  0  0  0  0  0  0  0  0  0
   25.5181  -20.7008  -14.1152 C   0  0  0  0  0  0  0  0  0  0  0  0
   25.3748  -21.7481  -14.8923 O   0  0  0  0  0  0  0  0  0  0  0  0
   26.4356  -19.7866  -14.6397 N   0  0  0  0  0  0  0  0  0  0  0  0
   26.7802  -18.5277  -13.9518 C   0  0  0  0  0  0  0  0  0  0  0  0
   27.3051  -17.6278  -15.0482 C   0  0  0  0  0  0  0  0  0  0  0  0
   28.1272  -18.6016  -15.8431 C   0  0  0  0  0  0  0  0  0  0  0  0
   27.2252  -19.8526  -15.8284 C   0  0  1  0  0  0  0  0  0  0  0  0
   28.1939  -20.9866  -15.8070 C   0  0  0  0  0  0  0  0  0  0  0  0
   28.8186  -21.3820  -16.9705 O   0  0  0  0  0  0  0  0  0  0  0  0
   28.4413  -21.5791  -14.7408 O   0  0  0  0  0  0  0  0  0  0  0  0
  2  1  1  6
  3  2  1  0
  4  2  1  0
  4 11  1  0
  5  4  2  0
  7  6  1  0
  8  7  1  0
  9  8  1  0
 10  9  1  1
 10 11  1  0
 10 12  1  0
 12 14  1  0
 13 12  2  0
 14 15  1  0
 14 18  1  0
 15 16  1  0
 16 17  1  0
 18 19  1  1
 18 17  1  0
 19 20  1  0
 21 19  2  0
M  END
$$$$
