AMP.pdb
     RDKit          3D

 21 21  0  0  1  0  0  0  0  0999 V2000
   21.3880  -18.8084  -17.3173 C   0  0  0  0  0  0  0  0  0  0  0  0
   21.2199  -18.3979  -15.8932 C   0  0  2  0  0  0  0  0  0  0  0  0
   20.7707  -17.0379  -15.7240 N   0  0  0  0  0  0  0  0  0  0  0  0
   22.5503  -18.6053  -15.1903 C   0  0  0  0  0  0  0  0  0  0  0  0
   23.2877  -17.5910  -15.2039 O   0  0  0  0  0  0  0  0  0  0  0  0
   25.5430  -19.6557   -9.4736 C   0  0  0  0  0  0  0  0  0  0  0  0
   24.4240  -20.9786  -10.0625 S   0  0  0  0  0  0  0  0  0  0  0  0
   24.7882  -21.3674  -11.8014 C   0  0  0  0  0  0  0  0  0  0  0  0
   23.7779  -20.8876  -12.7548 C   0  0  0  0  0  0  0  0  0  0  0  0
   24.1235  -19.9775  -13.8575 C   0  0  2  0  0  0  0  0  0  0  0  0
   22.8494  -19.8506  -14.6042 N   0  0  0  0  0  0  0  0  0  0  0  0
   25.1210  -20.3465  -14.8437 C   0  0  0  0  0  0  0  0  0  0  0  0
   24.7382  -21.1882  -15.7744 O   0  0  0  0  0  0  0  0  0  0  0  0
   26.4556  -19.9651  -15.0053 N   0  0  0  0  0  0  0  0  0  0  0  0
   27.1056  -18.9689  -14.1326 C   0  0  0  0  0  0  0  0  0  0  0  0
   28.2656  -18.4472  -14.9508 C   0  0  0  0  0  0  0  0  0  0  0  0
   28.7635  -19.7185  -15.5770 C   0  0  0  0  0  0  0  0  0  0  0  0
   27.4405  -20.4281  -15.9308 C   0  0  1  0  0  0  0  0  0  0  0  0
   27.7563  -21.8747  -15.7510 C   0  0  0  0  0  0  0  0  0  0  0  0
   28.5200  -22.5356  -16.6892 O   0  0  0  0  0  0  0  0  0  0  0  0
   27.3322  -22.4895  -14.7553 O   0  0  0  0  0  0  0  0  0  0  0  0
  2  1  1  6
  3  2  1  0
  4  2  1  0
  4 11  1  0
  5  4  2  0
  7  6  1  0
  8  7  1  0
  9  8  1  0
 10  9  1  1
 10 11  1  0
 10 12  1  0
 12 14  1  0
 13 12  2  0
 14 15  1  0
 14 18  1  0
 15 16  1  0
 16 17  1  0
 18 19  1  1
 18 17  1  0
 19 20  1  0
 21 19  2  0
M  END
$$$$
