AMP.pdb
     RDKit          3D

 21 21  0  0  1  0  0  0  0  0999 V2000
   21.2181   -9.7246  -19.4072 C   0  0  0  0  0  0  0  0  0  0  0  0
   21.1807  -10.4729  -18.1174 C   0  0  2  0  0  0  0  0  0  0  0  0
   20.4410  -11.7095  -18.1782 N   0  0  0  0  0  0  0  0  0  0  0  0
   20.5860   -9.5536  -17.0647 C   0  0  0  0  0  0  0  0  0  0  0  0
   19.3847   -9.2615  -17.2754 O   0  0  0  0  0  0  0  0  0  0  0  0
   22.9514  -10.2025  -11.3283 C   0  0  0  0  0  0  0  0  0  0  0  0
   21.2734   -9.5614  -10.9783 S   0  0  0  0  0  0  0  0  0  0  0  0
   20.7052   -8.5286  -12.3631 C   0  0  0  0  0  0  0  0  0  0  0  0
   21.0779   -9.0358  -13.6912 C   0  0  0  0  0  0  0  0  0  0  0  0
   20.7214   -8.3162  -14.9235 C   0  0  2  0  0  0  0  0  0  0  0  0
   21.3775   -9.1162  -15.9849 N   0  0  0  0  0  0  0  0  0  0  0  0
   21.1534   -6.9486  -15.1396 C   0  0  0  0  0  0  0  0  0  0  0  0
   22.4152   -6.7782  -15.4560 O   0  0  0  0  0  0  0  0  0  0  0  0
   20.4646   -5.7343  -15.0786 N   0  0  0  0  0  0  0  0  0  0  0  0
   18.9974   -5.6624  -14.9418 C   0  0  0  0  0  0  0  0  0  0  0  0
   18.6334   -4.2944  -15.4743 C   0  0  0  0  0  0  0  0  0  0  0  0
   19.7431   -3.4626  -14.8974 C   0  0  0  0  0  0  0  0  0  0  0  0
   20.9582   -4.3937  -15.0861 C   0  0  1  0  0  0  0  0  0  0  0  0
   21.8183   -4.0962  -13.9045 C   0  0  0  0  0  0  0  0  0  0  0  0
   22.5736   -2.9435  -13.8740 O   0  0  0  0  0  0  0  0  0  0  0  0
   21.8574   -4.8861  -12.9434 O   0  0  0  0  0  0  0  0  0  0  0  0
  2  1  1  6
  3  2  1  0
  4  2  1  0
  4 11  1  0
  5  4  2  0
  7  6  1  0
  8  7  1  0
  9  8  1  0
 10  9  1  1
 10 11  1  0
 10 12  1  0
 12 14  1  0
 13 12  2  0
 14 15  1  0
 14 18  1  0
 15 16  1  0
 16 17  1  0
 18 19  1  1
 18 17  1  0
 19 20  1  0
 21 19  2  0
M  END
$$$$
