AMP.pdb
     RDKit          3D

 21 21  0  0  1  0  0  0  0  0999 V2000
   21.0721  -21.1547  -15.5681 C   0  0  0  0  0  0  0  0  0  0  0  0
   21.0683  -21.0193  -14.0826 C   0  0  2  0  0  0  0  0  0  0  0  0
   19.9974  -20.1997  -13.5712 N   0  0  0  0  0  0  0  0  0  0  0  0
   22.4134  -20.4506  -13.6650 C   0  0  0  0  0  0  0  0  0  0  0  0
   22.4811  -19.2021  -13.7610 O   0  0  0  0  0  0  0  0  0  0  0  0
   24.9246  -20.4598   -8.5687 C   0  0  0  0  0  0  0  0  0  0  0  0
   26.4158  -20.1486   -9.5828 S   0  0  0  0  0  0  0  0  0  0  0  0
   26.4375  -21.2738  -11.0115 C   0  0  0  0  0  0  0  0  0  0  0  0
   25.1292  -21.4645  -11.6535 C   0  0  0  0  0  0  0  0  0  0  0  0
   24.7396  -20.7130  -12.8564 C   0  0  2  0  0  0  0  0  0  0  0  0
   23.4351  -21.3136  -13.2234 N   0  0  0  0  0  0  0  0  0  0  0  0
   25.5468  -20.7628  -14.0604 C   0  0  0  0  0  0  0  0  0  0  0  0
   25.4075  -21.8284  -14.8130 O   0  0  0  0  0  0  0  0  0  0  0  0
   26.4737  -19.8654  -14.5973 N   0  0  0  0  0  0  0  0  0  0  0  0
   26.7917  -18.5762  -13.9541 C   0  0  0  0  0  0  0  0  0  0  0  0
   27.3424  -17.7200  -15.0725 C   0  0  0  0  0  0  0  0  0  0  0  0
   28.1921  -18.7209  -15.8020 C   0  0  0  0  0  0  0  0  0  0  0  0
   27.2970  -19.9763  -15.7595 C   0  0  1  0  0  0  0  0  0  0  0  0
   28.2710  -21.1017  -15.6628 C   0  0  0  0  0  0  0  0  0  0  0  0
   28.9120  -21.5581  -16.7947 O   0  0  0  0  0  0  0  0  0  0  0  0
   28.5081  -21.6322  -14.5622 O   0  0  0  0  0  0  0  0  0  0  0  0
  2  1  1  6
  3  2  1  0
  4  2  1  0
  4 11  1  0
  5  4  2  0
  7  6  1  0
  8  7  1  0
  9  8  1  0
 10  9  1  1
 10 11  1  0
 10 12  1  0
 12 14  1  0
 13 12  2  0
 14 15  1  0
 14 18  1  0
 15 16  1  0
 16 17  1  0
 18 19  1  1
 18 17  1  0
 19 20  1  0
 21 19  2  0
M  END
$$$$
