AMP.pdb
     RDKit          3D

 21 21  0  0  1  0  0  0  0  0999 V2000
   28.1477  -16.1288  -15.9800 C   0  0  0  0  0  0  0  0  0  0  0  0
   26.8887  -16.8555  -16.3141 C   0  0  2  0  0  0  0  0  0  0  0  0
   25.6874  -16.1483  -15.9441 N   0  0  0  0  0  0  0  0  0  0  0  0
   26.9373  -18.2087  -15.6260 C   0  0  0  0  0  0  0  0  0  0  0  0
   27.8927  -18.9284  -16.0028 O   0  0  0  0  0  0  0  0  0  0  0  0
   25.5772  -21.1750   -8.5945 C   0  0  0  0  0  0  0  0  0  0  0  0
   25.3339  -19.8733   -9.8576 S   0  0  0  0  0  0  0  0  0  0  0  0
   25.8015  -20.5075  -11.4967 C   0  0  0  0  0  0  0  0  0  0  0  0
   25.8010  -19.4948  -12.5618 C   0  0  0  0  0  0  0  0  0  0  0  0
   26.1038  -19.8401  -13.9592 C   0  0  2  0  0  0  0  0  0  0  0  0
   25.9627  -18.5451  -14.6664 N   0  0  0  0  0  0  0  0  0  0  0  0
   25.2756  -20.7790  -14.6913 C   0  0  0  0  0  0  0  0  0  0  0  0
   24.1342  -20.3191  -15.1463 O   0  0  0  0  0  0  0  0  0  0  0  0
   25.4627  -22.1237  -15.0224 N   0  0  0  0  0  0  0  0  0  0  0  0
   26.6903  -22.8623  -14.6701 C   0  0  0  0  0  0  0  0  0  0  0  0
   26.7361  -24.0119  -15.6518 C   0  0  0  0  0  0  0  0  0  0  0  0
   25.2894  -24.4146  -15.6826 C   0  0  0  0  0  0  0  0  0  0  0  0
   24.5859  -23.0420  -15.6772 C   0  0  1  0  0  0  0  0  0  0  0  0
   23.3360  -23.2885  -14.9014 C   0  0  0  0  0  0  0  0  0  0  0  0
   22.2766  -23.9448  -15.4908 O   0  0  0  0  0  0  0  0  0  0  0  0
   23.2448  -22.9033  -13.7214 O   0  0  0  0  0  0  0  0  0  0  0  0
  2  1  1  1
  3  2  1  0
  4  2  1  0
  4 11  1  0
  5  4  2  0
  7  6  1  0
  8  7  1  0
  9  8  1  0
 10  9  1  1
 10 11  1  0
 10 12  1  0
 12 14  1  0
 13 12  2  0
 14 15  1  0
 14 18  1  0
 15 16  1  0
 16 17  1  0
 18 19  1  1
 18 17  1  0
 19 20  1  0
 21 19  2  0
M  END
$$$$
