AMP.pdb
     RDKit          3D

 21 21  0  0  1  0  0  0  0  0999 V2000
   26.0639  -23.9387  -17.3721 C   0  0  0  0  0  0  0  0  0  0  0  0
   26.3359  -24.4897  -16.0130 C   0  0  2  0  0  0  0  0  0  0  0  0
   26.0878  -25.9055  -15.8937 N   0  0  0  0  0  0  0  0  0  0  0  0
   25.4826  -23.7192  -15.0205 C   0  0  0  0  0  0  0  0  0  0  0  0
   24.3976  -24.2855  -14.7468 O   0  0  0  0  0  0  0  0  0  0  0  0
   23.3240  -20.4969   -9.8081 C   0  0  0  0  0  0  0  0  0  0  0  0
   25.0569  -21.0159  -10.0851 S   0  0  0  0  0  0  0  0  0  0  0  0
   25.7162  -20.2006  -11.5710 C   0  0  0  0  0  0  0  0  0  0  0  0
   26.1110  -21.1233  -12.6447 C   0  0  0  0  0  0  0  0  0  0  0  0
   25.1148  -21.8229  -13.4702 C   0  0  2  0  0  0  0  0  0  0  0  0
   25.9405  -22.4915  -14.5038 N   0  0  0  0  0  0  0  0  0  0  0  0
   24.0985  -21.0859  -14.1966 C   0  0  0  0  0  0  0  0  0  0  0  0
   24.5251  -20.2709  -15.1321 O   0  0  0  0  0  0  0  0  0  0  0  0
   22.7048  -21.0757  -14.0949 N   0  0  0  0  0  0  0  0  0  0  0  0
   21.9732  -21.9484  -13.1568 C   0  0  0  0  0  0  0  0  0  0  0  0
   20.5813  -22.0494  -13.7399 C   0  0  0  0  0  0  0  0  0  0  0  0
   20.3576  -20.6319  -14.1835 C   0  0  0  0  0  0  0  0  0  0  0  0
   21.7376  -20.2695  -14.7696 C   0  0  1  0  0  0  0  0  0  0  0  0
   21.8853  -18.8190  -14.4553 C   0  0  0  0  0  0  0  0  0  0  0  0
   21.1630  -17.8828  -15.1638 O   0  0  0  0  0  0  0  0  0  0  0  0
   22.6598  -18.4491  -13.5540 O   0  0  0  0  0  0  0  0  0  0  0  0
  2  1  1  6
  3  2  1  0
  4  2  1  0
  4 11  1  0
  5  4  2  0
  7  6  1  0
  8  7  1  0
  9  8  1  0
 10  9  1  6
 10 11  1  0
 10 12  1  0
 12 14  1  0
 13 12  2  0
 14 15  1  0
 14 18  1  0
 15 16  1  0
 16 17  1  0
 18 19  1  1
 18 17  1  0
 19 20  1  0
 21 19  2  0
M  END
$$$$
