AMP.pdb
     RDKit          3D

 21 21  0  0  1  0  0  0  0  0999 V2000
   17.9286  -13.8372  -17.6259 C   0  0  0  0  0  0  0  0  0  0  0  0
   19.0971  -14.7241  -17.3563 C   0  0  2  0  0  0  0  0  0  0  0  0
   18.7690  -15.9179  -16.6164 N   0  0  0  0  0  0  0  0  0  0  0  0
   20.1361  -13.9080  -16.6070 C   0  0  0  0  0  0  0  0  0  0  0  0
   19.9445  -13.8689  -15.3682 O   0  0  0  0  0  0  0  0  0  0  0  0
   26.4826  -14.0873  -14.4878 C   0  0  0  0  0  0  0  0  0  0  0  0
   25.5330  -14.3965  -16.0213 S   0  0  0  0  0  0  0  0  0  0  0  0
   24.8048  -12.8418  -16.6213 C   0  0  0  0  0  0  0  0  0  0  0  0
   23.4790  -12.9909  -17.2377 C   0  0  0  0  0  0  0  0  0  0  0  0
   22.2473  -12.6155  -16.5266 C   0  0  2  0  0  0  0  0  0  0  0  0
   21.1844  -13.2860  -17.3126 N   0  0  0  0  0  0  0  0  0  0  0  0
   21.8408  -11.2272  -16.4217 C   0  0  0  0  0  0  0  0  0  0  0  0
   21.2493  -10.7111  -17.4730 O   0  0  0  0  0  0  0  0  0  0  0  0
   21.9560  -10.2995  -15.3830 N   0  0  0  0  0  0  0  0  0  0  0  0
   22.5531  -10.6423  -14.0781 C   0  0  0  0  0  0  0  0  0  0  0  0
   21.9860   -9.6179  -13.1208 C   0  0  0  0  0  0  0  0  0  0  0  0
   22.0490   -8.3772  -13.9651 C   0  0  0  0  0  0  0  0  0  0  0  0
   21.6036   -8.9157  -15.3402 C   0  0  1  0  0  0  0  0  0  0  0  0
   22.3870   -8.0978  -16.3107 C   0  0  0  0  0  0  0  0  0  0  0  0
   22.0592   -6.7754  -16.5206 O   0  0  0  0  0  0  0  0  0  0  0  0
   23.3376   -8.6050  -16.9337 O   0  0  0  0  0  0  0  0  0  0  0  0
  2  1  1  1
  3  2  1  0
  4  2  1  0
  4 11  1  0
  5  4  2  0
  7  6  1  0
  8  7  1  0
  9  8  1  0
 10  9  1  6
 10 11  1  0
 10 12  1  0
 12 14  1  0
 13 12  2  0
 14 15  1  0
 14 18  1  0
 15 16  1  0
 16 17  1  0
 18 19  1  6
 18 17  1  0
 19 20  1  0
 21 19  2  0
M  END
$$$$
