AMP.pdb
     RDKit          3D

 21 21  0  0  1  0  0  0  0  0999 V2000
   20.9035  -20.2920  -16.4859 C   0  0  0  0  0  0  0  0  0  0  0  0
   20.7965  -20.5335  -15.0179 C   0  0  2  0  0  0  0  0  0  0  0  0
   19.7252  -19.8079  -14.3808 N   0  0  0  0  0  0  0  0  0  0  0  0
   22.1294  -20.1665  -14.3888 C   0  0  0  0  0  0  0  0  0  0  0  0
   22.2153  -18.9576  -14.0663 O   0  0  0  0  0  0  0  0  0  0  0  0
   24.1906  -20.4790   -9.3871 C   0  0  0  0  0  0  0  0  0  0  0  0
   25.7822  -20.4505  -10.2898 S   0  0  0  0  0  0  0  0  0  0  0  0
   25.7539  -21.6782  -11.6312 C   0  0  0  0  0  0  0  0  0  0  0  0
   24.5390  -21.6462  -12.4575 C   0  0  0  0  0  0  0  0  0  0  0  0
   24.4091  -20.7409  -13.6096 C   0  0  2  0  0  0  0  0  0  0  0  0
   23.1220  -21.1513  -14.2196 N   0  0  0  0  0  0  0  0  0  0  0  0
   25.3788  -20.7630  -14.6879 C   0  0  0  0  0  0  0  0  0  0  0  0
   25.2831  -21.7571  -15.5387 O   0  0  0  0  0  0  0  0  0  0  0  0
   26.4297  -19.9010  -15.0124 N   0  0  0  0  0  0  0  0  0  0  0  0
   26.7185  -18.6784  -14.2387 C   0  0  0  0  0  0  0  0  0  0  0  0
   27.4872  -17.7960  -15.1967 C   0  0  0  0  0  0  0  0  0  0  0  0
   28.3801  -18.8072  -15.8572 C   0  0  0  0  0  0  0  0  0  0  0  0
   27.4169  -19.9978  -16.0405 C   0  0  1  0  0  0  0  0  0  0  0  0
   28.2955  -21.1918  -15.8765 C   0  0  0  0  0  0  0  0  0  0  0  0
   29.0895  -21.6126  -16.9218 O   0  0  0  0  0  0  0  0  0  0  0  0
   28.3150  -21.8117  -14.7974 O   0  0  0  0  0  0  0  0  0  0  0  0
  2  1  1  6
  3  2  1  0
  4  2  1  0
  4 11  1  0
  5  4  2  0
  7  6  1  0
  8  7  1  0
  9  8  1  0
 10  9  1  1
 10 11  1  0
 10 12  1  0
 12 14  1  0
 13 12  2  0
 14 15  1  0
 14 18  1  0
 15 16  1  0
 16 17  1  0
 18 19  1  1
 18 17  1  0
 19 20  1  0
 21 19  2  0
M  END
$$$$
