AMP.pdb
     RDKit          3D

 21 21  0  0  1  0  0  0  0  0999 V2000
   27.5351  -18.9091  -14.5972 C   0  0  0  0  0  0  0  0  0  0  0  0
   28.5927  -19.2820  -13.6136 C   0  0  2  0  0  0  0  0  0  0  0  0
   29.5642  -20.2181  -14.1237 N   0  0  0  0  0  0  0  0  0  0  0  0
   27.9042  -19.8527  -12.3859 C   0  0  0  0  0  0  0  0  0  0  0  0
   27.9471  -21.1045  -12.3239 O   0  0  0  0  0  0  0  0  0  0  0  0
   27.0330  -21.1195   -6.0929 C   0  0  0  0  0  0  0  0  0  0  0  0
   27.8052  -19.6219   -6.8069 S   0  0  0  0  0  0  0  0  0  0  0  0
   26.5846  -18.7116   -7.8014 C   0  0  0  0  0  0  0  0  0  0  0  0
   26.9638  -18.5293   -9.2095 C   0  0  0  0  0  0  0  0  0  0  0  0
   26.7468  -19.5826  -10.2129 C   0  0  2  0  0  0  0  0  0  0  0  0
   27.2989  -18.9880  -11.4534 N   0  0  0  0  0  0  0  0  0  0  0  0
   25.4076  -20.0243  -10.5523 C   0  0  0  0  0  0  0  0  0  0  0  0
   24.6456  -19.1546  -11.1722 O   0  0  0  0  0  0  0  0  0  0  0  0
   24.7474  -21.2384  -10.3448 N   0  0  0  0  0  0  0  0  0  0  0  0
   25.4304  -22.4283   -9.8023 C   0  0  0  0  0  0  0  0  0  0  0  0
   24.5831  -23.5940  -10.2611 C   0  0  0  0  0  0  0  0  0  0  0  0
   23.2030  -23.0393  -10.0522 C   0  0  0  0  0  0  0  0  0  0  0  0
   23.3760  -21.5867  -10.5413 C   0  0  1  0  0  0  0  0  0  0  0  0
   22.4579  -20.8061   -9.6623 C   0  0  0  0  0  0  0  0  0  0  0  0
   21.0997  -20.8210   -9.8974 O   0  0  0  0  0  0  0  0  0  0  0  0
   22.9138  -20.1396   -8.7151 O   0  0  0  0  0  0  0  0  0  0  0  0
  2  1  1  6
  3  2  1  0
  4  2  1  0
  4 11  1  0
  5  4  2  0
  7  6  1  0
  8  7  1  0
  9  8  1  0
 10  9  1  1
 10 11  1  0
 10 12  1  0
 12 14  1  0
 13 12  2  0
 14 15  1  0
 14 18  1  0
 15 16  1  0
 16 17  1  0
 18 19  1  1
 18 17  1  0
 19 20  1  0
 21 19  2  0
M  END
$$$$
