DAY.pdb
     RDKit          3D

 26 26  0  0  1  0  0  0  0  0999 V2000
   28.8785    4.4968   -8.5140 N   0  0  0  0  0  0  0  0  0  0  0  0
   29.7001    3.6198   -7.7238 C   0  0  1  0  0  0  0  0  0  0  0  0
   29.2301    2.1814   -7.9693 C   0  0  0  0  0  0  0  0  0  0  0  0
   30.0049    1.2454   -7.1172 C   0  0  0  0  0  0  0  0  0  0  0  0
   30.8439    1.6550   -6.2973 O   0  0  0  0  0  0  0  0  0  0  0  0
   31.1114    3.6942   -8.1965 C   0  0  0  0  0  0  0  0  0  0  0  0
   31.3546    3.7146   -9.4299 O   0  0  0  0  0  0  0  0  0  0  0  0
   29.7767   -0.1129   -7.2501 O   0  0  0  0  0  0  0  0  0  0  0  0
   34.3982    4.4840   -6.6042 C   0  0  0  0  0  0  0  0  0  0  0  0
   33.5630    3.9855   -7.7641 C   0  0  2  0  0  0  0  0  0  0  0  0
   32.2095    3.7434   -7.3059 N   0  0  0  0  0  0  0  0  0  0  0  0
   34.1652    2.7681   -8.3584 C   0  0  0  0  0  0  0  0  0  0  0  0
   35.2948    2.8165   -8.9058 O   0  0  0  0  0  0  0  0  0  0  0  0
   36.4386   -5.7153   -8.8411 O   0  0  0  0  0  0  0  0  0  0  0  0
   35.8890   -4.4676   -8.5359 C   0  0  0  0  0  0  0  0  0  0  0  0
   34.5334   -4.2368   -8.6436 C   0  0  0  0  0  0  0  0  0  0  0  0
   33.9800   -3.0095   -8.3449 C   0  0  0  0  0  0  0  0  0  0  0  0
   34.7621   -1.9480   -7.9216 C   0  0  0  0  0  0  0  0  0  0  0  0
   34.1784   -0.6223   -7.5978 C   0  0  0  0  0  0  0  0  0  0  0  0
   34.0512    0.2788   -8.8019 C   0  0  2  0  0  0  0  0  0  0  0  0
   33.4869    1.5321   -8.3232 N   0  0  0  0  0  0  0  0  0  0  0  0
   33.2668   -0.2923   -9.9045 C   0  0  0  0  0  0  0  0  0  0  0  0
   33.8903   -1.0199  -10.9041 O   0  0  0  0  0  0  0  0  0  0  0  0
   36.1202   -2.1842   -7.8151 C   0  0  0  0  0  0  0  0  0  0  0  0
   36.6713   -3.4125   -8.1142 C   0  0  0  0  0  0  0  0  0  0  0  0
   32.0090   -0.1612  -10.0113 O   0  0  0  0  0  0  0  0  0  0  0  0
  2  1  1  6
  2  3  1  0
  4  3  1  0
  4  8  1  0
  5  4  2  0
  6  2  1  0
  7  6  2  0
 10  9  1  1
 10 11  1  0
 11  6  1  0
 12 10  1  0
 12 21  1  0
 13 12  2  0
 15 14  1  0
 16 15  2  0
 17 16  1  0
 18 24  1  0
 18 17  2  0
 19 18  1  0
 20 21  1  0
 20 22  1  0
 20 19  1  1
 22 26  2  0
 22 23  1  0
 24 25  2  0
 25 15  1  0
M  END
$$$$
