DAY.pdb
     RDKit          3D

 26 26  0  0  1  0  0  0  0  0999 V2000
   18.8259  -12.0118  -19.6141 N   0  0  0  0  0  0  0  0  0  0  0  0
   19.6091  -11.3789  -18.5872 C   0  0  1  0  0  0  0  0  0  0  0  0
   20.8122  -12.2800  -18.2859 C   0  0  0  0  0  0  0  0  0  0  0  0
   20.3729  -13.4628  -17.5044 C   0  0  0  0  0  0  0  0  0  0  0  0
   19.2480  -13.5142  -16.9793 O   0  0  0  0  0  0  0  0  0  0  0  0
   20.1579  -10.0909  -19.0978 C   0  0  0  0  0  0  0  0  0  0  0  0
   20.6571  -10.0403  -20.2507 O   0  0  0  0  0  0  0  0  0  0  0  0
   21.2479  -14.5259  -17.3659 O   0  0  0  0  0  0  0  0  0  0  0  0
   20.0031   -6.5018  -18.1035 C   0  0  0  0  0  0  0  0  0  0  0  0
   20.6572   -7.6477  -18.8453 C   0  0  2  0  0  0  0  0  0  0  0  0
   20.1431   -8.9017  -18.3316 N   0  0  0  0  0  0  0  0  0  0  0  0
   22.1333   -7.5728  -18.7284 C   0  0  0  0  0  0  0  0  0  0  0  0
   22.7655   -6.6100  -19.2297 O   0  0  0  0  0  0  0  0  0  0  0  0
   22.1283   -3.9914  -13.8946 O   0  0  0  0  0  0  0  0  0  0  0  0
   22.7278   -5.0927  -14.5107 C   0  0  0  0  0  0  0  0  0  0  0  0
   22.2554   -6.3724  -14.3063 C   0  0  0  0  0  0  0  0  0  0  0  0
   22.8392   -7.4667  -14.9091 C   0  0  0  0  0  0  0  0  0  0  0  0
   23.9305   -7.3314  -15.7507 C   0  0  0  0  0  0  0  0  0  0  0  0
   24.5679   -8.5013  -16.4049 C   0  0  0  0  0  0  0  0  0  0  0  0
   24.3054   -8.5653  -17.8898 C   0  0  2  0  0  0  0  0  0  0  0  0
   22.8594   -8.5767  -18.0545 N   0  0  0  0  0  0  0  0  0  0  0  0
   24.9456   -9.6995  -18.5687 C   0  0  0  0  0  0  0  0  0  0  0  0
   24.1770  -10.6566  -19.2097 O   0  0  0  0  0  0  0  0  0  0  0  0
   24.4003   -6.0468  -15.9526 C   0  0  0  0  0  0  0  0  0  0  0  0
   23.8148   -4.9539  -15.3487 C   0  0  0  0  0  0  0  0  0  0  0  0
   26.2021   -9.8725  -18.6113 O   0  0  0  0  0  0  0  0  0  0  0  0
  2  1  1  6
  2  3  1  0
  4  3  1  0
  4  8  1  0
  5  4  2  0
  6  2  1  0
  7  6  2  0
 10  9  1  1
 10 11  1  0
 11  6  1  0
 12 10  1  0
 12 21  1  0
 13 12  2  0
 15 14  1  0
 16 15  2  0
 17 16  1  0
 18 24  1  0
 18 17  2  0
 19 18  1  0
 20 21  1  0
 20 22  1  0
 20 19  1  1
 22 26  2  0
 22 23  1  0
 24 25  2  0
 25 15  1  0
M  END
$$$$
