DAY.pdb
     RDKit          3D

 26 26  0  0  1  0  0  0  0  0999 V2000
   15.5896   -6.3048  -11.8766 N   0  0  0  0  0  0  0  0  0  0  0  0
   16.7340   -5.4348  -11.8312 C   0  0  1  0  0  0  0  0  0  0  0  0
   17.5397   -5.7771  -10.5727 C   0  0  0  0  0  0  0  0  0  0  0  0
   16.8214   -5.2938   -9.3673 C   0  0  0  0  0  0  0  0  0  0  0  0
   17.0520   -5.7639   -8.2405 O   0  0  0  0  0  0  0  0  0  0  0  0
   17.6218   -5.7134  -12.9953 C   0  0  0  0  0  0  0  0  0  0  0  0
   17.8421   -6.9024  -13.3396 O   0  0  0  0  0  0  0  0  0  0  0  0
   15.8751   -4.2953   -9.5175 O   0  0  0  0  0  0  0  0  0  0  0  0
   19.1187   -3.6978  -15.7650 C   0  0  0  0  0  0  0  0  0  0  0  0
   19.0215   -4.9582  -14.9324 C   0  0  2  0  0  0  0  0  0  0  0  0
   18.2390   -4.6837  -13.7437 N   0  0  0  0  0  0  0  0  0  0  0  0
   20.3720   -5.4671  -14.5926 C   0  0  0  0  0  0  0  0  0  0  0  0
   20.9925   -5.0164  -13.5977 O   0  0  0  0  0  0  0  0  0  0  0  0
   27.7386  -10.4332  -15.7964 O   0  0  0  0  0  0  0  0  0  0  0  0
   26.4546   -9.8850  -15.8482 C   0  0  0  0  0  0  0  0  0  0  0  0
   25.4991  -10.2096  -14.9079 C   0  0  0  0  0  0  0  0  0  0  0  0
   24.2288   -9.6746  -14.9492 C   0  0  0  0  0  0  0  0  0  0  0  0
   23.8519   -8.7835  -15.9399 C   0  0  0  0  0  0  0  0  0  0  0  0
   22.4877   -8.2014  -15.9954 C   0  0  0  0  0  0  0  0  0  0  0  0
   22.3371   -6.9633  -15.1455 C   0  0  2  0  0  0  0  0  0  0  0  0
   20.9891   -6.4649  -15.3752 N   0  0  0  0  0  0  0  0  0  0  0  0
   23.3543   -5.9330  -15.3922 C   0  0  0  0  0  0  0  0  0  0  0  0
   24.3648   -5.7117  -14.4717 O   0  0  0  0  0  0  0  0  0  0  0  0
   24.8131   -8.4611  -16.8801 C   0  0  0  0  0  0  0  0  0  0  0  0
   26.0829   -8.9974  -16.8367 C   0  0  0  0  0  0  0  0  0  0  0  0
   23.3741   -5.2017  -16.4293 O   0  0  0  0  0  0  0  0  0  0  0  0
  2  1  1  6
  2  3  1  0
  4  3  1  0
  4  8  1  0
  5  4  2  0
  6  2  1  0
  7  6  2  0
 10  9  1  1
 10 11  1  0
 11  6  1  0
 12 10  1  0
 12 21  1  0
 13 12  2  0
 15 14  1  0
 16 15  2  0
 17 16  1  0
 18 24  1  0
 18 17  2  0
 19 18  1  0
 20 21  1  0
 20 22  1  0
 20 19  1  6
 22 26  2  0
 22 23  1  0
 24 25  2  0
 25 15  1  0
M  END
$$$$
