DAY.pdb
     RDKit          3D

 26 26  0  0  1  0  0  0  0  0999 V2000
   20.0524   -9.7522  -16.8859 N   0  0  0  0  0  0  0  0  0  0  0  0
   20.9440   -9.3679  -17.9470 C   0  0  1  0  0  0  0  0  0  0  0  0
   20.9541  -10.4931  -18.9882 C   0  0  0  0  0  0  0  0  0  0  0  0
   20.4267  -11.7425  -18.3853 C   0  0  0  0  0  0  0  0  0  0  0  0
   19.5999  -11.7188  -17.4580 O   0  0  0  0  0  0  0  0  0  0  0  0
   20.4133   -8.1562  -18.6333 C   0  0  0  0  0  0  0  0  0  0  0  0
   20.0535   -8.2293  -19.8358 O   0  0  0  0  0  0  0  0  0  0  0  0
   20.8757  -12.9552  -18.8781 O   0  0  0  0  0  0  0  0  0  0  0  0
   18.1286   -6.1286  -18.7172 C   0  0  0  0  0  0  0  0  0  0  0  0
   19.5974   -5.7868  -18.5860 C   0  0  2  0  0  0  0  0  0  0  0  0
   20.2939   -6.9056  -17.9828 N   0  0  0  0  0  0  0  0  0  0  0  0
   19.7776   -4.5425  -17.8003 C   0  0  0  0  0  0  0  0  0  0  0  0
   19.3437   -3.4458  -18.2327 O   0  0  0  0  0  0  0  0  0  0  0  0
   20.2857   -8.2733  -11.5482 O   0  0  0  0  0  0  0  0  0  0  0  0
   20.1452   -7.0970  -12.2889 C   0  0  0  0  0  0  0  0  0  0  0  0
   18.9352   -6.7439  -12.8489 C   0  0  0  0  0  0  0  0  0  0  0  0
   18.7850   -5.5853  -13.5817 C   0  0  0  0  0  0  0  0  0  0  0  0
   19.8455   -4.7196  -13.7902 C   0  0  0  0  0  0  0  0  0  0  0  0
   19.6965   -3.4702  -14.5774 C   0  0  0  0  0  0  0  0  0  0  0  0
   20.6625   -3.3799  -15.7335 C   0  0  2  0  0  0  0  0  0  0  0  0
   20.4376   -4.5607  -16.5541 N   0  0  0  0  0  0  0  0  0  0  0  0
   22.0702   -3.2458  -15.3363 C   0  0  0  0  0  0  0  0  0  0  0  0
   22.4811   -2.1713  -14.5655 O   0  0  0  0  0  0  0  0  0  0  0  0
   21.0562   -5.0778  -13.2268 C   0  0  0  0  0  0  0  0  0  0  0  0
   21.2040   -6.2369  -12.4942 C   0  0  0  0  0  0  0  0  0  0  0  0
   22.9727   -4.0764  -15.6622 O   0  0  0  0  0  0  0  0  0  0  0  0
  2  1  1  1
  2  3  1  0
  4  3  1  0
  4  8  1  0
  5  4  2  0
  6  2  1  0
  7  6  2  0
 10  9  1  1
 10 11  1  0
 11  6  1  0
 12 10  1  0
 12 21  1  0
 13 12  2  0
 15 14  1  0
 16 15  2  0
 17 16  1  0
 18 24  1  0
 18 17  2  0
 19 18  1  0
 20 21  1  0
 20 22  1  0
 20 19  1  1
 22 26  2  0
 22 23  1  0
 24 25  2  0
 25 15  1  0
M  END
$$$$
