DAY.pdb
     RDKit          3D

 26 26  0  0  1  0  0  0  0  0999 V2000
   18.5585   -8.6360  -20.4653 N   0  0  0  0  0  0  0  0  0  0  0  0
   19.5888   -9.0946  -19.5726 C   0  0  1  0  0  0  0  0  0  0  0  0
   20.6556   -9.8108  -20.4088 C   0  0  0  0  0  0  0  0  0  0  0  0
   20.1195  -11.0993  -20.9136 C   0  0  0  0  0  0  0  0  0  0  0  0
   18.9849  -11.1805  -21.4138 O   0  0  0  0  0  0  0  0  0  0  0  0
   20.2587   -7.9249  -18.9373 C   0  0  0  0  0  0  0  0  0  0  0  0
   21.2905   -8.1011  -18.2407 O   0  0  0  0  0  0  0  0  0  0  0  0
   20.9135  -12.2287  -20.8181 O   0  0  0  0  0  0  0  0  0  0  0  0
   19.8295   -4.1894  -18.9987 C   0  0  0  0  0  0  0  0  0  0  0  0
   20.4435   -5.4689  -18.4722 C   0  0  2  0  0  0  0  0  0  0  0  0
   19.7788   -6.6022  -19.0843 N   0  0  0  0  0  0  0  0  0  0  0  0
   20.3605   -5.5198  -16.9928 C   0  0  0  0  0  0  0  0  0  0  0  0
   19.2581   -5.7102  -16.4213 O   0  0  0  0  0  0  0  0  0  0  0  0
   24.6870  -10.9070  -15.9363 O   0  0  0  0  0  0  0  0  0  0  0  0
   23.7961   -9.9006  -15.5550 C   0  0  0  0  0  0  0  0  0  0  0  0
   22.5740  -10.2023  -14.9912 C   0  0  0  0  0  0  0  0  0  0  0  0
   21.6869   -9.2172  -14.6112 C   0  0  0  0  0  0  0  0  0  0  0  0
   21.9827   -7.8748  -14.7784 C   0  0  0  0  0  0  0  0  0  0  0  0
   21.0361   -6.8055  -14.3739 C   0  0  0  0  0  0  0  0  0  0  0  0
   21.5134   -5.4218  -14.7418 C   0  0  2  0  0  0  0  0  0  0  0  0
   21.5124   -5.3564  -16.1957 N   0  0  0  0  0  0  0  0  0  0  0  0
   22.8202   -5.0625  -14.1757 C   0  0  0  0  0  0  0  0  0  0  0  0
   23.8707   -4.7109  -15.0066 O   0  0  0  0  0  0  0  0  0  0  0  0
   23.2089   -7.5774  -15.3437 C   0  0  0  0  0  0  0  0  0  0  0  0
   24.0945   -8.5643  -15.7230 C   0  0  0  0  0  0  0  0  0  0  0  0
   23.0656   -5.0512  -12.9306 O   0  0  0  0  0  0  0  0  0  0  0  0
  2  1  1  6
  2  3  1  0
  4  3  1  0
  4  8  1  0
  5  4  2  0
  6  2  1  0
  7  6  2  0
 10  9  1  6
 10 11  1  0
 11  6  1  0
 12 10  1  0
 12 21  1  0
 13 12  2  0
 15 14  1  0
 16 15  2  0
 17 16  1  0
 18 24  1  0
 18 17  2  0
 19 18  1  0
 20 21  1  0
 20 22  1  0
 20 19  1  6
 22 26  2  0
 22 23  1  0
 24 25  2  0
 25 15  1  0
M  END
$$$$
