DAY.pdb
     RDKit          3D

 26 26  0  0  1  0  0  0  0  0999 V2000
   19.2330  -11.7609    5.5841 N   0  0  0  0  0  0  0  0  0  0  0  0
   17.9766  -12.4039    5.8608 C   0  0  1  0  0  0  0  0  0  0  0  0
   17.0472  -12.1617    4.6659 C   0  0  0  0  0  0  0  0  0  0  0  0
   15.6709  -12.6056    4.9996 C   0  0  0  0  0  0  0  0  0  0  0  0
   15.3908  -13.0727    6.1164 O   0  0  0  0  0  0  0  0  0  0  0  0
   18.1775  -13.8776    5.9534 C   0  0  0  0  0  0  0  0  0  0  0  0
   18.7294  -14.4915    5.0050 O   0  0  0  0  0  0  0  0  0  0  0  0
   14.6866  -12.4903    4.0338 O   0  0  0  0  0  0  0  0  0  0  0  0
   17.7638  -16.5131    8.5918 C   0  0  0  0  0  0  0  0  0  0  0  0
   17.9692  -16.0641    7.1609 C   0  0  2  0  0  0  0  0  0  0  0  0
   17.7685  -14.6311    7.0788 N   0  0  0  0  0  0  0  0  0  0  0  0
   17.0611  -16.7968    6.2463 C   0  0  0  0  0  0  0  0  0  0  0  0
   15.9024  -16.3684    6.0185 O   0  0  0  0  0  0  0  0  0  0  0  0
   14.0607  -21.7757   -0.3432 O   0  0  0  0  0  0  0  0  0  0  0  0
   14.7950  -21.0097    0.5656 C   0  0  0  0  0  0  0  0  0  0  0  0
   16.1077  -21.3128    0.8611 C   0  0  0  0  0  0  0  0  0  0  0  0
   16.8419  -20.5637    1.7564 C   0  0  0  0  0  0  0  0  0  0  0  0
   16.2936  -19.4686    2.4026 C   0  0  0  0  0  0  0  0  0  0  0  0
   17.0733  -18.6549    3.3685 C   0  0  0  0  0  0  0  0  0  0  0  0
   16.6061  -18.8193    4.7942 C   0  0  2  0  0  0  0  0  0  0  0  0
   17.4750  -17.9871    5.6132 N   0  0  0  0  0  0  0  0  0  0  0  0
   16.5745  -20.2107    5.2636 C   0  0  0  0  0  0  0  0  0  0  0  0
   17.7354  -20.8314    5.6933 O   0  0  0  0  0  0  0  0  0  0  0  0
   14.9776  -19.1686    2.1031 C   0  0  0  0  0  0  0  0  0  0  0  0
   14.2453  -19.9192    1.2073 C   0  0  0  0  0  0  0  0  0  0  0  0
   15.5181  -20.9128    5.3047 O   0  0  0  0  0  0  0  0  0  0  0  0
  2  1  1  6
  2  3  1  0
  4  3  1  0
  4  8  1  0
  5  4  2  0
  6  2  1  0
  7  6  2  0
 10  9  1  1
 10 11  1  0
 11  6  1  0
 12 10  1  0
 12 21  1  0
 13 12  2  0
 15 14  1  0
 16 15  2  0
 17 16  1  0
 18 24  1  0
 18 17  2  0
 19 18  1  0
 20 21  1  0
 20 22  1  0
 20 19  1  6
 22 26  2  0
 22 23  1  0
 24 25  2  0
 25 15  1  0
M  END
$$$$
