DAY.pdb
     RDKit          3D

 26 26  0  0  1  0  0  0  0  0999 V2000
   21.8707  -10.6094  -19.0950 N   0  0  0  0  0  0  0  0  0  0  0  0
   21.1911   -9.3704  -19.3624 C   0  0  1  0  0  0  0  0  0  0  0  0
   20.0424   -9.2334  -18.3564 C   0  0  0  0  0  0  0  0  0  0  0  0
   18.9674  -10.2028  -18.6837 C   0  0  0  0  0  0  0  0  0  0  0  0
   18.7740  -10.5912  -19.8480 O   0  0  0  0  0  0  0  0  0  0  0  0
   22.1150   -8.2280  -19.1134 C   0  0  0  0  0  0  0  0  0  0  0  0
   22.9002   -8.2649  -18.1320 O   0  0  0  0  0  0  0  0  0  0  0  0
   18.1694  -10.6766  -17.6572 O   0  0  0  0  0  0  0  0  0  0  0  0
   23.0682   -5.0617  -20.8928 C   0  0  0  0  0  0  0  0  0  0  0  0
   23.0318   -5.9648  -19.6786 C   0  0  2  0  0  0  0  0  0  0  0  0
   22.1499   -7.0838  -19.9446 N   0  0  0  0  0  0  0  0  0  0  0  0
   22.6084   -5.2086  -18.4757 C   0  0  0  0  0  0  0  0  0  0  0  0
   21.3893   -5.0449  -18.2207 O   0  0  0  0  0  0  0  0  0  0  0  0
   20.7461   -9.1684  -13.7210 O   0  0  0  0  0  0  0  0  0  0  0  0
   21.4892   -8.0440  -14.0887 C   0  0  0  0  0  0  0  0  0  0  0  0
   22.6890   -8.1664  -14.7582 C   0  0  0  0  0  0  0  0  0  0  0  0
   23.4308   -7.0635  -15.1260 C   0  0  0  0  0  0  0  0  0  0  0  0
   23.0044   -5.7776  -14.8395 C   0  0  0  0  0  0  0  0  0  0  0  0
   23.7940   -4.5829  -15.2296 C   0  0  0  0  0  0  0  0  0  0  0  0
   23.2220   -3.8592  -16.4242 C   0  0  2  0  0  0  0  0  0  0  0  0
   23.5604   -4.6576  -17.5930 N   0  0  0  0  0  0  0  0  0  0  0  0
   23.6708   -2.4673  -16.5598 C   0  0  0  0  0  0  0  0  0  0  0  0
   23.3492   -1.5303  -15.5922 O   0  0  0  0  0  0  0  0  0  0  0  0
   21.8013   -5.6601  -14.1685 C   0  0  0  0  0  0  0  0  0  0  0  0
   21.0611   -6.7644  -13.8017 C   0  0  0  0  0  0  0  0  0  0  0  0
   24.3588   -2.0449  -17.5389 O   0  0  0  0  0  0  0  0  0  0  0  0
  2  1  1  1
  2  3  1  0
  4  3  1  0
  4  8  1  0
  5  4  2  0
  6  2  1  0
  7  6  2  0
 10  9  1  6
 10 11  1  0
 11  6  1  0
 12 10  1  0
 12 21  1  0
 13 12  2  0
 15 14  1  0
 16 15  2  0
 17 16  1  0
 18 24  1  0
 18 17  2  0
 19 18  1  0
 20 21  1  0
 20 22  1  0
 20 19  1  1
 22 26  2  0
 22 23  1  0
 24 25  2  0
 25 15  1  0
M  END
$$$$
