DAY.pdb
     RDKit          3D

 26 26  0  0  1  0  0  0  0  0999 V2000
   31.8362  -36.2416   -2.6517 N   0  0  0  0  0  0  0  0  0  0  0  0
   31.3584  -36.2009   -1.2957 C   0  0  1  0  0  0  0  0  0  0  0  0
   32.5385  -35.8339   -0.3885 C   0  0  0  0  0  0  0  0  0  0  0  0
   32.1262  -35.9197    1.0346 C   0  0  0  0  0  0  0  0  0  0  0  0
   31.0042  -36.3411    1.3625 O   0  0  0  0  0  0  0  0  0  0  0  0
   30.3535  -35.1101   -1.1509 C   0  0  0  0  0  0  0  0  0  0  0  0
   30.6964  -33.9171   -1.3510 O   0  0  0  0  0  0  0  0  0  0  0  0
   33.0232  -35.5171    2.0083 O   0  0  0  0  0  0  0  0  0  0  0  0
   26.7795  -34.7573   -1.5015 C   0  0  0  0  0  0  0  0  0  0  0  0
   28.0137  -34.3055   -0.7505 C   0  0  2  0  0  0  0  0  0  0  0  0
   29.0078  -35.3593   -0.7921 N   0  0  0  0  0  0  0  0  0  0  0  0
   27.6715  -33.9312    0.6426 C   0  0  0  0  0  0  0  0  0  0  0  0
   27.9243  -34.7116    1.5940 O   0  0  0  0  0  0  0  0  0  0  0  0
   23.8545  -28.8927    6.9953 O   0  0  0  0  0  0  0  0  0  0  0  0
   24.4235  -29.3764    5.8146 C   0  0  0  0  0  0  0  0  0  0  0  0
   23.6542  -29.6162    4.6951 C   0  0  0  0  0  0  0  0  0  0  0  0
   24.2051  -30.0936    3.5244 C   0  0  0  0  0  0  0  0  0  0  0  0
   25.5607  -30.3553    3.4179 C   0  0  0  0  0  0  0  0  0  0  0  0
   26.1653  -30.8697    2.1638 C   0  0  0  0  0  0  0  0  0  0  0  0
   26.5314  -32.3320    2.2391 C   0  0  2  0  0  0  0  0  0  0  0  0
   27.0568  -32.6951    0.9314 N   0  0  0  0  0  0  0  0  0  0  0  0
   25.4296  -33.2106    2.6529 C   0  0  0  0  0  0  0  0  0  0  0  0
   25.3437  -33.6579    3.9607 O   0  0  0  0  0  0  0  0  0  0  0  0
   26.3276  -30.1133    4.5426 C   0  0  0  0  0  0  0  0  0  0  0  0
   25.7745  -29.6358    5.7122 C   0  0  0  0  0  0  0  0  0  0  0  0
   24.5148  -33.6054    1.8669 O   0  0  0  0  0  0  0  0  0  0  0  0
  2  1  1  6
  2  3  1  0
  4  3  1  0
  4  8  1  0
  5  4  2  0
  6  2  1  0
  7  6  2  0
 10  9  1  1
 10 11  1  0
 11  6  1  0
 12 10  1  0
 12 21  1  0
 13 12  2  0
 15 14  1  0
 16 15  2  0
 17 16  1  0
 18 24  1  0
 18 17  2  0
 19 18  1  0
 20 21  1  0
 20 22  1  0
 20 19  1  6
 22 26  2  0
 22 23  1  0
 24 25  2  0
 25 15  1  0
M  END
$$$$
