DAY.pdb
     RDKit          3D

 26 26  0  0  1  0  0  0  0  0999 V2000
   28.5174  -12.5891  -21.4419 N   0  0  0  0  0  0  0  0  0  0  0  0
   29.6521  -11.7392  -21.1994 C   0  0  1  0  0  0  0  0  0  0  0  0
   29.4684  -10.4579  -22.0208 C   0  0  0  0  0  0  0  0  0  0  0  0
   29.6928  -10.7448  -23.4595 C   0  0  0  0  0  0  0  0  0  0  0  0
   28.9266  -10.3115  -24.3365 O   0  0  0  0  0  0  0  0  0  0  0  0
   29.6736  -11.3285  -19.7670 C   0  0  0  0  0  0  0  0  0  0  0  0
   28.5942  -11.2413  -19.1281 O   0  0  0  0  0  0  0  0  0  0  0  0
   30.7856  -11.5147  -23.8175 O   0  0  0  0  0  0  0  0  0  0  0  0
   32.2010  -11.1748  -17.0693 C   0  0  0  0  0  0  0  0  0  0  0  0
   30.8931  -10.7038  -17.6683 C   0  0  2  0  0  0  0  0  0  0  0  0
   30.8735  -11.0266  -19.0811 N   0  0  0  0  0  0  0  0  0  0  0  0
   30.7034   -9.2518  -17.4363 C   0  0  0  0  0  0  0  0  0  0  0  0
   30.5294   -8.8082  -16.2741 O   0  0  0  0  0  0  0  0  0  0  0  0
   35.9053   -7.5933  -14.7137 O   0  0  0  0  0  0  0  0  0  0  0  0
   34.9487   -7.2896  -15.6855 C   0  0  0  0  0  0  0  0  0  0  0  0
   34.0383   -6.2701  -15.4998 C   0  0  0  0  0  0  0  0  0  0  0  0
   33.0898   -5.9615  -16.4522 C   0  0  0  0  0  0  0  0  0  0  0  0
   33.0068   -6.6631  -17.6431 C   0  0  0  0  0  0  0  0  0  0  0  0
   31.9902   -6.3409  -18.6754 C   0  0  0  0  0  0  0  0  0  0  0  0
   30.6234   -6.8942  -18.3536 C   0  0  2  0  0  0  0  0  0  0  0  0
   30.7138   -8.3382  -18.5108 N   0  0  0  0  0  0  0  0  0  0  0  0
   29.5347   -6.3205  -19.1553 C   0  0  0  0  0  0  0  0  0  0  0  0
   28.9056   -5.1552  -18.7503 O   0  0  0  0  0  0  0  0  0  0  0  0
   33.9214   -7.6839  -17.8246 C   0  0  0  0  0  0  0  0  0  0  0  0
   34.8692   -7.9907  -16.8709 C   0  0  0  0  0  0  0  0  0  0  0  0
   29.1120   -6.8367  -20.2349 O   0  0  0  0  0  0  0  0  0  0  0  0
  2  1  1  1
  2  3  1  0
  4  3  1  0
  4  8  1  0
  5  4  2  0
  6  2  1  0
  7  6  2  0
 10  9  1  6
 10 11  1  0
 11  6  1  0
 12 10  1  0
 12 21  1  0
 13 12  2  0
 15 14  1  0
 16 15  2  0
 17 16  1  0
 18 24  1  0
 18 17  2  0
 19 18  1  0
 20 21  1  0
 20 22  1  0
 20 19  1  6
 22 26  2  0
 22 23  1  0
 24 25  2  0
 25 15  1  0
M  END
$$$$
