DAY.pdb
     RDKit          3D

 26 26  0  0  1  0  0  0  0  0999 V2000
   18.1797  -10.8703  -14.8973 N   0  0  0  0  0  0  0  0  0  0  0  0
   19.3035  -10.4787  -15.7049 C   0  0  1  0  0  0  0  0  0  0  0  0
   19.1808  -11.1833  -17.0610 C   0  0  0  0  0  0  0  0  0  0  0  0
   19.1839  -12.6546  -16.8666 C   0  0  0  0  0  0  0  0  0  0  0  0
   18.2780  -13.3728  -17.3222 O   0  0  0  0  0  0  0  0  0  0  0  0
   19.2392   -9.0149  -15.9773 C   0  0  0  0  0  0  0  0  0  0  0  0
   20.1246   -8.4744  -16.6878 O   0  0  0  0  0  0  0  0  0  0  0  0
   20.2269  -13.2259  -16.1591 O   0  0  0  0  0  0  0  0  0  0  0  0
   16.7269   -6.2918  -15.6209 C   0  0  0  0  0  0  0  0  0  0  0  0
   18.1604   -6.7666  -15.7264 C   0  0  2  0  0  0  0  0  0  0  0  0
   18.2100   -8.1911  -15.4641 N   0  0  0  0  0  0  0  0  0  0  0  0
   19.0330   -6.0087  -14.7978 C   0  0  0  0  0  0  0  0  0  0  0  0
   18.9041   -6.1344  -13.5546 O   0  0  0  0  0  0  0  0  0  0  0  0
   23.3831  -10.0823  -13.2299 O   0  0  0  0  0  0  0  0  0  0  0  0
   23.1137   -8.7594  -13.5897 C   0  0  0  0  0  0  0  0  0  0  0  0
   22.6257   -7.8531  -12.6716 C   0  0  0  0  0  0  0  0  0  0  0  0
   22.3562   -6.5451  -13.0157 C   0  0  0  0  0  0  0  0  0  0  0  0
   22.5636   -6.0791  -14.3030 C   0  0  0  0  0  0  0  0  0  0  0  0
   22.2769   -4.6740  -14.6856 C   0  0  0  0  0  0  0  0  0  0  0  0
   20.8420   -4.2747  -14.4415 C   0  0  2  0  0  0  0  0  0  0  0  0
   20.0242   -5.1324  -15.2863 N   0  0  0  0  0  0  0  0  0  0  0  0
   20.5634   -2.8508  -14.6693 C   0  0  0  0  0  0  0  0  0  0  0  0
   21.1551   -1.8851  -13.8725 O   0  0  0  0  0  0  0  0  0  0  0  0
   23.0529   -6.9913  -15.2196 C   0  0  0  0  0  0  0  0  0  0  0  0
   23.3217   -8.2988  -14.8733 C   0  0  0  0  0  0  0  0  0  0  0  0
   19.7883   -2.4251  -15.5796 O   0  0  0  0  0  0  0  0  0  0  0  0
  2  1  1  1
  2  3  1  0
  4  3  1  0
  4  8  1  0
  5  4  2  0
  6  2  1  0
  7  6  2  0
 10  9  1  1
 10 11  1  0
 11  6  1  0
 12 10  1  0
 12 21  1  0
 13 12  2  0
 15 14  1  0
 16 15  2  0
 17 16  1  0
 18 24  1  0
 18 17  2  0
 19 18  1  0
 20 21  1  0
 20 22  1  0
 20 19  1  6
 22 26  2  0
 22 23  1  0
 24 25  2  0
 25 15  1  0
M  END
$$$$
