DAY.pdb
     RDKit          3D

 26 26  0  0  1  0  0  0  0  0999 V2000
   14.1695  -24.9199  -11.4365 N   0  0  0  0  0  0  0  0  0  0  0  0
   15.4188  -24.7787  -10.7380 C   0  0  1  0  0  0  0  0  0  0  0  0
   15.5139  -23.3374  -10.2242 C   0  0  0  0  0  0  0  0  0  0  0  0
   15.8553  -22.4247  -11.3435 C   0  0  0  0  0  0  0  0  0  0  0  0
   15.1271  -21.4640  -11.6447 O   0  0  0  0  0  0  0  0  0  0  0  0
   15.4240  -25.6611   -9.5371 C   0  0  0  0  0  0  0  0  0  0  0  0
   14.5237  -25.5356   -8.6684 O   0  0  0  0  0  0  0  0  0  0  0  0
   17.0154  -22.6618  -12.0597 O   0  0  0  0  0  0  0  0  0  0  0  0
   17.6344  -28.3982   -8.1921 C   0  0  0  0  0  0  0  0  0  0  0  0
   16.4685  -27.4363   -8.1090 C   0  0  2  0  0  0  0  0  0  0  0  0
   16.4127  -26.6506   -9.3256 N   0  0  0  0  0  0  0  0  0  0  0  0
   16.5837  -26.5760   -6.9071 C   0  0  0  0  0  0  0  0  0  0  0  0
   17.2657  -25.5215   -6.9396 O   0  0  0  0  0  0  0  0  0  0  0  0
   14.0927  -22.3940    0.4283 O   0  0  0  0  0  0  0  0  0  0  0  0
   14.2275  -23.1359   -0.7478 C   0  0  0  0  0  0  0  0  0  0  0  0
   13.9623  -24.4892   -0.7749 C   0  0  0  0  0  0  0  0  0  0  0  0
   14.0920  -25.2313   -1.9300 C   0  0  0  0  0  0  0  0  0  0  0  0
   14.4959  -24.6506   -3.1204 C   0  0  0  0  0  0  0  0  0  0  0  0
   14.6397  -25.4387   -4.3699 C   0  0  0  0  0  0  0  0  0  0  0  0
   15.9831  -26.1157   -4.4918 C   0  0  2  0  0  0  0  0  0  0  0  0
   15.9331  -26.9197   -5.7039 N   0  0  0  0  0  0  0  0  0  0  0  0
   16.3677  -26.9117   -3.3189 C   0  0  0  0  0  0  0  0  0  0  0  0
   16.1172  -28.2732   -3.2837 O   0  0  0  0  0  0  0  0  0  0  0  0
   14.7604  -23.2939   -3.0883 C   0  0  0  0  0  0  0  0  0  0  0  0
   14.6300  -22.5537   -1.9320 C   0  0  0  0  0  0  0  0  0  0  0  0
   16.9352  -26.4220   -2.2948 O   0  0  0  0  0  0  0  0  0  0  0  0
  2  1  1  1
  2  3  1  0
  4  3  1  0
  4  8  1  0
  5  4  2  0
  6  2  1  0
  7  6  2  0
 10  9  1  6
 10 11  1  0
 11  6  1  0
 12 10  1  0
 12 21  1  0
 13 12  2  0
 15 14  1  0
 16 15  2  0
 17 16  1  0
 18 24  1  0
 18 17  2  0
 19 18  1  0
 20 21  1  0
 20 22  1  0
 20 19  1  1
 22 26  2  0
 22 23  1  0
 24 25  2  0
 25 15  1  0
M  END
$$$$
