DAY.pdb
     RDKit          3D

 26 26  0  0  1  0  0  0  0  0999 V2000
   19.0542  -14.8799  -17.0602 N   0  0  0  0  0  0  0  0  0  0  0  0
   18.0971  -13.8644  -16.7120 C   0  0  1  0  0  0  0  0  0  0  0  0
   17.6367  -14.1212  -15.2724 C   0  0  0  0  0  0  0  0  0  0  0  0
   16.7147  -15.2835  -15.2377 C   0  0  0  0  0  0  0  0  0  0  0  0
   15.8278  -15.4361  -16.0944 O   0  0  0  0  0  0  0  0  0  0  0  0
   18.7589  -12.5292  -16.7167 C   0  0  0  0  0  0  0  0  0  0  0  0
   19.8927  -12.3945  -16.1901 O   0  0  0  0  0  0  0  0  0  0  0  0
   16.8582  -16.2112  -14.2209 O   0  0  0  0  0  0  0  0  0  0  0  0
   18.0857   -9.1688  -18.2497 C   0  0  0  0  0  0  0  0  0  0  0  0
   18.8069  -10.0894  -17.2887 C   0  0  2  0  0  0  0  0  0  0  0  0
   18.1598  -11.3862  -17.2964 N   0  0  0  0  0  0  0  0  0  0  0  0
   18.8408   -9.5032  -15.9273 C   0  0  0  0  0  0  0  0  0  0  0  0
   17.9098   -9.7243  -15.1135 O   0  0  0  0  0  0  0  0  0  0  0  0
   24.7029   -4.4058  -16.6569 O   0  0  0  0  0  0  0  0  0  0  0  0
   23.9217   -5.3354  -15.9659 C   0  0  0  0  0  0  0  0  0  0  0  0
   23.2209   -4.9798  -14.8324 C   0  0  0  0  0  0  0  0  0  0  0  0
   22.4468   -5.8889  -14.1425 C   0  0  0  0  0  0  0  0  0  0  0  0
   22.3366   -7.2056  -14.5569 C   0  0  0  0  0  0  0  0  0  0  0  0
   21.5072   -8.1934  -13.8226 C   0  0  0  0  0  0  0  0  0  0  0  0
   20.0429   -8.1204  -14.1812 C   0  0  2  0  0  0  0  0  0  0  0  0
   19.9148   -8.6869  -15.5157 N   0  0  0  0  0  0  0  0  0  0  0  0
   19.4666   -6.7720  -14.0981 C   0  0  0  0  0  0  0  0  0  0  0  0
   19.2235   -6.1889  -12.8659 O   0  0  0  0  0  0  0  0  0  0  0  0
   23.0408   -7.5572  -15.6935 C   0  0  0  0  0  0  0  0  0  0  0  0
   23.8143   -6.6463  -16.3819 C   0  0  0  0  0  0  0  0  0  0  0  0
   19.1627   -6.0757  -15.1147 O   0  0  0  0  0  0  0  0  0  0  0  0
  2  1  1  1
  2  3  1  0
  4  3  1  0
  4  8  1  0
  5  4  2  0
  6  2  1  0
  7  6  2  0
 10  9  1  6
 10 11  1  0
 11  6  1  0
 12 10  1  0
 12 21  1  0
 13 12  2  0
 15 14  1  0
 16 15  2  0
 17 16  1  0
 18 24  1  0
 18 17  2  0
 19 18  1  0
 20 21  1  0
 20 22  1  0
 20 19  1  6
 22 26  2  0
 22 23  1  0
 24 25  2  0
 25 15  1  0
M  END
$$$$
