DAY.pdb
     RDKit          3D

 26 26  0  0  1  0  0  0  0  0999 V2000
   26.8834  -22.7548  -16.0782 N   0  0  0  0  0  0  0  0  0  0  0  0
   26.8141  -21.6047  -15.2174 C   0  0  1  0  0  0  0  0  0  0  0  0
   26.2948  -20.4237  -16.0457 C   0  0  0  0  0  0  0  0  0  0  0  0
   27.3541  -19.9538  -16.9728 C   0  0  0  0  0  0  0  0  0  0  0  0
   28.3759  -19.3821  -16.5569 O   0  0  0  0  0  0  0  0  0  0  0  0
   25.8120  -21.8441  -14.1407 C   0  0  0  0  0  0  0  0  0  0  0  0
   24.7171  -22.3953  -14.4207 O   0  0  0  0  0  0  0  0  0  0  0  0
   27.1858  -20.1644  -18.3302 O   0  0  0  0  0  0  0  0  0  0  0  0
   25.5428  -21.0252  -10.4743 C   0  0  0  0  0  0  0  0  0  0  0  0
   24.9696  -21.4204  -11.8184 C   0  0  2  0  0  0  0  0  0  0  0  0
   26.0396  -21.4732  -12.7946 N   0  0  0  0  0  0  0  0  0  0  0  0
   23.9004  -20.4791  -12.2294 C   0  0  0  0  0  0  0  0  0  0  0  0
   24.1847  -19.3154  -12.6075 O   0  0  0  0  0  0  0  0  0  0  0  0
   21.0847  -23.8052  -17.8737 O   0  0  0  0  0  0  0  0  0  0  0  0
   21.2520  -22.7768  -16.9430 C   0  0  0  0  0  0  0  0  0  0  0  0
   22.5008  -22.4430  -16.4617 C   0  0  0  0  0  0  0  0  0  0  0  0
   22.6776  -21.4298  -15.5430 C   0  0  0  0  0  0  0  0  0  0  0  0
   21.6062  -20.6979  -15.0593 C   0  0  0  0  0  0  0  0  0  0  0  0
   21.7837  -19.6056  -14.0702 C   0  0  0  0  0  0  0  0  0  0  0  0
   21.4481  -20.0239  -12.6594 C   0  0  2  0  0  0  0  0  0  0  0  0
   22.5445  -20.8665  -12.2054 N   0  0  0  0  0  0  0  0  0  0  0  0
   20.1471  -20.6911  -12.5198 C   0  0  0  0  0  0  0  0  0  0  0  0
   20.0800  -22.0272  -12.1623 O   0  0  0  0  0  0  0  0  0  0  0  0
   20.3566  -21.0361  -15.5447 C   0  0  0  0  0  0  0  0  0  0  0  0
   20.1822  -22.0497  -16.4635 C   0  0  0  0  0  0  0  0  0  0  0  0
   19.0362  -20.1082  -12.7114 O   0  0  0  0  0  0  0  0  0  0  0  0
  2  1  1  6
  2  3  1  0
  4  3  1  0
  4  8  1  0
  5  4  2  0
  6  2  1  0
  7  6  2  0
 10  9  1  1
 10 11  1  0
 11  6  1  0
 12 10  1  0
 12 21  1  0
 13 12  2  0
 15 14  1  0
 16 15  2  0
 17 16  1  0
 18 24  1  0
 18 17  2  0
 19 18  1  0
 20 21  1  0
 20 22  1  0
 20 19  1  6
 22 26  2  0
 22 23  1  0
 24 25  2  0
 25 15  1  0
M  END
$$$$
