DAY.pdb
     RDKit          3D

 26 26  0  0  1  0  0  0  0  0999 V2000
   21.0584   -3.3136  -14.4178 N   0  0  0  0  0  0  0  0  0  0  0  0
   21.2257   -4.0881  -15.6182 C   0  0  1  0  0  0  0  0  0  0  0  0
   22.3550   -3.4533  -16.4380 C   0  0  0  0  0  0  0  0  0  0  0  0
   21.8985   -2.1620  -17.0097 C   0  0  0  0  0  0  0  0  0  0  0  0
   20.7985   -2.0546  -17.5774 O   0  0  0  0  0  0  0  0  0  0  0  0
   21.6749   -5.4651  -15.2677 C   0  0  0  0  0  0  0  0  0  0  0  0
   22.5739   -5.6256  -14.4034 O   0  0  0  0  0  0  0  0  0  0  0  0
   22.7286   -1.0602  -16.9003 O   0  0  0  0  0  0  0  0  0  0  0  0
   20.2625   -8.8629  -15.6386 C   0  0  0  0  0  0  0  0  0  0  0  0
   21.4556   -7.9572  -15.4203 C   0  0  2  0  0  0  0  0  0  0  0  0
   21.1269   -6.6203  -15.8732 N   0  0  0  0  0  0  0  0  0  0  0  0
   22.6524   -8.4909  -16.1138 C   0  0  0  0  0  0  0  0  0  0  0  0
   22.9997   -8.0338  -17.2312 O   0  0  0  0  0  0  0  0  0  0  0  0
   30.1365  -13.3106  -16.9605 O   0  0  0  0  0  0  0  0  0  0  0  0
   29.0313  -12.5830  -16.5120 C   0  0  0  0  0  0  0  0  0  0  0  0
   28.7850  -11.3036  -16.9647 C   0  0  0  0  0  0  0  0  0  0  0  0
   27.6973  -10.5763  -16.5289 C   0  0  0  0  0  0  0  0  0  0  0  0
   26.7988  -11.0982  -15.6136 C   0  0  0  0  0  0  0  0  0  0  0  0
   25.6250  -10.3252  -15.1367 C   0  0  0  0  0  0  0  0  0  0  0  0
   24.5621  -10.1501  -16.1937 C   0  0  2  0  0  0  0  0  0  0  0  0
   23.4258   -9.5200  -15.5379 N   0  0  0  0  0  0  0  0  0  0  0  0
   24.1820  -11.3913  -16.8807 C   0  0  0  0  0  0  0  0  0  0  0  0
   24.8207  -11.7684  -18.0502 O   0  0  0  0  0  0  0  0  0  0  0  0
   27.0499  -12.3810  -15.1629 C   0  0  0  0  0  0  0  0  0  0  0  0
   28.1382  -13.1065  -15.6002 C   0  0  0  0  0  0  0  0  0  0  0  0
   23.2742  -12.1738  -16.4634 O   0  0  0  0  0  0  0  0  0  0  0  0
  2  1  1  1
  2  3  1  0
  4  3  1  0
  4  8  1  0
  5  4  2  0
  6  2  1  0
  7  6  2  0
 10  9  1  6
 10 11  1  0
 11  6  1  0
 12 10  1  0
 12 21  1  0
 13 12  2  0
 15 14  1  0
 16 15  2  0
 17 16  1  0
 18 24  1  0
 18 17  2  0
 19 18  1  0
 20 21  1  0
 20 22  1  0
 20 19  1  1
 22 26  2  0
 22 23  1  0
 24 25  2  0
 25 15  1  0
M  END
$$$$
