KTE.pdb
     RDKit          3D

 26 25  0  0  1  0  0  0  0  0999 V2000
    7.2728  -15.7618   15.5134 N   0  0  0  0  0  0  0  0  0  0  0  0
    8.5350  -16.2198   15.9669 C   0  0  1  0  0  0  0  0  0  0  0  0
    9.5644  -16.2414   14.8778 C   0  0  0  0  0  0  0  0  0  0  0  0
   10.2701  -17.5244   14.6772 C   0  0  0  0  0  0  0  0  0  0  0  0
   11.7508  -17.4889   14.4803 C   0  0  0  0  0  0  0  0  0  0  0  0
   12.3857  -18.8014   14.1486 C   0  0  0  0  0  0  0  0  0  0  0  0
   13.7844  -18.7856   13.8783 N   0  0  0  0  0  0  0  0  0  0  0  0
    9.1046  -15.4470   17.1063 C   0  0  0  0  0  0  0  0  0  0  0  0
   10.0639  -14.6665   16.8727 O   0  0  0  0  0  0  0  0  0  0  0  0
    7.4410  -12.9571   19.5443 C   0  0  0  0  0  0  0  0  0  0  0  0
    8.1916  -14.0109   20.3391 C   0  0  1  0  0  0  0  0  0  0  0  0
    7.3177  -14.9109   20.9469 O   0  0  0  0  0  0  0  0  0  0  0  0
    9.2330  -14.7183   19.4952 C   0  0  2  0  0  0  0  0  0  0  0  0
    8.6660  -15.5047   18.4448 N   0  0  0  0  0  0  0  0  0  0  0  0
    9.9932  -15.6049   20.4066 C   0  0  0  0  0  0  0  0  0  0  0  0
    9.8293  -16.8447   20.3023 O   0  0  0  0  0  0  0  0  0  0  0  0
   10.8895  -15.1551   21.3848 N   0  0  0  0  0  0  0  0  0  0  0  0
   11.7096  -16.0481   22.2266 C   0  0  1  0  0  0  0  0  0  0  0  0
   13.1053  -15.5577   22.3252 C   0  0  0  0  0  0  0  0  0  0  0  0
   13.9581  -16.4938   23.1189 C   0  0  0  0  0  0  0  0  0  0  0  0
   15.3694  -16.0027   23.2169 C   0  0  0  0  0  0  0  0  0  0  0  0
   15.7652  -15.5759   24.3224 O   0  0  0  0  0  0  0  0  0  0  0  0
   11.0303  -16.1471   23.5297 C   0  0  0  0  0  0  0  0  0  0  0  0
   11.3789  -17.1739   24.4017 O   0  0  0  0  0  0  0  0  0  0  0  0
   16.2300  -16.0082   22.1391 O   0  0  0  0  0  0  0  0  0  0  0  0
   10.1383  -15.3669   23.9391 O   0  0  0  0  0  0  0  0  0  0  0  0
  2  1  1  6
  3  2  1  0
  3  4  1  0
  5  4  1  0
  5  6  1  0
  7  6  1  0
  8  9  2  0
  8  2  1  0
 11 10  1  6
 11 13  1  0
 12 11  1  0
 13 14  1  6
 14  8  1  0
 15 17  1  0
 15 13  1  0
 16 15  2  0
 18 19  1  1
 18 17  1  0
 19 20  1  0
 20 21  1  0
 21 25  1  0
 22 21  2  0
 23 18  1  0
 24 23  1  0
 26 23  2  0
M  END
$$$$
