KTE.pdb
     RDKit          3D

 26 25  0  0  1  0  0  0  0  0999 V2000
    6.3912  -19.0905   25.2536 N   0  0  0  0  0  0  0  0  0  0  0  0
    6.9314  -17.7902   25.0917 C   0  0  1  0  0  0  0  0  0  0  0  0
    7.9960  -17.4800   26.1000 C   0  0  0  0  0  0  0  0  0  0  0  0
    8.1074  -18.4187   27.2360 C   0  0  0  0  0  0  0  0  0  0  0  0
    9.0249  -18.0579   28.3587 C   0  0  0  0  0  0  0  0  0  0  0  0
    8.9752  -18.9663   29.5453 C   0  0  0  0  0  0  0  0  0  0  0  0
    9.7724  -18.5981   30.6671 N   0  0  0  0  0  0  0  0  0  0  0  0
    7.4993  -17.5161   23.7419 C   0  0  0  0  0  0  0  0  0  0  0  0
    7.9111  -18.4922   23.0624 O   0  0  0  0  0  0  0  0  0  0  0  0
    5.9819  -15.1282   20.9434 C   0  0  0  0  0  0  0  0  0  0  0  0
    7.4777  -14.9077   21.0830 C   0  0  1  0  0  0  0  0  0  0  0  0
    7.7599  -13.6719   21.6629 O   0  0  0  0  0  0  0  0  0  0  0  0
    8.1486  -16.0458   21.8260 C   0  0  2  0  0  0  0  0  0  0  0  0
    7.6221  -16.2476   23.1395 N   0  0  0  0  0  0  0  0  0  0  0  0
    9.5860  -15.7022   21.9287 C   0  0  0  0  0  0  0  0  0  0  0  0
    9.9850  -15.1220   22.9674 O   0  0  0  0  0  0  0  0  0  0  0  0
   10.5400  -15.9808   20.9413 N   0  0  0  0  0  0  0  0  0  0  0  0
   11.9829  -16.1395   21.2085 C   0  0  1  0  0  0  0  0  0  0  0  0
   12.2232  -17.1513   22.2653 C   0  0  0  0  0  0  0  0  0  0  0  0
   12.5304  -16.5069   23.5783 C   0  0  0  0  0  0  0  0  0  0  0  0
   13.8285  -16.9977   24.1410 C   0  0  0  0  0  0  0  0  0  0  0  0
   13.8320  -18.0997   24.7297 O   0  0  0  0  0  0  0  0  0  0  0  0
   12.6197  -16.4728   19.9229 C   0  0  0  0  0  0  0  0  0  0  0  0
   13.7926  -15.8202   19.5559 O   0  0  0  0  0  0  0  0  0  0  0  0
   15.0006  -16.2793   24.0295 O   0  0  0  0  0  0  0  0  0  0  0  0
   12.1890  -17.3172   19.1023 O   0  0  0  0  0  0  0  0  0  0  0  0
  2  1  1  6
  3  2  1  0
  3  4  1  0
  5  4  1  0
  5  6  1  0
  7  6  1  0
  8  9  2  0
  8  2  1  0
 11 10  1  1
 11 13  1  0
 12 11  1  0
 13 14  1  1
 14  8  1  0
 15 17  1  0
 15 13  1  0
 16 15  2  0
 18 19  1  1
 18 17  1  0
 19 20  1  0
 20 21  1  0
 21 25  1  0
 22 21  2  0
 23 18  1  0
 24 23  1  0
 26 23  2  0
M  END
$$$$
