KTE.pdb
     RDKit          3D

 26 25  0  0  1  0  0  0  0  0999 V2000
    6.9875  -15.9777   21.1504 N   0  0  0  0  0  0  0  0  0  0  0  0
    8.0255  -15.0128   21.1709 C   0  0  1  0  0  0  0  0  0  0  0  0
    7.6694  -13.7688   20.4147 C   0  0  0  0  0  0  0  0  0  0  0  0
    7.3783  -13.9445   18.9764 C   0  0  0  0  0  0  0  0  0  0  0  0
    8.4524  -13.6040   17.9952 C   0  0  0  0  0  0  0  0  0  0  0  0
    8.0992  -13.8164   16.5578 C   0  0  0  0  0  0  0  0  0  0  0  0
    7.7250  -12.6609   15.8132 N   0  0  0  0  0  0  0  0  0  0  0  0
    8.4632  -14.5989   22.5335 C   0  0  0  0  0  0  0  0  0  0  0  0
    9.3989  -13.7624   22.6272 O   0  0  0  0  0  0  0  0  0  0  0  0
    6.7832  -12.8626   25.6016 C   0  0  0  0  0  0  0  0  0  0  0  0
    7.3400  -14.2215   25.9874 C   0  0  1  0  0  0  0  0  0  0  0  0
    6.3275  -15.1711   26.1143 O   0  0  0  0  0  0  0  0  0  0  0  0
    8.4252  -14.6781   25.0329 C   0  0  2  0  0  0  0  0  0  0  0  0
    7.9220  -15.0602   23.7507 N   0  0  0  0  0  0  0  0  0  0  0  0
    9.0850  -15.8463   25.6611 C   0  0  0  0  0  0  0  0  0  0  0  0
    8.6671  -16.9927   25.3682 O   0  0  0  0  0  0  0  0  0  0  0  0
   10.1510  -15.7626   26.5662 N   0  0  0  0  0  0  0  0  0  0  0  0
   10.7883  -16.9322   27.2020 C   0  0  1  0  0  0  0  0  0  0  0  0
   12.1996  -17.0731   26.7702 C   0  0  0  0  0  0  0  0  0  0  0  0
   12.3434  -18.1108   25.7043 C   0  0  0  0  0  0  0  0  0  0  0  0
   13.7577  -18.2116   25.2225 C   0  0  0  0  0  0  0  0  0  0  0  0
   13.9934  -18.9623   24.2521 O   0  0  0  0  0  0  0  0  0  0  0  0
   10.6352  -16.7619   28.6570 C   0  0  0  0  0  0  0  0  0  0  0  0
   10.0419  -15.6025   29.1469 O   0  0  0  0  0  0  0  0  0  0  0  0
   14.7900  -17.5106   25.8102 O   0  0  0  0  0  0  0  0  0  0  0  0
   11.0018  -17.5913   29.5227 O   0  0  0  0  0  0  0  0  0  0  0  0
  2  1  1  1
  3  2  1  0
  3  4  1  0
  5  4  1  0
  5  6  1  0
  7  6  1  0
  8  9  2  0
  8  2  1  0
 11 10  1  6
 11 13  1  0
 12 11  1  0
 13 14  1  6
 14  8  1  0
 15 17  1  0
 15 13  1  0
 16 15  2  0
 18 19  1  1
 18 17  1  0
 19 20  1  0
 20 21  1  0
 21 25  1  0
 22 21  2  0
 23 18  1  0
 24 23  1  0
 26 23  2  0
M  END
$$$$
