KTE.pdb
     RDKit          3D

 26 25  0  0  1  0  0  0  0  0999 V2000
    4.9837  -19.6136   20.0763 N   0  0  0  0  0  0  0  0  0  0  0  0
    5.5018  -19.1924   21.3265 C   0  0  1  0  0  0  0  0  0  0  0  0
    5.2597  -20.1928   22.4159 C   0  0  0  0  0  0  0  0  0  0  0  0
    4.4877  -21.3939   22.0343 C   0  0  0  0  0  0  0  0  0  0  0  0
    4.2174  -22.4194   23.0867 C   0  0  0  0  0  0  0  0  0  0  0  0
    4.3987  -23.8408   22.6593 C   0  0  0  0  0  0  0  0  0  0  0  0
    3.2188  -24.6317   22.5501 N   0  0  0  0  0  0  0  0  0  0  0  0
    6.9581  -18.8782   21.3223 C   0  0  0  0  0  0  0  0  0  0  0  0
    7.7657  -19.8063   21.5880 O   0  0  0  0  0  0  0  0  0  0  0  0
    8.6289  -16.5877   18.5013 C   0  0  0  0  0  0  0  0  0  0  0  0
    9.2464  -16.3154   19.8614 C   0  0  1  0  0  0  0  0  0  0  0  0
    8.8806  -15.0609   20.3466 O   0  0  0  0  0  0  0  0  0  0  0  0
    8.9331  -17.4173   20.8539 C   0  0  2  0  0  0  0  0  0  0  0  0
    7.5311  -17.6207   21.0443 N   0  0  0  0  0  0  0  0  0  0  0  0
    9.5434  -17.0189   22.1436 C   0  0  0  0  0  0  0  0  0  0  0  0
    8.7828  -16.7935   23.1159 O   0  0  0  0  0  0  0  0  0  0  0  0
   10.9204  -16.8744   22.3578 N   0  0  0  0  0  0  0  0  0  0  0  0
   11.5211  -16.5202   23.6586 C   0  0  1  0  0  0  0  0  0  0  0  0
   11.2423  -17.5604   24.6776 C   0  0  0  0  0  0  0  0  0  0  0  0
   12.0023  -17.3063   25.9392 C   0  0  0  0  0  0  0  0  0  0  0  0
   11.7568  -18.3794   26.9544 C   0  0  0  0  0  0  0  0  0  0  0  0
   10.6865  -19.0199   26.8821 O   0  0  0  0  0  0  0  0  0  0  0  0
   12.9583  -16.3051   23.4192 C   0  0  0  0  0  0  0  0  0  0  0  0
   13.4828  -16.5609   22.1560 O   0  0  0  0  0  0  0  0  0  0  0  0
   12.6639  -18.6756   27.9504 O   0  0  0  0  0  0  0  0  0  0  0  0
   13.7794  -15.8999   24.2758 O   0  0  0  0  0  0  0  0  0  0  0  0
  2  1  1  6
  3  2  1  0
  3  4  1  0
  5  4  1  0
  5  6  1  0
  7  6  1  0
  8  9  2  0
  8  2  1  0
 11 10  1  6
 11 13  1  0
 12 11  1  0
 13 14  1  1
 14  8  1  0
 15 17  1  0
 15 13  1  0
 16 15  2  0
 18 19  1  1
 18 17  1  0
 19 20  1  0
 20 21  1  0
 21 25  1  0
 22 21  2  0
 23 18  1  0
 24 23  1  0
 26 23  2  0
M  END
$$$$
