KTE.pdb
     RDKit          3D

 26 25  0  0  1  0  0  0  0  0999 V2000
    8.9679  -17.0315   16.7254 N   0  0  0  0  0  0  0  0  0  0  0  0
    8.7702  -17.5752   18.0192 C   0  0  1  0  0  0  0  0  0  0  0  0
    9.3878  -18.9321   18.1735 C   0  0  0  0  0  0  0  0  0  0  0  0
    8.5030  -19.9917   18.7012 C   0  0  0  0  0  0  0  0  0  0  0  0
    9.0475  -21.3798   18.7957 C   0  0  0  0  0  0  0  0  0  0  0  0
    8.1881  -22.3577   19.5311 C   0  0  0  0  0  0  0  0  0  0  0  0
    8.6544  -23.7026   19.5891 N   0  0  0  0  0  0  0  0  0  0  0  0
    9.2727  -16.7249   19.1347 C   0  0  0  0  0  0  0  0  0  0  0  0
   10.3911  -16.1647   18.9959 O   0  0  0  0  0  0  0  0  0  0  0  0
    7.3752  -13.6864   20.7639 C   0  0  0  0  0  0  0  0  0  0  0  0
    7.8928  -14.6439   21.8225 C   0  0  1  0  0  0  0  0  0  0  0  0
    6.8645  -15.4176   22.3583 O   0  0  0  0  0  0  0  0  0  0  0  0
    9.0300  -15.4998   21.3014 C   0  0  2  0  0  0  0  0  0  0  0  0
    8.6059  -16.4812   20.3525 N   0  0  0  0  0  0  0  0  0  0  0  0
    9.6228  -16.1849   22.4734 C   0  0  0  0  0  0  0  0  0  0  0  0
    9.1354  -17.2859   22.8268 O   0  0  0  0  0  0  0  0  0  0  0  0
   10.6977  -15.6880   23.2220 N   0  0  0  0  0  0  0  0  0  0  0  0
   11.2998  -16.3926   24.3707 C   0  0  1  0  0  0  0  0  0  0  0  0
   12.6829  -15.9214   24.6223 C   0  0  0  0  0  0  0  0  0  0  0  0
   13.5827  -16.2294   23.4694 C   0  0  0  0  0  0  0  0  0  0  0  0
   14.9621  -15.6896   23.6893 C   0  0  0  0  0  0  0  0  0  0  0  0
   15.8027  -16.4358   24.2347 O   0  0  0  0  0  0  0  0  0  0  0  0
   10.3951  -16.1911   25.5154 C   0  0  0  0  0  0  0  0  0  0  0  0
   10.5736  -16.9540   26.6653 O   0  0  0  0  0  0  0  0  0  0  0  0
   15.3245  -14.4131   23.3129 O   0  0  0  0  0  0  0  0  0  0  0  0
    9.4487  -15.3696   25.5507 O   0  0  0  0  0  0  0  0  0  0  0  0
  2  1  1  6
  3  2  1  0
  3  4  1  0
  5  4  1  0
  5  6  1  0
  7  6  1  0
  8  9  2  0
  8  2  1  0
 11 10  1  6
 11 13  1  0
 12 11  1  0
 13 14  1  6
 14  8  1  0
 15 17  1  0
 15 13  1  0
 16 15  2  0
 18 19  1  1
 18 17  1  0
 19 20  1  0
 20 21  1  0
 21 25  1  0
 22 21  2  0
 23 18  1  0
 24 23  1  0
 26 23  2  0
M  END
$$$$
