KTE.pdb
     RDKit          3D

 26 25  0  0  1  0  0  0  0  0999 V2000
    9.7851  -21.2969   15.5617 N   0  0  0  0  0  0  0  0  0  0  0  0
    9.5996  -20.6508   16.8095 C   0  0  1  0  0  0  0  0  0  0  0  0
    8.1644  -20.6343   17.2409 C   0  0  0  0  0  0  0  0  0  0  0  0
    7.3812  -21.8502   16.9369 C   0  0  0  0  0  0  0  0  0  0  0  0
    5.9641  -21.9093   17.4066 C   0  0  0  0  0  0  0  0  0  0  0  0
    5.2457  -23.1889   17.1196 C   0  0  0  0  0  0  0  0  0  0  0  0
    3.9078  -23.2929   17.5979 N   0  0  0  0  0  0  0  0  0  0  0  0
   10.3977  -21.2219   17.9304 C   0  0  0  0  0  0  0  0  0  0  0  0
    9.9251  -22.2087   18.5524 O   0  0  0  0  0  0  0  0  0  0  0  0
   13.5641  -23.0630   17.7774 C   0  0  0  0  0  0  0  0  0  0  0  0
   13.7678  -21.9433   18.7824 C   0  0  1  0  0  0  0  0  0  0  0  0
   14.5336  -20.9090   18.2466 O   0  0  0  0  0  0  0  0  0  0  0  0
   12.4516  -21.4399   19.3405 C   0  0  2  0  0  0  0  0  0  0  0  0
   11.6538  -20.7574   18.3705 N   0  0  0  0  0  0  0  0  0  0  0  0
   12.7822  -20.5037   20.4400 C   0  0  0  0  0  0  0  0  0  0  0  0
   12.8931  -19.2838   20.1677 O   0  0  0  0  0  0  0  0  0  0  0  0
   12.9815  -20.8855   21.7731 N   0  0  0  0  0  0  0  0  0  0  0  0
   13.1353  -19.9335   22.8905 C   0  0  1  0  0  0  0  0  0  0  0  0
   12.5864  -20.4928   24.1492 C   0  0  0  0  0  0  0  0  0  0  0  0
   13.1696  -21.8355   24.4500 C   0  0  0  0  0  0  0  0  0  0  0  0
   12.6132  -22.4048   25.7184 C   0  0  0  0  0  0  0  0  0  0  0  0
   11.8617  -21.6804   26.4050 O   0  0  0  0  0  0  0  0  0  0  0  0
   14.5680  -19.6018   22.9729 C   0  0  0  0  0  0  0  0  0  0  0  0
   14.9819  -18.5830   23.8255 O   0  0  0  0  0  0  0  0  0  0  0  0
   12.9023  -23.6849   26.1428 O   0  0  0  0  0  0  0  0  0  0  0  0
   15.4783  -20.1706   22.3250 O   0  0  0  0  0  0  0  0  0  0  0  0
  2  1  1  6
  3  2  1  0
  3  4  1  0
  5  4  1  0
  5  6  1  0
  7  6  1  0
  8  9  2  0
  8  2  1  0
 11 10  1  6
 11 13  1  0
 12 11  1  0
 13 14  1  6
 14  8  1  0
 15 17  1  0
 15 13  1  0
 16 15  2  0
 18 19  1  1
 18 17  1  0
 19 20  1  0
 20 21  1  0
 21 25  1  0
 22 21  2  0
 23 18  1  0
 24 23  1  0
 26 23  2  0
M  END
$$$$
