KTE.pdb
     RDKit          3D

 26 25  0  0  1  0  0  0  0  0999 V2000
    8.2936  -16.6339   16.1375 N   0  0  0  0  0  0  0  0  0  0  0  0
    8.2919  -17.1886   17.4418 C   0  0  1  0  0  0  0  0  0  0  0  0
    9.0072  -18.5040   17.5084 C   0  0  0  0  0  0  0  0  0  0  0  0
    8.1737  -19.7071   17.3029 C   0  0  0  0  0  0  0  0  0  0  0  0
    8.8202  -21.0451   17.4587 C   0  0  0  0  0  0  0  0  0  0  0  0
    7.9563  -22.2182   17.1224 C   0  0  0  0  0  0  0  0  0  0  0  0
    8.5233  -23.5095   17.3247 N   0  0  0  0  0  0  0  0  0  0  0  0
    8.8746  -16.3081   18.4929 C   0  0  0  0  0  0  0  0  0  0  0  0
    9.8822  -15.6155   18.1947 O   0  0  0  0  0  0  0  0  0  0  0  0
    7.2969  -13.3705   20.4439 C   0  0  0  0  0  0  0  0  0  0  0  0
    7.8882  -14.3774   21.4144 C   0  0  1  0  0  0  0  0  0  0  0  0
    6.8955  -15.1421   22.0251 O   0  0  0  0  0  0  0  0  0  0  0  0
    8.9425  -15.2442   20.7552 C   0  0  2  0  0  0  0  0  0  0  0  0
    8.3991  -16.1716   19.8129 N   0  0  0  0  0  0  0  0  0  0  0  0
    9.6185  -15.9954   21.8383 C   0  0  0  0  0  0  0  0  0  0  0  0
    9.1279  -17.0941   22.1945 O   0  0  0  0  0  0  0  0  0  0  0  0
   10.7759  -15.5638   22.4992 N   0  0  0  0  0  0  0  0  0  0  0  0
   11.3976  -16.2812   23.6295 C   0  0  1  0  0  0  0  0  0  0  0  0
   12.8445  -15.9730   23.7279 C   0  0  0  0  0  0  0  0  0  0  0  0
   13.5718  -16.3635   22.4821 C   0  0  0  0  0  0  0  0  0  0  0  0
   15.0316  -16.0422   22.5743 C   0  0  0  0  0  0  0  0  0  0  0  0
   15.4408  -15.4691   23.6063 O   0  0  0  0  0  0  0  0  0  0  0  0
   10.6372  -15.9145   24.8363 C   0  0  0  0  0  0  0  0  0  0  0  0
   10.8572  -16.6160   26.0177 O   0  0  0  0  0  0  0  0  0  0  0  0
   15.9220  -16.3560   21.5687 O   0  0  0  0  0  0  0  0  0  0  0  0
    9.7825  -14.9994   24.8998 O   0  0  0  0  0  0  0  0  0  0  0  0
  2  1  1  6
  3  2  1  0
  3  4  1  0
  5  4  1  0
  5  6  1  0
  7  6  1  0
  8  9  2  0
  8  2  1  0
 11 10  1  6
 11 13  1  0
 12 11  1  0
 13 14  1  6
 14  8  1  0
 15 17  1  0
 15 13  1  0
 16 15  2  0
 18 19  1  1
 18 17  1  0
 19 20  1  0
 20 21  1  0
 21 25  1  0
 22 21  2  0
 23 18  1  0
 24 23  1  0
 26 23  2  0
M  END
$$$$
