KTE.pdb
     RDKit          3D

 26 25  0  0  1  0  0  0  0  0999 V2000
    6.2124  -18.9926   18.3729 N   0  0  0  0  0  0  0  0  0  0  0  0
    6.0825  -18.2072   19.5455 C   0  0  1  0  0  0  0  0  0  0  0  0
    5.7384  -19.0273   20.7519 C   0  0  0  0  0  0  0  0  0  0  0  0
    6.6307  -20.1708   21.0354 C   0  0  0  0  0  0  0  0  0  0  0  0
    6.2436  -21.1096   22.1314 C   0  0  0  0  0  0  0  0  0  0  0  0
    7.1214  -22.3099   22.2881 C   0  0  0  0  0  0  0  0  0  0  0  0
    6.8711  -23.1430   23.4164 N   0  0  0  0  0  0  0  0  0  0  0  0
    7.2832  -17.3930   19.8850 C   0  0  0  0  0  0  0  0  0  0  0  0
    8.2835  -17.4660   19.1247 O   0  0  0  0  0  0  0  0  0  0  0  0
    7.3406  -13.4416   20.6843 C   0  0  0  0  0  0  0  0  0  0  0  0
    8.0688  -14.2779   21.7215 C   0  0  1  0  0  0  0  0  0  0  0  0
    7.3153  -14.4172   22.8860 O   0  0  0  0  0  0  0  0  0  0  0  0
    8.4982  -15.6201   21.1635 C   0  0  2  0  0  0  0  0  0  0  0  0
    7.4110  -16.5325   20.9942 N   0  0  0  0  0  0  0  0  0  0  0  0
    9.4662  -16.1948   22.1265 C   0  0  0  0  0  0  0  0  0  0  0  0
    9.0548  -17.0598   22.9372 O   0  0  0  0  0  0  0  0  0  0  0  0
   10.8194  -15.8392   22.1978 N   0  0  0  0  0  0  0  0  0  0  0  0
   11.7762  -16.4197   23.1601 C   0  0  1  0  0  0  0  0  0  0  0  0
   13.1755  -16.1328   22.7625 C   0  0  0  0  0  0  0  0  0  0  0  0
   14.1477  -16.6616   23.7668 C   0  0  0  0  0  0  0  0  0  0  0  0
   15.5632  -16.4179   23.3429 C   0  0  0  0  0  0  0  0  0  0  0  0
   16.4760  -16.7775   24.1164 O   0  0  0  0  0  0  0  0  0  0  0  0
   11.4230  -15.8855   24.4864 C   0  0  0  0  0  0  0  0  0  0  0  0
   11.6310  -16.6737   25.6141 O   0  0  0  0  0  0  0  0  0  0  0  0
   15.8818  -15.8177   22.1426 O   0  0  0  0  0  0  0  0  0  0  0  0
   10.9364  -14.7500   24.7003 O   0  0  0  0  0  0  0  0  0  0  0  0
  2  1  1  6
  3  2  1  0
  3  4  1  0
  5  4  1  0
  5  6  1  0
  7  6  1  0
  8  9  2  0
  8  2  1  0
 11 10  1  6
 11 13  1  0
 12 11  1  0
 13 14  1  1
 14  8  1  0
 15 17  1  0
 15 13  1  0
 16 15  2  0
 18 19  1  6
 18 17  1  0
 19 20  1  0
 20 21  1  0
 21 25  1  0
 22 21  2  0
 23 18  1  0
 24 23  1  0
 26 23  2  0
M  END
$$$$
