KTE.pdb
     RDKit          3D

 26 25  0  0  1  0  0  0  0  0999 V2000
    8.3803  -16.5728   17.6501 N   0  0  0  0  0  0  0  0  0  0  0  0
    8.8920  -15.2519   17.6972 C   0  0  1  0  0  0  0  0  0  0  0  0
    8.0121  -14.2685   16.9866 C   0  0  0  0  0  0  0  0  0  0  0  0
    7.7517  -14.5446   15.5582 C   0  0  0  0  0  0  0  0  0  0  0  0
    8.4478  -13.7002   14.5408 C   0  0  0  0  0  0  0  0  0  0  0  0
    7.9564  -13.8514   13.1368 C   0  0  0  0  0  0  0  0  0  0  0  0
    6.7288  -14.5524   12.9603 N   0  0  0  0  0  0  0  0  0  0  0  0
    9.1329  -14.7268   19.0705 C   0  0  0  0  0  0  0  0  0  0  0  0
    9.5921  -13.5608   19.1873 O   0  0  0  0  0  0  0  0  0  0  0  0
    7.2655  -13.4427   21.9152 C   0  0  0  0  0  0  0  0  0  0  0  0
    8.0781  -14.6095   22.4479 C   0  0  1  0  0  0  0  0  0  0  0  0
    7.2804  -15.7327   22.6604 O   0  0  0  0  0  0  0  0  0  0  0  0
    9.2664  -14.9213   21.5602 C   0  0  2  0  0  0  0  0  0  0  0  0
    8.8918  -15.4200   20.2740 N   0  0  0  0  0  0  0  0  0  0  0  0
   10.0683  -15.9497   22.2628 C   0  0  0  0  0  0  0  0  0  0  0  0
    9.8247  -17.1575   22.0248 O   0  0  0  0  0  0  0  0  0  0  0  0
   11.0877  -15.6687   23.1818 N   0  0  0  0  0  0  0  0  0  0  0  0
   11.8199  -16.6992   23.9437 C   0  0  1  0  0  0  0  0  0  0  0  0
   13.2162  -16.2771   24.2092 C   0  0  0  0  0  0  0  0  0  0  0  0
   14.0173  -16.2172   22.9490 C   0  0  0  0  0  0  0  0  0  0  0  0
   15.4197  -15.7614   23.2103 C   0  0  0  0  0  0  0  0  0  0  0  0
   15.9273  -14.9434   22.4141 O   0  0  0  0  0  0  0  0  0  0  0  0
   11.0427  -16.9557   25.1682 C   0  0  0  0  0  0  0  0  0  0  0  0
    9.9974  -16.1000   25.5016 O   0  0  0  0  0  0  0  0  0  0  0  0
   16.1542  -16.2119   24.2873 O   0  0  0  0  0  0  0  0  0  0  0  0
   11.2423  -17.9041   25.9636 O   0  0  0  0  0  0  0  0  0  0  0  0
  2  1  1  1
  3  2  1  0
  3  4  1  0
  5  4  1  0
  5  6  1  0
  7  6  1  0
  8  9  2  0
  8  2  1  0
 11 10  1  6
 11 13  1  0
 12 11  1  0
 13 14  1  6
 14  8  1  0
 15 17  1  0
 15 13  1  0
 16 15  2  0
 18 19  1  1
 18 17  1  0
 19 20  1  0
 20 21  1  0
 21 25  1  0
 22 21  2  0
 23 18  1  0
 24 23  1  0
 26 23  2  0
M  END
$$$$
