ICP.pdb
     RDKit          3D

 22 22  0  0  1  0  0  0  0  0999 V2000
   24.5168  -21.7189   -6.6091 C   0  0  0  0  0  0  0  0  0  0  0  0
   25.2735  -20.4800   -6.9569 C   0  0  0  0  0  0  0  0  0  0  0  0
   26.0219  -20.5598   -8.2424 C   0  0  2  0  0  0  0  0  0  0  0  0
   27.0998  -19.4947   -8.2453 C   0  0  0  0  0  0  0  0  0  0  0  0
   25.1268  -20.4735   -9.4571 C   0  0  2  0  0  0  0  0  0  0  0  0
   24.1682  -21.5902   -9.4448 N   0  0  0  0  0  0  0  0  0  0  0  0
   25.8773  -20.5987  -10.7288 C   0  0  0  0  0  0  0  0  0  0  0  0
   27.0600  -21.0722  -10.6367 O   0  0  0  0  0  0  0  0  0  0  0  0
   25.3498  -20.2267  -11.9908 N   0  0  0  0  0  0  0  0  0  0  0  0
   26.2068  -20.2100  -13.1205 C   0  0  1  0  0  0  0  0  0  0  0  0
   26.3194  -21.6562  -13.6235 C   0  0  0  0  0  0  0  0  0  0  0  0
   24.7266  -22.4737  -13.6761 S   0  0  0  0  0  0  0  0  0  0  0  0
   25.8340  -19.3198  -14.2226 C   0  0  0  0  0  0  0  0  0  0  0  0
   24.6195  -18.9133  -14.1645 O   0  0  0  0  0  0  0  0  0  0  0  0
   26.6610  -18.8969  -15.2864 N   0  0  0  0  0  0  0  0  0  0  0  0
   28.0466  -19.3609  -15.4731 C   0  0  0  0  0  0  0  0  0  0  0  0
   28.7454  -18.0048  -15.6425 C   0  0  0  0  0  0  0  0  0  0  0  0
   27.8271  -17.4012  -16.7133 C   0  0  0  0  0  0  0  0  0  0  0  0
   26.4532  -17.9945  -16.3836 C   0  0  1  0  0  0  0  0  0  0  0  0
   26.0258  -18.7191  -17.6138 C   0  0  0  0  0  0  0  0  0  0  0  0
   26.1286  -19.9700  -17.6159 O   0  0  0  0  0  0  0  0  0  0  0  0
   25.5333  -18.0670  -18.7208 O   0  0  0  0  0  0  0  0  0  0  0  0
  1  2  1  0
  2  3  1  0
  3  4  1  6
  5  6  1  1
  5  3  1  0
  7  5  1  0
  7  9  1  0
  8  7  2  0
 10  9  1  0
 10 11  1  6
 11 12  1  0
 13 10  1  0
 14 13  2  0
 15 13  1  0
 15 16  1  0
 17 16  1  0
 18 19  1  0
 18 17  1  0
 19 20  1  6
 19 15  1  0
 20 22  1  0
 21 20  2  0
M  END
$$$$
