ICP.pdb
     RDKit          3D

 22 22  0  0  1  0  0  0  0  0999 V2000
   20.0176  -23.1211  -14.9100 C   0  0  0  0  0  0  0  0  0  0  0  0
   19.8593  -21.7779  -15.5420 C   0  0  0  0  0  0  0  0  0  0  0  0
   20.8344  -20.7577  -15.0651 C   0  0  2  0  0  0  0  0  0  0  0  0
   22.0317  -20.7571  -15.9939 C   0  0  0  0  0  0  0  0  0  0  0  0
   21.2305  -20.9452  -13.6187 C   0  0  2  0  0  0  0  0  0  0  0  0
   20.3449  -20.1463  -12.7564 N   0  0  0  0  0  0  0  0  0  0  0  0
   22.6055  -20.4694  -13.3375 C   0  0  0  0  0  0  0  0  0  0  0  0
   22.8579  -19.2610  -13.6653 O   0  0  0  0  0  0  0  0  0  0  0  0
   23.6081  -21.2756  -12.7423 N   0  0  0  0  0  0  0  0  0  0  0  0
   24.9609  -20.8546  -12.8047 C   0  0  1  0  0  0  0  0  0  0  0  0
   25.7514  -21.7272  -11.8195 C   0  0  0  0  0  0  0  0  0  0  0  0
   27.5204  -21.5438  -12.0315 S   0  0  0  0  0  0  0  0  0  0  0  0
   25.6011  -20.8739  -14.1222 C   0  0  0  0  0  0  0  0  0  0  0  0
   25.1717  -21.8090  -14.8871 O   0  0  0  0  0  0  0  0  0  0  0  0
   26.5998  -19.9925  -14.5914 N   0  0  0  0  0  0  0  0  0  0  0  0
   27.3308  -19.0550  -13.7216 C   0  0  0  0  0  0  0  0  0  0  0  0
   27.1446  -17.7639  -14.5304 C   0  0  0  0  0  0  0  0  0  0  0  0
   27.5926  -18.2820  -15.9035 C   0  0  0  0  0  0  0  0  0  0  0  0
   27.1523  -19.7497  -15.8942 C   0  0  1  0  0  0  0  0  0  0  0  0
   28.3956  -20.5407  -16.1167 C   0  0  0  0  0  0  0  0  0  0  0  0
   28.9046  -21.1138  -15.1229 O   0  0  0  0  0  0  0  0  0  0  0  0
   28.9854  -20.6559  -17.3545 O   0  0  0  0  0  0  0  0  0  0  0  0
  1  2  1  0
  2  3  1  0
  3  4  1  6
  5  6  1  1
  5  3  1  0
  7  5  1  0
  7  9  1  0
  8  7  2  0
 10  9  1  0
 10 11  1  1
 11 12  1  0
 13 10  1  0
 14 13  2  0
 15 13  1  0
 15 16  1  0
 17 16  1  0
 18 19  1  0
 18 17  1  0
 19 20  1  1
 19 15  1  0
 20 22  1  0
 21 20  2  0
M  END
$$$$
