ICP.pdb
     RDKit          3D

 22 22  0  0  1  0  0  0  0  0999 V2000
   22.1846  -27.6486  -14.3018 C   0  0  0  0  0  0  0  0  0  0  0  0
   20.8755  -27.0383  -14.6790 C   0  0  0  0  0  0  0  0  0  0  0  0
   19.9699  -26.7701  -13.5269 C   0  0  2  0  0  0  0  0  0  0  0  0
   19.1640  -28.0207  -13.2396 C   0  0  0  0  0  0  0  0  0  0  0  0
   19.0926  -25.5565  -13.7312 C   0  0  2  0  0  0  0  0  0  0  0  0
   19.8581  -24.5033  -14.4173 N   0  0  0  0  0  0  0  0  0  0  0  0
   18.6387  -24.9591  -12.4532 C   0  0  0  0  0  0  0  0  0  0  0  0
   19.5492  -24.4395  -11.7235 O   0  0  0  0  0  0  0  0  0  0  0  0
   17.2857  -24.9453  -12.0306 N   0  0  0  0  0  0  0  0  0  0  0  0
   16.9748  -24.4956  -10.7221 C   0  0  1  0  0  0  0  0  0  0  0  0
   15.5937  -23.8286  -10.7899 C   0  0  0  0  0  0  0  0  0  0  0  0
   14.8985  -23.5591   -9.1614 S   0  0  0  0  0  0  0  0  0  0  0  0
   16.9999  -25.4972   -9.6534 C   0  0  0  0  0  0  0  0  0  0  0  0
   16.5702  -26.6483  -10.0196 O   0  0  0  0  0  0  0  0  0  0  0  0
   17.4357  -25.3060   -8.3237 N   0  0  0  0  0  0  0  0  0  0  0  0
   17.9798  -24.0326   -7.8215 C   0  0  0  0  0  0  0  0  0  0  0  0
   19.2689  -24.5498   -7.1683 C   0  0  0  0  0  0  0  0  0  0  0  0
   18.6665  -25.6851   -6.3301 C   0  0  0  0  0  0  0  0  0  0  0  0
   17.4893  -26.1736   -7.1810 C   0  0  1  0  0  0  0  0  0  0  0  0
   16.2830  -26.0184   -6.3199 C   0  0  0  0  0  0  0  0  0  0  0  0
   16.0990  -26.8729   -5.4192 O   0  0  0  0  0  0  0  0  0  0  0  0
   15.3872  -24.9869   -6.4834 O   0  0  0  0  0  0  0  0  0  0  0  0
  1  2  1  0
  2  3  1  0
  3  4  1  6
  5  6  1  1
  5  3  1  0
  7  5  1  0
  7  9  1  0
  8  7  2  0
 10  9  1  0
 10 11  1  6
 11 12  1  0
 13 10  1  0
 14 13  2  0
 15 13  1  0
 15 16  1  0
 17 16  1  0
 18 19  1  0
 18 17  1  0
 19 20  1  1
 19 15  1  0
 20 22  1  0
 21 20  2  0
M  END
$$$$
