ICP.pdb
     RDKit          3D

 22 22  0  0  1  0  0  0  0  0999 V2000
   21.5871  -20.6331  -16.3678 C   0  0  0  0  0  0  0  0  0  0  0  0
   21.0505  -19.5078  -15.5465 C   0  0  0  0  0  0  0  0  0  0  0  0
   21.5681  -18.1657  -15.9336 C   0  0  2  0  0  0  0  0  0  0  0  0
   23.0811  -18.1855  -15.8530 C   0  0  0  0  0  0  0  0  0  0  0  0
   20.9652  -17.0406  -15.1244 C   0  0  2  0  0  0  0  0  0  0  0  0
   19.5068  -17.0173  -15.3207 N   0  0  0  0  0  0  0  0  0  0  0  0
   21.4519  -15.7072  -15.5503 C   0  0  0  0  0  0  0  0  0  0  0  0
   22.6878  -15.4672  -15.3347 O   0  0  0  0  0  0  0  0  0  0  0  0
   20.6275  -14.7302  -16.1629 N   0  0  0  0  0  0  0  0  0  0  0  0
   21.1635  -13.4457  -16.4348 C   0  0  1  0  0  0  0  0  0  0  0  0
   20.5165  -12.9527  -17.7370 C   0  0  0  0  0  0  0  0  0  0  0  0
   20.7581  -11.1951  -17.9822 S   0  0  0  0  0  0  0  0  0  0  0  0
   21.0224  -12.4328  -15.3860 C   0  0  0  0  0  0  0  0  0  0  0  0
   19.9076  -12.4990  -14.7563 O   0  0  0  0  0  0  0  0  0  0  0  0
   21.9654  -11.4427  -15.0326 N   0  0  0  0  0  0  0  0  0  0  0  0
   23.2561  -11.2667  -15.7204 C   0  0  0  0  0  0  0  0  0  0  0  0
   24.1896  -11.2457  -14.5022 C   0  0  0  0  0  0  0  0  0  0  0  0
   23.4488  -10.1999  -13.6584 C   0  0  0  0  0  0  0  0  0  0  0  0
   21.9768  -10.4238  -14.0211 C   0  0  1  0  0  0  0  0  0  0  0  0
   21.4943   -9.1186  -14.5545 C   0  0  0  0  0  0  0  0  0  0  0  0
   21.4541   -8.9803  -15.8012 O   0  0  0  0  0  0  0  0  0  0  0  0
   21.1011   -8.0861  -13.7343 O   0  0  0  0  0  0  0  0  0  0  0  0
  1  2  1  0
  2  3  1  0
  3  4  1  1
  5  6  1  6
  5  3  1  0
  7  5  1  0
  7  9  1  0
  8  7  2  0
 10  9  1  0
 10 11  1  6
 11 12  1  0
 13 10  1  0
 14 13  2  0
 15 13  1  0
 15 16  1  0
 17 16  1  0
 18 19  1  0
 18 17  1  0
 19 20  1  6
 19 15  1  0
 20 22  1  0
 21 20  2  0
M  END
$$$$
