ICP.pdb
     RDKit          3D

 22 22  0  0  1  0  0  0  0  0999 V2000
   17.7839  -16.8833  -17.7132 C   0  0  0  0  0  0  0  0  0  0  0  0
   17.3133  -15.6976  -16.9377 C   0  0  0  0  0  0  0  0  0  0  0  0
   18.2923  -14.5764  -16.8786 C   0  0  2  0  0  0  0  0  0  0  0  0
   19.5833  -15.0887  -16.2728 C   0  0  0  0  0  0  0  0  0  0  0  0
   17.7608  -13.3615  -16.1535 C   0  0  2  0  0  0  0  0  0  0  0  0
   16.4062  -13.0505  -16.6377 N   0  0  0  0  0  0  0  0  0  0  0  0
   18.5700  -12.1462  -16.4074 C   0  0  0  0  0  0  0  0  0  0  0  0
   19.7846  -12.1902  -16.0146 O   0  0  0  0  0  0  0  0  0  0  0  0
   18.0635  -10.9856  -17.0445 N   0  0  0  0  0  0  0  0  0  0  0  0
   18.9172   -9.8675  -17.2241 C   0  0  1  0  0  0  0  0  0  0  0  0
   18.4493   -9.1414  -18.4933 C   0  0  0  0  0  0  0  0  0  0  0  0
   16.8522   -8.3621  -18.2699 S   0  0  0  0  0  0  0  0  0  0  0  0
   19.0157   -8.9226  -16.1091 C   0  0  0  0  0  0  0  0  0  0  0  0
   17.9917   -8.9318  -15.3376 O   0  0  0  0  0  0  0  0  0  0  0  0
   20.0904   -8.0495  -15.8314 N   0  0  0  0  0  0  0  0  0  0  0  0
   21.3140   -7.9805  -16.6487 C   0  0  0  0  0  0  0  0  0  0  0  0
   22.3659   -8.1036  -15.5378 C   0  0  0  0  0  0  0  0  0  0  0  0
   21.8324   -7.0210  -14.5902 C   0  0  0  0  0  0  0  0  0  0  0  0
   20.3153   -7.0777  -14.7987 C   0  0  1  0  0  0  0  0  0  0  0  0
   19.9218   -5.7098  -15.2402 C   0  0  0  0  0  0  0  0  0  0  0  0
   19.8479   -5.4973  -16.4750 O   0  0  0  0  0  0  0  0  0  0  0  0
   19.6440   -4.6983  -14.3498 O   0  0  0  0  0  0  0  0  0  0  0  0
  1  2  1  0
  2  3  1  0
  3  4  1  1
  5  6  1  6
  5  3  1  0
  7  5  1  0
  7  9  1  0
  8  7  2  0
 10  9  1  0
 10 11  1  6
 11 12  1  0
 13 10  1  0
 14 13  2  0
 15 13  1  0
 15 16  1  0
 17 16  1  0
 18 19  1  0
 18 17  1  0
 19 20  1  6
 19 15  1  0
 20 22  1  0
 21 20  2  0
M  END
$$$$
