ICP.pdb
     RDKit          3D

 22 22  0  0  1  0  0  0  0  0999 V2000
   19.3700  -26.3397  -15.4968 C   0  0  0  0  0  0  0  0  0  0  0  0
   19.2129  -26.5157  -14.0226 C   0  0  0  0  0  0  0  0  0  0  0  0
   17.9752  -27.2406  -13.6206 C   0  0  2  0  0  0  0  0  0  0  0  0
   16.7800  -26.3479  -13.8865 C   0  0  0  0  0  0  0  0  0  0  0  0
   18.0146  -27.7366  -12.1935 C   0  0  2  0  0  0  0  0  0  0  0  0
   18.1621  -26.5942  -11.2773 N   0  0  0  0  0  0  0  0  0  0  0  0
   19.1745  -28.6200  -11.9284 C   0  0  0  0  0  0  0  0  0  0  0  0
   19.3233  -29.6040  -12.7290 O   0  0  0  0  0  0  0  0  0  0  0  0
   20.0861  -28.4189  -10.8616 N   0  0  0  0  0  0  0  0  0  0  0  0
   21.1754  -29.3133  -10.7054 C   0  0  1  0  0  0  0  0  0  0  0  0
   22.4228  -28.4619  -10.4294 C   0  0  0  0  0  0  0  0  0  0  0  0
   22.9562  -27.5627  -11.8837 S   0  0  0  0  0  0  0  0  0  0  0  0
   21.0378  -30.3536   -9.6833 C   0  0  0  0  0  0  0  0  0  0  0  0
   20.0484  -30.1650   -8.8900 O   0  0  0  0  0  0  0  0  0  0  0  0
   21.8638  -31.4861   -9.5112 N   0  0  0  0  0  0  0  0  0  0  0  0
   23.0676  -31.7450  -10.3196 C   0  0  0  0  0  0  0  0  0  0  0  0
   22.7817  -33.1932  -10.7403 C   0  0  0  0  0  0  0  0  0  0  0  0
   22.4602  -33.7783   -9.3588 C   0  0  0  0  0  0  0  0  0  0  0  0
   21.8066  -32.6077   -8.6166 C   0  0  1  0  0  0  0  0  0  0  0  0
   22.6460  -32.3844   -7.4056 C   0  0  0  0  0  0  0  0  0  0  0  0
   23.4458  -31.4174   -7.4241 O   0  0  0  0  0  0  0  0  0  0  0  0
   22.5682  -33.1923   -6.2945 O   0  0  0  0  0  0  0  0  0  0  0  0
  1  2  1  0
  2  3  1  0
  3  4  1  1
  5  6  1  1
  5  3  1  0
  7  5  1  0
  7  9  1  0
  8  7  2  0
 10  9  1  0
 10 11  1  1
 11 12  1  0
 13 10  1  0
 14 13  2  0
 15 13  1  0
 15 16  1  0
 17 16  1  0
 18 19  1  0
 18 17  1  0
 19 20  1  1
 19 15  1  0
 20 22  1  0
 21 20  2  0
M  END
$$$$
