ICP.pdb
     RDKit          3D

 22 22  0  0  1  0  0  0  0  0999 V2000
   18.9952  -14.1527  -19.7515 C   0  0  0  0  0  0  0  0  0  0  0  0
   20.0829  -13.1604  -19.5050 C   0  0  0  0  0  0  0  0  0  0  0  0
   19.7292  -12.0939  -18.5270 C   0  0  2  0  0  0  0  0  0  0  0  0
   18.4373  -11.4369  -18.9691 C   0  0  0  0  0  0  0  0  0  0  0  0
   20.8395  -11.0908  -18.3147 C   0  0  2  0  0  0  0  0  0  0  0  0
   22.0537  -11.7868  -17.8592 N   0  0  0  0  0  0  0  0  0  0  0  0
   20.5203  -10.1014  -17.2585 C   0  0  0  0  0  0  0  0  0  0  0  0
   19.4213   -9.4661  -17.4003 O   0  0  0  0  0  0  0  0  0  0  0  0
   21.3575   -9.8468  -16.1434 N   0  0  0  0  0  0  0  0  0  0  0  0
   20.9821   -8.8458  -15.2116 C   0  0  1  0  0  0  0  0  0  0  0  0
   21.5826   -9.2430  -13.8556 C   0  0  0  0  0  0  0  0  0  0  0  0
   23.3269   -9.6293  -13.9819 S   0  0  0  0  0  0  0  0  0  0  0  0
   21.3452   -7.4650  -15.5396 C   0  0  0  0  0  0  0  0  0  0  0  0
   22.3916   -7.3710  -16.2743 O   0  0  0  0  0  0  0  0  0  0  0  0
   20.6710   -6.2927  -15.1326 N   0  0  0  0  0  0  0  0  0  0  0  0
   19.4306   -6.3022  -14.3382 C   0  0  0  0  0  0  0  0  0  0  0  0
   18.5747   -5.3606  -15.1966 C   0  0  0  0  0  0  0  0  0  0  0  0
   19.5692   -4.2000  -15.3322 C   0  0  0  0  0  0  0  0  0  0  0  0
   20.9345   -4.8960  -15.3360 C   0  0  1  0  0  0  0  0  0  0  0  0
   21.6849   -4.3088  -14.1902 C   0  0  0  0  0  0  0  0  0  0  0  0
   22.1245   -3.1406  -14.3218 O   0  0  0  0  0  0  0  0  0  0  0  0
   21.9029   -4.9984  -13.0196 O   0  0  0  0  0  0  0  0  0  0  0  0
  1  2  1  0
  2  3  1  0
  3  4  1  6
  5  6  1  1
  5  3  1  0
  7  5  1  0
  7  9  1  0
  8  7  2  0
 10  9  1  0
 10 11  1  1
 11 12  1  0
 13 10  1  0
 14 13  2  0
 15 13  1  0
 15 16  1  0
 17 16  1  0
 18 19  1  0
 18 17  1  0
 19 20  1  1
 19 15  1  0
 20 22  1  0
 21 20  2  0
M  END
$$$$
