ICP.pdb
     RDKit          3D

 22 22  0  0  1  0  0  0  0  0999 V2000
   17.3895  -15.5862  -16.6178 C   0  0  0  0  0  0  0  0  0  0  0  0
   18.8337  -15.6886  -16.9817 C   0  0  0  0  0  0  0  0  0  0  0  0
   19.1799  -15.0739  -18.2937 C   0  0  2  0  0  0  0  0  0  0  0  0
   19.5908  -16.1727  -19.2529 C   0  0  0  0  0  0  0  0  0  0  0  0
   20.2254  -13.9881  -18.1834 C   0  0  2  0  0  0  0  0  0  0  0  0
   21.1911  -14.3374  -17.1290 N   0  0  0  0  0  0  0  0  0  0  0  0
   19.6504  -12.6807  -17.7881 C   0  0  0  0  0  0  0  0  0  0  0  0
   18.8095  -12.1697  -18.6025 O   0  0  0  0  0  0  0  0  0  0  0  0
   19.9876  -12.0061  -16.5878 N   0  0  0  0  0  0  0  0  0  0  0  0
   19.4930  -10.6952  -16.3693 C   0  0  1  0  0  0  0  0  0  0  0  0
   18.4374  -10.7900  -15.2585 C   0  0  0  0  0  0  0  0  0  0  0  0
   17.9338   -9.1742  -14.6723 S   0  0  0  0  0  0  0  0  0  0  0  0
   20.4776   -9.6608  -16.0432 C   0  0  0  0  0  0  0  0  0  0  0  0
   21.3981  -10.0624  -15.2462 O   0  0  0  0  0  0  0  0  0  0  0  0
   20.4928   -8.3284  -16.5112 N   0  0  0  0  0  0  0  0  0  0  0  0
   19.4636   -7.7684  -17.4040 C   0  0  0  0  0  0  0  0  0  0  0  0
   20.3703   -7.1578  -18.4815 C   0  0  0  0  0  0  0  0  0  0  0  0
   21.3205   -6.3715  -17.5688 C   0  0  0  0  0  0  0  0  0  0  0  0
   21.3963   -7.2321  -16.3031 C   0  0  1  0  0  0  0  0  0  0  0  0
   20.9385   -6.3498  -15.1926 C   0  0  0  0  0  0  0  0  0  0  0  0
   19.7704   -6.5146  -14.7643 O   0  0  0  0  0  0  0  0  0  0  0  0
   21.7449   -5.3825  -14.6384 O   0  0  0  0  0  0  0  0  0  0  0  0
  1  2  1  0
  2  3  1  0
  3  4  1  6
  5  6  1  1
  5  3  1  0
  7  5  1  0
  7  9  1  0
  8  7  2  0
 10  9  1  0
 10 11  1  1
 11 12  1  0
 13 10  1  0
 14 13  2  0
 15 13  1  0
 15 16  1  0
 17 16  1  0
 18 19  1  0
 18 17  1  0
 19 20  1  1
 19 15  1  0
 20 22  1  0
 21 20  2  0
M  END
$$$$
