ICP.pdb
     RDKit          3D

 22 22  0  0  1  0  0  0  0  0999 V2000
   25.3367  -15.8660  -15.2784 C   0  0  0  0  0  0  0  0  0  0  0  0
   23.9485  -15.3231  -15.3605 C   0  0  0  0  0  0  0  0  0  0  0  0
   23.8671  -13.9223  -15.8608 C   0  0  2  0  0  0  0  0  0  0  0  0
   24.6191  -13.0192  -14.9043 C   0  0  0  0  0  0  0  0  0  0  0  0
   22.4484  -13.4566  -16.0941 C   0  0  2  0  0  0  0  0  0  0  0  0
   21.8088  -14.3095  -17.1087 N   0  0  0  0  0  0  0  0  0  0  0  0
   22.3817  -12.0752  -16.6267 C   0  0  0  0  0  0  0  0  0  0  0  0
   22.6746  -11.9369  -17.8623 O   0  0  0  0  0  0  0  0  0  0  0  0
   22.0194  -10.9497  -15.8449 N   0  0  0  0  0  0  0  0  0  0  0  0
   21.9390   -9.6758  -16.4629 C   0  0  1  0  0  0  0  0  0  0  0  0
   20.8662   -9.7714  -17.5570 C   0  0  0  0  0  0  0  0  0  0  0  0
   19.3103  -10.3874  -16.9184 S   0  0  0  0  0  0  0  0  0  0  0  0
   21.6690   -8.5311  -15.5896 C   0  0  0  0  0  0  0  0  0  0  0  0
   21.0457   -8.8432  -14.5135 O   0  0  0  0  0  0  0  0  0  0  0  0
   22.0211   -7.1840  -15.8260 N   0  0  0  0  0  0  0  0  0  0  0  0
   22.5843   -6.7022  -17.0989 C   0  0  0  0  0  0  0  0  0  0  0  0
   23.8023   -5.9379  -16.5620 C   0  0  0  0  0  0  0  0  0  0  0  0
   23.0956   -5.0942  -15.4928 C   0  0  0  0  0  0  0  0  0  0  0  0
   21.9591   -6.0028  -15.0121 C   0  0  1  0  0  0  0  0  0  0  0  0
   20.7048   -5.2361  -15.2562 C   0  0  0  0  0  0  0  0  0  0  0  0
   20.0933   -5.4505  -16.3310 O   0  0  0  0  0  0  0  0  0  0  0  0
   20.2119   -4.3210  -14.3545 O   0  0  0  0  0  0  0  0  0  0  0  0
  1  2  1  0
  2  3  1  0
  3  4  1  1
  5  6  1  6
  5  3  1  0
  7  5  1  0
  7  9  1  0
  8  7  2  0
 10  9  1  0
 10 11  1  6
 11 12  1  0
 13 10  1  0
 14 13  2  0
 15 13  1  0
 15 16  1  0
 17 16  1  0
 18 19  1  0
 18 17  1  0
 19 20  1  6
 19 15  1  0
 20 22  1  0
 21 20  2  0
M  END
$$$$
