ICP.pdb
     RDKit          3D

 22 22  0  0  1  0  0  0  0  0999 V2000
   27.5693  -17.0934  -18.3277 C   0  0  0  0  0  0  0  0  0  0  0  0
   28.2988  -17.8077  -17.2385 C   0  0  0  0  0  0  0  0  0  0  0  0
   27.4405  -18.6977  -16.4076 C   0  0  2  0  0  0  0  0  0  0  0  0
   26.2875  -17.8846  -15.8548 C   0  0  0  0  0  0  0  0  0  0  0  0
   28.2071  -19.4176  -15.3221 C   0  0  2  0  0  0  0  0  0  0  0  0
   29.1797  -20.3386  -15.9320 N   0  0  0  0  0  0  0  0  0  0  0  0
   27.3343  -20.2581  -14.4689 C   0  0  0  0  0  0  0  0  0  0  0  0
   26.7301  -21.2165  -15.0587 O   0  0  0  0  0  0  0  0  0  0  0  0
   27.1547  -20.0438  -13.0792 N   0  0  0  0  0  0  0  0  0  0  0  0
   26.1673  -20.7900  -12.3868 C   0  0  1  0  0  0  0  0  0  0  0  0
   26.3281  -20.4749  -10.8928 C   0  0  0  0  0  0  0  0  0  0  0  0
   24.9227  -21.0352   -9.9343 S   0  0  0  0  0  0  0  0  0  0  0  0
   24.7756  -20.5900  -12.7980 C   0  0  0  0  0  0  0  0  0  0  0  0
   24.4753  -19.3618  -13.0104 O   0  0  0  0  0  0  0  0  0  0  0  0
   23.7915  -21.5884  -12.9695 N   0  0  0  0  0  0  0  0  0  0  0  0
   24.0021  -23.0052  -12.6259 C   0  0  0  0  0  0  0  0  0  0  0  0
   23.5355  -23.6540  -13.9364 C   0  0  0  0  0  0  0  0  0  0  0  0
   22.1877  -22.9359  -14.0854 C   0  0  0  0  0  0  0  0  0  0  0  0
   22.4468  -21.5558  -13.4716 C   0  0  1  0  0  0  0  0  0  0  0  0
   21.4546  -21.4172  -12.3683 C   0  0  0  0  0  0  0  0  0  0  0  0
   21.8707  -21.5572  -11.1925 O   0  0  0  0  0  0  0  0  0  0  0  0
   20.1257  -21.1462  -12.6005 O   0  0  0  0  0  0  0  0  0  0  0  0
  1  2  1  0
  2  3  1  0
  3  4  1  1
  5  6  1  6
  5  3  1  0
  7  5  1  0
  7  9  1  0
  8  7  2  0
 10  9  1  0
 10 11  1  1
 11 12  1  0
 13 10  1  0
 14 13  2  0
 15 13  1  0
 15 16  1  0
 17 16  1  0
 18 19  1  0
 18 17  1  0
 19 20  1  1
 19 15  1  0
 20 22  1  0
 21 20  2  0
M  END
$$$$
