RLD.pdb
     RDKit          3D

 28 27  0  0  1  0  0  0  0  0999 V2000
   17.7683  -25.1894   -5.0504 N   0  0  0  0  0  0  0  0  0  0  0  0
   17.0955  -26.0448   -5.9886 C   0  0  0  0  0  0  0  0  0  0  0  0
   16.0325  -26.6265   -5.5938 N   0  0  0  0  0  0  0  0  0  0  0  0
   17.6450  -26.1909   -7.2878 N   0  0  0  0  0  0  0  0  0  0  0  0
   18.8208  -25.4240   -7.6376 C   0  0  0  0  0  0  0  0  0  0  0  0
   18.4960  -24.1903   -8.4101 C   0  0  0  0  0  0  0  0  0  0  0  0
   19.6322  -23.3403   -8.8172 C   0  0  0  0  0  0  0  0  0  0  0  0
   20.4534  -22.7359   -7.7366 C   0  0  2  0  0  0  0  0  0  0  0  0
   19.5338  -22.0934   -6.7828 N   0  0  0  0  0  0  0  0  0  0  0  0
   21.3819  -21.6837   -8.2516 C   0  0  0  0  0  0  0  0  0  0  0  0
   20.9284  -20.6298   -8.8123 O   0  0  0  0  0  0  0  0  0  0  0  0
   15.4373  -27.2723   -6.1346 C   0  0  0  0  0  0  0  0  0  0  0  0
   27.4307  -20.5685   -7.8887 C   0  0  1  0  0  0  0  0  0  0  0  0
   26.1366  -20.0386   -8.5564 C   0  0  0  0  0  0  0  0  0  0  0  0
   26.0477  -18.6027   -8.1620 C   0  0  0  0  0  0  0  0  0  0  0  0
   25.0403  -20.8956   -8.0654 C   0  0  2  0  0  0  0  0  0  0  0  0
   23.6959  -20.7427   -8.7096 N   0  0  0  0  0  0  0  0  0  0  0  0
   22.7882  -21.7795   -8.1571 C   0  0  0  0  0  0  0  0  0  0  0  0
   23.7224  -20.9748  -10.1678 O   0  0  0  0  0  0  0  0  0  0  0  0
   23.7577  -22.1796  -10.5877 N   0  0  0  0  0  0  0  0  0  0  0  0
   23.7071  -19.9386  -11.1416 C   0  0  1  0  0  0  0  0  0  0  0  0
   23.6517  -20.3122  -12.5650 C   0  0  0  0  0  0  0  0  0  0  0  0
   22.8822  -19.2705  -13.3379 C   0  0  0  0  0  0  0  0  0  0  0  0
   22.8387  -19.5016  -14.7929 O   0  0  0  0  0  0  0  0  0  0  0  0
   22.7360  -20.7088  -15.1935 C   0  0  0  0  0  0  0  0  0  0  0  0
   25.0467  -20.3256  -13.0688 O   0  0  0  0  0  0  0  0  0  0  0  0
   25.9383  -19.6868  -12.4116 O   0  0  0  0  0  0  0  0  0  0  0  0
   22.8994  -18.5456  -15.7772 O   0  0  0  0  0  0  0  0  0  0  0  0
  2  1  1  0
  2  4  1  0
  3  2  2  0
  5  4  1  0
  6  5  1  0
  7  6  1  0
  8 10  1  0
  8  9  1  1
  8  7  1  0
 10 11  2  0
 13 12  1  6
 13 14  1  0
 15 13  1  0
 16 15  1  1
 16 17  1  0
 17 10  1  0
 18 16  1  0
 19 18  2  0
 20 18  1  0
 21 20  1  0
 21 22  1  6
 22 23  1  0
 23 27  1  0
 23 24  2  0
 25 21  1  0
 26 25  2  0
 28 25  1  0
M  END
$$$$
