RLD.pdb
     RDKit          3D

 28 27  0  0  1  0  0  0  0  0999 V2000
   39.0222   -6.7234  -17.2778 N   0  0  0  0  0  0  0  0  0  0  0  0
   38.9719   -6.8727  -15.8497 C   0  0  0  0  0  0  0  0  0  0  0  0
   39.9913   -6.4952  -15.1844 N   0  0  0  0  0  0  0  0  0  0  0  0
   37.8027   -7.4241  -15.2664 N   0  0  0  0  0  0  0  0  0  0  0  0
   36.7705   -7.9469  -16.1348 C   0  0  0  0  0  0  0  0  0  0  0  0
   35.5875   -8.4564  -15.3830 C   0  0  0  0  0  0  0  0  0  0  0  0
   34.5455   -9.1468  -16.1683 C   0  0  0  0  0  0  0  0  0  0  0  0
   33.4027   -8.3301  -16.6522 C   0  0  2  0  0  0  0  0  0  0  0  0
   32.7528   -7.7294  -15.4753 N   0  0  0  0  0  0  0  0  0  0  0  0
   32.3794   -9.1537  -17.3655 C   0  0  0  0  0  0  0  0  0  0  0  0
   32.6587   -9.7293  -18.4707 O   0  0  0  0  0  0  0  0  0  0  0  0
   40.1237   -6.5471  -14.1630 C   0  0  0  0  0  0  0  0  0  0  0  0
   27.2147  -12.0451  -15.8480 C   0  0  1  0  0  0  0  0  0  0  0  0
   28.0522  -11.6461  -17.0893 C   0  0  0  0  0  0  0  0  0  0  0  0
   28.4714  -12.9342  -17.7140 C   0  0  0  0  0  0  0  0  0  0  0  0
   29.1535  -10.8017  -16.5877 C   0  0  2  0  0  0  0  0  0  0  0  0
   30.0663  -10.1761  -17.5983 N   0  0  0  0  0  0  0  0  0  0  0  0
   31.0668   -9.3472  -16.8801 C   0  0  0  0  0  0  0  0  0  0  0  0
   29.3692   -9.2513  -18.5147 O   0  0  0  0  0  0  0  0  0  0  0  0
   28.5146   -9.7369  -19.3289 N   0  0  0  0  0  0  0  0  0  0  0  0
   29.5853   -7.8462  -18.5478 C   0  0  1  0  0  0  0  0  0  0  0  0
   28.7696   -7.0308  -19.4634 C   0  0  0  0  0  0  0  0  0  0  0  0
   28.5134   -5.6762  -18.8518 C   0  0  0  0  0  0  0  0  0  0  0  0
   27.6944   -4.7777  -19.6851 O   0  0  0  0  0  0  0  0  0  0  0  0
   27.4896   -3.5959  -19.2493 C   0  0  0  0  0  0  0  0  0  0  0  0
   29.5627   -6.8369  -20.7017 O   0  0  0  0  0  0  0  0  0  0  0  0
   30.7865   -6.4825  -20.5925 O   0  0  0  0  0  0  0  0  0  0  0  0
   27.1184   -5.0795  -20.8949 O   0  0  0  0  0  0  0  0  0  0  0  0
  2  1  1  0
  2  4  1  0
  3  2  2  0
  5  4  1  0
  6  5  1  0
  7  6  1  0
  8 10  1  0
  8  9  1  1
  8  7  1  0
 10 11  2  0
 13 12  1  6
 13 14  1  0
 15 13  1  0
 16 15  1  1
 16 17  1  0
 17 10  1  0
 18 16  1  0
 19 18  2  0
 20 18  1  0
 21 20  1  0
 21 22  1  6
 22 23  1  0
 23 27  1  0
 23 24  2  0
 25 21  1  0
 26 25  2  0
 28 25  1  0
M  END
$$$$
