RLD.pdb
     RDKit          3D

 28 27  0  0  1  0  0  0  0  0999 V2000
   20.3867  -14.3821  -22.7133 N   0  0  0  0  0  0  0  0  0  0  0  0
   19.6711  -15.5266  -22.2210 C   0  0  0  0  0  0  0  0  0  0  0  0
   19.4165  -16.4602  -23.0504 N   0  0  0  0  0  0  0  0  0  0  0  0
   19.2938  -15.5540  -20.8542 N   0  0  0  0  0  0  0  0  0  0  0  0
   19.6142  -14.4165  -20.0197 C   0  0  0  0  0  0  0  0  0  0  0  0
   20.9237  -14.5641  -19.3212 C   0  0  0  0  0  0  0  0  0  0  0  0
   21.3265  -13.4656  -18.4211 C   0  0  0  0  0  0  0  0  0  0  0  0
   22.6834  -13.5386  -17.8205 C   0  0  2  0  0  0  0  0  0  0  0  0
   22.7588  -14.7832  -17.0371 N   0  0  0  0  0  0  0  0  0  0  0  0
   22.9538  -12.3996  -16.8911 C   0  0  0  0  0  0  0  0  0  0  0  0
   22.4420  -12.3753  -15.7213 O   0  0  0  0  0  0  0  0  0  0  0  0
   18.9043  -17.3361  -22.8657 C   0  0  0  0  0  0  0  0  0  0  0  0
   26.2840  -10.8382  -14.4318 C   0  0  2  0  0  0  0  0  0  0  0  0
   26.4688  -10.7016  -15.9643 C   0  0  0  0  0  0  0  0  0  0  0  0
   27.8799  -10.2565  -16.1542 C   0  0  0  0  0  0  0  0  0  0  0  0
   25.4404   -9.7458  -16.4186 C   0  0  2  0  0  0  0  0  0  0  0  0
   24.0053  -10.1629  -16.3072 N   0  0  0  0  0  0  0  0  0  0  0  0
   23.7719  -11.2997  -17.2329 C   0  0  0  0  0  0  0  0  0  0  0  0
   23.0611   -9.1081  -16.7280 O   0  0  0  0  0  0  0  0  0  0  0  0
   23.0161   -8.7952  -17.9646 N   0  0  0  0  0  0  0  0  0  0  0  0
   22.1901   -8.4163  -15.8419 C   0  0  1  0  0  0  0  0  0  0  0  0
   21.2469   -7.4361  -16.4061 C   0  0  0  0  0  0  0  0  0  0  0  0
   19.9980   -7.3835  -15.5622 C   0  0  0  0  0  0  0  0  0  0  0  0
   18.9873   -6.4187  -16.0311 O   0  0  0  0  0  0  0  0  0  0  0  0
   18.0837   -6.0646  -15.2026 C   0  0  0  0  0  0  0  0  0  0  0  0
   21.9048   -6.1083  -16.3422 O   0  0  0  0  0  0  0  0  0  0  0  0
   21.2931   -5.1005  -16.8374 O   0  0  0  0  0  0  0  0  0  0  0  0
   18.9108   -5.8535  -17.2806 O   0  0  0  0  0  0  0  0  0  0  0  0
  2  1  1  0
  2  4  1  0
  3  2  2  0
  5  4  1  0
  6  5  1  0
  7  6  1  0
  8 10  1  0
  8  9  1  1
  8  7  1  0
 10 11  2  0
 13 12  1  6
 13 14  1  0
 15 13  1  0
 16 15  1  1
 16 17  1  0
 17 10  1  0
 18 16  1  0
 19 18  2  0
 20 18  1  0
 21 20  1  0
 21 22  1  1
 22 23  1  0
 23 27  1  0
 23 24  2  0
 25 21  1  0
 26 25  2  0
 28 25  1  0
M  END
$$$$
