RLD.pdb
     RDKit          3D

 28 27  0  0  1  0  0  0  0  0999 V2000
   25.8359  -25.3542  -16.0396 N   0  0  0  0  0  0  0  0  0  0  0  0
   26.7663  -25.2403  -17.1286 C   0  0  0  0  0  0  0  0  0  0  0  0
   26.7434  -26.1536  -18.0172 N   0  0  0  0  0  0  0  0  0  0  0  0
   27.6472  -24.1292  -17.1543 N   0  0  0  0  0  0  0  0  0  0  0  0
   27.2863  -22.9363  -16.4198 C   0  0  0  0  0  0  0  0  0  0  0  0
   25.9345  -22.4219  -16.7833 C   0  0  0  0  0  0  0  0  0  0  0  0
   25.4889  -21.1854  -16.1113 C   0  0  0  0  0  0  0  0  0  0  0  0
   25.5589  -19.9223  -16.8903 C   0  0  2  0  0  0  0  0  0  0  0  0
   26.9805  -19.5710  -17.0451 N   0  0  0  0  0  0  0  0  0  0  0  0
   24.8838  -18.7868  -16.1908 C   0  0  0  0  0  0  0  0  0  0  0  0
   25.4423  -18.2047  -15.2007 O   0  0  0  0  0  0  0  0  0  0  0  0
   27.4034  -26.2791  -18.7997 C   0  0  0  0  0  0  0  0  0  0  0  0
   21.0472  -14.3813  -17.6955 C   0  0  1  0  0  0  0  0  0  0  0  0
   21.6514  -15.0453  -16.4324 C   0  0  0  0  0  0  0  0  0  0  0  0
   22.4829  -13.9870  -15.7889 C   0  0  0  0  0  0  0  0  0  0  0  0
   22.3946  -16.2288  -16.9060 C   0  0  2  0  0  0  0  0  0  0  0  0
   22.9691  -17.1491  -15.8722 N   0  0  0  0  0  0  0  0  0  0  0  0
   23.6148  -18.2921  -16.5656 C   0  0  0  0  0  0  0  0  0  0  0  0
   21.9431  -17.7463  -14.9937 O   0  0  0  0  0  0  0  0  0  0  0  0
   21.6261  -17.1246  -13.9250 N   0  0  0  0  0  0  0  0  0  0  0  0
   21.2777  -18.9739  -15.2630 C   0  0  1  0  0  0  0  0  0  0  0  0
   20.0663  -19.3008  -14.4921 C   0  0  0  0  0  0  0  0  0  0  0  0
   19.4515  -18.0370  -13.9449 C   0  0  0  0  0  0  0  0  0  0  0  0
   18.1655  -18.2364  -13.2530 O   0  0  0  0  0  0  0  0  0  0  0  0
   17.0994  -18.0180  -13.9194 C   0  0  0  0  0  0  0  0  0  0  0  0
   19.0998  -19.9150  -15.4347 O   0  0  0  0  0  0  0  0  0  0  0  0
   19.1499  -19.5754  -16.6665 O   0  0  0  0  0  0  0  0  0  0  0  0
   17.9883  -18.6351  -11.9506 O   0  0  0  0  0  0  0  0  0  0  0  0
  2  1  1  0
  2  4  1  0
  3  2  2  0
  5  4  1  0
  6  5  1  0
  7  6  1  0
  8 10  1  0
  8  9  1  1
  8  7  1  0
 10 11  2  0
 13 12  1  1
 13 14  1  0
 15 13  1  0
 16 15  1  6
 16 17  1  0
 17 10  1  0
 18 16  1  0
 19 18  2  0
 20 18  1  0
 21 20  1  0
 21 22  1  1
 22 23  1  0
 23 27  1  0
 23 24  2  0
 25 21  1  0
 26 25  2  0
 28 25  1  0
M  END
$$$$
