RLD.pdb
     RDKit          3D

 28 27  0  0  1  0  0  0  0  0999 V2000
   32.7864   -8.2423  -16.4385 N   0  0  0  0  0  0  0  0  0  0  0  0
   33.8602   -8.6965  -17.2782 C   0  0  0  0  0  0  0  0  0  0  0  0
   33.7712   -8.4543  -18.5263 N   0  0  0  0  0  0  0  0  0  0  0  0
   34.9480   -9.3800  -16.6776 N   0  0  0  0  0  0  0  0  0  0  0  0
   34.9672   -9.5316  -15.2390 C   0  0  0  0  0  0  0  0  0  0  0  0
   36.2287   -9.0286  -14.6227 C   0  0  0  0  0  0  0  0  0  0  0  0
   36.3964   -9.2494  -13.1728 C   0  0  0  0  0  0  0  0  0  0  0  0
   37.6018   -8.6667  -12.5289 C   0  0  2  0  0  0  0  0  0  0  0  0
   38.7567   -9.4978  -12.9079 N   0  0  0  0  0  0  0  0  0  0  0  0
   37.5070   -8.6738  -11.0372 C   0  0  0  0  0  0  0  0  0  0  0  0
   36.6385   -7.9573  -10.4343 O   0  0  0  0  0  0  0  0  0  0  0  0
   34.4323   -8.7378  -19.2654 C   0  0  0  0  0  0  0  0  0  0  0  0
   36.4005  -11.7533   -7.9090 C   0  0  2  0  0  0  0  0  0  0  0  0
   37.7565  -11.9368   -8.6363 C   0  0  0  0  0  0  0  0  0  0  0  0
   38.2474  -13.2836   -8.2236 C   0  0  0  0  0  0  0  0  0  0  0  0
   38.6034  -10.8028   -8.2189 C   0  0  2  0  0  0  0  0  0  0  0  0
   38.2447   -9.4409   -8.7313 N   0  0  0  0  0  0  0  0  0  0  0  0
   38.3491   -9.4523  -10.2122 C   0  0  0  0  0  0  0  0  0  0  0  0
   39.1739   -8.3872   -8.2760 O   0  0  0  0  0  0  0  0  0  0  0  0
   39.2313   -8.1301   -7.0272 N   0  0  0  0  0  0  0  0  0  0  0  0
   40.0174   -7.6379   -9.1418 C   0  0  1  0  0  0  0  0  0  0  0  0
   40.9071   -6.6236   -8.5518 C   0  0  0  0  0  0  0  0  0  0  0  0
   42.3187   -6.8358   -9.0385 C   0  0  0  0  0  0  0  0  0  0  0  0
   43.0302   -7.9438   -8.3764 O   0  0  0  0  0  0  0  0  0  0  0  0
   42.4828   -8.4621   -7.3468 C   0  0  0  0  0  0  0  0  0  0  0  0
   40.4445   -5.3002   -9.0365 O   0  0  0  0  0  0  0  0  0  0  0  0
   40.0163   -5.2066  -10.2377 O   0  0  0  0  0  0  0  0  0  0  0  0
   44.2357   -8.4847   -8.7517 O   0  0  0  0  0  0  0  0  0  0  0  0
  2  1  1  0
  2  4  1  0
  3  2  2  0
  5  4  1  0
  6  5  1  0
  7  6  1  0
  8 10  1  0
  8  9  1  1
  8  7  1  0
 10 11  2  0
 13 12  1  6
 13 14  1  0
 15 13  1  0
 16 15  1  6
 16 17  1  0
 17 10  1  0
 18 16  1  0
 19 18  2  0
 20 18  1  0
 21 20  1  0
 21 22  1  1
 22 23  1  0
 23 27  1  0
 23 24  2  0
 25 21  1  0
 26 25  2  0
 28 25  1  0
M  END
$$$$
