RLD.pdb
     RDKit          3D

 28 27  0  0  1  0  0  0  0  0999 V2000
   20.1426  -13.1161  -22.5006 N   0  0  0  0  0  0  0  0  0  0  0  0
   18.8438  -13.0146  -21.8946 C   0  0  0  0  0  0  0  0  0  0  0  0
   17.8542  -12.7840  -22.6641 N   0  0  0  0  0  0  0  0  0  0  0  0
   18.7364  -13.1766  -20.4898 N   0  0  0  0  0  0  0  0  0  0  0  0
   19.9342  -13.0837  -19.6839 C   0  0  0  0  0  0  0  0  0  0  0  0
   20.2928  -11.6767  -19.3434 C   0  0  0  0  0  0  0  0  0  0  0  0
   21.5030  -11.4774  -18.5220 C   0  0  0  0  0  0  0  0  0  0  0  0
   22.4673  -12.6049  -18.4432 C   0  0  2  0  0  0  0  0  0  0  0  0
   21.8875  -13.6273  -17.5562 N   0  0  0  0  0  0  0  0  0  0  0  0
   23.7793  -12.1888  -17.8603 C   0  0  0  0  0  0  0  0  0  0  0  0
   23.8778  -11.1188  -17.1702 O   0  0  0  0  0  0  0  0  0  0  0  0
   16.8680  -12.6567  -22.3907 C   0  0  0  0  0  0  0  0  0  0  0  0
   26.3958  -13.8675  -14.6448 C   0  0  2  0  0  0  0  0  0  0  0  0
   26.3750  -14.6875  -15.9594 C   0  0  0  0  0  0  0  0  0  0  0  0
   27.1362  -15.9349  -15.6593 C   0  0  0  0  0  0  0  0  0  0  0  0
   26.9702  -13.8202  -16.9942 C   0  0  2  0  0  0  0  0  0  0  0  0
   26.2394  -12.5617  -17.3518 N   0  0  0  0  0  0  0  0  0  0  0  0
   24.9702  -12.9300  -18.0282 C   0  0  0  0  0  0  0  0  0  0  0  0
   26.9739  -11.7196  -18.3175 O   0  0  0  0  0  0  0  0  0  0  0  0
   27.1929  -12.1884  -19.4843 N   0  0  0  0  0  0  0  0  0  0  0  0
   27.4530  -10.4112  -18.0333 C   0  0  1  0  0  0  0  0  0  0  0  0
   28.1862   -9.6871  -19.0853 C   0  0  0  0  0  0  0  0  0  0  0  0
   28.0416   -8.2001  -18.8788 C   0  0  0  0  0  0  0  0  0  0  0  0
   28.7687   -7.3761  -19.8610 O   0  0  0  0  0  0  0  0  0  0  0  0
   29.4549   -7.9864  -20.7471 C   0  0  0  0  0  0  0  0  0  0  0  0
   29.6202  -10.0371  -18.9397 O   0  0  0  0  0  0  0  0  0  0  0  0
   30.0869  -10.2193  -17.7632 O   0  0  0  0  0  0  0  0  0  0  0  0
   28.7896   -6.0043  -19.9251 O   0  0  0  0  0  0  0  0  0  0  0  0
  2  1  1  0
  2  4  1  0
  3  2  2  0
  5  4  1  0
  6  5  1  0
  7  6  1  0
  8 10  1  0
  8  9  1  1
  8  7  1  0
 10 11  2  0
 13 12  1  1
 13 14  1  0
 15 13  1  0
 16 15  1  1
 16 17  1  0
 17 10  1  0
 18 16  1  0
 19 18  2  0
 20 18  1  0
 21 20  1  0
 21 22  1  1
 22 23  1  0
 23 27  1  0
 23 24  2  0
 25 21  1  0
 26 25  2  0
 28 25  1  0
M  END
$$$$
