RLD.pdb
     RDKit          3D

 28 27  0  0  1  0  0  0  0  0999 V2000
   20.6954  -28.7625  -13.1545 N   0  0  0  0  0  0  0  0  0  0  0  0
   21.3305  -29.2986  -14.3266 C   0  0  0  0  0  0  0  0  0  0  0  0
   21.5876  -30.5468  -14.3351 N   0  0  0  0  0  0  0  0  0  0  0  0
   21.6308  -28.4186  -15.3974 N   0  0  0  0  0  0  0  0  0  0  0  0
   21.4372  -26.9976  -15.2072 C   0  0  0  0  0  0  0  0  0  0  0  0
   20.6157  -26.6835  -14.0027 C   0  0  0  0  0  0  0  0  0  0  0  0
   20.5827  -25.2733  -13.5677 C   0  0  0  0  0  0  0  0  0  0  0  0
   21.5086  -24.3288  -14.2445 C   0  0  2  0  0  0  0  0  0  0  0  0
   22.7935  -25.0222  -14.4350 N   0  0  0  0  0  0  0  0  0  0  0  0
   21.7692  -23.1059  -13.4254 C   0  0  0  0  0  0  0  0  0  0  0  0
   20.8040  -22.4436  -12.9148 O   0  0  0  0  0  0  0  0  0  0  0  0
   22.0614  -31.0809  -15.0794 C   0  0  0  0  0  0  0  0  0  0  0  0
   26.2696  -20.7422  -10.0988 C   0  0  1  0  0  0  0  0  0  0  0  0
   24.9739  -20.3071  -10.8289 C   0  0  0  0  0  0  0  0  0  0  0  0
   24.0631  -19.8120   -9.7563 C   0  0  0  0  0  0  0  0  0  0  0  0
   24.4963  -21.4955  -11.5618 C   0  0  2  0  0  0  0  0  0  0  0  0
   23.3022  -21.3304  -12.4521 N   0  0  0  0  0  0  0  0  0  0  0  0
   23.0666  -22.6104  -13.1663 C   0  0  0  0  0  0  0  0  0  0  0  0
   23.5025  -20.3177  -13.5082 O   0  0  0  0  0  0  0  0  0  0  0  0
   24.6756  -20.1690  -13.9886 N   0  0  0  0  0  0  0  0  0  0  0  0
   22.4677  -19.4947  -14.0318 C   0  0  2  0  0  0  0  0  0  0  0  0
   22.6372  -18.9236  -15.3785 C   0  0  0  0  0  0  0  0  0  0  0  0
   23.2140  -19.9633  -16.3063 C   0  0  0  0  0  0  0  0  0  0  0  0
   23.8409  -19.4134  -17.5216 O   0  0  0  0  0  0  0  0  0  0  0  0
   23.7893  -18.1494  -17.6892 C   0  0  0  0  0  0  0  0  0  0  0  0
   21.2869  -18.5602  -15.8732 O   0  0  0  0  0  0  0  0  0  0  0  0
   20.2974  -19.2999  -15.5435 O   0  0  0  0  0  0  0  0  0  0  0  0
   24.4813  -20.1239  -18.5073 O   0  0  0  0  0  0  0  0  0  0  0  0
  2  1  1  0
  2  4  1  0
  3  2  2  0
  5  4  1  0
  6  5  1  0
  7  6  1  0
  8 10  1  0
  8  9  1  1
  8  7  1  0
 10 11  2  0
 13 12  1  6
 13 14  1  0
 15 13  1  0
 16 15  1  1
 16 17  1  0
 17 10  1  0
 18 16  1  0
 19 18  2  0
 20 18  1  0
 21 20  1  0
 21 22  1  1
 22 23  1  0
 23 27  1  0
 23 24  2  0
 25 21  1  0
 26 25  2  0
 28 25  1  0
M  END
$$$$
