RLD.pdb
     RDKit          3D

 28 27  0  0  1  0  0  0  0  0999 V2000
   19.1255  -24.0976   -8.5998 N   0  0  0  0  0  0  0  0  0  0  0  0
   18.0773  -23.7554   -9.5211 C   0  0  0  0  0  0  0  0  0  0  0  0
   16.9646  -23.3764   -9.0287 N   0  0  0  0  0  0  0  0  0  0  0  0
   18.3373  -23.8560  -10.9116 N   0  0  0  0  0  0  0  0  0  0  0  0
   19.3510  -23.0043  -11.4946 C   0  0  0  0  0  0  0  0  0  0  0  0
   19.5439  -21.7347  -10.7361 C   0  0  0  0  0  0  0  0  0  0  0  0
   20.5234  -20.7746  -11.2816 C   0  0  0  0  0  0  0  0  0  0  0  0
   21.1672  -21.1179  -12.5759 C   0  0  2  0  0  0  0  0  0  0  0  0
   21.4777  -22.5571  -12.5525 N   0  0  0  0  0  0  0  0  0  0  0  0
   22.4501  -20.3795  -12.7842 C   0  0  0  0  0  0  0  0  0  0  0  0
   22.4839  -19.1036  -12.7417 O   0  0  0  0  0  0  0  0  0  0  0  0
   16.1017  -23.1437   -9.5435 C   0  0  0  0  0  0  0  0  0  0  0  0
   28.4112  -21.5825  -12.3313 C   0  0  1  0  0  0  0  0  0  0  0  0
   27.4435  -20.5275  -12.9245 C   0  0  0  0  0  0  0  0  0  0  0  0
   27.7455  -19.2607  -12.1969 C   0  0  0  0  0  0  0  0  0  0  0  0
   26.0820  -21.0598  -12.7236 C   0  0  2  0  0  0  0  0  0  0  0  0
   24.9373  -20.2729  -13.2860 N   0  0  0  0  0  0  0  0  0  0  0  0
   23.6815  -21.0243  -13.0365 C   0  0  0  0  0  0  0  0  0  0  0  0
   25.0145  -20.1043  -14.7512 O   0  0  0  0  0  0  0  0  0  0  0  0
   25.9849  -19.4287  -15.2317 N   0  0  0  0  0  0  0  0  0  0  0  0
   24.0756  -20.6516  -15.6684 C   0  0  1  0  0  0  0  0  0  0  0  0
   24.2984  -20.4455  -17.1094 C   0  0  0  0  0  0  0  0  0  0  0  0
   24.3119  -21.7756  -17.8204 C   0  0  0  0  0  0  0  0  0  0  0  0
   25.5323  -22.5716  -17.5985 O   0  0  0  0  0  0  0  0  0  0  0  0
   25.3956  -23.8338  -17.4703 C   0  0  0  0  0  0  0  0  0  0  0  0
   23.1504  -19.6585  -17.6219 O   0  0  0  0  0  0  0  0  0  0  0  0
   22.1378  -19.4901  -16.8594 O   0  0  0  0  0  0  0  0  0  0  0  0
   26.8176  -22.0951  -17.5115 O   0  0  0  0  0  0  0  0  0  0  0  0
  2  1  1  0
  2  4  1  0
  3  2  2  0
  5  4  1  0
  6  5  1  0
  7  6  1  0
  8 10  1  0
  8  9  1  1
  8  7  1  0
 10 11  2  0
 13 12  1  6
 13 14  1  0
 15 13  1  0
 16 15  1  1
 16 17  1  0
 17 10  1  0
 18 16  1  0
 19 18  2  0
 20 18  1  0
 21 20  1  0
 21 22  1  6
 22 23  1  0
 23 27  1  0
 23 24  2  0
 25 21  1  0
 26 25  2  0
 28 25  1  0
M  END
$$$$
