RLD.pdb
     RDKit          3D

 28 27  0  0  1  0  0  0  0  0999 V2000
   23.7247  -29.2269  -17.3057 N   0  0  0  0  0  0  0  0  0  0  0  0
   22.6386  -29.7906  -18.0588 C   0  0  0  0  0  0  0  0  0  0  0  0
   22.8122  -30.9493  -18.5604 N   0  0  0  0  0  0  0  0  0  0  0  0
   21.4467  -29.0350  -18.1990 N   0  0  0  0  0  0  0  0  0  0  0  0
   21.3754  -27.7258  -17.5878 C   0  0  0  0  0  0  0  0  0  0  0  0
   20.6740  -27.7409  -16.2717 C   0  0  0  0  0  0  0  0  0  0  0  0
   20.4760  -26.4378  -15.6070 C   0  0  0  0  0  0  0  0  0  0  0  0
   21.6653  -25.5599  -15.4585 C   0  0  2  0  0  0  0  0  0  0  0  0
   22.6050  -26.2314  -14.5452 N   0  0  0  0  0  0  0  0  0  0  0  0
   21.3200  -24.2340  -14.8610 C   0  0  0  0  0  0  0  0  0  0  0  0
   20.8226  -24.1559  -13.6874 O   0  0  0  0  0  0  0  0  0  0  0  0
   22.1154  -31.5243  -19.0580 C   0  0  0  0  0  0  0  0  0  0  0  0
   23.4695  -20.2035  -13.9789 C   0  0  2  0  0  0  0  0  0  0  0  0
   23.2635  -20.4860  -15.4886 C   0  0  0  0  0  0  0  0  0  0  0  0
   23.9086  -19.3423  -16.1964 C   0  0  0  0  0  0  0  0  0  0  0  0
   21.8067  -20.6093  -15.6884 C   0  0  2  0  0  0  0  0  0  0  0  0
   21.0944  -21.7063  -14.9569 N   0  0  0  0  0  0  0  0  0  0  0  0
   21.5139  -23.0077  -15.5351 C   0  0  0  0  0  0  0  0  0  0  0  0
   19.6275  -21.6540  -15.1197 O   0  0  0  0  0  0  0  0  0  0  0  0
   19.1267  -22.0600  -16.2213 N   0  0  0  0  0  0  0  0  0  0  0  0
   18.7298  -21.1821  -14.1228 C   0  0  1  0  0  0  0  0  0  0  0  0
   17.2968  -21.0965  -14.4509 C   0  0  0  0  0  0  0  0  0  0  0  0
   16.5025  -21.9602  -13.5035 C   0  0  0  0  0  0  0  0  0  0  0  0
   15.0412  -21.8558  -13.6652 O   0  0  0  0  0  0  0  0  0  0  0  0
   14.6033  -21.0241  -14.5284 C   0  0  0  0  0  0  0  0  0  0  0  0
   16.8845  -19.6863  -14.2475 O   0  0  0  0  0  0  0  0  0  0  0  0
   17.4373  -19.0191  -13.3071 O   0  0  0  0  0  0  0  0  0  0  0  0
   14.0873  -22.5647  -12.9767 O   0  0  0  0  0  0  0  0  0  0  0  0
  2  1  1  0
  2  4  1  0
  3  2  2  0
  5  4  1  0
  6  5  1  0
  7  6  1  0
  8 10  1  0
  8  9  1  1
  8  7  1  0
 10 11  2  0
 13 12  1  6
 13 14  1  0
 15 13  1  0
 16 15  1  1
 16 17  1  0
 17 10  1  0
 18 16  1  0
 19 18  2  0
 20 18  1  0
 21 20  1  0
 21 22  1  6
 22 23  1  0
 23 27  1  0
 23 24  2  0
 25 21  1  0
 26 25  2  0
 28 25  1  0
M  END
$$$$
