RLD.pdb
     RDKit          3D

 28 27  0  0  1  0  0  0  0  0999 V2000
   30.5138  -18.7869  -19.2340 N   0  0  0  0  0  0  0  0  0  0  0  0
   29.5999  -17.9484  -18.5086 C   0  0  0  0  0  0  0  0  0  0  0  0
   28.9791  -17.0509  -19.1669 N   0  0  0  0  0  0  0  0  0  0  0  0
   29.4402  -18.1652  -17.1162 N   0  0  0  0  0  0  0  0  0  0  0  0
   28.1590  -17.8788  -16.5086 C   0  0  0  0  0  0  0  0  0  0  0  0
   27.0200  -18.5001  -17.2440 C   0  0  0  0  0  0  0  0  0  0  0  0
   26.3195  -19.6119  -16.5715 C   0  0  0  0  0  0  0  0  0  0  0  0
   26.9863  -20.2258  -15.3943 C   0  0  2  0  0  0  0  0  0  0  0  0
   27.9394  -21.2306  -15.8943 N   0  0  0  0  0  0  0  0  0  0  0  0
   26.0183  -20.9253  -14.4955 C   0  0  0  0  0  0  0  0  0  0  0  0
   25.6754  -22.1349  -14.7197 O   0  0  0  0  0  0  0  0  0  0  0  0
   28.2462  -16.4154  -18.8168 C   0  0  0  0  0  0  0  0  0  0  0  0
   25.8250  -22.3263  -10.1031 C   0  0  2  0  0  0  0  0  0  0  0  0
   25.8505  -20.7989  -10.3629 C   0  0  0  0  0  0  0  0  0  0  0  0
   25.9705  -20.1706   -9.0152 C   0  0  0  0  0  0  0  0  0  0  0  0
   24.6083  -20.4858  -11.0952 C   0  0  2  0  0  0  0  0  0  0  0  0
   24.4670  -21.0231  -12.4871 N   0  0  0  0  0  0  0  0  0  0  0  0
   25.4304  -20.3135  -13.3659 C   0  0  0  0  0  0  0  0  0  0  0  0
   23.1351  -20.7708  -13.0732 O   0  0  0  0  0  0  0  0  0  0  0  0
   22.8587  -19.5858  -13.4584 N   0  0  0  0  0  0  0  0  0  0  0  0
   22.1351  -21.7678  -13.2416 C   0  0  2  0  0  0  0  0  0  0  0  0
   20.8504  -21.3795  -13.8479 C   0  0  0  0  0  0  0  0  0  0  0  0
   20.2436  -22.5614  -14.5617 C   0  0  0  0  0  0  0  0  0  0  0  0
   18.9098  -22.3066  -15.1347 O   0  0  0  0  0  0  0  0  0  0  0  0
   17.9035  -22.7977  -14.5226 C   0  0  0  0  0  0  0  0  0  0  0  0
   19.9429  -20.9920  -12.7405 O   0  0  0  0  0  0  0  0  0  0  0  0
   20.1176  -21.5286  -11.5930 O   0  0  0  0  0  0  0  0  0  0  0  0
   18.6292  -21.5900  -16.2724 O   0  0  0  0  0  0  0  0  0  0  0  0
  2  1  1  0
  2  4  1  0
  3  2  2  0
  5  4  1  0
  6  5  1  0
  7  6  1  0
  8 10  1  0
  8  9  1  6
  8  7  1  0
 10 11  2  0
 13 12  1  6
 13 14  1  0
 15 13  1  0
 16 15  1  1
 16 17  1  0
 17 10  1  0
 18 16  1  0
 19 18  2  0
 20 18  1  0
 21 20  1  0
 21 22  1  1
 22 23  1  0
 23 27  1  0
 23 24  2  0
 25 21  1  0
 26 25  2  0
 28 25  1  0
M  END
$$$$
