PWG.pdb
     RDKit          3D

 26 28  0  0  1  0  0  0  0  0999 V2000
   27.2972  -18.0640  -14.9949 N   0  0  0  0  0  0  0  0  0  0  0  0
   28.0142  -17.2082  -15.9247 C   0  0  0  0  0  0  0  0  0  0  0  0
   29.3170  -17.9343  -16.2170 C   0  0  0  0  0  0  0  0  0  0  0  0
   29.1785  -19.2742  -15.5324 C   0  0  0  0  0  0  0  0  0  0  0  0
   27.6739  -19.4122  -15.4044 C   0  0  1  0  0  0  0  0  0  0  0  0
   27.2869  -20.4497  -14.4431 C   0  0  0  0  0  0  0  0  0  0  0  0
   27.4971  -21.6570  -14.7837 O   0  0  0  0  0  0  0  0  0  0  0  0
   26.7036  -20.2429  -13.1734 N   0  0  0  0  0  0  0  0  0  0  0  0
   25.9642  -21.3123  -12.4906 C   0  0  1  0  0  0  0  0  0  0  0  0
   26.5723  -21.7273  -11.2254 C   0  0  0  0  0  0  0  0  0  0  0  0
   26.4800  -20.8758  -10.0519 C   0  0  0  0  0  0  0  0  0  0  0  0
   25.3859  -20.0884   -9.6674 C   0  0  0  0  0  0  0  0  0  0  0  0
   25.6245  -19.4665   -8.5076 N   0  0  0  0  0  0  0  0  0  0  0  0
   26.8509  -19.8203   -8.1114 C   0  0  0  0  0  0  0  0  0  0  0  0
   27.5564  -19.4317   -6.9931 C   0  0  0  0  0  0  0  0  0  0  0  0
   28.8139  -19.9123   -6.8147 C   0  0  0  0  0  0  0  0  0  0  0  0
   29.4088  -20.7680   -7.7024 C   0  0  0  0  0  0  0  0  0  0  0  0
   28.6751  -21.1410   -8.8157 C   0  0  0  0  0  0  0  0  0  0  0  0
   27.3901  -20.6897   -9.0571 C   0  0  0  0  0  0  0  0  0  0  0  0
   24.5437  -21.0463  -12.5022 C   0  0  0  0  0  0  0  0  0  0  0  0
   24.1003  -19.8959  -12.2876 O   0  0  0  0  0  0  0  0  0  0  0  0
   23.5612  -22.0724  -12.7501 N   0  0  0  0  0  0  0  0  0  0  0  0
   22.1839  -21.8825  -13.0124 C   0  0  0  0  0  0  0  0  0  0  0  0
   21.3132  -21.5858  -11.8722 C   0  0  0  0  0  0  0  0  0  0  0  0
   19.9552  -21.4203  -12.0311 O   0  0  0  0  0  0  0  0  0  0  0  0
   21.7936  -21.4786  -10.7203 O   0  0  0  0  0  0  0  0  0  0  0  0
  1  2  1  0
  2  3  1  0
  4  3  1  0
  5  6  1  1
  5  1  1  0
  5  4  1  0
  6  8  1  0
  7  6  2  0
  8  9  1  0
  9 10  1  1
 10 11  1  0
 11 19  1  0
 12 11  2  0
 12 13  1  0
 13 14  1  0
 14 15  1  0
 15 16  2  0
 17 16  1  0
 18 17  2  0
 19 14  2  0
 19 18  1  0
 20  9  1  0
 21 20  2  0
 22 20  1  0
 23 22  1  0
 24 23  1  0
 25 24  1  0
 26 24  2  0
M  END
$$$$
