PWG.pdb
     RDKit          3D

 26 28  0  0  1  0  0  0  0  0999 V2000
   29.3158  -21.3119  -12.9493 N   0  0  0  0  0  0  0  0  0  0  0  0
   29.8395  -20.6972  -14.1572 C   0  0  0  0  0  0  0  0  0  0  0  0
   28.6467  -20.0236  -14.8155 C   0  0  0  0  0  0  0  0  0  0  0  0
   27.5179  -20.1726  -13.8222 C   0  0  0  0  0  0  0  0  0  0  0  0
   28.2654  -20.3948  -12.5218 C   0  0  1  0  0  0  0  0  0  0  0  0
   27.4035  -20.9370  -11.4665 C   0  0  0  0  0  0  0  0  0  0  0  0
   27.4977  -22.1833  -11.2303 O   0  0  0  0  0  0  0  0  0  0  0  0
   26.4776  -20.2129  -10.6833 N   0  0  0  0  0  0  0  0  0  0  0  0
   25.3527  -20.8830  -10.0184 C   0  0  1  0  0  0  0  0  0  0  0  0
   25.3179  -20.6688   -8.5709 C   0  0  0  0  0  0  0  0  0  0  0  0
   26.4083  -19.9779   -7.9041 C   0  0  0  0  0  0  0  0  0  0  0  0
   26.8847  -18.6897   -8.1842 C   0  0  0  0  0  0  0  0  0  0  0  0
   27.8696  -18.3480   -7.3463 N   0  0  0  0  0  0  0  0  0  0  0  0
   28.0606  -19.3777   -6.5160 C   0  0  0  0  0  0  0  0  0  0  0  0
   28.9716  -19.5197   -5.4916 C   0  0  0  0  0  0  0  0  0  0  0  0
   28.9928  -20.6843   -4.7934 C   0  0  0  0  0  0  0  0  0  0  0  0
   28.1446  -21.7234   -5.0671 C   0  0  0  0  0  0  0  0  0  0  0  0
   27.2402  -21.5509   -6.1012 C   0  0  0  0  0  0  0  0  0  0  0  0
   27.1649  -20.3909   -6.8508 C   0  0  0  0  0  0  0  0  0  0  0  0
   24.1267  -20.6911  -10.7593 C   0  0  0  0  0  0  0  0  0  0  0  0
   23.9196  -19.6386  -11.4039 O   0  0  0  0  0  0  0  0  0  0  0  0
   23.0771  -21.6793  -10.7976 N   0  0  0  0  0  0  0  0  0  0  0  0
   21.8590  -21.5957  -11.5125 C   0  0  0  0  0  0  0  0  0  0  0  0
   20.7790  -20.8045  -10.9175 C   0  0  0  0  0  0  0  0  0  0  0  0
   20.3815  -21.0002   -9.6135 O   0  0  0  0  0  0  0  0  0  0  0  0
   20.1937  -19.9253  -11.5910 O   0  0  0  0  0  0  0  0  0  0  0  0
  1  2  1  0
  2  3  1  0
  4  3  1  0
  5  6  1  1
  5  1  1  0
  5  4  1  0
  6  8  1  0
  7  6  2  0
  8  9  1  0
  9 10  1  1
 10 11  1  0
 11 19  1  0
 12 11  2  0
 12 13  1  0
 13 14  1  0
 14 15  1  0
 15 16  2  0
 17 16  1  0
 18 17  2  0
 19 14  2  0
 19 18  1  0
 20  9  1  0
 21 20  2  0
 22 20  1  0
 23 22  1  0
 24 23  1  0
 25 24  1  0
 26 24  2  0
M  END
$$$$
