PWG.pdb
     RDKit          3D

 26 28  0  0  1  0  0  0  0  0999 V2000
   27.2391  -18.9478  -14.2246 N   0  0  0  0  0  0  0  0  0  0  0  0
   27.9434  -18.5927  -15.4448 C   0  0  0  0  0  0  0  0  0  0  0  0
   29.2459  -19.3747  -15.3996 C   0  0  0  0  0  0  0  0  0  0  0  0
   29.1192  -20.2732  -14.1913 C   0  0  0  0  0  0  0  0  0  0  0  0
   27.6166  -20.3385  -13.9993 C   0  0  1  0  0  0  0  0  0  0  0  0
   27.2432  -20.8430  -12.6740 C   0  0  0  0  0  0  0  0  0  0  0  0
   27.4285  -22.0824  -12.4569 O   0  0  0  0  0  0  0  0  0  0  0  0
   26.6979  -20.0891  -11.6112 N   0  0  0  0  0  0  0  0  0  0  0  0
   26.2466  -20.7344  -10.3716 C   0  0  1  0  0  0  0  0  0  0  0  0
   27.2575  -20.7376   -9.3131 C   0  0  0  0  0  0  0  0  0  0  0  0
   26.8598  -20.6709   -7.9173 C   0  0  0  0  0  0  0  0  0  0  0  0
   25.6278  -21.0607   -7.3738 C   0  0  0  0  0  0  0  0  0  0  0  0
   25.6176  -20.9067   -6.0452 N   0  0  0  0  0  0  0  0  0  0  0  0
   26.8124  -20.4233   -5.6917 C   0  0  0  0  0  0  0  0  0  0  0  0
   27.2841  -20.0806   -4.4428 C   0  0  0  0  0  0  0  0  0  0  0  0
   28.5419  -19.5800   -4.3346 C   0  0  0  0  0  0  0  0  0  0  0  0
   29.3602  -19.4023   -5.4176 C   0  0  0  0  0  0  0  0  0  0  0  0
   28.8589  -19.7564   -6.6587 C   0  0  0  0  0  0  0  0  0  0  0  0
   27.5883  -20.2724   -6.8389 C   0  0  0  0  0  0  0  0  0  0  0  0
   24.9086  -20.3106  -10.0267 C   0  0  0  0  0  0  0  0  0  0  0  0
   24.6068  -19.0969   -9.9824 O   0  0  0  0  0  0  0  0  0  0  0  0
   23.8542  -21.2418   -9.7093 N   0  0  0  0  0  0  0  0  0  0  0  0
   22.4941  -20.9340   -9.4703 C   0  0  0  0  0  0  0  0  0  0  0  0
   21.6688  -20.5760  -10.6266 C   0  0  0  0  0  0  0  0  0  0  0  0
   20.5164  -21.2679  -10.9268 O   0  0  0  0  0  0  0  0  0  0  0  0
   21.9993  -19.6225  -11.3689 O   0  0  0  0  0  0  0  0  0  0  0  0
  1  2  1  0
  2  3  1  0
  4  3  1  0
  5  6  1  1
  5  1  1  0
  5  4  1  0
  6  8  1  0
  7  6  2  0
  8  9  1  0
  9 10  1  1
 10 11  1  0
 11 19  1  0
 12 11  2  0
 12 13  1  0
 13 14  1  0
 14 15  1  0
 15 16  2  0
 17 16  1  0
 18 17  2  0
 19 14  2  0
 19 18  1  0
 20  9  1  0
 21 20  2  0
 22 20  1  0
 23 22  1  0
 24 23  1  0
 25 24  1  0
 26 24  2  0
M  END
$$$$
