PWG.pdb
     RDKit          3D

 26 28  0  0  1  0  0  0  0  0999 V2000
   27.3273  -18.8161  -14.0559 N   0  0  0  0  0  0  0  0  0  0  0  0
   28.4244  -18.4963  -14.9532 C   0  0  0  0  0  0  0  0  0  0  0  0
   29.3842  -19.6703  -14.8496 C   0  0  0  0  0  0  0  0  0  0  0  0
   28.6668  -20.6854  -13.9904 C   0  0  0  0  0  0  0  0  0  0  0  0
   27.2176  -20.2676  -14.1469 C   0  0  1  0  0  0  0  0  0  0  0  0
   26.3511  -20.8584  -13.1220 C   0  0  0  0  0  0  0  0  0  0  0  0
   26.1337  -22.1089  -13.2033 O   0  0  0  0  0  0  0  0  0  0  0  0
   25.7327  -20.1770  -12.0503 N   0  0  0  0  0  0  0  0  0  0  0  0
   24.9365  -20.8961  -11.0475 C   0  0  1  0  0  0  0  0  0  0  0  0
   25.4010  -20.6897   -9.6749 C   0  0  0  0  0  0  0  0  0  0  0  0
   26.7994  -20.8892   -9.3348 C   0  0  0  0  0  0  0  0  0  0  0  0
   27.7470  -21.6201  -10.0647 C   0  0  0  0  0  0  0  0  0  0  0  0
   28.9518  -21.5579   -9.4872 N   0  0  0  0  0  0  0  0  0  0  0  0
   28.8287  -20.8041   -8.3905 C   0  0  0  0  0  0  0  0  0  0  0  0
   29.7782  -20.4606   -7.4525 C   0  0  0  0  0  0  0  0  0  0  0  0
   29.4048  -19.6935   -6.3959 C   0  0  0  0  0  0  0  0  0  0  0  0
   28.1216  -19.2479   -6.2256 C   0  0  0  0  0  0  0  0  0  0  0  0
   27.1903  -19.6085   -7.1845 C   0  0  0  0  0  0  0  0  0  0  0  0
   27.5040  -20.3859   -8.2847 C   0  0  0  0  0  0  0  0  0  0  0  0
   23.5228  -20.7523  -11.3111 C   0  0  0  0  0  0  0  0  0  0  0  0
   22.6689  -21.1178  -10.4724 O   0  0  0  0  0  0  0  0  0  0  0  0
   23.0123  -20.1948  -12.5392 N   0  0  0  0  0  0  0  0  0  0  0  0
   21.6568  -19.9445  -12.8583 C   0  0  0  0  0  0  0  0  0  0  0  0
   20.8921  -21.0373  -13.4643 C   0  0  0  0  0  0  0  0  0  0  0  0
   19.5330  -21.1530  -13.2739 O   0  0  0  0  0  0  0  0  0  0  0  0
   21.4670  -21.8932  -14.1758 O   0  0  0  0  0  0  0  0  0  0  0  0
  1  2  1  0
  2  3  1  0
  4  3  1  0
  5  6  1  1
  5  1  1  0
  5  4  1  0
  6  8  1  0
  7  6  2  0
  8  9  1  0
  9 10  1  1
 10 11  1  0
 11 19  1  0
 12 11  2  0
 12 13  1  0
 13 14  1  0
 14 15  1  0
 15 16  2  0
 17 16  1  0
 18 17  2  0
 19 14  2  0
 19 18  1  0
 20  9  1  0
 21 20  2  0
 22 20  1  0
 23 22  1  0
 24 23  1  0
 25 24  1  0
 26 24  2  0
M  END
$$$$
