PWG.pdb
     RDKit          3D

 26 28  0  0  1  0  0  0  0  0999 V2000
   27.4496  -18.8547  -14.5827 N   0  0  0  0  0  0  0  0  0  0  0  0
   28.5415  -18.5000  -15.4732 C   0  0  0  0  0  0  0  0  0  0  0  0
   29.5615  -19.6167  -15.3236 C   0  0  0  0  0  0  0  0  0  0  0  0
   28.8869  -20.6458  -14.4466 C   0  0  0  0  0  0  0  0  0  0  0  0
   27.4199  -20.3119  -14.6349 C   0  0  1  0  0  0  0  0  0  0  0  0
   26.5708  -20.9210  -13.6061 C   0  0  0  0  0  0  0  0  0  0  0  0
   26.4141  -22.1820  -13.6618 O   0  0  0  0  0  0  0  0  0  0  0  0
   25.9085  -20.2470  -12.5562 N   0  0  0  0  0  0  0  0  0  0  0  0
   25.0462  -20.9681  -11.6113 C   0  0  1  0  0  0  0  0  0  0  0  0
   25.3732  -20.7104  -10.2080 C   0  0  0  0  0  0  0  0  0  0  0  0
   26.7464  -20.8079   -9.7439 C   0  0  0  0  0  0  0  0  0  0  0  0
   27.8411  -21.3180  -10.4556 C   0  0  0  0  0  0  0  0  0  0  0  0
   28.9687  -21.2136   -9.7439 N   0  0  0  0  0  0  0  0  0  0  0  0
   28.6509  -20.6473   -8.5758 C   0  0  0  0  0  0  0  0  0  0  0  0
   29.4578  -20.3466   -7.4998 C   0  0  0  0  0  0  0  0  0  0  0  0
   28.8948  -19.7879   -6.3974 C   0  0  0  0  0  0  0  0  0  0  0  0
   27.5567  -19.5114   -6.3128 C   0  0  0  0  0  0  0  0  0  0  0  0
   26.7719  -19.8238   -7.4098 C   0  0  0  0  0  0  0  0  0  0  0  0
   27.2812  -20.3927   -8.5632 C   0  0  0  0  0  0  0  0  0  0  0  0
   23.6593  -20.8813  -12.0087 C   0  0  0  0  0  0  0  0  0  0  0  0
   23.1861  -19.8205  -12.4743 O   0  0  0  0  0  0  0  0  0  0  0  0
   22.7443  -21.9896  -11.8899 N   0  0  0  0  0  0  0  0  0  0  0  0
   21.3879  -22.0165  -12.2913 C   0  0  0  0  0  0  0  0  0  0  0  0
   20.4469  -21.1723  -11.5509 C   0  0  0  0  0  0  0  0  0  0  0  0
   20.3973  -19.8102  -11.7484 O   0  0  0  0  0  0  0  0  0  0  0  0
   19.6612  -21.6805  -10.7181 O   0  0  0  0  0  0  0  0  0  0  0  0
  1  2  1  0
  2  3  1  0
  4  3  1  0
  5  6  1  1
  5  1  1  0
  5  4  1  0
  6  8  1  0
  7  6  2  0
  8  9  1  0
  9 10  1  1
 10 11  1  0
 11 19  1  0
 12 11  2  0
 12 13  1  0
 13 14  1  0
 14 15  1  0
 15 16  2  0
 17 16  1  0
 18 17  2  0
 19 14  2  0
 19 18  1  0
 20  9  1  0
 21 20  2  0
 22 20  1  0
 23 22  1  0
 24 23  1  0
 25 24  1  0
 26 24  2  0
M  END
$$$$
