PWG.pdb
     RDKit          3D

 26 28  0  0  1  0  0  0  0  0999 V2000
   24.8526  -23.1858  -16.2891 N   0  0  0  0  0  0  0  0  0  0  0  0
   26.0395  -23.9262  -16.6816 C   0  0  0  0  0  0  0  0  0  0  0  0
   27.2095  -23.0116  -16.3582 C   0  0  0  0  0  0  0  0  0  0  0  0
   26.5964  -21.8363  -15.6330 C   0  0  0  0  0  0  0  0  0  0  0  0
   25.2910  -22.4195  -15.1282 C   0  0  1  0  0  0  0  0  0  0  0  0
   24.3394  -21.3842  -14.7122 C   0  0  0  0  0  0  0  0  0  0  0  0
   24.6432  -20.7042  -13.6811 O   0  0  0  0  0  0  0  0  0  0  0  0
   23.1167  -21.0646  -15.3432 N   0  0  0  0  0  0  0  0  0  0  0  0
   22.3471  -19.8752  -14.9564 C   0  0  1  0  0  0  0  0  0  0  0  0
   22.5098  -18.7490  -15.8772 C   0  0  0  0  0  0  0  0  0  0  0  0
   23.8089  -18.1209  -16.0471 C   0  0  0  0  0  0  0  0  0  0  0  0
   24.9397  -18.6789  -16.6593 C   0  0  0  0  0  0  0  0  0  0  0  0
   25.9530  -17.8062  -16.6850 N   0  0  0  0  0  0  0  0  0  0  0  0
   25.5240  -16.6815  -16.1043 C   0  0  0  0  0  0  0  0  0  0  0  0
   26.1993  -15.5027  -15.8725 C   0  0  0  0  0  0  0  0  0  0  0  0
   25.5518  -14.4938  -15.2344 C   0  0  0  0  0  0  0  0  0  0  0  0
   24.2541  -14.6016  -14.8120 C   0  0  0  0  0  0  0  0  0  0  0  0
   23.6017  -15.7974  -15.0598 C   0  0  0  0  0  0  0  0  0  0  0  0
   24.2017  -16.8635  -15.7052 C   0  0  0  0  0  0  0  0  0  0  0  0
   21.0046  -20.2355  -14.5605 C   0  0  0  0  0  0  0  0  0  0  0  0
   20.3392  -21.0679  -15.2165 O   0  0  0  0  0  0  0  0  0  0  0  0
   20.3526  -19.6638  -13.4081 N   0  0  0  0  0  0  0  0  0  0  0  0
   19.0435  -19.9420  -12.9492 C   0  0  0  0  0  0  0  0  0  0  0  0
   18.7900  -21.2746  -12.3959 C   0  0  0  0  0  0  0  0  0  0  0  0
   17.5607  -21.6128  -11.8754 O   0  0  0  0  0  0  0  0  0  0  0  0
   19.6962  -22.1395  -12.3887 O   0  0  0  0  0  0  0  0  0  0  0  0
  1  2  1  0
  2  3  1  0
  4  3  1  0
  5  6  1  6
  5  1  1  0
  5  4  1  0
  6  8  1  0
  7  6  2  0
  8  9  1  0
  9 10  1  6
 10 11  1  0
 11 19  1  0
 12 11  2  0
 12 13  1  0
 13 14  1  0
 14 15  1  0
 15 16  2  0
 17 16  1  0
 18 17  2  0
 19 14  2  0
 19 18  1  0
 20  9  1  0
 21 20  2  0
 22 20  1  0
 23 22  1  0
 24 23  1  0
 25 24  1  0
 26 24  2  0
M  END
$$$$
