PWG.pdb
     RDKit          3D

 26 28  0  0  1  0  0  0  0  0999 V2000
   26.5886  -19.2967  -14.7792 N   0  0  0  0  0  0  0  0  0  0  0  0
   27.2921  -18.8200  -15.9577 C   0  0  0  0  0  0  0  0  0  0  0  0
   28.7693  -18.9503  -15.6245 C   0  0  0  0  0  0  0  0  0  0  0  0
   28.8070  -19.6643  -14.2933 C   0  0  0  0  0  0  0  0  0  0  0  0
   27.4548  -20.3496  -14.2612 C   0  0  1  0  0  0  0  0  0  0  0  0
   27.0895  -20.8041  -12.9157 C   0  0  0  0  0  0  0  0  0  0  0  0
   26.8592  -22.0466  -12.7709 O   0  0  0  0  0  0  0  0  0  0  0  0
   26.9684  -19.9994  -11.7612 N   0  0  0  0  0  0  0  0  0  0  0  0
   26.4679  -20.5517  -10.4959 C   0  0  1  0  0  0  0  0  0  0  0  0
   27.3593  -20.3110   -9.3601 C   0  0  0  0  0  0  0  0  0  0  0  0
   26.8838  -20.4997   -8.0003 C   0  0  0  0  0  0  0  0  0  0  0  0
   25.6874  -21.1139   -7.6047 C   0  0  0  0  0  0  0  0  0  0  0  0
   25.5875  -21.1592   -6.2717 N   0  0  0  0  0  0  0  0  0  0  0  0
   26.6879  -20.5896   -5.7708 C   0  0  0  0  0  0  0  0  0  0  0  0
   27.0443  -20.3787   -4.4563 C   0  0  0  0  0  0  0  0  0  0  0  0
   28.2176  -19.7485   -4.1909 C   0  0  0  0  0  0  0  0  0  0  0  0
   29.0607  -19.3141   -5.1781 C   0  0  0  0  0  0  0  0  0  0  0  0
   28.6761  -19.5410   -6.4886 C   0  0  0  0  0  0  0  0  0  0  0  0
   27.4960  -20.1774   -6.8282 C   0  0  0  0  0  0  0  0  0  0  0  0
   25.0626  -20.2598  -10.3254 C   0  0  0  0  0  0  0  0  0  0  0  0
   24.6060  -19.1198  -10.5656 O   0  0  0  0  0  0  0  0  0  0  0  0
   24.1127  -21.2440   -9.8683 N   0  0  0  0  0  0  0  0  0  0  0  0
   22.9824  -21.7228  -10.5718 C   0  0  0  0  0  0  0  0  0  0  0  0
   21.9738  -20.7412  -10.9788 C   0  0  0  0  0  0  0  0  0  0  0  0
   20.9134  -20.4215  -10.1602 O   0  0  0  0  0  0  0  0  0  0  0  0
   22.0606  -20.1679  -12.0892 O   0  0  0  0  0  0  0  0  0  0  0  0
  1  2  1  0
  2  3  1  0
  4  3  1  0
  5  6  1  1
  5  1  1  0
  5  4  1  0
  6  8  1  0
  7  6  2  0
  8  9  1  0
  9 10  1  1
 10 11  1  0
 11 19  1  0
 12 11  2  0
 12 13  1  0
 13 14  1  0
 14 15  1  0
 15 16  2  0
 17 16  1  0
 18 17  2  0
 19 14  2  0
 19 18  1  0
 20  9  1  0
 21 20  2  0
 22 20  1  0
 23 22  1  0
 24 23  1  0
 25 24  1  0
 26 24  2  0
M  END
$$$$
