PWG.pdb
     RDKit          3D

 26 28  0  0  1  0  0  0  0  0999 V2000
   28.0466  -19.4664  -12.6657 N   0  0  0  0  0  0  0  0  0  0  0  0
   29.0896  -19.2681  -13.6576 C   0  0  0  0  0  0  0  0  0  0  0  0
   30.2064  -20.2205  -13.2629 C   0  0  0  0  0  0  0  0  0  0  0  0
   29.6383  -21.0370  -12.1255 C   0  0  0  0  0  0  0  0  0  0  0  0
   28.1449  -20.8843  -12.3388 C   0  0  1  0  0  0  0  0  0  0  0  0
   27.3683  -21.2716  -11.1567 C   0  0  0  0  0  0  0  0  0  0  0  0
   27.3404  -22.5098  -10.8668 O   0  0  0  0  0  0  0  0  0  0  0  0
   26.6470  -20.4060  -10.3049 N   0  0  0  0  0  0  0  0  0  0  0  0
   25.5131  -20.8911   -9.5077 C   0  0  1  0  0  0  0  0  0  0  0  0
   25.8129  -21.0153   -8.0804 C   0  0  0  0  0  0  0  0  0  0  0  0
   26.7247  -20.0846   -7.4375 C   0  0  0  0  0  0  0  0  0  0  0  0
   26.9672  -18.7540   -7.8061 C   0  0  0  0  0  0  0  0  0  0  0  0
   27.8319  -18.1724   -6.9678 N   0  0  0  0  0  0  0  0  0  0  0  0
   28.1712  -19.0837   -6.0509 C   0  0  0  0  0  0  0  0  0  0  0  0
   29.0441  -18.9759   -4.9898 C   0  0  0  0  0  0  0  0  0  0  0  0
   29.2477  -20.0610   -4.1990 C   0  0  0  0  0  0  0  0  0  0  0  0
   28.6198  -21.2583   -4.4143 C   0  0  0  0  0  0  0  0  0  0  0  0
   27.7482  -21.3357   -5.4872 C   0  0  0  0  0  0  0  0  0  0  0  0
   27.4947  -20.2691   -6.3306 C   0  0  0  0  0  0  0  0  0  0  0  0
   24.2913  -20.2176   -9.8852 C   0  0  0  0  0  0  0  0  0  0  0  0
   24.1498  -18.9873   -9.7051 O   0  0  0  0  0  0  0  0  0  0  0  0
   23.1721  -20.9084  -10.4769 N   0  0  0  0  0  0  0  0  0  0  0  0
   21.9581  -20.3326  -10.9201 C   0  0  0  0  0  0  0  0  0  0  0  0
   20.9120  -21.2422  -11.3940 C   0  0  0  0  0  0  0  0  0  0  0  0
   19.5841  -20.8772  -11.3799 O   0  0  0  0  0  0  0  0  0  0  0  0
   21.2106  -22.3791  -11.8271 O   0  0  0  0  0  0  0  0  0  0  0  0
  1  2  1  0
  2  3  1  0
  4  3  1  0
  5  6  1  1
  5  1  1  0
  5  4  1  0
  6  8  1  0
  7  6  2  0
  8  9  1  0
  9 10  1  1
 10 11  1  0
 11 19  1  0
 12 11  2  0
 12 13  1  0
 13 14  1  0
 14 15  1  0
 15 16  2  0
 17 16  1  0
 18 17  2  0
 19 14  2  0
 19 18  1  0
 20  9  1  0
 21 20  2  0
 22 20  1  0
 23 22  1  0
 24 23  1  0
 25 24  1  0
 26 24  2  0
M  END
$$$$
