PWG.pdb
     RDKit          3D

 26 28  0  0  1  0  0  0  0  0999 V2000
   28.6589  -21.5353  -11.7385 N   0  0  0  0  0  0  0  0  0  0  0  0
   29.9163  -21.7599  -11.0461 C   0  0  0  0  0  0  0  0  0  0  0  0
   29.9138  -20.7842   -9.8808 C   0  0  0  0  0  0  0  0  0  0  0  0
   28.5381  -20.1595   -9.8987 C   0  0  0  0  0  0  0  0  0  0  0  0
   27.7315  -21.1876  -10.6679 C   0  0  1  0  0  0  0  0  0  0  0  0
   26.4532  -20.6519  -11.1466 C   0  0  0  0  0  0  0  0  0  0  0  0
   26.1013  -19.5151  -10.6975 O   0  0  0  0  0  0  0  0  0  0  0  0
   25.5714  -21.2722  -12.0592 N   0  0  0  0  0  0  0  0  0  0  0  0
   24.4583  -20.5318  -12.6671 C   0  0  1  0  0  0  0  0  0  0  0  0
   24.6264  -20.2985  -14.1023 C   0  0  0  0  0  0  0  0  0  0  0  0
   25.8787  -19.7740  -14.6195 C   0  0  0  0  0  0  0  0  0  0  0  0
   27.0250  -20.5087  -14.9530 C   0  0  0  0  0  0  0  0  0  0  0  0
   27.9808  -19.7127  -15.4444 N   0  0  0  0  0  0  0  0  0  0  0  0
   27.4988  -18.4661  -15.4452 C   0  0  0  0  0  0  0  0  0  0  0  0
   28.1055  -17.2925  -15.8375 C   0  0  0  0  0  0  0  0  0  0  0  0
   27.4142  -16.1294  -15.7212 C   0  0  0  0  0  0  0  0  0  0  0  0
   26.1378  -16.0766  -15.2293 C   0  0  0  0  0  0  0  0  0  0  0  0
   25.5545  -17.2718  -14.8442 C   0  0  0  0  0  0  0  0  0  0  0  0
   26.2017  -18.4906  -14.9372 C   0  0  0  0  0  0  0  0  0  0  0  0
   23.1867  -21.0451  -12.2106 C   0  0  0  0  0  0  0  0  0  0  0  0
   23.0383  -22.2586  -11.9435 O   0  0  0  0  0  0  0  0  0  0  0  0
   22.0240  -20.2085  -12.0429 N   0  0  0  0  0  0  0  0  0  0  0  0
   20.8151  -20.2798  -12.7744 C   0  0  0  0  0  0  0  0  0  0  0  0
   20.0496  -21.5264  -12.6952 C   0  0  0  0  0  0  0  0  0  0  0  0
   20.4882  -22.6774  -13.3114 O   0  0  0  0  0  0  0  0  0  0  0  0
   18.9726  -21.5681  -12.0568 O   0  0  0  0  0  0  0  0  0  0  0  0
  1  2  1  0
  2  3  1  0
  4  3  1  0
  5  6  1  6
  5  1  1  0
  5  4  1  0
  6  8  1  0
  7  6  2  0
  8  9  1  0
  9 10  1  6
 10 11  1  0
 11 19  1  0
 12 11  2  0
 12 13  1  0
 13 14  1  0
 14 15  1  0
 15 16  2  0
 17 16  1  0
 18 17  2  0
 19 14  2  0
 19 18  1  0
 20  9  1  0
 21 20  2  0
 22 20  1  0
 23 22  1  0
 24 23  1  0
 25 24  1  0
 26 24  2  0
M  END
$$$$
