PWG.pdb
     RDKit          3D

 26 28  0  0  1  0  0  0  0  0999 V2000
   26.6405  -18.7393  -15.5094 N   0  0  0  0  0  0  0  0  0  0  0  0
   27.4730  -17.7943  -16.2340 C   0  0  0  0  0  0  0  0  0  0  0  0
   28.6801  -17.5552  -15.3418 C   0  0  0  0  0  0  0  0  0  0  0  0
   28.5224  -18.5348  -14.2022 C   0  0  0  0  0  0  0  0  0  0  0  0
   27.6026  -19.5788  -14.8048 C   0  0  1  0  0  0  0  0  0  0  0  0
   26.9960  -20.4440  -13.7879 C   0  0  0  0  0  0  0  0  0  0  0  0
   27.7906  -21.0902  -13.0338 O   0  0  0  0  0  0  0  0  0  0  0  0
   25.6146  -20.6318  -13.5604 N   0  0  0  0  0  0  0  0  0  0  0  0
   25.0956  -20.9225  -12.2177 C   0  0  1  0  0  0  0  0  0  0  0  0
   25.6915  -20.0935  -11.1688 C   0  0  0  0  0  0  0  0  0  0  0  0
   26.8793  -20.5430  -10.4631 C   0  0  0  0  0  0  0  0  0  0  0  0
   27.9131  -21.3380  -10.9771 C   0  0  0  0  0  0  0  0  0  0  0  0
   28.8756  -21.5234  -10.0671 N   0  0  0  0  0  0  0  0  0  0  0  0
   28.5070  -20.8717   -8.9600 C   0  0  0  0  0  0  0  0  0  0  0  0
   29.1499  -20.7761   -7.7447 C   0  0  0  0  0  0  0  0  0  0  0  0
   28.5595  -20.0681   -6.7475 C   0  0  0  0  0  0  0  0  0  0  0  0
   27.3502  -19.4453   -6.9018 C   0  0  0  0  0  0  0  0  0  0  0  0
   26.7290  -19.5584   -8.1340 C   0  0  0  0  0  0  0  0  0  0  0  0
   27.2754  -20.2629   -9.1915 C   0  0  0  0  0  0  0  0  0  0  0  0
   23.6566  -21.0549  -12.2382 C   0  0  0  0  0  0  0  0  0  0  0  0
   22.9289  -20.1308  -12.6653 O   0  0  0  0  0  0  0  0  0  0  0  0
   22.9766  -22.2370  -11.7691 N   0  0  0  0  0  0  0  0  0  0  0  0
   21.5864  -22.4943  -11.8249 C   0  0  0  0  0  0  0  0  0  0  0  0
   20.6842  -21.4372  -11.3617 C   0  0  0  0  0  0  0  0  0  0  0  0
   20.9403  -20.7309  -10.2073 O   0  0  0  0  0  0  0  0  0  0  0  0
   19.6544  -21.1526  -12.0157 O   0  0  0  0  0  0  0  0  0  0  0  0
  1  2  1  0
  2  3  1  0
  4  3  1  0
  5  6  1  1
  5  1  1  0
  5  4  1  0
  6  8  1  0
  7  6  2  0
  8  9  1  0
  9 10  1  1
 10 11  1  0
 11 19  1  0
 12 11  2  0
 12 13  1  0
 13 14  1  0
 14 15  1  0
 15 16  2  0
 17 16  1  0
 18 17  2  0
 19 14  2  0
 19 18  1  0
 20  9  1  0
 21 20  2  0
 22 20  1  0
 23 22  1  0
 24 23  1  0
 25 24  1  0
 26 24  2  0
M  END
$$$$
