PWG.pdb
     RDKit          3D

 26 28  0  0  1  0  0  0  0  0999 V2000
   27.3565  -19.5833  -14.6034 N   0  0  0  0  0  0  0  0  0  0  0  0
   28.1772  -19.5977  -15.8022 C   0  0  0  0  0  0  0  0  0  0  0  0
   29.1897  -20.7100  -15.5832 C   0  0  0  0  0  0  0  0  0  0  0  0
   28.7613  -21.3794  -14.2981 C   0  0  0  0  0  0  0  0  0  0  0  0
   27.3000  -20.9854  -14.2057 C   0  0  1  0  0  0  0  0  0  0  0  0
   26.7476  -21.1953  -12.8636 C   0  0  0  0  0  0  0  0  0  0  0  0
   25.8260  -22.0645  -12.7501 O   0  0  0  0  0  0  0  0  0  0  0  0
   27.1374  -20.5284  -11.6810 N   0  0  0  0  0  0  0  0  0  0  0  0
   26.4942  -20.8205  -10.3935 C   0  0  1  0  0  0  0  0  0  0  0  0
   27.4342  -20.8928   -9.2738 C   0  0  0  0  0  0  0  0  0  0  0  0
   26.9577  -20.7777   -7.9061 C   0  0  0  0  0  0  0  0  0  0  0  0
   25.7175  -21.2012   -7.4086 C   0  0  0  0  0  0  0  0  0  0  0  0
   25.6271  -20.9830   -6.0921 N   0  0  0  0  0  0  0  0  0  0  0  0
   26.7766  -20.4239   -5.7018 C   0  0  0  0  0  0  0  0  0  0  0  0
   27.1624  -19.9973   -4.4493 C   0  0  0  0  0  0  0  0  0  0  0  0
   28.3874  -19.4301   -4.3013 C   0  0  0  0  0  0  0  0  0  0  0  0
   29.2546  -19.2651   -5.3476 C   0  0  0  0  0  0  0  0  0  0  0  0
   28.8394  -19.7041   -6.5934 C   0  0  0  0  0  0  0  0  0  0  0  0
   27.6064  -20.2910   -6.8131 C   0  0  0  0  0  0  0  0  0  0  0  0
   25.2989  -20.0264  -10.2219 C   0  0  0  0  0  0  0  0  0  0  0  0
   25.3660  -18.8212   -9.8918 O   0  0  0  0  0  0  0  0  0  0  0  0
   23.9736  -20.5634  -10.4093 N   0  0  0  0  0  0  0  0  0  0  0  0
   22.7639  -19.8327  -10.4755 C   0  0  0  0  0  0  0  0  0  0  0  0
   21.5231  -20.5933  -10.6431 C   0  0  0  0  0  0  0  0  0  0  0  0
   20.3399  -20.1679  -10.0809 O   0  0  0  0  0  0  0  0  0  0  0  0
   21.5161  -21.6539  -11.3096 O   0  0  0  0  0  0  0  0  0  0  0  0
  1  2  1  0
  2  3  1  0
  4  3  1  0
  5  6  1  1
  5  1  1  0
  5  4  1  0
  6  8  1  0
  7  6  2  0
  8  9  1  0
  9 10  1  1
 10 11  1  0
 11 19  1  0
 12 11  2  0
 12 13  1  0
 13 14  1  0
 14 15  1  0
 15 16  2  0
 17 16  1  0
 18 17  2  0
 19 14  2  0
 19 18  1  0
 20  9  1  0
 21 20  2  0
 22 20  1  0
 23 22  1  0
 24 23  1  0
 25 24  1  0
 26 24  2  0
M  END
$$$$
