PWG.pdb
     RDKit          3D

 26 28  0  0  1  0  0  0  0  0999 V2000
   27.2188  -18.8211  -14.4605 N   0  0  0  0  0  0  0  0  0  0  0  0
   28.2901  -18.4967  -15.3869 C   0  0  0  0  0  0  0  0  0  0  0  0
   29.3030  -19.6203  -15.2400 C   0  0  0  0  0  0  0  0  0  0  0  0
   28.6420  -20.6234  -14.3235 C   0  0  0  0  0  0  0  0  0  0  0  0
   27.1738  -20.2788  -14.4803 C   0  0  1  0  0  0  0  0  0  0  0  0
   26.3465  -20.8571  -13.4166 C   0  0  0  0  0  0  0  0  0  0  0  0
   26.2247  -22.1231  -13.4062 O   0  0  0  0  0  0  0  0  0  0  0  0
   25.6702  -20.1481  -12.3991 N   0  0  0  0  0  0  0  0  0  0  0  0
   24.8647  -20.8466  -11.3892 C   0  0  1  0  0  0  0  0  0  0  0  0
   25.3182  -20.6142  -10.0170 C   0  0  0  0  0  0  0  0  0  0  0  0
   26.7081  -20.8340   -9.6556 C   0  0  0  0  0  0  0  0  0  0  0  0
   27.6800  -21.5000  -10.4152 C   0  0  0  0  0  0  0  0  0  0  0  0
   28.8683  -21.4787   -9.8016 N   0  0  0  0  0  0  0  0  0  0  0  0
   28.7105  -20.8156   -8.6520 C   0  0  0  0  0  0  0  0  0  0  0  0
   29.6320  -20.5439   -7.6639 C   0  0  0  0  0  0  0  0  0  0  0  0
   29.2250  -19.8654   -6.5601 C   0  0  0  0  0  0  0  0  0  0  0  0
   27.9348  -19.4405   -6.3901 C   0  0  0  0  0  0  0  0  0  0  0  0
   27.0322  -19.7275   -7.4001 C   0  0  0  0  0  0  0  0  0  0  0  0
   27.3807  -20.4131   -8.5497 C   0  0  0  0  0  0  0  0  0  0  0  0
   23.4534  -20.7060  -11.6671 C   0  0  0  0  0  0  0  0  0  0  0  0
   22.9689  -19.6037  -12.0079 O   0  0  0  0  0  0  0  0  0  0  0  0
   22.5261  -21.8058  -11.5645 N   0  0  0  0  0  0  0  0  0  0  0  0
   21.1189  -21.7440  -11.6976 C   0  0  0  0  0  0  0  0  0  0  0  0
   20.5408  -22.1771  -12.9721 C   0  0  0  0  0  0  0  0  0  0  0  0
   19.1797  -22.1675  -13.1821 O   0  0  0  0  0  0  0  0  0  0  0  0
   21.2825  -22.5657  -13.9038 O   0  0  0  0  0  0  0  0  0  0  0  0
  1  2  1  0
  2  3  1  0
  4  3  1  0
  5  6  1  1
  5  1  1  0
  5  4  1  0
  6  8  1  0
  7  6  2  0
  8  9  1  0
  9 10  1  1
 10 11  1  0
 11 19  1  0
 12 11  2  0
 12 13  1  0
 13 14  1  0
 14 15  1  0
 15 16  2  0
 17 16  1  0
 18 17  2  0
 19 14  2  0
 19 18  1  0
 20  9  1  0
 21 20  2  0
 22 20  1  0
 23 22  1  0
 24 23  1  0
 25 24  1  0
 26 24  2  0
M  END
$$$$
