PWG.pdb
     RDKit          3D

 26 28  0  0  1  0  0  0  0  0999 V2000
   27.4860  -18.7606  -13.5242 N   0  0  0  0  0  0  0  0  0  0  0  0
   28.0290  -18.2191  -14.7583 C   0  0  0  0  0  0  0  0  0  0  0  0
   29.1248  -19.1866  -15.1744 C   0  0  0  0  0  0  0  0  0  0  0  0
   29.0208  -20.3360  -14.1990 C   0  0  0  0  0  0  0  0  0  0  0  0
   27.5941  -20.2041  -13.7026 C   0  0  1  0  0  0  0  0  0  0  0  0
   27.3560  -20.9690  -12.4744 C   0  0  0  0  0  0  0  0  0  0  0  0
   27.3270  -22.2360  -12.5820 O   0  0  0  0  0  0  0  0  0  0  0  0
   27.1560  -20.4392  -11.1803 N   0  0  0  0  0  0  0  0  0  0  0  0
   26.3630  -21.1593  -10.1758 C   0  0  1  0  0  0  0  0  0  0  0  0
   27.1041  -21.4555   -8.9488 C   0  0  0  0  0  0  0  0  0  0  0  0
   27.2911  -20.4291   -7.9376 C   0  0  0  0  0  0  0  0  0  0  0  0
   26.8309  -19.1060   -7.9865 C   0  0  0  0  0  0  0  0  0  0  0  0
   27.1402  -18.4471   -6.8644 N   0  0  0  0  0  0  0  0  0  0  0  0
   27.7956  -19.2994   -6.0705 C   0  0  0  0  0  0  0  0  0  0  0  0
   28.3366  -19.0922   -4.8199 C   0  0  0  0  0  0  0  0  0  0  0  0
   28.9868  -20.1177   -4.2117 C   0  0  0  0  0  0  0  0  0  0  0  0
   29.1262  -21.3497   -4.7921 C   0  0  0  0  0  0  0  0  0  0  0  0
   28.5716  -21.5277   -6.0481 C   0  0  0  0  0  0  0  0  0  0  0  0
   27.8960  -20.5266   -6.7223 C   0  0  0  0  0  0  0  0  0  0  0  0
   25.0455  -20.5795  -10.0459 C   0  0  0  0  0  0  0  0  0  0  0  0
   24.8615  -19.3519  -10.2045 O   0  0  0  0  0  0  0  0  0  0  0  0
   23.8783  -21.3628   -9.7233 N   0  0  0  0  0  0  0  0  0  0  0  0
   22.5611  -20.8829   -9.5319 C   0  0  0  0  0  0  0  0  0  0  0  0
   21.7320  -20.6902  -10.7242 C   0  0  0  0  0  0  0  0  0  0  0  0
   20.4372  -20.2303  -10.6303 O   0  0  0  0  0  0  0  0  0  0  0  0
   22.1920  -20.9408  -11.8621 O   0  0  0  0  0  0  0  0  0  0  0  0
  1  2  1  0
  2  3  1  0
  4  3  1  0
  5  6  1  1
  5  1  1  0
  5  4  1  0
  6  8  1  0
  7  6  2  0
  8  9  1  0
  9 10  1  1
 10 11  1  0
 11 19  1  0
 12 11  2  0
 12 13  1  0
 13 14  1  0
 14 15  1  0
 15 16  2  0
 17 16  1  0
 18 17  2  0
 19 14  2  0
 19 18  1  0
 20  9  1  0
 21 20  2  0
 22 20  1  0
 23 22  1  0
 24 23  1  0
 25 24  1  0
 26 24  2  0
M  END
$$$$
