PWG.pdb
     RDKit          3D

 26 28  0  0  1  0  0  0  0  0999 V2000
   28.5860  -19.7919  -12.3646 N   0  0  0  0  0  0  0  0  0  0  0  0
   29.8522  -19.7133  -13.0728 C   0  0  0  0  0  0  0  0  0  0  0  0
   30.8274  -20.5345  -12.2454 C   0  0  0  0  0  0  0  0  0  0  0  0
   29.9820  -21.1760  -11.1698 C   0  0  0  0  0  0  0  0  0  0  0  0
   28.5965  -21.1298  -11.7841 C   0  0  1  0  0  0  0  0  0  0  0  0
   27.5376  -21.3507  -10.7939 C   0  0  0  0  0  0  0  0  0  0  0  0
   27.5130  -22.4861  -10.2213 O   0  0  0  0  0  0  0  0  0  0  0  0
   26.5403  -20.4269  -10.4102 N   0  0  0  0  0  0  0  0  0  0  0  0
   25.3696  -20.8487   -9.6305 C   0  0  1  0  0  0  0  0  0  0  0  0
   25.2750  -20.2006   -8.3215 C   0  0  0  0  0  0  0  0  0  0  0  0
   26.4717  -19.7236   -7.6497 C   0  0  0  0  0  0  0  0  0  0  0  0
   27.1928  -18.5577   -7.9421 C   0  0  0  0  0  0  0  0  0  0  0  0
   28.2162  -18.3997   -7.0955 N   0  0  0  0  0  0  0  0  0  0  0  0
   28.1939  -19.4325   -6.2475 C   0  0  0  0  0  0  0  0  0  0  0  0
   29.0485  -19.7313   -5.2083 C   0  0  0  0  0  0  0  0  0  0  0  0
   28.8348  -20.8655   -4.4927 C   0  0  0  0  0  0  0  0  0  0  0  0
   27.8036  -21.7244   -4.7630 C   0  0  0  0  0  0  0  0  0  0  0  0
   26.9614  -21.3971   -5.8122 C   0  0  0  0  0  0  0  0  0  0  0  0
   27.1217  -20.2577   -6.5798 C   0  0  0  0  0  0  0  0  0  0  0  0
   24.1838  -20.8801  -10.4560 C   0  0  0  0  0  0  0  0  0  0  0  0
   24.1464  -20.2843  -11.5558 O   0  0  0  0  0  0  0  0  0  0  0  0
   22.9844  -21.5817  -10.0698 N   0  0  0  0  0  0  0  0  0  0  0  0
   21.7613  -21.6252  -10.7797 C   0  0  0  0  0  0  0  0  0  0  0  0
   21.1058  -20.3489  -11.0759 C   0  0  0  0  0  0  0  0  0  0  0  0
   20.6290  -20.0632  -12.3360 O   0  0  0  0  0  0  0  0  0  0  0  0
   20.9641  -19.4870  -10.1779 O   0  0  0  0  0  0  0  0  0  0  0  0
  1  2  1  0
  2  3  1  0
  4  3  1  0
  5  6  1  1
  5  1  1  0
  5  4  1  0
  6  8  1  0
  7  6  2  0
  8  9  1  0
  9 10  1  1
 10 11  1  0
 11 19  1  0
 12 11  2  0
 12 13  1  0
 13 14  1  0
 14 15  1  0
 15 16  2  0
 17 16  1  0
 18 17  2  0
 19 14  2  0
 19 18  1  0
 20  9  1  0
 21 20  2  0
 22 20  1  0
 23 22  1  0
 24 23  1  0
 25 24  1  0
 26 24  2  0
M  END
$$$$
