PWG.pdb
     RDKit          3D

 26 28  0  0  1  0  0  0  0  0999 V2000
   29.9474  -21.1721  -11.4890 N   0  0  0  0  0  0  0  0  0  0  0  0
   31.3528  -21.5281  -11.5852 C   0  0  0  0  0  0  0  0  0  0  0  0
   31.7025  -22.1518  -10.2440 C   0  0  0  0  0  0  0  0  0  0  0  0
   30.3872  -22.2551   -9.5075 C   0  0  0  0  0  0  0  0  0  0  0  0
   29.3828  -22.2173  -10.6428 C   0  0  1  0  0  0  0  0  0  0  0  0
   28.0227  -21.9277  -10.1773 C   0  0  0  0  0  0  0  0  0  0  0  0
   27.4535  -22.8203   -9.4723 O   0  0  0  0  0  0  0  0  0  0  0  0
   27.2794  -20.7540  -10.4327 N   0  0  0  0  0  0  0  0  0  0  0  0
   25.9642  -20.5353   -9.8172 C   0  0  1  0  0  0  0  0  0  0  0  0
   26.0137  -19.7072   -8.6113 C   0  0  0  0  0  0  0  0  0  0  0  0
   26.3722  -20.2939   -7.3315 C   0  0  0  0  0  0  0  0  0  0  0  0
   25.7954  -21.4221   -6.7319 C   0  0  0  0  0  0  0  0  0  0  0  0
   26.3991  -21.7137   -5.5746 N   0  0  0  0  0  0  0  0  0  0  0  0
   27.3629  -20.8066   -5.3891 C   0  0  0  0  0  0  0  0  0  0  0  0
   28.2463  -20.6689   -4.3403 C   0  0  0  0  0  0  0  0  0  0  0  0
   29.1318  -19.6395   -4.3631 C   0  0  0  0  0  0  0  0  0  0  0  0
   29.1815  -18.7326   -5.3874 C   0  0  0  0  0  0  0  0  0  0  0  0
   28.2823  -18.8973   -6.4272 C   0  0  0  0  0  0  0  0  0  0  0  0
   27.3559  -19.9236   -6.4668 C   0  0  0  0  0  0  0  0  0  0  0  0
   24.9732  -20.2121  -10.8184 C   0  0  0  0  0  0  0  0  0  0  0  0
   24.5659  -19.0384  -10.9687 O   0  0  0  0  0  0  0  0  0  0  0  0
   24.3936  -21.2047  -11.6895 N   0  0  0  0  0  0  0  0  0  0  0  0
   23.4791  -20.9771  -12.7447 C   0  0  0  0  0  0  0  0  0  0  0  0
   22.0554  -20.9180  -12.4045 C   0  0  0  0  0  0  0  0  0  0  0  0
   21.0960  -20.7039  -13.3691 O   0  0  0  0  0  0  0  0  0  0  0  0
   21.6818  -21.0651  -11.2178 O   0  0  0  0  0  0  0  0  0  0  0  0
  1  2  1  0
  2  3  1  0
  4  3  1  0
  5  6  1  1
  5  1  1  0
  5  4  1  0
  6  8  1  0
  7  6  2  0
  8  9  1  0
  9 10  1  1
 10 11  1  0
 11 19  1  0
 12 11  2  0
 12 13  1  0
 13 14  1  0
 14 15  1  0
 15 16  2  0
 17 16  1  0
 18 17  2  0
 19 14  2  0
 19 18  1  0
 20  9  1  0
 21 20  2  0
 22 20  1  0
 23 22  1  0
 24 23  1  0
 25 24  1  0
 26 24  2  0
M  END
$$$$
