QTQ.pdb
     RDKit          3D

 26 25  0  0  1  0  0  0  0  0999 V2000
    7.9146  -13.3202   15.6398 N   0  0  0  0  0  0  0  0  0  0  0  0
    8.5724  -14.5158   15.2476 C   0  0  0  0  0  0  0  0  0  0  0  0
    8.8352  -14.7806   14.0621 O   0  0  0  0  0  0  0  0  0  0  0  0
    8.9482  -15.4714   16.3403 C   0  0  0  0  0  0  0  0  0  0  0  0
    9.6940  -14.7048   17.3784 C   0  0  0  0  0  0  0  0  0  0  0  0
   10.1818  -15.5292   18.5497 C   0  0  2  0  0  0  0  0  0  0  0  0
    9.4349  -16.8021   18.4281 N   0  0  0  0  0  0  0  0  0  0  0  0
    9.8237  -14.9608   19.8667 C   0  0  0  0  0  0  0  0  0  0  0  0
   10.2283  -13.8079   20.1604 O   0  0  0  0  0  0  0  0  0  0  0  0
    6.7440  -14.6063   23.5505 C   0  0  0  0  0  0  0  0  0  0  0  0
    7.1872  -15.3324   22.2989 C   0  0  1  0  0  0  0  0  0  0  0  0
    6.4407  -14.9964   21.1974 O   0  0  0  0  0  0  0  0  0  0  0  0
    8.6788  -15.0136   22.1247 C   0  0  2  0  0  0  0  0  0  0  0  0
    9.0461  -15.6097   20.8524 N   0  0  0  0  0  0  0  0  0  0  0  0
    9.3930  -15.6646   23.2511 C   0  0  0  0  0  0  0  0  0  0  0  0
   10.1707  -16.6505   23.0672 O   0  0  0  0  0  0  0  0  0  0  0  0
   10.0632  -13.1975   28.9954 N   0  0  0  0  0  0  0  0  0  0  0  0
   10.6535  -14.4526   29.1738 C   0  0  0  0  0  0  0  0  0  0  0  0
   11.1461  -14.7799   30.2683 O   0  0  0  0  0  0  0  0  0  0  0  0
   10.6913  -15.4154   28.0267 C   0  0  0  0  0  0  0  0  0  0  0  0
   10.0148  -14.8119   26.8243 C   0  0  0  0  0  0  0  0  0  0  0  0
   10.0271  -15.7765   25.6811 C   0  0  2  0  0  0  0  0  0  0  0  0
    9.2279  -15.2052   24.5624 N   0  0  0  0  0  0  0  0  0  0  0  0
    9.4891  -17.1137   25.9861 C   0  0  0  0  0  0  0  0  0  0  0  0
   10.1804  -18.0587   26.3833 O   0  0  0  0  0  0  0  0  0  0  0  0
    8.1242  -17.3529   25.8255 O   0  0  0  0  0  0  0  0  0  0  0  0
  1  2  1  0
  2  3  2  0
  2  4  1  0
  4  5  1  0
  5  6  1  0
  6  8  1  0
  6  7  1  6
  8 14  1  0
  9  8  2  0
 11 10  1  1
 11 12  1  0
 13 11  1  0
 13 14  1  6
 15 16  2  0
 15 13  1  0
 17 18  1  0
 18 19  2  0
 20 18  1  0
 20 21  1  0
 22 21  1  1
 22 23  1  0
 23 15  1  0
 24 22  1  0
 25 24  2  0
 26 24  1  0
M  END
$$$$
