QTQ.pdb
     RDKit          3D

 26 25  0  0  1  0  0  0  0  0999 V2000
    8.6957  -14.8608   15.7815 N   0  0  0  0  0  0  0  0  0  0  0  0
    9.3464  -16.1065   15.5797 C   0  0  0  0  0  0  0  0  0  0  0  0
    9.8494  -16.4336   14.4912 O   0  0  0  0  0  0  0  0  0  0  0  0
    9.4071  -17.0367   16.7542 C   0  0  0  0  0  0  0  0  0  0  0  0
   10.1778  -16.3567   17.8336 C   0  0  0  0  0  0  0  0  0  0  0  0
    9.8784  -16.8461   19.2337 C   0  0  2  0  0  0  0  0  0  0  0  0
    8.5555  -17.4998   19.1098 N   0  0  0  0  0  0  0  0  0  0  0  0
    9.7141  -15.7580   20.2212 C   0  0  0  0  0  0  0  0  0  0  0  0
   10.6972  -15.0189   20.4790 O   0  0  0  0  0  0  0  0  0  0  0  0
    7.2961  -13.0102   19.9975 C   0  0  0  0  0  0  0  0  0  0  0  0
    7.0187  -13.6740   21.3290 C   0  0  1  0  0  0  0  0  0  0  0  0
    5.9937  -14.5843   21.2654 O   0  0  0  0  0  0  0  0  0  0  0  0
    8.3449  -14.3038   21.7776 C   0  0  2  0  0  0  0  0  0  0  0  0
    8.5219  -15.4623   20.9200 N   0  0  0  0  0  0  0  0  0  0  0  0
    8.1734  -14.7046   23.1963 C   0  0  0  0  0  0  0  0  0  0  0  0
    8.1097  -13.8462   24.1289 O   0  0  0  0  0  0  0  0  0  0  0  0
    5.3842  -19.8225   24.8591 N   0  0  0  0  0  0  0  0  0  0  0  0
    6.7402  -20.0654   25.0997 C   0  0  0  0  0  0  0  0  0  0  0  0
    7.1711  -21.2255   25.2273 O   0  0  0  0  0  0  0  0  0  0  0  0
    7.6856  -18.9080   25.2047 C   0  0  0  0  0  0  0  0  0  0  0  0
    6.9383  -17.6135   25.0222 C   0  0  0  0  0  0  0  0  0  0  0  0
    7.8936  -16.4636   24.9703 C   0  0  2  0  0  0  0  0  0  0  0  0
    8.0759  -16.0548   23.5503 N   0  0  0  0  0  0  0  0  0  0  0  0
    9.2257  -16.7318   25.5396 C   0  0  0  0  0  0  0  0  0  0  0  0
    9.4431  -16.8595   26.7501 O   0  0  0  0  0  0  0  0  0  0  0  0
   10.3213  -16.8531   24.6846 O   0  0  0  0  0  0  0  0  0  0  0  0
  1  2  1  0
  2  3  2  0
  2  4  1  0
  4  5  1  0
  5  6  1  0
  6  8  1  0
  6  7  1  6
  8 14  1  0
  9  8  2  0
 11 10  1  6
 11 12  1  0
 13 11  1  0
 13 14  1  6
 15 16  2  0
 15 13  1  0
 17 18  1  0
 18 19  2  0
 20 18  1  0
 20 21  1  0
 22 21  1  6
 22 23  1  0
 23 15  1  0
 24 22  1  0
 25 24  2  0
 26 24  1  0
M  END
$$$$
