QTQ.pdb
     RDKit          3D

 26 25  0  0  1  0  0  0  0  0999 V2000
    7.5822  -12.5156   18.6003 N   0  0  0  0  0  0  0  0  0  0  0  0
    7.7086  -13.1624   19.8580 C   0  0  0  0  0  0  0  0  0  0  0  0
    7.9503  -12.5458   20.9097 O   0  0  0  0  0  0  0  0  0  0  0  0
    7.5362  -14.6519   19.8736 C   0  0  0  0  0  0  0  0  0  0  0  0
    7.2308  -15.0890   18.4818 C   0  0  0  0  0  0  0  0  0  0  0  0
    7.0283  -16.5790   18.3133 C   0  0  2  0  0  0  0  0  0  0  0  0
    5.8814  -16.8874   19.1978 N   0  0  0  0  0  0  0  0  0  0  0  0
    8.1619  -17.3921   18.8031 C   0  0  0  0  0  0  0  0  0  0  0  0
    7.9576  -18.2295   19.7175 O   0  0  0  0  0  0  0  0  0  0  0  0
   12.4316  -19.5340   18.1800 C   0  0  0  0  0  0  0  0  0  0  0  0
   11.3025  -18.6823   17.6412 C   0  0  1  0  0  0  0  0  0  0  0  0
   10.4484  -19.3848   16.8285 O   0  0  0  0  0  0  0  0  0  0  0  0
   10.5974  -18.0821   18.8657 C   0  0  2  0  0  0  0  0  0  0  0  0
    9.4895  -17.3147   18.3248 N   0  0  0  0  0  0  0  0  0  0  0  0
   11.5829  -17.2023   19.5422 C   0  0  0  0  0  0  0  0  0  0  0  0
   11.5578  -15.9412   19.4021 O   0  0  0  0  0  0  0  0  0  0  0  0
   15.2980  -13.6133   18.8100 N   0  0  0  0  0  0  0  0  0  0  0  0
   15.7498  -14.1963   19.9982 C   0  0  0  0  0  0  0  0  0  0  0  0
   16.9653  -14.2806   20.2494 O   0  0  0  0  0  0  0  0  0  0  0  0
   14.7514  -14.7265   20.9813 C   0  0  0  0  0  0  0  0  0  0  0  0
   13.7706  -15.6312   20.2833 C   0  0  0  0  0  0  0  0  0  0  0  0
   13.5300  -16.8639   21.0957 C   0  0  2  0  0  0  0  0  0  0  0  0
   12.5786  -17.7437   20.3628 N   0  0  0  0  0  0  0  0  0  0  0  0
   12.9830  -16.6273   22.4431 C   0  0  0  0  0  0  0  0  0  0  0  0
   13.4917  -17.0706   23.4792 O   0  0  0  0  0  0  0  0  0  0  0  0
   11.8251  -15.8623   22.5847 O   0  0  0  0  0  0  0  0  0  0  0  0
  1  2  1  0
  2  3  2  0
  2  4  1  0
  4  5  1  0
  5  6  1  0
  6  8  1  0
  6  7  1  1
  8 14  1  0
  9  8  2  0
 11 10  1  1
 11 12  1  0
 13 11  1  0
 13 14  1  6
 15 16  2  0
 15 13  1  0
 17 18  1  0
 18 19  2  0
 20 18  1  0
 20 21  1  0
 22 21  1  6
 22 23  1  0
 23 15  1  0
 24 22  1  0
 25 24  2  0
 26 24  1  0
M  END
$$$$
