QTQ.pdb
     RDKit          3D

 26 25  0  0  1  0  0  0  0  0999 V2000
   10.0715  -20.1078   15.2455 N   0  0  0  0  0  0  0  0  0  0  0  0
    9.6100  -19.6286   16.4998 C   0  0  0  0  0  0  0  0  0  0  0  0
    9.7461  -20.2697   17.5558 O   0  0  0  0  0  0  0  0  0  0  0  0
    8.9360  -18.2891   16.5064 C   0  0  0  0  0  0  0  0  0  0  0  0
    8.9853  -17.7483   15.1184 C   0  0  0  0  0  0  0  0  0  0  0  0
    8.4187  -16.3544   14.9585 C   0  0  2  0  0  0  0  0  0  0  0  0
    8.8670  -15.9376   13.6101 N   0  0  0  0  0  0  0  0  0  0  0  0
    8.9832  -15.3710   15.9072 C   0  0  0  0  0  0  0  0  0  0  0  0
   10.1141  -14.8776   15.6685 O   0  0  0  0  0  0  0  0  0  0  0  0
    8.4776  -12.7034   20.0325 C   0  0  0  0  0  0  0  0  0  0  0  0
    7.8358  -13.5227   18.9339 C   0  0  1  0  0  0  0  0  0  0  0  0
    6.9254  -12.8053   18.1990 O   0  0  0  0  0  0  0  0  0  0  0  0
    8.9879  -14.0707   18.0800 C   0  0  2  0  0  0  0  0  0  0  0  0
    8.3520  -14.9202   17.0885 N   0  0  0  0  0  0  0  0  0  0  0  0
    9.8588  -14.8595   18.9866 C   0  0  0  0  0  0  0  0  0  0  0  0
    9.5744  -16.0522   19.3143 O   0  0  0  0  0  0  0  0  0  0  0  0
   16.6743  -15.1628   21.8818 N   0  0  0  0  0  0  0  0  0  0  0  0
   15.6251  -14.5934   21.1535 C   0  0  0  0  0  0  0  0  0  0  0  0
   15.8033  -13.5751   20.4615 O   0  0  0  0  0  0  0  0  0  0  0  0
   14.2666  -15.2225   21.2100 C   0  0  0  0  0  0  0  0  0  0  0  0
   13.3215  -14.4923   20.2929 C   0  0  0  0  0  0  0  0  0  0  0  0
   11.9662  -15.1242   20.3313 C   0  0  2  0  0  0  0  0  0  0  0  0
   11.0313  -14.3051   19.5118 N   0  0  0  0  0  0  0  0  0  0  0  0
   11.3825  -15.2695   21.6761 C   0  0  0  0  0  0  0  0  0  0  0  0
   10.6260  -14.4378   22.1908 O   0  0  0  0  0  0  0  0  0  0  0  0
   11.6851  -16.4018   22.4326 O   0  0  0  0  0  0  0  0  0  0  0  0
  1  2  1  0
  2  3  2  0
  2  4  1  0
  4  5  1  0
  5  6  1  0
  6  8  1  0
  6  7  1  6
  8 14  1  0
  9  8  2  0
 11 10  1  1
 11 12  1  0
 13 11  1  0
 13 14  1  6
 15 16  2  0
 15 13  1  0
 17 18  1  0
 18 19  2  0
 20 18  1  0
 20 21  1  0
 22 21  1  1
 22 23  1  0
 23 15  1  0
 24 22  1  0
 25 24  2  0
 26 24  1  0
M  END
$$$$
