QTQ.pdb
     RDKit          3D

 26 25  0  0  1  0  0  0  0  0999 V2000
    9.0224  -19.9193   16.1308 N   0  0  0  0  0  0  0  0  0  0  0  0
   10.1565  -19.4771   15.3999 C   0  0  0  0  0  0  0  0  0  0  0  0
   11.0471  -20.2504   15.0081 O   0  0  0  0  0  0  0  0  0  0  0  0
   10.2446  -18.0085   15.1100 C   0  0  0  0  0  0  0  0  0  0  0  0
    9.0216  -17.3613   15.6641 C   0  0  0  0  0  0  0  0  0  0  0  0
    9.0023  -15.8514   15.5684 C   0  0  2  0  0  0  0  0  0  0  0  0
   10.0471  -15.5423   14.5654 N   0  0  0  0  0  0  0  0  0  0  0  0
    9.4096  -15.1715   16.8165 C   0  0  0  0  0  0  0  0  0  0  0  0
   10.6274  -14.9240   17.0031 O   0  0  0  0  0  0  0  0  0  0  0  0
    8.1068  -13.2121   21.1664 C   0  0  0  0  0  0  0  0  0  0  0  0
    7.6864  -13.7351   19.8099 C   0  0  1  0  0  0  0  0  0  0  0  0
    7.0075  -12.8014   19.0677 O   0  0  0  0  0  0  0  0  0  0  0  0
    8.9699  -14.2212   19.1220 C   0  0  2  0  0  0  0  0  0  0  0  0
    8.5334  -14.7610   17.8465 N   0  0  0  0  0  0  0  0  0  0  0  0
    9.5474  -15.2804   19.9863 C   0  0  0  0  0  0  0  0  0  0  0  0
    9.1739  -16.4902   19.8987 O   0  0  0  0  0  0  0  0  0  0  0  0
   15.3191  -16.0014   20.9606 N   0  0  0  0  0  0  0  0  0  0  0  0
   14.7746  -14.8402   21.5179 C   0  0  0  0  0  0  0  0  0  0  0  0
   15.4835  -13.8426   21.7411 O   0  0  0  0  0  0  0  0  0  0  0  0
   13.3142  -14.8007   21.8499 C   0  0  0  0  0  0  0  0  0  0  0  0
   12.6465  -16.0701   21.3911 C   0  0  0  0  0  0  0  0  0  0  0  0
   11.1897  -16.0439   21.7297 C   0  0  2  0  0  0  0  0  0  0  0  0
   10.5309  -14.9727   20.9328 N   0  0  0  0  0  0  0  0  0  0  0  0
   10.8827  -15.8059   23.1508 C   0  0  0  0  0  0  0  0  0  0  0  0
   11.2358  -16.5586   24.0660 O   0  0  0  0  0  0  0  0  0  0  0  0
   10.1528  -14.6728   23.5107 O   0  0  0  0  0  0  0  0  0  0  0  0
  1  2  1  0
  2  3  2  0
  2  4  1  0
  4  5  1  0
  5  6  1  0
  6  8  1  0
  6  7  1  6
  8 14  1  0
  9  8  2  0
 11 10  1  1
 11 12  1  0
 13 11  1  0
 13 14  1  6
 15 16  2  0
 15 13  1  0
 17 18  1  0
 18 19  2  0
 20 18  1  0
 20 21  1  0
 22 21  1  1
 22 23  1  0
 23 15  1  0
 24 22  1  0
 25 24  2  0
 26 24  1  0
M  END
$$$$
