QTQ.pdb
     RDKit          3D

 26 25  0  0  1  0  0  0  0  0999 V2000
    7.2489  -20.3411   19.5023 N   0  0  0  0  0  0  0  0  0  0  0  0
    8.4510  -20.3866   18.7481 C   0  0  0  0  0  0  0  0  0  0  0  0
    9.3452  -21.2238   18.9583 O   0  0  0  0  0  0  0  0  0  0  0  0
    8.6080  -19.3643   17.6623 C   0  0  0  0  0  0  0  0  0  0  0  0
    7.3822  -18.5165   17.6550 C   0  0  0  0  0  0  0  0  0  0  0  0
    7.6102  -17.0725   17.2649 C   0  0  2  0  0  0  0  0  0  0  0  0
    8.3753  -17.1593   16.0000 N   0  0  0  0  0  0  0  0  0  0  0  0
    8.4619  -16.3271   18.2161 C   0  0  0  0  0  0  0  0  0  0  0  0
    9.6754  -16.1552   17.9380 O   0  0  0  0  0  0  0  0  0  0  0  0
    7.2040  -13.1970   20.2569 C   0  0  0  0  0  0  0  0  0  0  0  0
    7.8869  -14.1751   21.1881 C   0  0  1  0  0  0  0  0  0  0  0  0
    6.9986  -14.9733   21.8644 O   0  0  0  0  0  0  0  0  0  0  0  0
    8.8661  -14.9790   20.3211 C   0  0  2  0  0  0  0  0  0  0  0  0
    8.0270  -15.7732   19.4413 N   0  0  0  0  0  0  0  0  0  0  0  0
    9.6493  -15.8406   21.2415 C   0  0  0  0  0  0  0  0  0  0  0  0
    9.4102  -17.0815   21.3590 O   0  0  0  0  0  0  0  0  0  0  0  0
   15.6288  -15.2656   22.5122 N   0  0  0  0  0  0  0  0  0  0  0  0
   15.2426  -16.0583   23.5975 C   0  0  0  0  0  0  0  0  0  0  0  0
   16.0562  -16.3705   24.4854 O   0  0  0  0  0  0  0  0  0  0  0  0
   13.8260  -16.5372   23.6890 C   0  0  0  0  0  0  0  0  0  0  0  0
   12.9569  -15.7622   22.7343 C   0  0  0  0  0  0  0  0  0  0  0  0
   11.5267  -16.1757   22.8793 C   0  0  2  0  0  0  0  0  0  0  0  0
   10.6849  -15.3040   22.0143 N   0  0  0  0  0  0  0  0  0  0  0  0
   10.9920  -16.1061   24.2504 C   0  0  0  0  0  0  0  0  0  0  0  0
   10.3244  -15.1585   24.6807 O   0  0  0  0  0  0  0  0  0  0  0  0
   11.2394  -17.1574   25.1333 O   0  0  0  0  0  0  0  0  0  0  0  0
  1  2  1  0
  2  3  2  0
  2  4  1  0
  4  5  1  0
  5  6  1  0
  6  8  1  0
  6  7  1  6
  8 14  1  0
  9  8  2  0
 11 10  1  6
 11 12  1  0
 13 11  1  0
 13 14  1  6
 15 16  2  0
 15 13  1  0
 17 18  1  0
 18 19  2  0
 20 18  1  0
 20 21  1  0
 22 21  1  1
 22 23  1  0
 23 15  1  0
 24 22  1  0
 25 24  2  0
 26 24  1  0
M  END
$$$$
