QTQ.pdb
     RDKit          3D

 26 25  0  0  1  0  0  0  0  0999 V2000
   10.1560  -19.4585   13.2784 N   0  0  0  0  0  0  0  0  0  0  0  0
   11.3841  -18.7907   13.5270 C   0  0  0  0  0  0  0  0  0  0  0  0
   12.4872  -19.2784   13.2269 O   0  0  0  0  0  0  0  0  0  0  0  0
   11.3020  -17.4435   14.1802 C   0  0  0  0  0  0  0  0  0  0  0  0
    9.8635  -17.1491   14.4364 C   0  0  0  0  0  0  0  0  0  0  0  0
    9.4980  -15.6814   14.3970 C   0  0  2  0  0  0  0  0  0  0  0  0
   10.4660  -15.0963   13.4412 N   0  0  0  0  0  0  0  0  0  0  0  0
    9.7079  -14.9818   15.6825 C   0  0  0  0  0  0  0  0  0  0  0  0
   10.8814  -14.7106   16.0412 O   0  0  0  0  0  0  0  0  0  0  0  0
    7.7451  -12.9802   19.7544 C   0  0  0  0  0  0  0  0  0  0  0  0
    7.5252  -13.7155   18.4501 C   0  0  1  0  0  0  0  0  0  0  0  0
    6.7365  -13.0154   17.5720 O   0  0  0  0  0  0  0  0  0  0  0  0
    8.9216  -14.0133   17.8860 C   0  0  2  0  0  0  0  0  0  0  0  0
    8.6844  -14.5770   16.5688 N   0  0  0  0  0  0  0  0  0  0  0  0
    9.5497  -15.0067   18.7923 C   0  0  0  0  0  0  0  0  0  0  0  0
   10.0174  -16.1037   18.3580 O   0  0  0  0  0  0  0  0  0  0  0  0
   14.6468  -14.9800   19.1967 N   0  0  0  0  0  0  0  0  0  0  0  0
   14.5115  -14.8720   20.5843 C   0  0  0  0  0  0  0  0  0  0  0  0
   15.4428  -14.4413   21.2878 O   0  0  0  0  0  0  0  0  0  0  0  0
   13.2235  -15.2823   21.2301 C   0  0  0  0  0  0  0  0  0  0  0  0
   12.0576  -14.7593   20.4335 C   0  0  0  0  0  0  0  0  0  0  0  0
   10.7733  -15.3102   20.9671 C   0  0  2  0  0  0  0  0  0  0  0  0
    9.6454  -14.7598   20.1662 N   0  0  0  0  0  0  0  0  0  0  0  0
   10.5085  -15.0151   22.3860 C   0  0  0  0  0  0  0  0  0  0  0  0
    9.8896  -14.0187   22.7771 O   0  0  0  0  0  0  0  0  0  0  0  0
   10.9721  -15.8952   23.3640 O   0  0  0  0  0  0  0  0  0  0  0  0
  1  2  1  0
  2  3  2  0
  2  4  1  0
  4  5  1  0
  5  6  1  0
  6  8  1  0
  6  7  1  6
  8 14  1  0
  9  8  2  0
 11 10  1  1
 11 12  1  0
 13 11  1  0
 13 14  1  6
 15 16  2  0
 15 13  1  0
 17 18  1  0
 18 19  2  0
 20 18  1  0
 20 21  1  0
 22 21  1  6
 22 23  1  0
 23 15  1  0
 24 22  1  0
 25 24  2  0
 26 24  1  0
M  END
$$$$
