QTQ.pdb
     RDKit          3D

 26 25  0  0  1  0  0  0  0  0999 V2000
   10.9292  -17.8193   15.1449 N   0  0  0  0  0  0  0  0  0  0  0  0
   10.3981  -16.9426   14.1623 C   0  0  0  0  0  0  0  0  0  0  0  0
   10.6760  -17.0389   12.9547 O   0  0  0  0  0  0  0  0  0  0  0  0
    9.4675  -15.8700   14.6440 C   0  0  0  0  0  0  0  0  0  0  0  0
    9.2962  -16.0431   16.1144 C   0  0  0  0  0  0  0  0  0  0  0  0
    8.3226  -15.0807   16.7589 C   0  0  2  0  0  0  0  0  0  0  0  0
    8.2899  -13.9280   15.8298 N   0  0  0  0  0  0  0  0  0  0  0  0
    8.7827  -14.5527   18.0610 C   0  0  0  0  0  0  0  0  0  0  0  0
    9.6777  -13.6707   18.0761 O   0  0  0  0  0  0  0  0  0  0  0  0
    6.9959  -12.8965   20.6643 C   0  0  0  0  0  0  0  0  0  0  0  0
    7.6106  -14.0606   21.4108 C   0  0  1  0  0  0  0  0  0  0  0  0
    6.7220  -15.0848   21.6222 O   0  0  0  0  0  0  0  0  0  0  0  0
    8.8341  -14.4958   20.5920 C   0  0  2  0  0  0  0  0  0  0  0  0
    8.2956  -14.9568   19.3245 N   0  0  0  0  0  0  0  0  0  0  0  0
    9.4799  -15.6043   21.3383 C   0  0  0  0  0  0  0  0  0  0  0  0
    9.7832  -16.7002   20.7746 O   0  0  0  0  0  0  0  0  0  0  0  0
   15.2791  -16.3675   23.1627 N   0  0  0  0  0  0  0  0  0  0  0  0
   14.1199  -16.0023   22.4711 C   0  0  0  0  0  0  0  0  0  0  0  0
   14.1345  -15.8349   21.2384 O   0  0  0  0  0  0  0  0  0  0  0  0
   12.8424  -15.8107   23.2298 C   0  0  0  0  0  0  0  0  0  0  0  0
   11.8083  -16.7975   22.7563 C   0  0  0  0  0  0  0  0  0  0  0  0
   10.4991  -16.5456   23.4346 C   0  0  2  0  0  0  0  0  0  0  0  0
    9.7764  -15.4716   22.6993 N   0  0  0  0  0  0  0  0  0  0  0  0
   10.5953  -16.1418   24.8482 C   0  0  0  0  0  0  0  0  0  0  0  0
   11.1529  -16.8183   25.7200 O   0  0  0  0  0  0  0  0  0  0  0  0
   10.0327  -14.9307   25.2516 O   0  0  0  0  0  0  0  0  0  0  0  0
  1  2  1  0
  2  3  2  0
  2  4  1  0
  4  5  1  0
  5  6  1  0
  6  8  1  0
  6  7  1  6
  8 14  1  0
  9  8  2  0
 11 10  1  6
 11 12  1  0
 13 11  1  0
 13 14  1  6
 15 16  2  0
 15 13  1  0
 17 18  1  0
 18 19  2  0
 20 18  1  0
 20 21  1  0
 22 21  1  6
 22 23  1  0
 23 15  1  0
 24 22  1  0
 25 24  2  0
 26 24  1  0
M  END
$$$$
