QTQ.pdb
     RDKit          3D

 26 25  0  0  1  0  0  0  0  0999 V2000
    4.8546  -19.3883   15.5067 N   0  0  0  0  0  0  0  0  0  0  0  0
    5.8996  -19.6912   16.4190 C   0  0  0  0  0  0  0  0  0  0  0  0
    5.6876  -20.1321   17.5616 O   0  0  0  0  0  0  0  0  0  0  0  0
    7.3022  -19.4548   15.9445 C   0  0  0  0  0  0  0  0  0  0  0  0
    7.9984  -18.6327   16.9744 C   0  0  0  0  0  0  0  0  0  0  0  0
    8.2267  -17.1879   16.5871 C   0  0  2  0  0  0  0  0  0  0  0  0
    9.3279  -17.2513   15.5991 N   0  0  0  0  0  0  0  0  0  0  0  0
    8.7135  -16.3442   17.6993 C   0  0  0  0  0  0  0  0  0  0  0  0
    9.9350  -16.3730   17.9932 O   0  0  0  0  0  0  0  0  0  0  0  0
    7.9193  -12.7846   20.9956 C   0  0  0  0  0  0  0  0  0  0  0  0
    7.3950  -13.6075   19.8388 C   0  0  1  0  0  0  0  0  0  0  0  0
    7.2179  -12.8667   18.6971 O   0  0  0  0  0  0  0  0  0  0  0  0
    8.3895  -14.7615   19.6492 C   0  0  2  0  0  0  0  0  0  0  0  0
    7.9122  -15.4835   18.4830 N   0  0  0  0  0  0  0  0  0  0  0  0
    8.3138  -15.6007   20.8709 C   0  0  0  0  0  0  0  0  0  0  0  0
    7.6203  -16.6630   20.9086 O   0  0  0  0  0  0  0  0  0  0  0  0
   12.4759  -18.3627   20.3999 N   0  0  0  0  0  0  0  0  0  0  0  0
   12.5128  -18.6418   21.7697 C   0  0  0  0  0  0  0  0  0  0  0  0
   13.3144  -19.4723   22.2336 O   0  0  0  0  0  0  0  0  0  0  0  0
   11.5706  -17.9273   22.6897 C   0  0  0  0  0  0  0  0  0  0  0  0
   10.7146  -16.9669   21.9071 C   0  0  0  0  0  0  0  0  0  0  0  0
    9.7634  -16.2568   22.8172 C   0  0  2  0  0  0  0  0  0  0  0  0
    9.0124  -15.2413   22.0287 N   0  0  0  0  0  0  0  0  0  0  0  0
   10.3879  -15.5711   23.9619 C   0  0  0  0  0  0  0  0  0  0  0  0
   10.6641  -14.3659   23.9742 O   0  0  0  0  0  0  0  0  0  0  0  0
   10.6950  -16.3015   25.1099 O   0  0  0  0  0  0  0  0  0  0  0  0
  1  2  1  0
  2  3  2  0
  2  4  1  0
  4  5  1  0
  5  6  1  0
  6  8  1  0
  6  7  1  6
  8 14  1  0
  9  8  2  0
 11 10  1  1
 11 12  1  0
 13 11  1  0
 13 14  1  6
 15 16  2  0
 15 13  1  0
 17 18  1  0
 18 19  2  0
 20 18  1  0
 20 21  1  0
 22 21  1  6
 22 23  1  0
 23 15  1  0
 24 22  1  0
 25 24  2  0
 26 24  1  0
M  END
$$$$
