QTQ.pdb
     RDKit          3D

 26 25  0  0  1  0  0  0  0  0999 V2000
   15.1676  -15.6623   18.4464 N   0  0  0  0  0  0  0  0  0  0  0  0
   14.3561  -15.9242   17.3110 C   0  0  0  0  0  0  0  0  0  0  0  0
   14.6755  -16.7412   16.4306 O   0  0  0  0  0  0  0  0  0  0  0  0
   13.0688  -15.1620   17.2086 C   0  0  0  0  0  0  0  0  0  0  0  0
   12.1763  -15.6269   18.3081 C   0  0  0  0  0  0  0  0  0  0  0  0
   10.8020  -14.9940   18.3220 C   0  0  2  0  0  0  0  0  0  0  0  0
   10.9452  -13.8065   17.4489 N   0  0  0  0  0  0  0  0  0  0  0  0
   10.3943  -14.4875   19.6498 C   0  0  0  0  0  0  0  0  0  0  0  0
   10.9940  -13.4931   20.1303 O   0  0  0  0  0  0  0  0  0  0  0  0
    7.0511  -13.4226   20.8027 C   0  0  0  0  0  0  0  0  0  0  0  0
    7.4650  -14.5089   21.7717 C   0  0  1  0  0  0  0  0  0  0  0  0
    6.9175  -15.7298   21.4665 O   0  0  0  0  0  0  0  0  0  0  0  0
    9.0000  -14.5279   21.7631 C   0  0  2  0  0  0  0  0  0  0  0  0
    9.3640  -15.0306   20.4502 N   0  0  0  0  0  0  0  0  0  0  0  0
    9.4254  -15.4622   22.8349 C   0  0  0  0  0  0  0  0  0  0  0  0
    9.8122  -16.6429   22.5759 O   0  0  0  0  0  0  0  0  0  0  0  0
   11.3482  -13.5950   28.4345 N   0  0  0  0  0  0  0  0  0  0  0  0
   10.1093  -14.2197   28.6094 C   0  0  0  0  0  0  0  0  0  0  0  0
    9.4369  -14.0333   29.6394 O   0  0  0  0  0  0  0  0  0  0  0  0
    9.5870  -15.1268   27.5376 C   0  0  0  0  0  0  0  0  0  0  0  0
   10.5040  -15.0957   26.3436 C   0  0  0  0  0  0  0  0  0  0  0  0
    9.9558  -15.9484   25.2436 C   0  0  2  0  0  0  0  0  0  0  0  0
    9.4123  -15.0641   24.1762 N   0  0  0  0  0  0  0  0  0  0  0  0
    8.8884  -16.8798   25.6480 C   0  0  0  0  0  0  0  0  0  0  0  0
    7.6851  -16.6734   25.4521 O   0  0  0  0  0  0  0  0  0  0  0  0
    9.2289  -18.0703   26.2905 O   0  0  0  0  0  0  0  0  0  0  0  0
  1  2  1  0
  2  3  2  0
  2  4  1  0
  4  5  1  0
  5  6  1  0
  6  8  1  0
  6  7  1  6
  8 14  1  0
  9  8  2  0
 11 10  1  6
 11 12  1  0
 13 11  1  0
 13 14  1  6
 15 16  2  0
 15 13  1  0
 17 18  1  0
 18 19  2  0
 20 18  1  0
 20 21  1  0
 22 21  1  1
 22 23  1  0
 23 15  1  0
 24 22  1  0
 25 24  2  0
 26 24  1  0
M  END
$$$$
