QTQ.pdb
     RDKit          3D

 26 25  0  0  1  0  0  0  0  0999 V2000
    7.2661  -15.2217   14.3104 N   0  0  0  0  0  0  0  0  0  0  0  0
    8.5817  -14.6957   14.4035 C   0  0  0  0  0  0  0  0  0  0  0  0
    9.1827  -14.2118   13.4292 O   0  0  0  0  0  0  0  0  0  0  0  0
    9.2368  -14.7456   15.7514 C   0  0  0  0  0  0  0  0  0  0  0  0
    8.8225  -16.0159   16.4118 C   0  0  0  0  0  0  0  0  0  0  0  0
    9.5328  -16.3169   17.7135 C   0  0  2  0  0  0  0  0  0  0  0  0
    9.0600  -17.6730   18.0747 N   0  0  0  0  0  0  0  0  0  0  0  0
    9.1362  -15.4279   18.8264 C   0  0  0  0  0  0  0  0  0  0  0  0
    9.0277  -14.1949   18.6090 O   0  0  0  0  0  0  0  0  0  0  0  0
    7.0185  -13.7699   19.6294 C   0  0  0  0  0  0  0  0  0  0  0  0
    6.9821  -14.6022   20.8928 C   0  0  1  0  0  0  0  0  0  0  0  0
    6.1815  -15.7108   20.7757 O   0  0  0  0  0  0  0  0  0  0  0  0
    8.4411  -14.9552   21.2149 C   0  0  2  0  0  0  0  0  0  0  0  0
    8.8584  -15.8467   20.1472 N   0  0  0  0  0  0  0  0  0  0  0  0
    8.4369  -15.6499   22.5264 C   0  0  0  0  0  0  0  0  0  0  0  0
    8.5195  -16.9135   22.6123 O   0  0  0  0  0  0  0  0  0  0  0  0
   11.2682  -13.9054   27.8030 N   0  0  0  0  0  0  0  0  0  0  0  0
    9.9073  -13.7453   28.0822 C   0  0  0  0  0  0  0  0  0  0  0  0
    9.5242  -13.3381   29.1936 O   0  0  0  0  0  0  0  0  0  0  0  0
    8.8979  -14.0702   27.0239 C   0  0  0  0  0  0  0  0  0  0  0  0
    9.5929  -14.3588   25.7196 C   0  0  0  0  0  0  0  0  0  0  0  0
    8.8952  -15.4634   24.9911 C   0  0  2  0  0  0  0  0  0  0  0  0
    8.3409  -14.9241   23.7188 N   0  0  0  0  0  0  0  0  0  0  0  0
    7.7930  -16.1017   25.7315 C   0  0  0  0  0  0  0  0  0  0  0  0
    6.6191  -15.7162   25.6844 O   0  0  0  0  0  0  0  0  0  0  0  0
    8.0634  -17.2064   26.5392 O   0  0  0  0  0  0  0  0  0  0  0  0
  1  2  1  0
  2  3  2  0
  2  4  1  0
  4  5  1  0
  5  6  1  0
  6  8  1  0
  6  7  1  1
  8 14  1  0
  9  8  2  0
 11 10  1  6
 11 12  1  0
 13 11  1  0
 13 14  1  6
 15 16  2  0
 15 13  1  0
 17 18  1  0
 18 19  2  0
 20 18  1  0
 20 21  1  0
 22 21  1  1
 22 23  1  0
 23 15  1  0
 24 22  1  0
 25 24  2  0
 26 24  1  0
M  END
$$$$
