QTQ.pdb
     RDKit          3D

 26 25  0  0  1  0  0  0  0  0999 V2000
    7.9680  -20.2168   19.5198 N   0  0  0  0  0  0  0  0  0  0  0  0
    9.2638  -20.2183   18.9393 C   0  0  0  0  0  0  0  0  0  0  0  0
   10.1814  -20.9517   19.3452 O   0  0  0  0  0  0  0  0  0  0  0  0
    9.4922  -19.2813   17.7911 C   0  0  0  0  0  0  0  0  0  0  0  0
    8.2143  -18.5595   17.5318 C   0  0  0  0  0  0  0  0  0  0  0  0
    8.3637  -17.0776   17.2654 C   0  0  2  0  0  0  0  0  0  0  0  0
    9.3565  -17.0087   16.1687 N   0  0  0  0  0  0  0  0  0  0  0  0
    8.9428  -16.3253   18.3988 C   0  0  0  0  0  0  0  0  0  0  0  0
   10.1867  -16.1513   18.4393 O   0  0  0  0  0  0  0  0  0  0  0  0
    7.0746  -13.2661   20.1752 C   0  0  0  0  0  0  0  0  0  0  0  0
    7.6027  -14.2543   21.1925 C   0  0  1  0  0  0  0  0  0  0  0  0
    6.6420  -15.1315   21.6294 O   0  0  0  0  0  0  0  0  0  0  0  0
    8.7920  -14.9601   20.5260 C   0  0  2  0  0  0  0  0  0  0  0  0
    8.2081  -15.7669   19.4691 N   0  0  0  0  0  0  0  0  0  0  0  0
    9.4262  -15.8096   21.5647 C   0  0  0  0  0  0  0  0  0  0  0  0
    9.3410  -17.0755   21.5345 O   0  0  0  0  0  0  0  0  0  0  0  0
   14.9331  -16.2744   22.5412 N   0  0  0  0  0  0  0  0  0  0  0  0
   14.5955  -16.7977   23.7933 C   0  0  0  0  0  0  0  0  0  0  0  0
   15.4182  -17.4532   24.4575 O   0  0  0  0  0  0  0  0  0  0  0  0
   13.2205  -16.5631   24.3401 C   0  0  0  0  0  0  0  0  0  0  0  0
   12.3900  -15.8042   23.3391 C   0  0  0  0  0  0  0  0  0  0  0  0
   10.9352  -16.0749   23.5577 C   0  0  2  0  0  0  0  0  0  0  0  0
   10.1440  -15.2332   22.6184 N   0  0  0  0  0  0  0  0  0  0  0  0
   10.4487  -15.8108   24.9230 C   0  0  0  0  0  0  0  0  0  0  0  0
   10.8380  -16.4258   25.9225 O   0  0  0  0  0  0  0  0  0  0  0  0
    9.4938  -14.8145   25.1263 O   0  0  0  0  0  0  0  0  0  0  0  0
  1  2  1  0
  2  3  2  0
  2  4  1  0
  4  5  1  0
  5  6  1  0
  6  8  1  0
  6  7  1  6
  8 14  1  0
  9  8  2  0
 11 10  1  6
 11 12  1  0
 13 11  1  0
 13 14  1  6
 15 16  2  0
 15 13  1  0
 17 18  1  0
 18 19  2  0
 20 18  1  0
 20 21  1  0
 22 21  1  1
 22 23  1  0
 23 15  1  0
 24 22  1  0
 25 24  2  0
 26 24  1  0
M  END
$$$$
