QTQ.pdb
     RDKit          3D

 26 25  0  0  1  0  0  0  0  0999 V2000
   14.3243  -17.2696   20.4858 N   0  0  0  0  0  0  0  0  0  0  0  0
   14.6458  -17.2881   19.1030 C   0  0  0  0  0  0  0  0  0  0  0  0
   15.3133  -18.1967   18.5800 O   0  0  0  0  0  0  0  0  0  0  0  0
   14.1394  -16.1451   18.2749 C   0  0  0  0  0  0  0  0  0  0  0  0
   13.2911  -15.2889   19.1518 C   0  0  0  0  0  0  0  0  0  0  0  0
   11.8625  -15.1178   18.6835 C   0  0  2  0  0  0  0  0  0  0  0  0
   11.9728  -14.2068   17.5212 N   0  0  0  0  0  0  0  0  0  0  0  0
   10.9927  -14.4360   19.6655 C   0  0  0  0  0  0  0  0  0  0  0  0
   11.2078  -13.2264   19.9298 O   0  0  0  0  0  0  0  0  0  0  0  0
    7.6216  -13.4558   19.7305 C   0  0  0  0  0  0  0  0  0  0  0  0
    7.6912  -14.4080   20.9048 C   0  0  1  0  0  0  0  0  0  0  0  0
    7.2662  -15.6739   20.5881 O   0  0  0  0  0  0  0  0  0  0  0  0
    9.1453  -14.3757   21.3962 C   0  0  2  0  0  0  0  0  0  0  0  0
    9.9114  -15.0329   20.3521 N   0  0  0  0  0  0  0  0  0  0  0  0
    9.1891  -15.1469   22.6635 C   0  0  0  0  0  0  0  0  0  0  0  0
    9.5080  -16.3751   22.6863 O   0  0  0  0  0  0  0  0  0  0  0  0
   10.6643  -14.5008   29.5691 N   0  0  0  0  0  0  0  0  0  0  0  0
    9.6437  -14.1251   28.6900 C   0  0  0  0  0  0  0  0  0  0  0  0
    9.0700  -13.0272   28.8049 O   0  0  0  0  0  0  0  0  0  0  0  0
    9.2377  -15.0621   27.5938 C   0  0  0  0  0  0  0  0  0  0  0  0
    9.3326  -14.3683   26.2607 C   0  0  0  0  0  0  0  0  0  0  0  0
    8.9337  -15.2990   25.1597 C   0  0  2  0  0  0  0  0  0  0  0  0
    8.8768  -14.5356   23.8828 N   0  0  0  0  0  0  0  0  0  0  0  0
    7.6341  -15.9674   25.3467 C   0  0  0  0  0  0  0  0  0  0  0  0
    6.5789  -15.5740   24.8362 O   0  0  0  0  0  0  0  0  0  0  0  0
    7.5636  -17.1120   26.1410 O   0  0  0  0  0  0  0  0  0  0  0  0
  1  2  1  0
  2  3  2  0
  2  4  1  0
  4  5  1  0
  5  6  1  0
  6  8  1  0
  6  7  1  6
  8 14  1  0
  9  8  2  0
 11 10  1  6
 11 12  1  0
 13 11  1  0
 13 14  1  6
 15 16  2  0
 15 13  1  0
 17 18  1  0
 18 19  2  0
 20 18  1  0
 20 21  1  0
 22 21  1  1
 22 23  1  0
 23 15  1  0
 24 22  1  0
 25 24  2  0
 26 24  1  0
M  END
$$$$
