QTQ.pdb
     RDKit          3D

 26 25  0  0  1  0  0  0  0  0999 V2000
    5.1304  -20.7020   24.4720 N   0  0  0  0  0  0  0  0  0  0  0  0
    4.5014  -21.3519   23.3775 C   0  0  0  0  0  0  0  0  0  0  0  0
    4.0172  -22.4935   23.4615 O   0  0  0  0  0  0  0  0  0  0  0  0
    4.4399  -20.5943   22.0849 C   0  0  0  0  0  0  0  0  0  0  0  0
    5.0578  -19.2570   22.3115 C   0  0  0  0  0  0  0  0  0  0  0  0
    5.0667  -18.3475   21.1024 C   0  0  2  0  0  0  0  0  0  0  0  0
    4.7697  -19.2539   19.9696 N   0  0  0  0  0  0  0  0  0  0  0  0
    6.3881  -17.7474   20.8197 C   0  0  0  0  0  0  0  0  0  0  0  0
    7.2178  -18.4004   20.1382 O   0  0  0  0  0  0  0  0  0  0  0  0
    7.0447  -14.5031   19.2855 C   0  0  0  0  0  0  0  0  0  0  0  0
    7.8455  -14.4492   20.5685 C   0  0  1  0  0  0  0  0  0  0  0  0
    7.2130  -13.7423   21.5603 O   0  0  0  0  0  0  0  0  0  0  0  0
    8.1215  -15.9071   20.9623 C   0  0  2  0  0  0  0  0  0  0  0  0
    6.8163  -16.4728   21.2544 N   0  0  0  0  0  0  0  0  0  0  0  0
    8.9771  -15.8715   22.1744 C   0  0  0  0  0  0  0  0  0  0  0  0
    8.4807  -15.7805   23.3389 O   0  0  0  0  0  0  0  0  0  0  0  0
   10.1256  -19.7332   25.2171 N   0  0  0  0  0  0  0  0  0  0  0  0
   11.1807  -19.0096   25.7818 C   0  0  0  0  0  0  0  0  0  0  0  0
   11.7371  -19.3959   26.8253 O   0  0  0  0  0  0  0  0  0  0  0  0
   11.6454  -17.7502   25.1168 C   0  0  0  0  0  0  0  0  0  0  0  0
   10.8072  -17.4712   23.8973 C   0  0  0  0  0  0  0  0  0  0  0  0
   11.2208  -16.1801   23.2653 C   0  0  2  0  0  0  0  0  0  0  0  0
   10.3706  -15.9381   22.0673 N   0  0  0  0  0  0  0  0  0  0  0  0
   12.6304  -16.1151   22.8417 C   0  0  0  0  0  0  0  0  0  0  0  0
   13.0133  -16.3469   21.6892 O   0  0  0  0  0  0  0  0  0  0  0  0
   13.6085  -15.7746   23.7762 O   0  0  0  0  0  0  0  0  0  0  0  0
  1  2  1  0
  2  3  2  0
  2  4  1  0
  4  5  1  0
  5  6  1  0
  6  8  1  0
  6  7  1  6
  8 14  1  0
  9  8  2  0
 11 10  1  6
 11 12  1  0
 13 11  1  0
 13 14  1  1
 15 16  2  0
 15 13  1  0
 17 18  1  0
 18 19  2  0
 20 18  1  0
 20 21  1  0
 22 21  1  6
 22 23  1  0
 23 15  1  0
 24 22  1  0
 25 24  2  0
 26 24  1  0
M  END
$$$$
