QTQ.pdb
     RDKit          3D

 26 25  0  0  1  0  0  0  0  0999 V2000
    8.2884  -12.8480   15.6121 N   0  0  0  0  0  0  0  0  0  0  0  0
    7.6850  -14.1237   15.7683 C   0  0  0  0  0  0  0  0  0  0  0  0
    6.7765  -14.5331   15.0255 O   0  0  0  0  0  0  0  0  0  0  0  0
    8.1944  -14.9810   16.8881 C   0  0  0  0  0  0  0  0  0  0  0  0
    9.3643  -14.2864   17.4967 C   0  0  0  0  0  0  0  0  0  0  0  0
   10.0143  -15.0244   18.6467 C   0  0  2  0  0  0  0  0  0  0  0  0
    9.5340  -16.4171   18.4962 N   0  0  0  0  0  0  0  0  0  0  0  0
    9.5597  -14.5691   19.9779 C   0  0  0  0  0  0  0  0  0  0  0  0
    9.8213  -13.3943   20.3393 O   0  0  0  0  0  0  0  0  0  0  0  0
    6.1487  -14.4492   21.5242 C   0  0  0  0  0  0  0  0  0  0  0  0
    6.9880  -15.3627   22.3911 C   0  0  1  0  0  0  0  0  0  0  0  0
    6.8205  -16.6894   22.0827 O   0  0  0  0  0  0  0  0  0  0  0  0
    8.4405  -14.8938   22.2259 C   0  0  2  0  0  0  0  0  0  0  0  0
    8.8374  -15.3522   20.9064 N   0  0  0  0  0  0  0  0  0  0  0  0
    9.2323  -15.5610   23.2892 C   0  0  0  0  0  0  0  0  0  0  0  0
   10.0917  -16.4550   23.0192 O   0  0  0  0  0  0  0  0  0  0  0  0
   11.5288  -14.8425   30.2846 N   0  0  0  0  0  0  0  0  0  0  0  0
   10.7452  -14.5356   29.1677 C   0  0  0  0  0  0  0  0  0  0  0  0
   10.0454  -13.5075   29.1382 O   0  0  0  0  0  0  0  0  0  0  0  0
   10.7511  -15.4620   27.9903 C   0  0  0  0  0  0  0  0  0  0  0  0
    9.8723  -14.9129   26.8977 C   0  0  0  0  0  0  0  0  0  0  0  0
    9.9205  -15.8011   25.6950 C   0  0  2  0  0  0  0  0  0  0  0  0
    9.0523  -15.2201   24.6342 N   0  0  0  0  0  0  0  0  0  0  0  0
    9.4864  -17.1899   25.9261 C   0  0  0  0  0  0  0  0  0  0  0  0
   10.2377  -18.0879   26.3236 O   0  0  0  0  0  0  0  0  0  0  0  0
    8.1561  -17.5372   25.6902 O   0  0  0  0  0  0  0  0  0  0  0  0
  1  2  1  0
  2  3  2  0
  2  4  1  0
  4  5  1  0
  5  6  1  0
  6  8  1  0
  6  7  1  6
  8 14  1  0
  9  8  2  0
 11 10  1  6
 11 12  1  0
 13 11  1  0
 13 14  1  6
 15 16  2  0
 15 13  1  0
 17 18  1  0
 18 19  2  0
 20 18  1  0
 20 21  1  0
 22 21  1  1
 22 23  1  0
 23 15  1  0
 24 22  1  0
 25 24  2  0
 26 24  1  0
M  END
$$$$
