QTQ.pdb
     RDKit          3D

 26 25  0  0  1  0  0  0  0  0999 V2000
   14.8972  -14.4157   20.0564 N   0  0  0  0  0  0  0  0  0  0  0  0
   14.8081  -14.8990   18.7243 C   0  0  0  0  0  0  0  0  0  0  0  0
   15.7567  -15.4572   18.1469 O   0  0  0  0  0  0  0  0  0  0  0  0
   13.4976  -14.7079   18.0211 C   0  0  0  0  0  0  0  0  0  0  0  0
   12.5518  -14.0775   18.9851 C   0  0  0  0  0  0  0  0  0  0  0  0
   11.1725  -14.6987   19.0212 C   0  0  2  0  0  0  0  0  0  0  0  0
   10.5713  -14.3127   17.7241 N   0  0  0  0  0  0  0  0  0  0  0  0
   10.2950  -14.1370   20.0701 C   0  0  0  0  0  0  0  0  0  0  0  0
   10.0873  -12.8977   20.0881 O   0  0  0  0  0  0  0  0  0  0  0  0
    6.9722  -13.9289   20.6356 C   0  0  0  0  0  0  0  0  0  0  0  0
    7.4084  -14.7292   21.8437 C   0  0  1  0  0  0  0  0  0  0  0  0
    7.2869  -16.0833   21.6561 O   0  0  0  0  0  0  0  0  0  0  0  0
    8.8511  -14.2988   22.1440 C   0  0  2  0  0  0  0  0  0  0  0  0
    9.6487  -14.8840   21.0808 N   0  0  0  0  0  0  0  0  0  0  0  0
    9.2069  -14.8753   23.4645 C   0  0  0  0  0  0  0  0  0  0  0  0
    9.9604  -15.8914   23.5676 O   0  0  0  0  0  0  0  0  0  0  0  0
   11.1741  -13.5517   28.0506 N   0  0  0  0  0  0  0  0  0  0  0  0
   10.3257  -14.3570   28.8170 C   0  0  0  0  0  0  0  0  0  0  0  0
   10.7413  -14.9409   29.8338 O   0  0  0  0  0  0  0  0  0  0  0  0
    8.8945  -14.5164   28.4039 C   0  0  0  0  0  0  0  0  0  0  0  0
    8.6809  -13.9135   27.0407 C   0  0  0  0  0  0  0  0  0  0  0  0
    9.0555  -14.8926   25.9737 C   0  0  2  0  0  0  0  0  0  0  0  0
    8.7167  -14.3093   24.6465 N   0  0  0  0  0  0  0  0  0  0  0  0
    8.3974  -16.2070   26.0728 C   0  0  0  0  0  0  0  0  0  0  0  0
    8.8798  -17.1738   26.6740 O   0  0  0  0  0  0  0  0  0  0  0  0
    7.1580  -16.3972   25.4617 O   0  0  0  0  0  0  0  0  0  0  0  0
  1  2  1  0
  2  3  2  0
  2  4  1  0
  4  5  1  0
  5  6  1  0
  6  8  1  0
  6  7  1  6
  8 14  1  0
  9  8  2  0
 11 10  1  6
 11 12  1  0
 13 11  1  0
 13 14  1  6
 15 16  2  0
 15 13  1  0
 17 18  1  0
 18 19  2  0
 20 18  1  0
 20 21  1  0
 22 21  1  1
 22 23  1  0
 23 15  1  0
 24 22  1  0
 25 24  2  0
 26 24  1  0
M  END
$$$$
