QDD.pdb
     RDKit          3D

 26 25  0  0  1  0  0  0  0  0999 V2000
   13.8630  -10.4197  -14.7902 N   0  0  0  0  0  0  0  0  0  0  0  0
   14.2619  -11.1131  -15.9907 C   0  0  0  0  0  0  0  0  0  0  0  0
   13.4230  -11.8891  -16.4877 O   0  0  0  0  0  0  0  0  0  0  0  0
   15.6097  -10.8191  -16.4943 C   0  0  0  0  0  0  0  0  0  0  0  0
   16.3951   -9.8436  -15.7341 C   0  0  0  0  0  0  0  0  0  0  0  0
   17.8739   -9.8334  -15.8187 C   0  0  2  0  0  0  0  0  0  0  0  0
   18.3365  -11.1650  -15.2838 N   0  0  0  0  0  0  0  0  0  0  0  0
   18.5381   -8.8124  -15.0065 C   0  0  0  0  0  0  0  0  0  0  0  0
   18.2785   -8.6043  -13.7763 O   0  0  0  0  0  0  0  0  0  0  0  0
   19.5552   -7.9596  -15.5854 N   0  0  0  0  0  0  0  0  0  0  0  0
   20.2408   -6.9531  -14.8287 C   0  0  1  0  0  0  0  0  0  0  0  0
   21.7366   -7.1916  -14.7755 C   0  0  0  0  0  0  0  0  0  0  0  0
   22.4753   -6.1877  -14.0109 C   0  0  0  0  0  0  0  0  0  0  0  0
   23.2030   -5.2833  -14.4840 O   0  0  0  0  0  0  0  0  0  0  0  0
   19.9432   -5.5836  -15.3453 C   0  0  0  0  0  0  0  0  0  0  0  0
   19.9680   -5.3438  -16.5736 O   0  0  0  0  0  0  0  0  0  0  0  0
   22.3728   -6.2243  -12.6243 O   0  0  0  0  0  0  0  0  0  0  0  0
   19.6214   -4.4769  -14.5213 N   0  0  0  0  0  0  0  0  0  0  0  0
   19.2974   -3.2148  -15.0350 C   0  0  1  0  0  0  0  0  0  0  0  0
   18.0561   -2.5311  -14.6392 C   0  0  0  0  0  0  0  0  0  0  0  0
   17.9271   -1.1926  -15.2779 C   0  0  0  0  0  0  0  0  0  0  0  0
   17.9949   -0.1096  -14.6349 O   0  0  0  0  0  0  0  0  0  0  0  0
   20.4201   -2.2937  -14.6921 C   0  0  0  0  0  0  0  0  0  0  0  0
   20.5308   -1.2507  -15.3789 O   0  0  0  0  0  0  0  0  0  0  0  0
   17.7201   -1.0478  -16.6564 O   0  0  0  0  0  0  0  0  0  0  0  0
   21.3054   -2.5467  -13.6803 O   0  0  0  0  0  0  0  0  0  0  0  0
  2  1  1  0
  2  3  2  0
  4  2  1  0
  4  5  1  0
  5  6  1  0
  6  7  1  1
  6  8  1  0
  8 10  1  0
  9  8  2  0
 10 11  1  0
 11 15  1  0
 11 12  1  6
 12 13  1  0
 13 17  1  0
 14 13  2  0
 15 18  1  0
 16 15  2  0
 18 19  1  0
 19 20  1  1
 20 21  1  0
 21 25  1  0
 22 21  2  0
 23 19  1  0
 23 26  1  0
 24 23  2  0
M  END
$$$$
