QDD.pdb
     RDKit          3D

 26 25  0  0  1  0  0  0  0  0999 V2000
   15.8186  -15.6253  -15.7537 N   0  0  0  0  0  0  0  0  0  0  0  0
   16.4975  -14.4613  -16.2689 C   0  0  0  0  0  0  0  0  0  0  0  0
   17.0431  -14.5850  -17.3823 O   0  0  0  0  0  0  0  0  0  0  0  0
   16.4614  -13.2604  -15.4244 C   0  0  0  0  0  0  0  0  0  0  0  0
   17.7465  -12.6118  -15.1521 C   0  0  0  0  0  0  0  0  0  0  0  0
   18.2056  -11.4691  -15.9754 C   0  0  2  0  0  0  0  0  0  0  0  0
   18.5082  -12.0284  -17.3424 N   0  0  0  0  0  0  0  0  0  0  0  0
   19.4364  -10.8236  -15.5152 C   0  0  0  0  0  0  0  0  0  0  0  0
   19.6110  -10.3925  -14.3286 O   0  0  0  0  0  0  0  0  0  0  0  0
   20.5509  -10.6361  -16.4204 N   0  0  0  0  0  0  0  0  0  0  0  0
   21.7721  -10.0005  -16.0199 C   0  0  1  0  0  0  0  0  0  0  0  0
   22.9762  -10.5491  -16.7590 C   0  0  0  0  0  0  0  0  0  0  0  0
   24.2503   -9.9641  -16.3436 C   0  0  0  0  0  0  0  0  0  0  0  0
   24.5829   -8.7602  -16.4501 O   0  0  0  0  0  0  0  0  0  0  0  0
   21.6912   -8.5168  -16.1716 C   0  0  0  0  0  0  0  0  0  0  0  0
   21.2094   -8.0049  -17.2075 O   0  0  0  0  0  0  0  0  0  0  0  0
   25.1963  -10.8094  -15.7735 O   0  0  0  0  0  0  0  0  0  0  0  0
   22.1381   -7.5933  -15.1946 N   0  0  0  0  0  0  0  0  0  0  0  0
   21.8733   -6.2199  -15.2684 C   0  0  1  0  0  0  0  0  0  0  0  0
   20.5362   -5.7240  -15.6308 C   0  0  0  0  0  0  0  0  0  0  0  0
   20.4982   -4.2390  -15.7281 C   0  0  0  0  0  0  0  0  0  0  0  0
   21.4520   -3.5508  -16.1838 O   0  0  0  0  0  0  0  0  0  0  0  0
   22.2001   -5.6320  -13.9365 C   0  0  0  0  0  0  0  0  0  0  0  0
   22.1771   -6.4067  -12.9510 O   0  0  0  0  0  0  0  0  0  0  0  0
   19.3823   -3.4991  -15.3144 O   0  0  0  0  0  0  0  0  0  0  0  0
   22.5148   -4.3118  -13.7648 O   0  0  0  0  0  0  0  0  0  0  0  0
  2  1  1  0
  2  3  2  0
  4  2  1  0
  4  5  1  0
  5  6  1  0
  6  7  1  6
  6  8  1  0
  8 10  1  0
  9  8  2  0
 10 11  1  0
 11 15  1  0
 11 12  1  6
 12 13  1  0
 13 17  1  0
 14 13  2  0
 15 18  1  0
 16 15  2  0
 18 19  1  0
 19 20  1  1
 20 21  1  0
 21 25  1  0
 22 21  2  0
 23 19  1  0
 23 26  1  0
 24 23  2  0
M  END
$$$$
