QDD.pdb
     RDKit          3D

 26 25  0  0  1  0  0  0  0  0999 V2000
   29.8374  -23.3724  -19.5792 N   0  0  0  0  0  0  0  0  0  0  0  0
   30.4602  -24.2904  -18.6569 C   0  0  0  0  0  0  0  0  0  0  0  0
   31.1204  -25.2198  -19.1602 O   0  0  0  0  0  0  0  0  0  0  0  0
   30.2506  -24.0199  -17.2288 C   0  0  0  0  0  0  0  0  0  0  0  0
   29.3806  -22.8888  -16.8968 C   0  0  0  0  0  0  0  0  0  0  0  0
   28.1102  -23.1019  -16.1655 C   0  0  2  0  0  0  0  0  0  0  0  0
   27.2124  -23.8771  -17.0961 N   0  0  0  0  0  0  0  0  0  0  0  0
   27.3808  -21.8822  -15.8140 C   0  0  0  0  0  0  0  0  0  0  0  0
   27.8487  -20.9677  -15.0596 O   0  0  0  0  0  0  0  0  0  0  0  0
   26.0451  -21.6518  -16.3235 N   0  0  0  0  0  0  0  0  0  0  0  0
   25.3650  -20.3993  -16.1678 C   0  0  1  0  0  0  0  0  0  0  0  0
   25.7351  -19.4046  -17.2499 C   0  0  0  0  0  0  0  0  0  0  0  0
   27.0205  -18.7407  -17.0374 C   0  0  0  0  0  0  0  0  0  0  0  0
   27.3265  -18.0125  -16.0641 O   0  0  0  0  0  0  0  0  0  0  0  0
   23.8843  -20.5854  -16.1066 C   0  0  0  0  0  0  0  0  0  0  0  0
   23.2705  -21.1449  -17.0432 O   0  0  0  0  0  0  0  0  0  0  0  0
   28.0107  -18.9233  -17.9968 O   0  0  0  0  0  0  0  0  0  0  0  0
   23.0745  -20.1586  -15.0253 N   0  0  0  0  0  0  0  0  0  0  0  0
   21.6917  -20.3763  -14.9781 C   0  0  1  0  0  0  0  0  0  0  0  0
   21.0622  -21.0014  -13.8043 C   0  0  0  0  0  0  0  0  0  0  0  0
   20.8663  -22.4656  -13.9883 C   0  0  0  0  0  0  0  0  0  0  0  0
   21.1217  -23.0677  -15.0668 O   0  0  0  0  0  0  0  0  0  0  0  0
   21.0269  -19.0536  -15.1653 C   0  0  0  0  0  0  0  0  0  0  0  0
   19.7880  -19.0613  -15.3574 O   0  0  0  0  0  0  0  0  0  0  0  0
   20.3791  -23.2818  -12.9585 O   0  0  0  0  0  0  0  0  0  0  0  0
   21.7095  -17.8685  -15.1342 O   0  0  0  0  0  0  0  0  0  0  0  0
  2  1  1  0
  2  3  2  0
  4  2  1  0
  4  5  1  0
  5  6  1  0
  6  7  1  6
  6  8  1  0
  8 10  1  0
  9  8  2  0
 10 11  1  0
 11 15  1  0
 11 12  1  6
 12 13  1  0
 13 17  1  0
 14 13  2  0
 15 18  1  0
 16 15  2  0
 18 19  1  0
 19 20  1  1
 20 21  1  0
 21 25  1  0
 22 21  2  0
 23 19  1  0
 23 26  1  0
 24 23  2  0
M  END
$$$$
