QDD.pdb
     RDKit          3D

 26 25  0  0  1  0  0  0  0  0999 V2000
   17.1180  -14.0257  -14.1531 N   0  0  0  0  0  0  0  0  0  0  0  0
   16.1879  -13.7003  -15.2068 C   0  0  0  0  0  0  0  0  0  0  0  0
   15.3226  -14.5584  -15.4673 O   0  0  0  0  0  0  0  0  0  0  0  0
   16.3631  -12.3905  -15.8475 C   0  0  0  0  0  0  0  0  0  0  0  0
   17.4029  -11.5220  -15.2899 C   0  0  0  0  0  0  0  0  0  0  0  0
   17.7525  -10.2426  -15.9495 C   0  0  2  0  0  0  0  0  0  0  0  0
   18.2407  -10.5993  -17.3306 N   0  0  0  0  0  0  0  0  0  0  0  0
   18.8349   -9.4888  -15.3142 C   0  0  0  0  0  0  0  0  0  0  0  0
   18.8603   -9.1906  -14.0754 O   0  0  0  0  0  0  0  0  0  0  0  0
   19.9657   -9.0288  -16.0928 N   0  0  0  0  0  0  0  0  0  0  0  0
   21.0968   -8.3765  -15.5003 C   0  0  1  0  0  0  0  0  0  0  0  0
   22.4090   -8.8424  -16.0987 C   0  0  0  0  0  0  0  0  0  0  0  0
   22.6890  -10.2628  -15.8931 C   0  0  0  0  0  0  0  0  0  0  0  0
   22.4949  -11.1839  -16.7209 O   0  0  0  0  0  0  0  0  0  0  0  0
   20.9767   -6.8902  -15.5850 C   0  0  0  0  0  0  0  0  0  0  0  0
   20.7934   -6.3248  -16.6868 O   0  0  0  0  0  0  0  0  0  0  0  0
   23.2221  -10.6475  -14.6675 O   0  0  0  0  0  0  0  0  0  0  0  0
   21.0593   -6.0221  -14.4684 N   0  0  0  0  0  0  0  0  0  0  0  0
   20.9706   -4.6288  -14.5798 C   0  0  1  0  0  0  0  0  0  0  0  0
   19.8441   -3.8909  -13.9870 C   0  0  0  0  0  0  0  0  0  0  0  0
   18.5380   -4.2991  -14.5733 C   0  0  0  0  0  0  0  0  0  0  0  0
   18.2314   -4.1060  -15.7814 O   0  0  0  0  0  0  0  0  0  0  0  0
   22.2148   -4.0554  -13.9883 C   0  0  0  0  0  0  0  0  0  0  0  0
   22.9800   -4.8495  -13.3919 O   0  0  0  0  0  0  0  0  0  0  0  0
   17.5507   -4.9351  -13.8088 O   0  0  0  0  0  0  0  0  0  0  0  0
   22.5351   -2.7283  -14.0756 O   0  0  0  0  0  0  0  0  0  0  0  0
  2  1  1  0
  2  3  2  0
  4  2  1  0
  4  5  1  0
  5  6  1  0
  6  7  1  6
  6  8  1  0
  8 10  1  0
  9  8  2  0
 10 11  1  0
 11 15  1  0
 11 12  1  6
 12 13  1  0
 13 17  1  0
 14 13  2  0
 15 18  1  0
 16 15  2  0
 18 19  1  0
 19 20  1  1
 20 21  1  0
 21 25  1  0
 22 21  2  0
 23 19  1  0
 23 26  1  0
 24 23  2  0
M  END
$$$$
