QDD.pdb
     RDKit          3D

 26 25  0  0  1  0  0  0  0  0999 V2000
   25.4388  -22.6184  -12.9642 N   0  0  0  0  0  0  0  0  0  0  0  0
   24.8692  -23.3775  -14.0507 C   0  0  0  0  0  0  0  0  0  0  0  0
   24.7719  -24.6076  -13.8767 O   0  0  0  0  0  0  0  0  0  0  0  0
   24.4619  -22.6117  -15.2358 C   0  0  0  0  0  0  0  0  0  0  0  0
   24.8617  -21.2028  -15.2749 C   0  0  0  0  0  0  0  0  0  0  0  0
   24.1212  -20.1853  -14.4936 C   0  0  2  0  0  0  0  0  0  0  0  0
   24.2666  -20.5772  -13.0451 N   0  0  0  0  0  0  0  0  0  0  0  0
   22.6827  -20.1210  -14.7584 C   0  0  0  0  0  0  0  0  0  0  0  0
   22.1814  -19.9347  -15.9151 O   0  0  0  0  0  0  0  0  0  0  0  0
   21.7293  -20.2690  -13.6786 N   0  0  0  0  0  0  0  0  0  0  0  0
   20.3118  -20.2629  -13.8942 C   0  0  1  0  0  0  0  0  0  0  0  0
   19.5889  -21.2489  -12.9987 C   0  0  0  0  0  0  0  0  0  0  0  0
   19.8540  -22.6513  -13.3169 C   0  0  0  0  0  0  0  0  0  0  0  0
   20.3450  -23.5068  -12.5432 O   0  0  0  0  0  0  0  0  0  0  0  0
   19.7412  -18.8915  -13.7375 C   0  0  0  0  0  0  0  0  0  0  0  0
   20.1596  -18.1228  -12.8425 O   0  0  0  0  0  0  0  0  0  0  0  0
   19.5377  -23.0968  -14.5958 O   0  0  0  0  0  0  0  0  0  0  0  0
   18.7131  -18.3612  -14.5555 N   0  0  0  0  0  0  0  0  0  0  0  0
   18.2442  -17.0472  -14.4319 C   0  0  1  0  0  0  0  0  0  0  0  0
   18.4070  -16.0779  -15.5268 C   0  0  0  0  0  0  0  0  0  0  0  0
   17.8320  -14.7477  -15.1859 C   0  0  0  0  0  0  0  0  0  0  0  0
   18.1721  -14.0876  -14.1664 O   0  0  0  0  0  0  0  0  0  0  0  0
   16.7823  -17.1224  -14.1422 C   0  0  0  0  0  0  0  0  0  0  0  0
   16.1459  -18.0669  -14.6664 O   0  0  0  0  0  0  0  0  0  0  0  0
   16.8617  -14.1336  -15.9893 O   0  0  0  0  0  0  0  0  0  0  0  0
   16.1359  -16.2177  -13.3452 O   0  0  0  0  0  0  0  0  0  0  0  0
  2  1  1  0
  2  3  2  0
  4  2  1  0
  4  5  1  0
  5  6  1  0
  6  7  1  1
  6  8  1  0
  8 10  1  0
  9  8  2  0
 10 11  1  0
 11 15  1  0
 11 12  1  1
 12 13  1  0
 13 17  1  0
 14 13  2  0
 15 18  1  0
 16 15  2  0
 18 19  1  0
 19 20  1  6
 20 21  1  0
 21 25  1  0
 22 21  2  0
 23 19  1  0
 23 26  1  0
 24 23  2  0
M  END
$$$$
