QDD.pdb
     RDKit          3D

 26 25  0  0  1  0  0  0  0  0999 V2000
   12.4133  -13.5011  -11.9305 N   0  0  0  0  0  0  0  0  0  0  0  0
   13.4669  -14.4706  -12.1079 C   0  0  0  0  0  0  0  0  0  0  0  0
   13.3988  -15.4983  -11.4064 O   0  0  0  0  0  0  0  0  0  0  0  0
   14.4961  -14.1381  -13.1012 C   0  0  0  0  0  0  0  0  0  0  0  0
   14.3479  -12.8561  -13.7947 C   0  0  0  0  0  0  0  0  0  0  0  0
   15.4155  -11.8316  -13.7252 C   0  0  2  0  0  0  0  0  0  0  0  0
   16.5085  -12.4183  -12.8683 N   0  0  0  0  0  0  0  0  0  0  0  0
   15.0291  -10.5704  -13.0898 C   0  0  0  0  0  0  0  0  0  0  0  0
   14.0269   -9.8712  -13.4515 O   0  0  0  0  0  0  0  0  0  0  0  0
   15.7973  -10.0394  -11.9832 N   0  0  0  0  0  0  0  0  0  0  0  0
   15.5164   -8.7646  -11.3900 C   0  0  1  0  0  0  0  0  0  0  0  0
   15.7435   -8.7641   -9.8916 C   0  0  0  0  0  0  0  0  0  0  0  0
   15.4566   -7.4849   -9.2438 C   0  0  0  0  0  0  0  0  0  0  0  0
   15.0430   -6.4447   -9.8081 O   0  0  0  0  0  0  0  0  0  0  0  0
   16.3005   -7.6736  -12.0426 C   0  0  0  0  0  0  0  0  0  0  0  0
   17.5462   -7.7509  -12.1396 O   0  0  0  0  0  0  0  0  0  0  0  0
   15.6560   -7.3947   -7.8703 O   0  0  0  0  0  0  0  0  0  0  0  0
   15.7253   -6.4985  -12.5862 N   0  0  0  0  0  0  0  0  0  0  0  0
   16.4737   -5.5298  -13.2668 C   0  0  1  0  0  0  0  0  0  0  0  0
   16.6120   -5.5692  -14.7311 C   0  0  0  0  0  0  0  0  0  0  0  0
   17.4245   -4.4332  -15.2467 C   0  0  0  0  0  0  0  0  0  0  0  0
   18.6264   -4.2372  -14.9184 O   0  0  0  0  0  0  0  0  0  0  0  0
   15.8901   -4.1987  -12.9288 C   0  0  0  0  0  0  0  0  0  0  0  0
   14.6405   -4.1012  -12.9574 O   0  0  0  0  0  0  0  0  0  0  0  0
   16.8980   -3.4951  -16.1448 O   0  0  0  0  0  0  0  0  0  0  0  0
   16.6561   -3.1145  -12.5985 O   0  0  0  0  0  0  0  0  0  0  0  0
  2  1  1  0
  2  3  2  0
  4  2  1  0
  4  5  1  0
  5  6  1  0
  6  7  1  1
  6  8  1  0
  8 10  1  0
  9  8  2  0
 10 11  1  0
 11 15  1  0
 11 12  1  1
 12 13  1  0
 13 17  1  0
 14 13  2  0
 15 18  1  0
 16 15  2  0
 18 19  1  0
 19 20  1  6
 20 21  1  0
 21 25  1  0
 22 21  2  0
 23 19  1  0
 23 26  1  0
 24 23  2  0
M  END
$$$$
