QDD.pdb
     RDKit          3D

 26 25  0  0  1  0  0  0  0  0999 V2000
   12.5907  -13.5524  -12.2935 N   0  0  0  0  0  0  0  0  0  0  0  0
   11.9808  -13.6140  -10.9876 C   0  0  0  0  0  0  0  0  0  0  0  0
   11.5513  -14.7271  -10.6280 O   0  0  0  0  0  0  0  0  0  0  0  0
   11.9425  -12.3579  -10.2277 C   0  0  0  0  0  0  0  0  0  0  0  0
   12.6297  -11.2097  -10.8244 C   0  0  0  0  0  0  0  0  0  0  0  0
   14.0769  -10.9925  -10.5948 C   0  0  2  0  0  0  0  0  0  0  0  0
   14.3140  -11.2445   -9.1274 N   0  0  0  0  0  0  0  0  0  0  0  0
   14.5532   -9.6337  -10.8596 C   0  0  0  0  0  0  0  0  0  0  0  0
   14.3840   -9.0252  -11.9665 O   0  0  0  0  0  0  0  0  0  0  0  0
   15.2665   -8.8932   -9.8399 N   0  0  0  0  0  0  0  0  0  0  0  0
   15.6739   -7.5302  -10.0187 C   0  0  1  0  0  0  0  0  0  0  0  0
   15.6636   -6.7509   -8.7188 C   0  0  0  0  0  0  0  0  0  0  0  0
   16.0163   -5.3394   -8.8652 C   0  0  0  0  0  0  0  0  0  0  0  0
   16.2111   -4.7321   -9.9444 O   0  0  0  0  0  0  0  0  0  0  0  0
   17.0120   -7.4415  -10.6762 C   0  0  0  0  0  0  0  0  0  0  0  0
   17.9807   -8.1088  -10.2481 O   0  0  0  0  0  0  0  0  0  0  0  0
   16.1532   -4.5820   -7.7067 O   0  0  0  0  0  0  0  0  0  0  0  0
   17.2926   -6.6232  -11.7982 N   0  0  0  0  0  0  0  0  0  0  0  0
   18.4710   -6.7363  -12.5466 C   0  0  1  0  0  0  0  0  0  0  0  0
   18.8821   -8.0261  -13.1232 C   0  0  0  0  0  0  0  0  0  0  0  0
   20.1529   -7.9156  -13.8908 C   0  0  0  0  0  0  0  0  0  0  0  0
   21.1541   -7.2665  -13.4818 O   0  0  0  0  0  0  0  0  0  0  0  0
   18.3705   -5.7737  -13.6823 C   0  0  0  0  0  0  0  0  0  0  0  0
   19.3697   -5.6720  -14.4326 O   0  0  0  0  0  0  0  0  0  0  0  0
   20.3213   -8.5366  -15.1358 O   0  0  0  0  0  0  0  0  0  0  0  0
   17.2530   -5.0217  -13.9214 O   0  0  0  0  0  0  0  0  0  0  0  0
  2  1  1  0
  2  3  2  0
  4  2  1  0
  4  5  1  0
  5  6  1  0
  6  7  1  1
  6  8  1  0
  8 10  1  0
  9  8  2  0
 10 11  1  0
 11 15  1  0
 11 12  1  1
 12 13  1  0
 13 17  1  0
 14 13  2  0
 15 18  1  0
 16 15  2  0
 18 19  1  0
 19 20  1  6
 20 21  1  0
 21 25  1  0
 22 21  2  0
 23 19  1  0
 23 26  1  0
 24 23  2  0
M  END
$$$$
