QDD.pdb
     RDKit          3D

 26 25  0  0  1  0  0  0  0  0999 V2000
   18.5619  -15.9431  -18.2976 N   0  0  0  0  0  0  0  0  0  0  0  0
   18.3845  -15.7947  -16.8736 C   0  0  0  0  0  0  0  0  0  0  0  0
   17.8407  -16.7460  -16.2803 O   0  0  0  0  0  0  0  0  0  0  0  0
   18.8724  -14.5410  -16.2845 C   0  0  0  0  0  0  0  0  0  0  0  0
   19.4128  -13.5465  -17.2148 C   0  0  0  0  0  0  0  0  0  0  0  0
   19.7307  -12.1751  -16.7539 C   0  0  2  0  0  0  0  0  0  0  0  0
   20.2334  -12.3111  -15.3390 N   0  0  0  0  0  0  0  0  0  0  0  0
   18.5922  -11.2564  -16.6978 C   0  0  0  0  0  0  0  0  0  0  0  0
   18.0069  -10.7876  -17.7283 O   0  0  0  0  0  0  0  0  0  0  0  0
   18.0616  -10.8205  -15.4230 N   0  0  0  0  0  0  0  0  0  0  0  0
   16.9804   -9.8848  -15.3162 C   0  0  1  0  0  0  0  0  0  0  0  0
   15.9807  -10.2795  -14.2477 C   0  0  0  0  0  0  0  0  0  0  0  0
   15.1402  -11.4207  -14.6076 C   0  0  0  0  0  0  0  0  0  0  0  0
   14.5619  -11.5982  -15.7055 O   0  0  0  0  0  0  0  0  0  0  0  0
   17.4800   -8.4966  -15.0841 C   0  0  0  0  0  0  0  0  0  0  0  0
   18.3981   -8.2761  -14.2621 O   0  0  0  0  0  0  0  0  0  0  0  0
   14.9529  -12.4144  -13.6527 O   0  0  0  0  0  0  0  0  0  0  0  0
   16.9759   -7.3502  -15.7466 N   0  0  0  0  0  0  0  0  0  0  0  0
   17.5292   -6.0736  -15.5854 C   0  0  1  0  0  0  0  0  0  0  0  0
   18.5957   -5.5914  -16.4771 C   0  0  0  0  0  0  0  0  0  0  0  0
   18.9851   -4.1869  -16.1741 C   0  0  0  0  0  0  0  0  0  0  0  0
   18.6113   -3.5734  -15.1374 O   0  0  0  0  0  0  0  0  0  0  0  0
   16.4121   -5.0893  -15.6849 C   0  0  0  0  0  0  0  0  0  0  0  0
   15.5726   -5.2712  -16.5980 O   0  0  0  0  0  0  0  0  0  0  0  0
   19.8059   -3.4451  -17.0344 O   0  0  0  0  0  0  0  0  0  0  0  0
   16.2816   -4.0261  -14.8339 O   0  0  0  0  0  0  0  0  0  0  0  0
  2  1  1  0
  2  3  2  0
  4  2  1  0
  4  5  1  0
  5  6  1  0
  6  7  1  1
  6  8  1  0
  8 10  1  0
  9  8  2  0
 10 11  1  0
 11 15  1  0
 11 12  1  1
 12 13  1  0
 13 17  1  0
 14 13  2  0
 15 18  1  0
 16 15  2  0
 18 19  1  0
 19 20  1  6
 20 21  1  0
 21 25  1  0
 22 21  2  0
 23 19  1  0
 23 26  1  0
 24 23  2  0
M  END
$$$$
