QDD.pdb
     RDKit          3D

 26 25  0  0  1  0  0  0  0  0999 V2000
   20.9057  -21.2854  -16.6457 N   0  0  0  0  0  0  0  0  0  0  0  0
   20.0594  -22.0996  -15.8077 C   0  0  0  0  0  0  0  0  0  0  0  0
   19.3473  -22.9407  -16.3893 O   0  0  0  0  0  0  0  0  0  0  0  0
   20.1396  -21.8485  -14.3630 C   0  0  0  0  0  0  0  0  0  0  0  0
   21.0327  -20.7693  -13.9339 C   0  0  0  0  0  0  0  0  0  0  0  0
   20.5249  -19.3871  -13.7731 C   0  0  2  0  0  0  0  0  0  0  0  0
   19.2295  -19.3213  -14.5418 N   0  0  0  0  0  0  0  0  0  0  0  0
   21.3838  -18.3388  -14.3268 C   0  0  0  0  0  0  0  0  0  0  0  0
   22.5436  -18.0605  -13.8779 O   0  0  0  0  0  0  0  0  0  0  0  0
   20.9376  -17.5394  -15.4487 N   0  0  0  0  0  0  0  0  0  0  0  0
   21.6671  -16.3997  -15.9230 C   0  0  1  0  0  0  0  0  0  0  0  0
   22.4362  -16.6967  -17.1948 C   0  0  0  0  0  0  0  0  0  0  0  0
   23.2326  -15.5739  -17.6878 C   0  0  0  0  0  0  0  0  0  0  0  0
   22.8220  -14.6337  -18.4081 O   0  0  0  0  0  0  0  0  0  0  0  0
   20.7729  -15.2182  -16.1111 C   0  0  0  0  0  0  0  0  0  0  0  0
   19.6134  -15.3587  -16.5614 O   0  0  0  0  0  0  0  0  0  0  0  0
   24.5769  -15.5279  -17.3339 O   0  0  0  0  0  0  0  0  0  0  0  0
   21.1455  -13.8848  -15.8105 N   0  0  0  0  0  0  0  0  0  0  0  0
   20.2564  -12.8068  -15.9053 C   0  0  1  0  0  0  0  0  0  0  0  0
   20.3818  -11.6402  -15.0173 C   0  0  0  0  0  0  0  0  0  0  0  0
   19.3266  -10.6230  -15.2783 C   0  0  0  0  0  0  0  0  0  0  0  0
   18.0957  -10.8960  -15.3125 O   0  0  0  0  0  0  0  0  0  0  0  0
   20.3324  -12.2894  -17.3028 C   0  0  0  0  0  0  0  0  0  0  0  0
   21.4456  -12.3579  -17.8755 O   0  0  0  0  0  0  0  0  0  0  0  0
   19.6383   -9.2756  -15.5050 O   0  0  0  0  0  0  0  0  0  0  0  0
   19.2549  -11.7587  -17.9576 O   0  0  0  0  0  0  0  0  0  0  0  0
  2  1  1  0
  2  3  2  0
  4  2  1  0
  4  5  1  0
  5  6  1  0
  6  7  1  6
  6  8  1  0
  8 10  1  0
  9  8  2  0
 10 11  1  0
 11 15  1  0
 11 12  1  6
 12 13  1  0
 13 17  1  0
 14 13  2  0
 15 18  1  0
 16 15  2  0
 18 19  1  0
 19 20  1  1
 20 21  1  0
 21 25  1  0
 22 21  2  0
 23 19  1  0
 23 26  1  0
 24 23  2  0
M  END
$$$$
