QDD.pdb
     RDKit          3D

 26 25  0  0  1  0  0  0  0  0999 V2000
   15.4656  -12.9702  -16.5991 N   0  0  0  0  0  0  0  0  0  0  0  0
   16.1087  -14.2342  -16.3344 C   0  0  0  0  0  0  0  0  0  0  0  0
   15.3750  -15.1549  -15.9259 O   0  0  0  0  0  0  0  0  0  0  0  0
   17.5546  -14.2932  -16.5842 C   0  0  0  0  0  0  0  0  0  0  0  0
   18.1804  -13.0745  -17.1033 C   0  0  0  0  0  0  0  0  0  0  0  0
   18.8920  -12.1450  -16.1956 C   0  0  2  0  0  0  0  0  0  0  0  0
   18.2576  -12.3122  -14.8381 N   0  0  0  0  0  0  0  0  0  0  0  0
   18.7682  -10.7260  -16.5339 C   0  0  0  0  0  0  0  0  0  0  0  0
   19.2797  -10.1970  -17.5744 O   0  0  0  0  0  0  0  0  0  0  0  0
   18.0345   -9.8255  -15.6692 N   0  0  0  0  0  0  0  0  0  0  0  0
   17.7979   -8.4524  -16.0073 C   0  0  1  0  0  0  0  0  0  0  0  0
   16.3374   -8.0700  -15.8743 C   0  0  0  0  0  0  0  0  0  0  0  0
   16.0538   -6.6720  -16.1959 C   0  0  0  0  0  0  0  0  0  0  0  0
   16.5688   -6.0059  -17.1246 O   0  0  0  0  0  0  0  0  0  0  0  0
   18.6587   -7.5352  -15.2019 C   0  0  0  0  0  0  0  0  0  0  0  0
   18.8247   -7.7257  -13.9759 O   0  0  0  0  0  0  0  0  0  0  0  0
   15.1263   -6.0006  -15.4064 O   0  0  0  0  0  0  0  0  0  0  0  0
   19.3352   -6.4100  -15.7342 N   0  0  0  0  0  0  0  0  0  0  0  0
   20.1636   -5.5852  -14.9626 C   0  0  1  0  0  0  0  0  0  0  0  0
   21.6150   -5.5345  -15.1988 C   0  0  0  0  0  0  0  0  0  0  0  0
   22.2888   -4.5342  -14.3261 C   0  0  0  0  0  0  0  0  0  0  0  0
   22.3474   -4.6394  -13.0706 O   0  0  0  0  0  0  0  0  0  0  0  0
   19.6587   -4.1885  -15.1065 C   0  0  0  0  0  0  0  0  0  0  0  0
   19.7924   -3.4300  -14.1172 O   0  0  0  0  0  0  0  0  0  0  0  0
   22.9120   -3.3946  -14.8521 O   0  0  0  0  0  0  0  0  0  0  0  0
   19.0720   -3.7255  -16.2523 O   0  0  0  0  0  0  0  0  0  0  0  0
  2  1  1  0
  2  3  2  0
  4  2  1  0
  4  5  1  0
  5  6  1  0
  6  7  1  1
  6  8  1  0
  8 10  1  0
  9  8  2  0
 10 11  1  0
 11 15  1  0
 11 12  1  1
 12 13  1  0
 13 17  1  0
 14 13  2  0
 15 18  1  0
 16 15  2  0
 18 19  1  0
 19 20  1  6
 20 21  1  0
 21 25  1  0
 22 21  2  0
 23 19  1  0
 23 26  1  0
 24 23  2  0
M  END
$$$$
