QDD.pdb
     RDKit          3D

 26 25  0  0  1  0  0  0  0  0999 V2000
   19.3858  -15.1230  -18.0440 N   0  0  0  0  0  0  0  0  0  0  0  0
   20.3174  -15.4485  -19.0963 C   0  0  0  0  0  0  0  0  0  0  0  0
   20.6851  -16.6373  -19.1633 O   0  0  0  0  0  0  0  0  0  0  0  0
   20.7206  -14.3418  -19.9734 C   0  0  0  0  0  0  0  0  0  0  0  0
   20.1372  -13.0296  -19.6833 C   0  0  0  0  0  0  0  0  0  0  0  0
   20.9289  -11.9872  -18.9900 C   0  0  2  0  0  0  0  0  0  0  0  0
   21.6346  -12.6803  -17.8520 N   0  0  0  0  0  0  0  0  0  0  0  0
   20.1459  -10.9061  -18.3889 C   0  0  0  0  0  0  0  0  0  0  0  0
   19.4644  -10.0647  -19.0611 O   0  0  0  0  0  0  0  0  0  0  0  0
   20.1108  -10.7354  -16.9514 N   0  0  0  0  0  0  0  0  0  0  0  0
   19.3984   -9.6640  -16.3185 C   0  0  1  0  0  0  0  0  0  0  0  0
   18.4115  -10.1620  -15.2817 C   0  0  0  0  0  0  0  0  0  0  0  0
   17.6795   -9.0993  -14.5941 C   0  0  0  0  0  0  0  0  0  0  0  0
   18.1408   -8.3260  -13.7219 O   0  0  0  0  0  0  0  0  0  0  0  0
   20.3332   -8.6648  -15.7198 C   0  0  0  0  0  0  0  0  0  0  0  0
   21.3413   -9.0365  -15.0774 O   0  0  0  0  0  0  0  0  0  0  0  0
   16.3418   -8.9137  -14.9266 O   0  0  0  0  0  0  0  0  0  0  0  0
   20.1660   -7.2616  -15.8201 N   0  0  0  0  0  0  0  0  0  0  0  0
   21.0614   -6.3462  -15.2526 C   0  0  1  0  0  0  0  0  0  0  0  0
   21.0505   -4.9294  -15.6494 C   0  0  0  0  0  0  0  0  0  0  0  0
   22.1448   -4.1581  -14.9984 C   0  0  0  0  0  0  0  0  0  0  0  0
   23.0068   -4.6837  -14.2423 O   0  0  0  0  0  0  0  0  0  0  0  0
   20.8523   -6.3773  -13.7755 C   0  0  0  0  0  0  0  0  0  0  0  0
   21.8747   -6.4840  -13.0578 O   0  0  0  0  0  0  0  0  0  0  0  0
   22.2904   -2.7772  -15.1880 O   0  0  0  0  0  0  0  0  0  0  0  0
   19.6143   -6.2952  -13.1990 O   0  0  0  0  0  0  0  0  0  0  0  0
  2  1  1  0
  2  3  2  0
  4  2  1  0
  4  5  1  0
  5  6  1  0
  6  7  1  1
  6  8  1  0
  8 10  1  0
  9  8  2  0
 10 11  1  0
 11 15  1  0
 11 12  1  1
 12 13  1  0
 13 17  1  0
 14 13  2  0
 15 18  1  0
 16 15  2  0
 18 19  1  0
 19 20  1  6
 20 21  1  0
 21 25  1  0
 22 21  2  0
 23 19  1  0
 23 26  1  0
 24 23  2  0
M  END
$$$$
