RWP.pdb
     RDKit          3D

 33 35  0  0  1  0  0  0  0  0999 V2000
   34.0460  -25.3260  -15.4120 N   0  0  0  0  0  0  0  0  0  0  0  0
   33.5420  -24.7173  -16.5846 C   0  0  0  0  0  0  0  0  0  0  0  0
   34.3061  -23.9030  -17.2277 N   0  0  0  0  0  0  0  0  0  0  0  0
   32.2269  -24.9708  -17.0771 N   0  0  0  0  0  0  0  0  0  0  0  0
   31.0578  -24.4860  -16.3770 C   0  0  0  0  0  0  0  0  0  0  0  0
   30.9159  -23.0226  -16.6985 C   0  0  0  0  0  0  0  0  0  0  0  0
   29.9650  -22.2925  -15.8105 C   0  0  0  0  0  0  0  0  0  0  0  0
   30.3235  -22.3664  -14.3442 C   0  0  2  0  0  0  0  0  0  0  0  0
   30.8157  -23.6739  -14.0494 N   0  0  0  0  0  0  0  0  0  0  0  0
   29.0831  -22.0385  -13.5687 C   0  0  0  0  0  0  0  0  0  0  0  0
   27.9894  -22.5172  -13.9661 O   0  0  0  0  0  0  0  0  0  0  0  0
   34.0505  -23.5419  -18.1526 N   0  0  0  0  0  0  0  0  0  0  0  0
   29.1445  -21.2095  -12.4167 C   0  0  1  0  0  0  0  0  0  0  0  0
   28.0585  -21.1517  -11.4657 C   0  0  0  0  0  0  0  0  0  0  0  0
   28.5920  -20.6776  -10.1286 C   0  0  0  0  0  0  0  0  0  0  0  0
   27.6237  -20.5635   -9.0452 C   0  0  0  0  0  0  0  0  0  0  0  0
   26.2225  -20.5695   -9.1387 N   0  0  0  0  0  0  0  0  0  0  0  0
   25.7169  -20.4060   -7.9134 C   0  0  0  0  0  0  0  0  0  0  0  0
   26.6868  -20.2909   -7.0004 C   0  0  0  0  0  0  0  0  0  0  0  0
   26.6582  -20.1254   -5.6234 C   0  0  0  0  0  0  0  0  0  0  0  0
   27.8478  -20.0574   -4.9295 C   0  0  0  0  0  0  0  0  0  0  0  0
   29.0684  -20.1512   -5.5812 C   0  0  0  0  0  0  0  0  0  0  0  0
   29.0348  -20.3135   -6.9450 C   0  0  0  0  0  0  0  0  0  0  0  0
   27.8734  -20.3873   -7.6900 C   0  0  0  0  0  0  0  0  0  0  0  0
   26.8172  -20.5599  -11.9104 O   0  0  0  0  0  0  0  0  0  0  0  0
   26.7956  -19.2740  -11.9900 N   0  0  0  0  0  0  0  0  0  0  0  0
   25.6210  -21.2429  -12.2689 C   0  0  0  0  0  0  0  0  0  0  0  0
   25.3010  -22.6268  -12.3087 C   0  0  0  0  0  0  0  0  0  0  0  0
   23.7907  -22.6667  -12.0528 C   0  0  0  0  0  0  0  0  0  0  0  0
   23.3767  -21.5568  -13.0352 C   0  0  1  0  0  0  0  0  0  0  0  0
   24.4258  -20.5124  -12.7262 C   0  0  0  0  0  0  0  0  0  0  0  0
   23.9572  -19.5373  -11.7307 O   0  0  0  0  0  0  0  0  0  0  0  0
   23.1451  -18.4945  -12.1053 O   0  0  0  0  0  0  0  0  0  0  0  0
  2  1  1  0
  3  2  2  0
  4  2  1  0
  5  4  1  0
  6  5  1  0
  7  6  1  0
  8  9  1  1
  8  7  1  0
 10  8  1  0
 10 11  2  0
 12 10  1  0
 13 12  1  0
 13 14  1  1
 14 15  1  0
 15 16  2  0
 16 17  1  0
 18 17  1  0
 19 18  2  0
 20 19  1  0
 21 22  1  0
 21 20  2  0
 22 23  2  0
 23 15  1  0
 23 18  1  0
 24 13  1  0
 25 24  2  0
 26 27  1  0
 26 24  1  0
 28 27  1  0
 29 28  1  0
 30 29  1  0
 30 26  1  0
 30 31  1  1
 31 32  1  0
 33 31  2  0
M  END
$$$$
