RWP.pdb
     RDKit          3D

 33 35  0  0  1  0  0  0  0  0999 V2000
   28.3305  -30.0714  -17.5714 N   0  0  0  0  0  0  0  0  0  0  0  0
   27.1867  -29.6090  -16.8804 C   0  0  0  0  0  0  0  0  0  0  0  0
   26.5558  -30.4362  -16.1200 N   0  0  0  0  0  0  0  0  0  0  0  0
   26.7099  -28.2690  -16.9947 N   0  0  0  0  0  0  0  0  0  0  0  0
   27.3698  -27.3090  -17.8519 C   0  0  0  0  0  0  0  0  0  0  0  0
   28.6302  -26.8745  -17.1536 C   0  0  0  0  0  0  0  0  0  0  0  0
   28.4970  -25.5982  -16.3926 C   0  0  0  0  0  0  0  0  0  0  0  0
   28.1765  -24.4033  -17.2606 C   0  0  2  0  0  0  0  0  0  0  0  0
   29.2590  -24.1792  -18.1643 N   0  0  0  0  0  0  0  0  0  0  0  0
   27.9519  -23.2385  -16.3438 C   0  0  0  0  0  0  0  0  0  0  0  0
   28.3420  -23.3363  -15.1516 O   0  0  0  0  0  0  0  0  0  0  0  0
   25.7494  -30.1435  -15.5586 N   0  0  0  0  0  0  0  0  0  0  0  0
   27.3155  -22.0578  -16.8120 C   0  0  2  0  0  0  0  0  0  0  0  0
   27.0346  -20.9479  -15.9311 C   0  0  0  0  0  0  0  0  0  0  0  0
   27.1310  -19.6537  -16.7140 C   0  0  0  0  0  0  0  0  0  0  0  0
   26.7820  -18.4328  -15.9984 C   0  0  0  0  0  0  0  0  0  0  0  0
   27.5629  -17.7262  -15.0695 N   0  0  0  0  0  0  0  0  0  0  0  0
   26.8533  -16.6849  -14.6268 C   0  0  0  0  0  0  0  0  0  0  0  0
   25.6452  -16.6439  -15.1979 C   0  0  0  0  0  0  0  0  0  0  0  0
   24.5827  -15.7608  -15.0731 C   0  0  0  0  0  0  0  0  0  0  0  0
   23.4442  -15.9683  -15.8227 C   0  0  0  0  0  0  0  0  0  0  0  0
   23.3424  -17.0405  -16.6963 C   0  0  0  0  0  0  0  0  0  0  0  0
   24.4253  -17.8821  -16.7777 C   0  0  0  0  0  0  0  0  0  0  0  0
   25.5893  -17.7223  -16.0504 C   0  0  0  0  0  0  0  0  0  0  0  0
   25.9056  -21.0780  -15.0382 O   0  0  0  0  0  0  0  0  0  0  0  0
   24.7675  -21.3223  -15.5908 N   0  0  0  0  0  0  0  0  0  0  0  0
   25.9164  -20.9660  -13.6193 C   0  0  0  0  0  0  0  0  0  0  0  0
   26.9802  -20.7774  -12.6963 C   0  0  0  0  0  0  0  0  0  0  0  0
   26.3272  -20.0415  -11.5215 C   0  0  0  0  0  0  0  0  0  0  0  0
   25.0783  -20.9294  -11.3789 C   0  0  1  0  0  0  0  0  0  0  0  0
   24.6766  -21.0719  -12.8299 C   0  0  0  0  0  0  0  0  0  0  0  0
   23.6788  -20.0681  -13.2273 O   0  0  0  0  0  0  0  0  0  0  0  0
   22.3848  -20.1545  -12.7743 O   0  0  0  0  0  0  0  0  0  0  0  0
  2  1  1  0
  3  2  2  0
  4  2  1  0
  5  4  1  0
  6  5  1  0
  7  6  1  0
  8  9  1  6
  8  7  1  0
 10  8  1  0
 10 11  2  0
 12 10  1  0
 13 12  1  0
 13 14  1  6
 14 15  1  0
 15 16  2  0
 16 17  1  0
 18 17  1  0
 19 18  2  0
 20 19  1  0
 21 22  1  0
 21 20  2  0
 22 23  2  0
 23 15  1  0
 23 18  1  0
 24 13  1  0
 25 24  2  0
 26 27  1  0
 26 24  1  0
 28 27  1  0
 29 28  1  0
 30 29  1  0
 30 26  1  0
 30 31  1  6
 31 32  1  0
 33 31  2  0
M  END
$$$$
