RWP.pdb
     RDKit          3D

 33 35  0  0  1  0  0  0  0  0999 V2000
   27.9465  -27.4399  -16.4529 N   0  0  0  0  0  0  0  0  0  0  0  0
   27.3933  -27.7408  -17.7190 C   0  0  0  0  0  0  0  0  0  0  0  0
   27.2461  -28.9792  -18.0433 N   0  0  0  0  0  0  0  0  0  0  0  0
   26.9956  -26.7291  -18.6434 N   0  0  0  0  0  0  0  0  0  0  0  0
   26.9895  -25.3321  -18.2691 C   0  0  0  0  0  0  0  0  0  0  0  0
   28.3710  -24.9920  -17.7785 C   0  0  0  0  0  0  0  0  0  0  0  0
   28.3922  -24.2221  -16.5008 C   0  0  0  0  0  0  0  0  0  0  0  0
   28.0414  -22.7613  -16.6652 C   0  0  2  0  0  0  0  0  0  0  0  0
   29.2409  -21.9873  -16.6374 N   0  0  0  0  0  0  0  0  0  0  0  0
   27.1081  -22.4024  -15.5481 C   0  0  0  0  0  0  0  0  0  0  0  0
   27.0487  -23.1701  -14.5531 O   0  0  0  0  0  0  0  0  0  0  0  0
   26.9237  -29.2567  -18.9761 N   0  0  0  0  0  0  0  0  0  0  0  0
   26.3140  -21.2263  -15.6147 C   0  0  1  0  0  0  0  0  0  0  0  0
   25.4847  -20.8081  -14.5081 C   0  0  0  0  0  0  0  0  0  0  0  0
   26.1356  -19.6270  -13.8164 C   0  0  0  0  0  0  0  0  0  0  0  0
   27.2176  -19.9319  -12.8885 C   0  0  0  0  0  0  0  0  0  0  0  0
   28.5913  -20.0193  -13.1667 N   0  0  0  0  0  0  0  0  0  0  0  0
   29.2293  -20.3545  -12.0423 C   0  0  0  0  0  0  0  0  0  0  0  0
   28.3745  -20.4977  -11.0245 C   0  0  0  0  0  0  0  0  0  0  0  0
   28.5597  -20.8163   -9.6871 C   0  0  0  0  0  0  0  0  0  0  0  0
   27.4646  -20.8724   -8.8512 C   0  0  0  0  0  0  0  0  0  0  0  0
   26.1853  -20.6170   -9.3218 C   0  0  0  0  0  0  0  0  0  0  0  0
   26.0627  -20.3076  -10.6548 C   0  0  0  0  0  0  0  0  0  0  0  0
   27.1242  -20.2380  -11.5367 C   0  0  0  0  0  0  0  0  0  0  0  0
   24.0619  -20.7127  -14.7435 O   0  0  0  0  0  0  0  0  0  0  0  0
   23.6881  -19.8628  -15.6368 N   0  0  0  0  0  0  0  0  0  0  0  0
   23.0337  -21.4547  -14.0970 C   0  0  0  0  0  0  0  0  0  0  0  0
   23.0857  -22.4764  -13.1107 C   0  0  0  0  0  0  0  0  0  0  0  0
   21.7618  -22.3296  -12.3530 C   0  0  0  0  0  0  0  0  0  0  0  0
   20.8281  -22.2174  -13.5712 C   0  0  1  0  0  0  0  0  0  0  0  0
   21.6127  -21.2507  -14.4295 C   0  0  0  0  0  0  0  0  0  0  0  0
   21.1888  -19.8585  -14.2211 O   0  0  0  0  0  0  0  0  0  0  0  0
   19.9532  -19.4351  -14.6472 O   0  0  0  0  0  0  0  0  0  0  0  0
  2  1  1  0
  3  2  2  0
  4  2  1  0
  5  4  1  0
  6  5  1  0
  7  6  1  0
  8  9  1  1
  8  7  1  0
 10  8  1  0
 10 11  2  0
 12 10  1  0
 13 12  1  0
 13 14  1  1
 14 15  1  0
 15 16  2  0
 16 17  1  0
 18 17  1  0
 19 18  2  0
 20 19  1  0
 21 22  1  0
 21 20  2  0
 22 23  2  0
 23 15  1  0
 23 18  1  0
 24 13  1  0
 25 24  2  0
 26 27  1  0
 26 24  1  0
 28 27  1  0
 29 28  1  0
 30 29  1  0
 30 26  1  0
 30 31  1  1
 31 32  1  0
 33 31  2  0
M  END
$$$$
