RWP.pdb
     RDKit          3D

 33 35  0  0  1  0  0  0  0  0999 V2000
   31.6154  -17.7967  -18.3149 N   0  0  0  0  0  0  0  0  0  0  0  0
   31.0145  -16.5339  -18.5247 C   0  0  0  0  0  0  0  0  0  0  0  0
   31.5838  -15.7137  -19.3393 N   0  0  0  0  0  0  0  0  0  0  0  0
   29.8093  -16.1387  -17.8709 N   0  0  0  0  0  0  0  0  0  0  0  0
   29.1810  -16.9856  -16.8810 C   0  0  0  0  0  0  0  0  0  0  0  0
   28.2205  -17.8890  -17.6066 C   0  0  0  0  0  0  0  0  0  0  0  0
   27.4732  -18.8250  -16.7172 C   0  0  0  0  0  0  0  0  0  0  0  0
   28.3504  -19.8562  -16.0454 C   0  0  2  0  0  0  0  0  0  0  0  0
   28.7603  -20.8222  -17.0137 N   0  0  0  0  0  0  0  0  0  0  0  0
   27.5451  -20.4681  -14.9387 C   0  0  0  0  0  0  0  0  0  0  0  0
   26.6079  -21.2490  -15.2468 O   0  0  0  0  0  0  0  0  0  0  0  0
   31.2216  -14.7665  -19.4901 N   0  0  0  0  0  0  0  0  0  0  0  0
   27.8354  -20.1720  -13.5799 C   0  0  2  0  0  0  0  0  0  0  0  0
   27.0055  -20.6615  -12.5035 C   0  0  0  0  0  0  0  0  0  0  0  0
   27.7217  -20.4468  -11.1851 C   0  0  0  0  0  0  0  0  0  0  0  0
   26.9237  -20.6120   -9.9767 C   0  0  0  0  0  0  0  0  0  0  0  0
   25.6887  -21.2672   -9.8434 N   0  0  0  0  0  0  0  0  0  0  0  0
   25.2870  -21.1567   -8.5745 C   0  0  0  0  0  0  0  0  0  0  0  0
   26.1716  -20.4701   -7.8442 C   0  0  0  0  0  0  0  0  0  0  0  0
   26.2020  -20.1174   -6.5029 C   0  0  0  0  0  0  0  0  0  0  0  0
   27.2803  -19.4077   -6.0184 C   0  0  0  0  0  0  0  0  0  0  0  0
   28.3317  -19.0412   -6.8452 C   0  0  0  0  0  0  0  0  0  0  0  0
   28.2467  -19.4171   -8.1639 C   0  0  0  0  0  0  0  0  0  0  0  0
   27.1909  -20.1273   -8.7025 C   0  0  0  0  0  0  0  0  0  0  0  0
   25.6022  -20.3175  -12.5377 O   0  0  0  0  0  0  0  0  0  0  0  0
   25.3027  -19.1121  -12.1950 N   0  0  0  0  0  0  0  0  0  0  0  0
   24.5200  -21.1644  -12.9085 C   0  0  0  0  0  0  0  0  0  0  0  0
   24.4911  -22.4977  -13.3991 C   0  0  0  0  0  0  0  0  0  0  0  0
   23.1422  -23.0422  -12.9172 C   0  0  0  0  0  0  0  0  0  0  0  0
   22.2667  -21.8468  -13.3331 C   0  0  1  0  0  0  0  0  0  0  0  0
   23.1232  -20.6985  -12.8487 C   0  0  0  0  0  0  0  0  0  0  0  0
   22.7431  -20.2578  -11.4987 O   0  0  0  0  0  0  0  0  0  0  0  0
   21.6612  -19.4314  -11.3143 O   0  0  0  0  0  0  0  0  0  0  0  0
  2  1  1  0
  3  2  2  0
  4  2  1  0
  5  4  1  0
  6  5  1  0
  7  6  1  0
  8  9  1  6
  8  7  1  0
 10  8  1  0
 10 11  2  0
 12 10  1  0
 13 12  1  0
 13 14  1  1
 14 15  1  0
 15 16  2  0
 16 17  1  0
 18 17  1  0
 19 18  2  0
 20 19  1  0
 21 22  1  0
 21 20  2  0
 22 23  2  0
 23 15  1  0
 23 18  1  0
 24 13  1  0
 25 24  2  0
 26 27  1  0
 26 24  1  0
 28 27  1  0
 29 28  1  0
 30 29  1  0
 30 26  1  0
 30 31  1  1
 31 32  1  0
 33 31  2  0
M  END
$$$$
