RWP.pdb
     RDKit          3D

 33 35  0  0  1  0  0  0  0  0999 V2000
   20.9343  -23.9157  -15.0110 N   0  0  0  0  0  0  0  0  0  0  0  0
   20.3097  -23.8954  -13.7426 C   0  0  0  0  0  0  0  0  0  0  0  0
   19.5388  -24.8778  -13.4249 N   0  0  0  0  0  0  0  0  0  0  0  0
   20.5013  -22.8333  -12.8090 N   0  0  0  0  0  0  0  0  0  0  0  0
   21.4606  -21.7801  -13.0582 C   0  0  0  0  0  0  0  0  0  0  0  0
   22.8336  -22.3850  -12.9391 C   0  0  0  0  0  0  0  0  0  0  0  0
   23.9477  -21.4160  -13.1525 C   0  0  0  0  0  0  0  0  0  0  0  0
   23.8154  -20.1488  -12.3397 C   0  0  2  0  0  0  0  0  0  0  0  0
   23.6090  -19.0467  -13.2239 N   0  0  0  0  0  0  0  0  0  0  0  0
   25.0736  -20.0049  -11.5373 C   0  0  0  0  0  0  0  0  0  0  0  0
   26.0612  -19.4413  -12.0759 O   0  0  0  0  0  0  0  0  0  0  0  0
   19.1087  -24.9462  -12.4967 N   0  0  0  0  0  0  0  0  0  0  0  0
   25.1451  -20.4928  -10.2050 C   0  0  2  0  0  0  0  0  0  0  0  0
   26.3721  -20.4421   -9.4441 C   0  0  0  0  0  0  0  0  0  0  0  0
   26.0396  -20.3327   -7.9695 C   0  0  0  0  0  0  0  0  0  0  0  0
   26.9285  -19.5070   -7.1615 C   0  0  0  0  0  0  0  0  0  0  0  0
   27.3026  -18.1719   -7.3845 N   0  0  0  0  0  0  0  0  0  0  0  0
   28.1587  -17.8077   -6.4263 C   0  0  0  0  0  0  0  0  0  0  0  0
   28.3850  -18.8107   -5.5719 C   0  0  0  0  0  0  0  0  0  0  0  0
   29.1692  -18.9073   -4.4317 C   0  0  0  0  0  0  0  0  0  0  0  0
   29.1886  -20.0925   -3.7272 C   0  0  0  0  0  0  0  0  0  0  0  0
   28.4406  -21.1862   -4.1367 C   0  0  0  0  0  0  0  0  0  0  0  0
   27.6839  -21.0325   -5.2730 C   0  0  0  0  0  0  0  0  0  0  0  0
   27.6276  -19.8695   -6.0171 C   0  0  0  0  0  0  0  0  0  0  0  0
   27.4144  -21.3772   -9.8018 O   0  0  0  0  0  0  0  0  0  0  0  0
   27.0884  -22.6238   -9.7943 N   0  0  0  0  0  0  0  0  0  0  0  0
   28.7570  -21.0697  -10.1605 C   0  0  0  0  0  0  0  0  0  0  0  0
   29.4105  -19.8295  -10.3930 C   0  0  0  0  0  0  0  0  0  0  0  0
   30.8710  -20.1026  -10.0178 C   0  0  0  0  0  0  0  0  0  0  0  0
   31.0412  -21.4338  -10.7711 C   0  0  1  0  0  0  0  0  0  0  0  0
   29.7539  -22.1302  -10.3907 C   0  0  0  0  0  0  0  0  0  0  0  0
   29.9221  -22.9975   -9.2157 O   0  0  0  0  0  0  0  0  0  0  0  0
   30.6715  -24.1459   -9.2989 O   0  0  0  0  0  0  0  0  0  0  0  0
  2  1  1  0
  3  2  2  0
  4  2  1  0
  5  4  1  0
  6  5  1  0
  7  6  1  0
  8  9  1  6
  8  7  1  0
 10  8  1  0
 10 11  2  0
 12 10  1  0
 13 12  1  0
 13 14  1  1
 14 15  1  0
 15 16  2  0
 16 17  1  0
 18 17  1  0
 19 18  2  0
 20 19  1  0
 21 22  1  0
 21 20  2  0
 22 23  2  0
 23 15  1  0
 23 18  1  0
 24 13  1  0
 25 24  2  0
 26 27  1  0
 26 24  1  0
 28 27  1  0
 29 28  1  0
 30 29  1  0
 30 26  1  0
 30 31  1  1
 31 32  1  0
 33 31  2  0
M  END
$$$$
