RWP.pdb
     RDKit          3D

 33 35  0  0  1  0  0  0  0  0999 V2000
   25.3492  -17.2659  -15.3636 N   0  0  0  0  0  0  0  0  0  0  0  0
   26.4689  -16.4027  -15.3377 C   0  0  0  0  0  0  0  0  0  0  0  0
   26.4104  -15.3473  -14.6007 N   0  0  0  0  0  0  0  0  0  0  0  0
   27.6524  -16.6571  -16.0932 N   0  0  0  0  0  0  0  0  0  0  0  0
   28.2643  -17.9675  -16.1095 C   0  0  0  0  0  0  0  0  0  0  0  0
   27.1735  -18.9698  -16.3752 C   0  0  0  0  0  0  0  0  0  0  0  0
   27.6607  -20.3684  -16.5545 C   0  0  0  0  0  0  0  0  0  0  0  0
   28.5155  -20.8658  -15.4117 C   0  0  2  0  0  0  0  0  0  0  0  0
   29.2065  -22.0451  -15.8247 N   0  0  0  0  0  0  0  0  0  0  0  0
   27.5991  -21.1212  -14.2529 C   0  0  0  0  0  0  0  0  0  0  0  0
   26.6930  -21.9833  -14.3902 O   0  0  0  0  0  0  0  0  0  0  0  0
   27.1955  -14.6910  -14.5371 N   0  0  0  0  0  0  0  0  0  0  0  0
   27.7529  -20.4075  -13.0343 C   0  0  2  0  0  0  0  0  0  0  0  0
   26.8892  -20.6471  -11.9013 C   0  0  0  0  0  0  0  0  0  0  0  0
   27.6083  -20.2382  -10.6314 C   0  0  0  0  0  0  0  0  0  0  0  0
   26.8714  -20.4026   -9.3846 C   0  0  0  0  0  0  0  0  0  0  0  0
   25.5658  -20.8910   -9.2142 N   0  0  0  0  0  0  0  0  0  0  0  0
   25.2637  -20.8438   -7.9141 C   0  0  0  0  0  0  0  0  0  0  0  0
   26.2815  -20.3559   -7.1976 C   0  0  0  0  0  0  0  0  0  0  0  0
   26.4455  -20.1360   -5.8378 C   0  0  0  0  0  0  0  0  0  0  0  0
   27.6426  -19.6293   -5.3780 C   0  0  0  0  0  0  0  0  0  0  0  0
   28.6823  -19.3363   -6.2477 C   0  0  0  0  0  0  0  0  0  0  0  0
   28.4625  -19.5737   -7.5830 C   0  0  0  0  0  0  0  0  0  0  0  0
   27.2841  -20.0790   -8.0982 C   0  0  0  0  0  0  0  0  0  0  0  0
   25.5085  -20.2368  -12.0204 O   0  0  0  0  0  0  0  0  0  0  0  0
   25.2522  -19.0081  -11.7290 N   0  0  0  0  0  0  0  0  0  0  0  0
   24.4060  -21.0415  -12.4240 C   0  0  0  0  0  0  0  0  0  0  0  0
   24.3106  -22.4263  -12.7282 C   0  0  0  0  0  0  0  0  0  0  0  0
   22.8634  -22.7857  -12.3751 C   0  0  0  0  0  0  0  0  0  0  0  0
   22.1715  -21.6000  -13.0705 C   0  0  1  0  0  0  0  0  0  0  0  0
   23.0660  -20.4635  -12.6288 C   0  0  0  0  0  0  0  0  0  0  0  0
   22.5580  -19.7994  -11.4196 O   0  0  0  0  0  0  0  0  0  0  0  0
   21.4762  -18.9556  -11.4904 O   0  0  0  0  0  0  0  0  0  0  0  0
  2  1  1  0
  3  2  2  0
  4  2  1  0
  5  4  1  0
  6  5  1  0
  7  6  1  0
  8  9  1  6
  8  7  1  0
 10  8  1  0
 10 11  2  0
 12 10  1  0
 13 12  1  0
 13 14  1  1
 14 15  1  0
 15 16  2  0
 16 17  1  0
 18 17  1  0
 19 18  2  0
 20 19  1  0
 21 22  1  0
 21 20  2  0
 22 23  2  0
 23 15  1  0
 23 18  1  0
 24 13  1  0
 25 24  2  0
 26 27  1  0
 26 24  1  0
 28 27  1  0
 29 28  1  0
 30 29  1  0
 30 26  1  0
 30 31  1  1
 31 32  1  0
 33 31  2  0
M  END
$$$$
