RWP.pdb
     RDKit          3D

 33 35  0  0  1  0  0  0  0  0999 V2000
   28.7371  -28.8973  -16.9995 N   0  0  0  0  0  0  0  0  0  0  0  0
   28.6171  -28.7891  -18.4043 C   0  0  0  0  0  0  0  0  0  0  0  0
   28.8305  -29.8399  -19.1190 N   0  0  0  0  0  0  0  0  0  0  0  0
   28.2710  -27.5665  -19.0537 N   0  0  0  0  0  0  0  0  0  0  0  0
   27.9461  -26.3798  -18.2936 C   0  0  0  0  0  0  0  0  0  0  0  0
   29.2269  -25.8654  -17.6936 C   0  0  0  0  0  0  0  0  0  0  0  0
   29.0552  -24.6620  -16.8287 C   0  0  0  0  0  0  0  0  0  0  0  0
   29.0027  -23.3625  -17.5983 C   0  0  2  0  0  0  0  0  0  0  0  0
   30.2780  -23.1206  -18.1932 N   0  0  0  0  0  0  0  0  0  0  0  0
   28.6168  -22.2883  -16.6263 C   0  0  0  0  0  0  0  0  0  0  0  0
   29.3696  -22.0806  -15.6398 O   0  0  0  0  0  0  0  0  0  0  0  0
   28.6850  -29.8393  -20.1338 N   0  0  0  0  0  0  0  0  0  0  0  0
   27.4325  -21.5273  -16.8172 C   0  0  2  0  0  0  0  0  0  0  0  0
   27.0433  -20.4864  -15.8942 C   0  0  0  0  0  0  0  0  0  0  0  0
   26.8747  -19.1853  -16.6530 C   0  0  0  0  0  0  0  0  0  0  0  0
   26.4795  -18.0215  -15.8693 C   0  0  0  0  0  0  0  0  0  0  0  0
   27.3052  -17.1662  -15.1219 N   0  0  0  0  0  0  0  0  0  0  0  0
   26.5365  -16.2485  -14.5297 C   0  0  0  0  0  0  0  0  0  0  0  0
   25.2466  -16.4298  -14.8303 C   0  0  0  0  0  0  0  0  0  0  0  0
   24.0984  -15.7371  -14.4749 C   0  0  0  0  0  0  0  0  0  0  0  0
   22.8805  -16.1565  -14.9669 C   0  0  0  0  0  0  0  0  0  0  0  0
   22.7829  -17.2549  -15.8078 C   0  0  0  0  0  0  0  0  0  0  0  0
   23.9526  -17.9020  -16.1247 C   0  0  0  0  0  0  0  0  0  0  0  0
   25.1986  -17.5260  -15.6605 C   0  0  0  0  0  0  0  0  0  0  0  0
   26.0179  -20.8057  -14.9271 O   0  0  0  0  0  0  0  0  0  0  0  0
   24.8898  -21.2059  -15.4041 N   0  0  0  0  0  0  0  0  0  0  0  0
   26.1205  -20.7260  -13.5097 C   0  0  0  0  0  0  0  0  0  0  0  0
   27.1802  -20.3019  -12.6632 C   0  0  0  0  0  0  0  0  0  0  0  0
   26.4688  -19.7756  -11.4121 C   0  0  0  0  0  0  0  0  0  0  0  0
   25.4904  -20.9466  -11.2125 C   0  0  1  0  0  0  0  0  0  0  0  0
   25.0148  -21.1513  -12.6333 C   0  0  0  0  0  0  0  0  0  0  0  0
   23.7728  -20.4154  -12.9109 O   0  0  0  0  0  0  0  0  0  0  0  0
   22.5837  -20.8206  -12.3550 O   0  0  0  0  0  0  0  0  0  0  0  0
  2  1  1  0
  3  2  2  0
  4  2  1  0
  5  4  1  0
  6  5  1  0
  7  6  1  0
  8  9  1  1
  8  7  1  0
 10  8  1  0
 10 11  2  0
 12 10  1  0
 13 12  1  0
 13 14  1  6
 14 15  1  0
 15 16  2  0
 16 17  1  0
 18 17  1  0
 19 18  2  0
 20 19  1  0
 21 22  1  0
 21 20  2  0
 22 23  2  0
 23 15  1  0
 23 18  1  0
 24 13  1  0
 25 24  2  0
 26 27  1  0
 26 24  1  0
 28 27  1  0
 29 28  1  0
 30 29  1  0
 30 26  1  0
 30 31  1  1
 31 32  1  0
 33 31  2  0
M  END
$$$$
