RWP.pdb
     RDKit          3D

 33 35  0  0  1  0  0  0  0  0999 V2000
   26.5494  -19.8416  -22.6275 N   0  0  0  0  0  0  0  0  0  0  0  0
   27.5632  -18.8579  -22.5634 C   0  0  0  0  0  0  0  0  0  0  0  0
   27.3926  -17.7605  -23.2169 N   0  0  0  0  0  0  0  0  0  0  0  0
   28.7596  -19.0362  -21.8064 N   0  0  0  0  0  0  0  0  0  0  0  0
   28.9096  -20.1465  -20.8918 C   0  0  0  0  0  0  0  0  0  0  0  0
   27.5854  -20.3451  -20.2047 C   0  0  0  0  0  0  0  0  0  0  0  0
   27.5705  -21.4672  -19.2216 C   0  0  0  0  0  0  0  0  0  0  0  0
   28.6298  -21.3509  -18.1500 C   0  0  2  0  0  0  0  0  0  0  0  0
   29.6722  -22.2884  -18.4205 N   0  0  0  0  0  0  0  0  0  0  0  0
   27.9588  -21.6119  -16.8350 C   0  0  0  0  0  0  0  0  0  0  0  0
   27.6882  -22.8026  -16.5314 O   0  0  0  0  0  0  0  0  0  0  0  0
   28.0477  -16.9764  -23.1326 N   0  0  0  0  0  0  0  0  0  0  0  0
   27.6386  -20.5412  -15.9578 C   0  0  2  0  0  0  0  0  0  0  0  0
   26.9989  -20.7712  -14.6830 C   0  0  0  0  0  0  0  0  0  0  0  0
   27.5748  -19.8156  -13.6572 C   0  0  0  0  0  0  0  0  0  0  0  0
   27.1051  -19.9723  -12.2863 C   0  0  0  0  0  0  0  0  0  0  0  0
   25.8230  -19.7047  -11.7797 N   0  0  0  0  0  0  0  0  0  0  0  0
   25.8280  -19.9502  -10.4669 C   0  0  0  0  0  0  0  0  0  0  0  0
   27.0303  -20.3665  -10.0564 C   0  0  0  0  0  0  0  0  0  0  0  0
   27.5115  -20.7500   -8.8131 C   0  0  0  0  0  0  0  0  0  0  0  0
   28.8227  -21.1604   -8.6969 C   0  0  0  0  0  0  0  0  0  0  0  0
   29.6665  -21.1966   -9.7969 C   0  0  0  0  0  0  0  0  0  0  0  0
   29.1353  -20.8049  -11.0019 C   0  0  0  0  0  0  0  0  0  0  0  0
   27.8305  -20.3845  -11.1755 C   0  0  0  0  0  0  0  0  0  0  0  0
   25.5624  -20.9304  -14.6800 O   0  0  0  0  0  0  0  0  0  0  0  0
   24.8764  -19.9191  -15.0886 N   0  0  0  0  0  0  0  0  0  0  0  0
   24.8275  -22.0804  -14.2761 C   0  0  0  0  0  0  0  0  0  0  0  0
   25.2508  -23.3620  -13.8315 C   0  0  0  0  0  0  0  0  0  0  0  0
   24.1175  -23.8298  -12.9122 C   0  0  0  0  0  0  0  0  0  0  0  0
   22.9349  -23.4743  -13.8306 C   0  0  1  0  0  0  0  0  0  0  0  0
   23.3541  -22.0980  -14.2964 C   0  0  0  0  0  0  0  0  0  0  0  0
   22.7754  -21.0336  -13.4638 O   0  0  0  0  0  0  0  0  0  0  0  0
   23.4417  -20.5788  -12.3518 O   0  0  0  0  0  0  0  0  0  0  0  0
  2  1  1  0
  3  2  2  0
  4  2  1  0
  5  4  1  0
  6  5  1  0
  7  6  1  0
  8  9  1  6
  8  7  1  0
 10  8  1  0
 10 11  2  0
 12 10  1  0
 13 12  1  0
 13 14  1  6
 14 15  1  0
 15 16  2  0
 16 17  1  0
 18 17  1  0
 19 18  2  0
 20 19  1  0
 21 22  1  0
 21 20  2  0
 22 23  2  0
 23 15  1  0
 23 18  1  0
 24 13  1  0
 25 24  2  0
 26 27  1  0
 26 24  1  0
 28 27  1  0
 29 28  1  0
 30 29  1  0
 30 26  1  0
 30 31  1  1
 31 32  1  0
 33 31  2  0
M  END
$$$$
