RWP.pdb
     RDKit          3D

 33 35  0  0  1  0  0  0  0  0999 V2000
   21.9859  -19.6168  -21.1695 N   0  0  0  0  0  0  0  0  0  0  0  0
   22.6872  -18.4753  -21.6221 C   0  0  0  0  0  0  0  0  0  0  0  0
   22.4703  -18.0605  -22.8226 N   0  0  0  0  0  0  0  0  0  0  0  0
   23.6198  -17.7720  -20.8025 N   0  0  0  0  0  0  0  0  0  0  0  0
   23.7093  -18.0257  -19.3814 C   0  0  0  0  0  0  0  0  0  0  0  0
   23.9254  -19.5042  -19.2013 C   0  0  0  0  0  0  0  0  0  0  0  0
   25.0268  -19.8489  -18.2559 C   0  0  0  0  0  0  0  0  0  0  0  0
   25.1450  -18.8980  -17.0872 C   0  0  2  0  0  0  0  0  0  0  0  0
   26.0017  -17.8153  -17.4514 N   0  0  0  0  0  0  0  0  0  0  0  0
   25.6843  -19.6843  -15.9303 C   0  0  0  0  0  0  0  0  0  0  0  0
   25.9290  -20.9062  -16.1043 O   0  0  0  0  0  0  0  0  0  0  0  0
   22.9692  -17.2538  -23.2117 N   0  0  0  0  0  0  0  0  0  0  0  0
   25.9119  -19.0633  -14.6730 C   0  0  1  0  0  0  0  0  0  0  0  0
   26.3086  -19.8256  -13.5118 C   0  0  0  0  0  0  0  0  0  0  0  0
   27.5166  -19.1692  -12.8739 C   0  0  0  0  0  0  0  0  0  0  0  0
   28.1243  -19.8749  -11.7526 C   0  0  0  0  0  0  0  0  0  0  0  0
   29.0517  -20.9284  -11.7992 N   0  0  0  0  0  0  0  0  0  0  0  0
   29.3231  -21.3076  -10.5476 C   0  0  0  0  0  0  0  0  0  0  0  0
   28.6391  -20.5772   -9.6610 C   0  0  0  0  0  0  0  0  0  0  0  0
   28.6006  -20.5872   -8.2743 C   0  0  0  0  0  0  0  0  0  0  0  0
   27.7959  -19.6805   -7.6174 C   0  0  0  0  0  0  0  0  0  0  0  0
   27.0268  -18.7617   -8.3156 C   0  0  0  0  0  0  0  0  0  0  0  0
   27.1047  -18.7991   -9.6868 C   0  0  0  0  0  0  0  0  0  0  0  0
   27.8926  -19.6854  -10.3960 C   0  0  0  0  0  0  0  0  0  0  0  0
   25.2629  -20.2610  -12.6141 O   0  0  0  0  0  0  0  0  0  0  0  0
   24.4392  -19.3534  -12.2165 N   0  0  0  0  0  0  0  0  0  0  0  0
   25.0462  -21.5798  -12.1247 C   0  0  0  0  0  0  0  0  0  0  0  0
   25.7054  -22.8081  -12.4002 C   0  0  0  0  0  0  0  0  0  0  0  0
   25.5265  -23.6227  -11.1146 C   0  0  0  0  0  0  0  0  0  0  0  0
   24.0238  -23.3654  -10.9044 C   0  0  1  0  0  0  0  0  0  0  0  0
   23.9601  -21.8789  -11.1748 C   0  0  0  0  0  0  0  0  0  0  0  0
   24.0698  -21.0883   -9.9403 O   0  0  0  0  0  0  0  0  0  0  0  0
   23.0320  -21.0532   -9.0407 O   0  0  0  0  0  0  0  0  0  0  0  0
  2  1  1  0
  3  2  2  0
  4  2  1  0
  5  4  1  0
  6  5  1  0
  7  6  1  0
  8  9  1  6
  8  7  1  0
 10  8  1  0
 10 11  2  0
 12 10  1  0
 13 12  1  0
 13 14  1  6
 14 15  1  0
 15 16  2  0
 16 17  1  0
 18 17  1  0
 19 18  2  0
 20 19  1  0
 21 22  1  0
 21 20  2  0
 22 23  2  0
 23 15  1  0
 23 18  1  0
 24 13  1  0
 25 24  2  0
 26 27  1  0
 26 24  1  0
 28 27  1  0
 29 28  1  0
 30 29  1  0
 30 26  1  0
 30 31  1  1
 31 32  1  0
 33 31  2  0
M  END
$$$$
