RWP.pdb
     RDKit          3D

 33 35  0  0  1  0  0  0  0  0999 V2000
   24.7904  -20.3692  -18.5972 N   0  0  0  0  0  0  0  0  0  0  0  0
   23.4537  -20.1473  -18.1926 C   0  0  0  0  0  0  0  0  0  0  0  0
   22.5057  -20.5452  -18.9693 N   0  0  0  0  0  0  0  0  0  0  0  0
   23.1202  -19.5030  -16.9638 N   0  0  0  0  0  0  0  0  0  0  0  0
   24.0803  -19.3989  -15.8871 C   0  0  0  0  0  0  0  0  0  0  0  0
   24.4914  -20.7979  -15.5145 C   0  0  0  0  0  0  0  0  0  0  0  0
   24.6562  -21.0150  -14.0478 C   0  0  0  0  0  0  0  0  0  0  0  0
   26.0005  -20.5754  -13.5152 C   0  0  2  0  0  0  0  0  0  0  0  0
   27.0321  -21.1882  -14.2892 N   0  0  0  0  0  0  0  0  0  0  0  0
   26.0577  -20.9785  -12.0724 C   0  0  0  0  0  0  0  0  0  0  0  0
   26.0774  -22.2064  -11.7983 O   0  0  0  0  0  0  0  0  0  0  0  0
   21.5189  -20.4401  -18.7116 N   0  0  0  0  0  0  0  0  0  0  0  0
   26.0888  -19.9979  -11.0449 C   0  0  2  0  0  0  0  0  0  0  0  0
   26.0134  -20.3605   -9.6485 C   0  0  0  0  0  0  0  0  0  0  0  0
   26.6230  -19.2530   -8.8127 C   0  0  0  0  0  0  0  0  0  0  0  0
   26.6647  -19.4726   -7.3723 C   0  0  0  0  0  0  0  0  0  0  0  0
   25.5804  -19.6181   -6.4919 N   0  0  0  0  0  0  0  0  0  0  0  0
   26.0588  -19.7662   -5.2538 C   0  0  0  0  0  0  0  0  0  0  0  0
   27.3952  -19.7306   -5.2432 C   0  0  0  0  0  0  0  0  0  0  0  0
   28.3246  -19.8536   -4.2208 C   0  0  0  0  0  0  0  0  0  0  0  0
   29.6686  -19.7942   -4.5230 C   0  0  0  0  0  0  0  0  0  0  0  0
   30.1067  -19.6143   -5.8265 C   0  0  0  0  0  0  0  0  0  0  0  0
   29.1412  -19.4978   -6.7970 C   0  0  0  0  0  0  0  0  0  0  0  0
   27.7825  -19.5492   -6.5509 C   0  0  0  0  0  0  0  0  0  0  0  0
   24.7662  -20.9146   -9.1728 O   0  0  0  0  0  0  0  0  0  0  0  0
   23.6951  -20.2894   -9.5223 N   0  0  0  0  0  0  0  0  0  0  0  0
   24.5952  -22.0726   -8.3630 C   0  0  0  0  0  0  0  0  0  0  0  0
   25.5321  -23.0039   -7.8394 C   0  0  0  0  0  0  0  0  0  0  0  0
   24.8726  -23.5112   -6.5526 C   0  0  0  0  0  0  0  0  0  0  0  0
   23.4681  -23.7790   -7.1218 C   0  0  1  0  0  0  0  0  0  0  0  0
   23.2584  -22.5220   -7.9360 C   0  0  0  0  0  0  0  0  0  0  0  0
   22.5414  -21.4866   -7.1776 O   0  0  0  0  0  0  0  0  0  0  0  0
   21.1842  -21.5781   -6.9850 O   0  0  0  0  0  0  0  0  0  0  0  0
  2  1  1  0
  3  2  2  0
  4  2  1  0
  5  4  1  0
  6  5  1  0
  7  6  1  0
  8  9  1  6
  8  7  1  0
 10  8  1  0
 10 11  2  0
 12 10  1  0
 13 12  1  0
 13 14  1  6
 14 15  1  0
 15 16  2  0
 16 17  1  0
 18 17  1  0
 19 18  2  0
 20 19  1  0
 21 22  1  0
 21 20  2  0
 22 23  2  0
 23 15  1  0
 23 18  1  0
 24 13  1  0
 25 24  2  0
 26 27  1  0
 26 24  1  0
 28 27  1  0
 29 28  1  0
 30 29  1  0
 30 26  1  0
 30 31  1  1
 31 32  1  0
 33 31  2  0
M  END
$$$$
