RWP.pdb
     RDKit          3D

 33 35  0  0  1  0  0  0  0  0999 V2000
   23.2565  -20.2736  -18.1228 N   0  0  0  0  0  0  0  0  0  0  0  0
   22.4824  -20.9065  -17.1230 C   0  0  0  0  0  0  0  0  0  0  0  0
   21.4786  -21.6258  -17.4908 N   0  0  0  0  0  0  0  0  0  0  0  0
   22.7711  -20.7774  -15.7315 N   0  0  0  0  0  0  0  0  0  0  0  0
   23.6681  -19.7529  -15.2439 C   0  0  0  0  0  0  0  0  0  0  0  0
   25.0625  -20.3175  -15.2893 C   0  0  0  0  0  0  0  0  0  0  0  0
   25.6363  -20.6339  -13.9490 C   0  0  0  0  0  0  0  0  0  0  0  0
   25.5392  -19.4940  -12.9615 C   0  0  2  0  0  0  0  0  0  0  0  0
   26.3043  -18.3901  -13.4461 N   0  0  0  0  0  0  0  0  0  0  0  0
   26.0480  -20.0037  -11.6466 C   0  0  0  0  0  0  0  0  0  0  0  0
   26.8440  -20.9781  -11.6543 O   0  0  0  0  0  0  0  0  0  0  0  0
   20.8882  -22.1145  -16.8098 N   0  0  0  0  0  0  0  0  0  0  0  0
   25.6404  -19.4002  -10.4268 C   0  0  2  0  0  0  0  0  0  0  0  0
   26.0856  -19.9017   -9.1471 C   0  0  0  0  0  0  0  0  0  0  0  0
   26.3873  -18.7323   -8.2314 C   0  0  0  0  0  0  0  0  0  0  0  0
   27.5123  -18.8939   -7.3188 C   0  0  0  0  0  0  0  0  0  0  0  0
   28.8646  -18.6019   -7.5593 N   0  0  0  0  0  0  0  0  0  0  0  0
   29.5672  -18.9295   -6.4716 C   0  0  0  0  0  0  0  0  0  0  0  0
   28.7755  -19.4224   -5.5138 C   0  0  0  0  0  0  0  0  0  0  0  0
   29.0354  -19.8754   -4.2286 C   0  0  0  0  0  0  0  0  0  0  0  0
   27.9890  -20.3173   -3.4469 C   0  0  0  0  0  0  0  0  0  0  0  0
   26.6856  -20.3172   -3.9207 C   0  0  0  0  0  0  0  0  0  0  0  0
   26.4888  -19.8584   -5.2006 C   0  0  0  0  0  0  0  0  0  0  0  0
   27.4991  -19.4051   -6.0272 C   0  0  0  0  0  0  0  0  0  0  0  0
   25.3424  -20.9980   -8.5685 O   0  0  0  0  0  0  0  0  0  0  0  0
   24.0666  -20.8391   -8.4833 N   0  0  0  0  0  0  0  0  0  0  0  0
   25.8670  -22.2297   -8.0851 C   0  0  0  0  0  0  0  0  0  0  0  0
   27.1914  -22.7439   -8.0558 C   0  0  0  0  0  0  0  0  0  0  0  0
   27.2010  -23.6773   -6.8405 C   0  0  0  0  0  0  0  0  0  0  0  0
   25.8873  -24.4239   -7.1323 C   0  0  1  0  0  0  0  0  0  0  0  0
   24.9915  -23.2650   -7.5081 C   0  0  0  0  0  0  0  0  0  0  0  0
   24.2248  -22.7646   -6.3578 O   0  0  0  0  0  0  0  0  0  0  0  0
   23.2638  -23.5486   -5.7667 O   0  0  0  0  0  0  0  0  0  0  0  0
  2  1  1  0
  3  2  2  0
  4  2  1  0
  5  4  1  0
  6  5  1  0
  7  6  1  0
  8  9  1  6
  8  7  1  0
 10  8  1  0
 10 11  2  0
 12 10  1  0
 13 12  1  0
 13 14  1  1
 14 15  1  0
 15 16  2  0
 16 17  1  0
 18 17  1  0
 19 18  2  0
 20 19  1  0
 21 22  1  0
 21 20  2  0
 22 23  2  0
 23 15  1  0
 23 18  1  0
 24 13  1  0
 25 24  2  0
 26 27  1  0
 26 24  1  0
 28 27  1  0
 29 28  1  0
 30 29  1  0
 30 26  1  0
 30 31  1  1
 31 32  1  0
 33 31  2  0
M  END
$$$$
