RWP.pdb
     RDKit          3D

 33 35  0  0  1  0  0  0  0  0999 V2000
   22.5411  -26.4412  -15.0468 N   0  0  0  0  0  0  0  0  0  0  0  0
   21.6797  -26.4663  -16.1679 C   0  0  0  0  0  0  0  0  0  0  0  0
   21.5116  -27.5849  -16.7849 N   0  0  0  0  0  0  0  0  0  0  0  0
   20.9953  -25.3052  -16.6367 N   0  0  0  0  0  0  0  0  0  0  0  0
   21.6381  -24.0096  -16.6484 C   0  0  0  0  0  0  0  0  0  0  0  0
   23.0496  -24.2124  -17.1297 C   0  0  0  0  0  0  0  0  0  0  0  0
   23.8668  -22.9648  -17.1659 C   0  0  0  0  0  0  0  0  0  0  0  0
   23.1061  -21.7273  -16.7489 C   0  0  2  0  0  0  0  0  0  0  0  0
   22.7204  -21.0011  -17.9162 N   0  0  0  0  0  0  0  0  0  0  0  0
   24.0118  -20.9308  -15.8583 C   0  0  0  0  0  0  0  0  0  0  0  0
   24.7611  -20.0704  -16.3887 O   0  0  0  0  0  0  0  0  0  0  0  0
   20.8632  -27.6721  -17.5743 N   0  0  0  0  0  0  0  0  0  0  0  0
   24.0209  -21.1444  -14.4538 C   0  0  2  0  0  0  0  0  0  0  0  0
   24.9024  -20.4046  -13.5804 C   0  0  0  0  0  0  0  0  0  0  0  0
   24.1196  -19.9213  -12.3759 C   0  0  0  0  0  0  0  0  0  0  0  0
   24.8751  -19.2127  -11.3505 C   0  0  0  0  0  0  0  0  0  0  0  0
   25.3753  -17.9015  -11.4015 N   0  0  0  0  0  0  0  0  0  0  0  0
   26.0371  -17.6576  -10.2673 C   0  0  0  0  0  0  0  0  0  0  0  0
   26.0146  -18.7195   -9.4553 C   0  0  0  0  0  0  0  0  0  0  0  0
   26.5379  -18.9383   -8.1894 C   0  0  0  0  0  0  0  0  0  0  0  0
   26.3323  -20.1571   -7.5782 C   0  0  0  0  0  0  0  0  0  0  0  0
   25.6141  -21.1649   -8.2042 C   0  0  0  0  0  0  0  0  0  0  0  0
   25.1205  -20.8915   -9.4569 C   0  0  0  0  0  0  0  0  0  0  0  0
   25.2968  -19.6898  -10.1158 C   0  0  0  0  0  0  0  0  0  0  0  0
   26.2053  -20.9717  -13.3166 O   0  0  0  0  0  0  0  0  0  0  0  0
   26.2192  -22.1600  -12.8187 N   0  0  0  0  0  0  0  0  0  0  0  0
   27.4698  -20.3605  -13.5477 C   0  0  0  0  0  0  0  0  0  0  0  0
   27.8204  -19.0943  -14.0889 C   0  0  0  0  0  0  0  0  0  0  0  0
   29.1598  -18.7629  -13.4223 C   0  0  0  0  0  0  0  0  0  0  0  0
   29.8486  -20.1224  -13.6358 C   0  0  1  0  0  0  0  0  0  0  0  0
   28.7299  -21.0609  -13.2424 C   0  0  0  0  0  0  0  0  0  0  0  0
   28.8148  -21.4590  -11.8298 O   0  0  0  0  0  0  0  0  0  0  0  0
   29.8317  -22.2744  -11.3955 O   0  0  0  0  0  0  0  0  0  0  0  0
  2  1  1  0
  3  2  2  0
  4  2  1  0
  5  4  1  0
  6  5  1  0
  7  6  1  0
  8  9  1  6
  8  7  1  0
 10  8  1  0
 10 11  2  0
 12 10  1  0
 13 12  1  0
 13 14  1  1
 14 15  1  0
 15 16  2  0
 16 17  1  0
 18 17  1  0
 19 18  2  0
 20 19  1  0
 21 22  1  0
 21 20  2  0
 22 23  2  0
 23 15  1  0
 23 18  1  0
 24 13  1  0
 25 24  2  0
 26 27  1  0
 26 24  1  0
 28 27  1  0
 29 28  1  0
 30 29  1  0
 30 26  1  0
 30 31  1  1
 31 32  1  0
 33 31  2  0
M  END
$$$$
