RWP.pdb
     RDKit          3D

 33 35  0  0  1  0  0  0  0  0999 V2000
   31.8664  -25.1383  -20.2957 N   0  0  0  0  0  0  0  0  0  0  0  0
   32.6592  -25.2500  -19.1302 C   0  0  0  0  0  0  0  0  0  0  0  0
   33.8884  -25.6145  -19.2594 N   0  0  0  0  0  0  0  0  0  0  0  0
   32.1501  -24.9755  -17.8257 N   0  0  0  0  0  0  0  0  0  0  0  0
   30.7413  -24.7317  -17.6068 C   0  0  0  0  0  0  0  0  0  0  0  0
   30.4028  -23.4242  -18.2708 C   0  0  0  0  0  0  0  0  0  0  0  0
   29.5826  -22.5064  -17.4278 C   0  0  0  0  0  0  0  0  0  0  0  0
   29.9099  -22.5791  -15.9541 C   0  0  2  0  0  0  0  0  0  0  0  0
   30.5428  -23.8288  -15.6777 N   0  0  0  0  0  0  0  0  0  0  0  0
   28.6204  -22.4182  -15.2065 C   0  0  0  0  0  0  0  0  0  0  0  0
   27.7999  -23.3720  -15.2239 O   0  0  0  0  0  0  0  0  0  0  0  0
   34.5119  -25.7015  -18.4503 N   0  0  0  0  0  0  0  0  0  0  0  0
   28.3359  -21.2199  -14.4985 C   0  0  1  0  0  0  0  0  0  0  0  0
   27.3677  -21.1842  -13.4269 C   0  0  0  0  0  0  0  0  0  0  0  0
   27.9770  -20.4852  -12.2281 C   0  0  0  0  0  0  0  0  0  0  0  0
   27.1314  -20.3625  -11.0472 C   0  0  0  0  0  0  0  0  0  0  0  0
   25.7423  -20.1617  -11.0001 N   0  0  0  0  0  0  0  0  0  0  0  0
   25.3719  -20.0716   -9.7201 C   0  0  0  0  0  0  0  0  0  0  0  0
   26.4214  -20.1993   -8.9019 C   0  0  0  0  0  0  0  0  0  0  0  0
   26.5340  -20.1915   -7.5192 C   0  0  0  0  0  0  0  0  0  0  0  0
   27.7744  -20.3710   -6.9445 C   0  0  0  0  0  0  0  0  0  0  0  0
   28.9079  -20.5587   -7.7213 C   0  0  0  0  0  0  0  0  0  0  0  0
   28.7358  -20.5563   -9.0843 C   0  0  0  0  0  0  0  0  0  0  0  0
   27.5179  -20.3805   -9.7130 C   0  0  0  0  0  0  0  0  0  0  0  0
   26.0127  -20.8147  -13.7681 O   0  0  0  0  0  0  0  0  0  0  0  0
   25.8039  -19.5640  -13.9970 N   0  0  0  0  0  0  0  0  0  0  0  0
   24.8889  -21.6812  -13.8784 C   0  0  0  0  0  0  0  0  0  0  0  0
   24.7488  -23.0772  -13.6532 C   0  0  0  0  0  0  0  0  0  0  0  0
   23.2839  -23.2411  -13.2346 C   0  0  0  0  0  0  0  0  0  0  0  0
   22.6470  -22.3778  -14.3380 C   0  0  1  0  0  0  0  0  0  0  0  0
   23.5743  -21.1834  -14.3206 C   0  0  0  0  0  0  0  0  0  0  0  0
   23.0703  -20.1060  -13.4567 O   0  0  0  0  0  0  0  0  0  0  0  0
   22.0063  -19.3336  -13.8551 O   0  0  0  0  0  0  0  0  0  0  0  0
  2  1  1  0
  3  2  2  0
  4  2  1  0
  5  4  1  0
  6  5  1  0
  7  6  1  0
  8  9  1  6
  8  7  1  0
 10  8  1  0
 10 11  2  0
 12 10  1  0
 13 12  1  0
 13 14  1  1
 14 15  1  0
 15 16  2  0
 16 17  1  0
 18 17  1  0
 19 18  2  0
 20 19  1  0
 21 22  1  0
 21 20  2  0
 22 23  2  0
 23 15  1  0
 23 18  1  0
 24 13  1  0
 25 24  2  0
 26 27  1  0
 26 24  1  0
 28 27  1  0
 29 28  1  0
 30 29  1  0
 30 26  1  0
 30 31  1  1
 31 32  1  0
 33 31  2  0
M  END
$$$$
