EFS.pdb
     RDKit          3D

 27 27  0  0  1  0  0  0  0  0999 V2000
    8.3161  -14.6298   20.5233 N   0  0  0  0  0  0  0  0  0  0  0  0
    7.8602  -15.7548   21.2526 C   0  0  1  0  0  0  0  0  0  0  0  0
    8.1666  -17.0892   20.6897 C   0  0  0  0  0  0  0  0  0  0  0  0
    7.7271  -17.3980   19.3164 C   0  0  0  0  0  0  0  0  0  0  0  0
    7.9741  -18.7354   18.7950 C   0  0  0  0  0  0  0  0  0  0  0  0
    8.9873  -19.0028   18.1260 O   0  0  0  0  0  0  0  0  0  0  0  0
    8.3364  -15.7299   22.6874 C   0  0  0  0  0  0  0  0  0  0  0  0
    9.5283  -15.3758   22.9093 O   0  0  0  0  0  0  0  0  0  0  0  0
    7.0462  -19.7631   19.0493 O   0  0  0  0  0  0  0  0  0  0  0  0
    7.5412  -16.0739   23.7849 N   0  0  0  0  0  0  0  0  0  0  0  0
    7.9871  -16.0327   25.1570 C   0  0  1  0  0  0  0  0  0  0  0  0
    6.9475  -15.4296   26.0719 C   0  0  0  0  0  0  0  0  0  0  0  0
    7.0393  -13.9677   26.1632 C   0  0  0  0  0  0  0  0  0  0  0  0
    8.2694  -13.3803   26.3595 C   0  0  0  0  0  0  0  0  0  0  0  0
    8.4040  -11.9917   26.4518 C   0  0  0  0  0  0  0  0  0  0  0  0
    7.3066  -11.1821   26.3480 C   0  0  0  0  0  0  0  0  0  0  0  0
    6.0714  -11.7535   26.1518 C   0  0  0  0  0  0  0  0  0  0  0  0
    5.9476  -13.1404   26.0611 C   0  0  0  0  0  0  0  0  0  0  0  0
    8.5050  -17.2945   25.6747 C   0  0  0  0  0  0  0  0  0  0  0  0
    7.7336  -18.2615   25.8528 O   0  0  0  0  0  0  0  0  0  0  0  0
   12.4403  -17.8483   25.7134 O   0  0  0  0  0  0  0  0  0  0  0  0
   11.7024  -19.0515   25.7610 C   0  0  0  0  0  0  0  0  0  0  0  0
   10.4056  -18.7090   26.4806 C   0  0  2  0  0  0  0  0  0  0  0  0
    9.8799  -17.4322   25.9750 N   0  0  0  0  0  0  0  0  0  0  0  0
   10.7191  -18.5787   27.9120 C   0  0  0  0  0  0  0  0  0  0  0  0
   11.2889  -19.6125   28.6216 O   0  0  0  0  0  0  0  0  0  0  0  0
   10.4655  -17.5101   28.5055 O   0  0  0  0  0  0  0  0  0  0  0  0
  2  1  1  6
  2  3  1  0
  4  5  1  0
  4  3  1  0
  5  6  2  0
  7  2  1  0
  7 10  1  0
  8  7  2  0
  9  5  1  0
 11 10  1  0
 11 12  1  1
 12 13  1  0
 13 18  2  0
 13 14  1  0
 14 15  2  0
 15 16  1  0
 17 16  2  0
 18 17  1  0
 19 11  1  0
 20 19  2  0
 21 22  1  0
 23 22  1  6
 23 24  1  0
 24 19  1  0
 25 23  1  0
 26 25  1  0
 27 25  2  0
M  END
$$$$
