EFS.pdb
     RDKit          3D

 27 27  0  0  1  0  0  0  0  0999 V2000
    8.6733  -14.3658   19.8364 N   0  0  0  0  0  0  0  0  0  0  0  0
    8.3506  -15.5287   20.5770 C   0  0  1  0  0  0  0  0  0  0  0  0
    8.9450  -16.8041   20.1173 C   0  0  0  0  0  0  0  0  0  0  0  0
    8.7421  -17.2173   18.7164 C   0  0  0  0  0  0  0  0  0  0  0  0
    9.1331  -18.5659   18.3291 C   0  0  0  0  0  0  0  0  0  0  0  0
    9.6834  -19.3448   19.1266 O   0  0  0  0  0  0  0  0  0  0  0  0
    8.6635  -15.3680   22.0476 C   0  0  0  0  0  0  0  0  0  0  0  0
    9.7724  -14.8525   22.3637 O   0  0  0  0  0  0  0  0  0  0  0  0
    8.8861  -19.0114   17.0167 O   0  0  0  0  0  0  0  0  0  0  0  0
    7.8033  -15.7537   23.0803 N   0  0  0  0  0  0  0  0  0  0  0  0
    8.1302  -15.6728   24.4838 C   0  0  1  0  0  0  0  0  0  0  0  0
    6.9344  -15.2864   25.3218 C   0  0  0  0  0  0  0  0  0  0  0  0
    6.9295  -13.8679   25.6987 C   0  0  0  0  0  0  0  0  0  0  0  0
    5.7795  -13.3110   26.2129 C   0  0  0  0  0  0  0  0  0  0  0  0
    5.7296  -11.9644   26.5859 C   0  0  0  0  0  0  0  0  0  0  0  0
    6.8317  -11.1667   26.4463 C   0  0  0  0  0  0  0  0  0  0  0  0
    7.9874  -11.7082   25.9344 C   0  0  0  0  0  0  0  0  0  0  0  0
    8.0271  -13.0531   25.5650 C   0  0  0  0  0  0  0  0  0  0  0  0
    8.8222  -16.8382   25.0234 C   0  0  0  0  0  0  0  0  0  0  0  0
    8.2805  -17.9636   24.9794 O   0  0  0  0  0  0  0  0  0  0  0  0
   12.1663  -17.8202   24.2362 O   0  0  0  0  0  0  0  0  0  0  0  0
   12.2466  -17.8922   25.6443 C   0  0  0  0  0  0  0  0  0  0  0  0
   10.8070  -17.8775   26.1384 C   0  0  2  0  0  0  0  0  0  0  0  0
   10.1082  -16.7031   25.5958 N   0  0  0  0  0  0  0  0  0  0  0  0
   10.8475  -17.7901   27.6063 C   0  0  0  0  0  0  0  0  0  0  0  0
   10.2543  -16.7469   28.2823 O   0  0  0  0  0  0  0  0  0  0  0  0
   11.4314  -18.6771   28.2625 O   0  0  0  0  0  0  0  0  0  0  0  0
  2  1  1  6
  2  3  1  0
  4  5  1  0
  4  3  1  0
  5  6  2  0
  7  2  1  0
  7 10  1  0
  8  7  2  0
  9  5  1  0
 11 10  1  0
 11 12  1  1
 12 13  1  0
 13 18  2  0
 13 14  1  0
 14 15  2  0
 15 16  1  0
 17 16  2  0
 18 17  1  0
 19 11  1  0
 20 19  2  0
 21 22  1  0
 23 22  1  6
 23 24  1  0
 24 19  1  0
 25 23  1  0
 26 25  1  0
 27 25  2  0
M  END
$$$$
