EFS.pdb
     RDKit          3D

 27 27  0  0  1  0  0  0  0  0999 V2000
    6.6587  -15.0994   20.7995 N   0  0  0  0  0  0  0  0  0  0  0  0
    7.3014  -16.2758   21.2559 C   0  0  1  0  0  0  0  0  0  0  0  0
    8.3284  -16.8671   20.3688 C   0  0  0  0  0  0  0  0  0  0  0  0
    7.9705  -17.1669   18.9701 C   0  0  0  0  0  0  0  0  0  0  0  0
    8.9515  -17.8465   18.1351 C   0  0  0  0  0  0  0  0  0  0  0  0
    9.0610  -19.0849   18.1259 O   0  0  0  0  0  0  0  0  0  0  0  0
    7.9143  -16.0907   22.6257 C   0  0  0  0  0  0  0  0  0  0  0  0
    8.9667  -15.3979   22.7143 O   0  0  0  0  0  0  0  0  0  0  0  0
    9.8060  -17.0901   17.3107 O   0  0  0  0  0  0  0  0  0  0  0  0
    7.3903  -16.6377   23.8010 N   0  0  0  0  0  0  0  0  0  0  0  0
    7.9706  -16.4589   25.1104 C   0  0  1  0  0  0  0  0  0  0  0  0
    7.0072  -15.8036   26.0715 C   0  0  0  0  0  0  0  0  0  0  0  0
    7.1266  -14.3410   26.0990 C   0  0  0  0  0  0  0  0  0  0  0  0
    5.9890  -13.5699   26.0089 C   0  0  0  0  0  0  0  0  0  0  0  0
    6.0554  -12.1735   26.0318 C   0  0  0  0  0  0  0  0  0  0  0  0
    7.2622  -11.5403   26.1452 C   0  0  0  0  0  0  0  0  0  0  0  0
    8.4072  -12.2963   26.2362 C   0  0  0  0  0  0  0  0  0  0  0  0
    8.3304  -13.6893   26.2124 C   0  0  0  0  0  0  0  0  0  0  0  0
    8.5841  -17.6534   25.6806 C   0  0  0  0  0  0  0  0  0  0  0  0
    7.8660  -18.5869   26.0986 O   0  0  0  0  0  0  0  0  0  0  0  0
   12.6187  -17.8418   25.9259 O   0  0  0  0  0  0  0  0  0  0  0  0
   12.0297  -19.1181   25.7898 C   0  0  0  0  0  0  0  0  0  0  0  0
   10.6109  -18.9737   26.3220 C   0  0  2  0  0  0  0  0  0  0  0  0
    9.9915  -17.7637   25.7615 N   0  0  0  0  0  0  0  0  0  0  0  0
   10.7016  -18.8466   27.7848 C   0  0  0  0  0  0  0  0  0  0  0  0
   11.2787  -19.8289   28.5587 O   0  0  0  0  0  0  0  0  0  0  0  0
   10.2469  -17.8285   28.3461 O   0  0  0  0  0  0  0  0  0  0  0  0
  2  1  1  6
  2  3  1  0
  4  5  1  0
  4  3  1  0
  5  6  2  0
  7  2  1  0
  7 10  1  0
  8  7  2  0
  9  5  1  0
 11 10  1  0
 11 12  1  1
 12 13  1  0
 13 18  2  0
 13 14  1  0
 14 15  2  0
 15 16  1  0
 17 16  2  0
 18 17  1  0
 19 11  1  0
 20 19  2  0
 21 22  1  0
 23 22  1  6
 23 24  1  0
 24 19  1  0
 25 23  1  0
 26 25  1  0
 27 25  2  0
M  END
$$$$
