EFS.pdb
     RDKit          3D

 27 27  0  0  1  0  0  0  0  0999 V2000
    6.4420  -17.4057   21.3482 N   0  0  0  0  0  0  0  0  0  0  0  0
    7.7502  -16.8735   21.2458 C   0  0  1  0  0  0  0  0  0  0  0  0
    7.9497  -15.7610   20.2898 C   0  0  0  0  0  0  0  0  0  0  0  0
    8.3335  -16.0783   18.9018 C   0  0  0  0  0  0  0  0  0  0  0  0
    8.6010  -14.9756   17.9885 C   0  0  0  0  0  0  0  0  0  0  0  0
    7.8747  -13.9676   17.9453 O   0  0  0  0  0  0  0  0  0  0  0  0
    8.2918  -16.4406   22.5896 C   0  0  0  0  0  0  0  0  0  0  0  0
    9.4579  -15.9571   22.6297 O   0  0  0  0  0  0  0  0  0  0  0  0
    9.7109  -15.0418   17.1251 O   0  0  0  0  0  0  0  0  0  0  0  0
    7.5837  -16.5414   23.7911 N   0  0  0  0  0  0  0  0  0  0  0  0
    8.1650  -16.3408   25.0969 C   0  0  1  0  0  0  0  0  0  0  0  0
    7.1854  -15.7169   26.0625 C   0  0  0  0  0  0  0  0  0  0  0  0
    7.1543  -14.2516   25.9851 C   0  0  0  0  0  0  0  0  0  0  0  0
    5.9676  -13.6169   25.6924 C   0  0  0  0  0  0  0  0  0  0  0  0
    5.8914  -12.2233   25.6093 C   0  0  0  0  0  0  0  0  0  0  0  0
    7.0039  -11.4561   25.8190 C   0  0  0  0  0  0  0  0  0  0  0  0
    8.1963  -12.0750   26.1121 C   0  0  0  0  0  0  0  0  0  0  0  0
    8.2620  -13.4665   26.1928 C   0  0  0  0  0  0  0  0  0  0  0  0
    8.8219  -17.5127   25.6654 C   0  0  0  0  0  0  0  0  0  0  0  0
    8.1539  -18.5323   25.9414 O   0  0  0  0  0  0  0  0  0  0  0  0
   12.7873  -17.6224   25.5930 O   0  0  0  0  0  0  0  0  0  0  0  0
   12.2101  -18.9070   25.6983 C   0  0  0  0  0  0  0  0  0  0  0  0
   10.8877  -18.7041   26.4243 C   0  0  2  0  0  0  0  0  0  0  0  0
   10.2155  -17.5040   25.9047 N   0  0  0  0  0  0  0  0  0  0  0  0
   11.1943  -18.5166   27.8508 C   0  0  0  0  0  0  0  0  0  0  0  0
   11.8614  -19.4785   28.5766 O   0  0  0  0  0  0  0  0  0  0  0  0
   10.8450  -17.4647   28.4250 O   0  0  0  0  0  0  0  0  0  0  0  0
  2  1  1  1
  2  3  1  0
  4  5  1  0
  4  3  1  0
  5  6  2  0
  7  2  1  0
  7 10  1  0
  8  7  2  0
  9  5  1  0
 11 10  1  0
 11 12  1  1
 12 13  1  0
 13 18  2  0
 13 14  1  0
 14 15  2  0
 15 16  1  0
 17 16  2  0
 18 17  1  0
 19 11  1  0
 20 19  2  0
 21 22  1  0
 23 22  1  6
 23 24  1  0
 24 19  1  0
 25 23  1  0
 26 25  1  0
 27 25  2  0
M  END
$$$$
