EFS.pdb
     RDKit          3D

 27 27  0  0  1  0  0  0  0  0999 V2000
    8.9271  -17.2865   19.3326 N   0  0  0  0  0  0  0  0  0  0  0  0
    8.2059  -17.6597   20.4927 C   0  0  1  0  0  0  0  0  0  0  0  0
    8.3531  -19.0587   20.9537 C   0  0  0  0  0  0  0  0  0  0  0  0
    8.2212  -20.1481   19.9686 C   0  0  0  0  0  0  0  0  0  0  0  0
    8.3734  -21.5210   20.4305 C   0  0  0  0  0  0  0  0  0  0  0  0
    7.4165  -22.1705   20.8867 O   0  0  0  0  0  0  0  0  0  0  0  0
    8.5019  -16.7467   21.6611 C   0  0  0  0  0  0  0  0  0  0  0  0
    9.7091  -16.4605   21.8974 O   0  0  0  0  0  0  0  0  0  0  0  0
    9.6355  -22.1411   20.3635 O   0  0  0  0  0  0  0  0  0  0  0  0
    7.5241  -16.1989   22.4970 N   0  0  0  0  0  0  0  0  0  0  0  0
    7.8074  -15.4511   23.6986 C   0  0  1  0  0  0  0  0  0  0  0  0
    6.7990  -14.3509   23.9312 C   0  0  0  0  0  0  0  0  0  0  0  0
    7.0498  -13.5905   25.1613 C   0  0  0  0  0  0  0  0  0  0  0  0
    8.0180  -12.6110   25.1629 C   0  0  0  0  0  0  0  0  0  0  0  0
    8.2900  -11.8615   26.3114 C   0  0  0  0  0  0  0  0  0  0  0  0
    7.5936  -12.0885   27.4663 C   0  0  0  0  0  0  0  0  0  0  0  0
    6.6237  -13.0632   27.4807 C   0  0  0  0  0  0  0  0  0  0  0  0
    6.3597  -13.8057   26.3293 C   0  0  0  0  0  0  0  0  0  0  0  0
    8.0177  -16.2614   24.8933 C   0  0  0  0  0  0  0  0  0  0  0  0
    7.1015  -16.9964   25.3202 O   0  0  0  0  0  0  0  0  0  0  0  0
   11.5541  -17.4787   25.5451 O   0  0  0  0  0  0  0  0  0  0  0  0
   10.5459  -18.1995   26.2220 C   0  0  0  0  0  0  0  0  0  0  0  0
    9.5306  -17.1590   26.6733 C   0  0  2  0  0  0  0  0  0  0  0  0
    9.2572  -16.2228   25.5729 N   0  0  0  0  0  0  0  0  0  0  0  0
   10.1238  -16.4282   27.8038 C   0  0  0  0  0  0  0  0  0  0  0  0
   10.4991  -17.0737   28.9612 O   0  0  0  0  0  0  0  0  0  0  0  0
   10.2941  -15.1943   27.7212 O   0  0  0  0  0  0  0  0  0  0  0  0
  2  1  1  6
  2  3  1  0
  4  5  1  0
  4  3  1  0
  5  6  2  0
  7  2  1  0
  7 10  1  0
  8  7  2  0
  9  5  1  0
 11 10  1  0
 11 12  1  1
 12 13  1  0
 13 18  2  0
 13 14  1  0
 14 15  2  0
 15 16  1  0
 17 16  2  0
 18 17  1  0
 19 11  1  0
 20 19  2  0
 21 22  1  0
 23 22  1  6
 23 24  1  0
 24 19  1  0
 25 23  1  0
 26 25  1  0
 27 25  2  0
M  END
$$$$
