EFS.pdb
     RDKit          3D

 27 27  0  0  1  0  0  0  0  0999 V2000
    9.0984  -18.5287   21.1839 N   0  0  0  0  0  0  0  0  0  0  0  0
   10.2945  -17.7980   21.3855 C   0  0  1  0  0  0  0  0  0  0  0  0
   10.9842  -17.2923   20.1771 C   0  0  0  0  0  0  0  0  0  0  0  0
   11.1076  -18.1806   19.0065 C   0  0  0  0  0  0  0  0  0  0  0  0
   11.7572  -17.6626   17.8102 C   0  0  0  0  0  0  0  0  0  0  0  0
   12.4915  -16.6600   17.8433 O   0  0  0  0  0  0  0  0  0  0  0  0
   10.0952  -16.6366   22.3329 C   0  0  0  0  0  0  0  0  0  0  0  0
   11.0687  -15.8549   22.5238 O   0  0  0  0  0  0  0  0  0  0  0  0
   11.5552  -18.3073   16.5751 O   0  0  0  0  0  0  0  0  0  0  0  0
    8.9015  -16.3725   23.0115 N   0  0  0  0  0  0  0  0  0  0  0  0
    8.7525  -15.3632   24.0324 C   0  0  1  0  0  0  0  0  0  0  0  0
    7.3641  -14.7684   24.0416 C   0  0  0  0  0  0  0  0  0  0  0  0
    7.1881  -13.7325   25.0663 C   0  0  0  0  0  0  0  0  0  0  0  0
    7.7393  -12.4862   24.8665 C   0  0  0  0  0  0  0  0  0  0  0  0
    7.5961  -11.4691   25.8151 C   0  0  0  0  0  0  0  0  0  0  0  0
    6.8997  -11.6939   26.9704 C   0  0  0  0  0  0  0  0  0  0  0  0
    6.3434  -12.9331   27.1844 C   0  0  0  0  0  0  0  0  0  0  0  0
    6.4919  -13.9416   26.2316 C   0  0  0  0  0  0  0  0  0  0  0  0
    9.1827  -15.7679   25.3663 C   0  0  0  0  0  0  0  0  0  0  0  0
    8.5450  -16.6425   25.9910 O   0  0  0  0  0  0  0  0  0  0  0  0
   10.3158  -15.2099   29.6003 O   0  0  0  0  0  0  0  0  0  0  0  0
    9.7715  -14.9220   28.3294 C   0  0  0  0  0  0  0  0  0  0  0  0
   10.7272  -15.5469   27.3229 C   0  0  2  0  0  0  0  0  0  0  0  0
   10.3226  -15.1768   25.9586 N   0  0  0  0  0  0  0  0  0  0  0  0
   10.6397  -17.0067   27.4822 C   0  0  0  0  0  0  0  0  0  0  0  0
   11.5754  -17.7094   28.2086 O   0  0  0  0  0  0  0  0  0  0  0  0
    9.6992  -17.6313   26.9495 O   0  0  0  0  0  0  0  0  0  0  0  0
  2  1  1  6
  2  3  1  0
  4  5  1  0
  4  3  1  0
  5  6  2  0
  7  2  1  0
  7 10  1  0
  8  7  2  0
  9  5  1  0
 11 10  1  0
 11 12  1  1
 12 13  1  0
 13 18  2  0
 13 14  1  0
 14 15  2  0
 15 16  1  0
 17 16  2  0
 18 17  1  0
 19 11  1  0
 20 19  2  0
 21 22  1  0
 23 22  1  1
 23 24  1  0
 24 19  1  0
 25 23  1  0
 26 25  1  0
 27 25  2  0
M  END
$$$$
