EFS.pdb
     RDKit          3D

 27 27  0  0  1  0  0  0  0  0999 V2000
    9.3118  -17.2373   19.7149 N   0  0  0  0  0  0  0  0  0  0  0  0
    8.7045  -17.7478   20.8878 C   0  0  1  0  0  0  0  0  0  0  0  0
    9.0942  -19.1134   21.3058 C   0  0  0  0  0  0  0  0  0  0  0  0
    9.2317  -20.1589   20.2750 C   0  0  0  0  0  0  0  0  0  0  0  0
   10.1389  -21.2691   20.5321 C   0  0  0  0  0  0  0  0  0  0  0  0
   10.8138  -21.7890   19.6267 O   0  0  0  0  0  0  0  0  0  0  0  0
    8.8914  -16.8237   22.0699 C   0  0  0  0  0  0  0  0  0  0  0  0
   10.0593  -16.6776   22.5279 O   0  0  0  0  0  0  0  0  0  0  0  0
   10.2636  -21.7766   21.8393 O   0  0  0  0  0  0  0  0  0  0  0  0
    7.8534  -16.1203   22.6887 N   0  0  0  0  0  0  0  0  0  0  0  0
    8.0016  -15.3520   23.9015 C   0  0  1  0  0  0  0  0  0  0  0  0
    6.9733  -14.2502   24.0024 C   0  0  0  0  0  0  0  0  0  0  0  0
    7.0980  -13.4568   25.2309 C   0  0  0  0  0  0  0  0  0  0  0  0
    6.0757  -13.4777   26.1535 C   0  0  0  0  0  0  0  0  0  0  0  0
    6.1519  -12.7383   27.3377 C   0  0  0  0  0  0  0  0  0  0  0  0
    7.2532  -11.9729   27.6054 C   0  0  0  0  0  0  0  0  0  0  0  0
    8.2824  -11.9417   26.6940 C   0  0  0  0  0  0  0  0  0  0  0  0
    8.1967  -12.6831   25.5151 C   0  0  0  0  0  0  0  0  0  0  0  0
    8.0784  -16.1418   25.1256 C   0  0  0  0  0  0  0  0  0  0  0  0
    7.0586  -16.7145   25.5659 O   0  0  0  0  0  0  0  0  0  0  0  0
   11.3741  -17.8369   25.9156 O   0  0  0  0  0  0  0  0  0  0  0  0
   10.2796  -18.3548   26.6423 C   0  0  0  0  0  0  0  0  0  0  0  0
    9.4108  -17.1533   26.9869 C   0  0  2  0  0  0  0  0  0  0  0  0
    9.3046  -16.2666   25.8187 N   0  0  0  0  0  0  0  0  0  0  0  0
   10.0703  -16.4364   28.0893 C   0  0  0  0  0  0  0  0  0  0  0  0
   10.5004  -15.1358   27.9473 O   0  0  0  0  0  0  0  0  0  0  0  0
   10.2488  -17.0129   29.1821 O   0  0  0  0  0  0  0  0  0  0  0  0
  2  1  1  6
  2  3  1  0
  4  5  1  0
  4  3  1  0
  5  6  2  0
  7  2  1  0
  7 10  1  0
  8  7  2  0
  9  5  1  0
 11 10  1  0
 11 12  1  1
 12 13  1  0
 13 18  2  0
 13 14  1  0
 14 15  2  0
 15 16  1  0
 17 16  2  0
 18 17  1  0
 19 11  1  0
 20 19  2  0
 21 22  1  0
 23 22  1  6
 23 24  1  0
 24 19  1  0
 25 23  1  0
 26 25  1  0
 27 25  2  0
M  END
$$$$
