EFS.pdb
     RDKit          3D

 27 27  0  0  1  0  0  0  0  0999 V2000
   11.3022  -16.4487   19.7125 N   0  0  0  0  0  0  0  0  0  0  0  0
   10.0151  -16.6667   20.2610 C   0  0  1  0  0  0  0  0  0  0  0  0
    9.5426  -18.0679   20.3288 C   0  0  0  0  0  0  0  0  0  0  0  0
   10.5056  -19.1248   20.6896 C   0  0  0  0  0  0  0  0  0  0  0  0
   10.3247  -19.8234   21.9548 C   0  0  0  0  0  0  0  0  0  0  0  0
    9.6303  -20.8508   22.0445 O   0  0  0  0  0  0  0  0  0  0  0  0
    9.8761  -16.0572   21.6378 C   0  0  0  0  0  0  0  0  0  0  0  0
   10.9286  -15.8652   22.3089 O   0  0  0  0  0  0  0  0  0  0  0  0
   10.9490  -19.3306   23.1164 O   0  0  0  0  0  0  0  0  0  0  0  0
    8.6562  -15.6924   22.2157 N   0  0  0  0  0  0  0  0  0  0  0  0
    8.5220  -15.0923   23.5215 C   0  0  1  0  0  0  0  0  0  0  0  0
    7.2824  -14.2357   23.6258 C   0  0  0  0  0  0  0  0  0  0  0  0
    7.1520  -13.5673   24.9260 C   0  0  0  0  0  0  0  0  0  0  0  0
    7.9545  -12.4850   25.2111 C   0  0  0  0  0  0  0  0  0  0  0  0
    7.8639  -11.8174   26.4363 C   0  0  0  0  0  0  0  0  0  0  0  0
    6.9685  -12.2299   27.3841 C   0  0  0  0  0  0  0  0  0  0  0  0
    6.1602  -13.3092   27.1143 C   0  0  0  0  0  0  0  0  0  0  0  0
    6.2582  -13.9687   25.8886 C   0  0  0  0  0  0  0  0  0  0  0  0
    8.6413  -16.0200   24.6409 C   0  0  0  0  0  0  0  0  0  0  0  0
    7.8161  -16.9491   24.7744 O   0  0  0  0  0  0  0  0  0  0  0  0
   12.1362  -16.6730   26.1559 O   0  0  0  0  0  0  0  0  0  0  0  0
   11.1485  -17.6399   26.4456 C   0  0  0  0  0  0  0  0  0  0  0  0
    9.8600  -16.8583   26.6596 C   0  0  2  0  0  0  0  0  0  0  0  0
    9.6900  -15.8762   25.5785 N   0  0  0  0  0  0  0  0  0  0  0  0
    9.9810  -16.1561   27.9465 C   0  0  0  0  0  0  0  0  0  0  0  0
   10.2281  -16.8369   29.1180 O   0  0  0  0  0  0  0  0  0  0  0  0
    9.8577  -14.9145   27.9872 O   0  0  0  0  0  0  0  0  0  0  0  0
  2  1  1  1
  2  3  1  0
  4  5  1  0
  4  3  1  0
  5  6  2  0
  7  2  1  0
  7 10  1  0
  8  7  2  0
  9  5  1  0
 11 10  1  0
 11 12  1  6
 12 13  1  0
 13 18  2  0
 13 14  1  0
 14 15  2  0
 15 16  1  0
 17 16  2  0
 18 17  1  0
 19 11  1  0
 20 19  2  0
 21 22  1  0
 23 22  1  6
 23 24  1  0
 24 19  1  0
 25 23  1  0
 26 25  1  0
 27 25  2  0
M  END
$$$$
