EFS.pdb
     RDKit          3D

 27 27  0  0  1  0  0  0  0  0999 V2000
    6.9792  -16.7188   20.0352 N   0  0  0  0  0  0  0  0  0  0  0  0
    7.6965  -17.4965   20.9763 C   0  0  1  0  0  0  0  0  0  0  0  0
    8.7965  -18.3377   20.4530 C   0  0  0  0  0  0  0  0  0  0  0  0
    8.6737  -19.8043   20.5451 C   0  0  0  0  0  0  0  0  0  0  0  0
    9.8015  -20.6213   20.1183 C   0  0  0  0  0  0  0  0  0  0  0  0
    9.8385  -21.1551   18.9961 O   0  0  0  0  0  0  0  0  0  0  0  0
    8.2461  -16.6539   22.1052 C   0  0  0  0  0  0  0  0  0  0  0  0
    9.1412  -15.8066   21.8296 O   0  0  0  0  0  0  0  0  0  0  0  0
   10.8867  -20.8195   20.9929 O   0  0  0  0  0  0  0  0  0  0  0  0
    7.8264  -16.7530   23.4353 N   0  0  0  0  0  0  0  0  0  0  0  0
    8.3831  -15.9847   24.5230 C   0  0  1  0  0  0  0  0  0  0  0  0
    7.3148  -15.4800   25.4640 C   0  0  0  0  0  0  0  0  0  0  0  0
    7.8456  -14.6255   26.5328 C   0  0  0  0  0  0  0  0  0  0  0  0
    8.3580  -15.2088   27.6704 C   0  0  0  0  0  0  0  0  0  0  0  0
    8.8748  -14.4340   28.7132 C   0  0  0  0  0  0  0  0  0  0  0  0
    8.8816  -13.0694   28.6232 C   0  0  0  0  0  0  0  0  0  0  0  0
    8.3735  -12.4721   27.4936 C   0  0  0  0  0  0  0  0  0  0  0  0
    7.8600  -13.2541   26.4584 C   0  0  0  0  0  0  0  0  0  0  0  0
    9.4789  -16.6315   25.2365 C   0  0  0  0  0  0  0  0  0  0  0  0
    9.2672  -17.6685   25.9011 O   0  0  0  0  0  0  0  0  0  0  0  0
   13.3019  -15.1053   24.9812 O   0  0  0  0  0  0  0  0  0  0  0  0
   13.1797  -16.5096   24.8950 C   0  0  0  0  0  0  0  0  0  0  0  0
   11.9295  -16.8618   25.6887 C   0  0  2  0  0  0  0  0  0  0  0  0
   10.7849  -16.0924   25.1788 N   0  0  0  0  0  0  0  0  0  0  0  0
   12.1820  -16.4956   27.0909 C   0  0  0  0  0  0  0  0  0  0  0  0
   13.1998  -17.0761   27.8148 O   0  0  0  0  0  0  0  0  0  0  0  0
   11.4616  -15.6403   27.6457 O   0  0  0  0  0  0  0  0  0  0  0  0
  2  1  1  6
  2  3  1  0
  4  5  1  0
  4  3  1  0
  5  6  2  0
  7  2  1  0
  7 10  1  0
  8  7  2  0
  9  5  1  0
 11 10  1  0
 11 12  1  1
 12 13  1  0
 13 18  2  0
 13 14  1  0
 14 15  2  0
 15 16  1  0
 17 16  2  0
 18 17  1  0
 19 11  1  0
 20 19  2  0
 21 22  1  0
 23 22  1  6
 23 24  1  0
 24 19  1  0
 25 23  1  0
 26 25  1  0
 27 25  2  0
M  END
$$$$
