EFS.pdb
     RDKit          3D

 27 27  0  0  1  0  0  0  0  0999 V2000
   10.1589  -16.3378   19.3233 N   0  0  0  0  0  0  0  0  0  0  0  0
    9.4754  -16.9847   20.3814 C   0  0  1  0  0  0  0  0  0  0  0  0
    9.8607  -18.3838   20.6736 C   0  0  0  0  0  0  0  0  0  0  0  0
   10.1193  -19.2988   19.5465 C   0  0  0  0  0  0  0  0  0  0  0  0
    9.4018  -20.5657   19.5049 C   0  0  0  0  0  0  0  0  0  0  0  0
    9.5564  -21.3781   18.5766 O   0  0  0  0  0  0  0  0  0  0  0  0
    9.5529  -16.1975   21.6700 C   0  0  0  0  0  0  0  0  0  0  0  0
   10.6407  -16.2179   22.3114 O   0  0  0  0  0  0  0  0  0  0  0  0
    8.5046  -20.8907   20.5400 O   0  0  0  0  0  0  0  0  0  0  0  0
    8.4967  -15.4480   22.1972 N   0  0  0  0  0  0  0  0  0  0  0  0
    8.4856  -14.8796   23.5239 C   0  0  1  0  0  0  0  0  0  0  0  0
    7.4129  -13.8277   23.6797 C   0  0  0  0  0  0  0  0  0  0  0  0
    7.3841  -13.2286   25.0192 C   0  0  0  0  0  0  0  0  0  0  0  0
    6.2765  -13.4132   25.8167 C   0  0  0  0  0  0  0  0  0  0  0  0
    6.2061  -12.8617   27.0996 C   0  0  0  0  0  0  0  0  0  0  0  0
    7.2451  -12.1214   27.5921 C   0  0  0  0  0  0  0  0  0  0  0  0
    8.3580  -11.9281   26.8080 C   0  0  0  0  0  0  0  0  0  0  0  0
    8.4187  -12.4826   25.5290 C   0  0  0  0  0  0  0  0  0  0  0  0
    8.4592  -15.8525   24.6106 C   0  0  0  0  0  0  0  0  0  0  0  0
    7.4801  -16.6180   24.7417 O   0  0  0  0  0  0  0  0  0  0  0  0
   11.6409  -17.4809   25.5799 O   0  0  0  0  0  0  0  0  0  0  0  0
   10.4916  -18.1159   26.0999 C   0  0  0  0  0  0  0  0  0  0  0  0
    9.5673  -16.9910   26.5442 C   0  0  2  0  0  0  0  0  0  0  0  0
    9.5397  -15.9374   25.5189 N   0  0  0  0  0  0  0  0  0  0  0  0
   10.1122  -16.4438   27.7963 C   0  0  0  0  0  0  0  0  0  0  0  0
   10.2572  -17.2255   28.9209 O   0  0  0  0  0  0  0  0  0  0  0  0
   10.4530  -15.2441   27.8498 O   0  0  0  0  0  0  0  0  0  0  0  0
  2  1  1  6
  2  3  1  0
  4  5  1  0
  4  3  1  0
  5  6  2  0
  7  2  1  0
  7 10  1  0
  8  7  2  0
  9  5  1  0
 11 10  1  0
 11 12  1  6
 12 13  1  0
 13 18  2  0
 13 14  1  0
 14 15  2  0
 15 16  1  0
 17 16  2  0
 18 17  1  0
 19 11  1  0
 20 19  2  0
 21 22  1  0
 23 22  1  6
 23 24  1  0
 24 19  1  0
 25 23  1  0
 26 25  1  0
 27 25  2  0
M  END
$$$$
