EFS.pdb
     RDKit          3D

 27 27  0  0  1  0  0  0  0  0999 V2000
    8.3635  -18.0033   20.3160 N   0  0  0  0  0  0  0  0  0  0  0  0
    9.6737  -17.7023   20.7608 C   0  0  1  0  0  0  0  0  0  0  0  0
   10.6888  -17.4240   19.7198 C   0  0  0  0  0  0  0  0  0  0  0  0
   10.4853  -17.9715   18.3658 C   0  0  0  0  0  0  0  0  0  0  0  0
   11.4595  -17.6447   17.3335 C   0  0  0  0  0  0  0  0  0  0  0  0
   11.1778  -16.9046   16.3752 O   0  0  0  0  0  0  0  0  0  0  0  0
    9.6871  -16.5567   21.7476 C   0  0  0  0  0  0  0  0  0  0  0  0
   10.8070  -16.1476   22.1643 O   0  0  0  0  0  0  0  0  0  0  0  0
   12.7607  -18.1763   17.4124 O   0  0  0  0  0  0  0  0  0  0  0  0
    8.5382  -15.9211   22.2286 N   0  0  0  0  0  0  0  0  0  0  0  0
    8.4473  -15.2680   23.5125 C   0  0  1  0  0  0  0  0  0  0  0  0
    7.3435  -14.2375   23.5462 C   0  0  0  0  0  0  0  0  0  0  0  0
    7.2711  -13.5126   24.8203 C   0  0  0  0  0  0  0  0  0  0  0  0
    8.1485  -12.4780   25.0581 C   0  0  0  0  0  0  0  0  0  0  0  0
    8.1151  -11.7594   26.2570 C   0  0  0  0  0  0  0  0  0  0  0  0
    7.2022  -12.0728   27.2259 C   0  0  0  0  0  0  0  0  0  0  0  0
    6.3194  -13.1034   27.0035 C   0  0  0  0  0  0  0  0  0  0  0  0
    6.3608  -13.8144   25.8036 C   0  0  0  0  0  0  0  0  0  0  0  0
    8.3898  -16.1684   24.6589 C   0  0  0  0  0  0  0  0  0  0  0  0
    7.4082  -16.9269   24.8103 O   0  0  0  0  0  0  0  0  0  0  0  0
   11.3558  -18.0187   25.4726 O   0  0  0  0  0  0  0  0  0  0  0  0
   10.1706  -18.4759   26.0896 C   0  0  0  0  0  0  0  0  0  0  0  0
    9.4886  -17.2314   26.6402 C   0  0  2  0  0  0  0  0  0  0  0  0
    9.4427  -16.1906   25.6025 N   0  0  0  0  0  0  0  0  0  0  0  0
   10.2927  -16.7567   27.7769 C   0  0  0  0  0  0  0  0  0  0  0  0
   10.8137  -15.4821   27.8080 O   0  0  0  0  0  0  0  0  0  0  0  0
   10.5135  -17.5202   28.7395 O   0  0  0  0  0  0  0  0  0  0  0  0
  2  1  1  6
  2  3  1  0
  4  5  1  0
  4  3  1  0
  5  6  2  0
  7  2  1  0
  7 10  1  0
  8  7  2  0
  9  5  1  0
 11 10  1  0
 11 12  1  6
 12 13  1  0
 13 18  2  0
 13 14  1  0
 14 15  2  0
 15 16  1  0
 17 16  2  0
 18 17  1  0
 19 11  1  0
 20 19  2  0
 21 22  1  0
 23 22  1  6
 23 24  1  0
 24 19  1  0
 25 23  1  0
 26 25  1  0
 27 25  2  0
M  END
$$$$
