EFS.pdb
     RDKit          3D

 27 27  0  0  1  0  0  0  0  0999 V2000
   10.9784  -16.4596   19.8932 N   0  0  0  0  0  0  0  0  0  0  0  0
    9.7289  -16.6705   20.5252 C   0  0  1  0  0  0  0  0  0  0  0  0
    9.2709  -18.0721   20.6565 C   0  0  0  0  0  0  0  0  0  0  0  0
   10.1384  -19.0398   21.3534 C   0  0  0  0  0  0  0  0  0  0  0  0
    9.7291  -20.4372   21.3870 C   0  0  0  0  0  0  0  0  0  0  0  0
    9.7972  -21.1659   20.3820 O   0  0  0  0  0  0  0  0  0  0  0  0
    9.6706  -16.0275   21.8924 C   0  0  0  0  0  0  0  0  0  0  0  0
   10.7255  -16.0173   22.5870 O   0  0  0  0  0  0  0  0  0  0  0  0
    9.2406  -20.9898   22.5861 O   0  0  0  0  0  0  0  0  0  0  0  0
    8.5230  -15.4433   22.4373 N   0  0  0  0  0  0  0  0  0  0  0  0
    8.4625  -14.8355   23.7450 C   0  0  1  0  0  0  0  0  0  0  0  0
    7.3069  -13.8706   23.8675 C   0  0  0  0  0  0  0  0  0  0  0  0
    7.2640  -13.1851   25.1645 C   0  0  0  0  0  0  0  0  0  0  0  0
    6.2390  -13.4643   26.0411 C   0  0  0  0  0  0  0  0  0  0  0  0
    6.1588  -12.8357   27.2874 C   0  0  0  0  0  0  0  0  0  0  0  0
    7.1052  -11.9231   27.6639 C   0  0  0  0  0  0  0  0  0  0  0  0
    8.1348  -11.6336   26.7997 C   0  0  0  0  0  0  0  0  0  0  0  0
    8.2060  -12.2662   25.5581 C   0  0  0  0  0  0  0  0  0  0  0  0
    8.5135  -15.7719   24.8625 C   0  0  0  0  0  0  0  0  0  0  0  0
    7.5738  -16.5742   25.0501 O   0  0  0  0  0  0  0  0  0  0  0  0
   11.8395  -17.1605   25.9495 O   0  0  0  0  0  0  0  0  0  0  0  0
   10.7169  -17.8458   26.4639 C   0  0  0  0  0  0  0  0  0  0  0  0
    9.7071  -16.7655   26.8249 C   0  0  2  0  0  0  0  0  0  0  0  0
    9.6248  -15.7798   25.7369 N   0  0  0  0  0  0  0  0  0  0  0  0
   10.1877  -16.1067   28.0492 C   0  0  0  0  0  0  0  0  0  0  0  0
   10.3782  -16.8098   29.2181 O   0  0  0  0  0  0  0  0  0  0  0  0
   10.4304  -14.8822   28.0377 O   0  0  0  0  0  0  0  0  0  0  0  0
  2  1  1  1
  2  3  1  0
  4  5  1  0
  4  3  1  0
  5  6  2  0
  7  2  1  0
  7 10  1  0
  8  7  2  0
  9  5  1  0
 11 10  1  0
 11 12  1  6
 12 13  1  0
 13 18  2  0
 13 14  1  0
 14 15  2  0
 15 16  1  0
 17 16  2  0
 18 17  1  0
 19 11  1  0
 20 19  2  0
 21 22  1  0
 23 22  1  6
 23 24  1  0
 24 19  1  0
 25 23  1  0
 26 25  1  0
 27 25  2  0
M  END
$$$$
