EFS.pdb
     RDKit          3D

 27 27  0  0  1  0  0  0  0  0999 V2000
   10.4264  -16.4806   19.6490 N   0  0  0  0  0  0  0  0  0  0  0  0
    9.2036  -16.5867   20.3550 C   0  0  1  0  0  0  0  0  0  0  0  0
    8.6420  -17.9459   20.5248 C   0  0  0  0  0  0  0  0  0  0  0  0
    9.5199  -19.0187   21.0276 C   0  0  0  0  0  0  0  0  0  0  0  0
    8.9920  -20.3749   21.0853 C   0  0  0  0  0  0  0  0  0  0  0  0
    9.3724  -21.1921   21.9415 O   0  0  0  0  0  0  0  0  0  0  0  0
    9.2788  -15.9362   21.7178 C   0  0  0  0  0  0  0  0  0  0  0  0
   10.3561  -16.0467   22.3677 O   0  0  0  0  0  0  0  0  0  0  0  0
    8.0226  -20.7839   20.1498 O   0  0  0  0  0  0  0  0  0  0  0  0
    8.2313  -15.2197   22.3049 N   0  0  0  0  0  0  0  0  0  0  0  0
    8.2757  -14.6558   23.6328 C   0  0  1  0  0  0  0  0  0  0  0  0
    7.1581  -13.6666   23.8650 C   0  0  0  0  0  0  0  0  0  0  0  0
    7.2198  -13.0274   25.1848 C   0  0  0  0  0  0  0  0  0  0  0  0
    6.2427  -13.3053   26.1148 C   0  0  0  0  0  0  0  0  0  0  0  0
    6.2620  -12.7200   27.3844 C   0  0  0  0  0  0  0  0  0  0  0  0
    7.2606  -11.8521   27.7307 C   0  0  0  0  0  0  0  0  0  0  0  0
    8.2434  -11.5645   26.8130 C   0  0  0  0  0  0  0  0  0  0  0  0
    8.2153  -12.1538   25.5486 C   0  0  0  0  0  0  0  0  0  0  0  0
    8.3759  -15.6309   24.7132 C   0  0  0  0  0  0  0  0  0  0  0  0
    7.4533  -16.4526   24.9022 O   0  0  0  0  0  0  0  0  0  0  0  0
   11.7533  -16.9366   25.6363 O   0  0  0  0  0  0  0  0  0  0  0  0
   10.7064  -17.6863   26.2164 C   0  0  0  0  0  0  0  0  0  0  0  0
    9.6414  -16.6707   26.6053 C   0  0  2  0  0  0  0  0  0  0  0  0
    9.5157  -15.6548   25.5498 N   0  0  0  0  0  0  0  0  0  0  0  0
   10.0814  -16.0296   27.8541 C   0  0  0  0  0  0  0  0  0  0  0  0
   10.2932  -16.7595   29.0027 O   0  0  0  0  0  0  0  0  0  0  0  0
   10.2690  -14.7957   27.8827 O   0  0  0  0  0  0  0  0  0  0  0  0
  2  1  1  1
  2  3  1  0
  4  5  1  0
  4  3  1  0
  5  6  2  0
  7  2  1  0
  7 10  1  0
  8  7  2  0
  9  5  1  0
 11 10  1  0
 11 12  1  1
 12 13  1  0
 13 18  2  0
 13 14  1  0
 14 15  2  0
 15 16  1  0
 17 16  2  0
 18 17  1  0
 19 11  1  0
 20 19  2  0
 21 22  1  0
 23 22  1  6
 23 24  1  0
 24 19  1  0
 25 23  1  0
 26 25  1  0
 27 25  2  0
M  END
$$$$
