EFS.pdb
     RDKit          3D

 27 27  0  0  1  0  0  0  0  0999 V2000
   10.5204  -16.8549   19.6138 N   0  0  0  0  0  0  0  0  0  0  0  0
    9.4131  -17.1836   20.4330 C   0  0  1  0  0  0  0  0  0  0  0  0
    9.1863  -18.6198   20.7109 C   0  0  0  0  0  0  0  0  0  0  0  0
    9.8542  -19.6215   19.8593 C   0  0  0  0  0  0  0  0  0  0  0  0
    9.5894  -21.0313   20.1116 C   0  0  0  0  0  0  0  0  0  0  0  0
   10.2048  -21.6696   20.9830 O   0  0  0  0  0  0  0  0  0  0  0  0
    9.4492  -16.4497   21.7545 C   0  0  0  0  0  0  0  0  0  0  0  0
   10.5292  -16.4628   22.4093 O   0  0  0  0  0  0  0  0  0  0  0  0
    8.6108  -21.7013   19.3531 O   0  0  0  0  0  0  0  0  0  0  0  0
    8.3630  -15.7572   22.2982 N   0  0  0  0  0  0  0  0  0  0  0  0
    8.3764  -15.1050   23.5857 C   0  0  1  0  0  0  0  0  0  0  0  0
    7.3161  -14.0342   23.6885 C   0  0  0  0  0  0  0  0  0  0  0  0
    7.3241  -13.3380   24.9806 C   0  0  0  0  0  0  0  0  0  0  0  0
    8.3343  -12.4441   25.2584 C   0  0  0  0  0  0  0  0  0  0  0  0
    8.3814  -11.7579   26.4757 C   0  0  0  0  0  0  0  0  0  0  0  0
    7.4165  -11.9628   27.4229 C   0  0  0  0  0  0  0  0  0  0  0  0
    6.4012  -12.8522   27.1604 C   0  0  0  0  0  0  0  0  0  0  0  0
    6.3630  -13.5321   25.9425 C   0  0  0  0  0  0  0  0  0  0  0  0
    8.3567  -16.0058   24.7329 C   0  0  0  0  0  0  0  0  0  0  0  0
    7.3258  -16.6617   24.9960 O   0  0  0  0  0  0  0  0  0  0  0  0
   11.5559  -17.7978   25.7325 O   0  0  0  0  0  0  0  0  0  0  0  0
   10.3564  -18.3262   26.2581 C   0  0  0  0  0  0  0  0  0  0  0  0
    9.5147  -17.1204   26.6512 C   0  0  2  0  0  0  0  0  0  0  0  0
    9.5016  -16.1447   25.5512 N   0  0  0  0  0  0  0  0  0  0  0  0
   10.1410  -16.5155   27.8368 C   0  0  0  0  0  0  0  0  0  0  0  0
   10.5820  -15.2107   27.8318 O   0  0  0  0  0  0  0  0  0  0  0  0
   10.2807  -17.1933   28.8758 O   0  0  0  0  0  0  0  0  0  0  0  0
  2  1  1  1
  2  3  1  0
  4  5  1  0
  4  3  1  0
  5  6  2  0
  7  2  1  0
  7 10  1  0
  8  7  2  0
  9  5  1  0
 11 10  1  0
 11 12  1  6
 12 13  1  0
 13 18  2  0
 13 14  1  0
 14 15  2  0
 15 16  1  0
 17 16  2  0
 18 17  1  0
 19 11  1  0
 20 19  2  0
 21 22  1  0
 23 22  1  6
 23 24  1  0
 24 19  1  0
 25 23  1  0
 26 25  1  0
 27 25  2  0
M  END
$$$$
