YIY.pdb
     RDKit          3D

 33 34  0  0  1  0  0  0  0  0999 V2000
    0.1499  -21.3610   22.9805 O   0  0  0  0  0  0  0  0  0  0  0  0
    1.3192  -20.5959   22.8634 C   0  0  0  0  0  0  0  0  0  0  0  0
    1.3435  -19.4263   22.1357 C   0  0  0  0  0  0  0  0  0  0  0  0
    2.5153  -18.6854   22.0345 C   0  0  0  0  0  0  0  0  0  0  0  0
    3.6804  -19.0903   22.6515 C   0  0  0  0  0  0  0  0  0  0  0  0
    4.8861  -18.2778   22.5157 C   0  0  0  0  0  0  0  0  0  0  0  0
    5.3759  -18.1514   21.0952 C   0  0  2  0  0  0  0  0  0  0  0  0
    5.6715  -19.4489   20.5170 N   0  0  0  0  0  0  0  0  0  0  0  0
    6.6887  -17.4179   21.1671 C   0  0  0  0  0  0  0  0  0  0  0  0
    7.7246  -18.1390   21.2164 O   0  0  0  0  0  0  0  0  0  0  0  0
    3.6194  -20.2654   23.3711 C   0  0  0  0  0  0  0  0  0  0  0  0
    2.4621  -21.0084   23.4782 C   0  0  0  0  0  0  0  0  0  0  0  0
    7.0973  -12.5746   18.5932 C   0  0  0  0  0  0  0  0  0  0  0  0
    7.4406  -13.9026   19.1571 C   0  0  0  0  0  0  0  0  0  0  0  0
    7.8962  -14.0110   20.5446 C   0  0  2  0  0  0  0  0  0  0  0  0
    9.1529  -13.1193   20.6684 C   0  0  0  0  0  0  0  0  0  0  0  0
    8.1085  -15.3270   21.1455 C   0  0  2  0  0  0  0  0  0  0  0  0
    6.7908  -16.0366   21.1803 N   0  0  0  0  0  0  0  0  0  0  0  0
    8.5572  -15.3598   22.5246 C   0  0  0  0  0  0  0  0  0  0  0  0
    7.8591  -14.7700   23.4392 O   0  0  0  0  0  0  0  0  0  0  0  0
   10.3436  -15.3988   30.8058 O   0  0  0  0  0  0  0  0  0  0  0  0
   10.0240  -15.5175   29.4698 C   0  0  0  0  0  0  0  0  0  0  0  0
    9.8585  -14.4238   28.6365 C   0  0  0  0  0  0  0  0  0  0  0  0
    9.5390  -14.5579   27.3024 C   0  0  0  0  0  0  0  0  0  0  0  0
    9.3731  -15.7942   26.7532 C   0  0  0  0  0  0  0  0  0  0  0  0
    9.0270  -15.9902   25.3332 C   0  0  0  0  0  0  0  0  0  0  0  0
   10.1869  -15.6889   24.3820 C   0  0  2  0  0  0  0  0  0  0  0  0
    9.7251  -16.0048   23.0424 N   0  0  0  0  0  0  0  0  0  0  0  0
   11.3570  -16.4527   24.7632 C   0  0  0  0  0  0  0  0  0  0  0  0
   11.5515  -17.6336   24.4167 O   0  0  0  0  0  0  0  0  0  0  0  0
    9.5298  -16.9046   27.5509 C   0  0  0  0  0  0  0  0  0  0  0  0
    9.8518  -16.7745   28.8956 C   0  0  0  0  0  0  0  0  0  0  0  0
   12.3590  -15.8884   25.5612 O   0  0  0  0  0  0  0  0  0  0  0  0
  2 12  2  0
  2  1  1  0
  3  2  1  0
  4  5  1  0
  4  3  2  0
  5 11  2  0
  6  5  1  0
  7  6  1  0
  7  8  1  1
  9  7  1  0
 10  9  2  0
 11 12  1  0
 13 14  1  0
 14 15  1  0
 15 17  1  0
 15 16  1  6
 17 19  1  0
 17 18  1  1
 18  9  1  0
 19 28  1  0
 20 19  2  0
 22 21  1  0
 23 22  2  0
 24 23  1  0
 25 24  2  0
 25 31  1  0
 26 25  1  0
 27 29  1  0
 27 26  1  1
 28 27  1  0
 29 30  2  0
 29 33  1  0
 31 32  2  0
 32 22  1  0
M  END
$$$$
