YIY.pdb
     RDKit          3D

 33 34  0  0  1  0  0  0  0  0999 V2000
   16.3383  -20.1592   15.6476 O   0  0  0  0  0  0  0  0  0  0  0  0
   15.6553  -19.3180   16.5378 C   0  0  0  0  0  0  0  0  0  0  0  0
   14.2934  -19.4175   16.7199 C   0  0  0  0  0  0  0  0  0  0  0  0
   13.6392  -18.5720   17.6083 C   0  0  0  0  0  0  0  0  0  0  0  0
   14.3223  -17.6154   18.3298 C   0  0  0  0  0  0  0  0  0  0  0  0
   13.5905  -16.7505   19.2510 C   0  0  0  0  0  0  0  0  0  0  0  0
   12.4465  -16.0085   18.6072 C   0  0  2  0  0  0  0  0  0  0  0  0
   12.9172  -15.0718   17.6041 N   0  0  0  0  0  0  0  0  0  0  0  0
   11.8209  -15.1759   19.6945 C   0  0  0  0  0  0  0  0  0  0  0  0
   12.4667  -14.1492   20.0473 O   0  0  0  0  0  0  0  0  0  0  0  0
   15.6840  -17.5442   18.1223 C   0  0  0  0  0  0  0  0  0  0  0  0
   16.3434  -18.3782   17.2433 C   0  0  0  0  0  0  0  0  0  0  0  0
    7.0789  -13.3194   18.7751 C   0  0  0  0  0  0  0  0  0  0  0  0
    8.4164  -13.4975   19.3906 C   0  0  0  0  0  0  0  0  0  0  0  0
    8.5588  -14.2978   20.6086 C   0  0  2  0  0  0  0  0  0  0  0  0
    7.5842  -13.6985   21.6481 C   0  0  0  0  0  0  0  0  0  0  0  0
    9.8835  -14.5286   21.1831 C   0  0  2  0  0  0  0  0  0  0  0  0
   10.6117  -15.4877   20.2936 N   0  0  0  0  0  0  0  0  0  0  0  0
    9.9377  -15.1567   22.4895 C   0  0  0  0  0  0  0  0  0  0  0  0
    9.5456  -16.3810   22.6280 O   0  0  0  0  0  0  0  0  0  0  0  0
   10.2135  -16.7597   31.1853 O   0  0  0  0  0  0  0  0  0  0  0  0
   10.3446  -16.1694   29.9461 C   0  0  0  0  0  0  0  0  0  0  0  0
    9.7297  -14.9737   29.6143 C   0  0  0  0  0  0  0  0  0  0  0  0
    9.8699  -14.3953   28.3709 C   0  0  0  0  0  0  0  0  0  0  0  0
   10.6321  -14.9943   27.4129 C   0  0  0  0  0  0  0  0  0  0  0  0
   10.8097  -14.4182   26.0671 C   0  0  0  0  0  0  0  0  0  0  0  0
   10.3113  -15.3345   24.9477 C   0  0  2  0  0  0  0  0  0  0  0  0
   10.4061  -14.5785   23.7120 N   0  0  0  0  0  0  0  0  0  0  0  0
    8.9612  -15.7774   25.2284 C   0  0  0  0  0  0  0  0  0  0  0  0
    7.9445  -15.1286   24.9156 O   0  0  0  0  0  0  0  0  0  0  0  0
   11.2585  -16.1839   27.7066 C   0  0  0  0  0  0  0  0  0  0  0  0
   11.1203  -16.7705   28.9580 C   0  0  0  0  0  0  0  0  0  0  0  0
    8.7209  -16.9916   25.8820 O   0  0  0  0  0  0  0  0  0  0  0  0
  2 12  2  0
  2  1  1  0
  3  2  1  0
  4  5  1  0
  4  3  2  0
  5 11  2  0
  6  5  1  0
  7  6  1  0
  7  8  1  6
  9  7  1  0
 10  9  2  0
 11 12  1  0
 13 14  1  0
 14 15  1  0
 15 17  1  0
 15 16  1  1
 17 19  1  0
 17 18  1  6
 18  9  1  0
 19 28  1  0
 20 19  2  0
 22 21  1  0
 23 22  2  0
 24 23  1  0
 25 24  2  0
 25 31  1  0
 26 25  1  0
 27 29  1  0
 27 26  1  1
 28 27  1  0
 29 30  2  0
 29 33  1  0
 31 32  2  0
 32 22  1  0
M  END
$$$$
