YIY.pdb
     RDKit          3D

 33 34  0  0  1  0  0  0  0  0999 V2000
    5.0803  -21.2611   17.7862 O   0  0  0  0  0  0  0  0  0  0  0  0
    5.7493  -20.3820   18.6501 C   0  0  0  0  0  0  0  0  0  0  0  0
    5.4474  -20.3247   19.9930 C   0  0  0  0  0  0  0  0  0  0  0  0
    6.1249  -19.4447   20.8290 C   0  0  0  0  0  0  0  0  0  0  0  0
    7.1109  -18.6083   20.3491 C   0  0  0  0  0  0  0  0  0  0  0  0
    7.7941  -17.7011   21.2670 C   0  0  0  0  0  0  0  0  0  0  0  0
    7.3122  -16.2748   21.1813 C   0  0  2  0  0  0  0  0  0  0  0  0
    7.5913  -15.6961   19.8805 N   0  0  0  0  0  0  0  0  0  0  0  0
    8.1348  -15.4932   22.1708 C   0  0  0  0  0  0  0  0  0  0  0  0
    9.2626  -15.0964   21.7631 O   0  0  0  0  0  0  0  0  0  0  0  0
    7.3867  -18.6926   19.0003 C   0  0  0  0  0  0  0  0  0  0  0  0
    6.7207  -19.5621   18.1617 C   0  0  0  0  0  0  0  0  0  0  0  0
    5.6272  -12.3845   25.9983 C   0  0  0  0  0  0  0  0  0  0  0  0
    6.5649  -12.9402   24.9927 C   0  0  0  0  0  0  0  0  0  0  0  0
    7.6447  -13.8337   25.4167 C   0  0  2  0  0  0  0  0  0  0  0  0
    8.4282  -13.0875   26.5209 C   0  0  0  0  0  0  0  0  0  0  0  0
    8.5424  -14.4214   24.4233 C   0  0  2  0  0  0  0  0  0  0  0  0
    7.7112  -15.2085   23.4585 N   0  0  0  0  0  0  0  0  0  0  0  0
    9.5212  -15.3795   24.9008 C   0  0  0  0  0  0  0  0  0  0  0  0
    9.1384  -16.5615   25.2586 O   0  0  0  0  0  0  0  0  0  0  0  0
   10.8385  -14.7675   31.5303 O   0  0  0  0  0  0  0  0  0  0  0  0
   10.8561  -15.3394   30.2757 C   0  0  0  0  0  0  0  0  0  0  0  0
    9.7625  -15.3216   29.4262 C   0  0  0  0  0  0  0  0  0  0  0  0
    9.7948  -15.8977   28.1744 C   0  0  0  0  0  0  0  0  0  0  0  0
   10.9251  -16.5138   27.7269 C   0  0  0  0  0  0  0  0  0  0  0  0
   11.0085  -17.1483   26.3983 C   0  0  0  0  0  0  0  0  0  0  0  0
   11.7833  -16.3122   25.3777 C   0  0  2  0  0  0  0  0  0  0  0  0
   10.9344  -15.1892   25.0229 N   0  0  0  0  0  0  0  0  0  0  0  0
   12.1400  -17.1252   24.2334 C   0  0  0  0  0  0  0  0  0  0  0  0
   13.2491  -17.0700   23.6683 O   0  0  0  0  0  0  0  0  0  0  0  0
   12.0320  -16.5512   28.5439 C   0  0  0  0  0  0  0  0  0  0  0  0
   12.0043  -15.9720   29.8059 C   0  0  0  0  0  0  0  0  0  0  0  0
   11.2336  -18.0420   23.6883 O   0  0  0  0  0  0  0  0  0  0  0  0
  2 12  2  0
  2  1  1  0
  3  2  1  0
  4  5  1  0
  4  3  2  0
  5 11  2  0
  6  5  1  0
  7  6  1  0
  7  8  1  6
  9  7  1  0
 10  9  2  0
 11 12  1  0
 13 14  1  0
 14 15  1  0
 15 17  1  0
 15 16  1  1
 17 19  1  0
 17 18  1  6
 18  9  1  0
 19 28  1  0
 20 19  2  0
 22 21  1  0
 23 22  2  0
 24 23  1  0
 25 24  2  0
 25 31  1  0
 26 25  1  0
 27 29  1  0
 27 26  1  1
 28 27  1  0
 29 30  2  0
 29 33  1  0
 31 32  2  0
 32 22  1  0
M  END
$$$$
