YIY.pdb
     RDKit          3D

 33 34  0  0  1  0  0  0  0  0999 V2000
    5.9240  -19.6569   17.0651 O   0  0  0  0  0  0  0  0  0  0  0  0
    6.3795  -19.0266   18.2321 C   0  0  0  0  0  0  0  0  0  0  0  0
    7.4855  -19.4861   18.9128 C   0  0  0  0  0  0  0  0  0  0  0  0
    7.9174  -18.8439   20.0675 C   0  0  0  0  0  0  0  0  0  0  0  0
    7.2617  -17.7377   20.5661 C   0  0  0  0  0  0  0  0  0  0  0  0
    7.7538  -17.0975   21.7827 C   0  0  0  0  0  0  0  0  0  0  0  0
    8.0825  -15.6362   21.6092 C   0  0  2  0  0  0  0  0  0  0  0  0
    9.1220  -15.4389   20.6165 N   0  0  0  0  0  0  0  0  0  0  0  0
    8.6648  -15.1780   22.9198 C   0  0  0  0  0  0  0  0  0  0  0  0
    9.9224  -15.2412   23.0198 O   0  0  0  0  0  0  0  0  0  0  0  0
    6.1590  -17.3056   19.8592 C   0  0  0  0  0  0  0  0  0  0  0  0
    5.7217  -17.9352   18.7123 C   0  0  0  0  0  0  0  0  0  0  0  0
    6.1984  -11.1846   25.6880 C   0  0  0  0  0  0  0  0  0  0  0  0
    7.2744  -12.0691   25.1786 C   0  0  0  0  0  0  0  0  0  0  0  0
    7.5998  -13.3070   25.8899 C   0  0  2  0  0  0  0  0  0  0  0  0
    8.0839  -12.8936   27.2986 C   0  0  0  0  0  0  0  0  0  0  0  0
    8.4950  -14.2891   25.2797 C   0  0  2  0  0  0  0  0  0  0  0  0
    7.8971  -14.7097   23.9733 N   0  0  0  0  0  0  0  0  0  0  0  0
    8.6898  -15.5382   25.9909 C   0  0  0  0  0  0  0  0  0  0  0  0
    7.8407  -16.5012   25.8379 O   0  0  0  0  0  0  0  0  0  0  0  0
   12.1564  -23.2926   26.5976 O   0  0  0  0  0  0  0  0  0  0  0  0
   11.7000  -22.0032   26.4234 C   0  0  0  0  0  0  0  0  0  0  0  0
   10.3630  -21.6990   26.2286 C   0  0  0  0  0  0  0  0  0  0  0  0
    9.9212  -20.4048   26.0558 C   0  0  0  0  0  0  0  0  0  0  0  0
   10.8037  -19.3663   26.0718 C   0  0  0  0  0  0  0  0  0  0  0  0
   10.3817  -17.9653   25.8875 C   0  0  0  0  0  0  0  0  0  0  0  0
   10.0190  -17.2666   27.1994 C   0  0  2  0  0  0  0  0  0  0  0  0
    9.7619  -15.8745   26.8773 N   0  0  0  0  0  0  0  0  0  0  0  0
   11.0877  -17.4278   28.1636 C   0  0  0  0  0  0  0  0  0  0  0  0
   11.0366  -18.2227   29.1217 O   0  0  0  0  0  0  0  0  0  0  0  0
   12.1407  -19.6303   26.2632 C   0  0  0  0  0  0  0  0  0  0  0  0
   12.5905  -20.9327   26.4377 C   0  0  0  0  0  0  0  0  0  0  0  0
   12.2670  -16.6803   28.0660 O   0  0  0  0  0  0  0  0  0  0  0  0
  2 12  2  0
  2  1  1  0
  3  2  1  0
  4  5  1  0
  4  3  2  0
  5 11  2  0
  6  5  1  0
  7  6  1  0
  7  8  1  6
  9  7  1  0
 10  9  2  0
 11 12  1  0
 13 14  1  0
 14 15  1  0
 15 17  1  0
 15 16  1  1
 17 19  1  0
 17 18  1  6
 18  9  1  0
 19 28  1  0
 20 19  2  0
 22 21  1  0
 23 22  2  0
 24 23  1  0
 25 24  2  0
 25 31  1  0
 26 25  1  0
 27 29  1  0
 27 26  1  6
 28 27  1  0
 29 30  2  0
 29 33  1  0
 31 32  2  0
 32 22  1  0
M  END
$$$$
