YIY.pdb
     RDKit          3D

 33 34  0  0  1  0  0  0  0  0999 V2000
    4.3929  -21.2911   18.3580 O   0  0  0  0  0  0  0  0  0  0  0  0
    5.1198  -20.3286   19.0733 C   0  0  0  0  0  0  0  0  0  0  0  0
    6.4454  -20.5211   19.3951 C   0  0  0  0  0  0  0  0  0  0  0  0
    7.1445  -19.5518   20.1051 C   0  0  0  0  0  0  0  0  0  0  0  0
    6.5428  -18.3778   20.5074 C   0  0  0  0  0  0  0  0  0  0  0  0
    7.3191  -17.3898   21.2513 C   0  0  0  0  0  0  0  0  0  0  0  0
    6.7898  -15.9833   21.1268 C   0  0  2  0  0  0  0  0  0  0  0  0
    6.9266  -15.4813   19.7725 N   0  0  0  0  0  0  0  0  0  0  0  0
    7.6799  -15.1222   21.9829 C   0  0  0  0  0  0  0  0  0  0  0  0
    8.7596  -14.7398   21.4504 O   0  0  0  0  0  0  0  0  0  0  0  0
    5.2154  -18.2190   20.1680 C   0  0  0  0  0  0  0  0  0  0  0  0
    4.5121  -19.1742   19.4638 C   0  0  0  0  0  0  0  0  0  0  0  0
    5.5171  -11.9353   25.9081 C   0  0  0  0  0  0  0  0  0  0  0  0
    6.4242  -12.4420   24.8499 C   0  0  0  0  0  0  0  0  0  0  0  0
    7.5296  -13.3355   25.2021 C   0  0  2  0  0  0  0  0  0  0  0  0
    8.4342  -12.5548   26.1829 C   0  0  0  0  0  0  0  0  0  0  0  0
    8.3106  -13.9850   24.1502 C   0  0  2  0  0  0  0  0  0  0  0  0
    7.3646  -14.7525   23.2800 N   0  0  0  0  0  0  0  0  0  0  0  0
    9.2834  -14.9775   24.5658 C   0  0  0  0  0  0  0  0  0  0  0  0
    8.9193  -16.2097   24.7101 O   0  0  0  0  0  0  0  0  0  0  0  0
   10.3775  -15.0057   31.8146 O   0  0  0  0  0  0  0  0  0  0  0  0
   10.3868  -15.3678   30.4842 C   0  0  0  0  0  0  0  0  0  0  0  0
    9.9980  -14.5098   29.4690 C   0  0  0  0  0  0  0  0  0  0  0  0
   10.0125  -14.8858   28.1430 C   0  0  0  0  0  0  0  0  0  0  0  0
   10.4175  -16.1368   27.7846 C   0  0  0  0  0  0  0  0  0  0  0  0
   10.4470  -16.5882   26.3810 C   0  0  0  0  0  0  0  0  0  0  0  0
   11.4351  -15.8040   25.5153 C   0  0  2  0  0  0  0  0  0  0  0  0
   10.6729  -14.7700   24.8389 N   0  0  0  0  0  0  0  0  0  0  0  0
   12.1077  -16.6950   24.5926 C   0  0  0  0  0  0  0  0  0  0  0  0
   12.8374  -17.6380   24.9542 O   0  0  0  0  0  0  0  0  0  0  0  0
   10.8113  -17.0170   28.7665 C   0  0  0  0  0  0  0  0  0  0  0  0
   10.7984  -16.6427   30.1040 C   0  0  0  0  0  0  0  0  0  0  0  0
   11.9680  -16.5407   23.2084 O   0  0  0  0  0  0  0  0  0  0  0  0
  2 12  2  0
  2  1  1  0
  3  2  1  0
  4  5  1  0
  4  3  2  0
  5 11  2  0
  6  5  1  0
  7  6  1  0
  7  8  1  6
  9  7  1  0
 10  9  2  0
 11 12  1  0
 13 14  1  0
 14 15  1  0
 15 17  1  0
 15 16  1  6
 17 19  1  0
 17 18  1  6
 18  9  1  0
 19 28  1  0
 20 19  2  0
 22 21  1  0
 23 22  2  0
 24 23  1  0
 25 24  2  0
 25 31  1  0
 26 25  1  0
 27 29  1  0
 27 26  1  6
 28 27  1  0
 29 30  2  0
 29 33  1  0
 31 32  2  0
 32 22  1  0
M  END
$$$$
