YIY.pdb
     RDKit          3D

 33 34  0  0  1  0  0  0  0  0999 V2000
   14.5851  -19.3715   12.8497 O   0  0  0  0  0  0  0  0  0  0  0  0
   14.1104  -18.7880   14.0332 C   0  0  0  0  0  0  0  0  0  0  0  0
   14.9646  -18.4417   15.0571 C   0  0  0  0  0  0  0  0  0  0  0  0
   14.4696  -17.8644   16.2208 C   0  0  0  0  0  0  0  0  0  0  0  0
   13.1225  -17.6210   16.3889 C   0  0  0  0  0  0  0  0  0  0  0  0
   12.6509  -17.0126   17.6297 C   0  0  0  0  0  0  0  0  0  0  0  0
   12.3214  -15.5469   17.4998 C   0  0  2  0  0  0  0  0  0  0  0  0
   13.5208  -14.7418   17.3642 N   0  0  0  0  0  0  0  0  0  0  0  0
   11.6916  -15.1405   18.8055 C   0  0  0  0  0  0  0  0  0  0  0  0
   12.4891  -14.9127   19.7583 O   0  0  0  0  0  0  0  0  0  0  0  0
   12.2972  -17.9802   15.3438 C   0  0  0  0  0  0  0  0  0  0  0  0
   12.7776  -18.5536   14.1847 C   0  0  0  0  0  0  0  0  0  0  0  0
    7.1684  -12.0871   18.7159 C   0  0  0  0  0  0  0  0  0  0  0  0
    8.4566  -12.7049   19.1138 C   0  0  0  0  0  0  0  0  0  0  0  0
    8.4634  -13.8845   19.9814 C   0  0  2  0  0  0  0  0  0  0  0  0
    7.7087  -13.4892   21.2713 C   0  0  0  0  0  0  0  0  0  0  0  0
    9.7216  -14.5664   20.2813 C   0  0  2  0  0  0  0  0  0  0  0  0
   10.3241  -15.0142   18.9861 N   0  0  0  0  0  0  0  0  0  0  0  0
    9.6437  -15.7831   21.0673 C   0  0  0  0  0  0  0  0  0  0  0  0
    9.6450  -16.9309   20.4722 O   0  0  0  0  0  0  0  0  0  0  0  0
   15.7869  -18.8584   20.2051 O   0  0  0  0  0  0  0  0  0  0  0  0
   14.8650  -18.0768   20.8688 C   0  0  0  0  0  0  0  0  0  0  0  0
   15.2009  -16.8910   21.5004 C   0  0  0  0  0  0  0  0  0  0  0  0
   14.2682  -16.1199   22.1603 C   0  0  0  0  0  0  0  0  0  0  0  0
   12.9630  -16.5089   22.2120 C   0  0  0  0  0  0  0  0  0  0  0  0
   11.9287  -15.7216   22.9086 C   0  0  0  0  0  0  0  0  0  0  0  0
   10.6640  -16.5255   23.2172 C   0  0  2  0  0  0  0  0  0  0  0  0
    9.5766  -15.8930   22.4927 N   0  0  0  0  0  0  0  0  0  0  0  0
   10.4334  -16.5651   24.6465 C   0  0  0  0  0  0  0  0  0  0  0  0
    9.5564  -15.8921   25.2214 O   0  0  0  0  0  0  0  0  0  0  0  0
   12.5920  -17.6820   21.5955 C   0  0  0  0  0  0  0  0  0  0  0  0
   13.5282  -18.4623   20.9293 C   0  0  0  0  0  0  0  0  0  0  0  0
   11.2033  -17.3851   25.4796 O   0  0  0  0  0  0  0  0  0  0  0  0
  2 12  2  0
  2  1  1  0
  3  2  1  0
  4  5  1  0
  4  3  2  0
  5 11  2  0
  6  5  1  0
  7  6  1  0
  7  8  1  1
  9  7  1  0
 10  9  2  0
 11 12  1  0
 13 14  1  0
 14 15  1  0
 15 17  1  0
 15 16  1  1
 17 19  1  0
 17 18  1  6
 18  9  1  0
 19 28  1  0
 20 19  2  0
 22 21  1  0
 23 22  2  0
 24 23  1  0
 25 24  2  0
 25 31  1  0
 26 25  1  0
 27 29  1  0
 27 26  1  1
 28 27  1  0
 29 30  2  0
 29 33  1  0
 31 32  2  0
 32 22  1  0
M  END
$$$$
