YIY.pdb
     RDKit          3D

 33 34  0  0  1  0  0  0  0  0999 V2000
    5.6907  -21.1891   16.4375 O   0  0  0  0  0  0  0  0  0  0  0  0
    6.3091  -20.3346   17.3614 C   0  0  0  0  0  0  0  0  0  0  0  0
    5.7149  -20.0260   18.5654 C   0  0  0  0  0  0  0  0  0  0  0  0
    6.3482  -19.1762   19.4647 C   0  0  0  0  0  0  0  0  0  0  0  0
    7.5787  -18.6188   19.1866 C   0  0  0  0  0  0  0  0  0  0  0  0
    8.2039  -17.7317   20.1635 C   0  0  0  0  0  0  0  0  0  0  0  0
    7.5912  -16.3547   20.2122 C   0  0  2  0  0  0  0  0  0  0  0  0
    7.8180  -15.6275   18.9774 N   0  0  0  0  0  0  0  0  0  0  0  0
    8.3351  -15.6014   21.2827 C   0  0  0  0  0  0  0  0  0  0  0  0
    9.4919  -15.1985   20.9747 O   0  0  0  0  0  0  0  0  0  0  0  0
    8.1438  -18.9495   17.9727 C   0  0  0  0  0  0  0  0  0  0  0  0
    7.5242  -19.7917   17.0728 C   0  0  0  0  0  0  0  0  0  0  0  0
    6.9782  -12.3249   26.3508 C   0  0  0  0  0  0  0  0  0  0  0  0
    7.9881  -12.9848   25.4881 C   0  0  0  0  0  0  0  0  0  0  0  0
    7.5556  -13.8350   24.3771 C   0  0  2  0  0  0  0  0  0  0  0  0
    6.4886  -14.7980   24.9464 C   0  0  0  0  0  0  0  0  0  0  0  0
    8.5460  -14.5455   23.5694 C   0  0  2  0  0  0  0  0  0  0  0  0
    7.8124  -15.3479   22.5401 N   0  0  0  0  0  0  0  0  0  0  0  0
    9.3736  -15.5246   24.2480 C   0  0  0  0  0  0  0  0  0  0  0  0
    8.8179  -16.5199   24.8583 O   0  0  0  0  0  0  0  0  0  0  0  0
   10.4672  -16.7350   31.8400 O   0  0  0  0  0  0  0  0  0  0  0  0
   10.5532  -16.2200   30.5639 C   0  0  0  0  0  0  0  0  0  0  0  0
   10.0967  -14.9555   30.2313 C   0  0  0  0  0  0  0  0  0  0  0  0
   10.1894  -14.4538   28.9508 C   0  0  0  0  0  0  0  0  0  0  0  0
   10.7434  -15.2013   27.9549 C   0  0  0  0  0  0  0  0  0  0  0  0
   10.8615  -14.7116   26.5690 C   0  0  0  0  0  0  0  0  0  0  0  0
   11.4492  -15.7491   25.6103 C   0  0  2  0  0  0  0  0  0  0  0  0
   10.8025  -15.5489   24.3261 N   0  0  0  0  0  0  0  0  0  0  0  0
   11.2478  -17.0843   26.1342 C   0  0  0  0  0  0  0  0  0  0  0  0
   12.1646  -17.7854   26.6037 O   0  0  0  0  0  0  0  0  0  0  0  0
   11.2082  -16.4630   28.2482 C   0  0  0  0  0  0  0  0  0  0  0  0
   11.1171  -16.9728   29.5369 C   0  0  0  0  0  0  0  0  0  0  0  0
    9.9777  -17.6726   26.1426 O   0  0  0  0  0  0  0  0  0  0  0  0
  2 12  2  0
  2  1  1  0
  3  2  1  0
  4  5  1  0
  4  3  2  0
  5 11  2  0
  6  5  1  0
  7  6  1  0
  7  8  1  6
  9  7  1  0
 10  9  2  0
 11 12  1  0
 13 14  1  0
 14 15  1  0
 15 17  1  0
 15 16  1  1
 17 19  1  0
 17 18  1  6
 18  9  1  0
 19 28  1  0
 20 19  2  0
 22 21  1  0
 23 22  2  0
 24 23  1  0
 25 24  2  0
 25 31  1  0
 26 25  1  0
 27 29  1  0
 27 26  1  1
 28 27  1  0
 29 30  2  0
 29 33  1  0
 31 32  2  0
 32 22  1  0
M  END
$$$$
