YIY.pdb
     RDKit          3D

 33 34  0  0  1  0  0  0  0  0999 V2000
   15.6603  -18.2225   12.5404 O   0  0  0  0  0  0  0  0  0  0  0  0
   15.1425  -17.5814   13.6750 C   0  0  0  0  0  0  0  0  0  0  0  0
   15.8133  -16.5433   14.2834 C   0  0  0  0  0  0  0  0  0  0  0  0
   15.2791  -15.9237   15.4073 C   0  0  0  0  0  0  0  0  0  0  0  0
   14.0735  -16.3218   15.9460 C   0  0  0  0  0  0  0  0  0  0  0  0
   13.5536  -15.6398   17.1279 C   0  0  0  0  0  0  0  0  0  0  0  0
   12.3966  -14.7177   16.8365 C   0  0  2  0  0  0  0  0  0  0  0  0
   12.8274  -13.5352   16.1146 N   0  0  0  0  0  0  0  0  0  0  0  0
   11.8991  -14.2329   18.1723 C   0  0  0  0  0  0  0  0  0  0  0  0
   12.5519  -13.2873   18.6969 O   0  0  0  0  0  0  0  0  0  0  0  0
   13.4300  -17.3636   15.3114 C   0  0  0  0  0  0  0  0  0  0  0  0
   13.9509  -17.9855   14.1957 C   0  0  0  0  0  0  0  0  0  0  0  0
    6.9218  -12.7376   18.8372 C   0  0  0  0  0  0  0  0  0  0  0  0
    8.3759  -12.9235   19.0624 C   0  0  0  0  0  0  0  0  0  0  0  0
    8.8463  -13.9808   19.9596 C   0  0  2  0  0  0  0  0  0  0  0  0
    8.1615  -13.7399   21.3244 C   0  0  0  0  0  0  0  0  0  0  0  0
   10.2793  -14.2283   20.1125 C   0  0  2  0  0  0  0  0  0  0  0  0
   10.7955  -14.7687   18.8153 N   0  0  0  0  0  0  0  0  0  0  0  0
   10.6779  -15.2257   21.0875 C   0  0  0  0  0  0  0  0  0  0  0  0
   10.2720  -16.4463   20.9574 O   0  0  0  0  0  0  0  0  0  0  0  0
   16.9576  -16.1312   19.1810 O   0  0  0  0  0  0  0  0  0  0  0  0
   16.0692  -16.0692   20.2336 C   0  0  0  0  0  0  0  0  0  0  0  0
   15.6337  -14.8736   20.7802 C   0  0  0  0  0  0  0  0  0  0  0  0
   14.7449  -14.8271   21.8328 C   0  0  0  0  0  0  0  0  0  0  0  0
   14.2592  -15.9782   22.3775 C   0  0  0  0  0  0  0  0  0  0  0  0
   13.3105  -15.9816   23.5065 C   0  0  0  0  0  0  0  0  0  0  0  0
   11.8556  -16.1692   23.0717 C   0  0  2  0  0  0  0  0  0  0  0  0
   11.5187  -15.0354   22.2300 N   0  0  0  0  0  0  0  0  0  0  0  0
   10.9969  -16.2763   24.2332 C   0  0  0  0  0  0  0  0  0  0  0  0
   10.1406  -15.4238   24.5374 O   0  0  0  0  0  0  0  0  0  0  0  0
   14.6697  -17.1856   21.8602 C   0  0  0  0  0  0  0  0  0  0  0  0
   15.5650  -17.2374   20.7996 C   0  0  0  0  0  0  0  0  0  0  0  0
   11.0848  -17.3739   25.0973 O   0  0  0  0  0  0  0  0  0  0  0  0
  2 12  2  0
  2  1  1  0
  3  2  1  0
  4  5  1  0
  4  3  2  0
  5 11  2  0
  6  5  1  0
  7  6  1  0
  7  8  1  6
  9  7  1  0
 10  9  2  0
 11 12  1  0
 13 14  1  0
 14 15  1  0
 15 17  1  0
 15 16  1  1
 17 19  1  0
 17 18  1  6
 18  9  1  0
 19 28  1  0
 20 19  2  0
 22 21  1  0
 23 22  2  0
 24 23  1  0
 25 24  2  0
 25 31  1  0
 26 25  1  0
 27 29  1  0
 27 26  1  1
 28 27  1  0
 29 30  2  0
 29 33  1  0
 31 32  2  0
 32 22  1  0
M  END
$$$$
