YIY.pdb
     RDKit          3D

 33 34  0  0  1  0  0  0  0  0999 V2000
    4.7622  -20.4858   17.2242 O   0  0  0  0  0  0  0  0  0  0  0  0
    5.4588  -19.7169   18.1676 C   0  0  0  0  0  0  0  0  0  0  0  0
    6.0153  -20.2878   19.2910 C   0  0  0  0  0  0  0  0  0  0  0  0
    6.7012  -19.5041   20.2117 C   0  0  0  0  0  0  0  0  0  0  0  0
    6.8468  -18.1440   20.0348 C   0  0  0  0  0  0  0  0  0  0  0  0
    7.5760  -17.3632   21.0302 C   0  0  0  0  0  0  0  0  0  0  0  0
    7.4501  -15.8723   20.8431 C   0  0  2  0  0  0  0  0  0  0  0  0
    7.9924  -15.4486   19.5659 N   0  0  0  0  0  0  0  0  0  0  0  0
    8.3217  -15.2416   21.8963 C   0  0  0  0  0  0  0  0  0  0  0  0
    9.5219  -15.0264   21.5665 O   0  0  0  0  0  0  0  0  0  0  0  0
    6.2771  -17.6067   18.8995 C   0  0  0  0  0  0  0  0  0  0  0  0
    5.5944  -18.3750   17.9793 C   0  0  0  0  0  0  0  0  0  0  0  0
    6.0173  -12.0537   25.8123 C   0  0  0  0  0  0  0  0  0  0  0  0
    6.9498  -12.6215   24.8085 C   0  0  0  0  0  0  0  0  0  0  0  0
    7.9051  -13.6585   25.2039 C   0  0  2  0  0  0  0  0  0  0  0  0
    8.7381  -13.0722   26.3668 C   0  0  0  0  0  0  0  0  0  0  0  0
    8.7563  -14.2926   24.1983 C   0  0  2  0  0  0  0  0  0  0  0  0
    7.8675  -14.9048   23.1608 N   0  0  0  0  0  0  0  0  0  0  0  0
    9.5891  -15.3962   24.6373 C   0  0  0  0  0  0  0  0  0  0  0  0
    9.0736  -16.5748   24.7677 O   0  0  0  0  0  0  0  0  0  0  0  0
   10.2139  -14.2487   31.0366 O   0  0  0  0  0  0  0  0  0  0  0  0
   10.3421  -14.9999   29.8875 C   0  0  0  0  0  0  0  0  0  0  0  0
    9.2679  -15.6185   29.2701 C   0  0  0  0  0  0  0  0  0  0  0  0
    9.4114  -16.3667   28.1213 C   0  0  0  0  0  0  0  0  0  0  0  0
   10.6379  -16.5230   27.5481 C   0  0  0  0  0  0  0  0  0  0  0  0
   10.8441  -17.3165   26.3223 C   0  0  0  0  0  0  0  0  0  0  0  0
   11.6835  -16.5919   25.2682 C   0  0  2  0  0  0  0  0  0  0  0  0
   10.9854  -15.3597   24.9490 N   0  0  0  0  0  0  0  0  0  0  0  0
   11.8738  -17.4412   24.1105 C   0  0  0  0  0  0  0  0  0  0  0  0
   12.4528  -18.5436   24.1529 O   0  0  0  0  0  0  0  0  0  0  0  0
   11.7290  -15.9226   28.1337 C   0  0  0  0  0  0  0  0  0  0  0  0
   11.5893  -15.1678   29.2912 C   0  0  0  0  0  0  0  0  0  0  0  0
   11.4027  -17.0587   22.8492 O   0  0  0  0  0  0  0  0  0  0  0  0
  2 12  2  0
  2  1  1  0
  3  2  1  0
  4  5  1  0
  4  3  2  0
  5 11  2  0
  6  5  1  0
  7  6  1  0
  7  8  1  6
  9  7  1  0
 10  9  2  0
 11 12  1  0
 13 14  1  0
 14 15  1  0
 15 17  1  0
 15 16  1  1
 17 19  1  0
 17 18  1  6
 18  9  1  0
 19 28  1  0
 20 19  2  0
 22 21  1  0
 23 22  2  0
 24 23  1  0
 25 24  2  0
 25 31  1  0
 26 25  1  0
 27 29  1  0
 27 26  1  1
 28 27  1  0
 29 30  2  0
 29 33  1  0
 31 32  2  0
 32 22  1  0
M  END
$$$$
