YIY.pdb
     RDKit          3D

 33 34  0  0  1  0  0  0  0  0999 V2000
   15.6018  -14.1142   18.5423 O   0  0  0  0  0  0  0  0  0  0  0  0
   14.2858  -14.1824   19.0219 C   0  0  0  0  0  0  0  0  0  0  0  0
   13.9633  -14.9298   20.1334 C   0  0  0  0  0  0  0  0  0  0  0  0
   12.6512  -14.9814   20.5895 C   0  0  0  0  0  0  0  0  0  0  0  0
   11.6386  -14.2946   19.9530 C   0  0  0  0  0  0  0  0  0  0  0  0
   10.2757  -14.3803   20.4701 C   0  0  0  0  0  0  0  0  0  0  0  0
    9.5125  -15.5820   19.9730 C   0  0  2  0  0  0  0  0  0  0  0  0
    8.7641  -15.2760   18.7683 N   0  0  0  0  0  0  0  0  0  0  0  0
    8.4890  -15.8969   21.0313 C   0  0  0  0  0  0  0  0  0  0  0  0
    7.3730  -15.3172   20.9130 O   0  0  0  0  0  0  0  0  0  0  0  0
   11.9977  -13.5571   18.8441 C   0  0  0  0  0  0  0  0  0  0  0  0
   13.2965  -13.4989   18.3829 C   0  0  0  0  0  0  0  0  0  0  0  0
    5.9567  -20.6435   23.3722 C   0  0  0  0  0  0  0  0  0  0  0  0
    6.3329  -19.2372   23.6556 C   0  0  0  0  0  0  0  0  0  0  0  0
    7.2885  -18.5477   22.7862 C   0  0  2  0  0  0  0  0  0  0  0  0
    8.5352  -19.4567   22.6907 C   0  0  0  0  0  0  0  0  0  0  0  0
    7.6548  -17.1582   23.0565 C   0  0  2  0  0  0  0  0  0  0  0  0
    8.7236  -16.7651   22.0847 N   0  0  0  0  0  0  0  0  0  0  0  0
    8.2395  -16.8682   24.3520 C   0  0  0  0  0  0  0  0  0  0  0  0
    9.5208  -16.7336   24.4605 O   0  0  0  0  0  0  0  0  0  0  0  0
    6.3575  -10.4328   25.4713 O   0  0  0  0  0  0  0  0  0  0  0  0
    6.5895  -11.6825   26.0056 C   0  0  0  0  0  0  0  0  0  0  0  0
    5.6141  -12.6631   26.0751 C   0  0  0  0  0  0  0  0  0  0  0  0
    5.8607  -13.9085   26.6122 C   0  0  0  0  0  0  0  0  0  0  0  0
    7.0952  -14.2176   27.1001 C   0  0  0  0  0  0  0  0  0  0  0  0
    7.4078  -15.5334   27.6881 C   0  0  0  0  0  0  0  0  0  0  0  0
    8.3073  -16.3937   26.7983 C   0  0  2  0  0  0  0  0  0  0  0  0
    7.5516  -16.6859   25.5937 N   0  0  0  0  0  0  0  0  0  0  0  0
    8.7130  -17.5904   27.5063 C   0  0  0  0  0  0  0  0  0  0  0  0
    9.5289  -17.5901   28.4479 O   0  0  0  0  0  0  0  0  0  0  0  0
    8.0898  -13.2679   27.0478 C   0  0  0  0  0  0  0  0  0  0  0  0
    7.8461  -12.0119   26.5075 C   0  0  0  0  0  0  0  0  0  0  0  0
    8.1942  -18.8439   27.1618 O   0  0  0  0  0  0  0  0  0  0  0  0
  2 12  2  0
  2  1  1  0
  3  2  1  0
  4  5  1  0
  4  3  2  0
  5 11  2  0
  6  5  1  0
  7  6  1  0
  7  8  1  6
  9  7  1  0
 10  9  2  0
 11 12  1  0
 13 14  1  0
 14 15  1  0
 15 17  1  0
 15 16  1  1
 17 19  1  0
 17 18  1  6
 18  9  1  0
 19 28  1  0
 20 19  2  0
 22 21  1  0
 23 22  2  0
 24 23  1  0
 25 24  2  0
 25 31  1  0
 26 25  1  0
 27 29  1  0
 27 26  1  1
 28 27  1  0
 29 30  2  0
 29 33  1  0
 31 32  2  0
 32 22  1  0
M  END
$$$$
