YIY.pdb
     RDKit          3D

 33 34  0  0  1  0  0  0  0  0999 V2000
    5.0514  -22.7078   20.3782 O   0  0  0  0  0  0  0  0  0  0  0  0
    5.6178  -21.5767   20.9833 C   0  0  0  0  0  0  0  0  0  0  0  0
    5.1466  -21.0912   22.1835 C   0  0  0  0  0  0  0  0  0  0  0  0
    5.7250  -19.9681   22.7633 C   0  0  0  0  0  0  0  0  0  0  0  0
    6.7780  -19.3084   22.1648 C   0  0  0  0  0  0  0  0  0  0  0  0
    7.3520  -18.1326   22.8132 C   0  0  0  0  0  0  0  0  0  0  0  0
    6.5558  -16.8706   22.5961 C   0  0  2  0  0  0  0  0  0  0  0  0
    6.3244  -16.6236   21.1852 N   0  0  0  0  0  0  0  0  0  0  0  0
    7.4220  -15.7387   23.0811 C   0  0  0  0  0  0  0  0  0  0  0  0
    8.3255  -15.3527   22.2872 O   0  0  0  0  0  0  0  0  0  0  0  0
    7.2236  -19.8219   20.9648 C   0  0  0  0  0  0  0  0  0  0  0  0
    6.6571  -20.9358   20.3805 C   0  0  0  0  0  0  0  0  0  0  0  0
    5.3164  -12.1630   26.6580 C   0  0  0  0  0  0  0  0  0  0  0  0
    6.1455  -12.6945   25.5490 C   0  0  0  0  0  0  0  0  0  0  0  0
    7.4510  -13.2928   25.8354 C   0  0  2  0  0  0  0  0  0  0  0  0
    8.3293  -12.1714   26.4360 C   0  0  0  0  0  0  0  0  0  0  0  0
    8.1616  -14.0341   24.7944 C   0  0  2  0  0  0  0  0  0  0  0  0
    7.2652  -15.1341   24.3174 N   0  0  0  0  0  0  0  0  0  0  0  0
    9.3777  -14.7217   25.1851 C   0  0  0  0  0  0  0  0  0  0  0  0
    9.6323  -14.9100   26.4387 O   0  0  0  0  0  0  0  0  0  0  0  0
   10.5249  -16.7376   31.2159 O   0  0  0  0  0  0  0  0  0  0  0  0
   10.6605  -16.8349   29.8472 C   0  0  0  0  0  0  0  0  0  0  0  0
   11.6472  -16.1680   29.1403 C   0  0  0  0  0  0  0  0  0  0  0  0
   11.7706  -16.2749   27.7716 C   0  0  0  0  0  0  0  0  0  0  0  0
   10.9089  -17.0548   27.0597 C   0  0  0  0  0  0  0  0  0  0  0  0
   10.9965  -17.1985   25.5946 C   0  0  0  0  0  0  0  0  0  0  0  0
   11.5298  -15.9461   24.8961 C   0  0  2  0  0  0  0  0  0  0  0  0
   10.3836  -15.2637   24.3233 N   0  0  0  0  0  0  0  0  0  0  0  0
   12.5165  -16.3111   23.9006 C   0  0  0  0  0  0  0  0  0  0  0  0
   13.5866  -16.8890   24.1712 O   0  0  0  0  0  0  0  0  0  0  0  0
    9.9154  -17.7328   27.7284 C   0  0  0  0  0  0  0  0  0  0  0  0
    9.7872  -17.6283   29.1074 C   0  0  0  0  0  0  0  0  0  0  0  0
   12.3134  -16.0277   22.5450 O   0  0  0  0  0  0  0  0  0  0  0  0
  2 12  2  0
  2  1  1  0
  3  2  1  0
  4  5  1  0
  4  3  2  0
  5 11  2  0
  6  5  1  0
  7  6  1  0
  7  8  1  6
  9  7  1  0
 10  9  2  0
 11 12  1  0
 13 14  1  0
 14 15  1  0
 15 17  1  0
 15 16  1  6
 17 19  1  0
 17 18  1  1
 18  9  1  0
 19 28  1  0
 20 19  2  0
 22 21  1  0
 23 22  2  0
 24 23  1  0
 25 24  2  0
 25 31  1  0
 26 25  1  0
 27 29  1  0
 27 26  1  6
 28 27  1  0
 29 30  2  0
 29 33  1  0
 31 32  2  0
 32 22  1  0
M  END
$$$$
