YIY.pdb
     RDKit          3D

 33 34  0  0  1  0  0  0  0  0999 V2000
    6.9459  -20.2697   17.6465 O   0  0  0  0  0  0  0  0  0  0  0  0
    7.4039  -19.4966   18.7230 C   0  0  0  0  0  0  0  0  0  0  0  0
    6.7300  -19.4654   19.9242 C   0  0  0  0  0  0  0  0  0  0  0  0
    7.2043  -18.6910   20.9766 C   0  0  0  0  0  0  0  0  0  0  0  0
    8.3522  -17.9359   20.8566 C   0  0  0  0  0  0  0  0  0  0  0  0
    8.8103  -17.1384   21.9908 C   0  0  0  0  0  0  0  0  0  0  0  0
    8.1870  -15.7671   22.0596 C   0  0  2  0  0  0  0  0  0  0  0  0
    8.5987  -14.9388   20.9419 N   0  0  0  0  0  0  0  0  0  0  0  0
    8.7482  -15.1119   23.2935 C   0  0  0  0  0  0  0  0  0  0  0  0
    9.8438  -14.5006   23.1468 O   0  0  0  0  0  0  0  0  0  0  0  0
    9.0007  -17.9912   19.6406 C   0  0  0  0  0  0  0  0  0  0  0  0
    8.5390  -18.7562   18.5897 C   0  0  0  0  0  0  0  0  0  0  0  0
    5.5391  -12.2106   26.3386 C   0  0  0  0  0  0  0  0  0  0  0  0
    6.7771  -12.7443   25.7208 C   0  0  0  0  0  0  0  0  0  0  0  0
    7.5434  -13.7877   26.4051 C   0  0  2  0  0  0  0  0  0  0  0  0
    7.9660  -13.2017   27.7718 C   0  0  0  0  0  0  0  0  0  0  0  0
    8.6650  -14.4368   25.7277 C   0  0  2  0  0  0  0  0  0  0  0  0
    8.1270  -15.1570   24.5306 N   0  0  0  0  0  0  0  0  0  0  0  0
    9.3752  -15.4663   26.4624 C   0  0  0  0  0  0  0  0  0  0  0  0
    8.7671  -16.5629   26.7777 O   0  0  0  0  0  0  0  0  0  0  0  0
   12.5230  -18.4506   21.6463 O   0  0  0  0  0  0  0  0  0  0  0  0
   12.5563  -18.0859   22.9756 C   0  0  0  0  0  0  0  0  0  0  0  0
   12.4879  -19.0051   24.0091 C   0  0  0  0  0  0  0  0  0  0  0  0
   12.5224  -18.6257   25.3339 C   0  0  0  0  0  0  0  0  0  0  0  0
   12.6266  -17.3096   25.6724 C   0  0  0  0  0  0  0  0  0  0  0  0
   12.6631  -16.8528   27.0741 C   0  0  0  0  0  0  0  0  0  0  0  0
   11.2762  -16.5581   27.6492 C   0  0  2  0  0  0  0  0  0  0  0  0
   10.7384  -15.4387   26.8974 N   0  0  0  0  0  0  0  0  0  0  0  0
   11.3718  -16.2828   29.0679 C   0  0  0  0  0  0  0  0  0  0  0  0
   11.1454  -15.1648   29.5692 O   0  0  0  0  0  0  0  0  0  0  0  0
   12.6970  -16.3673   24.6719 C   0  0  0  0  0  0  0  0  0  0  0  0
   12.6627  -16.7449   23.3358 C   0  0  0  0  0  0  0  0  0  0  0  0
   11.7314  -17.2859   29.9754 O   0  0  0  0  0  0  0  0  0  0  0  0
  2 12  2  0
  2  1  1  0
  3  2  1  0
  4  5  1  0
  4  3  2  0
  5 11  2  0
  6  5  1  0
  7  6  1  0
  7  8  1  6
  9  7  1  0
 10  9  2  0
 11 12  1  0
 13 14  1  0
 14 15  1  0
 15 17  1  0
 15 16  1  1
 17 19  1  0
 17 18  1  6
 18  9  1  0
 19 28  1  0
 20 19  2  0
 22 21  1  0
 23 22  2  0
 24 23  1  0
 25 24  2  0
 25 31  1  0
 26 25  1  0
 27 29  1  0
 27 26  1  6
 28 27  1  0
 29 30  2  0
 29 33  1  0
 31 32  2  0
 32 22  1  0
M  END
$$$$
