YIY.pdb
     RDKit          3D

 33 34  0  0  1  0  0  0  0  0999 V2000
   10.6485  -23.3623   15.7680 O   0  0  0  0  0  0  0  0  0  0  0  0
   10.6467  -22.3115   16.6966 C   0  0  0  0  0  0  0  0  0  0  0  0
   10.0166  -21.1161   16.4286 C   0  0  0  0  0  0  0  0  0  0  0  0
   10.0289  -20.0893   17.3656 C   0  0  0  0  0  0  0  0  0  0  0  0
   10.6646  -20.2297   18.5815 C   0  0  0  0  0  0  0  0  0  0  0  0
   10.6498  -19.1222   19.5330 C   0  0  0  0  0  0  0  0  0  0  0  0
   10.7205  -17.7632   18.8834 C   0  0  2  0  0  0  0  0  0  0  0  0
   12.0416  -17.4990   18.3448 N   0  0  0  0  0  0  0  0  0  0  0  0
   10.5110  -16.7592   19.9857 C   0  0  0  0  0  0  0  0  0  0  0  0
   11.4817  -16.5943   20.7770 O   0  0  0  0  0  0  0  0  0  0  0  0
   11.2846  -21.4393   18.8156 C   0  0  0  0  0  0  0  0  0  0  0  0
   11.2786  -22.4649   17.8931 C   0  0  0  0  0  0  0  0  0  0  0  0
    6.9849  -12.5175   19.3481 C   0  0  0  0  0  0  0  0  0  0  0  0
    8.1421  -13.3401   19.7768 C   0  0  0  0  0  0  0  0  0  0  0  0
    8.0266  -14.2065   20.9516 C   0  0  2  0  0  0  0  0  0  0  0  0
    7.6388  -13.2940   22.1377 C   0  0  0  0  0  0  0  0  0  0  0  0
    9.1187  -15.1127   21.3042 C   0  0  2  0  0  0  0  0  0  0  0  0
    9.3376  -16.0422   20.1513 N   0  0  0  0  0  0  0  0  0  0  0  0
    8.9037  -16.0009   22.4307 C   0  0  0  0  0  0  0  0  0  0  0  0
    9.6902  -17.0116   22.6083 O   0  0  0  0  0  0  0  0  0  0  0  0
   10.9682  -15.0224   30.5431 O   0  0  0  0  0  0  0  0  0  0  0  0
   10.5619  -14.9920   29.2259 C   0  0  0  0  0  0  0  0  0  0  0  0
    9.9329  -13.8964   28.6584 C   0  0  0  0  0  0  0  0  0  0  0  0
    9.5321  -13.8804   27.3396 C   0  0  0  0  0  0  0  0  0  0  0  0
    9.7468  -14.9628   26.5397 C   0  0  0  0  0  0  0  0  0  0  0  0
    9.3333  -14.9965   25.1247 C   0  0  0  0  0  0  0  0  0  0  0  0
    8.2520  -16.0399   24.8365 C   0  0  2  0  0  0  0  0  0  0  0  0
    7.8918  -15.8969   23.4374 N   0  0  0  0  0  0  0  0  0  0  0  0
    7.1242  -15.8494   25.7251 C   0  0  0  0  0  0  0  0  0  0  0  0
    7.0285  -16.3924   26.8424 O   0  0  0  0  0  0  0  0  0  0  0  0
   10.3694  -16.0701   27.0692 C   0  0  0  0  0  0  0  0  0  0  0  0
   10.7751  -16.0908   28.3973 C   0  0  0  0  0  0  0  0  0  0  0  0
    6.0543  -15.0212   25.3665 O   0  0  0  0  0  0  0  0  0  0  0  0
  2 12  2  0
  2  1  1  0
  3  2  1  0
  4  5  1  0
  4  3  2  0
  5 11  2  0
  6  5  1  0
  7  6  1  0
  7  8  1  1
  9  7  1  0
 10  9  2  0
 11 12  1  0
 13 14  1  0
 14 15  1  0
 15 17  1  0
 15 16  1  1
 17 19  1  0
 17 18  1  6
 18  9  1  0
 19 28  1  0
 20 19  2  0
 22 21  1  0
 23 22  2  0
 24 23  1  0
 25 24  2  0
 25 31  1  0
 26 25  1  0
 27 29  1  0
 27 26  1  1
 28 27  1  0
 29 30  2  0
 29 33  1  0
 31 32  2  0
 32 22  1  0
M  END
$$$$
