YIY.pdb
     RDKit          3D

 33 34  0  0  1  0  0  0  0  0999 V2000
   10.2815  -24.3434   21.5898 O   0  0  0  0  0  0  0  0  0  0  0  0
   10.2385  -22.9698   21.8687 C   0  0  0  0  0  0  0  0  0  0  0  0
   10.1358  -22.5010   23.1600 C   0  0  0  0  0  0  0  0  0  0  0  0
   10.0950  -21.1343   23.4107 C   0  0  0  0  0  0  0  0  0  0  0  0
   10.1552  -20.2111   22.3879 C   0  0  0  0  0  0  0  0  0  0  0  0
   10.1087  -18.7858   22.7018 C   0  0  0  0  0  0  0  0  0  0  0  0
   10.1687  -17.8946   21.4869 C   0  0  2  0  0  0  0  0  0  0  0  0
   11.4770  -17.9357   20.8610 N   0  0  0  0  0  0  0  0  0  0  0  0
    9.9909  -16.4866   21.9895 C   0  0  0  0  0  0  0  0  0  0  0  0
   11.0518  -15.8549   22.2556 O   0  0  0  0  0  0  0  0  0  0  0  0
   10.2576  -20.7160   21.1085 C   0  0  0  0  0  0  0  0  0  0  0  0
   10.2989  -22.0701   20.8483 C   0  0  0  0  0  0  0  0  0  0  0  0
    7.2234  -13.0121   19.1966 C   0  0  0  0  0  0  0  0  0  0  0  0
    8.1578  -13.5851   20.1956 C   0  0  0  0  0  0  0  0  0  0  0  0
    7.7049  -13.8205   21.5680 C   0  0  2  0  0  0  0  0  0  0  0  0
    7.1550  -12.4731   22.0895 C   0  0  0  0  0  0  0  0  0  0  0  0
    8.6012  -14.4479   22.5381 C   0  0  2  0  0  0  0  0  0  0  0  0
    8.7533  -15.8888   22.1615 N   0  0  0  0  0  0  0  0  0  0  0  0
    8.1547  -14.4945   23.9175 C   0  0  0  0  0  0  0  0  0  0  0  0
    7.1529  -15.2450   24.2411 O   0  0  0  0  0  0  0  0  0  0  0  0
   12.0733  -18.4463   28.3114 O   0  0  0  0  0  0  0  0  0  0  0  0
   11.3700  -17.2860   28.0659 C   0  0  0  0  0  0  0  0  0  0  0  0
   11.6465  -16.4517   26.9957 C   0  0  0  0  0  0  0  0  0  0  0  0
   10.9347  -15.2945   26.7627 C   0  0  0  0  0  0  0  0  0  0  0  0
    9.9185  -14.9299   27.5946 C   0  0  0  0  0  0  0  0  0  0  0  0
    9.1305  -13.7002   27.3908 C   0  0  0  0  0  0  0  0  0  0  0  0
    8.0452  -13.8487   26.3228 C   0  0  2  0  0  0  0  0  0  0  0  0
    8.7127  -13.7953   25.0347 N   0  0  0  0  0  0  0  0  0  0  0  0
    7.0468  -12.8109   26.4771 C   0  0  0  0  0  0  0  0  0  0  0  0
    6.2423  -12.7651   27.4275 O   0  0  0  0  0  0  0  0  0  0  0  0
    9.6150  -15.7346   28.6689 C   0  0  0  0  0  0  0  0  0  0  0  0
   10.3293  -16.9016   28.9076 C   0  0  0  0  0  0  0  0  0  0  0  0
    6.9312  -11.7755   25.5424 O   0  0  0  0  0  0  0  0  0  0  0  0
  2 12  2  0
  2  1  1  0
  3  2  1  0
  4  5  1  0
  4  3  2  0
  5 11  2  0
  6  5  1  0
  7  6  1  0
  7  8  1  1
  9  7  1  0
 10  9  2  0
 11 12  1  0
 13 14  1  0
 14 15  1  0
 15 17  1  0
 15 16  1  1
 17 19  1  0
 17 18  1  6
 18  9  1  0
 19 28  1  0
 20 19  2  0
 22 21  1  0
 23 22  2  0
 24 23  1  0
 25 24  2  0
 25 31  1  0
 26 25  1  0
 27 29  1  0
 27 26  1  1
 28 27  1  0
 29 30  2  0
 29 33  1  0
 31 32  2  0
 32 22  1  0
M  END
$$$$
