VAK.pdb
     RDKit          3D

 22 21  0  0  1  0  0  0  0  0999 V2000
   14.4968  -13.9354    5.0984 C   0  0  0  0  0  0  0  0  0  0  0  0
   15.3259  -12.8887    5.8115 C   0  0  2  0  0  0  0  0  0  0  0  0
   14.9155  -11.5348    5.2617 C   0  0  0  0  0  0  0  0  0  0  0  0
   16.8033  -13.0606    5.5185 C   0  0  2  0  0  0  0  0  0  0  0  0
   16.9896  -12.8356    4.1083 N   0  0  0  0  0  0  0  0  0  0  0  0
   17.3049  -14.3802    5.9407 C   0  0  0  0  0  0  0  0  0  0  0  0
   17.4524  -15.2824    5.0886 O   0  0  0  0  0  0  0  0  0  0  0  0
   18.6583  -15.8253    9.1673 C   0  0  0  0  0  0  0  0  0  0  0  0
   18.1194  -15.9065    7.7541 C   0  0  2  0  0  0  0  0  0  0  0  0
   17.6179  -14.6287    7.2959 N   0  0  0  0  0  0  0  0  0  0  0  0
   17.0759  -16.9685    7.6223 C   0  0  0  0  0  0  0  0  0  0  0  0
   15.8696  -16.7168    7.8650 O   0  0  0  0  0  0  0  0  0  0  0  0
   17.4022  -18.2864    7.2229 N   0  0  0  0  0  0  0  0  0  0  0  0
   16.3994  -19.3569    7.1373 C   0  0  1  0  0  0  0  0  0  0  0  0
   16.2594  -19.6926    5.6795 C   0  0  0  0  0  0  0  0  0  0  0  0
   15.0724  -19.0520    5.0052 C   0  0  0  0  0  0  0  0  0  0  0  0
   15.0438  -19.4562    3.5581 C   0  0  0  0  0  0  0  0  0  0  0  0
   14.0125  -18.7872    2.7308 C   0  0  0  0  0  0  0  0  0  0  0  0
   13.9392  -19.2233    1.3745 N   0  0  0  0  0  0  0  0  0  0  0  0
   16.8815  -20.4996    7.9415 C   0  0  0  0  0  0  0  0  0  0  0  0
   15.9819  -21.4578    8.4147 O   0  0  0  0  0  0  0  0  0  0  0  0
   18.0777  -20.6713    8.2357 O   0  0  0  0  0  0  0  0  0  0  0  0
  2  1  1  6
  2  3  1  0
  4  2  1  0
  4  6  1  0
  4  5  1  6
  6  7  2  0
  6 10  1  0
  9  8  1  1
 10  9  1  0
 11 13  1  0
 11  9  1  0
 12 11  2  0
 14 20  1  0
 14 13  1  0
 14 15  1  6
 16 15  1  0
 17 16  1  0
 18 17  1  0
 19 18  1  0
 20 21  1  0
 22 20  2  0
M  END
$$$$
