VAK.pdb
     RDKit          3D

 22 21  0  0  1  0  0  0  0  0999 V2000
   27.3635  -15.6238  -16.5883 C   0  0  0  0  0  0  0  0  0  0  0  0
   26.1811  -14.7944  -17.0417 C   0  0  2  0  0  0  0  0  0  0  0  0
   26.5048  -14.2641  -18.4264 C   0  0  0  0  0  0  0  0  0  0  0  0
   25.9714  -13.5931  -16.1410 C   0  0  2  0  0  0  0  0  0  0  0  0
   25.8461  -14.0847  -14.7932 N   0  0  0  0  0  0  0  0  0  0  0  0
   24.8064  -12.7881  -16.5485 C   0  0  0  0  0  0  0  0  0  0  0  0
   24.8364  -12.1704  -17.6345 O   0  0  0  0  0  0  0  0  0  0  0  0
   21.2107  -12.7106  -15.6661 C   0  0  0  0  0  0  0  0  0  0  0  0
   22.4681  -11.9964  -16.1161 C   0  0  2  0  0  0  0  0  0  0  0  0
   23.6628  -12.7119  -15.7224 N   0  0  0  0  0  0  0  0  0  0  0  0
   22.5052  -10.5845  -15.6269 C   0  0  0  0  0  0  0  0  0  0  0  0
   22.9832  -10.3083  -14.4987 O   0  0  0  0  0  0  0  0  0  0  0  0
   22.0083   -9.5136  -16.4073 N   0  0  0  0  0  0  0  0  0  0  0  0
   22.1610   -8.1079  -16.0079 C   0  0  1  0  0  0  0  0  0  0  0  0
   21.9546   -7.2882  -17.2501 C   0  0  0  0  0  0  0  0  0  0  0  0
   22.0240   -5.7979  -17.0301 C   0  0  0  0  0  0  0  0  0  0  0  0
   21.8325   -5.0916  -18.3426 C   0  0  0  0  0  0  0  0  0  0  0  0
   22.5770   -3.8196  -18.4953 C   0  0  0  0  0  0  0  0  0  0  0  0
   22.3937   -3.1496  -19.7413 N   0  0  0  0  0  0  0  0  0  0  0  0
   21.1579   -7.8191  -14.9613 C   0  0  0  0  0  0  0  0  0  0  0  0
   21.4288   -6.8767  -13.9663 O   0  0  0  0  0  0  0  0  0  0  0  0
   20.0487   -8.3790  -14.9052 O   0  0  0  0  0  0  0  0  0  0  0  0
  2  1  1  1
  2  3  1  0
  4  2  1  0
  4  6  1  0
  4  5  1  1
  6  7  2  0
  6 10  1  0
  9  8  1  1
 10  9  1  0
 11 13  1  0
 11  9  1  0
 12 11  2  0
 14 20  1  0
 14 13  1  0
 14 15  1  6
 16 15  1  0
 17 16  1  0
 18 17  1  0
 19 18  1  0
 20 21  1  0
 22 20  2  0
M  END
$$$$
