VAK.pdb
     RDKit          3D

 22 21  0  0  1  0  0  0  0  0999 V2000
   22.6792   -9.5464    7.6589 C   0  0  0  0  0  0  0  0  0  0  0  0
   21.8114  -10.7850    7.7217 C   0  0  2  0  0  0  0  0  0  0  0  0
   22.0928  -11.5985    6.4716 C   0  0  0  0  0  0  0  0  0  0  0  0
   20.3380  -10.4286    7.7004 C   0  0  2  0  0  0  0  0  0  0  0  0
   20.0399   -9.7642    8.9429 N   0  0  0  0  0  0  0  0  0  0  0  0
   19.4826  -11.6087    7.4833 C   0  0  0  0  0  0  0  0  0  0  0  0
   19.3831  -12.4690    8.3844 O   0  0  0  0  0  0  0  0  0  0  0  0
   17.1851  -12.7775    4.6996 C   0  0  0  0  0  0  0  0  0  0  0  0
   17.9266  -12.9124    6.0134 C   0  0  2  0  0  0  0  0  0  0  0  0
   18.7790  -11.7711    6.2690 N   0  0  0  0  0  0  0  0  0  0  0  0
   18.7057  -14.1863    6.0784 C   0  0  0  0  0  0  0  0  0  0  0  0
   19.7758  -14.3181    5.4342 O   0  0  0  0  0  0  0  0  0  0  0  0
   18.2731  -15.2836    6.8605 N   0  0  0  0  0  0  0  0  0  0  0  0
   19.0427  -16.5307    6.9657 C   0  0  1  0  0  0  0  0  0  0  0  0
   19.8802  -16.4100    8.2073 C   0  0  0  0  0  0  0  0  0  0  0  0
   20.7488  -17.6098    8.4904 C   0  0  0  0  0  0  0  0  0  0  0  0
   21.5730  -17.3487    9.7197 C   0  0  0  0  0  0  0  0  0  0  0  0
   22.4882  -18.4443   10.1167 C   0  0  0  0  0  0  0  0  0  0  0  0
   23.2645  -18.1983   11.2879 N   0  0  0  0  0  0  0  0  0  0  0  0
   18.0847  -17.6544    7.0316 C   0  0  0  0  0  0  0  0  0  0  0  0
   18.4290  -18.9054    6.5141 O   0  0  0  0  0  0  0  0  0  0  0  0
   16.9515  -17.5572    7.5351 O   0  0  0  0  0  0  0  0  0  0  0  0
  2  1  1  6
  2  3  1  0
  4  2  1  0
  4  6  1  0
  4  5  1  1
  6  7  2  0
  6 10  1  0
  9  8  1  6
 10  9  1  0
 11 13  1  0
 11  9  1  0
 12 11  2  0
 14 20  1  0
 14 13  1  0
 14 15  1  1
 16 15  1  0
 17 16  1  0
 18 17  1  0
 19 18  1  0
 20 21  1  0
 22 20  2  0
M  END
$$$$
