VAK.pdb
     RDKit          3D

 22 21  0  0  1  0  0  0  0  0999 V2000
   27.6571  -18.7895  -13.7170 C   0  0  0  0  0  0  0  0  0  0  0  0
   27.8300  -20.0224  -12.8560 C   0  0  2  0  0  0  0  0  0  0  0  0
   29.1710  -20.6380  -13.2113 C   0  0  0  0  0  0  0  0  0  0  0  0
   26.7676  -21.0607  -13.1586 C   0  0  2  0  0  0  0  0  0  0  0  0
   26.9698  -21.4976  -14.5160 N   0  0  0  0  0  0  0  0  0  0  0  0
   25.4052  -20.5439  -12.9394 C   0  0  0  0  0  0  0  0  0  0  0  0
   24.9872  -20.3904  -11.7716 O   0  0  0  0  0  0  0  0  0  0  0  0
   22.8900  -18.7230  -14.9999 C   0  0  0  0  0  0  0  0  0  0  0  0
   23.2506  -19.6631  -13.8685 C   0  0  2  0  0  0  0  0  0  0  0  0
   24.5745  -20.2230  -14.0362 N   0  0  0  0  0  0  0  0  0  0  0  0
   22.2307  -20.7432  -13.7030 C   0  0  0  0  0  0  0  0  0  0  0  0
   22.1566  -21.6880  -14.5273 O   0  0  0  0  0  0  0  0  0  0  0  0
   21.3172  -20.7444  -12.6222 N   0  0  0  0  0  0  0  0  0  0  0  0
   20.3869  -21.8545  -12.3755 C   0  0  1  0  0  0  0  0  0  0  0  0
   20.2829  -21.9985  -10.8835 C   0  0  0  0  0  0  0  0  0  0  0  0
   19.3633  -23.1035  -10.4282 C   0  0  0  0  0  0  0  0  0  0  0  0
   19.3808  -23.1790   -8.9273 C   0  0  0  0  0  0  0  0  0  0  0  0
   18.4643  -24.1783   -8.3297 C   0  0  0  0  0  0  0  0  0  0  0  0
   18.4277  -24.1985   -6.9038 N   0  0  0  0  0  0  0  0  0  0  0  0
   19.0940  -21.5157  -13.0068 C   0  0  0  0  0  0  0  0  0  0  0  0
   18.2010  -22.5264  -13.3707 O   0  0  0  0  0  0  0  0  0  0  0  0
   18.7349  -20.3488  -13.2444 O   0  0  0  0  0  0  0  0  0  0  0  0
  2  1  1  6
  2  3  1  0
  4  2  1  0
  4  6  1  0
  4  5  1  6
  6  7  2  0
  6 10  1  0
  9  8  1  6
 10  9  1  0
 11 13  1  0
 11  9  1  0
 12 11  2  0
 14 20  1  0
 14 13  1  0
 14 15  1  1
 16 15  1  0
 17 16  1  0
 18 17  1  0
 19 18  1  0
 20 21  1  0
 22 20  2  0
M  END
$$$$
