VAK.pdb
     RDKit          3D

 22 21  0  0  1  0  0  0  0  0999 V2000
   13.1803   -8.7470   -9.4567 C   0  0  0  0  0  0  0  0  0  0  0  0
   13.4658   -9.6918  -10.6044 C   0  0  2  0  0  0  0  0  0  0  0  0
   12.9336  -11.0572  -10.2095 C   0  0  0  0  0  0  0  0  0  0  0  0
   14.9561   -9.8435  -10.8373 C   0  0  2  0  0  0  0  0  0  0  0  0
   15.4940  -10.5663   -9.7137 N   0  0  0  0  0  0  0  0  0  0  0  0
   15.6243   -8.5448  -11.0328 C   0  0  0  0  0  0  0  0  0  0  0  0
   15.4801   -7.9368  -12.1151 O   0  0  0  0  0  0  0  0  0  0  0  0
   17.0207   -5.8992   -8.8696 C   0  0  0  0  0  0  0  0  0  0  0  0
   17.0810   -6.7064  -10.1497 C   0  0  2  0  0  0  0  0  0  0  0  0
   16.4222   -7.9873  -10.0088 N   0  0  0  0  0  0  0  0  0  0  0  0
   18.4868   -6.8782  -10.6275 C   0  0  0  0  0  0  0  0  0  0  0  0
   19.3180   -7.5359   -9.9536 O   0  0  0  0  0  0  0  0  0  0  0  0
   18.9327   -6.3125  -11.8456 N   0  0  0  0  0  0  0  0  0  0  0  0
   20.2602   -6.5949  -12.4084 C   0  0  1  0  0  0  0  0  0  0  0  0
   20.0455   -7.5579  -13.5416 C   0  0  0  0  0  0  0  0  0  0  0  0
   21.2885   -7.8700  -14.3362 C   0  0  0  0  0  0  0  0  0  0  0  0
   20.9247   -8.7344  -15.5105 C   0  0  0  0  0  0  0  0  0  0  0  0
   22.0689   -9.3066  -16.2581 C   0  0  0  0  0  0  0  0  0  0  0  0
   21.7238  -10.2120  -17.3051 N   0  0  0  0  0  0  0  0  0  0  0  0
   20.8498   -5.3144  -12.8527 C   0  0  0  0  0  0  0  0  0  0  0  0
   20.0251   -4.2555  -13.2400 O   0  0  0  0  0  0  0  0  0  0  0  0
   22.0753   -5.1090  -12.9067 O   0  0  0  0  0  0  0  0  0  0  0  0
  2  1  1  1
  2  3  1  0
  4  2  1  0
  4  6  1  0
  4  5  1  1
  6  7  2  0
  6 10  1  0
  9  8  1  1
 10  9  1  0
 11 13  1  0
 11  9  1  0
 12 11  2  0
 14 20  1  0
 14 13  1  0
 14 15  1  6
 16 15  1  0
 17 16  1  0
 18 17  1  0
 19 18  1  0
 20 21  1  0
 22 20  2  0
M  END
$$$$
