VAK.pdb
     RDKit          3D

 22 21  0  0  1  0  0  0  0  0999 V2000
   25.2326  -17.5792  -19.0231 C   0  0  0  0  0  0  0  0  0  0  0  0
   25.7705  -18.9581  -19.3401 C   0  0  2  0  0  0  0  0  0  0  0  0
   24.7403  -19.6569  -20.2085 C   0  0  0  0  0  0  0  0  0  0  0  0
   25.9332  -19.7899  -18.0831 C   0  0  2  0  0  0  0  0  0  0  0  0
   25.4803  -21.1223  -18.3893 N   0  0  0  0  0  0  0  0  0  0  0  0
   25.2148  -19.2100  -16.9347 C   0  0  0  0  0  0  0  0  0  0  0  0
   25.6119  -18.1319  -16.4427 O   0  0  0  0  0  0  0  0  0  0  0  0
   23.0018  -17.8450  -15.5144 C   0  0  0  0  0  0  0  0  0  0  0  0
   23.3239  -19.3081  -15.2926 C   0  0  2  0  0  0  0  0  0  0  0  0
   24.0863  -19.8630  -16.3905 N   0  0  0  0  0  0  0  0  0  0  0  0
   22.0896  -20.1121  -15.0391 C   0  0  0  0  0  0  0  0  0  0  0  0
   21.3904  -20.5333  -15.9937 O   0  0  0  0  0  0  0  0  0  0  0  0
   21.6639  -20.4275  -13.7269 N   0  0  0  0  0  0  0  0  0  0  0  0
   20.5379  -21.3322  -13.4578 C   0  0  1  0  0  0  0  0  0  0  0  0
   20.6492  -21.7316  -12.0135 C   0  0  0  0  0  0  0  0  0  0  0  0
   19.6023  -22.7171  -11.5586 C   0  0  0  0  0  0  0  0  0  0  0  0
   19.7281  -22.9280  -10.0760 C   0  0  0  0  0  0  0  0  0  0  0  0
   18.7600  -23.8811   -9.4845 C   0  0  0  0  0  0  0  0  0  0  0  0
   18.8093  -23.9999   -8.0638 N   0  0  0  0  0  0  0  0  0  0  0  0
   19.2861  -20.6037  -13.7527 C   0  0  0  0  0  0  0  0  0  0  0  0
   18.1600  -21.2932  -14.2086 O   0  0  0  0  0  0  0  0  0  0  0  0
   19.1638  -19.3733  -13.6174 O   0  0  0  0  0  0  0  0  0  0  0  0
  2  1  1  1
  2  3  1  0
  4  2  1  0
  4  6  1  0
  4  5  1  6
  6  7  2  0
  6 10  1  0
  9  8  1  6
 10  9  1  0
 11 13  1  0
 11  9  1  0
 12 11  2  0
 14 20  1  0
 14 13  1  0
 14 15  1  1
 16 15  1  0
 17 16  1  0
 18 17  1  0
 19 18  1  0
 20 21  1  0
 22 20  2  0
M  END
$$$$
