VAK.pdb
     RDKit          3D

 22 21  0  0  1  0  0  0  0  0999 V2000
   16.9610   -8.9453  -15.5675 C   0  0  0  0  0  0  0  0  0  0  0  0
   17.7860   -9.9040  -14.7360 C   0  0  2  0  0  0  0  0  0  0  0  0
   18.4475  -10.8789  -15.6929 C   0  0  0  0  0  0  0  0  0  0  0  0
   16.9122  -10.7181  -13.8022 C   0  0  2  0  0  0  0  0  0  0  0  0
   16.2355  -11.7067  -14.6015 N   0  0  0  0  0  0  0  0  0  0  0  0
   15.9689   -9.8755  -13.0463 C   0  0  0  0  0  0  0  0  0  0  0  0
   15.0478   -9.2881  -13.6534 O   0  0  0  0  0  0  0  0  0  0  0  0
   14.9886   -9.4056   -9.4846 C   0  0  0  0  0  0  0  0  0  0  0  0
   15.2400   -8.8588  -10.8745 C   0  0  2  0  0  0  0  0  0  0  0  0
   16.0999   -9.7295  -11.6471 N   0  0  0  0  0  0  0  0  0  0  0  0
   15.7884   -7.4691  -10.8293 C   0  0  0  0  0  0  0  0  0  0  0  0
   17.0262   -7.2650  -10.8914 O   0  0  0  0  0  0  0  0  0  0  0  0
   14.9437   -6.3394  -10.7159 N   0  0  0  0  0  0  0  0  0  0  0  0
   15.4598   -4.9638  -10.7175 C   0  0  1  0  0  0  0  0  0  0  0  0
   14.2965   -4.0736  -11.0523 C   0  0  0  0  0  0  0  0  0  0  0  0
   14.5949   -2.5985  -10.9569 C   0  0  0  0  0  0  0  0  0  0  0  0
   13.3735   -1.8171  -11.3520 C   0  0  0  0  0  0  0  0  0  0  0  0
   13.5536   -0.3481  -11.4235 C   0  0  0  0  0  0  0  0  0  0  0  0
   12.4027    0.3899  -11.8308 N   0  0  0  0  0  0  0  0  0  0  0  0
   16.0234   -4.6860   -9.3796 C   0  0  0  0  0  0  0  0  0  0  0  0
   16.8714   -3.5930   -9.1851 O   0  0  0  0  0  0  0  0  0  0  0  0
   15.7846   -5.3853   -8.3792 O   0  0  0  0  0  0  0  0  0  0  0  0
  2  1  1  6
  2  3  1  0
  4  2  1  0
  4  6  1  0
  4  5  1  6
  6  7  2  0
  6 10  1  0
  9  8  1  1
 10  9  1  0
 11 13  1  0
 11  9  1  0
 12 11  2  0
 14 20  1  0
 14 13  1  0
 14 15  1  1
 16 15  1  0
 17 16  1  0
 18 17  1  0
 19 18  1  0
 20 21  1  0
 22 20  2  0
M  END
$$$$
