VAK.pdb
     RDKit          3D

 22 21  0  0  1  0  0  0  0  0999 V2000
   34.0875  -24.2978  -17.7167 C   0  0  0  0  0  0  0  0  0  0  0  0
   33.6819  -25.1789  -16.5546 C   0  0  2  0  0  0  0  0  0  0  0  0
   33.3635  -26.5520  -17.1176 C   0  0  0  0  0  0  0  0  0  0  0  0
   32.4211  -24.6666  -15.8867 C   0  0  2  0  0  0  0  0  0  0  0  0
   32.1914  -25.4822  -14.7221 N   0  0  0  0  0  0  0  0  0  0  0  0
   31.2661  -24.6682  -16.8017 C   0  0  0  0  0  0  0  0  0  0  0  0
   31.2932  -23.9530  -17.8262 O   0  0  0  0  0  0  0  0  0  0  0  0
   28.7401  -26.9861  -17.8585 C   0  0  0  0  0  0  0  0  0  0  0  0
   29.0096  -25.5576  -17.4334 C   0  0  2  0  0  0  0  0  0  0  0  0
   30.1352  -25.4696  -16.5279 N   0  0  0  0  0  0  0  0  0  0  0  0
   27.7949  -24.9207  -16.8394 C   0  0  0  0  0  0  0  0  0  0  0  0
   27.3868  -25.2553  -15.6997 O   0  0  0  0  0  0  0  0  0  0  0  0
   27.0637  -23.9254  -17.5304 N   0  0  0  0  0  0  0  0  0  0  0  0
   25.8891  -23.2615  -16.9488 C   0  0  1  0  0  0  0  0  0  0  0  0
   25.9163  -21.8419  -17.4403 C   0  0  0  0  0  0  0  0  0  0  0  0
   24.7243  -21.0171  -17.0244 C   0  0  0  0  0  0  0  0  0  0  0  0
   24.8843  -19.6151  -17.5415 C   0  0  0  0  0  0  0  0  0  0  0  0
   23.7370  -18.7108  -17.2938 C   0  0  0  0  0  0  0  0  0  0  0  0
   23.8777  -17.3888  -17.8111 N   0  0  0  0  0  0  0  0  0  0  0  0
   24.6843  -23.9947  -17.3912 C   0  0  0  0  0  0  0  0  0  0  0  0
   23.5273  -23.9867  -16.6085 O   0  0  0  0  0  0  0  0  0  0  0  0
   24.6298  -24.6418  -18.4520 O   0  0  0  0  0  0  0  0  0  0  0  0
  2  1  1  6
  2  3  1  0
  4  2  1  0
  4  6  1  0
  4  5  1  1
  6  7  2  0
  6 10  1  0
  9  8  1  1
 10  9  1  0
 11 13  1  0
 11  9  1  0
 12 11  2  0
 14 20  1  0
 14 13  1  0
 14 15  1  6
 16 15  1  0
 17 16  1  0
 18 17  1  0
 19 18  1  0
 20 21  1  0
 22 20  2  0
M  END
$$$$
