VAK.pdb
     RDKit          3D

 22 21  0  0  1  0  0  0  0  0999 V2000
   23.4394  -20.2325  -17.6354 C   0  0  0  0  0  0  0  0  0  0  0  0
   22.8181  -19.3979  -16.5360 C   0  0  2  0  0  0  0  0  0  0  0  0
   23.5314  -18.0582  -16.5271 C   0  0  0  0  0  0  0  0  0  0  0  0
   23.0348  -20.0284  -15.1745 C   0  0  2  0  0  0  0  0  0  0  0  0
   24.4471  -19.9750  -14.8973 N   0  0  0  0  0  0  0  0  0  0  0  0
   22.5078  -21.4029  -15.1071 C   0  0  0  0  0  0  0  0  0  0  0  0
   21.3313  -21.6276  -15.4636 O   0  0  0  0  0  0  0  0  0  0  0  0
   24.0031  -24.8173  -14.6429 C   0  0  0  0  0  0  0  0  0  0  0  0
   22.8557  -23.8302  -14.5889 C   0  0  2  0  0  0  0  0  0  0  0  0
   23.3214  -22.4611  -14.6441 N   0  0  0  0  0  0  0  0  0  0  0  0
   21.9927  -24.0531  -13.3890 C   0  0  0  0  0  0  0  0  0  0  0  0
   22.3820  -23.7093  -12.2455 O   0  0  0  0  0  0  0  0  0  0  0  0
   20.7158  -24.6543  -13.4925 N   0  0  0  0  0  0  0  0  0  0  0  0
   19.8394  -24.8522  -12.3300 C   0  0  1  0  0  0  0  0  0  0  0  0
   18.6177  -24.0111  -12.5703 C   0  0  0  0  0  0  0  0  0  0  0  0
   17.5713  -24.1115  -11.4892 C   0  0  0  0  0  0  0  0  0  0  0  0
   16.3856  -23.2678  -11.8642 C   0  0  0  0  0  0  0  0  0  0  0  0
   15.2266  -23.3547  -10.9452 C   0  0  0  0  0  0  0  0  0  0  0  0
   14.0648  -22.6364  -11.3566 N   0  0  0  0  0  0  0  0  0  0  0  0
   19.5285  -26.2940  -12.2327 C   0  0  0  0  0  0  0  0  0  0  0  0
   19.1905  -26.8606  -11.0014 O   0  0  0  0  0  0  0  0  0  0  0  0
   19.5484  -27.0644  -13.2089 O   0  0  0  0  0  0  0  0  0  0  0  0
  2  1  1  6
  2  3  1  0
  4  2  1  0
  4  6  1  0
  4  5  1  6
  6  7  2  0
  6 10  1  0
  9  8  1  1
 10  9  1  0
 11 13  1  0
 11  9  1  0
 12 11  2  0
 14 20  1  0
 14 13  1  0
 14 15  1  6
 16 15  1  0
 17 16  1  0
 18 17  1  0
 19 18  1  0
 20 21  1  0
 22 20  2  0
M  END
$$$$
