VAK.pdb
     RDKit          3D

 22 21  0  0  1  0  0  0  0  0999 V2000
   17.6328  -13.9300  -14.6206 C   0  0  0  0  0  0  0  0  0  0  0  0
   16.6386  -13.6336  -15.7229 C   0  0  2  0  0  0  0  0  0  0  0  0
   16.5840  -14.8544  -16.6231 C   0  0  0  0  0  0  0  0  0  0  0  0
   17.0937  -12.4677  -16.5783 C   0  0  2  0  0  0  0  0  0  0  0  0
   18.3241  -12.8590  -17.2164 N   0  0  0  0  0  0  0  0  0  0  0  0
   17.2443  -11.2282  -15.7958 C   0  0  0  0  0  0  0  0  0  0  0  0
   16.2628  -10.7744  -15.1693 O   0  0  0  0  0  0  0  0  0  0  0  0
   20.1365   -8.9856  -14.8407 C   0  0  0  0  0  0  0  0  0  0  0  0
   18.6700   -9.3168  -15.0241 C   0  0  2  0  0  0  0  0  0  0  0  0
   18.4855  -10.5547  -15.7508 N   0  0  0  0  0  0  0  0  0  0  0  0
   17.9296   -8.1965  -15.6804 C   0  0  0  0  0  0  0  0  0  0  0  0
   17.9023   -8.0910  -16.9317 O   0  0  0  0  0  0  0  0  0  0  0  0
   17.2371   -7.2198  -14.9260 N   0  0  0  0  0  0  0  0  0  0  0  0
   16.5930   -6.0535  -15.5454 C   0  0  1  0  0  0  0  0  0  0  0  0
   15.4591   -5.6634  -14.6400 C   0  0  0  0  0  0  0  0  0  0  0  0
   14.7520   -4.3933  -15.0413 C   0  0  0  0  0  0  0  0  0  0  0  0
   13.6621   -4.0959  -14.0501 C   0  0  0  0  0  0  0  0  0  0  0  0
   12.8821   -2.8637  -14.3127 C   0  0  0  0  0  0  0  0  0  0  0  0
   12.0126   -2.4542  -13.2586 N   0  0  0  0  0  0  0  0  0  0  0  0
   17.6086   -4.9879  -15.6783 C   0  0  0  0  0  0  0  0  0  0  0  0
   18.7015   -4.9435  -14.8093 O   0  0  0  0  0  0  0  0  0  0  0  0
   17.5534   -4.0958  -16.5432 O   0  0  0  0  0  0  0  0  0  0  0  0
  2  1  1  1
  2  3  1  0
  4  2  1  0
  4  6  1  0
  4  5  1  1
  6  7  2  0
  6 10  1  0
  9  8  1  6
 10  9  1  0
 11 13  1  0
 11  9  1  0
 12 11  2  0
 14 20  1  0
 14 13  1  0
 14 15  1  1
 16 15  1  0
 17 16  1  0
 18 17  1  0
 19 18  1  0
 20 21  1  0
 22 20  2  0
M  END
$$$$
