VAK.pdb
     RDKit          3D

 22 21  0  0  1  0  0  0  0  0999 V2000
   25.5535  -17.7596  -15.9216 C   0  0  0  0  0  0  0  0  0  0  0  0
   26.9049  -17.8817  -15.2507 C   0  0  2  0  0  0  0  0  0  0  0  0
   27.8926  -17.0737  -16.0723 C   0  0  0  0  0  0  0  0  0  0  0  0
   27.3933  -19.3169  -15.2498 C   0  0  2  0  0  0  0  0  0  0  0  0
   27.6010  -19.6997  -16.6226 N   0  0  0  0  0  0  0  0  0  0  0  0
   26.4602  -20.2224  -14.5565 C   0  0  0  0  0  0  0  0  0  0  0  0
   25.5403  -20.7684  -15.2026 O   0  0  0  0  0  0  0  0  0  0  0  0
   26.0574  -21.4439  -10.9865 C   0  0  0  0  0  0  0  0  0  0  0  0
   25.6164  -21.2210  -12.4182 C   0  0  2  0  0  0  0  0  0  0  0  0
   26.5998  -20.4746  -13.1734 N   0  0  0  0  0  0  0  0  0  0  0  0
   24.2770  -20.5612  -12.4861 C   0  0  0  0  0  0  0  0  0  0  0  0
   24.1589  -19.3263  -12.2894 O   0  0  0  0  0  0  0  0  0  0  0  0
   23.1005  -21.2939  -12.7719 N   0  0  0  0  0  0  0  0  0  0  0  0
   21.8212  -20.6430  -13.0857 C   0  0  1  0  0  0  0  0  0  0  0  0
   22.0005  -19.9736  -14.4189 C   0  0  0  0  0  0  0  0  0  0  0  0
   20.7315  -19.4102  -15.0073 C   0  0  0  0  0  0  0  0  0  0  0  0
   20.8026  -17.9091  -14.9992 C   0  0  0  0  0  0  0  0  0  0  0  0
   19.5959  -17.2122  -15.5030 C   0  0  0  0  0  0  0  0  0  0  0  0
   19.6736  -15.7879  -15.5170 N   0  0  0  0  0  0  0  0  0  0  0  0
   20.7723  -21.6842  -13.1073 C   0  0  0  0  0  0  0  0  0  0  0  0
   21.0998  -23.0086  -13.4074 O   0  0  0  0  0  0  0  0  0  0  0  0
   19.5742  -21.4517  -12.8674 O   0  0  0  0  0  0  0  0  0  0  0  0
  2  1  1  6
  2  3  1  0
  4  2  1  0
  4  6  1  0
  4  5  1  6
  6  7  2  0
  6 10  1  0
  9  8  1  1
 10  9  1  0
 11 13  1  0
 11  9  1  0
 12 11  2  0
 14 20  1  0
 14 13  1  0
 14 15  1  6
 16 15  1  0
 17 16  1  0
 18 17  1  0
 19 18  1  0
 20 21  1  0
 22 20  2  0
M  END
$$$$
