TDE.pdb
     RDKit          3D

 25 24  0  0  1  0  0  0  0  0999 V2000
    8.1725  -13.6817   17.5266 C   0  0  0  0  0  0  0  0  0  0  0  0
    7.9221  -13.2562   18.9400 C   0  0  1  0  0  0  0  0  0  0  0  0
    7.3156  -12.0067   18.9678 O   0  0  0  0  0  0  0  0  0  0  0  0
    7.1197  -14.2916   19.7124 C   0  0  2  0  0  0  0  0  0  0  0  0
    6.7327  -13.7864   21.0088 N   0  0  0  0  0  0  0  0  0  0  0  0
    7.8983  -15.5311   19.8961 C   0  0  0  0  0  0  0  0  0  0  0  0
    7.3785  -16.6826   19.8034 O   0  0  0  0  0  0  0  0  0  0  0  0
    9.2846  -15.4331   20.1867 N   0  0  0  0  0  0  0  0  0  0  0  0
   10.1079  -16.6382   20.3841 C   0  0  1  0  0  0  0  0  0  0  0  0
   10.6310  -17.1100   19.0676 C   0  0  0  0  0  0  0  0  0  0  0  0
   11.4479  -18.3307   19.1337 C   0  0  0  0  0  0  0  0  0  0  0  0
   11.3782  -19.1427   20.1146 O   0  0  0  0  0  0  0  0  0  0  0  0
   11.1374  -16.3320   21.3955 C   0  0  0  0  0  0  0  0  0  0  0  0
   11.8376  -15.2854   21.2390 O   0  0  0  0  0  0  0  0  0  0  0  0
   12.3511  -18.6755   18.1245 O   0  0  0  0  0  0  0  0  0  0  0  0
   11.4121  -17.1070   22.5367 N   0  0  0  0  0  0  0  0  0  0  0  0
   12.3675  -16.5623   23.5638 C   0  0  1  0  0  0  0  0  0  0  0  0
   11.7479  -16.7546   24.8951 C   0  0  0  0  0  0  0  0  0  0  0  0
   11.5899  -18.1428   25.3431 C   0  0  0  0  0  0  0  0  0  0  0  0
   11.0534  -18.4104   26.6747 C   0  0  0  0  0  0  0  0  0  0  0  0
   11.2803  -17.6153   27.6430 O   0  0  0  0  0  0  0  0  0  0  0  0
   13.6275  -17.2391   23.3412 C   0  0  0  0  0  0  0  0  0  0  0  0
   13.7739  -18.2998   22.6381 O   0  0  0  0  0  0  0  0  0  0  0  0
   10.2715  -19.5279   26.9638 O   0  0  0  0  0  0  0  0  0  0  0  0
   14.8208  -16.7627   23.8989 O   0  0  0  0  0  0  0  0  0  0  0  0
  2  4  1  0
  2  1  1  6
  3  2  1  0
  4  6  1  0
  4  5  1  1
  6  7  2  0
  8  9  1  0
  8  6  1  0
  9 13  1  0
  9 10  1  6
 11 15  1  0
 11 10  1  0
 12 11  2  0
 13 16  1  0
 13 14  2  0
 16 17  1  0
 17 22  1  0
 17 18  1  1
 19 18  1  0
 20 19  1  0
 21 20  2  0
 22 23  2  0
 22 25  1  0
 24 20  1  0
M  END
$$$$
