TDE.pdb
     RDKit          3D

 25 24  0  0  1  0  0  0  0  0999 V2000
   11.0588  -14.2989   18.6030 C   0  0  0  0  0  0  0  0  0  0  0  0
    9.9186  -13.3359   18.4842 C   0  0  1  0  0  0  0  0  0  0  0  0
   10.0642  -12.5534   17.3457 O   0  0  0  0  0  0  0  0  0  0  0  0
    8.5719  -14.0415   18.5170 C   0  0  2  0  0  0  0  0  0  0  0  0
    7.4876  -13.0959   18.3913 N   0  0  0  0  0  0  0  0  0  0  0  0
    8.4036  -14.7965   19.7733 C   0  0  0  0  0  0  0  0  0  0  0  0
    7.3378  -14.7538   20.4566 O   0  0  0  0  0  0  0  0  0  0  0  0
    9.4754  -15.6044   20.2363 N   0  0  0  0  0  0  0  0  0  0  0  0
    9.3052  -16.5085   21.3864 C   0  0  1  0  0  0  0  0  0  0  0  0
    8.1127  -17.3799   21.1678 C   0  0  0  0  0  0  0  0  0  0  0  0
    7.8595  -18.3540   22.2397 C   0  0  0  0  0  0  0  0  0  0  0  0
    8.4393  -18.2827   23.3734 O   0  0  0  0  0  0  0  0  0  0  0  0
   10.5764  -17.2261   21.6002 C   0  0  0  0  0  0  0  0  0  0  0  0
   10.9421  -18.0694   20.7255 O   0  0  0  0  0  0  0  0  0  0  0  0
    6.9674  -19.4180   22.0810 O   0  0  0  0  0  0  0  0  0  0  0  0
   11.4331  -17.0520   22.7020 N   0  0  0  0  0  0  0  0  0  0  0  0
   12.8877  -17.4044   22.5456 C   0  0  1  0  0  0  0  0  0  0  0  0
   13.4213  -16.6050   21.4188 C   0  0  0  0  0  0  0  0  0  0  0  0
   14.2512  -15.4497   21.7784 C   0  0  0  0  0  0  0  0  0  0  0  0
   14.8445  -14.6355   20.7211 C   0  0  0  0  0  0  0  0  0  0  0  0
   14.2726  -14.5149   19.5899 O   0  0  0  0  0  0  0  0  0  0  0  0
   13.4990  -17.1758   23.8376 C   0  0  0  0  0  0  0  0  0  0  0  0
   12.9303  -16.5851   24.8217 O   0  0  0  0  0  0  0  0  0  0  0  0
   16.0476  -13.9493   20.8809 O   0  0  0  0  0  0  0  0  0  0  0  0
   14.8044  -17.6023   24.1134 O   0  0  0  0  0  0  0  0  0  0  0  0
  2  4  1  0
  2  1  1  6
  3  2  1  0
  4  6  1  0
  4  5  1  1
  6  7  2  0
  8  9  1  0
  8  6  1  0
  9 13  1  0
  9 10  1  6
 11 15  1  0
 11 10  1  0
 12 11  2  0
 13 16  1  0
 13 14  2  0
 16 17  1  0
 17 22  1  0
 17 18  1  6
 19 18  1  0
 20 19  1  0
 21 20  2  0
 22 23  2  0
 22 25  1  0
 24 20  1  0
M  END
$$$$
