TDE.pdb
     RDKit          3D

 25 24  0  0  1  0  0  0  0  0999 V2000
    9.1685  -12.5956   20.2950 C   0  0  0  0  0  0  0  0  0  0  0  0
    8.1302  -13.4410   19.6251 C   0  0  1  0  0  0  0  0  0  0  0  0
    6.9519  -12.7226   19.4661 O   0  0  0  0  0  0  0  0  0  0  0  0
    8.6262  -14.0130   18.3063 C   0  0  2  0  0  0  0  0  0  0  0  0
    7.6201  -14.8471   17.6916 N   0  0  0  0  0  0  0  0  0  0  0  0
    9.8509  -14.8109   18.5059 C   0  0  0  0  0  0  0  0  0  0  0  0
    9.8241  -16.0601   18.7145 O   0  0  0  0  0  0  0  0  0  0  0  0
   11.1102  -14.1565   18.4616 N   0  0  0  0  0  0  0  0  0  0  0  0
   12.3613  -14.8969   18.6972 C   0  0  1  0  0  0  0  0  0  0  0  0
   13.4520  -14.3202   17.8564 C   0  0  0  0  0  0  0  0  0  0  0  0
   14.7842  -14.8919   18.1023 C   0  0  0  0  0  0  0  0  0  0  0  0
   14.9738  -16.1477   18.2182 O   0  0  0  0  0  0  0  0  0  0  0  0
   12.6252  -14.9051   20.1487 C   0  0  0  0  0  0  0  0  0  0  0  0
   12.7415  -13.7896   20.7422 O   0  0  0  0  0  0  0  0  0  0  0  0
   15.9243  -14.0930   18.2242 O   0  0  0  0  0  0  0  0  0  0  0  0
   12.7569  -16.0571   20.9449 N   0  0  0  0  0  0  0  0  0  0  0  0
   12.9047  -15.8906   22.4331 C   0  0  1  0  0  0  0  0  0  0  0  0
   12.0239  -16.8884   23.0829 C   0  0  0  0  0  0  0  0  0  0  0  0
   12.1912  -17.0564   24.5308 C   0  0  0  0  0  0  0  0  0  0  0  0
   11.3871  -18.0514   25.2354 C   0  0  0  0  0  0  0  0  0  0  0  0
   10.5386  -18.7671   24.6116 O   0  0  0  0  0  0  0  0  0  0  0  0
   14.3199  -16.0084   22.7133 C   0  0  0  0  0  0  0  0  0  0  0  0
   14.8971  -15.5595   23.7651 O   0  0  0  0  0  0  0  0  0  0  0  0
   11.4979  -18.2792   26.6064 O   0  0  0  0  0  0  0  0  0  0  0  0
   15.1903  -16.6473   21.8210 O   0  0  0  0  0  0  0  0  0  0  0  0
  2  4  1  0
  2  1  1  6
  3  2  1  0
  4  6  1  0
  4  5  1  1
  6  7  2  0
  8  9  1  0
  8  6  1  0
  9 13  1  0
  9 10  1  6
 11 15  1  0
 11 10  1  0
 12 11  2  0
 13 16  1  0
 13 14  2  0
 16 17  1  0
 17 22  1  0
 17 18  1  1
 19 18  1  0
 20 19  1  0
 21 20  2  0
 22 23  2  0
 22 25  1  0
 24 20  1  0
M  END
$$$$
