TDE.pdb
     RDKit          3D

 25 24  0  0  1  0  0  0  0  0999 V2000
    9.0011  -15.5737   17.3402 C   0  0  0  0  0  0  0  0  0  0  0  0
    8.9466  -14.0851   17.4908 C   0  0  1  0  0  0  0  0  0  0  0  0
    8.7856  -13.4801   16.2508 O   0  0  0  0  0  0  0  0  0  0  0  0
    7.8717  -13.6517   18.4754 C   0  0  2  0  0  0  0  0  0  0  0  0
    7.7581  -12.2126   18.5190 N   0  0  0  0  0  0  0  0  0  0  0  0
    8.1694  -14.1484   19.8322 C   0  0  0  0  0  0  0  0  0  0  0  0
    8.9634  -13.5509   20.6178 O   0  0  0  0  0  0  0  0  0  0  0  0
    7.5421  -15.3414   20.2784 N   0  0  0  0  0  0  0  0  0  0  0  0
    7.9668  -16.0051   21.5227 C   0  0  1  0  0  0  0  0  0  0  0  0
    7.0576  -17.1527   21.8151 C   0  0  0  0  0  0  0  0  0  0  0  0
    7.4146  -17.9291   23.0118 C   0  0  0  0  0  0  0  0  0  0  0  0
    8.1153  -17.4370   23.9569 O   0  0  0  0  0  0  0  0  0  0  0  0
    9.3950  -16.3523   21.3951 C   0  0  0  0  0  0  0  0  0  0  0  0
    9.7910  -16.8656   20.3043 O   0  0  0  0  0  0  0  0  0  0  0  0
    7.0073  -19.2546   23.1859 O   0  0  0  0  0  0  0  0  0  0  0  0
   10.3712  -16.1577   22.3889 N   0  0  0  0  0  0  0  0  0  0  0  0
   11.8034  -16.4869   22.0653 C   0  0  1  0  0  0  0  0  0  0  0  0
   12.2188  -15.6144   20.9430 C   0  0  0  0  0  0  0  0  0  0  0  0
   13.6157  -15.7340   20.5105 C   0  0  0  0  0  0  0  0  0  0  0  0
   14.0861  -14.9430   19.3766 C   0  0  0  0  0  0  0  0  0  0  0  0
   13.2785  -14.2326   18.6950 O   0  0  0  0  0  0  0  0  0  0  0  0
   12.5413  -16.3337   23.3012 C   0  0  0  0  0  0  0  0  0  0  0  0
   13.7961  -16.5534   23.4359 O   0  0  0  0  0  0  0  0  0  0  0  0
   15.4220  -14.9125   18.9788 O   0  0  0  0  0  0  0  0  0  0  0  0
   11.9115  -15.9170   24.4808 O   0  0  0  0  0  0  0  0  0  0  0  0
  2  4  1  0
  2  1  1  6
  3  2  1  0
  4  6  1  0
  4  5  1  1
  6  7  2  0
  8  9  1  0
  8  6  1  0
  9 13  1  0
  9 10  1  6
 11 15  1  0
 11 10  1  0
 12 11  2  0
 13 16  1  0
 13 14  2  0
 16 17  1  0
 17 22  1  0
 17 18  1  6
 19 18  1  0
 20 19  1  0
 21 20  2  0
 22 23  2  0
 22 25  1  0
 24 20  1  0
M  END
$$$$
