TDE.pdb
     RDKit          3D

 25 24  0  0  1  0  0  0  0  0999 V2000
    9.3237  -12.6914   20.2511 C   0  0  0  0  0  0  0  0  0  0  0  0
    8.2218  -13.0534   19.3043 C   0  0  1  0  0  0  0  0  0  0  0  0
    7.3550  -11.9804   19.1396 O   0  0  0  0  0  0  0  0  0  0  0  0
    8.7578  -13.5570   17.9733 C   0  0  2  0  0  0  0  0  0  0  0  0
    7.6794  -13.9171   17.0827 N   0  0  0  0  0  0  0  0  0  0  0  0
    9.6291  -14.7316   18.1670 C   0  0  0  0  0  0  0  0  0  0  0  0
    9.4681  -15.8128   17.5270 O   0  0  0  0  0  0  0  0  0  0  0  0
   10.6914  -14.6496   19.1055 N   0  0  0  0  0  0  0  0  0  0  0  0
   11.7706  -15.6517   19.1230 C   0  0  1  0  0  0  0  0  0  0  0  0
   12.3615  -15.7769   17.7576 C   0  0  0  0  0  0  0  0  0  0  0  0
   12.7977  -17.1347   17.3997 C   0  0  0  0  0  0  0  0  0  0  0  0
   11.9857  -18.0168   16.9650 O   0  0  0  0  0  0  0  0  0  0  0  0
   12.7230  -15.2843   20.1880 C   0  0  0  0  0  0  0  0  0  0  0  0
   13.3551  -14.1900   20.0743 O   0  0  0  0  0  0  0  0  0  0  0  0
   14.1299  -17.5413   17.5144 O   0  0  0  0  0  0  0  0  0  0  0  0
   12.9927  -16.0493   21.3371 N   0  0  0  0  0  0  0  0  0  0  0  0
   13.5964  -15.3638   22.5329 C   0  0  1  0  0  0  0  0  0  0  0  0
   12.7634  -15.7039   23.7093 C   0  0  0  0  0  0  0  0  0  0  0  0
   12.6388  -17.1312   24.0256 C   0  0  0  0  0  0  0  0  0  0  0  0
   11.8513  -17.5434   25.1843 C   0  0  0  0  0  0  0  0  0  0  0  0
   11.7147  -16.7736   26.1894 O   0  0  0  0  0  0  0  0  0  0  0  0
   14.9795  -15.7876   22.5849 C   0  0  0  0  0  0  0  0  0  0  0  0
   15.4905  -16.7081   21.8552 O   0  0  0  0  0  0  0  0  0  0  0  0
   11.2087  -18.7783   25.2607 O   0  0  0  0  0  0  0  0  0  0  0  0
   15.8913  -15.1972   23.4692 O   0  0  0  0  0  0  0  0  0  0  0  0
  2  4  1  0
  2  1  1  1
  3  2  1  0
  4  6  1  0
  4  5  1  6
  6  7  2  0
  8  9  1  0
  8  6  1  0
  9 13  1  0
  9 10  1  6
 11 15  1  0
 11 10  1  0
 12 11  2  0
 13 16  1  0
 13 14  2  0
 16 17  1  0
 17 22  1  0
 17 18  1  1
 19 18  1  0
 20 19  1  0
 21 20  2  0
 22 23  2  0
 22 25  1  0
 24 20  1  0
M  END
$$$$
