TDE.pdb
     RDKit          3D

 25 24  0  0  1  0  0  0  0  0999 V2000
   -5.0265  -26.1572   23.4344 C   0  0  0  0  0  0  0  0  0  0  0  0
   -5.1798  -25.8004   24.8804 C   0  0  1  0  0  0  0  0  0  0  0  0
   -4.6973  -26.8255   25.6842 O   0  0  0  0  0  0  0  0  0  0  0  0
   -4.5259  -24.4676   25.2101 C   0  0  2  0  0  0  0  0  0  0  0  0
   -3.1039  -24.5121   24.9619 N   0  0  0  0  0  0  0  0  0  0  0  0
   -4.7529  -24.1049   26.6220 C   0  0  0  0  0  0  0  0  0  0  0  0
   -3.9417  -24.4146   27.5442 O   0  0  0  0  0  0  0  0  0  0  0  0
   -5.9245  -23.3791   26.9634 N   0  0  0  0  0  0  0  0  0  0  0  0
   -6.2945  -23.1493   28.3703 C   0  0  1  0  0  0  0  0  0  0  0  0
   -7.3004  -22.0489   28.4515 C   0  0  0  0  0  0  0  0  0  0  0  0
   -7.7739  -21.7495   29.8110 C   0  0  0  0  0  0  0  0  0  0  0  0
   -8.9902  -21.4555   30.0575 O   0  0  0  0  0  0  0  0  0  0  0  0
   -6.7238  -24.4364   28.9496 C   0  0  0  0  0  0  0  0  0  0  0  0
   -7.5602  -25.1357   28.3003 O   0  0  0  0  0  0  0  0  0  0  0  0
   -6.9190  -21.7688   30.9164 O   0  0  0  0  0  0  0  0  0  0  0  0
   -6.2780  -24.9662   30.1739 N   0  0  0  0  0  0  0  0  0  0  0  0
   -6.7846  -26.3173   30.6008 C   0  0  1  0  0  0  0  0  0  0  0  0
   -5.6131  -27.1207   31.0196 C   0  0  0  0  0  0  0  0  0  0  0  0
   -5.8969  -28.4716   31.5168 C   0  0  0  0  0  0  0  0  0  0  0  0
   -4.8029  -29.2920   32.0298 C   0  0  0  0  0  0  0  0  0  0  0  0
   -5.0209  -30.4596   32.4888 O   0  0  0  0  0  0  0  0  0  0  0  0
   -7.7863  -26.0699   31.6161 C   0  0  0  0  0  0  0  0  0  0  0  0
   -7.7452  -25.1126   32.4663 O   0  0  0  0  0  0  0  0  0  0  0  0
   -3.4774  -28.8599   32.0455 O   0  0  0  0  0  0  0  0  0  0  0  0
   -8.9144  -26.8901   31.7439 O   0  0  0  0  0  0  0  0  0  0  0  0
  2  4  1  0
  2  1  1  6
  3  2  1  0
  4  6  1  0
  4  5  1  1
  6  7  2  0
  8  9  1  0
  8  6  1  0
  9 13  1  0
  9 10  1  6
 11 15  1  0
 11 10  1  0
 12 11  2  0
 13 16  1  0
 13 14  2  0
 16 17  1  0
 17 22  1  0
 17 18  1  1
 19 18  1  0
 20 19  1  0
 21 20  2  0
 22 23  2  0
 22 25  1  0
 24 20  1  0
M  END
$$$$
