TDE.pdb
     RDKit          3D

 25 24  0  0  1  0  0  0  0  0999 V2000
    9.3581  -12.3282   20.1195 C   0  0  0  0  0  0  0  0  0  0  0  0
    8.2757  -13.2214   19.5978 C   0  0  1  0  0  0  0  0  0  0  0  0
    7.0789  -12.5231   19.5000 O   0  0  0  0  0  0  0  0  0  0  0  0
    8.6609  -13.8712   18.2779 C   0  0  2  0  0  0  0  0  0  0  0  0
    7.5767  -14.6708   17.7575 N   0  0  0  0  0  0  0  0  0  0  0  0
    9.8507  -14.7282   18.4405 C   0  0  0  0  0  0  0  0  0  0  0  0
    9.7770  -15.9910   18.5081 O   0  0  0  0  0  0  0  0  0  0  0  0
   11.1296  -14.1171   18.5231 N   0  0  0  0  0  0  0  0  0  0  0  0
   12.3554  -14.9274   18.6220 C   0  0  1  0  0  0  0  0  0  0  0  0
   13.2878  -14.5645   17.5138 C   0  0  0  0  0  0  0  0  0  0  0  0
   14.5632  -15.2964   17.5204 C   0  0  0  0  0  0  0  0  0  0  0  0
   14.6153  -16.5704   17.5416 O   0  0  0  0  0  0  0  0  0  0  0  0
   12.9043  -14.7680   19.9820 C   0  0  0  0  0  0  0  0  0  0  0  0
   13.3748  -13.6358   20.3087 O   0  0  0  0  0  0  0  0  0  0  0  0
   15.7965  -14.6394   17.5037 O   0  0  0  0  0  0  0  0  0  0  0  0
   12.9489  -15.7740   20.9641 N   0  0  0  0  0  0  0  0  0  0  0  0
   13.4991  -15.4306   22.3219 C   0  0  1  0  0  0  0  0  0  0  0  0
   12.8035  -16.2831   23.3133 C   0  0  0  0  0  0  0  0  0  0  0  0
   11.3383  -16.2066   23.3206 C   0  0  0  0  0  0  0  0  0  0  0  0
   10.5766  -17.1155   24.1729 C   0  0  0  0  0  0  0  0  0  0  0  0
   11.1668  -17.9711   24.9085 O   0  0  0  0  0  0  0  0  0  0  0  0
   14.9339  -15.5979   22.2296 C   0  0  0  0  0  0  0  0  0  0  0  0
   15.7727  -15.2268   23.1238 O   0  0  0  0  0  0  0  0  0  0  0  0
    9.1839  -17.1020   24.2375 O   0  0  0  0  0  0  0  0  0  0  0  0
   15.5284  -16.2021   21.1145 O   0  0  0  0  0  0  0  0  0  0  0  0
  2  4  1  0
  2  1  1  6
  3  2  1  0
  4  6  1  0
  4  5  1  1
  6  7  2  0
  8  9  1  0
  8  6  1  0
  9 13  1  0
  9 10  1  6
 11 15  1  0
 11 10  1  0
 12 11  2  0
 13 16  1  0
 13 14  2  0
 16 17  1  0
 17 22  1  0
 17 18  1  1
 19 18  1  0
 20 19  1  0
 21 20  2  0
 22 23  2  0
 22 25  1  0
 24 20  1  0
M  END
$$$$
