TDE.pdb
     RDKit          3D

 25 24  0  0  1  0  0  0  0  0999 V2000
    7.7915  -12.3616   19.1788 C   0  0  0  0  0  0  0  0  0  0  0  0
    8.8999  -13.3100   19.5160 C   0  0  1  0  0  0  0  0  0  0  0  0
    8.4592  -14.2644   20.4240 O   0  0  0  0  0  0  0  0  0  0  0  0
    9.5017  -13.9470   18.2732 C   0  0  2  0  0  0  0  0  0  0  0  0
    8.5231  -14.7474   17.5750 N   0  0  0  0  0  0  0  0  0  0  0  0
   10.6534  -14.7997   18.6237 C   0  0  0  0  0  0  0  0  0  0  0  0
   10.5844  -16.0644   18.6424 O   0  0  0  0  0  0  0  0  0  0  0  0
   11.8889  -14.1819   18.9519 N   0  0  0  0  0  0  0  0  0  0  0  0
   13.0698  -14.9854   19.3113 C   0  0  1  0  0  0  0  0  0  0  0  0
   14.3126  -14.2309   18.9717 C   0  0  0  0  0  0  0  0  0  0  0  0
   14.7643  -14.3865   17.5811 C   0  0  0  0  0  0  0  0  0  0  0  0
   14.6915  -15.5000   16.9636 O   0  0  0  0  0  0  0  0  0  0  0  0
   12.9433  -15.3823   20.7266 C   0  0  0  0  0  0  0  0  0  0  0  0
   12.8749  -14.4658   21.6014 O   0  0  0  0  0  0  0  0  0  0  0  0
   15.3014  -13.3227   16.8511 O   0  0  0  0  0  0  0  0  0  0  0  0
   12.8867  -16.7063   21.1979 N   0  0  0  0  0  0  0  0  0  0  0  0
   12.7732  -16.9385   22.6803 C   0  0  1  0  0  0  0  0  0  0  0  0
   11.8037  -18.0390   22.8862 C   0  0  0  0  0  0  0  0  0  0  0  0
   10.5055  -17.8938   22.2181 C   0  0  0  0  0  0  0  0  0  0  0  0
    9.5503  -18.9978   22.2584 C   0  0  0  0  0  0  0  0  0  0  0  0
    9.7977  -20.0983   21.6677 O   0  0  0  0  0  0  0  0  0  0  0  0
   14.1198  -17.1755   23.1555 C   0  0  0  0  0  0  0  0  0  0  0  0
   15.1471  -17.3147   22.4030 O   0  0  0  0  0  0  0  0  0  0  0  0
    8.3339  -18.9203   22.9354 O   0  0  0  0  0  0  0  0  0  0  0  0
   14.4052  -17.2711   24.5234 O   0  0  0  0  0  0  0  0  0  0  0  0
  2  4  1  0
  2  1  1  6
  3  2  1  0
  4  6  1  0
  4  5  1  1
  6  7  2  0
  8  9  1  0
  8  6  1  0
  9 13  1  0
  9 10  1  1
 11 15  1  0
 11 10  1  0
 12 11  2  0
 13 16  1  0
 13 14  2  0
 16 17  1  0
 17 22  1  0
 17 18  1  6
 19 18  1  0
 20 19  1  0
 21 20  2  0
 22 23  2  0
 22 25  1  0
 24 20  1  0
M  END
$$$$
