TDE.pdb
     RDKit          3D

 25 24  0  0  1  0  0  0  0  0999 V2000
    8.4216  -13.4064   16.1611 C   0  0  0  0  0  0  0  0  0  0  0  0
    8.8037  -14.2675   17.3247 C   0  0  1  0  0  0  0  0  0  0  0  0
   10.1646  -14.1569   17.5807 O   0  0  0  0  0  0  0  0  0  0  0  0
    7.9693  -13.9603   18.5584 C   0  0  2  0  0  0  0  0  0  0  0  0
    8.0926  -12.5716   18.9353 N   0  0  0  0  0  0  0  0  0  0  0  0
    8.3831  -14.8025   19.6968 C   0  0  0  0  0  0  0  0  0  0  0  0
    9.0305  -14.3436   20.6842 O   0  0  0  0  0  0  0  0  0  0  0  0
    8.0426  -16.1808   19.6892 N   0  0  0  0  0  0  0  0  0  0  0  0
    8.3446  -17.0457   20.8424 C   0  0  1  0  0  0  0  0  0  0  0  0
    7.6773  -18.3696   20.6654 C   0  0  0  0  0  0  0  0  0  0  0  0
    7.9286  -19.3331   21.7473 C   0  0  0  0  0  0  0  0  0  0  0  0
    8.3510  -18.9712   22.8949 O   0  0  0  0  0  0  0  0  0  0  0  0
    9.8096  -17.0982   21.0075 C   0  0  0  0  0  0  0  0  0  0  0  0
   10.4852  -17.7504   20.1541 O   0  0  0  0  0  0  0  0  0  0  0  0
    7.7196  -20.7052   21.5834 O   0  0  0  0  0  0  0  0  0  0  0  0
   10.5344  -16.4764   22.0402 N   0  0  0  0  0  0  0  0  0  0  0  0
   11.9653  -16.8855   22.2628 C   0  0  1  0  0  0  0  0  0  0  0  0
   12.8212  -15.7380   21.8831 C   0  0  0  0  0  0  0  0  0  0  0  0
   12.7980  -15.3513   20.4680 C   0  0  0  0  0  0  0  0  0  0  0  0
   13.7629  -14.3717   19.9759 C   0  0  0  0  0  0  0  0  0  0  0  0
   14.3580  -13.5807   20.7769 O   0  0  0  0  0  0  0  0  0  0  0  0
   12.0510  -17.3185   23.6414 C   0  0  0  0  0  0  0  0  0  0  0  0
   11.0983  -17.2380   24.4940 O   0  0  0  0  0  0  0  0  0  0  0  0
   14.0904  -14.2455   18.6265 O   0  0  0  0  0  0  0  0  0  0  0  0
   13.2257  -17.8788   24.1590 O   0  0  0  0  0  0  0  0  0  0  0  0
  2  4  1  0
  2  1  1  6
  3  2  1  0
  4  6  1  0
  4  5  1  1
  6  7  2  0
  8  9  1  0
  8  6  1  0
  9 13  1  0
  9 10  1  6
 11 15  1  0
 11 10  1  0
 12 11  2  0
 13 16  1  0
 13 14  2  0
 16 17  1  0
 17 22  1  0
 17 18  1  1
 19 18  1  0
 20 19  1  0
 21 20  2  0
 22 23  2  0
 22 25  1  0
 24 20  1  0
M  END
$$$$
