TDE.pdb
     RDKit          3D

 25 24  0  0  1  0  0  0  0  0999 V2000
    8.2227  -12.0417   19.1375 C   0  0  0  0  0  0  0  0  0  0  0  0
    7.6062  -13.2578   18.5189 C   0  0  1  0  0  0  0  0  0  0  0  0
    6.9358  -12.9180   17.3507 O   0  0  0  0  0  0  0  0  0  0  0  0
    8.6297  -14.3578   18.2841 C   0  0  2  0  0  0  0  0  0  0  0  0
    8.0983  -15.3845   17.4186 N   0  0  0  0  0  0  0  0  0  0  0  0
    9.0416  -14.9746   19.5594 C   0  0  0  0  0  0  0  0  0  0  0  0
    9.5928  -14.3142   20.4893 O   0  0  0  0  0  0  0  0  0  0  0  0
    8.8112  -16.3617   19.7559 N   0  0  0  0  0  0  0  0  0  0  0  0
    9.1090  -17.0075   21.0456 C   0  0  1  0  0  0  0  0  0  0  0  0
    8.2984  -18.2539   21.1820 C   0  0  0  0  0  0  0  0  0  0  0  0
    8.6033  -19.0568   22.3755 C   0  0  0  0  0  0  0  0  0  0  0  0
    8.9375  -18.5246   23.4853 O   0  0  0  0  0  0  0  0  0  0  0  0
   10.5693  -17.1948   21.1405 C   0  0  0  0  0  0  0  0  0  0  0  0
   11.1533  -17.8282   20.2089 O   0  0  0  0  0  0  0  0  0  0  0  0
    8.5453  -20.4531   22.3661 O   0  0  0  0  0  0  0  0  0  0  0  0
   11.3836  -16.7224   22.1856 N   0  0  0  0  0  0  0  0  0  0  0  0
   12.8724  -16.6742   21.9726 C   0  0  1  0  0  0  0  0  0  0  0  0
   13.1241  -15.8483   20.7693 C   0  0  0  0  0  0  0  0  0  0  0  0
   14.5275  -15.5321   20.4811 C   0  0  0  0  0  0  0  0  0  0  0  0
   14.8578  -14.7541   19.2901 C   0  0  0  0  0  0  0  0  0  0  0  0
   15.3300  -13.5757   19.3891 O   0  0  0  0  0  0  0  0  0  0  0  0
   13.4414  -16.1886   23.2118 C   0  0  0  0  0  0  0  0  0  0  0  0
   14.6954  -16.0629   23.4413 O   0  0  0  0  0  0  0  0  0  0  0  0
   14.6847  -15.2432   17.9960 O   0  0  0  0  0  0  0  0  0  0  0  0
   12.6298  -15.8057   24.2873 O   0  0  0  0  0  0  0  0  0  0  0  0
  2  4  1  0
  2  1  1  6
  3  2  1  0
  4  6  1  0
  4  5  1  6
  6  7  2  0
  8  9  1  0
  8  6  1  0
  9 13  1  0
  9 10  1  6
 11 15  1  0
 11 10  1  0
 12 11  2  0
 13 16  1  0
 13 14  2  0
 16 17  1  0
 17 22  1  0
 17 18  1  6
 19 18  1  0
 20 19  1  0
 21 20  2  0
 22 23  2  0
 22 25  1  0
 24 20  1  0
M  END
$$$$
