TDE.pdb
     RDKit          3D

 25 24  0  0  1  0  0  0  0  0999 V2000
    9.7674  -12.4909   19.7011 C   0  0  0  0  0  0  0  0  0  0  0  0
    8.4825  -12.9021   19.0519 C   0  0  1  0  0  0  0  0  0  0  0  0
    8.0067  -11.8840   18.2354 O   0  0  0  0  0  0  0  0  0  0  0  0
    8.6211  -14.2147   18.2966 C   0  0  2  0  0  0  0  0  0  0  0  0
    7.3662  -14.6027   17.6961 N   0  0  0  0  0  0  0  0  0  0  0  0
    9.0741  -15.2937   19.1949 C   0  0  0  0  0  0  0  0  0  0  0  0
    8.3065  -15.8468   20.0372 O   0  0  0  0  0  0  0  0  0  0  0  0
   10.4220  -15.7327   19.1136 N   0  0  0  0  0  0  0  0  0  0  0  0
   10.8937  -16.8902   19.8926 C   0  0  1  0  0  0  0  0  0  0  0  0
   12.1118  -17.4657   19.2490 C   0  0  0  0  0  0  0  0  0  0  0  0
   11.8749  -18.0991   17.9433 C   0  0  0  0  0  0  0  0  0  0  0  0
   10.9225  -18.9253   17.7518 O   0  0  0  0  0  0  0  0  0  0  0  0
   11.0666  -16.4625   21.2939 C   0  0  0  0  0  0  0  0  0  0  0  0
   11.6209  -15.3425   21.5139 O   0  0  0  0  0  0  0  0  0  0  0  0
   12.6799  -17.8338   16.8322 O   0  0  0  0  0  0  0  0  0  0  0  0
   10.6614  -17.1957   22.4238 N   0  0  0  0  0  0  0  0  0  0  0  0
   10.8747  -16.5944   23.7866 C   0  0  1  0  0  0  0  0  0  0  0  0
    9.5502  -16.4932   24.4415 C   0  0  0  0  0  0  0  0  0  0  0  0
    8.6829  -15.4008   23.9861 C   0  0  0  0  0  0  0  0  0  0  0  0
    7.3416  -15.2677   24.5482 C   0  0  0  0  0  0  0  0  0  0  0  0
    6.4944  -16.2132   24.4493 O   0  0  0  0  0  0  0  0  0  0  0  0
   11.8526  -17.4319   24.4482 C   0  0  0  0  0  0  0  0  0  0  0  0
   12.3682  -17.1882   25.5952 O   0  0  0  0  0  0  0  0  0  0  0  0
    6.9133  -14.1226   25.2183 O   0  0  0  0  0  0  0  0  0  0  0  0
   12.3204  -18.6134   23.8588 O   0  0  0  0  0  0  0  0  0  0  0  0
  2  4  1  0
  2  1  1  6
  3  2  1  0
  4  6  1  0
  4  5  1  1
  6  7  2  0
  8  9  1  0
  8  6  1  0
  9 13  1  0
  9 10  1  6
 11 15  1  0
 11 10  1  0
 12 11  2  0
 13 16  1  0
 13 14  2  0
 16 17  1  0
 17 22  1  0
 17 18  1  1
 19 18  1  0
 20 19  1  0
 21 20  2  0
 22 23  2  0
 22 25  1  0
 24 20  1  0
M  END
$$$$
