TDE.pdb
     RDKit          3D

 25 24  0  0  1  0  0  0  0  0999 V2000
    7.6496  -12.4811   19.4277 C   0  0  0  0  0  0  0  0  0  0  0  0
    8.9590  -13.1941   19.5645 C   0  0  1  0  0  0  0  0  0  0  0  0
    8.9458  -14.0175   20.6832 O   0  0  0  0  0  0  0  0  0  0  0  0
    9.3243  -13.9603   18.3027 C   0  0  2  0  0  0  0  0  0  0  0  0
    8.2825  -14.8933   17.9424 N   0  0  0  0  0  0  0  0  0  0  0  0
   10.5871  -14.7013   18.4837 C   0  0  0  0  0  0  0  0  0  0  0  0
   10.6200  -15.9483   18.7039 O   0  0  0  0  0  0  0  0  0  0  0  0
   11.8149  -13.9924   18.4074 N   0  0  0  0  0  0  0  0  0  0  0  0
   13.1033  -14.6784   18.6038 C   0  0  1  0  0  0  0  0  0  0  0  0
   14.0949  -14.1797   17.6053 C   0  0  0  0  0  0  0  0  0  0  0  0
   15.4420  -14.7538   17.7387 C   0  0  0  0  0  0  0  0  0  0  0  0
   15.6520  -15.8640   18.3302 O   0  0  0  0  0  0  0  0  0  0  0  0
   13.4995  -14.5185   20.0159 C   0  0  0  0  0  0  0  0  0  0  0  0
   13.6950  -13.3436   20.4533 O   0  0  0  0  0  0  0  0  0  0  0  0
   16.5750  -14.1169   17.2250 O   0  0  0  0  0  0  0  0  0  0  0  0
   13.6780  -15.5688   20.9343 N   0  0  0  0  0  0  0  0  0  0  0  0
   13.9840  -15.2274   22.3676 C   0  0  1  0  0  0  0  0  0  0  0  0
   12.8253  -15.6551   23.1848 C   0  0  0  0  0  0  0  0  0  0  0  0
   12.3274  -17.0141   22.9438 C   0  0  0  0  0  0  0  0  0  0  0  0
   11.1805  -17.5035   23.7040 C   0  0  0  0  0  0  0  0  0  0  0  0
   10.7019  -18.6641   23.4909 O   0  0  0  0  0  0  0  0  0  0  0  0
   15.2494  -15.8610   22.6716 C   0  0  0  0  0  0  0  0  0  0  0  0
   15.8641  -15.7671   23.7915 O   0  0  0  0  0  0  0  0  0  0  0  0
   10.5524  -16.7489   24.6939 O   0  0  0  0  0  0  0  0  0  0  0  0
   15.9150  -16.6529   21.7272 O   0  0  0  0  0  0  0  0  0  0  0  0
  2  4  1  0
  2  1  1  6
  3  2  1  0
  4  6  1  0
  4  5  1  1
  6  7  2  0
  8  9  1  0
  8  6  1  0
  9 13  1  0
  9 10  1  6
 11 15  1  0
 11 10  1  0
 12 11  2  0
 13 16  1  0
 13 14  2  0
 16 17  1  0
 17 22  1  0
 17 18  1  1
 19 18  1  0
 20 19  1  0
 21 20  2  0
 22 23  2  0
 22 25  1  0
 24 20  1  0
M  END
$$$$
