TDE.pdb
     RDKit          3D

 25 24  0  0  1  0  0  0  0  0999 V2000
    8.4138  -15.8680   17.5531 C   0  0  0  0  0  0  0  0  0  0  0  0
    8.5657  -14.3824   17.4459 C   0  0  1  0  0  0  0  0  0  0  0  0
    8.0713  -13.9332   16.2280 O   0  0  0  0  0  0  0  0  0  0  0  0
    7.9231  -13.6586   18.6188 C   0  0  2  0  0  0  0  0  0  0  0  0
    7.9538  -12.2277   18.4251 N   0  0  0  0  0  0  0  0  0  0  0  0
    8.6139  -13.9843   19.8810 C   0  0  0  0  0  0  0  0  0  0  0  0
    9.6099  -13.3250   20.3026 O   0  0  0  0  0  0  0  0  0  0  0  0
    8.1458  -15.0778   20.6562 N   0  0  0  0  0  0  0  0  0  0  0  0
    8.8246  -15.4735   21.9019 C   0  0  1  0  0  0  0  0  0  0  0  0
    7.9989  -16.4867   22.6236 C   0  0  0  0  0  0  0  0  0  0  0  0
    7.9297  -17.8013   21.9685 C   0  0  0  0  0  0  0  0  0  0  0  0
    7.7183  -17.9265   20.7171 O   0  0  0  0  0  0  0  0  0  0  0  0
   10.1938  -15.9056   21.5629 C   0  0  0  0  0  0  0  0  0  0  0  0
   10.3978  -16.4002   20.4124 O   0  0  0  0  0  0  0  0  0  0  0  0
    8.0916  -18.9942   22.6783 O   0  0  0  0  0  0  0  0  0  0  0  0
   11.3101  -15.8123   22.4137 N   0  0  0  0  0  0  0  0  0  0  0  0
   12.6624  -16.1874   21.8706 C   0  0  1  0  0  0  0  0  0  0  0  0
   13.1681  -15.0308   21.0961 C   0  0  0  0  0  0  0  0  0  0  0  0
   13.3900  -15.2562   19.6633 C   0  0  0  0  0  0  0  0  0  0  0  0
   14.4092  -14.4786   18.9639 C   0  0  0  0  0  0  0  0  0  0  0  0
   14.5871  -14.6115   17.7101 O   0  0  0  0  0  0  0  0  0  0  0  0
   13.4574  -16.5897   23.0114 C   0  0  0  0  0  0  0  0  0  0  0  0
   14.6642  -17.0147   22.9486 O   0  0  0  0  0  0  0  0  0  0  0  0
   15.2325  -13.5574   19.6101 O   0  0  0  0  0  0  0  0  0  0  0  0
   12.9441  -16.5389   24.3136 O   0  0  0  0  0  0  0  0  0  0  0  0
  2  4  1  0
  2  1  1  1
  3  2  1  0
  4  6  1  0
  4  5  1  6
  6  7  2  0
  8  9  1  0
  8  6  1  0
  9 13  1  0
  9 10  1  6
 11 15  1  0
 11 10  1  0
 12 11  2  0
 13 16  1  0
 13 14  2  0
 16 17  1  0
 17 22  1  0
 17 18  1  1
 19 18  1  0
 20 19  1  0
 21 20  2  0
 22 23  2  0
 22 25  1  0
 24 20  1  0
M  END
$$$$
