TDE.pdb
     RDKit          3D

 25 24  0  0  1  0  0  0  0  0999 V2000
    7.7460  -12.1175   19.8510 C   0  0  0  0  0  0  0  0  0  0  0  0
    8.9583  -12.9958   19.8319 C   0  0  1  0  0  0  0  0  0  0  0  0
    9.0019  -13.7834   20.9754 O   0  0  0  0  0  0  0  0  0  0  0  0
    9.0343  -13.8335   18.5650 C   0  0  2  0  0  0  0  0  0  0  0  0
    7.8737  -14.6832   18.4346 N   0  0  0  0  0  0  0  0  0  0  0  0
   10.2453  -14.6761   18.5628 C   0  0  0  0  0  0  0  0  0  0  0  0
   10.2016  -15.9327   18.7167 O   0  0  0  0  0  0  0  0  0  0  0  0
   11.5102  -14.0577   18.3798 N   0  0  0  0  0  0  0  0  0  0  0  0
   12.7526  -14.8486   18.3903 C   0  0  1  0  0  0  0  0  0  0  0  0
   13.5887  -14.4857   17.2077 C   0  0  0  0  0  0  0  0  0  0  0  0
   14.7946  -15.3087   17.0329 C   0  0  0  0  0  0  0  0  0  0  0  0
   15.6628  -15.0593   16.1327 O   0  0  0  0  0  0  0  0  0  0  0  0
   13.4048  -14.6642   19.7007 C   0  0  0  0  0  0  0  0  0  0  0  0
   13.8668  -13.5167   19.9831 O   0  0  0  0  0  0  0  0  0  0  0  0
   15.0625  -16.4152   17.8434 O   0  0  0  0  0  0  0  0  0  0  0  0
   13.5579  -15.6618   20.6804 N   0  0  0  0  0  0  0  0  0  0  0  0
   14.1002  -15.2698   22.0282 C   0  0  1  0  0  0  0  0  0  0  0  0
   13.6090  -16.2619   23.0120 C   0  0  0  0  0  0  0  0  0  0  0  0
   12.1697  -16.2365   23.2960 C   0  0  0  0  0  0  0  0  0  0  0  0
   11.6347  -17.0731   24.3668 C   0  0  0  0  0  0  0  0  0  0  0  0
   10.3942  -17.0543   24.6534 O   0  0  0  0  0  0  0  0  0  0  0  0
   15.5367  -15.1796   21.8740 C   0  0  0  0  0  0  0  0  0  0  0  0
   16.1904  -15.5948   20.8536 O   0  0  0  0  0  0  0  0  0  0  0  0
   12.4305  -17.9309   25.1248 O   0  0  0  0  0  0  0  0  0  0  0  0
   16.3431  -14.6085   22.8667 O   0  0  0  0  0  0  0  0  0  0  0  0
  2  4  1  0
  2  1  1  6
  3  2  1  0
  4  6  1  0
  4  5  1  1
  6  7  2  0
  8  9  1  0
  8  6  1  0
  9 13  1  0
  9 10  1  6
 11 15  1  0
 11 10  1  0
 12 11  2  0
 13 16  1  0
 13 14  2  0
 16 17  1  0
 17 22  1  0
 17 18  1  1
 19 18  1  0
 20 19  1  0
 21 20  2  0
 22 23  2  0
 22 25  1  0
 24 20  1  0
M  END
$$$$
