LDQ.pdb
     RDKit          3D

 26 25  0  0  1  0  0  0  0  0999 V2000
   13.1882  -11.6386  -15.2015 C   0  0  0  0  0  0  0  0  0  0  0  0
   14.5739  -11.6411  -14.6242 C   0  0  1  0  0  0  0  0  0  0  0  0
   15.4738  -12.4311  -15.5442 C   0  0  0  0  0  0  0  0  0  0  0  0
   15.1574  -10.2689  -14.4542 C   0  0  0  0  0  0  0  0  0  0  0  0
   16.4788  -10.3476  -13.7314 C   0  0  2  0  0  0  0  0  0  0  0  0
   16.3322  -11.2968  -12.6528 N   0  0  0  0  0  0  0  0  0  0  0  0
   16.8577   -9.0045  -13.2891 C   0  0  0  0  0  0  0  0  0  0  0  0
   16.9326   -8.0752  -14.1303 O   0  0  0  0  0  0  0  0  0  0  0  0
   17.1403   -8.7419  -11.9300 N   0  0  0  0  0  0  0  0  0  0  0  0
   17.4990   -7.3890  -11.5724 C   0  0  1  0  0  0  0  0  0  0  0  0
   17.2662   -7.2019  -10.0909 C   0  0  0  0  0  0  0  0  0  0  0  0
   15.8442   -6.9874   -9.7516 C   0  0  0  0  0  0  0  0  0  0  0  0
   15.0061   -6.8542  -10.6528 O   0  0  0  0  0  0  0  0  0  0  0  0
   18.9825   -7.2418  -11.7985 C   0  0  0  0  0  0  0  0  0  0  0  0
   19.8023   -8.1593  -11.5542 O   0  0  0  0  0  0  0  0  0  0  0  0
   15.4156   -6.9308   -8.4337 O   0  0  0  0  0  0  0  0  0  0  0  0
   21.3604   -8.7064  -16.2220 N   0  0  0  0  0  0  0  0  0  0  0  0
   22.4006   -7.8050  -15.9101 C   0  0  0  0  0  0  0  0  0  0  0  0
   23.4498   -7.8115  -16.5777 O   0  0  0  0  0  0  0  0  0  0  0  0
   22.2394   -6.8606  -14.7929 C   0  0  0  0  0  0  0  0  0  0  0  0
   20.9563   -6.9611  -14.0416 C   0  0  0  0  0  0  0  0  0  0  0  0
   20.8566   -5.9827  -12.9353 C   0  0  2  0  0  0  0  0  0  0  0  0
   19.5252   -6.0342  -12.3086 N   0  0  0  0  0  0  0  0  0  0  0  0
   21.1340   -4.6136  -13.4164 C   0  0  0  0  0  0  0  0  0  0  0  0
   22.4387   -4.0826  -13.4479 O   0  0  0  0  0  0  0  0  0  0  0  0
   20.2346   -3.8552  -13.8206 O   0  0  0  0  0  0  0  0  0  0  0  0
  2  1  1  6
  3  2  1  0
  4  2  1  0
  5  4  1  0
  5  6  1  1
  7  8  2  0
  7  5  1  0
  9  7  1  0
 10  9  1  0
 10 11  1  1
 12 16  1  0
 12 11  1  0
 13 12  2  0
 14 10  1  0
 14 15  2  0
 18 17  1  0
 19 18  2  0
 20 18  1  0
 21 20  1  0
 22 23  1  0
 22 21  1  6
 23 14  1  0
 24 22  1  0
 25 24  1  0
 26 24  2  0
M  END
$$$$
