LDQ.pdb
     RDKit          3D

 26 25  0  0  1  0  0  0  0  0999 V2000
   31.6382  -21.7824  -10.4657 C   0  0  0  0  0  0  0  0  0  0  0  0
   30.1410  -21.8816  -10.5079 C   0  0  1  0  0  0  0  0  0  0  0  0
   29.6397  -22.1472   -9.1084 C   0  0  0  0  0  0  0  0  0  0  0  0
   29.4701  -20.6424  -11.0241 C   0  0  0  0  0  0  0  0  0  0  0  0
   27.9789  -20.8512  -11.1099 C   0  0  2  0  0  0  0  0  0  0  0  0
   27.7458  -22.2588  -11.3336 N   0  0  0  0  0  0  0  0  0  0  0  0
   27.4393  -19.9883  -12.1623 C   0  0  0  0  0  0  0  0  0  0  0  0
   27.4180  -18.7445  -11.9911 O   0  0  0  0  0  0  0  0  0  0  0  0
   26.9425  -20.5371  -13.3656 N   0  0  0  0  0  0  0  0  0  0  0  0
   26.3920  -19.6225  -14.3388 C   0  0  1  0  0  0  0  0  0  0  0  0
   27.2768  -19.6290  -15.5640 C   0  0  0  0  0  0  0  0  0  0  0  0
   26.7993  -18.7208  -16.6271 C   0  0  0  0  0  0  0  0  0  0  0  0
   25.7830  -18.0373  -16.4468 O   0  0  0  0  0  0  0  0  0  0  0  0
   25.0554  -20.1727  -14.7683 C   0  0  0  0  0  0  0  0  0  0  0  0
   24.8974  -21.3585  -15.1457 O   0  0  0  0  0  0  0  0  0  0  0  0
   27.4667  -18.6102  -17.8378 O   0  0  0  0  0  0  0  0  0  0  0  0
   21.5780  -20.8985  -10.5162 N   0  0  0  0  0  0  0  0  0  0  0  0
   20.6296  -21.1561  -11.5292 C   0  0  0  0  0  0  0  0  0  0  0  0
   19.5387  -21.6791  -11.2411 O   0  0  0  0  0  0  0  0  0  0  0  0
   20.9372  -20.8055  -12.9252 C   0  0  0  0  0  0  0  0  0  0  0  0
   22.2628  -20.1641  -13.1534 C   0  0  0  0  0  0  0  0  0  0  0  0
   22.5471  -19.9192  -14.5854 C   0  0  2  0  0  0  0  0  0  0  0  0
   23.8956  -19.3555  -14.7630 N   0  0  0  0  0  0  0  0  0  0  0  0
   21.5406  -19.0122  -15.1746 C   0  0  0  0  0  0  0  0  0  0  0  0
   20.3584  -19.4940  -15.7708 O   0  0  0  0  0  0  0  0  0  0  0  0
   21.6789  -17.7760  -15.1765 O   0  0  0  0  0  0  0  0  0  0  0  0
  2  1  1  1
  3  2  1  0
  4  2  1  0
  5  4  1  0
  5  6  1  6
  7  8  2  0
  7  5  1  0
  9  7  1  0
 10  9  1  0
 10 11  1  6
 12 16  1  0
 12 11  1  0
 13 12  2  0
 14 10  1  0
 14 15  2  0
 18 17  1  0
 19 18  2  0
 20 18  1  0
 21 20  1  0
 22 23  1  0
 22 21  1  1
 23 14  1  0
 24 22  1  0
 25 24  1  0
 26 24  2  0
M  END
$$$$
