LDQ.pdb
     RDKit          3D

 26 25  0  0  1  0  0  0  0  0999 V2000
   22.1117  -31.9342   -9.4356 C   0  0  0  0  0  0  0  0  0  0  0  0
   23.6058  -32.0688   -9.4903 C   0  0  1  0  0  0  0  0  0  0  0  0
   24.2133  -30.6883   -9.4149 C   0  0  0  0  0  0  0  0  0  0  0  0
   24.1764  -32.8988   -8.3777 C   0  0  0  0  0  0  0  0  0  0  0  0
   25.6781  -32.9730   -8.4967 C   0  0  2  0  0  0  0  0  0  0  0  0
   25.9890  -33.4569   -9.8214 N   0  0  0  0  0  0  0  0  0  0  0  0
   26.1974  -33.8198   -7.4213 C   0  0  0  0  0  0  0  0  0  0  0  0
   26.3173  -35.0553   -7.6110 O   0  0  0  0  0  0  0  0  0  0  0  0
   26.5641  -33.2649   -6.1749 N   0  0  0  0  0  0  0  0  0  0  0  0
   27.1236  -34.1569   -5.1861 C   0  0  1  0  0  0  0  0  0  0  0  0
   28.2527  -33.4460   -4.4764 C   0  0  0  0  0  0  0  0  0  0  0  0
   28.9195  -34.2882   -3.4618 C   0  0  0  0  0  0  0  0  0  0  0  0
   28.5422  -35.4530   -3.2795 O   0  0  0  0  0  0  0  0  0  0  0  0
   26.0554  -34.4106   -4.1525 C   0  0  0  0  0  0  0  0  0  0  0  0
   25.4069  -33.4877   -3.6038 O   0  0  0  0  0  0  0  0  0  0  0  0
   29.9710  -33.8044   -2.6977 O   0  0  0  0  0  0  0  0  0  0  0  0
   23.9421  -40.1695   -2.0147 N   0  0  0  0  0  0  0  0  0  0  0  0
   23.1007  -39.2023   -1.4242 C   0  0  0  0  0  0  0  0  0  0  0  0
   22.1728  -39.5586   -0.6769 O   0  0  0  0  0  0  0  0  0  0  0  0
   23.3247  -37.7735   -1.6974 C   0  0  0  0  0  0  0  0  0  0  0  0
   24.4976  -37.4566   -2.5604 C   0  0  0  0  0  0  0  0  0  0  0  0
   24.7393  -36.0024   -2.6954 C   0  0  2  0  0  0  0  0  0  0  0  0
   25.7314  -35.7317   -3.7490 N   0  0  0  0  0  0  0  0  0  0  0  0
   25.1942  -35.4231   -1.4146 C   0  0  0  0  0  0  0  0  0  0  0  0
   26.5330  -35.5169   -0.9856 O   0  0  0  0  0  0  0  0  0  0  0  0
   24.4238  -34.8209   -0.6457 O   0  0  0  0  0  0  0  0  0  0  0  0
  2  1  1  1
  3  2  1  0
  4  2  1  0
  5  4  1  0
  5  6  1  6
  7  8  2  0
  7  5  1  0
  9  7  1  0
 10  9  1  0
 10 11  1  1
 12 16  1  0
 12 11  1  0
 13 12  2  0
 14 10  1  0
 14 15  2  0
 18 17  1  0
 19 18  2  0
 20 18  1  0
 21 20  1  0
 22 23  1  0
 22 21  1  1
 23 14  1  0
 24 22  1  0
 25 24  1  0
 26 24  2  0
M  END
$$$$
