LDQ.pdb
     RDKit          3D

 26 25  0  0  1  0  0  0  0  0999 V2000
   28.6866  -21.1263   -4.7435 C   0  0  0  0  0  0  0  0  0  0  0  0
   27.6012  -20.5264   -5.5893 C   0  0  1  0  0  0  0  0  0  0  0  0
   27.5131  -19.0512   -5.2788 C   0  0  0  0  0  0  0  0  0  0  0  0
   27.8292  -20.6873   -7.0639 C   0  0  0  0  0  0  0  0  0  0  0  0
   26.6838  -20.0864   -7.8396 C   0  0  2  0  0  0  0  0  0  0  0  0
   25.4582  -20.6286   -7.3014 N   0  0  0  0  0  0  0  0  0  0  0  0
   26.8780  -20.3649   -9.2636 C   0  0  0  0  0  0  0  0  0  0  0  0
   28.0329  -20.3054   -9.7529 O   0  0  0  0  0  0  0  0  0  0  0  0
   25.7838  -20.6987  -10.0925 N   0  0  0  0  0  0  0  0  0  0  0  0
   26.0230  -20.7744  -11.5151 C   0  0  1  0  0  0  0  0  0  0  0  0
   25.7185  -22.1787  -11.9833 C   0  0  0  0  0  0  0  0  0  0  0  0
   25.8952  -22.3539  -13.4397 C   0  0  0  0  0  0  0  0  0  0  0  0
   24.9544  -22.7628  -14.1326 O   0  0  0  0  0  0  0  0  0  0  0  0
   25.0236  -19.8682  -12.1887 C   0  0  0  0  0  0  0  0  0  0  0  0
   23.8117  -19.8336  -11.8669 O   0  0  0  0  0  0  0  0  0  0  0  0
   27.1018  -22.0686  -14.0615 O   0  0  0  0  0  0  0  0  0  0  0  0
   26.6566  -14.9861  -15.9119 N   0  0  0  0  0  0  0  0  0  0  0  0
   26.9082  -16.3346  -16.2443 C   0  0  0  0  0  0  0  0  0  0  0  0
   27.7916  -16.6162  -17.0729 O   0  0  0  0  0  0  0  0  0  0  0  0
   26.1210  -17.4035  -15.6087 C   0  0  0  0  0  0  0  0  0  0  0  0
   25.1739  -16.9638  -14.5455 C   0  0  0  0  0  0  0  0  0  0  0  0
   24.4668  -18.0922  -13.8990 C   0  0  2  0  0  0  0  0  0  0  0  0
   25.4203  -18.9976  -13.2364 N   0  0  0  0  0  0  0  0  0  0  0  0
   23.6613  -18.8428  -14.8843 C   0  0  0  0  0  0  0  0  0  0  0  0
   22.3479  -18.4608  -15.2221 O   0  0  0  0  0  0  0  0  0  0  0  0
   24.0962  -19.8502  -15.4703 O   0  0  0  0  0  0  0  0  0  0  0  0
  2  1  1  1
  3  2  1  0
  4  2  1  0
  5  4  1  0
  5  6  1  1
  7  8  2  0
  7  5  1  0
  9  7  1  0
 10  9  1  0
 10 11  1  6
 12 16  1  0
 12 11  1  0
 13 12  2  0
 14 10  1  0
 14 15  2  0
 18 17  1  0
 19 18  2  0
 20 18  1  0
 21 20  1  0
 22 23  1  0
 22 21  1  6
 23 14  1  0
 24 22  1  0
 25 24  1  0
 26 24  2  0
M  END
$$$$
