LDQ.pdb
     RDKit          3D

 26 25  0  0  1  0  0  0  0  0999 V2000
   19.4649  -16.9460  -20.6347 C   0  0  0  0  0  0  0  0  0  0  0  0
   20.0485  -15.9457  -19.6795 C   0  0  1  0  0  0  0  0  0  0  0  0
   21.3963  -15.5126  -20.2050 C   0  0  0  0  0  0  0  0  0  0  0  0
   19.1975  -14.7236  -19.4937 C   0  0  0  0  0  0  0  0  0  0  0  0
   19.8414  -13.7821  -18.5070 C   0  0  2  0  0  0  0  0  0  0  0  0
   20.2579  -14.5620  -17.3651 N   0  0  0  0  0  0  0  0  0  0  0  0
   18.8924  -12.7163  -18.1803 C   0  0  0  0  0  0  0  0  0  0  0  0
   18.3883  -12.0329  -19.1053 O   0  0  0  0  0  0  0  0  0  0  0  0
   18.5380  -12.4475  -16.8394 N   0  0  0  0  0  0  0  0  0  0  0  0
   17.5593  -11.4118  -16.6026 C   0  0  1  0  0  0  0  0  0  0  0  0
   16.8394  -11.7127  -15.3083 C   0  0  0  0  0  0  0  0  0  0  0  0
   15.8330  -12.7862  -15.4423 C   0  0  0  0  0  0  0  0  0  0  0  0
   15.2298  -12.9390  -16.5125 O   0  0  0  0  0  0  0  0  0  0  0  0
   18.3110  -10.1222  -16.3892 C   0  0  0  0  0  0  0  0  0  0  0  0
   19.4131  -10.0679  -15.7927 O   0  0  0  0  0  0  0  0  0  0  0  0
   15.5413  -13.6399  -14.3889 O   0  0  0  0  0  0  0  0  0  0  0  0
   17.6881   -4.6473  -19.6636 N   0  0  0  0  0  0  0  0  0  0  0  0
   18.5275   -4.3170  -18.5781 C   0  0  0  0  0  0  0  0  0  0  0  0
   18.9951   -3.1688  -18.4807 O   0  0  0  0  0  0  0  0  0  0  0  0
   18.8476   -5.3354  -17.5649 C   0  0  0  0  0  0  0  0  0  0  0  0
   18.1772   -6.6547  -17.7404 C   0  0  0  0  0  0  0  0  0  0  0  0
   18.5053   -7.6170  -16.6644 C   0  0  2  0  0  0  0  0  0  0  0  0
   17.7929   -8.8899  -16.8646 N   0  0  0  0  0  0  0  0  0  0  0  0
   18.1730   -7.0573  -15.3380 C   0  0  0  0  0  0  0  0  0  0  0  0
   19.0903   -6.2794  -14.6042 O   0  0  0  0  0  0  0  0  0  0  0  0
   17.0681   -7.2397  -14.7966 O   0  0  0  0  0  0  0  0  0  0  0  0
  2  1  1  6
  3  2  1  0
  4  2  1  0
  5  4  1  0
  5  6  1  1
  7  8  2  0
  7  5  1  0
  9  7  1  0
 10  9  1  0
 10 11  1  1
 12 16  1  0
 12 11  1  0
 13 12  2  0
 14 10  1  0
 14 15  2  0
 18 17  1  0
 19 18  2  0
 20 18  1  0
 21 20  1  0
 22 23  1  0
 22 21  1  6
 23 14  1  0
 24 22  1  0
 25 24  1  0
 26 24  2  0
M  END
$$$$
