LDQ.pdb
     RDKit          3D

 26 25  0  0  1  0  0  0  0  0999 V2000
   26.3857  -16.9775  -18.6767 C   0  0  0  0  0  0  0  0  0  0  0  0
   25.7790  -17.9820  -17.7407 C   0  0  1  0  0  0  0  0  0  0  0  0
   26.4498  -17.8474  -16.3945 C   0  0  0  0  0  0  0  0  0  0  0  0
   24.2999  -17.8120  -17.5519 C   0  0  0  0  0  0  0  0  0  0  0  0
   23.7761  -18.8325  -16.5727 C   0  0  2  0  0  0  0  0  0  0  0  0
   24.0500  -20.1421  -17.1165 N   0  0  0  0  0  0  0  0  0  0  0  0
   22.3542  -18.5764  -16.3364 C   0  0  0  0  0  0  0  0  0  0  0  0
   21.5216  -18.8329  -17.2407 O   0  0  0  0  0  0  0  0  0  0  0  0
   21.9084  -18.0446  -15.1058 N   0  0  0  0  0  0  0  0  0  0  0  0
   20.4879  -17.8389  -14.9433 C   0  0  1  0  0  0  0  0  0  0  0  0
   20.1423  -17.9818  -13.4790 C   0  0  0  0  0  0  0  0  0  0  0  0
   19.9160  -19.3842  -13.0724 C   0  0  0  0  0  0  0  0  0  0  0  0
   19.6212  -20.2350  -13.9219 O   0  0  0  0  0  0  0  0  0  0  0  0
   20.1941  -16.4084  -15.3189 C   0  0  0  0  0  0  0  0  0  0  0  0
   20.8582  -15.4395  -14.8790 O   0  0  0  0  0  0  0  0  0  0  0  0
   20.0266  -19.7801  -11.7478 O   0  0  0  0  0  0  0  0  0  0  0  0
   17.3673  -12.0757  -20.6116 N   0  0  0  0  0  0  0  0  0  0  0  0
   17.5346  -13.3204  -19.9678 C   0  0  0  0  0  0  0  0  0  0  0  0
   17.1705  -14.3666  -20.5329 O   0  0  0  0  0  0  0  0  0  0  0  0
   18.1390  -13.3747  -18.6269 C   0  0  0  0  0  0  0  0  0  0  0  0
   18.3145  -14.7382  -18.0518 C   0  0  0  0  0  0  0  0  0  0  0  0
   18.9125  -14.7215  -16.6977 C   0  0  2  0  0  0  0  0  0  0  0  0
   19.1322  -16.0914  -16.2049 N   0  0  0  0  0  0  0  0  0  0  0  0
   18.0546  -13.9777  -15.7523 C   0  0  0  0  0  0  0  0  0  0  0  0
   18.0627  -12.5705  -15.6842 O   0  0  0  0  0  0  0  0  0  0  0  0
   17.2785  -14.5500  -14.9664 O   0  0  0  0  0  0  0  0  0  0  0  0
  2  1  1  6
  3  2  1  0
  4  2  1  0
  5  4  1  0
  5  6  1  6
  7  8  2  0
  7  5  1  0
  9  7  1  0
 10  9  1  0
 10 11  1  1
 12 16  1  0
 12 11  1  0
 13 12  2  0
 14 10  1  0
 14 15  2  0
 18 17  1  0
 19 18  2  0
 20 18  1  0
 21 20  1  0
 22 23  1  0
 22 21  1  6
 23 14  1  0
 24 22  1  0
 25 24  1  0
 26 24  2  0
M  END
$$$$
