LDQ.pdb
     RDKit          3D

 26 25  0  0  1  0  0  0  0  0999 V2000
   30.2854  -21.0535  -11.0984 C   0  0  0  0  0  0  0  0  0  0  0  0
   28.8708  -21.5478  -11.0092 C   0  0  1  0  0  0  0  0  0  0  0  0
   28.5284  -21.7576   -9.5534 C   0  0  0  0  0  0  0  0  0  0  0  0
   27.8651  -20.6041  -11.6010 C   0  0  0  0  0  0  0  0  0  0  0  0
   26.4673  -21.1326  -11.3966 C   0  0  2  0  0  0  0  0  0  0  0  0
   26.4601  -22.5194  -11.8000 N   0  0  0  0  0  0  0  0  0  0  0  0
   25.5295  -20.2945  -12.1458 C   0  0  0  0  0  0  0  0  0  0  0  0
   25.3566  -19.0998  -11.8001 O   0  0  0  0  0  0  0  0  0  0  0  0
   24.8177  -20.8127  -13.2506 N   0  0  0  0  0  0  0  0  0  0  0  0
   23.9602  -19.9051  -13.9770 C   0  0  1  0  0  0  0  0  0  0  0  0
   24.4457  -19.8192  -15.4056 C   0  0  0  0  0  0  0  0  0  0  0  0
   23.6612  -18.8745  -16.2273 C   0  0  0  0  0  0  0  0  0  0  0  0
   22.8095  -18.1508  -15.6950 O   0  0  0  0  0  0  0  0  0  0  0  0
   22.5861  -20.5244  -14.0243 C   0  0  0  0  0  0  0  0  0  0  0  0
   22.3985  -21.7499  -14.2153 O   0  0  0  0  0  0  0  0  0  0  0  0
   23.8548  -18.7736  -17.5969 O   0  0  0  0  0  0  0  0  0  0  0  0
   18.3932  -21.0350  -11.0097 N   0  0  0  0  0  0  0  0  0  0  0  0
   17.4156  -20.8413  -12.0090 C   0  0  0  0  0  0  0  0  0  0  0  0
   16.3011  -21.3824  -11.9016 O   0  0  0  0  0  0  0  0  0  0  0  0
   17.7206  -19.9993  -13.1770 C   0  0  0  0  0  0  0  0  0  0  0  0
   19.0953  -19.4255  -13.2187 C   0  0  0  0  0  0  0  0  0  0  0  0
   20.0708  -20.3114  -13.8931 C   0  0  2  0  0  0  0  0  0  0  0  0
   21.4231  -19.7306  -13.8504 N   0  0  0  0  0  0  0  0  0  0  0  0
   19.6743  -20.5615  -15.2942 C   0  0  0  0  0  0  0  0  0  0  0  0
   19.9947  -19.6650  -16.3329 O   0  0  0  0  0  0  0  0  0  0  0  0
   19.0382  -21.5747  -15.6351 O   0  0  0  0  0  0  0  0  0  0  0  0
  2  1  1  1
  3  2  1  0
  4  2  1  0
  5  4  1  0
  5  6  1  6
  7  8  2  0
  7  5  1  0
  9  7  1  0
 10  9  1  0
 10 11  1  6
 12 16  1  0
 12 11  1  0
 13 12  2  0
 14 10  1  0
 14 15  2  0
 18 17  1  0
 19 18  2  0
 20 18  1  0
 21 20  1  0
 22 23  1  0
 22 21  1  6
 23 14  1  0
 24 22  1  0
 25 24  1  0
 26 24  2  0
M  END
$$$$
