LDQ.pdb
     RDKit          3D

 26 25  0  0  1  0  0  0  0  0999 V2000
   45.3689  -21.0863  -10.3140 C   0  0  0  0  0  0  0  0  0  0  0  0
   44.5212  -19.8475  -10.3080 C   0  0  1  0  0  0  0  0  0  0  0  0
   43.1013  -20.2380  -10.6426 C   0  0  0  0  0  0  0  0  0  0  0  0
   44.5167  -19.1277   -8.9911 C   0  0  0  0  0  0  0  0  0  0  0  0
   43.8821  -17.7676   -9.1398 C   0  0  2  0  0  0  0  0  0  0  0  0
   43.9072  -17.4235  -10.5422 N   0  0  0  0  0  0  0  0  0  0  0  0
   44.5946  -16.8162   -8.2852 C   0  0  0  0  0  0  0  0  0  0  0  0
   44.6536  -17.0213   -7.0477 O   0  0  0  0  0  0  0  0  0  0  0  0
   45.2149  -15.6720   -8.8346 N   0  0  0  0  0  0  0  0  0  0  0  0
   45.8704  -14.7649   -7.9213 C   0  0  1  0  0  0  0  0  0  0  0  0
   47.3325  -14.6759   -8.2933 C   0  0  0  0  0  0  0  0  0  0  0  0
   48.1048  -13.7920   -7.3959 C   0  0  0  0  0  0  0  0  0  0  0  0
   48.9111  -12.9809   -7.8697 O   0  0  0  0  0  0  0  0  0  0  0  0
   45.2828  -13.3949   -8.1480 C   0  0  0  0  0  0  0  0  0  0  0  0
   45.2108  -12.8648   -9.2825 O   0  0  0  0  0  0  0  0  0  0  0  0
   47.9496  -13.8454   -6.0187 O   0  0  0  0  0  0  0  0  0  0  0  0
   42.9788   -9.3574   -3.6157 N   0  0  0  0  0  0  0  0  0  0  0  0
   42.8487   -8.6661   -4.8394 C   0  0  0  0  0  0  0  0  0  0  0  0
   42.3634   -7.5213   -4.8582 O   0  0  0  0  0  0  0  0  0  0  0  0
   43.2873   -9.3052   -6.0905 C   0  0  0  0  0  0  0  0  0  0  0  0
   43.8514  -10.6776   -5.9521 C   0  0  0  0  0  0  0  0  0  0  0  0
   44.3161  -11.2436   -7.2385 C   0  0  2  0  0  0  0  0  0  0  0  0
   44.7752  -12.6318   -7.0649 N   0  0  0  0  0  0  0  0  0  0  0  0
   45.4014  -10.4226   -7.8138 C   0  0  0  0  0  0  0  0  0  0  0  0
   45.1634   -9.4736   -8.8276 O   0  0  0  0  0  0  0  0  0  0  0  0
   46.5825  -10.5216   -7.4360 O   0  0  0  0  0  0  0  0  0  0  0  0
  2  1  1  1
  3  2  1  0
  4  2  1  0
  5  4  1  0
  5  6  1  6
  7  8  2  0
  7  5  1  0
  9  7  1  0
 10  9  1  0
 10 11  1  6
 12 16  1  0
 12 11  1  0
 13 12  2  0
 14 10  1  0
 14 15  2  0
 18 17  1  0
 19 18  2  0
 20 18  1  0
 21 20  1  0
 22 23  1  0
 22 21  1  1
 23 14  1  0
 24 22  1  0
 25 24  1  0
 26 24  2  0
M  END
$$$$
