LDQ.pdb
     RDKit          3D

 26 25  0  0  1  0  0  0  0  0999 V2000
   28.0351  -18.6012  -14.9692 C   0  0  0  0  0  0  0  0  0  0  0  0
   27.1369  -19.8036  -14.9979 C   0  0  1  0  0  0  0  0  0  0  0  0
   27.8845  -20.9733  -14.4035 C   0  0  0  0  0  0  0  0  0  0  0  0
   25.8597  -19.6190  -14.2319 C   0  0  0  0  0  0  0  0  0  0  0  0
   25.0135  -20.8647  -14.3165 C   0  0  2  0  0  0  0  0  0  0  0  0
   25.0750  -21.3443  -15.6774 N   0  0  0  0  0  0  0  0  0  0  0  0
   23.6582  -20.5487  -13.8621 C   0  0  0  0  0  0  0  0  0  0  0  0
   23.4810  -20.1290  -12.6919 O   0  0  0  0  0  0  0  0  0  0  0  0
   22.5492  -20.7106  -14.7223 N   0  0  0  0  0  0  0  0  0  0  0  0
   21.2505  -20.3328  -14.2150 C   0  0  1  0  0  0  0  0  0  0  0  0
   20.4310  -19.7704  -15.3533 C   0  0  0  0  0  0  0  0  0  0  0  0
   20.7576  -18.3625  -15.6607 C   0  0  0  0  0  0  0  0  0  0  0  0
   20.9971  -18.0231  -16.8268 O   0  0  0  0  0  0  0  0  0  0  0  0
   20.5578  -21.5948  -13.7663 C   0  0  0  0  0  0  0  0  0  0  0  0
   20.6632  -22.6837  -14.3800 O   0  0  0  0  0  0  0  0  0  0  0  0
   20.8035  -17.3968  -14.6662 O   0  0  0  0  0  0  0  0  0  0  0  0
   19.6431  -23.6093   -7.9401 N   0  0  0  0  0  0  0  0  0  0  0  0
   18.9460  -24.5506   -8.7273 C   0  0  0  0  0  0  0  0  0  0  0  0
   18.5377  -25.6081   -8.2159 O   0  0  0  0  0  0  0  0  0  0  0  0
   18.7061  -24.2768  -10.1534 C   0  0  0  0  0  0  0  0  0  0  0  0
   19.2759  -23.0009  -10.6713 C   0  0  0  0  0  0  0  0  0  0  0  0
   19.0812  -22.8309  -12.1289 C   0  0  2  0  0  0  0  0  0  0  0  0
   19.7411  -21.6043  -12.6062 N   0  0  0  0  0  0  0  0  0  0  0  0
   17.6435  -22.7936  -12.4674 C   0  0  0  0  0  0  0  0  0  0  0  0
   16.9297  -23.9544  -12.8253 O   0  0  0  0  0  0  0  0  0  0  0  0
   16.9840  -21.7390  -12.4544 O   0  0  0  0  0  0  0  0  0  0  0  0
  2  1  1  1
  3  2  1  0
  4  2  1  0
  5  4  1  0
  5  6  1  6
  7  8  2  0
  7  5  1  0
  9  7  1  0
 10  9  1  0
 10 11  1  6
 12 16  1  0
 12 11  1  0
 13 12  2  0
 14 10  1  0
 14 15  2  0
 18 17  1  0
 19 18  2  0
 20 18  1  0
 21 20  1  0
 22 23  1  0
 22 21  1  1
 23 14  1  0
 24 22  1  0
 25 24  1  0
 26 24  2  0
M  END
$$$$
