LDQ.pdb
     RDKit          3D

 26 25  0  0  1  0  0  0  0  0999 V2000
   18.3944  -14.8435  -15.8661 C   0  0  0  0  0  0  0  0  0  0  0  0
   18.4025  -13.6409  -16.7645 C   0  0  1  0  0  0  0  0  0  0  0  0
   17.1434  -13.6582  -17.5979 C   0  0  0  0  0  0  0  0  0  0  0  0
   18.4625  -12.3370  -16.0239 C   0  0  0  0  0  0  0  0  0  0  0  0
   18.4249  -11.1820  -16.9931 C   0  0  2  0  0  0  0  0  0  0  0  0
   19.5842  -11.2894  -17.8476 N   0  0  0  0  0  0  0  0  0  0  0  0
   18.3626   -9.9303  -16.2364 C   0  0  0  0  0  0  0  0  0  0  0  0
   17.4461   -9.7622  -15.3946 O   0  0  0  0  0  0  0  0  0  0  0  0
   19.3188   -8.9109  -16.4419 N   0  0  0  0  0  0  0  0  0  0  0  0
   19.1601   -7.6862  -15.6924 C   0  0  1  0  0  0  0  0  0  0  0  0
   20.4657   -7.3697  -15.0000 C   0  0  0  0  0  0  0  0  0  0  0  0
   20.6311   -8.0899  -13.7205 C   0  0  0  0  0  0  0  0  0  0  0  0
   19.7096   -8.7896  -13.2805 O   0  0  0  0  0  0  0  0  0  0  0  0
   18.9184   -6.5781  -16.6861 C   0  0  0  0  0  0  0  0  0  0  0  0
   19.5849   -6.4535  -17.7415 O   0  0  0  0  0  0  0  0  0  0  0  0
   21.8061   -8.0036  -12.9885 O   0  0  0  0  0  0  0  0  0  0  0  0
   12.7627   -5.6814  -17.1993 N   0  0  0  0  0  0  0  0  0  0  0  0
   13.8828   -4.9024  -16.8378 C   0  0  0  0  0  0  0  0  0  0  0  0
   13.7789   -4.0390  -15.9488 O   0  0  0  0  0  0  0  0  0  0  0  0
   15.1711   -5.1147  -17.5171 C   0  0  0  0  0  0  0  0  0  0  0  0
   16.2076   -4.0710  -17.2780 C   0  0  0  0  0  0  0  0  0  0  0  0
   17.5874   -4.5743  -17.4624 C   0  0  2  0  0  0  0  0  0  0  0  0
   17.9053   -5.6098  -16.4651 N   0  0  0  0  0  0  0  0  0  0  0  0
   18.5666   -3.4715  -17.3728 C   0  0  0  0  0  0  0  0  0  0  0  0
   18.8257   -2.6122  -18.4589 O   0  0  0  0  0  0  0  0  0  0  0  0
   19.2146   -3.2395  -16.3367 O   0  0  0  0  0  0  0  0  0  0  0  0
  2  1  1  1
  3  2  1  0
  4  2  1  0
  5  4  1  0
  5  6  1  1
  7  8  2  0
  7  5  1  0
  9  7  1  0
 10  9  1  0
 10 11  1  6
 12 16  1  0
 12 11  1  0
 13 12  2  0
 14 10  1  0
 14 15  2  0
 18 17  1  0
 19 18  2  0
 20 18  1  0
 21 20  1  0
 22 23  1  0
 22 21  1  1
 23 14  1  0
 24 22  1  0
 25 24  1  0
 26 24  2  0
M  END
$$$$
