LDQ.pdb
     RDKit          3D

 26 25  0  0  1  0  0  0  0  0999 V2000
   31.1851  -21.4399  -11.7915 C   0  0  0  0  0  0  0  0  0  0  0  0
   30.1654  -20.6189  -12.5260 C   0  0  1  0  0  0  0  0  0  0  0  0
   30.7859  -20.1227  -13.8102 C   0  0  0  0  0  0  0  0  0  0  0  0
   28.9148  -21.3759  -12.8657 C   0  0  0  0  0  0  0  0  0  0  0  0
   27.8938  -20.4515  -13.4803 C   0  0  2  0  0  0  0  0  0  0  0  0
   28.1916  -19.1108  -13.0335 N   0  0  0  0  0  0  0  0  0  0  0  0
   26.5542  -20.9131  -13.1119 C   0  0  0  0  0  0  0  0  0  0  0  0
   26.1258  -21.9988  -13.5750 O   0  0  0  0  0  0  0  0  0  0  0  0
   25.7390  -20.1530  -12.2439 N   0  0  0  0  0  0  0  0  0  0  0  0
   24.4277  -20.6736  -11.9335 C   0  0  1  0  0  0  0  0  0  0  0  0
   24.0980  -20.3313  -10.4989 C   0  0  0  0  0  0  0  0  0  0  0  0
   24.9340  -21.0611   -9.5234 C   0  0  0  0  0  0  0  0  0  0  0  0
   25.2123  -22.2519   -9.7154 O   0  0  0  0  0  0  0  0  0  0  0  0
   23.4343  -19.9338  -12.7935 C   0  0  0  0  0  0  0  0  0  0  0  0
   23.6616  -18.7958  -13.2698 O   0  0  0  0  0  0  0  0  0  0  0  0
   25.4233  -20.4411   -8.3833 O   0  0  0  0  0  0  0  0  0  0  0  0
   23.7339  -20.5561  -17.9272 N   0  0  0  0  0  0  0  0  0  0  0  0
   23.4808  -19.2633  -17.4206 C   0  0  0  0  0  0  0  0  0  0  0  0
   23.9323  -18.2654  -18.0094 O   0  0  0  0  0  0  0  0  0  0  0  0
   22.6834  -19.1017  -16.1940 C   0  0  0  0  0  0  0  0  0  0  0  0
   22.2508  -20.3654  -15.5332 C   0  0  0  0  0  0  0  0  0  0  0  0
   21.4314  -20.1330  -14.3225 C   0  0  2  0  0  0  0  0  0  0  0  0
   22.1744  -20.5058  -13.1073 N   0  0  0  0  0  0  0  0  0  0  0  0
   20.1647  -20.8905  -14.3905 C   0  0  0  0  0  0  0  0  0  0  0  0
   20.0241  -22.1652  -13.8070 O   0  0  0  0  0  0  0  0  0  0  0  0
   19.1539  -20.4468  -14.9638 O   0  0  0  0  0  0  0  0  0  0  0  0
  2  1  1  6
  3  2  1  0
  4  2  1  0
  5  4  1  0
  5  6  1  1
  7  8  2  0
  7  5  1  0
  9  7  1  0
 10  9  1  0
 10 11  1  1
 12 16  1  0
 12 11  1  0
 13 12  2  0
 14 10  1  0
 14 15  2  0
 18 17  1  0
 19 18  2  0
 20 18  1  0
 21 20  1  0
 22 23  1  0
 22 21  1  6
 23 14  1  0
 24 22  1  0
 25 24  1  0
 26 24  2  0
M  END
$$$$
