RYH.pdb
     RDKit          3D

 34 35  0  0  1  0  0  0  0  0999 V2000
   16.6116  -10.3669  -19.2604 N   0  0  0  0  0  0  0  0  0  0  0  0
   17.5515   -9.9196  -20.2287 C   0  0  0  0  0  0  0  0  0  0  0  0
   17.2048   -9.0478  -21.1265 N   0  0  0  0  0  0  0  0  0  0  0  0
   18.8632  -10.4407  -20.1962 N   0  0  0  0  0  0  0  0  0  0  0  0
   19.7997   -9.8780  -19.2001 C   0  0  0  0  0  0  0  0  0  0  0  0
   21.1517   -9.9633  -19.8118 C   0  0  0  0  0  0  0  0  0  0  0  0
   22.2306   -9.4018  -18.9730 C   0  0  0  0  0  0  0  0  0  0  0  0
   22.5703  -10.1257  -17.7044 C   0  0  2  0  0  0  0  0  0  0  0  0
   22.3234  -11.5297  -17.7699 N   0  0  0  0  0  0  0  0  0  0  0  0
   21.7559   -9.4792  -16.6163 C   0  0  0  0  0  0  0  0  0  0  0  0
   20.7388  -10.0910  -16.2265 O   0  0  0  0  0  0  0  0  0  0  0  0
   17.8522   -8.6751  -21.8465 O   0  0  0  0  0  0  0  0  0  0  0  0
   18.6861   -5.8789   -9.4348 C   0  0  0  0  0  0  0  0  0  0  0  0
   19.4901   -6.3403  -10.4720 C   0  0  0  0  0  0  0  0  0  0  0  0
   20.3328   -5.4726  -11.1537 C   0  0  0  0  0  0  0  0  0  0  0  0
   21.1426   -5.9123  -12.1911 C   0  0  0  0  0  0  0  0  0  0  0  0
   21.1093   -7.2379  -12.5515 C   0  0  0  0  0  0  0  0  0  0  0  0
   21.9559   -7.7193  -13.6376 C   0  0  2  0  0  0  0  0  0  0  0  0
   21.2862   -7.6139  -14.9956 N   0  0  0  0  0  0  0  0  0  0  0  0
   22.0925   -8.2314  -16.0298 C   0  0  0  0  0  0  0  0  0  0  0  0
   21.0330   -6.2075  -15.3525 O   0  0  0  0  0  0  0  0  0  0  0  0
   21.9489   -5.4065  -15.6609 C   0  0  0  0  0  0  0  0  0  0  0  0
   20.2731   -8.0906  -11.8727 C   0  0  0  0  0  0  0  0  0  0  0  0
   19.4593   -7.6700  -10.8368 N   0  0  0  0  0  0  0  0  0  0  0  0
   19.7109   -5.7052  -15.3586 C   0  0  2  0  0  0  0  0  0  0  0  0
   19.4453   -4.3387  -15.8138 C   0  0  0  0  0  0  0  0  0  0  0  0
   18.1075   -4.2271  -16.4513 C   0  0  0  0  0  0  0  0  0  0  0  0
   18.1393   -4.7781  -17.8206 C   0  0  0  0  0  0  0  0  0  0  0  0
   19.0760   -5.6962  -18.3175 N   0  0  0  0  0  0  0  0  0  0  0  0
   18.8148   -5.9889  -19.6015 C   0  0  0  0  0  0  0  0  0  0  0  0
   17.7309   -5.2745  -19.9284 N   0  0  0  0  0  0  0  0  0  0  0  0
   17.3233   -4.5524  -18.8760 C   0  0  0  0  0  0  0  0  0  0  0  0
   19.5383   -3.4272  -14.6548 O   0  0  0  0  0  0  0  0  0  0  0  0
   19.7044   -2.1887  -14.8426 O   0  0  0  0  0  0  0  0  0  0  0  0
  2  4  1  0
  2  1  1  0
  3  2  2  0
  5  4  1  0
  6  5  1  0
  7  8  1  0
  7  6  1  0
  8  9  1  6
 10  8  1  0
 10 19  1  0
 11 10  2  0
 12 13  1  0
 13 14  2  0
 14 15  1  0
 16 15  2  0
 16 17  1  0
 18 17  1  1
 18 19  1  0
 20 18  1  0
 21 20  2  0
 22 16  1  0
 23 13  1  0
 23 22  2  0
 24 20  1  0
 25 26  1  6
 25 24  1  0
 26 27  1  0
 27 28  2  0
 29 28  1  0
 30 29  1  0
 31 30  2  0
 31 27  1  0
 32 25  1  0
 33 32  2  0
 34 32  1  0
M  END
$$$$
