RYH.pdb
     RDKit          3D

 34 35  0  0  1  0  0  0  0  0999 V2000
   30.2097  -23.2348  -18.9966 N   0  0  0  0  0  0  0  0  0  0  0  0
   30.0146  -22.5992  -20.2532 C   0  0  0  0  0  0  0  0  0  0  0  0
   30.5458  -23.0952  -21.3293 N   0  0  0  0  0  0  0  0  0  0  0  0
   29.2367  -21.4224  -20.3077 N   0  0  0  0  0  0  0  0  0  0  0  0
   28.6616  -20.9217  -19.0410 C   0  0  0  0  0  0  0  0  0  0  0  0
   27.1970  -21.1587  -19.1317 C   0  0  0  0  0  0  0  0  0  0  0  0
   26.5250  -21.2944  -17.8229 C   0  0  0  0  0  0  0  0  0  0  0  0
   27.0768  -22.3048  -16.8619 C   0  0  2  0  0  0  0  0  0  0  0  0
   27.0271  -23.6426  -17.3562 N   0  0  0  0  0  0  0  0  0  0  0  0
   26.2798  -22.1625  -15.5931 C   0  0  0  0  0  0  0  0  0  0  0  0
   25.2643  -22.8804  -15.4751 O   0  0  0  0  0  0  0  0  0  0  0  0
   30.4558  -22.6617  -22.2676 O   0  0  0  0  0  0  0  0  0  0  0  0
   24.2871  -20.4972   -7.1588 C   0  0  0  0  0  0  0  0  0  0  0  0
   24.9138  -20.5360   -8.4001 C   0  0  0  0  0  0  0  0  0  0  0  0
   24.7163  -19.5189   -9.3244 C   0  0  0  0  0  0  0  0  0  0  0  0
   25.3318  -19.5384  -10.5679 C   0  0  0  0  0  0  0  0  0  0  0  0
   26.1560  -20.5892  -10.8913 C   0  0  0  0  0  0  0  0  0  0  0  0
   26.8143  -20.6253  -12.1926 C   0  0  1  0  0  0  0  0  0  0  0  0
   25.9507  -21.2546  -13.2706 N   0  0  0  0  0  0  0  0  0  0  0  0
   26.6309  -21.2658  -14.5505 C   0  0  0  0  0  0  0  0  0  0  0  0
   24.6707  -20.5389  -13.4075 O   0  0  0  0  0  0  0  0  0  0  0  0
   24.4879  -19.6224  -14.2454 C   0  0  0  0  0  0  0  0  0  0  0  0
   26.3466  -21.5919   -9.9719 C   0  0  0  0  0  0  0  0  0  0  0  0
   25.7417  -21.5891   -8.7285 N   0  0  0  0  0  0  0  0  0  0  0  0
   23.5786  -20.8749  -12.5740 C   0  0  1  0  0  0  0  0  0  0  0  0
   22.2499  -20.3208  -12.8434 C   0  0  0  0  0  0  0  0  0  0  0  0
   22.3205  -18.8750  -13.1801 C   0  0  0  0  0  0  0  0  0  0  0  0
   20.9716  -18.3414  -13.4550 C   0  0  0  0  0  0  0  0  0  0  0  0
   19.7611  -19.0230  -13.2623 N   0  0  0  0  0  0  0  0  0  0  0  0
   18.7220  -18.2474  -13.6104 C   0  0  0  0  0  0  0  0  0  0  0  0
   19.2500  -17.0874  -14.0199 N   0  0  0  0  0  0  0  0  0  0  0  0
   20.5860  -17.1349  -13.9308 C   0  0  0  0  0  0  0  0  0  0  0  0
   21.6384  -21.0768  -13.9558 O   0  0  0  0  0  0  0  0  0  0  0  0
   22.1728  -21.0504  -15.1005 O   0  0  0  0  0  0  0  0  0  0  0  0
  2  4  1  0
  2  1  1  0
  3  2  2  0
  5  4  1  0
  6  5  1  0
  7  8  1  0
  7  6  1  0
  8  9  1  6
 10  8  1  0
 10 19  1  0
 11 10  2  0
 12 13  1  0
 13 14  2  0
 14 15  1  0
 16 15  2  0
 16 17  1  0
 18 17  1  1
 18 19  1  0
 20 18  1  0
 21 20  2  0
 22 16  1  0
 23 13  1  0
 23 22  2  0
 24 20  1  0
 25 26  1  1
 25 24  1  0
 26 27  1  0
 27 28  2  0
 29 28  1  0
 30 29  1  0
 31 30  2  0
 31 27  1  0
 32 25  1  0
 33 32  2  0
 34 32  1  0
M  END
$$$$
