RYH.pdb
     RDKit          3D

 34 35  0  0  1  0  0  0  0  0999 V2000
   31.5099  -31.6435  -16.3235 N   0  0  0  0  0  0  0  0  0  0  0  0
   30.3171  -32.2044  -16.8561 C   0  0  0  0  0  0  0  0  0  0  0  0
   30.1106  -33.4852  -16.7974 N   0  0  0  0  0  0  0  0  0  0  0  0
   29.3662  -31.3458  -17.4489 N   0  0  0  0  0  0  0  0  0  0  0  0
   29.6724  -29.8996  -17.4775 C   0  0  0  0  0  0  0  0  0  0  0  0
   29.9867  -29.5731  -18.8932 C   0  0  0  0  0  0  0  0  0  0  0  0
   28.8539  -28.9956  -19.6456 C   0  0  0  0  0  0  0  0  0  0  0  0
   28.5082  -27.5600  -19.3843 C   0  0  2  0  0  0  0  0  0  0  0  0
   29.3689  -26.9342  -18.4335 N   0  0  0  0  0  0  0  0  0  0  0  0
   27.0778  -27.5467  -18.9164 C   0  0  0  0  0  0  0  0  0  0  0  0
   26.8575  -27.0990  -17.7711 O   0  0  0  0  0  0  0  0  0  0  0  0
   29.2833  -33.9540  -17.2121 O   0  0  0  0  0  0  0  0  0  0  0  0
   24.6989  -21.6136  -20.6812 C   0  0  0  0  0  0  0  0  0  0  0  0
   24.4838  -22.9864  -20.6179 C   0  0  0  0  0  0  0  0  0  0  0  0
   23.5172  -23.5127  -19.7716 C   0  0  0  0  0  0  0  0  0  0  0  0
   23.2867  -24.8788  -19.6932 C   0  0  0  0  0  0  0  0  0  0  0  0
   24.0332  -25.7301  -20.4720 C   0  0  0  0  0  0  0  0  0  0  0  0
   23.8030  -27.1691  -20.4056 C   0  0  2  0  0  0  0  0  0  0  0  0
   24.6117  -27.8436  -19.3125 N   0  0  0  0  0  0  0  0  0  0  0  0
   25.9958  -28.0114  -19.7087 C   0  0  0  0  0  0  0  0  0  0  0  0
   24.0426  -29.1578  -18.9682 O   0  0  0  0  0  0  0  0  0  0  0  0
   24.7416  -30.1934  -18.8482 C   0  0  0  0  0  0  0  0  0  0  0  0
   24.9879  -25.2023  -21.3069 C   0  0  0  0  0  0  0  0  0  0  0  0
   25.2311  -23.8440  -21.3978 N   0  0  0  0  0  0  0  0  0  0  0  0
   22.6510  -29.2935  -18.7562 C   0  0  1  0  0  0  0  0  0  0  0  0
   22.0847  -30.5966  -18.4004 C   0  0  0  0  0  0  0  0  0  0  0  0
   22.6134  -31.0836  -17.0997 C   0  0  0  0  0  0  0  0  0  0  0  0
   22.0389  -32.4028  -16.7691 C   0  0  0  0  0  0  0  0  0  0  0  0
   20.8041  -32.8982  -17.2130 N   0  0  0  0  0  0  0  0  0  0  0  0
   20.5878  -34.1310  -16.7272 C   0  0  0  0  0  0  0  0  0  0  0  0
   21.6612  -34.4270  -15.9841 N   0  0  0  0  0  0  0  0  0  0  0  0
   22.5281  -33.4056  -16.0036 C   0  0  0  0  0  0  0  0  0  0  0  0
   20.6136  -30.4734  -18.3419 O   0  0  0  0  0  0  0  0  0  0  0  0
   19.9097  -31.4865  -18.0685 O   0  0  0  0  0  0  0  0  0  0  0  0
  2  4  1  0
  2  1  1  0
  3  2  2  0
  5  4  1  0
  6  5  1  0
  7  8  1  0
  7  6  1  0
  8  9  1  1
 10  8  1  0
 10 19  1  0
 11 10  2  0
 12 13  1  0
 13 14  2  0
 14 15  1  0
 16 15  2  0
 16 17  1  0
 18 17  1  1
 18 19  1  0
 20 18  1  0
 21 20  2  0
 22 16  1  0
 23 13  1  0
 23 22  2  0
 24 20  1  0
 25 26  1  6
 25 24  1  0
 26 27  1  0
 27 28  2  0
 29 28  1  0
 30 29  1  0
 31 30  2  0
 31 27  1  0
 32 25  1  0
 33 32  2  0
 34 32  1  0
M  END
$$$$
