RYH.pdb
     RDKit          3D

 34 35  0  0  1  0  0  0  0  0999 V2000
   26.7226  -29.5391  -18.1164 N   0  0  0  0  0  0  0  0  0  0  0  0
   28.0119  -29.2330  -17.6015 C   0  0  0  0  0  0  0  0  0  0  0  0
   28.7585  -30.1702  -17.1008 N   0  0  0  0  0  0  0  0  0  0  0  0
   28.4621  -27.8956  -17.6435 N   0  0  0  0  0  0  0  0  0  0  0  0
   27.5290  -26.8745  -18.1654 C   0  0  0  0  0  0  0  0  0  0  0  0
   28.2804  -25.5919  -18.1657 C   0  0  0  0  0  0  0  0  0  0  0  0
   27.6646  -24.5311  -17.3420 C   0  0  0  0  0  0  0  0  0  0  0  0
   28.3648  -23.2064  -17.2813 C   0  0  2  0  0  0  0  0  0  0  0  0
   29.7844  -23.3198  -17.1887 N   0  0  0  0  0  0  0  0  0  0  0  0
   27.7971  -22.4809  -16.0911 C   0  0  0  0  0  0  0  0  0  0  0  0
   28.0494  -22.9538  -14.9626 O   0  0  0  0  0  0  0  0  0  0  0  0
   29.6945  -30.0004  -16.6869 O   0  0  0  0  0  0  0  0  0  0  0  0
   28.4543  -15.8022  -18.7118 C   0  0  0  0  0  0  0  0  0  0  0  0
   28.1955  -16.7182  -17.6975 C   0  0  0  0  0  0  0  0  0  0  0  0
   27.2022  -16.4726  -16.7590 C   0  0  0  0  0  0  0  0  0  0  0  0
   26.9280  -17.3730  -15.7394 C   0  0  0  0  0  0  0  0  0  0  0  0
   27.6572  -18.5349  -15.6574 C   0  0  0  0  0  0  0  0  0  0  0  0
   27.3811  -19.4950  -14.5944 C   0  0  1  0  0  0  0  0  0  0  0  0
   26.4673  -20.6211  -15.0426 N   0  0  0  0  0  0  0  0  0  0  0  0
   27.0061  -21.3076  -16.1999 C   0  0  0  0  0  0  0  0  0  0  0  0
   25.1215  -20.1148  -15.3615 O   0  0  0  0  0  0  0  0  0  0  0  0
   24.7135  -19.9563  -16.5380 C   0  0  0  0  0  0  0  0  0  0  0  0
   28.6384  -18.7711  -16.5893 C   0  0  0  0  0  0  0  0  0  0  0  0
   28.9252  -17.8854  -17.6117 N   0  0  0  0  0  0  0  0  0  0  0  0
   24.2240  -19.7837  -14.3199 C   0  0  1  0  0  0  0  0  0  0  0  0
   22.8768  -19.3030  -14.6348 C   0  0  0  0  0  0  0  0  0  0  0  0
   22.5283  -19.5516  -16.0579 C   0  0  0  0  0  0  0  0  0  0  0  0
   21.2053  -18.9779  -16.3744 C   0  0  0  0  0  0  0  0  0  0  0  0
   20.6923  -17.7692  -15.8817 N   0  0  0  0  0  0  0  0  0  0  0  0
   19.4622  -17.5442  -16.3703 C   0  0  0  0  0  0  0  0  0  0  0  0
   19.1853  -18.5866  -17.1632 N   0  0  0  0  0  0  0  0  0  0  0  0
   20.2156  -19.4431  -17.1712 C   0  0  0  0  0  0  0  0  0  0  0  0
   21.9121  -19.9816  -13.7449 O   0  0  0  0  0  0  0  0  0  0  0  0
   22.3326  -20.6647  -12.7687 O   0  0  0  0  0  0  0  0  0  0  0  0
  2  4  1  0
  2  1  1  0
  3  2  2  0
  5  4  1  0
  6  5  1  0
  7  8  1  0
  7  6  1  0
  8  9  1  1
 10  8  1  0
 10 19  1  0
 11 10  2  0
 12 13  1  0
 13 14  2  0
 14 15  1  0
 16 15  2  0
 16 17  1  0
 18 17  1  1
 18 19  1  0
 20 18  1  0
 21 20  2  0
 22 16  1  0
 23 13  1  0
 23 22  2  0
 24 20  1  0
 25 26  1  1
 25 24  1  0
 26 27  1  0
 27 28  2  0
 29 28  1  0
 30 29  1  0
 31 30  2  0
 31 27  1  0
 32 25  1  0
 33 32  2  0
 34 32  1  0
M  END
$$$$
