RYH.pdb
     RDKit          3D

 34 35  0  0  1  0  0  0  0  0999 V2000
   17.2006  -10.3516  -20.8846 N   0  0  0  0  0  0  0  0  0  0  0  0
   18.3986  -11.0456  -20.5618 C   0  0  0  0  0  0  0  0  0  0  0  0
   19.1928  -11.4576  -21.5031 N   0  0  0  0  0  0  0  0  0  0  0  0
   18.7060  -11.2785  -19.2038 N   0  0  0  0  0  0  0  0  0  0  0  0
   17.8304  -10.6580  -18.1868 C   0  0  0  0  0  0  0  0  0  0  0  0
   18.3165  -11.1484  -16.8704 C   0  0  0  0  0  0  0  0  0  0  0  0
   17.4697  -10.7496  -15.7272 C   0  0  0  0  0  0  0  0  0  0  0  0
   17.8394  -11.2777  -14.3733 C   0  0  2  0  0  0  0  0  0  0  0  0
   17.8292  -12.7027  -14.2990 N   0  0  0  0  0  0  0  0  0  0  0  0
   16.8617  -10.6740  -13.4013 C   0  0  0  0  0  0  0  0  0  0  0  0
   16.0730  -11.4551  -12.8280 O   0  0  0  0  0  0  0  0  0  0  0  0
   20.0793  -11.9665  -21.3259 O   0  0  0  0  0  0  0  0  0  0  0  0
   13.2323   -7.0560   -6.5628 C   0  0  0  0  0  0  0  0  0  0  0  0
   13.9816   -7.6169   -7.5919 C   0  0  0  0  0  0  0  0  0  0  0  0
   15.2750   -7.1798   -7.8447 C   0  0  0  0  0  0  0  0  0  0  0  0
   16.0392   -7.7257   -8.8661 C   0  0  0  0  0  0  0  0  0  0  0  0
   15.5027   -8.7224   -9.6452 C   0  0  0  0  0  0  0  0  0  0  0  0
   16.2922   -9.3108  -10.7216 C   0  0  1  0  0  0  0  0  0  0  0  0
   15.9495   -8.7354  -12.0837 N   0  0  0  0  0  0  0  0  0  0  0  0
   16.8041   -9.2847  -13.1176 C   0  0  0  0  0  0  0  0  0  0  0  0
   16.0703   -7.2675  -12.0832 O   0  0  0  0  0  0  0  0  0  0  0  0
   17.1763   -6.6741  -12.0663 C   0  0  0  0  0  0  0  0  0  0  0  0
   14.2225   -9.1498   -9.3894 C   0  0  0  0  0  0  0  0  0  0  0  0
   13.4465   -8.6173   -8.3761 N   0  0  0  0  0  0  0  0  0  0  0  0
   14.9086   -6.4611  -12.1031 C   0  0  2  0  0  0  0  0  0  0  0  0
   15.0267   -5.0019  -12.1479 C   0  0  0  0  0  0  0  0  0  0  0  0
   13.7745   -4.3687  -12.6374 C   0  0  0  0  0  0  0  0  0  0  0  0
   13.7107   -4.4203  -14.1114 C   0  0  0  0  0  0  0  0  0  0  0  0
   14.7328   -4.8597  -14.9654 N   0  0  0  0  0  0  0  0  0  0  0  0
   14.3445   -4.7776  -16.2479 C   0  0  0  0  0  0  0  0  0  0  0  0
   13.0961   -4.2948  -16.2239 N   0  0  0  0  0  0  0  0  0  0  0  0
   12.7120   -4.0797  -14.9585 C   0  0  0  0  0  0  0  0  0  0  0  0
   15.3532   -4.5116  -10.7929 O   0  0  0  0  0  0  0  0  0  0  0  0
   15.5687   -3.2807  -10.6064 O   0  0  0  0  0  0  0  0  0  0  0  0
  2  4  1  0
  2  1  1  0
  3  2  2  0
  5  4  1  0
  6  5  1  0
  7  8  1  0
  7  6  1  0
  8  9  1  6
 10  8  1  0
 10 19  1  0
 11 10  2  0
 12 13  1  0
 13 14  2  0
 14 15  1  0
 16 15  2  0
 16 17  1  0
 18 17  1  6
 18 19  1  0
 20 18  1  0
 21 20  2  0
 22 16  1  0
 23 13  1  0
 23 22  2  0
 24 20  1  0
 25 26  1  6
 25 24  1  0
 26 27  1  0
 27 28  2  0
 29 28  1  0
 30 29  1  0
 31 30  2  0
 31 27  1  0
 32 25  1  0
 33 32  2  0
 34 32  1  0
M  END
$$$$
