RYH.pdb
     RDKit          3D

 34 35  0  0  1  0  0  0  0  0999 V2000
   16.7469  -11.2194  -17.9411 N   0  0  0  0  0  0  0  0  0  0  0  0
   16.6290  -12.6275  -17.7854 C   0  0  0  0  0  0  0  0  0  0  0  0
   16.4447  -13.3894  -18.8208 N   0  0  0  0  0  0  0  0  0  0  0  0
   16.7143  -13.1790  -16.4886 N   0  0  0  0  0  0  0  0  0  0  0  0
   16.7487  -12.2412  -15.3461 C   0  0  0  0  0  0  0  0  0  0  0  0
   16.8024  -13.0842  -14.1230 C   0  0  0  0  0  0  0  0  0  0  0  0
   16.9446  -12.3184  -12.8675 C   0  0  0  0  0  0  0  0  0  0  0  0
   15.9972  -12.6374  -11.7498 C   0  0  2  0  0  0  0  0  0  0  0  0
   15.0052  -13.5997  -12.1055 N   0  0  0  0  0  0  0  0  0  0  0  0
   15.3689  -11.3323  -11.3411 C   0  0  0  0  0  0  0  0  0  0  0  0
   14.1210  -11.2904  -11.2968 O   0  0  0  0  0  0  0  0  0  0  0  0
   16.4926  -14.4253  -18.7885 O   0  0  0  0  0  0  0  0  0  0  0  0
   12.3481   -4.6157   -7.0762 C   0  0  0  0  0  0  0  0  0  0  0  0
   13.0444   -5.7173   -7.5627 C   0  0  0  0  0  0  0  0  0  0  0  0
   14.4205   -5.8107   -7.4044 C   0  0  0  0  0  0  0  0  0  0  0  0
   15.1340   -6.9007   -7.8822 C   0  0  0  0  0  0  0  0  0  0  0  0
   14.4619   -7.9111   -8.5269 C   0  0  0  0  0  0  0  0  0  0  0  0
   15.1945   -9.0666   -9.0331 C   0  0  2  0  0  0  0  0  0  0  0  0
   15.5076   -8.9608  -10.5146 N   0  0  0  0  0  0  0  0  0  0  0  0
   16.1224  -10.1759  -11.0110 C   0  0  0  0  0  0  0  0  0  0  0  0
   16.3984   -7.8198  -10.7866 O   0  0  0  0  0  0  0  0  0  0  0  0
   17.5413   -7.7108  -10.2793 C   0  0  0  0  0  0  0  0  0  0  0  0
   13.1004   -7.8119   -8.6799 C   0  0  0  0  0  0  0  0  0  0  0  0
   12.3733   -6.7334   -8.2104 N   0  0  0  0  0  0  0  0  0  0  0  0
   15.9786   -6.7844  -11.6536 C   0  0  2  0  0  0  0  0  0  0  0  0
   16.8245   -5.6058  -11.8556 C   0  0  0  0  0  0  0  0  0  0  0  0
   17.1117   -5.3817  -13.2963 C   0  0  0  0  0  0  0  0  0  0  0  0
   18.0927   -6.3693  -13.7881 C   0  0  0  0  0  0  0  0  0  0  0  0
   18.7667   -7.3199  -13.0075 N   0  0  0  0  0  0  0  0  0  0  0  0
   19.5860   -8.0615  -13.7698 C   0  0  0  0  0  0  0  0  0  0  0  0
   19.4446   -7.6000  -15.0184 N   0  0  0  0  0  0  0  0  0  0  0  0
   18.5593   -6.5945  -15.0381 C   0  0  0  0  0  0  0  0  0  0  0  0
   16.1417   -4.4289  -11.2800 O   0  0  0  0  0  0  0  0  0  0  0  0
   14.9610   -4.5398  -10.8438 O   0  0  0  0  0  0  0  0  0  0  0  0
  2  4  1  0
  2  1  1  0
  3  2  2  0
  5  4  1  0
  6  5  1  0
  7  8  1  0
  7  6  1  0
  8  9  1  6
 10  8  1  0
 10 19  1  0
 11 10  2  0
 12 13  1  0
 13 14  2  0
 14 15  1  0
 16 15  2  0
 16 17  1  0
 18 17  1  6
 18 19  1  0
 20 18  1  0
 21 20  2  0
 22 16  1  0
 23 13  1  0
 23 22  2  0
 24 20  1  0
 25 26  1  6
 25 24  1  0
 26 27  1  0
 27 28  2  0
 29 28  1  0
 30 29  1  0
 31 30  2  0
 31 27  1  0
 32 25  1  0
 33 32  2  0
 34 32  1  0
M  END
$$$$
