RYH.pdb
     RDKit          3D

 34 35  0  0  1  0  0  0  0  0999 V2000
   28.3413  -25.8773  -19.8315 N   0  0  0  0  0  0  0  0  0  0  0  0
   27.1600  -25.1318  -20.0956 C   0  0  0  0  0  0  0  0  0  0  0  0
   26.4092  -25.4297  -21.1124 N   0  0  0  0  0  0  0  0  0  0  0  0
   26.8214  -24.0648  -19.2355 N   0  0  0  0  0  0  0  0  0  0  0  0
   27.6809  -23.8376  -18.0542 C   0  0  0  0  0  0  0  0  0  0  0  0
   27.3541  -22.4731  -17.5633 C   0  0  0  0  0  0  0  0  0  0  0  0
   27.1490  -22.3898  -16.1026 C   0  0  0  0  0  0  0  0  0  0  0  0
   25.7772  -22.0313  -15.6145 C   0  0  2  0  0  0  0  0  0  0  0  0
   25.3011  -20.7872  -16.1264 N   0  0  0  0  0  0  0  0  0  0  0  0
   25.8543  -22.0087  -14.1116 C   0  0  0  0  0  0  0  0  0  0  0  0
   26.2165  -23.0612  -13.5442 O   0  0  0  0  0  0  0  0  0  0  0  0
   25.5936  -24.8623  -21.4110 O   0  0  0  0  0  0  0  0  0  0  0  0
   27.3029  -20.0317   -5.8016 C   0  0  0  0  0  0  0  0  0  0  0  0
   27.0762  -19.9515   -7.1717 C   0  0  0  0  0  0  0  0  0  0  0  0
   25.9180  -19.3650   -7.6640 C   0  0  0  0  0  0  0  0  0  0  0  0
   25.6724  -19.2749   -9.0267 C   0  0  0  0  0  0  0  0  0  0  0  0
   26.5978  -19.7781   -9.9091 C   0  0  0  0  0  0  0  0  0  0  0  0
   26.3586  -19.6895  -11.3454 C   0  0  2  0  0  0  0  0  0  0  0  0
   25.5760  -20.8730  -11.8847 N   0  0  0  0  0  0  0  0  0  0  0  0
   25.5397  -20.8642  -13.3337 C   0  0  0  0  0  0  0  0  0  0  0  0
   24.1980  -20.8768  -11.3646 O   0  0  0  0  0  0  0  0  0  0  0  0
   23.2458  -20.3073  -11.9518 C   0  0  0  0  0  0  0  0  0  0  0  0
   27.7414  -20.3570   -9.4148 C   0  0  0  0  0  0  0  0  0  0  0  0
   28.0026  -20.4555   -8.0605 N   0  0  0  0  0  0  0  0  0  0  0  0
   23.8999  -21.5428  -10.1531 C   0  0  2  0  0  0  0  0  0  0  0  0
   22.5068  -21.7542   -9.7534 C   0  0  0  0  0  0  0  0  0  0  0  0
   22.4146  -22.5197   -8.4830 C   0  0  0  0  0  0  0  0  0  0  0  0
   21.0026  -22.7609   -8.1256 C   0  0  0  0  0  0  0  0  0  0  0  0
   19.8837  -22.2415   -8.7930 N   0  0  0  0  0  0  0  0  0  0  0  0
   18.7495  -22.6594   -8.2087 C   0  0  0  0  0  0  0  0  0  0  0  0
   19.1273  -23.4335   -7.1840 N   0  0  0  0  0  0  0  0  0  0  0  0
   20.4643  -23.4991   -7.1275 C   0  0  0  0  0  0  0  0  0  0  0  0
   21.8513  -20.4382   -9.6074 O   0  0  0  0  0  0  0  0  0  0  0  0
   22.4946  -19.4681   -9.1159 O   0  0  0  0  0  0  0  0  0  0  0  0
  2  4  1  0
  2  1  1  0
  3  2  2  0
  5  4  1  0
  6  5  1  0
  7  8  1  0
  7  6  1  0
  8  9  1  6
 10  8  1  0
 10 19  1  0
 11 10  2  0
 12 13  1  0
 13 14  2  0
 14 15  1  0
 16 15  2  0
 16 17  1  0
 18 17  1  6
 18 19  1  0
 20 18  1  0
 21 20  2  0
 22 16  1  0
 23 13  1  0
 23 22  2  0
 24 20  1  0
 25 26  1  6
 25 24  1  0
 26 27  1  0
 27 28  2  0
 29 28  1  0
 30 29  1  0
 31 30  2  0
 31 27  1  0
 32 25  1  0
 33 32  2  0
 34 32  1  0
M  END
$$$$
