RYH.pdb
     RDKit          3D

 34 35  0  0  1  0  0  0  0  0999 V2000
   31.4984  -25.6117  -16.0020 N   0  0  0  0  0  0  0  0  0  0  0  0
   31.8707  -24.7259  -17.0498 C   0  0  0  0  0  0  0  0  0  0  0  0
   32.9006  -24.9879  -17.7961 N   0  0  0  0  0  0  0  0  0  0  0  0
   31.1030  -23.5601  -17.2611 N   0  0  0  0  0  0  0  0  0  0  0  0
   29.8115  -23.4517  -16.5497 C   0  0  0  0  0  0  0  0  0  0  0  0
   28.7741  -23.2893  -17.6018 C   0  0  0  0  0  0  0  0  0  0  0  0
   27.3993  -23.1530  -17.0784 C   0  0  0  0  0  0  0  0  0  0  0  0
   26.8575  -24.2804  -16.2513 C   0  0  2  0  0  0  0  0  0  0  0  0
   26.4614  -25.4116  -17.0259 N   0  0  0  0  0  0  0  0  0  0  0  0
   25.6970  -23.7176  -15.4755 C   0  0  0  0  0  0  0  0  0  0  0  0
   24.5706  -23.7773  -16.0126 O   0  0  0  0  0  0  0  0  0  0  0  0
   33.2031  -24.3909  -18.5889 O   0  0  0  0  0  0  0  0  0  0  0  0
   20.9014  -19.7910   -9.1708 C   0  0  0  0  0  0  0  0  0  0  0  0
   21.9044  -20.4636   -9.8612 C   0  0  0  0  0  0  0  0  0  0  0  0
   21.5907  -21.3212  -10.9071 C   0  0  0  0  0  0  0  0  0  0  0  0
   22.5758  -22.0016  -11.6085 C   0  0  0  0  0  0  0  0  0  0  0  0
   23.8926  -21.8218  -11.2592 C   0  0  0  0  0  0  0  0  0  0  0  0
   24.9424  -22.5260  -11.9872 C   0  0  1  0  0  0  0  0  0  0  0  0
   24.7172  -22.5270  -13.4883 N   0  0  0  0  0  0  0  0  0  0  0  0
   25.8309  -23.1367  -14.1876 C   0  0  0  0  0  0  0  0  0  0  0  0
   24.5175  -21.1581  -13.9939 O   0  0  0  0  0  0  0  0  0  0  0  0
   25.3626  -20.2433  -13.8378 C   0  0  0  0  0  0  0  0  0  0  0  0
   24.1955  -20.9719  -10.2234 C   0  0  0  0  0  0  0  0  0  0  0  0
   23.2272  -20.2858   -9.5135 N   0  0  0  0  0  0  0  0  0  0  0  0
   23.3325  -20.8263  -14.6910 C   0  0  1  0  0  0  0  0  0  0  0  0
   23.0252  -19.4269  -14.9949 C   0  0  0  0  0  0  0  0  0  0  0  0
   23.9168  -18.8913  -16.0563 C   0  0  0  0  0  0  0  0  0  0  0  0
   23.9317  -19.7948  -17.2239 C   0  0  0  0  0  0  0  0  0  0  0  0
   23.1934  -20.9797  -17.3580 N   0  0  0  0  0  0  0  0  0  0  0  0
   23.4395  -21.5575  -18.5447 C   0  0  0  0  0  0  0  0  0  0  0  0
   24.3193  -20.7622  -19.1655 N   0  0  0  0  0  0  0  0  0  0  0  0
   24.6170  -19.7126  -18.3877 C   0  0  0  0  0  0  0  0  0  0  0  0
   21.6124  -19.3334  -15.4169 O   0  0  0  0  0  0  0  0  0  0  0  0
   20.8847  -20.3663  -15.4054 O   0  0  0  0  0  0  0  0  0  0  0  0
  2  4  1  0
  2  1  1  0
  3  2  2  0
  5  4  1  0
  6  5  1  0
  7  8  1  0
  7  6  1  0
  8  9  1  6
 10  8  1  0
 10 19  1  0
 11 10  2  0
 12 13  1  0
 13 14  2  0
 14 15  1  0
 16 15  2  0
 16 17  1  0
 18 17  1  1
 18 19  1  0
 20 18  1  0
 21 20  2  0
 22 16  1  0
 23 13  1  0
 23 22  2  0
 24 20  1  0
 25 26  1  6
 25 24  1  0
 26 27  1  0
 27 28  2  0
 29 28  1  0
 30 29  1  0
 31 30  2  0
 31 27  1  0
 32 25  1  0
 33 32  2  0
 34 32  1  0
M  END
$$$$
