RYH.pdb
     RDKit          3D

 34 35  0  0  1  0  0  0  0  0999 V2000
   12.0083  -18.5574    0.9617 N   0  0  0  0  0  0  0  0  0  0  0  0
   11.1415  -18.7775    2.0668 C   0  0  0  0  0  0  0  0  0  0  0  0
   10.6431  -19.9565    2.2857 N   0  0  0  0  0  0  0  0  0  0  0  0
   10.8331  -17.6934    2.9170 N   0  0  0  0  0  0  0  0  0  0  0  0
   11.4209  -16.3769    2.5895 C   0  0  0  0  0  0  0  0  0  0  0  0
   10.9369  -15.4382    3.6355 C   0  0  0  0  0  0  0  0  0  0  0  0
   11.3000  -14.0264    3.3947 C   0  0  0  0  0  0  0  0  0  0  0  0
   11.8691  -13.2511    4.5452 C   0  0  2  0  0  0  0  0  0  0  0  0
   11.4222  -11.8966    4.5916 N   0  0  0  0  0  0  0  0  0  0  0  0
   13.3660  -13.3269    4.4084 C   0  0  0  0  0  0  0  0  0  0  0  0
   13.9102  -12.5033    3.6427 O   0  0  0  0  0  0  0  0  0  0  0  0
    9.9867  -20.1686    3.0607 O   0  0  0  0  0  0  0  0  0  0  0  0
   21.3909  -11.8570    6.7067 C   0  0  0  0  0  0  0  0  0  0  0  0
   20.0285  -12.0966    6.5599 C   0  0  0  0  0  0  0  0  0  0  0  0
   19.4016  -11.8912    5.3382 C   0  0  0  0  0  0  0  0  0  0  0  0
   18.0440  -12.1241    5.1705 C   0  0  0  0  0  0  0  0  0  0  0  0
   17.3033  -12.5685    6.2392 C   0  0  0  0  0  0  0  0  0  0  0  0
   15.8754  -12.8219    6.0812 C   0  0  2  0  0  0  0  0  0  0  0  0
   15.5869  -14.0945    5.3057 N   0  0  0  0  0  0  0  0  0  0  0  0
   14.1633  -14.2750    5.1009 C   0  0  0  0  0  0  0  0  0  0  0  0
   16.1304  -15.2729    6.0023 O   0  0  0  0  0  0  0  0  0  0  0  0
   15.6619  -15.7013    7.0851 C   0  0  0  0  0  0  0  0  0  0  0  0
   17.9302  -12.7694    7.4449 C   0  0  0  0  0  0  0  0  0  0  0  0
   19.2817  -12.5426    7.6302 N   0  0  0  0  0  0  0  0  0  0  0  0
   17.2278  -15.9764    5.4537 C   0  0  2  0  0  0  0  0  0  0  0  0
   17.7101  -17.2022    6.0940 C   0  0  0  0  0  0  0  0  0  0  0  0
   18.3996  -18.0898    5.1217 C   0  0  0  0  0  0  0  0  0  0  0  0
   17.4180  -18.9048    4.3788 C   0  0  0  0  0  0  0  0  0  0  0  0
   16.0370  -18.9524    4.6188 N   0  0  0  0  0  0  0  0  0  0  0  0
   15.4375  -19.7936    3.7611 C   0  0  0  0  0  0  0  0  0  0  0  0
   16.4113  -20.2801    2.9821 N   0  0  0  0  0  0  0  0  0  0  0  0
   17.5911  -19.7573    3.3424 C   0  0  0  0  0  0  0  0  0  0  0  0
   18.6278  -16.8335    7.1915 O   0  0  0  0  0  0  0  0  0  0  0  0
   18.9687  -15.6265    7.3453 O   0  0  0  0  0  0  0  0  0  0  0  0
  2  4  1  0
  2  1  1  0
  3  2  2  0
  5  4  1  0
  6  5  1  0
  7  8  1  0
  7  6  1  0
  8  9  1  6
 10  8  1  0
 10 19  1  0
 11 10  2  0
 12 13  1  0
 13 14  2  0
 14 15  1  0
 16 15  2  0
 16 17  1  0
 18 17  1  6
 18 19  1  0
 20 18  1  0
 21 20  2  0
 22 16  1  0
 23 13  1  0
 23 22  2  0
 24 20  1  0
 25 26  1  6
 25 24  1  0
 26 27  1  0
 27 28  2  0
 29 28  1  0
 30 29  1  0
 31 30  2  0
 31 27  1  0
 32 25  1  0
 33 32  2  0
 34 32  1  0
M  END
$$$$
