RYH.pdb
     RDKit          3D

 34 35  0  0  1  0  0  0  0  0999 V2000
   26.2532  -15.4705  -20.2706 N   0  0  0  0  0  0  0  0  0  0  0  0
   27.2289  -16.1771  -21.0255 C   0  0  0  0  0  0  0  0  0  0  0  0
   27.7346  -15.6518  -22.1000 N   0  0  0  0  0  0  0  0  0  0  0  0
   27.6343  -17.4563  -20.5869 N   0  0  0  0  0  0  0  0  0  0  0  0
   27.0365  -17.9737  -19.3375 C   0  0  0  0  0  0  0  0  0  0  0  0
   28.0003  -18.9705  -18.8018 C   0  0  0  0  0  0  0  0  0  0  0  0
   27.5258  -19.6826  -17.5975 C   0  0  0  0  0  0  0  0  0  0  0  0
   28.4709  -20.6467  -16.9448 C   0  0  2  0  0  0  0  0  0  0  0  0
   29.0279  -21.5963  -17.8528 N   0  0  0  0  0  0  0  0  0  0  0  0
   27.6930  -21.3289  -15.8518 C   0  0  0  0  0  0  0  0  0  0  0  0
   28.1974  -22.3556  -15.3495 O   0  0  0  0  0  0  0  0  0  0  0  0
   28.4730  -16.1063  -22.6698 O   0  0  0  0  0  0  0  0  0  0  0  0
   25.6054  -19.8220   -7.7080 C   0  0  0  0  0  0  0  0  0  0  0  0
   25.9609  -19.8769   -9.0518 C   0  0  0  0  0  0  0  0  0  0  0  0
   26.7727  -20.8977   -9.5277 C   0  0  0  0  0  0  0  0  0  0  0  0
   27.1391  -20.9709  -10.8640 C   0  0  0  0  0  0  0  0  0  0  0  0
   26.6873  -20.0100  -11.7363 C   0  0  0  0  0  0  0  0  0  0  0  0
   27.0593  -20.0721  -13.1455 C   0  0  1  0  0  0  0  0  0  0  0  0
   26.0778  -20.8776  -13.9772 N   0  0  0  0  0  0  0  0  0  0  0  0
   26.4388  -20.8604  -15.3809 C   0  0  0  0  0  0  0  0  0  0  0  0
   24.7065  -20.3629  -13.8224 O   0  0  0  0  0  0  0  0  0  0  0  0
   24.3069  -19.3093  -14.3754 C   0  0  0  0  0  0  0  0  0  0  0  0
   25.8846  -19.0029  -11.2583 C   0  0  0  0  0  0  0  0  0  0  0  0
   25.5096  -18.9142   -9.9303 N   0  0  0  0  0  0  0  0  0  0  0  0
   23.7733  -21.0628  -13.0228 C   0  0  1  0  0  0  0  0  0  0  0  0
   22.4035  -20.5632  -12.8831 C   0  0  0  0  0  0  0  0  0  0  0  0
   22.3324  -19.0966  -13.1126 C   0  0  0  0  0  0  0  0  0  0  0  0
   20.9410  -18.6199  -12.9844 C   0  0  0  0  0  0  0  0  0  0  0  0
   19.8366  -19.3951  -12.6017 N   0  0  0  0  0  0  0  0  0  0  0  0
   18.7198  -18.6500  -12.5854 C   0  0  0  0  0  0  0  0  0  0  0  0
   19.0945  -17.4177  -12.9502 N   0  0  0  0  0  0  0  0  0  0  0  0
   20.4126  -17.3912  -13.1890 C   0  0  0  0  0  0  0  0  0  0  0  0
   21.5394  -21.2753  -13.8470 O   0  0  0  0  0  0  0  0  0  0  0  0
   20.3310  -20.9308  -13.9795 O   0  0  0  0  0  0  0  0  0  0  0  0
  2  4  1  0
  2  1  1  0
  3  2  2  0
  5  4  1  0
  6  5  1  0
  7  8  1  0
  7  6  1  0
  8  9  1  6
 10  8  1  0
 10 19  1  0
 11 10  2  0
 12 13  1  0
 13 14  2  0
 14 15  1  0
 16 15  2  0
 16 17  1  0
 18 17  1  1
 18 19  1  0
 20 18  1  0
 21 20  2  0
 22 16  1  0
 23 13  1  0
 23 22  2  0
 24 20  1  0
 25 26  1  1
 25 24  1  0
 26 27  1  0
 27 28  2  0
 29 28  1  0
 30 29  1  0
 31 30  2  0
 31 27  1  0
 32 25  1  0
 33 32  2  0
 34 32  1  0
M  END
$$$$
