RYH.pdb
     RDKit          3D

 34 35  0  0  1  0  0  0  0  0999 V2000
   19.6659  -10.8398  -18.7802 N   0  0  0  0  0  0  0  0  0  0  0  0
   19.1446  -11.9798  -19.4509 C   0  0  0  0  0  0  0  0  0  0  0  0
   17.9453  -11.9576  -19.9484 N   0  0  0  0  0  0  0  0  0  0  0  0
   19.9523  -13.1323  -19.5635 N   0  0  0  0  0  0  0  0  0  0  0  0
   21.2829  -13.1022  -18.9196 C   0  0  0  0  0  0  0  0  0  0  0  0
   21.9187  -14.4102  -19.2268 C   0  0  0  0  0  0  0  0  0  0  0  0
   22.6428  -14.4422  -20.5141 C   0  0  0  0  0  0  0  0  0  0  0  0
   24.1056  -14.7706  -20.4787 C   0  0  2  0  0  0  0  0  0  0  0  0
   24.3885  -16.0309  -19.8718 N   0  0  0  0  0  0  0  0  0  0  0  0
   24.7749  -13.6455  -19.7362 C   0  0  0  0  0  0  0  0  0  0  0  0
   25.0488  -13.8408  -18.5331 O   0  0  0  0  0  0  0  0  0  0  0  0
   17.5217  -12.7519  -20.4641 O   0  0  0  0  0  0  0  0  0  0  0  0
   29.7097   -6.6580  -17.8034 C   0  0  0  0  0  0  0  0  0  0  0  0
   29.0414   -7.6946  -18.4467 C   0  0  0  0  0  0  0  0  0  0  0  0
   29.3307   -9.0183  -18.1440 C   0  0  0  0  0  0  0  0  0  0  0  0
   28.6759  -10.0670  -18.7740 C   0  0  0  0  0  0  0  0  0  0  0  0
   27.7187   -9.7879  -19.7196 C   0  0  0  0  0  0  0  0  0  0  0  0
   27.0173  -10.8772  -20.3902 C   0  0  1  0  0  0  0  0  0  0  0  0
   25.7954  -11.3494  -19.6233 N   0  0  0  0  0  0  0  0  0  0  0  0
   25.0997  -12.4016  -20.3373 C   0  0  0  0  0  0  0  0  0  0  0  0
   24.8650  -10.2353  -19.3732 O   0  0  0  0  0  0  0  0  0  0  0  0
   24.1315   -9.7456  -20.2664 C   0  0  0  0  0  0  0  0  0  0  0  0
   27.4378   -8.4759  -20.0140 C   0  0  0  0  0  0  0  0  0  0  0  0
   28.0801   -7.4185  -19.3965 N   0  0  0  0  0  0  0  0  0  0  0  0
   24.7687   -9.6694  -18.0806 C   0  0  1  0  0  0  0  0  0  0  0  0
   23.7555   -8.6504  -17.7974 C   0  0  0  0  0  0  0  0  0  0  0  0
   22.3826   -9.1645  -18.0414 C   0  0  0  0  0  0  0  0  0  0  0  0
   21.3803   -8.1193  -17.7544 C   0  0  0  0  0  0  0  0  0  0  0  0
   21.6454   -6.7570  -17.5523 N   0  0  0  0  0  0  0  0  0  0  0  0
   20.5077   -6.0847  -17.3153 C   0  0  0  0  0  0  0  0  0  0  0  0
   19.5265   -6.9940  -17.3632 N   0  0  0  0  0  0  0  0  0  0  0  0
   20.0362   -8.2054  -17.6236 C   0  0  0  0  0  0  0  0  0  0  0  0
   23.8987   -8.2185  -16.3917 O   0  0  0  0  0  0  0  0  0  0  0  0
   24.7905   -8.7388  -15.6635 O   0  0  0  0  0  0  0  0  0  0  0  0
  2  4  1  0
  2  1  1  0
  3  2  2  0
  5  4  1  0
  6  5  1  0
  7  8  1  0
  7  6  1  0
  8  9  1  1
 10  8  1  0
 10 19  1  0
 11 10  2  0
 12 13  1  0
 13 14  2  0
 14 15  1  0
 16 15  2  0
 16 17  1  0
 18 17  1  1
 18 19  1  0
 20 18  1  0
 21 20  2  0
 22 16  1  0
 23 13  1  0
 23 22  2  0
 24 20  1  0
 25 26  1  1
 25 24  1  0
 26 27  1  0
 27 28  2  0
 29 28  1  0
 30 29  1  0
 31 30  2  0
 31 27  1  0
 32 25  1  0
 33 32  2  0
 34 32  1  0
M  END
$$$$
