RYH.pdb
     RDKit          3D

 34 35  0  0  1  0  0  0  0  0999 V2000
   30.4265  -24.6954  -16.5810 N   0  0  0  0  0  0  0  0  0  0  0  0
   29.6608  -25.5701  -17.3993 C   0  0  0  0  0  0  0  0  0  0  0  0
   30.2512  -26.4123  -18.1921 N   0  0  0  0  0  0  0  0  0  0  0  0
   28.2521  -25.5045  -17.3345 N   0  0  0  0  0  0  0  0  0  0  0  0
   27.6537  -24.5335  -16.3937 C   0  0  0  0  0  0  0  0  0  0  0  0
   26.8326  -23.6110  -17.2208 C   0  0  0  0  0  0  0  0  0  0  0  0
   26.1403  -22.5601  -16.4468 C   0  0  0  0  0  0  0  0  0  0  0  0
   26.6756  -21.1626  -16.5423 C   0  0  2  0  0  0  0  0  0  0  0  0
   27.9150  -20.9828  -15.8582 N   0  0  0  0  0  0  0  0  0  0  0  0
   25.6084  -20.2607  -15.9829 C   0  0  0  0  0  0  0  0  0  0  0  0
   25.5502  -20.1504  -14.7398 O   0  0  0  0  0  0  0  0  0  0  0  0
   29.7442  -27.0947  -18.7868 O   0  0  0  0  0  0  0  0  0  0  0  0
   28.6051  -14.5754  -17.0066 C   0  0  0  0  0  0  0  0  0  0  0  0
   27.3936  -15.2588  -17.0223 C   0  0  0  0  0  0  0  0  0  0  0  0
   26.4220  -14.9985  -16.0653 C   0  0  0  0  0  0  0  0  0  0  0  0
   25.2071  -15.6689  -16.0630 C   0  0  0  0  0  0  0  0  0  0  0  0
   24.9605  -16.6123  -17.0312 C   0  0  0  0  0  0  0  0  0  0  0  0
   23.6877  -17.3250  -17.0470 C   0  0  2  0  0  0  0  0  0  0  0  0
   23.7258  -18.6134  -16.2454 N   0  0  0  0  0  0  0  0  0  0  0  0
   24.6888  -19.5471  -16.7948 C   0  0  0  0  0  0  0  0  0  0  0  0
   22.3989  -19.2513  -16.2064 O   0  0  0  0  0  0  0  0  0  0  0  0
   22.1896  -20.4164  -16.6242 C   0  0  0  0  0  0  0  0  0  0  0  0
   25.9263  -16.8646  -17.9749 C   0  0  0  0  0  0  0  0  0  0  0  0
   27.1424  -16.2065  -17.9924 N   0  0  0  0  0  0  0  0  0  0  0  0
   21.2901  -18.5482  -15.6807 C   0  0  1  0  0  0  0  0  0  0  0  0
   19.9876  -19.2083  -15.5659 C   0  0  0  0  0  0  0  0  0  0  0  0
   20.0589  -20.4051  -14.6877 C   0  0  0  0  0  0  0  0  0  0  0  0
   18.7182  -20.9974  -14.5106 C   0  0  0  0  0  0  0  0  0  0  0  0
   17.5062  -20.4345  -14.9365 N   0  0  0  0  0  0  0  0  0  0  0  0
   16.4763  -21.2347  -14.6179 C   0  0  0  0  0  0  0  0  0  0  0  0
   17.0116  -22.2939  -13.9984 N   0  0  0  0  0  0  0  0  0  0  0  0
   18.3430  -22.1608  -13.9305 C   0  0  0  0  0  0  0  0  0  0  0  0
   19.0106  -18.2377  -15.0310 O   0  0  0  0  0  0  0  0  0  0  0  0
   19.4152  -17.1450  -14.5424 O   0  0  0  0  0  0  0  0  0  0  0  0
  2  4  1  0
  2  1  1  0
  3  2  2  0
  5  4  1  0
  6  5  1  0
  7  8  1  0
  7  6  1  0
  8  9  1  1
 10  8  1  0
 10 19  1  0
 11 10  2  0
 12 13  1  0
 13 14  2  0
 14 15  1  0
 16 15  2  0
 16 17  1  0
 18 17  1  1
 18 19  1  0
 20 18  1  0
 21 20  2  0
 22 16  1  0
 23 13  1  0
 23 22  2  0
 24 20  1  0
 25 26  1  6
 25 24  1  0
 26 27  1  0
 27 28  2  0
 29 28  1  0
 30 29  1  0
 31 30  2  0
 31 27  1  0
 32 25  1  0
 33 32  2  0
 34 32  1  0
M  END
$$$$
