GLL.pdb
     RDKit          3D

 21 20  0  0  1  0  0  0  0  0999 V2000
   14.4125  -13.7094    9.7174 N   0  0  0  0  0  0  0  0  0  0  0  0
   15.8177  -13.5126    9.5030 C   0  0  0  0  0  0  0  0  0  0  0  0
   16.2394  -13.9780    8.1610 C   0  0  0  0  0  0  0  0  0  0  0  0
   15.4452  -14.3320    7.2709 O   0  0  0  0  0  0  0  0  0  0  0  0
   18.6464  -11.6963    5.1049 C   0  0  0  0  0  0  0  0  0  0  0  0
   19.4249  -12.1803    6.3578 C   0  0  2  0  0  0  0  0  0  0  0  0
   20.8025  -11.5779    6.2116 C   0  0  0  0  0  0  0  0  0  0  0  0
   19.4521  -13.6665    6.3127 C   0  0  0  0  0  0  0  0  0  0  0  0
   18.1829  -14.3807    6.6267 C   0  0  2  0  0  0  0  0  0  0  0  0
   17.6520  -14.0150    7.8925 N   0  0  0  0  0  0  0  0  0  0  0  0
   18.5387  -15.8569    6.6116 C   0  0  0  0  0  0  0  0  0  0  0  0
   18.8402  -16.3742    5.5035 O   0  0  0  0  0  0  0  0  0  0  0  0
   21.8961  -17.5740    9.8218 C   0  0  0  0  0  0  0  0  0  0  0  0
   21.1445  -17.6358    8.4866 C   0  0  1  0  0  0  0  0  0  0  0  0
   22.0670  -18.2649    7.4327 C   0  0  0  0  0  0  0  0  0  0  0  0
   19.9001  -18.4548    8.6580 C   0  0  0  0  0  0  0  0  0  0  0  0
   18.8586  -18.0644    7.6782 C   0  0  2  0  0  0  0  0  0  0  0  0
   18.5387  -16.6348    7.7731 N   0  0  0  0  0  0  0  0  0  0  0  0
   17.6264  -18.8492    7.8482 C   0  0  0  0  0  0  0  0  0  0  0  0
   17.5478  -20.1014    7.7989 O   0  0  0  0  0  0  0  0  0  0  0  0
   16.4347  -18.1438    8.0862 O   0  0  0  0  0  0  0  0  0  0  0  0
  2  1  1  0
  3  2  1  0
  4  3  2  0
  6  5  1  6
  6  7  1  0
  6  8  1  0
  9  8  1  1
  9 10  1  0
  9 11  1  0
 10  3  1  0
 11 18  1  0
 12 11  2  0
 14 13  1  1
 14 15  1  0
 16 14  1  0
 17 19  1  0
 17 16  1  1
 18 17  1  0
 19 21  1  0
 20 19  2  0
M  END
$$$$
