GLL.pdb
     RDKit          3D

 21 20  0  0  1  0  0  0  0  0999 V2000
   25.7097  -17.2386  -19.2465 N   0  0  0  0  0  0  0  0  0  0  0  0
   26.1092  -17.1978  -17.8688 C   0  0  0  0  0  0  0  0  0  0  0  0
   25.5988  -18.3659  -17.1138 C   0  0  0  0  0  0  0  0  0  0  0  0
   24.8318  -19.2191  -17.5956 O   0  0  0  0  0  0  0  0  0  0  0  0
   27.9776  -21.5135  -14.8225 C   0  0  0  0  0  0  0  0  0  0  0  0
   27.9686  -20.1300  -14.1183 C   0  0  2  0  0  0  0  0  0  0  0  0
   28.8201  -20.3202  -12.8851 C   0  0  0  0  0  0  0  0  0  0  0  0
   26.5543  -19.8152  -13.7835 C   0  0  0  0  0  0  0  0  0  0  0  0
   25.6204  -19.5844  -14.9209 C   0  0  2  0  0  0  0  0  0  0  0  0
   26.0267  -18.5028  -15.7473 N   0  0  0  0  0  0  0  0  0  0  0  0
   24.2763  -19.2824  -14.2817 C   0  0  0  0  0  0  0  0  0  0  0  0
   24.0632  -18.1017  -13.8986 O   0  0  0  0  0  0  0  0  0  0  0  0
   19.7494  -17.7384  -16.3832 C   0  0  0  0  0  0  0  0  0  0  0  0
   20.0499  -18.6967  -15.2243 C   0  0  1  0  0  0  0  0  0  0  0  0
   19.1531  -19.9349  -15.3662 C   0  0  0  0  0  0  0  0  0  0  0  0
   21.4980  -19.0836  -15.2667 C   0  0  0  0  0  0  0  0  0  0  0  0
   21.8829  -19.8636  -14.0663 C   0  0  2  0  0  0  0  0  0  0  0  0
   23.2946  -20.2633  -14.1136 N   0  0  0  0  0  0  0  0  0  0  0  0
   21.0452  -21.0611  -13.9007 C   0  0  0  0  0  0  0  0  0  0  0  0
   21.1252  -22.1070  -14.5907 O   0  0  0  0  0  0  0  0  0  0  0  0
   20.0724  -21.0380  -12.8870 O   0  0  0  0  0  0  0  0  0  0  0  0
  2  1  1  0
  3  2  1  0
  4  3  2  0
  6  5  1  6
  6  7  1  0
  6  8  1  0
  9  8  1  1
  9 10  1  0
  9 11  1  0
 10  3  1  0
 11 18  1  0
 12 11  2  0
 14 13  1  6
 14 15  1  0
 16 14  1  0
 17 19  1  0
 17 16  1  6
 18 17  1  0
 19 21  1  0
 20 19  2  0
M  END
$$$$
