GLL.pdb
     RDKit          3D

 21 20  0  0  1  0  0  0  0  0999 V2000
   21.8964  -21.2515  -12.4806 N   0  0  0  0  0  0  0  0  0  0  0  0
   22.2179  -20.3730  -11.3924 C   0  0  0  0  0  0  0  0  0  0  0  0
   23.3995  -20.8467  -10.6344 C   0  0  0  0  0  0  0  0  0  0  0  0
   23.3622  -21.7717   -9.8030 O   0  0  0  0  0  0  0  0  0  0  0  0
   27.2285  -22.1013  -12.5843 C   0  0  0  0  0  0  0  0  0  0  0  0
   27.1365  -20.5522  -12.5381 C   0  0  2  0  0  0  0  0  0  0  0  0
   28.4070  -20.0713  -13.1989 C   0  0  0  0  0  0  0  0  0  0  0  0
   27.0618  -20.1577  -11.1063 C   0  0  0  0  0  0  0  0  0  0  0  0
   25.8802  -20.6289  -10.3308 C   0  0  2  0  0  0  0  0  0  0  0  0
   24.6515  -20.1859  -10.8892 N   0  0  0  0  0  0  0  0  0  0  0  0
   26.0613  -20.0563   -8.9360 C   0  0  0  0  0  0  0  0  0  0  0  0
   25.5350  -18.9388   -8.6899 O   0  0  0  0  0  0  0  0  0  0  0  0
   29.2021  -21.6336   -3.9795 C   0  0  0  0  0  0  0  0  0  0  0  0
   28.7380  -20.6117   -5.0245 C   0  0  1  0  0  0  0  0  0  0  0  0
   29.8196  -20.4915   -6.1076 C   0  0  0  0  0  0  0  0  0  0  0  0
   27.4402  -21.0694   -5.6201 C   0  0  0  0  0  0  0  0  0  0  0  0
   26.9371  -20.1020   -6.6243 C   0  0  2  0  0  0  0  0  0  0  0  0
   26.7821  -20.7270   -7.9436 N   0  0  0  0  0  0  0  0  0  0  0  0
   27.8177  -18.9300   -6.7435 C   0  0  0  0  0  0  0  0  0  0  0  0
   28.5959  -18.6981   -7.7010 O   0  0  0  0  0  0  0  0  0  0  0  0
   27.7896  -17.9880   -5.7012 O   0  0  0  0  0  0  0  0  0  0  0  0
  2  1  1  0
  3  2  1  0
  4  3  2  0
  6  5  1  1
  6  7  1  0
  6  8  1  0
  9  8  1  6
  9 10  1  0
  9 11  1  0
 10  3  1  0
 11 18  1  0
 12 11  2  0
 14 13  1  1
 14 15  1  0
 16 14  1  0
 17 19  1  0
 17 16  1  1
 18 17  1  0
 19 21  1  0
 20 19  2  0
M  END
$$$$
