GLL.pdb
     RDKit          3D

 21 20  0  0  1  0  0  0  0  0999 V2000
   24.6412  -25.1710  -15.6151 N   0  0  0  0  0  0  0  0  0  0  0  0
   25.3785  -24.0640  -15.0765 C   0  0  0  0  0  0  0  0  0  0  0  0
   24.6319  -23.3809  -13.9943 C   0  0  0  0  0  0  0  0  0  0  0  0
   23.4184  -23.5506  -13.7778 O   0  0  0  0  0  0  0  0  0  0  0  0
   26.2435  -19.8504   -9.1627 C   0  0  0  0  0  0  0  0  0  0  0  0
   25.0749  -20.2935  -10.0838 C   0  0  2  0  0  0  0  0  0  0  0  0
   24.1517  -21.0798   -9.1830 C   0  0  0  0  0  0  0  0  0  0  0  0
   25.6588  -21.1330  -11.1634 C   0  0  0  0  0  0  0  0  0  0  0  0
   24.7411  -21.5843  -12.2468 C   0  0  2  0  0  0  0  0  0  0  0  0
   25.3710  -22.4739  -13.1576 N   0  0  0  0  0  0  0  0  0  0  0  0
   24.3106  -20.3159  -12.9624 C   0  0  0  0  0  0  0  0  0  0  0  0
   23.6155  -19.4876  -12.3167 O   0  0  0  0  0  0  0  0  0  0  0  0
   27.6866  -18.0556  -16.1124 C   0  0  0  0  0  0  0  0  0  0  0  0
   26.5585  -18.1441  -15.0774 C   0  0  1  0  0  0  0  0  0  0  0  0
   26.6190  -16.9012  -14.1780 C   0  0  0  0  0  0  0  0  0  0  0  0
   25.2407  -18.2197  -15.7889 C   0  0  0  0  0  0  0  0  0  0  0  0
   24.1945  -18.8154  -14.9239 C   0  0  2  0  0  0  0  0  0  0  0  0
   24.6611  -20.0546  -14.2902 N   0  0  0  0  0  0  0  0  0  0  0  0
   22.9578  -19.0888  -15.6714 C   0  0  0  0  0  0  0  0  0  0  0  0
   22.4156  -20.2145  -15.7957 O   0  0  0  0  0  0  0  0  0  0  0  0
   22.3259  -18.0031  -16.3009 O   0  0  0  0  0  0  0  0  0  0  0  0
  2  1  1  0
  3  2  1  0
  4  3  2  0
  6  5  1  1
  6  7  1  0
  6  8  1  0
  9  8  1  1
  9 10  1  0
  9 11  1  0
 10  3  1  0
 11 18  1  0
 12 11  2  0
 14 13  1  6
 14 15  1  0
 16 14  1  0
 17 19  1  0
 17 16  1  6
 18 17  1  0
 19 21  1  0
 20 19  2  0
M  END
$$$$
