GLL.pdb
     RDKit          3D

 21 20  0  0  1  0  0  0  0  0999 V2000
   11.5626  -16.5115    1.1922 N   0  0  0  0  0  0  0  0  0  0  0  0
   12.6459  -17.4099    0.9116 C   0  0  0  0  0  0  0  0  0  0  0  0
   13.4277  -17.7256    2.1299 C   0  0  0  0  0  0  0  0  0  0  0  0
   13.2325  -17.1883    3.2351 O   0  0  0  0  0  0  0  0  0  0  0  0
   17.8690  -21.9290    3.3032 C   0  0  0  0  0  0  0  0  0  0  0  0
   16.9570  -20.8268    3.9062 C   0  0  2  0  0  0  0  0  0  0  0  0
   16.1200  -21.5427    4.9400 C   0  0  0  0  0  0  0  0  0  0  0  0
   16.1338  -20.2795    2.7952 C   0  0  0  0  0  0  0  0  0  0  0  0
   15.3247  -19.0621    3.0829 C   0  0  2  0  0  0  0  0  0  0  0  0
   14.4668  -18.7124    2.0061 N   0  0  0  0  0  0  0  0  0  0  0  0
   16.3365  -17.9570    3.3302 C   0  0  0  0  0  0  0  0  0  0  0  0
   16.8197  -17.3712    2.3254 O   0  0  0  0  0  0  0  0  0  0  0  0
   18.8899  -14.3054    5.4127 C   0  0  0  0  0  0  0  0  0  0  0  0
   17.6156  -13.9234    4.6498 C   0  0  1  0  0  0  0  0  0  0  0  0
   18.0154  -13.1739    3.3708 C   0  0  0  0  0  0  0  0  0  0  0  0
   16.8480  -15.1677    4.3166 C   0  0  0  0  0  0  0  0  0  0  0  0
   17.5530  -16.3805    4.7957 C   0  0  2  0  0  0  0  0  0  0  0  0
   16.7333  -17.5853    4.6181 N   0  0  0  0  0  0  0  0  0  0  0  0
   17.9432  -16.2635    6.2089 C   0  0  0  0  0  0  0  0  0  0  0  0
   19.0309  -15.7968    6.6279 O   0  0  0  0  0  0  0  0  0  0  0  0
   17.0258  -16.7100    7.1751 O   0  0  0  0  0  0  0  0  0  0  0  0
  2  1  1  0
  3  2  1  0
  4  3  2  0
  6  5  1  6
  6  7  1  0
  6  8  1  0
  9  8  1  6
  9 10  1  0
  9 11  1  0
 10  3  1  0
 11 18  1  0
 12 11  2  0
 14 13  1  6
 14 15  1  0
 16 14  1  0
 17 19  1  0
 17 16  1  1
 18 17  1  0
 19 21  1  0
 20 19  2  0
M  END
$$$$
