GLL.pdb
     RDKit          3D

 21 20  0  0  1  0  0  0  0  0999 V2000
   26.6169  -21.5096  -16.6536 N   0  0  0  0  0  0  0  0  0  0  0  0
   25.8118  -20.6026  -15.8864 C   0  0  0  0  0  0  0  0  0  0  0  0
   25.0365  -21.3074  -14.8389 C   0  0  0  0  0  0  0  0  0  0  0  0
   24.6914  -22.5002  -14.9190 O   0  0  0  0  0  0  0  0  0  0  0  0
   26.1792  -22.0411  -10.8257 C   0  0  0  0  0  0  0  0  0  0  0  0
   25.7475  -20.5530  -10.9216 C   0  0  2  0  0  0  0  0  0  0  0  0
   26.0035  -19.9883   -9.5441 C   0  0  0  0  0  0  0  0  0  0  0  0
   24.3041  -20.5349  -11.2788 C   0  0  0  0  0  0  0  0  0  0  0  0
   23.9222  -21.1073  -12.6002 C   0  0  2  0  0  0  0  0  0  0  0  0
   24.6722  -20.5512  -13.6708 N   0  0  0  0  0  0  0  0  0  0  0  0
   22.4478  -20.7840  -12.7666 C   0  0  0  0  0  0  0  0  0  0  0  0
   21.6769  -21.0614  -11.8101 O   0  0  0  0  0  0  0  0  0  0  0  0
   20.3463  -17.4014  -16.8896 C   0  0  0  0  0  0  0  0  0  0  0  0
   20.4720  -18.7675  -16.2043 C   0  0  1  0  0  0  0  0  0  0  0  0
   21.8618  -19.3439  -16.5100 C   0  0  0  0  0  0  0  0  0  0  0  0
   20.2820  -18.5978  -14.7266 C   0  0  0  0  0  0  0  0  0  0  0  0
   20.5114  -19.8716  -14.0039 C   0  0  2  0  0  0  0  0  0  0  0  0
   21.9405  -20.1993  -13.9306 N   0  0  0  0  0  0  0  0  0  0  0  0
   19.7885  -20.9911  -14.6261 C   0  0  0  0  0  0  0  0  0  0  0  0
   18.5401  -21.0935  -14.7130 O   0  0  0  0  0  0  0  0  0  0  0  0
   20.5541  -22.0360  -15.1705 O   0  0  0  0  0  0  0  0  0  0  0  0
  2  1  1  0
  3  2  1  0
  4  3  2  0
  6  5  1  1
  6  7  1  0
  6  8  1  0
  9  8  1  1
  9 10  1  0
  9 11  1  0
 10  3  1  0
 11 18  1  0
 12 11  2  0
 14 13  1  6
 14 15  1  0
 16 14  1  0
 17 19  1  0
 17 16  1  6
 18 17  1  0
 19 21  1  0
 20 19  2  0
M  END
$$$$
