GLL.pdb
     RDKit          3D

 21 20  0  0  1  0  0  0  0  0999 V2000
   42.2269  -13.8113  -12.7401 N   0  0  0  0  0  0  0  0  0  0  0  0
   42.7286  -12.5590  -12.2507 C   0  0  0  0  0  0  0  0  0  0  0  0
   42.3332  -12.3213  -10.8427 C   0  0  0  0  0  0  0  0  0  0  0  0
   41.6078  -13.0921  -10.1887 O   0  0  0  0  0  0  0  0  0  0  0  0
   45.0395   -9.4782   -6.2194 C   0  0  0  0  0  0  0  0  0  0  0  0
   43.6994  -10.1149   -6.6764 C   0  0  2  0  0  0  0  0  0  0  0  0
   43.5687  -11.3721   -5.8492 C   0  0  0  0  0  0  0  0  0  0  0  0
   43.8231  -10.4066   -8.1294 C   0  0  0  0  0  0  0  0  0  0  0  0
   42.5857  -10.8201   -8.8487 C   0  0  2  0  0  0  0  0  0  0  0  0
   42.8271  -11.1251  -10.2149 N   0  0  0  0  0  0  0  0  0  0  0  0
   41.6398   -9.6377   -8.7324 C   0  0  0  0  0  0  0  0  0  0  0  0
   41.7838   -8.6912   -9.5508 O   0  0  0  0  0  0  0  0  0  0  0  0
   36.7822  -10.6238   -6.5515 C   0  0  0  0  0  0  0  0  0  0  0  0
   37.8918  -10.1802   -7.5127 C   0  0  1  0  0  0  0  0  0  0  0  0
   37.3101  -10.1032   -8.9316 C   0  0  0  0  0  0  0  0  0  0  0  0
   38.4135   -8.8425   -7.0806 C   0  0  0  0  0  0  0  0  0  0  0  0
   39.6560   -8.4881   -7.8073 C   0  0  2  0  0  0  0  0  0  0  0  0
   40.6372   -9.5791   -7.7601 N   0  0  0  0  0  0  0  0  0  0  0  0
   40.2690   -7.2613   -7.2760 C   0  0  0  0  0  0  0  0  0  0  0  0
   41.2657   -7.2163   -6.5137 O   0  0  0  0  0  0  0  0  0  0  0  0
   39.6953   -6.0343   -7.6497 O   0  0  0  0  0  0  0  0  0  0  0  0
  2  1  1  0
  3  2  1  0
  4  3  2  0
  6  5  1  1
  6  7  1  0
  6  8  1  0
  9  8  1  6
  9 10  1  0
  9 11  1  0
 10  3  1  0
 11 18  1  0
 12 11  2  0
 14 13  1  1
 14 15  1  0
 16 14  1  0
 17 19  1  0
 17 16  1  1
 18 17  1  0
 19 21  1  0
 20 19  2  0
M  END
$$$$
