GLL.pdb
     RDKit          3D

 21 20  0  0  1  0  0  0  0  0999 V2000
   21.7300  -12.6207  -19.3982 N   0  0  0  0  0  0  0  0  0  0  0  0
   22.2233  -11.2867  -19.2078 C   0  0  0  0  0  0  0  0  0  0  0  0
   21.4502  -10.5568  -18.1759 C   0  0  0  0  0  0  0  0  0  0  0  0
   20.2236  -10.6854  -18.0114 O   0  0  0  0  0  0  0  0  0  0  0  0
   20.9289  -10.1743  -13.5907 C   0  0  0  0  0  0  0  0  0  0  0  0
   22.3437  -10.0385  -14.2153 C   0  0  2  0  0  0  0  0  0  0  0  0
   23.2757   -9.9113  -13.0334 C   0  0  0  0  0  0  0  0  0  0  0  0
   22.3363   -8.8155  -15.0613 C   0  0  0  0  0  0  0  0  0  0  0  0
   21.5491   -8.8663  -16.3251 C   0  0  2  0  0  0  0  0  0  0  0  0
   22.1785   -9.6530  -17.3265 N   0  0  0  0  0  0  0  0  0  0  0  0
   21.4337   -7.4234  -16.7843 C   0  0  0  0  0  0  0  0  0  0  0  0
   22.4916   -6.8331  -17.1287 O   0  0  0  0  0  0  0  0  0  0  0  0
   17.7009   -5.8634  -20.1827 C   0  0  0  0  0  0  0  0  0  0  0  0
   19.0555   -5.9224  -19.4662 C   0  0  1  0  0  0  0  0  0  0  0  0
   20.1267   -5.3285  -20.3920 C   0  0  0  0  0  0  0  0  0  0  0  0
   18.9712   -5.1453  -18.1865 C   0  0  0  0  0  0  0  0  0  0  0  0
   20.1639   -5.3751  -17.3368 C   0  0  2  0  0  0  0  0  0  0  0  0
   20.2080   -6.7529  -16.8319 N   0  0  0  0  0  0  0  0  0  0  0  0
   20.2148   -4.4410  -16.2019 C   0  0  0  0  0  0  0  0  0  0  0  0
   20.0967   -4.7570  -14.9925 O   0  0  0  0  0  0  0  0  0  0  0  0
   20.4120   -3.0798  -16.4896 O   0  0  0  0  0  0  0  0  0  0  0  0
  2  1  1  0
  3  2  1  0
  4  3  2  0
  6  5  1  1
  6  7  1  0
  6  8  1  0
  9  8  1  1
  9 10  1  0
  9 11  1  0
 10  3  1  0
 11 18  1  0
 12 11  2  0
 14 13  1  6
 14 15  1  0
 16 14  1  0
 17 19  1  0
 17 16  1  1
 18 17  1  0
 19 21  1  0
 20 19  2  0
M  END
$$$$
