GLL.pdb
     RDKit          3D

 21 20  0  0  1  0  0  0  0  0999 V2000
   18.2884  -12.0467  -17.1732 N   0  0  0  0  0  0  0  0  0  0  0  0
   18.3742  -10.6145  -17.1441 C   0  0  0  0  0  0  0  0  0  0  0  0
   19.3022  -10.1409  -16.0907 C   0  0  0  0  0  0  0  0  0  0  0  0
   18.9326   -9.7481  -14.9694 O   0  0  0  0  0  0  0  0  0  0  0  0
   22.8944  -11.9887  -13.9523 C   0  0  0  0  0  0  0  0  0  0  0  0
   23.1054  -11.7529  -15.4721 C   0  0  2  0  0  0  0  0  0  0  0  0
   24.4844  -12.2990  -15.7586 C   0  0  0  0  0  0  0  0  0  0  0  0
   23.0199  -10.2869  -15.7066 C   0  0  0  0  0  0  0  0  0  0  0  0
   21.6913   -9.6422  -15.5103 C   0  0  2  0  0  0  0  0  0  0  0  0
   20.7063  -10.1435  -16.4026 N   0  0  0  0  0  0  0  0  0  0  0  0
   21.9227   -8.1621  -15.7593 C   0  0  0  0  0  0  0  0  0  0  0  0
   21.9139   -7.7618  -16.9534 O   0  0  0  0  0  0  0  0  0  0  0  0
   21.4019   -3.6748  -17.0565 C   0  0  0  0  0  0  0  0  0  0  0  0
   20.5721   -4.0069  -15.8104 C   0  0  1  0  0  0  0  0  0  0  0  0
   19.1114   -3.6144  -16.0747 C   0  0  0  0  0  0  0  0  0  0  0  0
   20.6824   -5.4739  -15.5204 C   0  0  0  0  0  0  0  0  0  0  0  0
   22.0194   -5.8175  -14.9803 C   0  0  2  0  0  0  0  0  0  0  0  0
   22.1401   -7.2566  -14.7166 N   0  0  0  0  0  0  0  0  0  0  0  0
   22.3196   -5.0720  -13.7486 C   0  0  0  0  0  0  0  0  0  0  0  0
   22.4356   -5.5738  -12.6035 O   0  0  0  0  0  0  0  0  0  0  0  0
   22.4921   -3.6817  -13.8567 O   0  0  0  0  0  0  0  0  0  0  0  0
  2  1  1  0
  3  2  1  0
  4  3  2  0
  6  5  1  1
  6  7  1  0
  6  8  1  0
  9  8  1  6
  9 10  1  0
  9 11  1  0
 10  3  1  0
 11 18  1  0
 12 11  2  0
 14 13  1  6
 14 15  1  0
 16 14  1  0
 17 19  1  0
 17 16  1  1
 18 17  1  0
 19 21  1  0
 20 19  2  0
M  END
$$$$
