GLL.pdb
     RDKit          3D

 21 20  0  0  1  0  0  0  0  0999 V2000
   20.0615  -24.4945  -12.8793 N   0  0  0  0  0  0  0  0  0  0  0  0
   21.3374  -24.0466  -13.3598 C   0  0  0  0  0  0  0  0  0  0  0  0
   21.6324  -22.6609  -12.9260 C   0  0  0  0  0  0  0  0  0  0  0  0
   20.7805  -21.8897  -12.4487 O   0  0  0  0  0  0  0  0  0  0  0  0
   24.7638  -20.6173   -9.9906 C   0  0  0  0  0  0  0  0  0  0  0  0
   25.3420  -21.4375  -11.1751 C   0  0  2  0  0  0  0  0  0  0  0  0
   26.8410  -21.3290  -11.0231 C   0  0  0  0  0  0  0  0  0  0  0  0
   24.8553  -20.8036  -12.4291 C   0  0  0  0  0  0  0  0  0  0  0  0
   23.3953  -20.8889  -12.7132 C   0  0  2  0  0  0  0  0  0  0  0  0
   22.9872  -22.2009  -13.0737 N   0  0  0  0  0  0  0  0  0  0  0  0
   23.1536  -19.9276  -13.8638 C   0  0  0  0  0  0  0  0  0  0  0  0
   23.4633  -18.7192  -13.6908 O   0  0  0  0  0  0  0  0  0  0  0  0
   24.3710  -20.9343  -18.8644 C   0  0  0  0  0  0  0  0  0  0  0  0
   24.1089  -20.2052  -17.5410 C   0  0  1  0  0  0  0  0  0  0  0  0
   24.9987  -18.9552  -17.4848 C   0  0  0  0  0  0  0  0  0  0  0  0
   22.6597  -19.8278  -17.4640 C   0  0  0  0  0  0  0  0  0  0  0  0
   22.2998  -19.3444  -16.1096 C   0  0  2  0  0  0  0  0  0  0  0  0
   22.6078  -20.3455  -15.0811 N   0  0  0  0  0  0  0  0  0  0  0  0
   20.8782  -18.9785  -16.0197 C   0  0  0  0  0  0  0  0  0  0  0  0
   20.0467  -19.4773  -15.2221 O   0  0  0  0  0  0  0  0  0  0  0  0
   20.4057  -17.9882  -16.8975 O   0  0  0  0  0  0  0  0  0  0  0  0
  2  1  1  0
  3  2  1  0
  4  3  2  0
  6  5  1  1
  6  7  1  0
  6  8  1  0
  9  8  1  6
  9 10  1  0
  9 11  1  0
 10  3  1  0
 11 18  1  0
 12 11  2  0
 14 13  1  6
 14 15  1  0
 16 14  1  0
 17 19  1  0
 17 16  1  6
 18 17  1  0
 19 21  1  0
 20 19  2  0
M  END
$$$$
