GLL.pdb
     RDKit          3D

 21 20  0  0  1  0  0  0  0  0999 V2000
   24.6729  -24.1446    9.1507 N   0  0  0  0  0  0  0  0  0  0  0  0
   25.9837  -24.6902    8.9422 C   0  0  0  0  0  0  0  0  0  0  0  0
   26.8656  -24.4635   10.1111 C   0  0  0  0  0  0  0  0  0  0  0  0
   26.7805  -23.4732   10.8596 O   0  0  0  0  0  0  0  0  0  0  0  0
   31.1130  -27.9592   12.9818 C   0  0  0  0  0  0  0  0  0  0  0  0
   30.5137  -26.5331   12.8497 C   0  0  2  0  0  0  0  0  0  0  0  0
   29.7837  -26.3003   14.1516 C   0  0  0  0  0  0  0  0  0  0  0  0
   29.5929  -26.5485   11.6822 C   0  0  0  0  0  0  0  0  0  0  0  0
   28.8850  -25.2788   11.3565 C   0  0  2  0  0  0  0  0  0  0  0  0
   27.8706  -25.4572   10.3781 N   0  0  0  0  0  0  0  0  0  0  0  0
   29.9605  -24.3421   10.8349 C   0  0  0  0  0  0  0  0  0  0  0  0
   30.5051  -24.6312    9.7366 O   0  0  0  0  0  0  0  0  0  0  0  0
   29.0122  -19.6740    9.5418 C   0  0  0  0  0  0  0  0  0  0  0  0
   29.7413  -21.0217    9.6021 C   0  0  1  0  0  0  0  0  0  0  0  0
   30.3607  -21.3067    8.2264 C   0  0  0  0  0  0  0  0  0  0  0  0
   30.8032  -20.9615   10.6591 C   0  0  0  0  0  0  0  0  0  0  0  0
   31.3594  -22.3063   10.9417 C   0  0  2  0  0  0  0  0  0  0  0  0
   30.3493  -23.1938   11.5309 N   0  0  0  0  0  0  0  0  0  0  0  0
   32.5258  -22.2387   11.8350 C   0  0  0  0  0  0  0  0  0  0  0  0
   32.6026  -22.7624   12.9735 O   0  0  0  0  0  0  0  0  0  0  0  0
   33.6512  -21.5302   11.3811 O   0  0  0  0  0  0  0  0  0  0  0  0
  2  1  1  0
  3  2  1  0
  4  3  2  0
  6  5  1  1
  6  7  1  0
  6  8  1  0
  9  8  1  6
  9 10  1  0
  9 11  1  0
 10  3  1  0
 11 18  1  0
 12 11  2  0
 14 13  1  6
 14 15  1  0
 16 14  1  0
 17 19  1  0
 17 16  1  1
 18 17  1  0
 19 21  1  0
 20 19  2  0
M  END
$$$$
