THF.pdb
     RDKit          3D

 29 30  0  0  1  0  0  0  0  0999 V2000
    7.1294  -12.4519   19.4324 C   0  0  0  0  0  0  0  0  0  0  0  0
    8.1572  -13.4395   18.9678 C   0  0  1  0  0  0  0  0  0  0  0  0
    8.6612  -13.0364   17.7327 O   0  0  0  0  0  0  0  0  0  0  0  0
    9.2903  -13.6266   19.9254 C   0  0  2  0  0  0  0  0  0  0  0  0
   10.4456  -14.1656   19.2601 N   0  0  0  0  0  0  0  0  0  0  0  0
    8.8595  -14.5269   21.0551 C   0  0  0  0  0  0  0  0  0  0  0  0
    7.8337  -14.2597   21.7316 O   0  0  0  0  0  0  0  0  0  0  0  0
    9.5827  -15.6945   21.3958 N   0  0  0  0  0  0  0  0  0  0  0  0
    9.0676  -16.5998   22.4017 C   0  0  1  0  0  0  0  0  0  0  0  0
    9.5020  -18.0086   22.0711 C   0  0  0  0  0  0  0  0  0  0  0  0
    8.7752  -18.6233   20.9592 C   0  0  0  0  0  0  0  0  0  0  0  0
    7.6997  -18.1046   20.2743 C   0  0  0  0  0  0  0  0  0  0  0  0
    7.3435  -18.9913   19.3357 N   0  0  0  0  0  0  0  0  0  0  0  0
    8.1616  -20.0375   19.4187 C   0  0  0  0  0  0  0  0  0  0  0  0
    9.0464  -19.8191   20.4159 N   0  0  0  0  0  0  0  0  0  0  0  0
    9.5017  -16.2548   23.7539 C   0  0  0  0  0  0  0  0  0  0  0  0
   10.6438  -15.7685   23.9387 O   0  0  0  0  0  0  0  0  0  0  0  0
    8.7064  -16.4319   24.9200 N   0  0  0  0  0  0  0  0  0  0  0  0
    9.1355  -16.0339   26.2468 C   0  0  1  0  0  0  0  0  0  0  0  0
    7.9881  -15.4648   27.0446 C   0  0  0  0  0  0  0  0  0  0  0  0
    7.5415  -14.1330   26.5716 C   0  0  0  0  0  0  0  0  0  0  0  0
    6.2596  -13.9546   26.0553 C   0  0  0  0  0  0  0  0  0  0  0  0
    5.8131  -12.7265   25.6150 C   0  0  0  0  0  0  0  0  0  0  0  0
    6.6218  -11.6109   25.6665 C   0  0  0  0  0  0  0  0  0  0  0  0
    7.8923  -11.7759   26.1757 C   0  0  0  0  0  0  0  0  0  0  0  0
    8.3391  -13.0052   26.6164 C   0  0  0  0  0  0  0  0  0  0  0  0
    9.8308  -17.1477   26.9236 C   0  0  0  0  0  0  0  0  0  0  0  0
   10.6108  -16.9927   28.0564 O   0  0  0  0  0  0  0  0  0  0  0  0
    9.7118  -18.3044   26.4481 O   0  0  0  0  0  0  0  0  0  0  0  0
  2  1  1  1
  3  2  1  0
  4  2  1  0
  4  5  1  6
  6  7  2  0
  6  4  1  0
  8  6  1  0
  9  8  1  0
  9 10  1  6
 11 15  1  0
 11 10  1  0
 12 11  2  0
 13 12  1  0
 13 14  1  0
 14 15  2  0
 16 18  1  0
 16  9  1  0
 17 16  2  0
 19 20  1  1
 19 18  1  0
 21 26  1  0
 21 20  1  0
 22 21  2  0
 23 24  2  0
 23 22  1  0
 24 25  1  0
 25 26  2  0
 27 19  1  0
 28 27  1  0
 29 27  2  0
M  END
$$$$
