THF.pdb
     RDKit          3D

 29 30  0  0  1  0  0  0  0  0999 V2000
    8.7328  -12.3298   17.9509 C   0  0  0  0  0  0  0  0  0  0  0  0
    8.8239  -13.2661   19.1183 C   0  0  1  0  0  0  0  0  0  0  0  0
    7.9005  -12.8854   20.0900 O   0  0  0  0  0  0  0  0  0  0  0  0
    8.5996  -14.7004   18.7600 C   0  0  2  0  0  0  0  0  0  0  0  0
    7.3023  -14.8888   18.1690 N   0  0  0  0  0  0  0  0  0  0  0  0
    8.7546  -15.5624   19.9870 C   0  0  0  0  0  0  0  0  0  0  0  0
    7.7681  -15.8054   20.7280 O   0  0  0  0  0  0  0  0  0  0  0  0
   10.0007  -16.1260   20.3502 N   0  0  0  0  0  0  0  0  0  0  0  0
   10.1074  -16.9470   21.5381 C   0  0  1  0  0  0  0  0  0  0  0  0
   11.2708  -17.8983   21.3815 C   0  0  0  0  0  0  0  0  0  0  0  0
   10.9689  -19.1053   20.6104 C   0  0  0  0  0  0  0  0  0  0  0  0
    9.7544  -19.4768   20.0795 C   0  0  0  0  0  0  0  0  0  0  0  0
    9.9212  -20.6482   19.4516 N   0  0  0  0  0  0  0  0  0  0  0  0
   11.1953  -21.0108   19.5773 C   0  0  0  0  0  0  0  0  0  0  0  0
   11.8476  -20.0663   20.2896 N   0  0  0  0  0  0  0  0  0  0  0  0
   10.2740  -16.1620   22.7596 C   0  0  0  0  0  0  0  0  0  0  0  0
   10.9892  -15.1308   22.7473 O   0  0  0  0  0  0  0  0  0  0  0  0
    9.6696  -16.4833   24.0067 N   0  0  0  0  0  0  0  0  0  0  0  0
    9.3085  -15.4886   24.9983 C   0  0  1  0  0  0  0  0  0  0  0  0
    7.9950  -14.8287   24.6573 C   0  0  0  0  0  0  0  0  0  0  0  0
    7.5271  -13.8735   25.6895 C   0  0  0  0  0  0  0  0  0  0  0  0
    6.6359  -12.8534   25.3629 C   0  0  0  0  0  0  0  0  0  0  0  0
    6.1768  -11.9549   26.3027 C   0  0  0  0  0  0  0  0  0  0  0  0
    6.5824  -12.0263   27.6186 C   0  0  0  0  0  0  0  0  0  0  0  0
    7.4642  -13.0319   27.9531 C   0  0  0  0  0  0  0  0  0  0  0  0
    7.9236  -13.9312   27.0123 C   0  0  0  0  0  0  0  0  0  0  0  0
    9.3422  -16.0718   26.3550 C   0  0  0  0  0  0  0  0  0  0  0  0
    8.6984  -17.2463   26.7037 O   0  0  0  0  0  0  0  0  0  0  0  0
    9.9901  -15.4715   27.2484 O   0  0  0  0  0  0  0  0  0  0  0  0
  2  1  1  6
  3  2  1  0
  4  2  1  0
  4  5  1  1
  6  7  2  0
  6  4  1  0
  8  6  1  0
  9  8  1  0
  9 10  1  6
 11 15  1  0
 11 10  1  0
 12 11  2  0
 13 12  1  0
 13 14  1  0
 14 15  2  0
 16 18  1  0
 16  9  1  0
 17 16  2  0
 19 20  1  6
 19 18  1  0
 21 26  1  0
 21 20  1  0
 22 21  2  0
 23 24  2  0
 23 22  1  0
 24 25  1  0
 25 26  2  0
 27 19  1  0
 28 27  1  0
 29 27  2  0
M  END
$$$$
