THF.pdb
     RDKit          3D

 29 30  0  0  1  0  0  0  0  0999 V2000
    9.3641  -12.5497   20.1340 C   0  0  0  0  0  0  0  0  0  0  0  0
    8.4683  -13.0584   19.0448 C   0  0  1  0  0  0  0  0  0  0  0  0
    8.6452  -12.2834   17.9003 O   0  0  0  0  0  0  0  0  0  0  0  0
    8.6895  -14.4977   18.7047 C   0  0  2  0  0  0  0  0  0  0  0  0
    7.8475  -14.9061   17.6129 N   0  0  0  0  0  0  0  0  0  0  0  0
    8.4363  -15.3533   19.9198 C   0  0  0  0  0  0  0  0  0  0  0  0
    7.2632  -15.6550   20.2576 O   0  0  0  0  0  0  0  0  0  0  0  0
    9.4950  -15.8453   20.7194 N   0  0  0  0  0  0  0  0  0  0  0  0
    9.2078  -16.6446   21.8922 C   0  0  1  0  0  0  0  0  0  0  0  0
    9.6090  -18.0770   21.6274 C   0  0  0  0  0  0  0  0  0  0  0  0
    8.6775  -18.8217   20.7787 C   0  0  0  0  0  0  0  0  0  0  0  0
    7.4925  -18.3717   20.2416 C   0  0  0  0  0  0  0  0  0  0  0  0
    6.9568  -19.3728   19.5311 N   0  0  0  0  0  0  0  0  0  0  0  0
    7.7699  -20.4230   19.6118 C   0  0  0  0  0  0  0  0  0  0  0  0
    8.8321  -20.0922   20.3782 N   0  0  0  0  0  0  0  0  0  0  0  0
    9.8843  -16.1574   23.0926 C   0  0  0  0  0  0  0  0  0  0  0  0
   11.1140  -15.9086   23.0597 O   0  0  0  0  0  0  0  0  0  0  0  0
    9.2391  -15.9342   24.3406 N   0  0  0  0  0  0  0  0  0  0  0  0
    9.9263  -15.4364   25.5166 C   0  0  1  0  0  0  0  0  0  0  0  0
    9.7747  -13.9407   25.6460 C   0  0  0  0  0  0  0  0  0  0  0  0
    8.3695  -13.5006   25.8150 C   0  0  0  0  0  0  0  0  0  0  0  0
    7.9233  -12.9983   27.0357 C   0  0  0  0  0  0  0  0  0  0  0  0
    6.6245  -12.5739   27.2209 C   0  0  0  0  0  0  0  0  0  0  0  0
    5.7016  -12.6281   26.1979 C   0  0  0  0  0  0  0  0  0  0  0  0
    6.1322  -13.1233   24.9856 C   0  0  0  0  0  0  0  0  0  0  0  0
    7.4323  -13.5480   24.8003 C   0  0  0  0  0  0  0  0  0  0  0  0
    9.5011  -16.1798   26.7202 C   0  0  0  0  0  0  0  0  0  0  0  0
    8.5133  -17.1492   26.7167 O   0  0  0  0  0  0  0  0  0  0  0  0
   10.0641  -15.9212   27.8131 O   0  0  0  0  0  0  0  0  0  0  0  0
  2  1  1  1
  3  2  1  0
  4  2  1  0
  4  5  1  6
  6  7  2  0
  6  4  1  0
  8  6  1  0
  9  8  1  0
  9 10  1  6
 11 15  1  0
 11 10  1  0
 12 11  2  0
 13 12  1  0
 13 14  1  0
 14 15  2  0
 16 18  1  0
 16  9  1  0
 17 16  2  0
 19 20  1  1
 19 18  1  0
 21 26  1  0
 21 20  1  0
 22 21  2  0
 23 24  2  0
 23 22  1  0
 24 25  1  0
 25 26  2  0
 27 19  1  0
 28 27  1  0
 29 27  2  0
M  END
$$$$
