THF.pdb
     RDKit          3D

 29 30  0  0  1  0  0  0  0  0999 V2000
    8.8636  -12.7216   18.4006 C   0  0  0  0  0  0  0  0  0  0  0  0
    8.7981  -13.5142   19.6715 C   0  0  1  0  0  0  0  0  0  0  0  0
    8.5963  -12.6500   20.7459 O   0  0  0  0  0  0  0  0  0  0  0  0
    7.7314  -14.5621   19.6746 C   0  0  2  0  0  0  0  0  0  0  0  0
    6.4358  -13.9814   19.4467 N   0  0  0  0  0  0  0  0  0  0  0  0
    7.7556  -15.3101   20.9832 C   0  0  0  0  0  0  0  0  0  0  0  0
    6.9207  -15.0482   21.8863 O   0  0  0  0  0  0  0  0  0  0  0  0
    8.7068  -16.3244   21.2451 N   0  0  0  0  0  0  0  0  0  0  0  0
    8.6612  -17.0576   22.4930 C   0  0  1  0  0  0  0  0  0  0  0  0
    9.1796  -18.4584   22.2652 C   0  0  0  0  0  0  0  0  0  0  0  0
    8.3777  -19.2598   21.3394 C   0  0  0  0  0  0  0  0  0  0  0  0
    7.0158  -19.4584   21.3683 C   0  0  0  0  0  0  0  0  0  0  0  0
    6.6947  -20.2558   20.3411 N   0  0  0  0  0  0  0  0  0  0  0  0
    7.8107  -20.5552   19.6810 C   0  0  0  0  0  0  0  0  0  0  0  0
    8.8519  -19.9458   20.2891 N   0  0  0  0  0  0  0  0  0  0  0  0
    9.4281  -16.4157   23.5586 C   0  0  0  0  0  0  0  0  0  0  0  0
   10.4095  -15.6881   23.2714 O   0  0  0  0  0  0  0  0  0  0  0  0
    9.1424  -16.5534   24.9454 N   0  0  0  0  0  0  0  0  0  0  0  0
    9.9531  -15.9583   25.9902 C   0  0  1  0  0  0  0  0  0  0  0  0
   10.1595  -14.4832   25.7484 C   0  0  0  0  0  0  0  0  0  0  0  0
    8.9220  -13.6806   25.8938 C   0  0  0  0  0  0  0  0  0  0  0  0
    7.6780  -14.2303   25.5909 C   0  0  0  0  0  0  0  0  0  0  0  0
    6.5089  -13.5113   25.7238 C   0  0  0  0  0  0  0  0  0  0  0  0
    6.5188  -12.2054   26.1661 C   0  0  0  0  0  0  0  0  0  0  0  0
    7.7443  -11.6513   26.4688 C   0  0  0  0  0  0  0  0  0  0  0  0
    8.9144  -12.3711   26.3358 C   0  0  0  0  0  0  0  0  0  0  0  0
    9.3921  -16.2660   27.3217 C   0  0  0  0  0  0  0  0  0  0  0  0
    8.2144  -16.9663   27.5171 O   0  0  0  0  0  0  0  0  0  0  0  0
   10.0146  -15.8713   28.3390 O   0  0  0  0  0  0  0  0  0  0  0  0
  2  1  1  6
  3  2  1  0
  4  2  1  0
  4  5  1  1
  6  7  2  0
  6  4  1  0
  8  6  1  0
  9  8  1  0
  9 10  1  6
 11 15  1  0
 11 10  1  0
 12 11  2  0
 13 12  1  0
 13 14  1  0
 14 15  2  0
 16 18  1  0
 16  9  1  0
 17 16  2  0
 19 20  1  6
 19 18  1  0
 21 26  1  0
 21 20  1  0
 22 21  2  0
 23 24  2  0
 23 22  1  0
 24 25  1  0
 25 26  2  0
 27 19  1  0
 28 27  1  0
 29 27  2  0
M  END
$$$$
