THF.pdb
     RDKit          3D

 29 30  0  0  1  0  0  0  0  0999 V2000
    9.7745  -12.6587   20.5524 C   0  0  0  0  0  0  0  0  0  0  0  0
    8.7537  -12.8911   19.4793 C   0  0  1  0  0  0  0  0  0  0  0  0
    9.0325  -12.0688   18.3894 O   0  0  0  0  0  0  0  0  0  0  0  0
    8.6759  -14.3114   19.0182 C   0  0  2  0  0  0  0  0  0  0  0  0
    7.5951  -14.4941   18.0874 N   0  0  0  0  0  0  0  0  0  0  0  0
    8.5138  -15.2249   20.2064 C   0  0  0  0  0  0  0  0  0  0  0  0
    7.3747  -15.4549   20.6869 O   0  0  0  0  0  0  0  0  0  0  0  0
    9.6228  -15.8525   20.8216 N   0  0  0  0  0  0  0  0  0  0  0  0
    9.4365  -16.6437   22.0199 C   0  0  1  0  0  0  0  0  0  0  0  0
   10.0607  -18.0048   21.8184 C   0  0  0  0  0  0  0  0  0  0  0  0
    9.4121  -18.8249   20.7941 C   0  0  0  0  0  0  0  0  0  0  0  0
    8.2849  -19.6024   20.9350 C   0  0  0  0  0  0  0  0  0  0  0  0
    8.0356  -20.1830   19.7539 N   0  0  0  0  0  0  0  0  0  0  0  0
    8.9694  -19.7904   18.8910 C   0  0  0  0  0  0  0  0  0  0  0  0
    9.8211  -18.9538   19.5234 N   0  0  0  0  0  0  0  0  0  0  0  0
   10.0019  -16.0140   23.2114 C   0  0  0  0  0  0  0  0  0  0  0  0
   10.9255  -15.1724   23.0951 O   0  0  0  0  0  0  0  0  0  0  0  0
    9.5750  -16.2874   24.5407 N   0  0  0  0  0  0  0  0  0  0  0  0
   10.0601  -15.5629   25.6995 C   0  0  1  0  0  0  0  0  0  0  0  0
    9.8263  -14.0793   25.5538 C   0  0  0  0  0  0  0  0  0  0  0  0
    8.4260  -13.6719   25.8184 C   0  0  0  0  0  0  0  0  0  0  0  0
    8.1075  -12.9055   26.9377 C   0  0  0  0  0  0  0  0  0  0  0  0
    6.8157  -12.5048   27.2059 C   0  0  0  0  0  0  0  0  0  0  0  0
    5.7727  -12.8475   26.3717 C   0  0  0  0  0  0  0  0  0  0  0  0
    6.0763  -13.6057   25.2611 C   0  0  0  0  0  0  0  0  0  0  0  0
    7.3694  -14.0067   24.9927 C   0  0  0  0  0  0  0  0  0  0  0  0
    9.4956  -16.1309   26.9408 C   0  0  0  0  0  0  0  0  0  0  0  0
    8.5361  -17.1281   26.9636 O   0  0  0  0  0  0  0  0  0  0  0  0
    9.9053  -15.6870   28.0423 O   0  0  0  0  0  0  0  0  0  0  0  0
  2  1  1  1
  3  2  1  0
  4  2  1  0
  4  5  1  6
  6  7  2  0
  6  4  1  0
  8  6  1  0
  9  8  1  0
  9 10  1  6
 11 15  1  0
 11 10  1  0
 12 11  2  0
 13 12  1  0
 13 14  1  0
 14 15  2  0
 16 18  1  0
 16  9  1  0
 17 16  2  0
 19 20  1  6
 19 18  1  0
 21 26  1  0
 21 20  1  0
 22 21  2  0
 23 24  2  0
 23 22  1  0
 24 25  1  0
 25 26  2  0
 27 19  1  0
 28 27  1  0
 29 27  2  0
M  END
$$$$
