THF.pdb
     RDKit          3D

 29 30  0  0  1  0  0  0  0  0999 V2000
    9.1853  -19.8631   21.6710 C   0  0  0  0  0  0  0  0  0  0  0  0
    7.7805  -19.3595   21.5278 C   0  0  1  0  0  0  0  0  0  0  0  0
    7.3783  -18.7644   22.7220 O   0  0  0  0  0  0  0  0  0  0  0  0
    7.5997  -18.3867   20.4067 C   0  0  2  0  0  0  0  0  0  0  0  0
    8.0125  -18.9593   19.1539 N   0  0  0  0  0  0  0  0  0  0  0  0
    8.3745  -17.1263   20.6958 C   0  0  0  0  0  0  0  0  0  0  0  0
    9.6176  -17.0821   20.5115 O   0  0  0  0  0  0  0  0  0  0  0  0
    7.7424  -15.9566   21.1800 N   0  0  0  0  0  0  0  0  0  0  0  0
    8.5388  -14.8269   21.6118 C   0  0  1  0  0  0  0  0  0  0  0  0
    7.9804  -13.5631   21.0003 C   0  0  0  0  0  0  0  0  0  0  0  0
    8.0276  -13.5235   19.5379 C   0  0  0  0  0  0  0  0  0  0  0  0
    8.8345  -12.7360   18.7480 C   0  0  0  0  0  0  0  0  0  0  0  0
    8.5556  -13.0154   17.4681 N   0  0  0  0  0  0  0  0  0  0  0  0
    7.6057  -13.9469   17.4421 C   0  0  0  0  0  0  0  0  0  0  0  0
    7.2747  -14.2655   18.7126 N   0  0  0  0  0  0  0  0  0  0  0  0
    8.5906  -14.6894   23.0658 C   0  0  0  0  0  0  0  0  0  0  0  0
    8.0534  -13.6997   23.6197 O   0  0  0  0  0  0  0  0  0  0  0  0
    9.2234  -15.6200   23.9361 N   0  0  0  0  0  0  0  0  0  0  0  0
    9.1418  -15.5433   25.3820 C   0  0  1  0  0  0  0  0  0  0  0  0
    7.7075  -15.4762   25.8457 C   0  0  0  0  0  0  0  0  0  0  0  0
    7.2948  -14.1271   26.3001 C   0  0  0  0  0  0  0  0  0  0  0  0
    8.2270  -13.0973   26.4093 C   0  0  0  0  0  0  0  0  0  0  0  0
    7.8718  -11.8303   26.8214 C   0  0  0  0  0  0  0  0  0  0  0  0
    6.5675  -11.5233   27.1466 C   0  0  0  0  0  0  0  0  0  0  0  0
    5.6367  -12.5347   27.0422 C   0  0  0  0  0  0  0  0  0  0  0  0
    5.9923  -13.8029   26.6296 C   0  0  0  0  0  0  0  0  0  0  0  0
    9.9135  -16.6383   26.0045 C   0  0  0  0  0  0  0  0  0  0  0  0
   10.4652  -16.5669   27.2718 O   0  0  0  0  0  0  0  0  0  0  0  0
   10.0830  -17.6977   25.3507 O   0  0  0  0  0  0  0  0  0  0  0  0
  2  1  1  1
  3  2  1  0
  4  2  1  0
  4  5  1  6
  6  7  2  0
  6  4  1  0
  8  6  1  0
  9  8  1  0
  9 10  1  6
 11 15  1  0
 11 10  1  0
 12 11  2  0
 13 12  1  0
 13 14  1  0
 14 15  2  0
 16 18  1  0
 16  9  1  0
 17 16  2  0
 19 20  1  6
 19 18  1  0
 21 26  1  0
 21 20  1  0
 22 21  2  0
 23 24  2  0
 23 22  1  0
 24 25  1  0
 25 26  2  0
 27 19  1  0
 28 27  1  0
 29 27  2  0
M  END
$$$$
