THF.pdb
     RDKit          3D

 29 30  0  0  1  0  0  0  0  0999 V2000
    4.5292  -19.5731   22.0389 C   0  0  0  0  0  0  0  0  0  0  0  0
    5.7330  -18.7074   22.2603 C   0  0  1  0  0  0  0  0  0  0  0  0
    6.5934  -19.3326   23.1607 O   0  0  0  0  0  0  0  0  0  0  0  0
    6.4816  -18.3832   21.0071 C   0  0  2  0  0  0  0  0  0  0  0  0
    6.9105  -19.5809   20.3367 N   0  0  0  0  0  0  0  0  0  0  0  0
    7.6626  -17.5042   21.3318 C   0  0  0  0  0  0  0  0  0  0  0  0
    8.8314  -17.9674   21.3087 O   0  0  0  0  0  0  0  0  0  0  0  0
    7.5057  -16.1396   21.6715 N   0  0  0  0  0  0  0  0  0  0  0  0
    8.6673  -15.3265   21.9651 C   0  0  1  0  0  0  0  0  0  0  0  0
    8.4256  -13.9188   21.4724 C   0  0  0  0  0  0  0  0  0  0  0  0
    8.4513  -13.7720   20.0163 C   0  0  0  0  0  0  0  0  0  0  0  0
    8.7126  -14.7483   19.0816 C   0  0  0  0  0  0  0  0  0  0  0  0
    8.6338  -14.1872   17.8679 N   0  0  0  0  0  0  0  0  0  0  0  0
    8.3333  -12.9002   18.0224 C   0  0  0  0  0  0  0  0  0  0  0  0
    8.2191  -12.6360   19.3424 N   0  0  0  0  0  0  0  0  0  0  0  0
    8.9988  -15.3002   23.3882 C   0  0  0  0  0  0  0  0  0  0  0  0
    9.9693  -14.6141   23.7915 O   0  0  0  0  0  0  0  0  0  0  0  0
    8.2851  -16.0148   24.3901 N   0  0  0  0  0  0  0  0  0  0  0  0
    8.6699  -16.0277   25.7882 C   0  0  1  0  0  0  0  0  0  0  0  0
    7.5084  -15.6591   26.6782 C   0  0  0  0  0  0  0  0  0  0  0  0
    7.1432  -14.2242   26.6108 C   0  0  0  0  0  0  0  0  0  0  0  0
    8.0874  -13.2364   26.8831 C   0  0  0  0  0  0  0  0  0  0  0  0
    7.7796  -11.8937   26.8208 C   0  0  0  0  0  0  0  0  0  0  0  0
    6.5132  -11.4651   26.4835 C   0  0  0  0  0  0  0  0  0  0  0  0
    5.5709  -12.4341   26.2120 C   0  0  0  0  0  0  0  0  0  0  0  0
    5.8791  -13.7780   26.2743 C   0  0  0  0  0  0  0  0  0  0  0  0
    9.2994  -17.3165   26.1417 C   0  0  0  0  0  0  0  0  0  0  0  0
    9.4666  -18.3613   25.2495 O   0  0  0  0  0  0  0  0  0  0  0  0
    9.7079  -17.4800   27.3184 O   0  0  0  0  0  0  0  0  0  0  0  0
  2  1  1  6
  3  2  1  0
  4  2  1  0
  4  5  1  1
  6  7  2  0
  6  4  1  0
  8  6  1  0
  9  8  1  0
  9 10  1  1
 11 15  1  0
 11 10  1  0
 12 11  2  0
 13 12  1  0
 13 14  1  0
 14 15  2  0
 16 18  1  0
 16  9  1  0
 17 16  2  0
 19 20  1  1
 19 18  1  0
 21 26  1  0
 21 20  1  0
 22 21  2  0
 23 24  2  0
 23 22  1  0
 24 25  1  0
 25 26  2  0
 27 19  1  0
 28 27  1  0
 29 27  2  0
M  END
$$$$
