THF.pdb
     RDKit          3D

 29 30  0  0  1  0  0  0  0  0999 V2000
    9.3170  -12.6417   19.9590 C   0  0  0  0  0  0  0  0  0  0  0  0
    8.3087  -13.2639   19.0404 C   0  0  1  0  0  0  0  0  0  0  0  0
    8.1199  -12.4387   17.9334 O   0  0  0  0  0  0  0  0  0  0  0  0
    8.6817  -14.6352   18.5753 C   0  0  2  0  0  0  0  0  0  0  0  0
    7.7058  -15.1517   17.6541 N   0  0  0  0  0  0  0  0  0  0  0  0
    8.8301  -15.5530   19.7619 C   0  0  0  0  0  0  0  0  0  0  0  0
    7.8355  -16.1678   20.2246 O   0  0  0  0  0  0  0  0  0  0  0  0
   10.0788  -15.7574   20.3953 N   0  0  0  0  0  0  0  0  0  0  0  0
   10.1678  -16.5996   21.5698 C   0  0  1  0  0  0  0  0  0  0  0  0
   11.3205  -17.5623   21.4045 C   0  0  0  0  0  0  0  0  0  0  0  0
   11.1060  -18.5987   20.3934 C   0  0  0  0  0  0  0  0  0  0  0  0
   10.1851  -19.6214   20.4260 C   0  0  0  0  0  0  0  0  0  0  0  0
   10.3274  -20.3388   19.3038 N   0  0  0  0  0  0  0  0  0  0  0  0
   11.3033  -19.7938   18.5817 C   0  0  0  0  0  0  0  0  0  0  0  0
   11.7882  -18.7217   19.2453 N   0  0  0  0  0  0  0  0  0  0  0  0
   10.3360  -15.8374   22.8054 C   0  0  0  0  0  0  0  0  0  0  0  0
   10.8622  -14.6986   22.7707 O   0  0  0  0  0  0  0  0  0  0  0  0
    9.9372  -16.2979   24.0910 N   0  0  0  0  0  0  0  0  0  0  0  0
    9.3783  -15.4317   25.1110 C   0  0  1  0  0  0  0  0  0  0  0  0
    8.2722  -14.5713   24.5514 C   0  0  0  0  0  0  0  0  0  0  0  0
    7.6954  -13.6310   25.5413 C   0  0  0  0  0  0  0  0  0  0  0  0
    8.5194  -12.9223   26.4133 C   0  0  0  0  0  0  0  0  0  0  0  0
    8.0127  -12.0349   27.3391 C   0  0  0  0  0  0  0  0  0  0  0  0
    6.6568  -11.8073   27.4443 C   0  0  0  0  0  0  0  0  0  0  0  0
    5.8321  -12.5032   26.5863 C   0  0  0  0  0  0  0  0  0  0  0  0
    6.3394  -13.3913   25.6596 C   0  0  0  0  0  0  0  0  0  0  0  0
    8.9744  -16.2173   26.2951 C   0  0  0  0  0  0  0  0  0  0  0  0
    9.3746  -15.9227   27.5868 O   0  0  0  0  0  0  0  0  0  0  0  0
    8.2252  -17.2115   26.1263 O   0  0  0  0  0  0  0  0  0  0  0  0
  2  1  1  1
  3  2  1  0
  4  2  1  0
  4  5  1  6
  6  7  2  0
  6  4  1  0
  8  6  1  0
  9  8  1  0
  9 10  1  6
 11 15  1  0
 11 10  1  0
 12 11  2  0
 13 12  1  0
 13 14  1  0
 14 15  2  0
 16 18  1  0
 16  9  1  0
 17 16  2  0
 19 20  1  6
 19 18  1  0
 21 26  1  0
 21 20  1  0
 22 21  2  0
 23 24  2  0
 23 22  1  0
 24 25  1  0
 25 26  2  0
 27 19  1  0
 28 27  1  0
 29 27  2  0
M  END
$$$$
