THF.pdb
     RDKit          3D

 29 30  0  0  1  0  0  0  0  0999 V2000
    6.9372  -20.2368   19.0774 C   0  0  0  0  0  0  0  0  0  0  0  0
    7.7437  -19.0106   19.3830 C   0  0  1  0  0  0  0  0  0  0  0  0
    7.2817  -17.9479   18.6088 O   0  0  0  0  0  0  0  0  0  0  0  0
    7.7199  -18.6168   20.8253 C   0  0  2  0  0  0  0  0  0  0  0  0
    6.3778  -18.3457   21.2649 N   0  0  0  0  0  0  0  0  0  0  0  0
    8.6024  -17.4135   21.0398 C   0  0  0  0  0  0  0  0  0  0  0  0
    9.8204  -17.4490   20.7293 O   0  0  0  0  0  0  0  0  0  0  0  0
    8.1023  -16.2106   21.5921 N   0  0  0  0  0  0  0  0  0  0  0  0
    9.0112  -15.1381   21.9390 C   0  0  1  0  0  0  0  0  0  0  0  0
    8.4974  -13.8431   21.3543 C   0  0  0  0  0  0  0  0  0  0  0  0
    8.4904  -13.7976   19.8913 C   0  0  0  0  0  0  0  0  0  0  0  0
    7.4725  -13.3632   19.0727 C   0  0  0  0  0  0  0  0  0  0  0  0
    7.8821  -13.4914   17.8039 N   0  0  0  0  0  0  0  0  0  0  0  0
    9.1160  -13.9894   17.8125 C   0  0  0  0  0  0  0  0  0  0  0  0
    9.4984  -14.1810   19.0940 N   0  0  0  0  0  0  0  0  0  0  0  0
    9.1924  -14.9897   23.3815 C   0  0  0  0  0  0  0  0  0  0  0  0
    9.2588  -13.8436   23.8886 O   0  0  0  0  0  0  0  0  0  0  0  0
    9.3038  -16.0781   24.2908 N   0  0  0  0  0  0  0  0  0  0  0  0
    8.7864  -16.0427   25.6451 C   0  0  1  0  0  0  0  0  0  0  0  0
    7.3418  -15.6070   25.6671 C   0  0  0  0  0  0  0  0  0  0  0  0
    7.1496  -14.2185   26.1487 C   0  0  0  0  0  0  0  0  0  0  0  0
    8.2454  -13.4064   26.4339 C   0  0  0  0  0  0  0  0  0  0  0  0
    8.0983  -12.1085   26.8757 C   0  0  0  0  0  0  0  0  0  0  0  0
    6.8499  -11.5517   27.0566 C   0  0  0  0  0  0  0  0  0  0  0  0
    5.7585  -12.3463   26.7774 C   0  0  0  0  0  0  0  0  0  0  0  0
    5.9059  -13.6454   26.3351 C   0  0  0  0  0  0  0  0  0  0  0  0
    9.0253  -17.3315   26.3262 C   0  0  0  0  0  0  0  0  0  0  0  0
    9.4498  -17.4408   27.6390 O   0  0  0  0  0  0  0  0  0  0  0  0
    8.8347  -18.3930   25.6819 O   0  0  0  0  0  0  0  0  0  0  0  0
  2  1  1  1
  3  2  1  0
  4  2  1  0
  4  5  1  6
  6  7  2  0
  6  4  1  0
  8  6  1  0
  9  8  1  0
  9 10  1  1
 11 15  1  0
 11 10  1  0
 12 11  2  0
 13 12  1  0
 13 14  1  0
 14 15  2  0
 16 18  1  0
 16  9  1  0
 17 16  2  0
 19 20  1  6
 19 18  1  0
 21 26  1  0
 21 20  1  0
 22 21  2  0
 23 24  2  0
 23 22  1  0
 24 25  1  0
 25 26  2  0
 27 19  1  0
 28 27  1  0
 29 27  2  0
M  END
$$$$
