THF.pdb
     RDKit          3D

 29 30  0  0  1  0  0  0  0  0999 V2000
   11.8541  -17.0604   20.5876 C   0  0  0  0  0  0  0  0  0  0  0  0
   10.9698  -17.3520   19.4127 C   0  0  1  0  0  0  0  0  0  0  0  0
   11.7398  -17.3884   18.2517 O   0  0  0  0  0  0  0  0  0  0  0  0
   10.2039  -18.6302   19.5366 C   0  0  2  0  0  0  0  0  0  0  0  0
    9.4323  -18.8875   18.3507 N   0  0  0  0  0  0  0  0  0  0  0  0
    9.3107  -18.5736   20.7497 C   0  0  0  0  0  0  0  0  0  0  0  0
    8.2408  -17.9133   20.7272 O   0  0  0  0  0  0  0  0  0  0  0  0
    9.6359  -19.2526   21.9478 N   0  0  0  0  0  0  0  0  0  0  0  0
    8.8337  -19.0521   23.1365 C   0  0  1  0  0  0  0  0  0  0  0  0
    9.1840  -20.1103   24.1564 C   0  0  0  0  0  0  0  0  0  0  0  0
    8.4318  -20.0197   25.4087 C   0  0  0  0  0  0  0  0  0  0  0  0
    7.2876  -19.2920   25.6465 C   0  0  0  0  0  0  0  0  0  0  0  0
    6.9316  -19.4909   26.9224 N   0  0  0  0  0  0  0  0  0  0  0  0
    7.8161  -20.3151   27.4783 C   0  0  0  0  0  0  0  0  0  0  0  0
    8.7434  -20.6456   26.5531 N   0  0  0  0  0  0  0  0  0  0  0  0
    9.0079  -17.7252   23.7236 C   0  0  0  0  0  0  0  0  0  0  0  0
   10.1564  -17.2275   23.8142 O   0  0  0  0  0  0  0  0  0  0  0  0
    7.9428  -16.9225   24.2188 N   0  0  0  0  0  0  0  0  0  0  0  0
    8.1378  -15.6091   24.8020 C   0  0  1  0  0  0  0  0  0  0  0  0
    6.9662  -14.7032   24.5127 C   0  0  0  0  0  0  0  0  0  0  0  0
    7.0505  -13.3903   25.1953 C   0  0  0  0  0  0  0  0  0  0  0  0
    6.1220  -13.0353   26.1717 C   0  0  0  0  0  0  0  0  0  0  0  0
    6.1794  -11.8247   26.8294 C   0  0  0  0  0  0  0  0  0  0  0  0
    7.1662  -10.9038   26.5479 C   0  0  0  0  0  0  0  0  0  0  0  0
    8.0904  -11.2447   25.5835 C   0  0  0  0  0  0  0  0  0  0  0  0
    8.0330  -12.4564   24.9252 C   0  0  0  0  0  0  0  0  0  0  0  0
    8.4569  -15.7216   26.2400 C   0  0  0  0  0  0  0  0  0  0  0  0
    8.0326  -16.7661   27.0427 O   0  0  0  0  0  0  0  0  0  0  0  0
    9.1523  -14.8200   26.7708 O   0  0  0  0  0  0  0  0  0  0  0  0
  2  1  1  1
  3  2  1  0
  4  2  1  0
  4  5  1  6
  6  7  2  0
  6  4  1  0
  8  6  1  0
  9  8  1  0
  9 10  1  1
 11 15  1  0
 11 10  1  0
 12 11  2  0
 13 12  1  0
 13 14  1  0
 14 15  2  0
 16 18  1  0
 16  9  1  0
 17 16  2  0
 19 20  1  1
 19 18  1  0
 21 26  1  0
 21 20  1  0
 22 21  2  0
 23 24  2  0
 23 22  1  0
 24 25  1  0
 25 26  2  0
 27 19  1  0
 28 27  1  0
 29 27  2  0
M  END
$$$$
