THF.pdb
     RDKit          3D

 29 30  0  0  1  0  0  0  0  0999 V2000
    8.8163  -12.4458   20.5477 C   0  0  0  0  0  0  0  0  0  0  0  0
    8.2357  -13.0217   19.2913 C   0  0  1  0  0  0  0  0  0  0  0  0
    8.6817  -12.2854   18.1955 O   0  0  0  0  0  0  0  0  0  0  0  0
    8.5637  -14.4655   19.0817 C   0  0  2  0  0  0  0  0  0  0  0  0
    7.9863  -14.9545   17.8589 N   0  0  0  0  0  0  0  0  0  0  0  0
    8.0798  -15.2741   20.2584 C   0  0  0  0  0  0  0  0  0  0  0  0
    6.8514  -15.4768   20.4346 O   0  0  0  0  0  0  0  0  0  0  0  0
    8.9769  -15.8308   21.2005 N   0  0  0  0  0  0  0  0  0  0  0  0
    8.4686  -16.5485   22.3507 C   0  0  1  0  0  0  0  0  0  0  0  0
    8.7040  -18.0283   22.1565 C   0  0  0  0  0  0  0  0  0  0  0  0
   10.0609  -18.3770   21.7325 C   0  0  0  0  0  0  0  0  0  0  0  0
   11.1128  -17.5187   21.5052 C   0  0  0  0  0  0  0  0  0  0  0  0
   12.1696  -18.2530   21.1334 N   0  0  0  0  0  0  0  0  0  0  0  0
   11.8054  -19.5328   21.1238 C   0  0  0  0  0  0  0  0  0  0  0  0
   10.5082  -19.6181   21.4916 N   0  0  0  0  0  0  0  0  0  0  0  0
    9.0758  -16.1138   23.6070 C   0  0  0  0  0  0  0  0  0  0  0  0
   10.2018  -15.5597   23.5982 O   0  0  0  0  0  0  0  0  0  0  0  0
    8.4725  -16.2733   24.8854 N   0  0  0  0  0  0  0  0  0  0  0  0
    9.1143  -15.8811   26.1253 C   0  0  1  0  0  0  0  0  0  0  0  0
    8.1157  -15.3059   27.0995 C   0  0  0  0  0  0  0  0  0  0  0  0
    7.5699  -13.9928   26.6815 C   0  0  0  0  0  0  0  0  0  0  0  0
    8.3618  -12.8471   26.7240 C   0  0  0  0  0  0  0  0  0  0  0  0
    7.8846  -11.6136   26.3343 C   0  0  0  0  0  0  0  0  0  0  0  0
    6.5917  -11.4573   25.8813 C   0  0  0  0  0  0  0  0  0  0  0  0
    5.7992  -12.5843   25.8349 C   0  0  0  0  0  0  0  0  0  0  0  0
    6.2769  -13.8191   26.2250 C   0  0  0  0  0  0  0  0  0  0  0  0
    9.9024  -17.0010   26.6791 C   0  0  0  0  0  0  0  0  0  0  0  0
   10.8635  -16.8524   27.6638 O   0  0  0  0  0  0  0  0  0  0  0  0
    9.6934  -18.1572   26.2343 O   0  0  0  0  0  0  0  0  0  0  0  0
  2  1  1  1
  3  2  1  0
  4  2  1  0
  4  5  1  6
  6  7  2  0
  6  4  1  0
  8  6  1  0
  9  8  1  0
  9 10  1  6
 11 15  1  0
 11 10  1  0
 12 11  2  0
 13 12  1  0
 13 14  1  0
 14 15  2  0
 16 18  1  0
 16  9  1  0
 17 16  2  0
 19 20  1  1
 19 18  1  0
 21 26  1  0
 21 20  1  0
 22 21  2  0
 23 24  2  0
 23 22  1  0
 24 25  1  0
 25 26  2  0
 27 19  1  0
 28 27  1  0
 29 27  2  0
M  END
$$$$
