EGW.pdb
     RDKit          3D

 28 29  0  0  1  0  0  0  0  0999 V2000
   10.9924  -19.3050   19.2180 N   0  0  0  0  0  0  0  0  0  0  0  0
   11.5302  -17.9928   18.7913 C   0  0  1  0  0  0  0  0  0  0  0  0
   11.1318  -17.7376   17.3618 C   0  0  0  0  0  0  0  0  0  0  0  0
   10.5491  -18.9799   16.7603 C   0  0  0  0  0  0  0  0  0  0  0  0
   10.1560  -18.7700   15.3372 C   0  0  0  0  0  0  0  0  0  0  0  0
    9.3423  -19.5458   14.8096 O   0  0  0  0  0  0  0  0  0  0  0  0
   10.9354  -16.9705   19.6672 C   0  0  0  0  0  0  0  0  0  0  0  0
   11.1211  -15.7332   19.4968 O   0  0  0  0  0  0  0  0  0  0  0  0
   10.6943  -17.7267   14.6267 O   0  0  0  0  0  0  0  0  0  0  0  0
   10.1102  -17.3946   20.7597 N   0  0  0  0  0  0  0  0  0  0  0  0
    9.5120  -16.4558   21.6530 C   0  0  0  0  0  0  0  0  0  0  0  0
   10.1208  -16.4197   23.0007 C   0  0  0  0  0  0  0  0  0  0  0  0
   11.3948  -16.4242   23.1362 O   0  0  0  0  0  0  0  0  0  0  0  0
    9.4029  -16.3756   24.2226 N   0  0  0  0  0  0  0  0  0  0  0  0
   10.0902  -16.3012   25.5143 C   0  0  1  0  0  0  0  0  0  0  0  0
    9.7114  -15.0172   26.2377 C   0  0  0  0  0  0  0  0  0  0  0  0
    8.2787  -14.7299   26.1424 C   0  0  0  0  0  0  0  0  0  0  0  0
    7.2574  -15.6408   25.9944 C   0  0  0  0  0  0  0  0  0  0  0  0
    6.0697  -14.9985   25.9448 N   0  0  0  0  0  0  0  0  0  0  0  0
    6.3112  -13.6671   26.0601 C   0  0  0  0  0  0  0  0  0  0  0  0
    5.4558  -12.5953   26.0678 C   0  0  0  0  0  0  0  0  0  0  0  0
    5.9748  -11.3254   26.2005 C   0  0  0  0  0  0  0  0  0  0  0  0
    7.3367  -11.1030   26.3264 C   0  0  0  0  0  0  0  0  0  0  0  0
    8.1756  -12.1980   26.3158 C   0  0  0  0  0  0  0  0  0  0  0  0
    7.6923  -13.4830   26.1847 C   0  0  0  0  0  0  0  0  0  0  0  0
    9.6924  -17.4955   26.2927 C   0  0  0  0  0  0  0  0  0  0  0  0
   10.3946  -17.8889   27.4221 O   0  0  0  0  0  0  0  0  0  0  0  0
    8.7042  -18.1847   25.9474 O   0  0  0  0  0  0  0  0  0  0  0  0
  2  1  1  1
  3  2  1  0
  3  4  1  0
  5  4  1  0
  5  6  2  0
  7  8  2  0
  7  2  1  0
  9  5  1  0
 10  7  1  0
 11 10  1  0
 11 12  1  0
 12 14  1  0
 13 12  2  0
 14 15  1  0
 15 16  1  1
 15 26  1  0
 17 25  1  0
 17 16  1  0
 18 17  2  0
 19 18  1  0
 19 20  1  0
 20 21  1  0
 20 25  2  0
 21 22  2  0
 22 23  1  0
 24 23  2  0
 25 24  1  0
 26 28  2  0
 26 27  1  0
M  END
$$$$
