EGW.pdb
     RDKit          3D

 28 29  0  0  1  0  0  0  0  0999 V2000
    8.2143  -19.1728   20.0151 N   0  0  0  0  0  0  0  0  0  0  0  0
    9.6424  -19.4226   19.7126 C   0  0  1  0  0  0  0  0  0  0  0  0
    9.8434  -19.3911   18.2207 C   0  0  0  0  0  0  0  0  0  0  0  0
    9.0676  -18.2588   17.6206 C   0  0  0  0  0  0  0  0  0  0  0  0
    9.1444  -18.2674   16.1313 C   0  0  0  0  0  0  0  0  0  0  0  0
    8.8338  -19.2979   15.5115 O   0  0  0  0  0  0  0  0  0  0  0  0
   10.4186  -18.3441   20.3456 C   0  0  0  0  0  0  0  0  0  0  0  0
   11.6279  -18.1165   20.0626 O   0  0  0  0  0  0  0  0  0  0  0  0
    9.5557  -17.1422   15.4621 O   0  0  0  0  0  0  0  0  0  0  0  0
    9.7771  -17.5162   21.3241 N   0  0  0  0  0  0  0  0  0  0  0  0
   10.5298  -16.7371   22.2534 C   0  0  0  0  0  0  0  0  0  0  0  0
    9.7086  -15.9557   23.2037 C   0  0  0  0  0  0  0  0  0  0  0  0
    8.4342  -15.9158   23.0776 O   0  0  0  0  0  0  0  0  0  0  0  0
   10.2115  -15.2091   24.2991 N   0  0  0  0  0  0  0  0  0  0  0  0
   10.1443  -15.7189   25.6709 C   0  0  1  0  0  0  0  0  0  0  0  0
    8.8242  -16.4405   25.8990 C   0  0  0  0  0  0  0  0  0  0  0  0
    7.6698  -15.5701   25.6658 C   0  0  0  0  0  0  0  0  0  0  0  0
    6.4905  -15.9052   25.0401 C   0  0  0  0  0  0  0  0  0  0  0  0
    5.6625  -14.8378   25.0137 N   0  0  0  0  0  0  0  0  0  0  0  0
    6.2979  -13.8029   25.6217 C   0  0  0  0  0  0  0  0  0  0  0  0
    5.8963  -12.5124   25.8533 C   0  0  0  0  0  0  0  0  0  0  0  0
    6.7536  -11.6509   26.5033 C   0  0  0  0  0  0  0  0  0  0  0  0
    8.0092  -12.0537   26.9288 C   0  0  0  0  0  0  0  0  0  0  0  0
    8.3890  -13.3570   26.6835 C   0  0  0  0  0  0  0  0  0  0  0  0
    7.5581  -14.2469   26.0359 C   0  0  0  0  0  0  0  0  0  0  0  0
   11.2955  -16.6301   25.8576 C   0  0  0  0  0  0  0  0  0  0  0  0
   11.5939  -17.1728   27.0984 O   0  0  0  0  0  0  0  0  0  0  0  0
   12.0335  -16.9354   24.8916 O   0  0  0  0  0  0  0  0  0  0  0  0
  2  1  1  6
  3  2  1  0
  3  4  1  0
  5  4  1  0
  5  6  2  0
  7  8  2  0
  7  2  1  0
  9  5  1  0
 10  7  1  0
 11 10  1  0
 11 12  1  0
 12 14  1  0
 13 12  2  0
 14 15  1  0
 15 16  1  6
 15 26  1  0
 17 25  1  0
 17 16  1  0
 18 17  2  0
 19 18  1  0
 19 20  1  0
 20 21  1  0
 20 25  2  0
 21 22  2  0
 22 23  1  0
 24 23  2  0
 25 24  1  0
 26 28  2  0
 26 27  1  0
M  END
$$$$
