EGW.pdb
     RDKit          3D

 28 29  0  0  1  0  0  0  0  0999 V2000
   10.7459  -17.1684   18.4827 N   0  0  0  0  0  0  0  0  0  0  0  0
   10.7597  -18.4791   19.1720 C   0  0  1  0  0  0  0  0  0  0  0  0
   12.1856  -18.8751   19.4502 C   0  0  0  0  0  0  0  0  0  0  0  0
   13.1216  -17.8276   18.9297 C   0  0  0  0  0  0  0  0  0  0  0  0
   14.5476  -18.2161   19.1286 C   0  0  0  0  0  0  0  0  0  0  0  0
   14.9320  -18.5647   20.2569 O   0  0  0  0  0  0  0  0  0  0  0  0
   10.0292  -18.3146   20.4390 C   0  0  0  0  0  0  0  0  0  0  0  0
    9.8563  -19.2621   21.2556 O   0  0  0  0  0  0  0  0  0  0  0  0
   15.4182  -18.1849   18.0683 O   0  0  0  0  0  0  0  0  0  0  0  0
    9.4910  -17.0260   20.7619 N   0  0  0  0  0  0  0  0  0  0  0  0
    8.7600  -16.8019   21.9672 C   0  0  0  0  0  0  0  0  0  0  0  0
    9.6004  -16.6718   23.1775 C   0  0  0  0  0  0  0  0  0  0  0  0
   10.8686  -16.8401   23.1065 O   0  0  0  0  0  0  0  0  0  0  0  0
    9.1234  -16.3611   24.4761 N   0  0  0  0  0  0  0  0  0  0  0  0
   10.0404  -16.0810   25.5839 C   0  0  1  0  0  0  0  0  0  0  0  0
    9.2774  -15.4912   26.7609 C   0  0  0  0  0  0  0  0  0  0  0  0
    7.9540  -14.9993   26.3725 C   0  0  0  0  0  0  0  0  0  0  0  0
    6.8356  -15.7535   26.0986 C   0  0  0  0  0  0  0  0  0  0  0  0
    5.8017  -14.9455   25.7761 N   0  0  0  0  0  0  0  0  0  0  0  0
    6.2412  -13.6621   25.8383 C   0  0  0  0  0  0  0  0  0  0  0  0
    5.5922  -12.4771   25.6041 C   0  0  0  0  0  0  0  0  0  0  0  0
    6.2872  -11.2947   25.7409 C   0  0  0  0  0  0  0  0  0  0  0  0
    7.6230  -11.2716   26.1085 C   0  0  0  0  0  0  0  0  0  0  0  0
    8.2525  -12.4773   26.3383 C   0  0  0  0  0  0  0  0  0  0  0  0
    7.5894  -13.6797   26.2111 C   0  0  0  0  0  0  0  0  0  0  0  0
   10.6906  -17.3593   25.9495 C   0  0  0  0  0  0  0  0  0  0  0  0
   10.2496  -18.5682   25.4325 O   0  0  0  0  0  0  0  0  0  0  0  0
   11.6624  -17.3798   26.7407 O   0  0  0  0  0  0  0  0  0  0  0  0
  2  1  1  1
  3  2  1  0
  3  4  1  0
  5  4  1  0
  5  6  2  0
  7  8  2  0
  7  2  1  0
  9  5  1  0
 10  7  1  0
 11 10  1  0
 11 12  1  0
 12 14  1  0
 13 12  2  0
 14 15  1  0
 15 16  1  1
 15 26  1  0
 17 25  1  0
 17 16  1  0
 18 17  2  0
 19 18  1  0
 19 20  1  0
 20 21  1  0
 20 25  2  0
 21 22  2  0
 22 23  1  0
 24 23  2  0
 25 24  1  0
 26 28  2  0
 26 27  1  0
M  END
$$$$
