EGW.pdb
     RDKit          3D

 28 29  0  0  1  0  0  0  0  0999 V2000
   10.2191  -14.0459   19.6811 N   0  0  0  0  0  0  0  0  0  0  0  0
    8.8394  -14.1040   20.2162 C   0  0  1  0  0  0  0  0  0  0  0  0
    7.8943  -14.4748   19.1042 C   0  0  0  0  0  0  0  0  0  0  0  0
    8.6662  -14.9102   17.8964 C   0  0  0  0  0  0  0  0  0  0  0  0
    7.7666  -15.4284   16.8257 C   0  0  0  0  0  0  0  0  0  0  0  0
    6.5414  -15.4665   17.0256 O   0  0  0  0  0  0  0  0  0  0  0  0
    8.8181  -15.1424   21.2590 C   0  0  0  0  0  0  0  0  0  0  0  0
    7.7838  -15.4154   21.9298 O   0  0  0  0  0  0  0  0  0  0  0  0
    8.2979  -15.8562   15.6351 O   0  0  0  0  0  0  0  0  0  0  0  0
   10.0202  -15.8760   21.5256 N   0  0  0  0  0  0  0  0  0  0  0  0
   10.0647  -16.9040   22.5148 C   0  0  0  0  0  0  0  0  0  0  0  0
   10.3235  -16.4207   23.8887 C   0  0  0  0  0  0  0  0  0  0  0  0
   11.2938  -15.6166   24.1203 O   0  0  0  0  0  0  0  0  0  0  0  0
    9.5677  -16.7712   25.0360 N   0  0  0  0  0  0  0  0  0  0  0  0
    9.9650  -16.3388   26.3782 C   0  0  1  0  0  0  0  0  0  0  0  0
    8.7352  -16.1452   27.2532 C   0  0  0  0  0  0  0  0  0  0  0  0
    7.7007  -15.3516   26.5866 C   0  0  0  0  0  0  0  0  0  0  0  0
    6.6599  -15.8219   25.8183 C   0  0  0  0  0  0  0  0  0  0  0  0
    5.9119  -14.7888   25.3723 N   0  0  0  0  0  0  0  0  0  0  0  0
    6.4614  -13.6413   25.8473 C   0  0  0  0  0  0  0  0  0  0  0  0
    6.0886  -12.3317   25.6857 C   0  0  0  0  0  0  0  0  0  0  0  0
    6.8371  -11.3433   26.2877 C   0  0  0  0  0  0  0  0  0  0  0  0
    7.9553  -11.6374   27.0513 C   0  0  0  0  0  0  0  0  0  0  0  0
    8.3090  -12.9627   27.1982 C   0  0  0  0  0  0  0  0  0  0  0  0
    7.5842  -13.9782   26.6106 C   0  0  0  0  0  0  0  0  0  0  0  0
   10.8590  -17.3820   26.9289 C   0  0  0  0  0  0  0  0  0  0  0  0
   11.5476  -17.1898   28.1172 O   0  0  0  0  0  0  0  0  0  0  0  0
   11.0160  -18.4718   26.3301 O   0  0  0  0  0  0  0  0  0  0  0  0
  2  1  1  6
  3  2  1  0
  3  4  1  0
  5  4  1  0
  5  6  2  0
  7  8  2  0
  7  2  1  0
  9  5  1  0
 10  7  1  0
 11 10  1  0
 11 12  1  0
 12 14  1  0
 13 12  2  0
 14 15  1  0
 15 16  1  1
 15 26  1  0
 17 25  1  0
 17 16  1  0
 18 17  2  0
 19 18  1  0
 19 20  1  0
 20 21  1  0
 20 25  2  0
 21 22  2  0
 22 23  1  0
 24 23  2  0
 25 24  1  0
 26 28  2  0
 26 27  1  0
M  END
$$$$
