EGW.pdb
     RDKit          3D

 28 29  0  0  1  0  0  0  0  0999 V2000
    8.3641  -19.2266   21.7598 N   0  0  0  0  0  0  0  0  0  0  0  0
    9.5891  -19.2533   20.9281 C   0  0  1  0  0  0  0  0  0  0  0  0
    9.2014  -19.1648   19.4758 C   0  0  0  0  0  0  0  0  0  0  0  0
    8.2944  -17.9930   19.2557 C   0  0  0  0  0  0  0  0  0  0  0  0
    8.0059  -17.7848   17.8074 C   0  0  0  0  0  0  0  0  0  0  0  0
    8.4836  -18.5703   16.9724 O   0  0  0  0  0  0  0  0  0  0  0  0
   10.3979  -18.0822   21.3029 C   0  0  0  0  0  0  0  0  0  0  0  0
   11.1650  -17.4937   20.4906 O   0  0  0  0  0  0  0  0  0  0  0  0
    7.2189  -16.7324   17.4123 O   0  0  0  0  0  0  0  0  0  0  0  0
   10.3128  -17.5870   22.6452 N   0  0  0  0  0  0  0  0  0  0  0  0
   11.1103  -16.4897   23.0892 C   0  0  0  0  0  0  0  0  0  0  0  0
   10.8897  -16.1039   24.5000 C   0  0  0  0  0  0  0  0  0  0  0  0
   11.5453  -15.1313   25.0157 O   0  0  0  0  0  0  0  0  0  0  0  0
    9.9779  -16.7300   25.3872 N   0  0  0  0  0  0  0  0  0  0  0  0
    9.9813  -16.4387   26.8230 C   0  0  1  0  0  0  0  0  0  0  0  0
    8.5557  -16.2754   27.3293 C   0  0  0  0  0  0  0  0  0  0  0  0
    7.7017  -15.5793   26.3646 C   0  0  0  0  0  0  0  0  0  0  0  0
    6.9714  -16.1438   25.3436 C   0  0  0  0  0  0  0  0  0  0  0  0
    6.3072  -15.1825   24.6650 N   0  0  0  0  0  0  0  0  0  0  0  0
    6.6014  -13.9880   25.2402 C   0  0  0  0  0  0  0  0  0  0  0  0
    6.1898  -12.7165   24.9333 C   0  0  0  0  0  0  0  0  0  0  0  0
    6.6492  -11.6623   25.6931 C   0  0  0  0  0  0  0  0  0  0  0  0
    7.5152  -11.8529   26.7579 C   0  0  0  0  0  0  0  0  0  0  0  0
    7.9141  -13.1416   27.0457 C   0  0  0  0  0  0  0  0  0  0  0  0
    7.4752  -14.2206   26.3076 C   0  0  0  0  0  0  0  0  0  0  0  0
   10.6670  -17.5635   27.4976 C   0  0  0  0  0  0  0  0  0  0  0  0
   10.9311  -17.5370   28.8588 O   0  0  0  0  0  0  0  0  0  0  0  0
   11.0279  -18.5742   26.8501 O   0  0  0  0  0  0  0  0  0  0  0  0
  2  1  1  1
  3  2  1  0
  3  4  1  0
  5  4  1  0
  5  6  2  0
  7  8  2  0
  7  2  1  0
  9  5  1  0
 10  7  1  0
 11 10  1  0
 11 12  1  0
 12 14  1  0
 13 12  2  0
 14 15  1  0
 15 16  1  1
 15 26  1  0
 17 25  1  0
 17 16  1  0
 18 17  2  0
 19 18  1  0
 19 20  1  0
 20 21  1  0
 20 25  2  0
 21 22  2  0
 22 23  1  0
 24 23  2  0
 25 24  1  0
 26 28  2  0
 26 27  1  0
M  END
$$$$
