EGW.pdb
     RDKit          3D

 28 29  0  0  1  0  0  0  0  0999 V2000
   10.9461  -20.7993   19.5108 N   0  0  0  0  0  0  0  0  0  0  0  0
   11.0902  -19.4147   19.0055 C   0  0  1  0  0  0  0  0  0  0  0  0
   10.9884  -19.4247   17.5032 C   0  0  0  0  0  0  0  0  0  0  0  0
   12.3436  -19.6245   16.8968 C   0  0  0  0  0  0  0  0  0  0  0  0
   13.0143  -18.3242   16.6080 C   0  0  0  0  0  0  0  0  0  0  0  0
   13.7859  -17.8368   17.4504 O   0  0  0  0  0  0  0  0  0  0  0  0
    9.9886  -18.6236   19.5770 C   0  0  0  0  0  0  0  0  0  0  0  0
    8.7905  -18.7475   19.1979 O   0  0  0  0  0  0  0  0  0  0  0  0
   12.7742  -17.6810   15.4200 O   0  0  0  0  0  0  0  0  0  0  0  0
   10.2855  -17.6723   20.6072 N   0  0  0  0  0  0  0  0  0  0  0  0
    9.2724  -16.8390   21.1697 C   0  0  0  0  0  0  0  0  0  0  0  0
    9.7405  -15.9597   22.2632 C   0  0  0  0  0  0  0  0  0  0  0  0
   10.7989  -15.2525   22.1175 O   0  0  0  0  0  0  0  0  0  0  0  0
    9.1044  -15.8081   23.5214 N   0  0  0  0  0  0  0  0  0  0  0  0
    9.8751  -15.6908   24.7618 C   0  0  1  0  0  0  0  0  0  0  0  0
    8.9907  -15.9999   25.9609 C   0  0  0  0  0  0  0  0  0  0  0  0
    7.7279  -15.2595   25.9231 C   0  0  0  0  0  0  0  0  0  0  0  0
    6.4691  -15.7753   25.7134 C   0  0  0  0  0  0  0  0  0  0  0  0
    5.5521  -14.7836   25.7488 N   0  0  0  0  0  0  0  0  0  0  0  0
    6.2085  -13.6177   25.9815 C   0  0  0  0  0  0  0  0  0  0  0  0
    5.7440  -12.3337   26.1065 C   0  0  0  0  0  0  0  0  0  0  0  0
    6.6430  -11.3165   26.3450 C   0  0  0  0  0  0  0  0  0  0  0  0
    8.0027  -11.5568   26.4618 C   0  0  0  0  0  0  0  0  0  0  0  0
    8.4442  -12.8572   26.3320 C   0  0  0  0  0  0  0  0  0  0  0  0
    7.5741  -13.9001   26.0931 C   0  0  0  0  0  0  0  0  0  0  0  0
   11.0061  -16.6409   24.6675 C   0  0  0  0  0  0  0  0  0  0  0  0
   12.1502  -16.4809   25.4347 O   0  0  0  0  0  0  0  0  0  0  0  0
   10.9563  -17.6198   23.8864 O   0  0  0  0  0  0  0  0  0  0  0  0
  2  1  1  1
  3  2  1  0
  3  4  1  0
  5  4  1  0
  5  6  2  0
  7  8  2  0
  7  2  1  0
  9  5  1  0
 10  7  1  0
 11 10  1  0
 11 12  1  0
 12 14  1  0
 13 12  2  0
 14 15  1  0
 15 16  1  1
 15 26  1  0
 17 25  1  0
 17 16  1  0
 18 17  2  0
 19 18  1  0
 19 20  1  0
 20 21  1  0
 20 25  2  0
 21 22  2  0
 22 23  1  0
 24 23  2  0
 25 24  1  0
 26 28  2  0
 26 27  1  0
M  END
$$$$
