EGW.pdb
     RDKit          3D

 28 29  0  0  1  0  0  0  0  0999 V2000
   11.0603  -16.2727   18.8342 N   0  0  0  0  0  0  0  0  0  0  0  0
   10.2665  -17.5138   18.6830 C   0  0  1  0  0  0  0  0  0  0  0  0
   11.1640  -18.6158   18.1856 C   0  0  0  0  0  0  0  0  0  0  0  0
   12.5454  -18.0868   17.9481 C   0  0  0  0  0  0  0  0  0  0  0  0
   13.4533  -19.1407   17.4107 C   0  0  0  0  0  0  0  0  0  0  0  0
   14.6070  -19.2377   17.8603 O   0  0  0  0  0  0  0  0  0  0  0  0
    9.7380  -17.8597   20.0123 C   0  0  0  0  0  0  0  0  0  0  0  0
    9.5295  -19.0509   20.3756 O   0  0  0  0  0  0  0  0  0  0  0  0
   13.0082  -19.9899   16.4289 O   0  0  0  0  0  0  0  0  0  0  0  0
    9.4475  -16.8020   20.9350 N   0  0  0  0  0  0  0  0  0  0  0  0
    8.8477  -17.0608   22.2040 C   0  0  0  0  0  0  0  0  0  0  0  0
    9.6618  -16.6363   23.3638 C   0  0  0  0  0  0  0  0  0  0  0  0
   10.8317  -16.1441   23.1885 O   0  0  0  0  0  0  0  0  0  0  0  0
    9.2597  -16.7195   24.7210 N   0  0  0  0  0  0  0  0  0  0  0  0
   10.1100  -16.2217   25.8052 C   0  0  1  0  0  0  0  0  0  0  0  0
    9.2529  -15.6419   26.9208 C   0  0  0  0  0  0  0  0  0  0  0  0
    8.0149  -15.0454   26.4150 C   0  0  0  0  0  0  0  0  0  0  0  0
    6.8848  -15.7094   25.9948 C   0  0  0  0  0  0  0  0  0  0  0  0
    5.9480  -14.8203   25.5976 N   0  0  0  0  0  0  0  0  0  0  0  0
    6.4629  -13.5738   25.7570 C   0  0  0  0  0  0  0  0  0  0  0  0
    5.9235  -12.3389   25.5031 C   0  0  0  0  0  0  0  0  0  0  0  0
    6.6770  -11.2136   25.7595 C   0  0  0  0  0  0  0  0  0  0  0  0
    7.9639  -11.2969   26.2665 C   0  0  0  0  0  0  0  0  0  0  0  0
    8.4831  -12.5509   26.5131 C   0  0  0  0  0  0  0  0  0  0  0  0
    7.7588  -13.6987   26.2688 C   0  0  0  0  0  0  0  0  0  0  0  0
   10.9209  -17.3625   26.2864 C   0  0  0  0  0  0  0  0  0  0  0  0
   11.9720  -17.1793   27.1723 O   0  0  0  0  0  0  0  0  0  0  0  0
   10.6751  -18.5299   25.9020 O   0  0  0  0  0  0  0  0  0  0  0  0
  2  1  1  1
  3  2  1  0
  3  4  1  0
  5  4  1  0
  5  6  2  0
  7  8  2  0
  7  2  1  0
  9  5  1  0
 10  7  1  0
 11 10  1  0
 11 12  1  0
 12 14  1  0
 13 12  2  0
 14 15  1  0
 15 16  1  1
 15 26  1  0
 17 25  1  0
 17 16  1  0
 18 17  2  0
 19 18  1  0
 19 20  1  0
 20 21  1  0
 20 25  2  0
 21 22  2  0
 22 23  1  0
 24 23  2  0
 25 24  1  0
 26 28  2  0
 26 27  1  0
M  END
$$$$
