EGW.pdb
     RDKit          3D

 28 29  0  0  1  0  0  0  0  0999 V2000
    7.8777  -19.7451   20.1259 N   0  0  0  0  0  0  0  0  0  0  0  0
    6.9239  -19.4299   21.2141 C   0  0  1  0  0  0  0  0  0  0  0  0
    7.2379  -20.2898   22.4096 C   0  0  0  0  0  0  0  0  0  0  0  0
    8.6115  -19.9793   22.9204 C   0  0  0  0  0  0  0  0  0  0  0  0
    8.9933  -20.8735   24.0512 C   0  0  0  0  0  0  0  0  0  0  0  0
    8.1767  -21.7118   24.4669 O   0  0  0  0  0  0  0  0  0  0  0  0
    7.1050  -18.0101   21.5568 C   0  0  0  0  0  0  0  0  0  0  0  0
    6.3804  -17.4137   22.4016 O   0  0  0  0  0  0  0  0  0  0  0  0
   10.2373  -20.7626   24.6195 O   0  0  0  0  0  0  0  0  0  0  0  0
    8.1468  -17.2715   20.9060 N   0  0  0  0  0  0  0  0  0  0  0  0
    8.3091  -15.8685   21.1118 C   0  0  0  0  0  0  0  0  0  0  0  0
    9.0485  -15.5118   22.3423 C   0  0  0  0  0  0  0  0  0  0  0  0
    9.7849  -14.4638   22.3746 O   0  0  0  0  0  0  0  0  0  0  0  0
    9.0234  -16.2465   23.5547 N   0  0  0  0  0  0  0  0  0  0  0  0
    9.8379  -15.8534   24.7073 C   0  0  1  0  0  0  0  0  0  0  0  0
    9.0197  -15.9513   25.9865 C   0  0  0  0  0  0  0  0  0  0  0  0
    7.7966  -15.1484   25.9244 C   0  0  0  0  0  0  0  0  0  0  0  0
    6.5226  -15.5960   25.6578 C   0  0  0  0  0  0  0  0  0  0  0  0
    5.6542  -14.5612   25.6873 N   0  0  0  0  0  0  0  0  0  0  0  0
    6.3578  -13.4353   25.9729 C   0  0  0  0  0  0  0  0  0  0  0  0
    5.9521  -12.1332   26.1150 C   0  0  0  0  0  0  0  0  0  0  0  0
    6.8905  -11.1680   26.4109 C   0  0  0  0  0  0  0  0  0  0  0  0
    8.2318  -11.4781   26.5684 C   0  0  0  0  0  0  0  0  0  0  0  0
    8.6139  -12.7953   26.4202 C   0  0  0  0  0  0  0  0  0  0  0  0
    7.7031  -13.7877   26.1242 C   0  0  0  0  0  0  0  0  0  0  0  0
   11.0089  -16.7578   24.7464 C   0  0  0  0  0  0  0  0  0  0  0  0
   12.0146  -16.5976   25.6877 O   0  0  0  0  0  0  0  0  0  0  0  0
   11.1202  -17.6968   23.9238 O   0  0  0  0  0  0  0  0  0  0  0  0
  2  1  1  6
  3  2  1  0
  3  4  1  0
  5  4  1  0
  5  6  2  0
  7  8  2  0
  7  2  1  0
  9  5  1  0
 10  7  1  0
 11 10  1  0
 11 12  1  0
 12 14  1  0
 13 12  2  0
 14 15  1  0
 15 16  1  1
 15 26  1  0
 17 25  1  0
 17 16  1  0
 18 17  2  0
 19 18  1  0
 19 20  1  0
 20 21  1  0
 20 25  2  0
 21 22  2  0
 22 23  1  0
 24 23  2  0
 25 24  1  0
 26 28  2  0
 26 27  1  0
M  END
$$$$
