EGW.pdb
     RDKit          3D

 28 29  0  0  1  0  0  0  0  0999 V2000
   10.2994  -14.8915   17.9972 N   0  0  0  0  0  0  0  0  0  0  0  0
    9.0389  -14.2214   18.3913 C   0  0  1  0  0  0  0  0  0  0  0  0
    8.0016  -14.4554   17.3251 C   0  0  0  0  0  0  0  0  0  0  0  0
    8.4031  -13.7670   16.0566 C   0  0  0  0  0  0  0  0  0  0  0  0
    7.4787  -14.0987   14.9343 C   0  0  0  0  0  0  0  0  0  0  0  0
    6.5939  -14.9530   15.1064 O   0  0  0  0  0  0  0  0  0  0  0  0
    8.5996  -14.8265   19.6590 C   0  0  0  0  0  0  0  0  0  0  0  0
    7.6395  -14.3672   20.3384 O   0  0  0  0  0  0  0  0  0  0  0  0
    7.6134  -13.4601   13.7272 O   0  0  0  0  0  0  0  0  0  0  0  0
    9.2887  -15.9858   20.1444 N   0  0  0  0  0  0  0  0  0  0  0  0
    8.8804  -16.6526   21.3385 C   0  0  0  0  0  0  0  0  0  0  0  0
    9.6145  -16.2367   22.5535 C   0  0  0  0  0  0  0  0  0  0  0  0
   10.7646  -15.6803   22.4567 O   0  0  0  0  0  0  0  0  0  0  0  0
    9.1519  -16.3956   23.8844 N   0  0  0  0  0  0  0  0  0  0  0  0
   10.0041  -16.0863   25.0352 C   0  0  1  0  0  0  0  0  0  0  0  0
    9.1537  -15.8978   26.2829 C   0  0  0  0  0  0  0  0  0  0  0  0
    7.8833  -15.2304   25.9916 C   0  0  0  0  0  0  0  0  0  0  0  0
    6.7157  -15.8192   25.5618 C   0  0  0  0  0  0  0  0  0  0  0  0
    5.7573  -14.8804   25.4013 N   0  0  0  0  0  0  0  0  0  0  0  0
    6.2954  -13.6764   25.7253 C   0  0  0  0  0  0  0  0  0  0  0  0
    5.7482  -12.4190   25.7306 C   0  0  0  0  0  0  0  0  0  0  0  0
    6.5311  -11.3497   26.1093 C   0  0  0  0  0  0  0  0  0  0  0  0
    7.8551  -11.5113   26.4846 C   0  0  0  0  0  0  0  0  0  0  0  0
    8.3814  -12.7863   26.4707 C   0  0  0  0  0  0  0  0  0  0  0  0
    7.6284  -13.8797   26.0975 C   0  0  0  0  0  0  0  0  0  0  0  0
   10.9522  -17.2115   25.1944 C   0  0  0  0  0  0  0  0  0  0  0  0
   12.0191  -17.1382   26.0774 O   0  0  0  0  0  0  0  0  0  0  0  0
   10.8124  -18.2653   24.5304 O   0  0  0  0  0  0  0  0  0  0  0  0
  2  1  1  6
  3  2  1  0
  3  4  1  0
  5  4  1  0
  5  6  2  0
  7  8  2  0
  7  2  1  0
  9  5  1  0
 10  7  1  0
 11 10  1  0
 11 12  1  0
 12 14  1  0
 13 12  2  0
 14 15  1  0
 15 16  1  1
 15 26  1  0
 17 25  1  0
 17 16  1  0
 18 17  2  0
 19 18  1  0
 19 20  1  0
 20 21  1  0
 20 25  2  0
 21 22  2  0
 22 23  1  0
 24 23  2  0
 25 24  1  0
 26 28  2  0
 26 27  1  0
M  END
$$$$
