DTV.pdb
     RDKit          3D

 23 22  0  0  1  0  0  0  0  0999 V2000
   23.2194  -11.5397  -17.3041 N   0  0  0  0  0  0  0  0  0  0  0  0
   22.8117  -10.6699  -18.3980 C   0  0  1  0  0  0  0  0  0  0  0  0
   22.0645  -11.5012  -19.4289 C   0  0  0  0  0  0  0  0  0  0  0  0
   22.1283  -12.9477  -19.1715 C   0  0  0  0  0  0  0  0  0  0  0  0
   22.2984  -13.4053  -18.0230 O   0  0  0  0  0  0  0  0  0  0  0  0
   22.0598   -9.5014  -17.9237 C   0  0  0  0  0  0  0  0  0  0  0  0
   21.7155   -8.6089  -18.7398 O   0  0  0  0  0  0  0  0  0  0  0  0
   22.0030  -13.9011  -20.1934 O   0  0  0  0  0  0  0  0  0  0  0  0
   18.8173   -9.5785  -16.1064 C   0  0  0  0  0  0  0  0  0  0  0  0
   19.7401   -8.6795  -15.3097 C   0  0  1  0  0  0  0  0  0  0  0  0
   20.2604   -9.4355  -14.2590 O   0  0  0  0  0  0  0  0  0  0  0  0
   20.8817   -8.1818  -16.1484 C   0  0  2  0  0  0  0  0  0  0  0  0
   21.6865   -9.3123  -16.5593 N   0  0  0  0  0  0  0  0  0  0  0  0
   21.6761   -7.1245  -15.5021 C   0  0  0  0  0  0  0  0  0  0  0  0
   22.7270   -7.4677  -14.9013 O   0  0  0  0  0  0  0  0  0  0  0  0
   23.4493   -4.3596  -17.1050 C   0  0  0  0  0  0  0  0  0  0  0  0
   22.6458   -3.7341  -16.0165 C   0  0  1  0  0  0  0  0  0  0  0  0
   21.4823   -2.9987  -16.6472 C   0  0  0  0  0  0  0  0  0  0  0  0
   22.1946   -4.7169  -14.9677 C   0  0  2  0  0  0  0  0  0  0  0  0
   21.3317   -5.7451  -15.5142 N   0  0  0  0  0  0  0  0  0  0  0  0
   21.5327   -4.0625  -13.8255 C   0  0  0  0  0  0  0  0  0  0  0  0
   22.1402   -3.2518  -13.0787 O   0  0  0  0  0  0  0  0  0  0  0  0
   20.2001   -4.3183  -13.5268 O   0  0  0  0  0  0  0  0  0  0  0  0
  2  1  1  1
  2  6  1  0
  3  2  1  0
  3  4  1  0
  4  5  2  0
  4  8  1  0
  6  7  2  0
 10  9  1  6
 10 11  1  0
 10 12  1  0
 12 14  1  0
 12 13  1  1
 13  6  1  0
 14 15  2  0
 17 16  1  6
 17 19  1  0
 18 17  1  0
 19 21  1  0
 20 14  1  0
 19 20  1  6
 21 22  2  0
 21 23  1  0
M  END
$$$$
