DTV.pdb
     RDKit          3D

 23 22  0  0  1  0  0  0  0  0999 V2000
   16.1235  -10.2495  -16.1326 N   0  0  0  0  0  0  0  0  0  0  0  0
   16.6695   -9.0650  -15.4858 C   0  0  1  0  0  0  0  0  0  0  0  0
   16.3790   -7.8550  -16.3597 C   0  0  0  0  0  0  0  0  0  0  0  0
   17.0555   -7.9001  -17.6647 C   0  0  0  0  0  0  0  0  0  0  0  0
   16.4216   -8.0393  -18.7306 O   0  0  0  0  0  0  0  0  0  0  0  0
   16.1959   -8.9228  -14.1033 C   0  0  0  0  0  0  0  0  0  0  0  0
   15.0033   -9.2042  -13.8213 O   0  0  0  0  0  0  0  0  0  0  0  0
   18.4483   -7.7903  -17.7955 O   0  0  0  0  0  0  0  0  0  0  0  0
   17.4030  -10.8112  -11.3449 C   0  0  0  0  0  0  0  0  0  0  0  0
   17.4602   -9.3788  -10.8555 C   0  0  1  0  0  0  0  0  0  0  0  0
   18.7745   -8.9355  -11.0040 O   0  0  0  0  0  0  0  0  0  0  0  0
   16.5630   -8.4858  -11.6630 C   0  0  2  0  0  0  0  0  0  0  0  0
   17.0273   -8.4740  -13.0337 N   0  0  0  0  0  0  0  0  0  0  0  0
   16.4125   -7.1329  -11.1030 C   0  0  0  0  0  0  0  0  0  0  0  0
   17.0862   -6.2065  -11.6238 O   0  0  0  0  0  0  0  0  0  0  0  0
   12.9634   -5.3520  -10.1863 C   0  0  0  0  0  0  0  0  0  0  0  0
   13.9636   -5.1846   -9.0938 C   0  0  1  0  0  0  0  0  0  0  0  0
   13.5514   -6.0647   -7.9330 C   0  0  0  0  0  0  0  0  0  0  0  0
   15.3791   -5.4527   -9.5345 C   0  0  2  0  0  0  0  0  0  0  0  0
   15.5568   -6.8084  -10.0148 N   0  0  0  0  0  0  0  0  0  0  0  0
   16.3657   -5.1617   -8.4796 C   0  0  0  0  0  0  0  0  0  0  0  0
   16.5702   -3.9917   -8.0634 O   0  0  0  0  0  0  0  0  0  0  0  0
   17.1146   -6.1777   -7.8990 O   0  0  0  0  0  0  0  0  0  0  0  0
  2  1  1  6
  2  6  1  0
  3  2  1  0
  3  4  1  0
  4  5  2  0
  4  8  1  0
  6  7  2  0
 10  9  1  6
 10 11  1  0
 10 12  1  0
 12 14  1  0
 12 13  1  6
 13  6  1  0
 14 15  2  0
 17 16  1  6
 17 19  1  0
 18 17  1  0
 19 21  1  0
 20 14  1  0
 19 20  1  1
 21 22  2  0
 21 23  1  0
M  END
$$$$
