DTV.pdb
     RDKit          3D

 23 22  0  0  1  0  0  0  0  0999 V2000
   15.6807  -12.7518  -14.0680 N   0  0  0  0  0  0  0  0  0  0  0  0
   15.2282  -11.3685  -14.1010 C   0  0  1  0  0  0  0  0  0  0  0  0
   13.7113  -11.3494  -13.9970 C   0  0  0  0  0  0  0  0  0  0  0  0
   13.0383  -11.9716  -15.1471 C   0  0  0  0  0  0  0  0  0  0  0  0
   13.6556  -12.2672  -16.1906 O   0  0  0  0  0  0  0  0  0  0  0  0
   15.9003  -10.5432  -13.0896 C   0  0  0  0  0  0  0  0  0  0  0  0
   16.1188  -11.0156  -11.9450 O   0  0  0  0  0  0  0  0  0  0  0  0
   11.6675  -12.2713  -15.1461 O   0  0  0  0  0  0  0  0  0  0  0  0
   18.9904   -6.9115  -12.0070 C   0  0  0  0  0  0  0  0  0  0  0  0
   18.2250   -7.7737  -12.9896 C   0  0  1  0  0  0  0  0  0  0  0  0
   19.1000   -8.7524  -13.4614 O   0  0  0  0  0  0  0  0  0  0  0  0
   17.0597   -8.4547  -12.3316 C   0  0  2  0  0  0  0  0  0  0  0  0
   16.3315   -9.2047  -13.3325 N   0  0  0  0  0  0  0  0  0  0  0  0
   16.1950   -7.5429  -11.5651 C   0  0  0  0  0  0  0  0  0  0  0  0
   15.4260   -6.7853  -12.2114 O   0  0  0  0  0  0  0  0  0  0  0  0
   14.1422   -6.1231   -7.2454 C   0  0  0  0  0  0  0  0  0  0  0  0
   15.0053   -7.0534   -8.0273 C   0  0  1  0  0  0  0  0  0  0  0  0
   14.3543   -8.4203   -8.0255 C   0  0  0  0  0  0  0  0  0  0  0  0
   15.2975   -6.5659   -9.4224 C   0  0  2  0  0  0  0  0  0  0  0  0
   16.1744   -7.4650  -10.1455 N   0  0  0  0  0  0  0  0  0  0  0  0
   15.8534   -5.2015   -9.4409 C   0  0  0  0  0  0  0  0  0  0  0  0
   15.1229   -4.1830   -9.3264 O   0  0  0  0  0  0  0  0  0  0  0  0
   17.2181   -4.9857   -9.5869 O   0  0  0  0  0  0  0  0  0  0  0  0
  2  1  1  1
  2  6  1  0
  3  2  1  0
  3  4  1  0
  4  5  2  0
  4  8  1  0
  6  7  2  0
 10  9  1  1
 10 11  1  0
 10 12  1  0
 12 14  1  0
 12 13  1  6
 13  6  1  0
 14 15  2  0
 17 16  1  6
 17 19  1  0
 18 17  1  0
 19 21  1  0
 20 14  1  0
 19 20  1  1
 21 22  2  0
 21 23  1  0
M  END
$$$$
