DTV.pdb
     RDKit          3D

 23 22  0  0  1  0  0  0  0  0999 V2000
   17.4657  -12.2160  -18.4730 N   0  0  0  0  0  0  0  0  0  0  0  0
   17.9005  -11.7559  -17.1621 C   0  0  1  0  0  0  0  0  0  0  0  0
   18.8386  -12.7943  -16.5676 C   0  0  0  0  0  0  0  0  0  0  0  0
   18.1470  -13.9986  -16.0836 C   0  0  0  0  0  0  0  0  0  0  0  0
   16.9018  -14.0764  -16.0556 O   0  0  0  0  0  0  0  0  0  0  0  0
   18.4711  -10.4040  -17.2126 C   0  0  0  0  0  0  0  0  0  0  0  0
   19.2789  -10.1026  -18.1278 O   0  0  0  0  0  0  0  0  0  0  0  0
   18.8373  -15.1308  -15.6249 O   0  0  0  0  0  0  0  0  0  0  0  0
   16.7064   -7.4004  -17.8088 C   0  0  0  0  0  0  0  0  0  0  0  0
   17.5070   -7.0968  -16.5592 C   0  0  1  0  0  0  0  0  0  0  0  0
   16.6574   -7.2605  -15.4649 O   0  0  0  0  0  0  0  0  0  0  0  0
   18.6661   -8.0390  -16.4066 C   0  0  2  0  0  0  0  0  0  0  0  0
   18.1568   -9.3860  -16.2630 N   0  0  0  0  0  0  0  0  0  0  0  0
   19.5961   -7.6659  -15.3284 C   0  0  0  0  0  0  0  0  0  0  0  0
   19.2029   -7.8090  -14.1418 O   0  0  0  0  0  0  0  0  0  0  0  0
   23.2450   -8.9535  -14.9212 C   0  0  0  0  0  0  0  0  0  0  0  0
   23.2157   -7.4704  -14.7755 C   0  0  1  0  0  0  0  0  0  0  0  0
   23.7986   -6.8578  -16.0313 C   0  0  0  0  0  0  0  0  0  0  0  0
   21.8452   -6.9285  -14.4631 C   0  0  2  0  0  0  0  0  0  0  0  0
   20.9059   -7.1559  -15.5430 N   0  0  0  0  0  0  0  0  0  0  0  0
   21.8682   -5.4976  -14.1123 C   0  0  0  0  0  0  0  0  0  0  0  0
   22.4626   -5.0725  -13.0877 O   0  0  0  0  0  0  0  0  0  0  0  0
   21.2283   -4.5546  -14.9071 O   0  0  0  0  0  0  0  0  0  0  0  0
  2  1  1  6
  2  6  1  0
  3  2  1  0
  3  4  1  0
  4  5  2  0
  4  8  1  0
  6  7  2  0
 10  9  1  6
 10 11  1  0
 10 12  1  0
 12 14  1  0
 12 13  1  1
 13  6  1  0
 14 15  2  0
 17 16  1  6
 17 19  1  0
 18 17  1  0
 19 21  1  0
 20 14  1  0
 19 20  1  6
 21 22  2  0
 21 23  1  0
M  END
$$$$
