DTV.pdb
     RDKit          3D

 23 22  0  0  1  0  0  0  0  0999 V2000
   18.4827  -12.7152  -17.0435 N   0  0  0  0  0  0  0  0  0  0  0  0
   19.0669  -11.4712  -17.5236 C   0  0  1  0  0  0  0  0  0  0  0  0
   17.9538  -10.5859  -18.0616 C   0  0  0  0  0  0  0  0  0  0  0  0
   17.1782  -11.2132  -19.1422 C   0  0  0  0  0  0  0  0  0  0  0  0
   17.7244  -11.8880  -20.0388 O   0  0  0  0  0  0  0  0  0  0  0  0
   19.8977  -10.8209  -16.5024 C   0  0  0  0  0  0  0  0  0  0  0  0
   19.4972  -10.7728  -15.3115 O   0  0  0  0  0  0  0  0  0  0  0  0
   15.7831  -11.0946  -19.2351 O   0  0  0  0  0  0  0  0  0  0  0  0
   24.2425   -9.5701  -14.7462 C   0  0  0  0  0  0  0  0  0  0  0  0
   23.3141  -10.2578  -15.7259 C   0  0  1  0  0  0  0  0  0  0  0  0
   23.1687  -11.5814  -15.3099 O   0  0  0  0  0  0  0  0  0  0  0  0
   21.9582   -9.6130  -15.7434 C   0  0  2  0  0  0  0  0  0  0  0  0
   21.1634  -10.2258  -16.7861 N   0  0  0  0  0  0  0  0  0  0  0  0
   22.0002   -8.1456  -15.8501 C   0  0  0  0  0  0  0  0  0  0  0  0
   22.5013   -7.6494  -16.8921 O   0  0  0  0  0  0  0  0  0  0  0  0
   19.5928   -5.6169  -16.4274 C   0  0  0  0  0  0  0  0  0  0  0  0
   20.2782   -5.1614  -15.1846 C   0  0  1  0  0  0  0  0  0  0  0  0
   19.3402   -5.3809  -14.0167 C   0  0  0  0  0  0  0  0  0  0  0  0
   21.6175   -5.8161  -14.9677 C   0  0  2  0  0  0  0  0  0  0  0  0
   21.5118   -7.2570  -14.8533 N   0  0  0  0  0  0  0  0  0  0  0  0
   22.3316   -5.2720  -13.7994 C   0  0  0  0  0  0  0  0  0  0  0  0
   22.7903   -4.1001  -13.7857 O   0  0  0  0  0  0  0  0  0  0  0  0
   22.5275   -6.0395  -12.6580 O   0  0  0  0  0  0  0  0  0  0  0  0
  2  1  1  1
  2  6  1  0
  3  2  1  0
  3  4  1  0
  4  5  2  0
  4  8  1  0
  6  7  2  0
 10  9  1  1
 10 11  1  0
 10 12  1  0
 12 14  1  0
 12 13  1  6
 13  6  1  0
 14 15  2  0
 17 16  1  6
 17 19  1  0
 18 17  1  0
 19 21  1  0
 20 14  1  0
 19 20  1  1
 21 22  2  0
 21 23  1  0
M  END
$$$$
