DTV.pdb
     RDKit          3D

 23 22  0  0  1  0  0  0  0  0999 V2000
   25.8058  -19.2595  -19.1479 N   0  0  0  0  0  0  0  0  0  0  0  0
   26.1285  -18.0685  -18.3754 C   0  0  1  0  0  0  0  0  0  0  0  0
   25.9711  -16.8495  -19.2706 C   0  0  0  0  0  0  0  0  0  0  0  0
   27.0007  -16.7549  -20.3164 C   0  0  0  0  0  0  0  0  0  0  0  0
   26.7472  -16.9977  -21.5140 O   0  0  0  0  0  0  0  0  0  0  0  0
   25.3543  -17.9912  -17.1302 C   0  0  0  0  0  0  0  0  0  0  0  0
   25.4103  -16.9515  -16.4253 O   0  0  0  0  0  0  0  0  0  0  0  0
   28.3261  -16.3881  -20.0378 O   0  0  0  0  0  0  0  0  0  0  0  0
   22.0725  -17.4687  -16.6000 C   0  0  0  0  0  0  0  0  0  0  0  0
   22.2981  -18.7442  -15.8146 C   0  0  1  0  0  0  0  0  0  0  0  0
   21.9204  -19.8122  -16.6287 O   0  0  0  0  0  0  0  0  0  0  0  0
   23.7439  -18.9147  -15.4467 C   0  0  2  0  0  0  0  0  0  0  0  0
   24.5213  -19.0502  -16.6598 N   0  0  0  0  0  0  0  0  0  0  0  0
   23.9881  -20.0072  -14.4910 C   0  0  0  0  0  0  0  0  0  0  0  0
   24.2480  -21.1459  -14.9589 O   0  0  0  0  0  0  0  0  0  0  0  0
   24.7954  -19.4446  -10.2804 C   0  0  0  0  0  0  0  0  0  0  0  0
   25.1639  -20.6382  -11.0935 C   0  0  1  0  0  0  0  0  0  0  0  0
   25.3920  -21.8023  -10.1527 C   0  0  0  0  0  0  0  0  0  0  0  0
   24.1568  -20.9639  -12.1656 C   0  0  2  0  0  0  0  0  0  0  0  0
   23.9489  -19.8570  -13.0776 N   0  0  0  0  0  0  0  0  0  0  0  0
   22.8648  -21.4073  -11.6133 C   0  0  0  0  0  0  0  0  0  0  0  0
   22.7440  -22.4956  -10.9928 O   0  0  0  0  0  0  0  0  0  0  0  0
   21.7201  -20.6334  -11.7581 O   0  0  0  0  0  0  0  0  0  0  0  0
  2  1  1  6
  2  6  1  0
  3  2  1  0
  3  4  1  0
  4  5  2  0
  4  8  1  0
  6  7  2  0
 10  9  1  6
 10 11  1  0
 10 12  1  0
 12 14  1  0
 12 13  1  6
 13  6  1  0
 14 15  2  0
 17 16  1  1
 17 19  1  0
 18 17  1  0
 19 21  1  0
 20 14  1  0
 19 20  1  1
 21 22  2  0
 21 23  1  0
M  END
$$$$
