DTV.pdb
     RDKit          3D

 23 22  0  0  1  0  0  0  0  0999 V2000
   18.8227  -15.1632  -17.4130 N   0  0  0  0  0  0  0  0  0  0  0  0
   19.1859  -13.8643  -17.9611 C   0  0  1  0  0  0  0  0  0  0  0  0
   17.9617  -13.2571  -18.6278 C   0  0  0  0  0  0  0  0  0  0  0  0
   17.5036  -14.0092  -19.8056 C   0  0  0  0  0  0  0  0  0  0  0  0
   17.2702  -15.2341  -19.7550 O   0  0  0  0  0  0  0  0  0  0  0  0
   19.8035  -12.9928  -16.9537 C   0  0  0  0  0  0  0  0  0  0  0  0
   19.2841  -12.8940  -15.8129 O   0  0  0  0  0  0  0  0  0  0  0  0
   17.3005  -13.4028  -21.0546 O   0  0  0  0  0  0  0  0  0  0  0  0
   23.6913  -10.7040  -15.0910 C   0  0  0  0  0  0  0  0  0  0  0  0
   23.0248  -11.6344  -16.0834 C   0  0  1  0  0  0  0  0  0  0  0  0
   23.2117  -12.9396  -15.6277 O   0  0  0  0  0  0  0  0  0  0  0  0
   21.5498  -11.3707  -16.1791 C   0  0  2  0  0  0  0  0  0  0  0  0
   20.9866  -12.2326  -17.1963 N   0  0  0  0  0  0  0  0  0  0  0  0
   21.2126   -9.9529  -16.3862 C   0  0  0  0  0  0  0  0  0  0  0  0
   21.5411   -9.4281  -17.4816 O   0  0  0  0  0  0  0  0  0  0  0  0
   18.3652   -6.0513  -15.6373 C   0  0  0  0  0  0  0  0  0  0  0  0
   18.7308   -7.4866  -15.4698 C   0  0  1  0  0  0  0  0  0  0  0  0
   17.8609   -8.3098  -16.3959 C   0  0  0  0  0  0  0  0  0  0  0  0
   20.1978   -7.7570  -15.6796 C   0  0  2  0  0  0  0  0  0  0  0  0
   20.5416   -9.1425  -15.4298 N   0  0  0  0  0  0  0  0  0  0  0  0
   21.0578   -6.8742  -14.8722 C   0  0  0  0  0  0  0  0  0  0  0  0
   21.4514   -7.1984  -13.7215 O   0  0  0  0  0  0  0  0  0  0  0  0
   21.4706   -5.6386  -15.3552 O   0  0  0  0  0  0  0  0  0  0  0  0
  2  1  1  1
  2  6  1  0
  3  2  1  0
  3  4  1  0
  4  5  2  0
  4  8  1  0
  6  7  2  0
 10  9  1  1
 10 11  1  0
 10 12  1  0
 12 14  1  0
 12 13  1  6
 13  6  1  0
 14 15  2  0
 17 16  1  6
 17 19  1  0
 18 17  1  0
 19 21  1  0
 20 14  1  0
 19 20  1  1
 21 22  2  0
 21 23  1  0
M  END
$$$$
