DTV.pdb
     RDKit          3D

 23 22  0  0  1  0  0  0  0  0999 V2000
   15.8775  -10.6432  -17.1381 N   0  0  0  0  0  0  0  0  0  0  0  0
   16.3112  -10.1011  -15.8584 C   0  0  1  0  0  0  0  0  0  0  0  0
   16.9008  -11.2288  -15.0262 C   0  0  0  0  0  0  0  0  0  0  0  0
   15.9264  -12.2768  -14.6872 C   0  0  0  0  0  0  0  0  0  0  0  0
   14.7408  -12.2235  -15.0732 O   0  0  0  0  0  0  0  0  0  0  0  0
   17.2125   -8.9536  -16.0217 C   0  0  0  0  0  0  0  0  0  0  0  0
   18.1295   -8.9991  -16.8808 O   0  0  0  0  0  0  0  0  0  0  0  0
   16.2638  -13.3974  -13.9130 O   0  0  0  0  0  0  0  0  0  0  0  0
   16.1739   -5.6172  -16.9721 C   0  0  0  0  0  0  0  0  0  0  0  0
   17.0578   -5.4182  -15.7581 C   0  0  1  0  0  0  0  0  0  0  0  0
   16.2234   -5.2586  -14.6515 O   0  0  0  0  0  0  0  0  0  0  0  0
   17.9411   -6.6088  -15.5200 C   0  0  2  0  0  0  0  0  0  0  0  0
   17.1084   -7.7603  -15.2460 N   0  0  0  0  0  0  0  0  0  0  0  0
   18.9657   -6.3903  -14.4861 C   0  0  0  0  0  0  0  0  0  0  0  0
   18.6095   -6.4783  -13.2825 O   0  0  0  0  0  0  0  0  0  0  0  0
   22.0349   -8.4171  -13.8827 C   0  0  0  0  0  0  0  0  0  0  0  0
   22.4636   -6.9917  -13.9602 C   0  0  1  0  0  0  0  0  0  0  0  0
   23.1408   -6.7710  -15.2963 C   0  0  0  0  0  0  0  0  0  0  0  0
   21.3393   -6.0168  -13.7260 C   0  0  2  0  0  0  0  0  0  0  0  0
   20.3274   -6.0872  -14.7611 N   0  0  0  0  0  0  0  0  0  0  0  0
   21.8133   -4.6291  -13.5826 C   0  0  0  0  0  0  0  0  0  0  0  0
   21.5944   -3.7563  -14.4625 O   0  0  0  0  0  0  0  0  0  0  0  0
   22.5266   -4.2279  -12.4598 O   0  0  0  0  0  0  0  0  0  0  0  0
  2  1  1  6
  2  6  1  0
  3  2  1  0
  3  4  1  0
  4  5  2  0
  4  8  1  0
  6  7  2  0
 10  9  1  6
 10 11  1  0
 10 12  1  0
 12 14  1  0
 12 13  1  1
 13  6  1  0
 14 15  2  0
 17 16  1  6
 17 19  1  0
 18 17  1  0
 19 21  1  0
 20 14  1  0
 19 20  1  6
 21 22  2  0
 21 23  1  0
M  END
$$$$
