DTV.pdb
     RDKit          3D

 23 22  0  0  1  0  0  0  0  0999 V2000
   16.8522  -11.4001  -17.1974 N   0  0  0  0  0  0  0  0  0  0  0  0
   16.6467  -10.0445  -16.7079 C   0  0  1  0  0  0  0  0  0  0  0  0
   15.9453  -10.1141  -15.3606 C   0  0  0  0  0  0  0  0  0  0  0  0
   14.6350  -10.7794  -15.4170 C   0  0  0  0  0  0  0  0  0  0  0  0
   13.8011  -10.5173  -16.3077 O   0  0  0  0  0  0  0  0  0  0  0  0
   17.8940   -9.2703  -16.6855 C   0  0  0  0  0  0  0  0  0  0  0  0
   18.9716   -9.8343  -16.3664 O   0  0  0  0  0  0  0  0  0  0  0  0
   14.2395  -11.7455  -14.4793 O   0  0  0  0  0  0  0  0  0  0  0  0
   20.3347   -5.1046  -17.8619 C   0  0  0  0  0  0  0  0  0  0  0  0
   19.0771   -5.9487  -17.8848 C   0  0  1  0  0  0  0  0  0  0  0  0
   18.8690   -6.3584  -19.2019 O   0  0  0  0  0  0  0  0  0  0  0  0
   19.2194   -7.1704  -17.0235 C   0  0  2  0  0  0  0  0  0  0  0  0
   17.9596   -7.8827  -17.0122 N   0  0  0  0  0  0  0  0  0  0  0  0
   19.7232   -6.8867  -15.6699 C   0  0  0  0  0  0  0  0  0  0  0  0
   18.9456   -6.3108  -14.8656 O   0  0  0  0  0  0  0  0  0  0  0  0
   21.1774   -9.3026  -13.0743 C   0  0  0  0  0  0  0  0  0  0  0  0
   22.1152   -8.1535  -13.2226 C   0  0  1  0  0  0  0  0  0  0  0  0
   23.3364   -8.6312  -13.9793 C   0  0  0  0  0  0  0  0  0  0  0  0
   21.4837   -6.9475  -13.8676 C   0  0  2  0  0  0  0  0  0  0  0  0
   21.0283   -7.2216  -15.2159 N   0  0  0  0  0  0  0  0  0  0  0  0
   22.3747   -5.7739  -13.8688 C   0  0  0  0  0  0  0  0  0  0  0  0
   22.8853   -5.3264  -14.9285 O   0  0  0  0  0  0  0  0  0  0  0  0
   22.6878   -5.1108  -12.6888 O   0  0  0  0  0  0  0  0  0  0  0  0
  2  1  1  1
  2  6  1  0
  3  2  1  0
  3  4  1  0
  4  5  2  0
  4  8  1  0
  6  7  2  0
 10  9  1  6
 10 11  1  0
 10 12  1  0
 12 14  1  0
 12 13  1  1
 13  6  1  0
 14 15  2  0
 17 16  1  6
 17 19  1  0
 18 17  1  0
 19 21  1  0
 20 14  1  0
 19 20  1  6
 21 22  2  0
 21 23  1  0
M  END
$$$$
