DTV.pdb
     RDKit          3D

 23 22  0  0  1  0  0  0  0  0999 V2000
   19.9753  -12.9480  -18.3493 N   0  0  0  0  0  0  0  0  0  0  0  0
   20.6090  -11.6612  -18.5981 C   0  0  1  0  0  0  0  0  0  0  0  0
   19.7162  -10.8490  -19.5229 C   0  0  0  0  0  0  0  0  0  0  0  0
   19.6452  -11.3880  -20.8894 C   0  0  0  0  0  0  0  0  0  0  0  0
   19.2062  -12.5324  -21.1239 O   0  0  0  0  0  0  0  0  0  0  0  0
   20.9566  -10.9666  -17.3521 C   0  0  0  0  0  0  0  0  0  0  0  0
   20.1118  -10.8923  -16.4238 O   0  0  0  0  0  0  0  0  0  0  0  0
   20.0636  -10.6557  -22.0108 O   0  0  0  0  0  0  0  0  0  0  0  0
   23.8767  -11.7576  -15.2253 C   0  0  0  0  0  0  0  0  0  0  0  0
   23.8868  -10.2527  -15.3977 C   0  0  1  0  0  0  0  0  0  0  0  0
   24.8339   -9.9474  -16.3754 O   0  0  0  0  0  0  0  0  0  0  0  0
   22.5504   -9.7428  -15.8545 C   0  0  2  0  0  0  0  0  0  0  0  0
   22.2262  -10.3558  -17.1248 N   0  0  0  0  0  0  0  0  0  0  0  0
   22.4571   -8.2743  -15.8927 C   0  0  0  0  0  0  0  0  0  0  0  0
   23.0223   -7.6773  -16.8452 O   0  0  0  0  0  0  0  0  0  0  0  0
   19.7293   -6.1324  -16.5965 C   0  0  0  0  0  0  0  0  0  0  0  0
   20.2627   -5.5943  -15.3128 C   0  0  1  0  0  0  0  0  0  0  0  0
   19.2969   -5.9608  -14.2060 C   0  0  0  0  0  0  0  0  0  0  0  0
   21.6676   -6.0483  -15.0135 C   0  0  2  0  0  0  0  0  0  0  0  0
   21.7709   -7.4911  -14.9245 N   0  0  0  0  0  0  0  0  0  0  0  0
   22.2146   -5.4308  -13.7927 C   0  0  0  0  0  0  0  0  0  0  0  0
   22.4918   -4.2046  -13.7333 O   0  0  0  0  0  0  0  0  0  0  0  0
   22.4473   -6.1861  -12.6500 O   0  0  0  0  0  0  0  0  0  0  0  0
  2  1  1  1
  2  6  1  0
  3  2  1  0
  3  4  1  0
  4  5  2  0
  4  8  1  0
  6  7  2  0
 10  9  1  6
 10 11  1  0
 10 12  1  0
 12 14  1  0
 12 13  1  6
 13  6  1  0
 14 15  2  0
 17 16  1  6
 17 19  1  0
 18 17  1  0
 19 21  1  0
 20 14  1  0
 19 20  1  1
 21 22  2  0
 21 23  1  0
M  END
$$$$
