DTV.pdb
     RDKit          3D

 23 22  0  0  1  0  0  0  0  0999 V2000
   19.2099  -12.9655  -17.5346 N   0  0  0  0  0  0  0  0  0  0  0  0
   18.8204  -11.5882  -17.2690 C   0  0  1  0  0  0  0  0  0  0  0  0
   17.6105  -11.5929  -16.3481 C   0  0  0  0  0  0  0  0  0  0  0  0
   16.4632  -12.3337  -16.8935 C   0  0  0  0  0  0  0  0  0  0  0  0
   16.0225  -13.3636  -16.3434 O   0  0  0  0  0  0  0  0  0  0  0  0
   19.9418  -10.7841  -16.7673 C   0  0  0  0  0  0  0  0  0  0  0  0
   20.6998  -11.2560  -15.8820 O   0  0  0  0  0  0  0  0  0  0  0  0
   15.7938  -11.9338  -18.0601 O   0  0  0  0  0  0  0  0  0  0  0  0
   22.8563   -9.4921  -18.4776 C   0  0  0  0  0  0  0  0  0  0  0  0
   22.2415   -8.2866  -17.7969 C   0  0  1  0  0  0  0  0  0  0  0  0
   21.4962   -7.5974  -18.7537 O   0  0  0  0  0  0  0  0  0  0  0  0
   21.3226   -8.6944  -16.6815 C   0  0  2  0  0  0  0  0  0  0  0  0
   20.2312   -9.4671  -17.2349 N   0  0  0  0  0  0  0  0  0  0  0  0
   20.8588   -7.5693  -15.8534 C   0  0  0  0  0  0  0  0  0  0  0  0
   19.8305   -6.9505  -16.2313 O   0  0  0  0  0  0  0  0  0  0  0  0
   19.5735   -7.5718  -12.4463 C   0  0  0  0  0  0  0  0  0  0  0  0
   20.6143   -6.5048  -12.4579 C   0  0  1  0  0  0  0  0  0  0  0  0
   21.8121   -7.0007  -11.6759 C   0  0  0  0  0  0  0  0  0  0  0  0
   20.9898   -6.0526  -13.8450 C   0  0  2  0  0  0  0  0  0  0  0  0
   21.4975   -7.1397  -14.6579 N   0  0  0  0  0  0  0  0  0  0  0  0
   21.9560   -4.9403  -13.8362 C   0  0  0  0  0  0  0  0  0  0  0  0
   23.1545   -5.0964  -14.1874 O   0  0  0  0  0  0  0  0  0  0  0  0
   21.5770   -3.6650  -13.4358 O   0  0  0  0  0  0  0  0  0  0  0  0
  2  1  1  1
  2  6  1  0
  3  2  1  0
  3  4  1  0
  4  5  2  0
  4  8  1  0
  6  7  2  0
 10  9  1  6
 10 11  1  0
 10 12  1  0
 12 14  1  0
 12 13  1  6
 13  6  1  0
 14 15  2  0
 17 16  1  6
 17 19  1  0
 18 17  1  0
 19 21  1  0
 20 14  1  0
 19 20  1  6
 21 22  2  0
 21 23  1  0
M  END
$$$$
