DTV.pdb
     RDKit          3D

 23 22  0  0  1  0  0  0  0  0999 V2000
   15.5025  -11.1783  -16.6895 N   0  0  0  0  0  0  0  0  0  0  0  0
   16.0834  -10.6636  -15.4578 C   0  0  1  0  0  0  0  0  0  0  0  0
   16.6841  -11.8240  -14.6803 C   0  0  0  0  0  0  0  0  0  0  0  0
   15.6930  -12.8323  -14.2755 C   0  0  0  0  0  0  0  0  0  0  0  0
   14.4688  -12.6564  -14.4420 O   0  0  0  0  0  0  0  0  0  0  0  0
   17.0283   -9.5681  -15.7085 C   0  0  0  0  0  0  0  0  0  0  0  0
   17.7840   -9.6147  -16.7124 O   0  0  0  0  0  0  0  0  0  0  0  0
   16.0567  -14.0496  -13.6797 O   0  0  0  0  0  0  0  0  0  0  0  0
   16.1957   -6.2224  -16.5210 C   0  0  0  0  0  0  0  0  0  0  0  0
   17.1706   -6.0821  -15.3702 C   0  0  1  0  0  0  0  0  0  0  0  0
   16.4241   -5.8965  -14.2064 O   0  0  0  0  0  0  0  0  0  0  0  0
   18.0086   -7.3171  -15.2059 C   0  0  2  0  0  0  0  0  0  0  0  0
   17.1440   -8.4254  -14.8615 N   0  0  0  0  0  0  0  0  0  0  0  0
   19.1263   -7.1546  -14.2621 C   0  0  0  0  0  0  0  0  0  0  0  0
   18.8708   -7.2411  -13.0331 O   0  0  0  0  0  0  0  0  0  0  0  0
   22.3368   -9.1772  -13.9738 C   0  0  0  0  0  0  0  0  0  0  0  0
   22.7006   -7.7332  -14.0412 C   0  0  1  0  0  0  0  0  0  0  0  0
   23.2665   -7.4494  -15.4164 C   0  0  0  0  0  0  0  0  0  0  0  0
   21.5584   -6.8134  -13.6965 C   0  0  2  0  0  0  0  0  0  0  0  0
   20.4715   -6.9070  -14.6505 N   0  0  0  0  0  0  0  0  0  0  0  0
   21.9836   -5.4095  -13.5577 C   0  0  0  0  0  0  0  0  0  0  0  0
   21.6778   -4.5338  -14.4084 O   0  0  0  0  0  0  0  0  0  0  0  0
   22.7455   -4.9955  -12.4722 O   0  0  0  0  0  0  0  0  0  0  0  0
  2  1  1  6
  2  6  1  0
  3  2  1  0
  3  4  1  0
  4  5  2  0
  4  8  1  0
  6  7  2  0
 10  9  1  6
 10 11  1  0
 10 12  1  0
 12 14  1  0
 12 13  1  1
 13  6  1  0
 14 15  2  0
 17 16  1  6
 17 19  1  0
 18 17  1  0
 19 21  1  0
 20 14  1  0
 19 20  1  6
 21 22  2  0
 21 23  1  0
M  END
$$$$
