DTV.pdb
     RDKit          3D

 23 22  0  0  1  0  0  0  0  0999 V2000
   15.5124  -10.0515  -17.0152 N   0  0  0  0  0  0  0  0  0  0  0  0
   16.0662   -9.5819  -15.7534 C   0  0  1  0  0  0  0  0  0  0  0  0
   16.7714  -10.7421  -15.0690 C   0  0  0  0  0  0  0  0  0  0  0  0
   15.8481  -11.7517  -14.5296 C   0  0  0  0  0  0  0  0  0  0  0  0
   14.6100  -11.6008  -14.5711 O   0  0  0  0  0  0  0  0  0  0  0  0
   16.9140   -8.3961  -15.9297 C   0  0  0  0  0  0  0  0  0  0  0  0
   17.7125   -8.3398  -16.8993 O   0  0  0  0  0  0  0  0  0  0  0  0
   16.2959  -12.9423  -13.9371 O   0  0  0  0  0  0  0  0  0  0  0  0
   17.8894   -3.6652  -15.2198 C   0  0  0  0  0  0  0  0  0  0  0  0
   16.9904   -4.8834  -15.1699 C   0  0  1  0  0  0  0  0  0  0  0  0
   16.1574   -4.8378  -16.2879 O   0  0  0  0  0  0  0  0  0  0  0  0
   17.7858   -6.1559  -15.2209 C   0  0  2  0  0  0  0  0  0  0  0  0
   16.8861   -7.2759  -15.0459 N   0  0  0  0  0  0  0  0  0  0  0  0
   18.9187   -6.1857  -14.2817 C   0  0  0  0  0  0  0  0  0  0  0  0
   18.6571   -6.2165  -13.0513 O   0  0  0  0  0  0  0  0  0  0  0  0
   21.9508   -8.6591  -14.3535 C   0  0  0  0  0  0  0  0  0  0  0  0
   22.4388   -7.2588  -14.2028 C   0  0  1  0  0  0  0  0  0  0  0  0
   23.0498   -6.8242  -15.5180 C   0  0  0  0  0  0  0  0  0  0  0  0
   21.3745   -6.3038  -13.7284 C   0  0  2  0  0  0  0  0  0  0  0  0
   20.2847   -6.1820  -14.6760 N   0  0  0  0  0  0  0  0  0  0  0  0
   21.9120   -4.9696  -13.4091 C   0  0  0  0  0  0  0  0  0  0  0  0
   21.7446   -3.9838  -14.1733 O   0  0  0  0  0  0  0  0  0  0  0  0
   22.6309   -4.7475  -12.2411 O   0  0  0  0  0  0  0  0  0  0  0  0
  2  1  1  6
  2  6  1  0
  3  2  1  0
  3  4  1  0
  4  5  2  0
  4  8  1  0
  6  7  2  0
 10  9  1  6
 10 11  1  0
 10 12  1  0
 12 14  1  0
 12 13  1  1
 13  6  1  0
 14 15  2  0
 17 16  1  6
 17 19  1  0
 18 17  1  0
 19 21  1  0
 20 14  1  0
 19 20  1  6
 21 22  2  0
 21 23  1  0
M  END
$$$$
