DTV.pdb
     RDKit          3D

 23 22  0  0  1  0  0  0  0  0999 V2000
   15.6953  -14.1420  -16.8836 N   0  0  0  0  0  0  0  0  0  0  0  0
   15.8619  -12.8856  -16.1673 C   0  0  1  0  0  0  0  0  0  0  0  0
   15.7108  -13.1503  -14.6776 C   0  0  0  0  0  0  0  0  0  0  0  0
   14.3726  -13.6306  -14.3016 C   0  0  0  0  0  0  0  0  0  0  0  0
   13.7019  -13.0774  -13.4063 O   0  0  0  0  0  0  0  0  0  0  0  0
   17.1154  -12.2089  -16.5231 C   0  0  0  0  0  0  0  0  0  0  0  0
   18.1390  -12.8908  -16.7844 O   0  0  0  0  0  0  0  0  0  0  0  0
   13.7669  -14.7346  -14.9207 O   0  0  0  0  0  0  0  0  0  0  0  0
   17.6302   -9.7863  -19.2921 C   0  0  0  0  0  0  0  0  0  0  0  0
   18.2092   -9.1450  -18.0479 C   0  0  1  0  0  0  0  0  0  0  0  0
   17.2614   -8.2466  -17.5574 O   0  0  0  0  0  0  0  0  0  0  0  0
   18.4920  -10.1661  -16.9839 C   0  0  2  0  0  0  0  0  0  0  0  0
   17.2460  -10.7895  -16.5924 N   0  0  0  0  0  0  0  0  0  0  0  0
   19.2457   -9.6346  -15.8368 C   0  0  0  0  0  0  0  0  0  0  0  0
   18.5922   -9.2797  -14.8218 O   0  0  0  0  0  0  0  0  0  0  0  0
   22.5817  -11.1908  -14.2606 C   0  0  0  0  0  0  0  0  0  0  0  0
   22.7035   -9.7189  -14.4618 C   0  0  1  0  0  0  0  0  0  0  0  0
   23.6297   -9.4744  -15.6342 C   0  0  0  0  0  0  0  0  0  0  0  0
   21.3757   -9.0283  -14.6339 C   0  0  2  0  0  0  0  0  0  0  0  0
   20.6606   -9.4977  -15.8038 N   0  0  0  0  0  0  0  0  0  0  0  0
   21.5020   -7.5610  -14.6794 C   0  0  0  0  0  0  0  0  0  0  0  0
   21.3553   -6.9127  -15.7481 O   0  0  0  0  0  0  0  0  0  0  0  0
   21.7905   -6.8307  -13.5332 O   0  0  0  0  0  0  0  0  0  0  0  0
  2  1  1  6
  2  6  1  0
  3  2  1  0
  3  4  1  0
  4  5  2  0
  4  8  1  0
  6  7  2  0
 10  9  1  6
 10 11  1  0
 10 12  1  0
 12 14  1  0
 12 13  1  1
 13  6  1  0
 14 15  2  0
 17 16  1  6
 17 19  1  0
 18 17  1  0
 19 21  1  0
 20 14  1  0
 19 20  1  6
 21 22  2  0
 21 23  1  0
M  END
$$$$
