DTV.pdb
     RDKit          3D

 23 22  0  0  1  0  0  0  0  0999 V2000
   15.2597  -12.8334  -16.3916 N   0  0  0  0  0  0  0  0  0  0  0  0
   15.2426  -11.4075  -16.0987 C   0  0  1  0  0  0  0  0  0  0  0  0
   14.7916  -11.2111  -14.6599 C   0  0  0  0  0  0  0  0  0  0  0  0
   13.3638  -11.4943  -14.4506 C   0  0  0  0  0  0  0  0  0  0  0  0
   12.4802  -10.9968  -15.1781 O   0  0  0  0  0  0  0  0  0  0  0  0
   16.5256  -10.7645  -16.4088 C   0  0  0  0  0  0  0  0  0  0  0  0
   17.5628  -11.4662  -16.5219 O   0  0  0  0  0  0  0  0  0  0  0  0
   12.9049  -12.3364  -13.4263 O   0  0  0  0  0  0  0  0  0  0  0  0
   18.9495   -6.7574  -18.0415 C   0  0  0  0  0  0  0  0  0  0  0  0
   17.6737   -7.5326  -17.7846 C   0  0  1  0  0  0  0  0  0  0  0  0
   17.1519   -7.9068  -19.0231 O   0  0  0  0  0  0  0  0  0  0  0  0
   17.9373   -8.7754  -16.9844 C   0  0  2  0  0  0  0  0  0  0  0  0
   16.6707   -9.3570  -16.5946 N   0  0  0  0  0  0  0  0  0  0  0  0
   18.8409   -8.5649  -15.8417 C   0  0  0  0  0  0  0  0  0  0  0  0
   18.3665   -8.0125  -14.8155 O   0  0  0  0  0  0  0  0  0  0  0  0
   23.0459   -9.9084  -15.6647 C   0  0  0  0  0  0  0  0  0  0  0  0
   22.0979   -9.8143  -14.5183 C   0  0  1  0  0  0  0  0  0  0  0  0
   22.9041   -9.6549  -13.2468 C   0  0  0  0  0  0  0  0  0  0  0  0
   21.0720   -8.7231  -14.6804 C   0  0  2  0  0  0  0  0  0  0  0  0
   20.2109   -8.9451  -15.8247 N   0  0  0  0  0  0  0  0  0  0  0  0
   21.6785   -7.3829  -14.7626 C   0  0  0  0  0  0  0  0  0  0  0  0
   21.8235   -6.7836  -15.8598 O   0  0  0  0  0  0  0  0  0  0  0  0
   22.1176   -6.7238  -13.6210 O   0  0  0  0  0  0  0  0  0  0  0  0
  2  1  1  1
  2  6  1  0
  3  2  1  0
  3  4  1  0
  4  5  2  0
  4  8  1  0
  6  7  2  0
 10  9  1  6
 10 11  1  0
 10 12  1  0
 12 14  1  0
 12 13  1  1
 13  6  1  0
 14 15  2  0
 17 16  1  6
 17 19  1  0
 18 17  1  0
 19 21  1  0
 20 14  1  0
 19 20  1  6
 21 22  2  0
 21 23  1  0
M  END
$$$$
