RMY.pdb
     RDKit          3D

 32 32  0  0  1  0  0  0  0  0999 V2000
    8.3498  -12.6536   16.7453 N   0  0  0  0  0  0  0  0  0  0  0  0
    7.4768  -13.4533   15.9695 C   0  0  0  0  0  0  0  0  0  0  0  0
    7.2902  -13.2028   14.7035 N   0  0  0  0  0  0  0  0  0  0  0  0
    6.8086  -14.5321   16.5980 N   0  0  0  0  0  0  0  0  0  0  0  0
    7.3862  -15.1935   17.7407 C   0  0  0  0  0  0  0  0  0  0  0  0
    8.4266  -16.1636   17.2700 C   0  0  0  0  0  0  0  0  0  0  0  0
    9.5050  -16.4766   18.2415 C   0  0  0  0  0  0  0  0  0  0  0  0
    9.0772  -17.1287   19.5150 C   0  0  2  0  0  0  0  0  0  0  0  0
    7.7046  -17.5736   19.5232 N   0  0  0  0  0  0  0  0  0  0  0  0
    9.3289  -16.1330   20.6142 C   0  0  0  0  0  0  0  0  0  0  0  0
   10.4697  -15.6081   20.6429 O   0  0  0  0  0  0  0  0  0  0  0  0
    6.6152  -13.7726   14.1654 C   0  0  0  0  0  0  0  0  0  0  0  0
    6.6450  -11.7231   26.4573 S   0  0  0  0  0  0  0  0  0  0  0  0
    6.1972  -12.8487   25.1077 C   0  0  0  0  0  0  0  0  0  0  0  0
    7.7325  -13.4807   24.3677 C   0  0  0  0  0  0  0  0  0  0  0  0
    7.3759  -14.3851   23.2348 C   0  0  2  0  0  0  0  0  0  0  0  0
    8.6566  -15.0474   22.7110 N   0  0  0  0  0  0  0  0  0  0  0  0
    8.3162  -15.8147   21.5621 C   0  0  0  0  0  0  0  0  0  0  0  0
    9.2801  -15.8739   23.7860 O   0  0  0  0  0  0  0  0  0  0  0  0
    8.7578  -16.9261   24.2231 O   0  0  0  0  0  0  0  0  0  0  0  0
   11.3709  -16.0930   32.1162 C   0  0  0  0  0  0  0  0  0  0  0  0
   10.9527  -15.9837   30.7943 C   0  0  0  0  0  0  0  0  0  0  0  0
   10.4852  -17.0474   30.0580 C   0  0  0  0  0  0  0  0  0  0  0  0
   10.0832  -16.8834   28.7506 C   0  0  0  0  0  0  0  0  0  0  0  0
   10.1270  -15.6457   28.1091 C   0  0  0  0  0  0  0  0  0  0  0  0
    9.7178  -15.4841   26.6971 C   0  0  2  0  0  0  0  0  0  0  0  0
   10.8416  -15.7606   25.7825 N   0  0  0  0  0  0  0  0  0  0  0  0
   10.5127  -15.5147   24.3828 C   0  0  0  0  0  0  0  0  0  0  0  0
   11.2502  -17.1778   25.8701 O   0  0  0  0  0  0  0  0  0  0  0  0
   10.7433  -18.1204   25.2077 C   0  0  0  0  0  0  0  0  0  0  0  0
   10.6072  -14.6144   28.9024 C   0  0  0  0  0  0  0  0  0  0  0  0
   11.0100  -14.7541   30.1974 O   0  0  0  0  0  0  0  0  0  0  0  0
  2  1  1  0
  3  2  2  0
  4  2  1  0
  5  4  1  0
  6  5  1  0
  7  6  1  0
  8  7  1  0
  8  9  1  6
 10  8  1  0
 10 11  2  0
 12 13  1  0
 13 14  1  0
 14 15  1  0
 16 15  1  6
 16 18  1  0
 16 17  1  0
 17 10  1  0
 18 27  1  0
 19 18  2  0
 21 20  1  0
 21 31  2  0
 22 21  1  0
 23 22  2  0
 23 24  1  0
 24 30  2  0
 25 24  1  0
 26 25  1  1
 26 28  1  0
 27 26  1  0
 28 29  2  0
 28 32  1  0
 30 31  1  0
M  END
$$$$
