RMY.pdb
     RDKit          3D

 32 32  0  0  1  0  0  0  0  0999 V2000
    7.8685  -12.6999   19.2847 N   0  0  0  0  0  0  0  0  0  0  0  0
    8.0964  -13.2932   18.0200 C   0  0  0  0  0  0  0  0  0  0  0  0
    7.1913  -13.2360   17.0831 N   0  0  0  0  0  0  0  0  0  0  0  0
    9.3293  -13.9519   17.7932 N   0  0  0  0  0  0  0  0  0  0  0  0
   10.1690  -14.3473   18.8957 C   0  0  0  0  0  0  0  0  0  0  0  0
    9.3872  -15.2408   19.8099 C   0  0  0  0  0  0  0  0  0  0  0  0
   10.1288  -15.7768   20.9792 C   0  0  0  0  0  0  0  0  0  0  0  0
    9.3670  -16.6910   21.8814 C   0  0  2  0  0  0  0  0  0  0  0  0
    7.9603  -16.7910   21.5762 N   0  0  0  0  0  0  0  0  0  0  0  0
    9.5811  -16.1889   23.2833 C   0  0  0  0  0  0  0  0  0  0  0  0
   10.7738  -16.0730   23.6598 O   0  0  0  0  0  0  0  0  0  0  0  0
    7.3726  -13.6887   16.1710 C   0  0  0  0  0  0  0  0  0  0  0  0
    7.8455  -11.0923   26.8466 S   0  0  0  0  0  0  0  0  0  0  0  0
    6.5562  -12.2358   26.2818 C   0  0  0  0  0  0  0  0  0  0  0  0
    7.3365  -13.4822   25.2132 C   0  0  0  0  0  0  0  0  0  0  0  0
    7.4869  -14.7473   25.9914 C   0  0  2  0  0  0  0  0  0  0  0  0
    8.7211  -15.4988   25.4766 N   0  0  0  0  0  0  0  0  0  0  0  0
    8.4788  -15.8670   24.1238 C   0  0  0  0  0  0  0  0  0  0  0  0
    9.0012  -16.6775   26.3483 O   0  0  0  0  0  0  0  0  0  0  0  0
    8.2356  -17.6673   26.4190 O   0  0  0  0  0  0  0  0  0  0  0  0
   13.5457  -19.3084   22.5155 C   0  0  0  0  0  0  0  0  0  0  0  0
   13.1657  -19.0115   23.8200 C   0  0  0  0  0  0  0  0  0  0  0  0
   13.4041  -17.7966   24.4197 C   0  0  0  0  0  0  0  0  0  0  0  0
   13.0058  -17.5551   25.7161 C   0  0  0  0  0  0  0  0  0  0  0  0
   12.3474  -18.5163   26.4829 C   0  0  0  0  0  0  0  0  0  0  0  0
   11.9467  -18.2568   27.8827 C   0  0  2  0  0  0  0  0  0  0  0  0
   10.5168  -17.9057   27.9706 N   0  0  0  0  0  0  0  0  0  0  0  0
   10.1616  -16.7487   27.1563 C   0  0  0  0  0  0  0  0  0  0  0  0
   10.1468  -17.5649   29.3599 O   0  0  0  0  0  0  0  0  0  0  0  0
    9.7039  -16.4493   29.7389 C   0  0  0  0  0  0  0  0  0  0  0  0
   12.1369  -19.7183   25.8238 C   0  0  0  0  0  0  0  0  0  0  0  0
   12.5220  -19.9786   24.5422 O   0  0  0  0  0  0  0  0  0  0  0  0
  2  1  1  0
  3  2  2  0
  4  2  1  0
  5  4  1  0
  6  5  1  0
  7  6  1  0
  8  7  1  0
  8  9  1  6
 10  8  1  0
 10 11  2  0
 12 13  1  0
 13 14  1  0
 14 15  1  0
 16 15  1  6
 16 18  1  0
 16 17  1  0
 17 10  1  0
 18 27  1  0
 19 18  2  0
 21 20  1  0
 21 31  2  0
 22 21  1  0
 23 22  2  0
 23 24  1  0
 24 30  2  0
 25 24  1  0
 26 25  1  6
 26 28  1  0
 27 26  1  0
 28 29  2  0
 28 32  1  0
 30 31  1  0
M  END
$$$$
