RMY.pdb
     RDKit          3D

 32 32  0  0  1  0  0  0  0  0999 V2000
    9.4030  -12.2980   18.3846 N   0  0  0  0  0  0  0  0  0  0  0  0
    8.1746  -12.5694   19.0334 C   0  0  0  0  0  0  0  0  0  0  0  0
    7.5204  -11.6227   19.6467 N   0  0  0  0  0  0  0  0  0  0  0  0
    7.6707  -13.8924   19.0033 N   0  0  0  0  0  0  0  0  0  0  0  0
    8.5505  -15.0128   18.7855 C   0  0  0  0  0  0  0  0  0  0  0  0
    7.7503  -16.2789   18.8311 C   0  0  0  0  0  0  0  0  0  0  0  0
    8.4430  -17.4608   19.4038 C   0  0  0  0  0  0  0  0  0  0  0  0
    7.9774  -17.9108   20.7494 C   0  0  2  0  0  0  0  0  0  0  0  0
    6.5447  -18.0298   20.8736 N   0  0  0  0  0  0  0  0  0  0  0  0
    8.5260  -16.9266   21.7461 C   0  0  0  0  0  0  0  0  0  0  0  0
    9.7742  -16.9090   21.8858 O   0  0  0  0  0  0  0  0  0  0  0  0
    6.6780  -11.8601   20.1980 C   0  0  0  0  0  0  0  0  0  0  0  0
    6.9423  -11.5610   27.2432 S   0  0  0  0  0  0  0  0  0  0  0  0
    6.2750  -12.5411   25.8710 C   0  0  0  0  0  0  0  0  0  0  0  0
    7.6041  -13.6103   25.2430 C   0  0  0  0  0  0  0  0  0  0  0  0
    7.0836  -14.3762   24.0721 C   0  0  1  0  0  0  0  0  0  0  0  0
    8.1953  -15.2961   23.5513 N   0  0  0  0  0  0  0  0  0  0  0  0
    7.6616  -16.0687   22.4824 C   0  0  0  0  0  0  0  0  0  0  0  0
    8.7191  -16.1433   24.6628 O   0  0  0  0  0  0  0  0  0  0  0  0
    7.9731  -16.8050   25.4221 O   0  0  0  0  0  0  0  0  0  0  0  0
   13.1901  -22.1829   29.0109 C   0  0  0  0  0  0  0  0  0  0  0  0
   12.6139  -21.2883   28.1154 C   0  0  0  0  0  0  0  0  0  0  0  0
   11.2777  -20.9617   28.1262 C   0  0  0  0  0  0  0  0  0  0  0  0
   10.7583  -20.0683   27.2153 C   0  0  0  0  0  0  0  0  0  0  0  0
   11.5479  -19.4532   26.2440 C   0  0  0  0  0  0  0  0  0  0  0  0
   10.9766  -18.5152   25.2536 C   0  0  2  0  0  0  0  0  0  0  0  0
   10.6821  -17.2069   25.8680 N   0  0  0  0  0  0  0  0  0  0  0  0
   10.1055  -16.2514   24.9287 C   0  0  0  0  0  0  0  0  0  0  0  0
   11.9169  -16.5841   26.3882 O   0  0  0  0  0  0  0  0  0  0  0  0
   12.7053  -15.8680   25.7175 C   0  0  0  0  0  0  0  0  0  0  0  0
   12.8840  -19.8230   26.2842 C   0  0  0  0  0  0  0  0  0  0  0  0
   13.4191  -20.7043   27.1763 O   0  0  0  0  0  0  0  0  0  0  0  0
  2  1  1  0
  3  2  2  0
  4  2  1  0
  5  4  1  0
  6  5  1  0
  7  6  1  0
  8  7  1  0
  8  9  1  6
 10  8  1  0
 10 11  2  0
 12 13  1  0
 13 14  1  0
 14 15  1  0
 16 15  1  6
 16 18  1  0
 16 17  1  0
 17 10  1  0
 18 27  1  0
 19 18  2  0
 21 20  1  0
 21 31  2  0
 22 21  1  0
 23 22  2  0
 23 24  1  0
 24 30  2  0
 25 24  1  0
 26 25  1  1
 26 28  1  0
 27 26  1  0
 28 29  2  0
 28 32  1  0
 30 31  1  0
M  END
$$$$
