RMY.pdb
     RDKit          3D

 32 32  0  0  1  0  0  0  0  0999 V2000
   13.2236  -19.6970   19.4151 N   0  0  0  0  0  0  0  0  0  0  0  0
   13.2471  -20.0869   20.7756 C   0  0  0  0  0  0  0  0  0  0  0  0
   14.3715  -20.3833   21.3656 N   0  0  0  0  0  0  0  0  0  0  0  0
   12.0221  -20.1494   21.4833 N   0  0  0  0  0  0  0  0  0  0  0  0
   10.7801  -19.7986   20.8421 C   0  0  0  0  0  0  0  0  0  0  0  0
   10.5804  -18.3168   20.9406 C   0  0  0  0  0  0  0  0  0  0  0  0
    9.2579  -17.8755   21.4512 C   0  0  0  0  0  0  0  0  0  0  0  0
    8.9093  -16.4408   21.2277 C   0  0  2  0  0  0  0  0  0  0  0  0
    9.6121  -15.8224   20.1297 N   0  0  0  0  0  0  0  0  0  0  0  0
    9.1884  -15.7236   22.5203 C   0  0  0  0  0  0  0  0  0  0  0  0
   10.3973  -15.5709   22.8254 O   0  0  0  0  0  0  0  0  0  0  0  0
   14.3605  -20.7212   22.3432 C   0  0  0  0  0  0  0  0  0  0  0  0
    6.1791  -10.5176   26.5094 S   0  0  0  0  0  0  0  0  0  0  0  0
    5.9966  -12.2843   26.8754 C   0  0  0  0  0  0  0  0  0  0  0  0
    7.4978  -13.1364   26.3059 C   0  0  0  0  0  0  0  0  0  0  0  0
    7.1610  -13.9253   25.0841 C   0  0  2  0  0  0  0  0  0  0  0  0
    8.4337  -14.6153   24.5767 N   0  0  0  0  0  0  0  0  0  0  0  0
    8.1266  -15.2500   23.3409 C   0  0  0  0  0  0  0  0  0  0  0  0
    8.9373  -15.5753   25.6025 O   0  0  0  0  0  0  0  0  0  0  0  0
    8.4471  -16.7176   25.7625 O   0  0  0  0  0  0  0  0  0  0  0  0
   13.9500  -17.9781   22.2379 C   0  0  0  0  0  0  0  0  0  0  0  0
   13.4990  -17.5758   23.4906 C   0  0  0  0  0  0  0  0  0  0  0  0
   13.0196  -18.4494   24.4388 C   0  0  0  0  0  0  0  0  0  0  0  0
   12.5850  -17.9969   25.6653 C   0  0  0  0  0  0  0  0  0  0  0  0
   12.6066  -16.6454   26.0093 C   0  0  0  0  0  0  0  0  0  0  0  0
   12.1137  -16.1660   27.3187 C   0  0  2  0  0  0  0  0  0  0  0  0
   10.6401  -16.1988   27.3770 N   0  0  0  0  0  0  0  0  0  0  0  0
   10.0111  -15.2492   26.4658 C   0  0  0  0  0  0  0  0  0  0  0  0
   10.1629  -15.8525   28.7318 O   0  0  0  0  0  0  0  0  0  0  0  0
    9.4202  -14.8753   29.0107 C   0  0  0  0  0  0  0  0  0  0  0  0
   13.0995  -15.8162   25.0129 C   0  0  0  0  0  0  0  0  0  0  0  0
   13.5348  -16.2422   23.7932 O   0  0  0  0  0  0  0  0  0  0  0  0
  2  1  1  0
  3  2  2  0
  4  2  1  0
  5  4  1  0
  6  5  1  0
  7  6  1  0
  8  7  1  0
  8  9  1  6
 10  8  1  0
 10 11  2  0
 12 13  1  0
 13 14  1  0
 14 15  1  0
 16 15  1  6
 16 18  1  0
 16 17  1  0
 17 10  1  0
 18 27  1  0
 19 18  2  0
 21 20  1  0
 21 31  2  0
 22 21  1  0
 23 22  2  0
 23 24  1  0
 24 30  2  0
 25 24  1  0
 26 25  1  6
 26 28  1  0
 27 26  1  0
 28 29  2  0
 28 32  1  0
 30 31  1  0
M  END
$$$$
