RMY.pdb
     RDKit          3D

 32 32  0  0  1  0  0  0  0  0999 V2000
    8.4103  -13.2327   17.3553 N   0  0  0  0  0  0  0  0  0  0  0  0
    8.0343  -13.8403   16.1334 C   0  0  0  0  0  0  0  0  0  0  0  0
    8.4348  -13.3503   14.9934 N   0  0  0  0  0  0  0  0  0  0  0  0
    7.2124  -14.9927   16.1750 N   0  0  0  0  0  0  0  0  0  0  0  0
    7.0858  -15.7662   17.3843 C   0  0  0  0  0  0  0  0  0  0  0  0
    8.1647  -16.8056   17.4151 C   0  0  0  0  0  0  0  0  0  0  0  0
    9.2132  -16.6180   18.4495 C   0  0  0  0  0  0  0  0  0  0  0  0
    8.9446  -17.2374   19.7815 C   0  0  2  0  0  0  0  0  0  0  0  0
    7.6171  -17.7837   19.9263 N   0  0  0  0  0  0  0  0  0  0  0  0
    9.2059  -16.1727   20.8117 C   0  0  0  0  0  0  0  0  0  0  0  0
   10.3273  -15.6090   20.7616 O   0  0  0  0  0  0  0  0  0  0  0  0
    8.1132  -13.7839   14.1111 C   0  0  0  0  0  0  0  0  0  0  0  0
    6.5954  -11.3613   26.3458 S   0  0  0  0  0  0  0  0  0  0  0  0
    6.1371  -12.6454   25.1500 C   0  0  0  0  0  0  0  0  0  0  0  0
    7.6662  -13.3396   24.4542 C   0  0  0  0  0  0  0  0  0  0  0  0
    7.3015  -14.2959   23.3674 C   0  0  2  0  0  0  0  0  0  0  0  0
    8.5787  -14.9803   22.8640 N   0  0  0  0  0  0  0  0  0  0  0  0
    8.2227  -15.8351   21.7838 C   0  0  0  0  0  0  0  0  0  0  0  0
    9.2377  -15.7169   23.9824 O   0  0  0  0  0  0  0  0  0  0  0  0
    8.6929  -16.6753   24.5786 O   0  0  0  0  0  0  0  0  0  0  0  0
   11.4059  -16.2669   32.1597 C   0  0  0  0  0  0  0  0  0  0  0  0
   11.0655  -15.9173   30.8573 C   0  0  0  0  0  0  0  0  0  0  0  0
   10.9996  -14.6162   30.4156 C   0  0  0  0  0  0  0  0  0  0  0  0
   10.6569  -14.3255   29.1134 C   0  0  0  0  0  0  0  0  0  0  0  0
   10.3614  -15.3211   28.1824 C   0  0  0  0  0  0  0  0  0  0  0  0
    9.9690  -14.9985   26.7934 C   0  0  1  0  0  0  0  0  0  0  0  0
   10.9647  -15.5021   25.8286 N   0  0  0  0  0  0  0  0  0  0  0  0
   10.5321  -15.3731   24.4415 C   0  0  0  0  0  0  0  0  0  0  0  0
   11.2262  -16.9395   26.0499 O   0  0  0  0  0  0  0  0  0  0  0  0
   10.4737  -17.8782   25.6800 C   0  0  0  0  0  0  0  0  0  0  0  0
   10.4446  -16.6101   28.6875 C   0  0  0  0  0  0  0  0  0  0  0  0
   10.7818  -16.9204   29.9715 O   0  0  0  0  0  0  0  0  0  0  0  0
  2  1  1  0
  3  2  2  0
  4  2  1  0
  5  4  1  0
  6  5  1  0
  7  6  1  0
  8  7  1  0
  8  9  1  6
 10  8  1  0
 10 11  2  0
 12 13  1  0
 13 14  1  0
 14 15  1  0
 16 15  1  6
 16 18  1  0
 16 17  1  0
 17 10  1  0
 18 27  1  0
 19 18  2  0
 21 20  1  0
 21 31  2  0
 22 21  1  0
 23 22  2  0
 23 24  1  0
 24 30  2  0
 25 24  1  0
 26 25  1  6
 26 28  1  0
 27 26  1  0
 28 29  2  0
 28 32  1  0
 30 31  1  0
M  END
$$$$
