RMY.pdb
     RDKit          3D

 32 32  0  0  1  0  0  0  0  0999 V2000
    8.0316  -21.8418   18.9049 N   0  0  0  0  0  0  0  0  0  0  0  0
    9.3025  -21.5248   18.3683 C   0  0  0  0  0  0  0  0  0  0  0  0
    9.7518  -22.1386   17.3091 N   0  0  0  0  0  0  0  0  0  0  0  0
   10.0775  -20.5265   19.0071 N   0  0  0  0  0  0  0  0  0  0  0  0
    9.7041  -20.0184   20.3029 C   0  0  0  0  0  0  0  0  0  0  0  0
    9.4293  -18.5496   20.1917 C   0  0  0  0  0  0  0  0  0  0  0  0
    8.0036  -18.1697   20.0261 C   0  0  0  0  0  0  0  0  0  0  0  0
    7.7158  -16.7067   19.9430 C   0  0  2  0  0  0  0  0  0  0  0  0
    8.1532  -16.0835   18.7174 N   0  0  0  0  0  0  0  0  0  0  0  0
    8.3730  -16.0703   21.1372 C   0  0  0  0  0  0  0  0  0  0  0  0
    9.6251  -16.1512   21.1958 O   0  0  0  0  0  0  0  0  0  0  0  0
   10.7103  -21.9417   16.9742 C   0  0  0  0  0  0  0  0  0  0  0  0
    5.9786  -11.9246   26.7289 S   0  0  0  0  0  0  0  0  0  0  0  0
    7.3984  -12.0115   25.6040 C   0  0  0  0  0  0  0  0  0  0  0  0
    7.8741  -13.7573   25.4301 C   0  0  0  0  0  0  0  0  0  0  0  0
    7.1951  -14.3162   24.2238 C   0  0  1  0  0  0  0  0  0  0  0  0
    8.2643  -14.8073   23.2396 N   0  0  0  0  0  0  0  0  0  0  0  0
    7.6011  -15.4153   22.1374 C   0  0  0  0  0  0  0  0  0  0  0  0
    9.2015  -15.7422   23.9289 O   0  0  0  0  0  0  0  0  0  0  0  0
    8.8903  -16.9192   24.2265 O   0  0  0  0  0  0  0  0  0  0  0  0
   10.4822  -14.2913   31.0562 C   0  0  0  0  0  0  0  0  0  0  0  0
   10.5734  -14.9858   29.8546 C   0  0  0  0  0  0  0  0  0  0  0  0
   11.4754  -16.0005   29.6336 C   0  0  0  0  0  0  0  0  0  0  0  0
   11.5232  -16.6562   28.4229 C   0  0  0  0  0  0  0  0  0  0  0  0
   10.6708  -16.3318   27.3676 C   0  0  0  0  0  0  0  0  0  0  0  0
   10.7470  -17.0236   26.0627 C   0  0  2  0  0  0  0  0  0  0  0  0
   11.4300  -16.1884   25.0568 N   0  0  0  0  0  0  0  0  0  0  0  0
   10.5129  -15.3508   24.2918 C   0  0  0  0  0  0  0  0  0  0  0  0
   12.1407  -17.0314   24.0732 O   0  0  0  0  0  0  0  0  0  0  0  0
   11.9377  -17.0233   22.8310 C   0  0  0  0  0  0  0  0  0  0  0  0
    9.7861  -15.3021   27.6515 C   0  0  0  0  0  0  0  0  0  0  0  0
    9.7214  -14.6402   28.8417 O   0  0  0  0  0  0  0  0  0  0  0  0
  2  1  1  0
  3  2  2  0
  4  2  1  0
  5  4  1  0
  6  5  1  0
  7  6  1  0
  8  7  1  0
  8  9  1  6
 10  8  1  0
 10 11  2  0
 12 13  1  0
 13 14  1  0
 14 15  1  0
 16 15  1  6
 16 18  1  0
 16 17  1  0
 17 10  1  0
 18 27  1  0
 19 18  2  0
 21 20  1  0
 21 31  2  0
 22 21  1  0
 23 22  2  0
 23 24  1  0
 24 30  2  0
 25 24  1  0
 26 25  1  1
 26 28  1  0
 27 26  1  0
 28 29  2  0
 28 32  1  0
 30 31  1  0
M  END
$$$$
