RMY.pdb
     RDKit          3D

 32 32  0  0  1  0  0  0  0  0999 V2000
    8.4333  -14.3487   17.0440 N   0  0  0  0  0  0  0  0  0  0  0  0
    8.4798  -14.8547   15.7228 C   0  0  0  0  0  0  0  0  0  0  0  0
    7.4421  -14.7681   14.9381 N   0  0  0  0  0  0  0  0  0  0  0  0
    9.6783  -15.4585   15.2708 N   0  0  0  0  0  0  0  0  0  0  0  0
   10.7455  -15.7608   16.1907 C   0  0  0  0  0  0  0  0  0  0  0  0
   10.4921  -17.1013   16.8104 C   0  0  0  0  0  0  0  0  0  0  0  0
   11.4566  -17.5216   17.8581 C   0  0  0  0  0  0  0  0  0  0  0  0
   10.8722  -18.1578   19.0762 C   0  0  2  0  0  0  0  0  0  0  0  0
    9.7704  -19.0507   18.8101 N   0  0  0  0  0  0  0  0  0  0  0  0
   10.4513  -17.0370   19.9872 C   0  0  0  0  0  0  0  0  0  0  0  0
   11.3715  -16.3233   20.4580 O   0  0  0  0  0  0  0  0  0  0  0  0
    7.5108  -15.1063   13.9630 C   0  0  0  0  0  0  0  0  0  0  0  0
    7.4514  -12.4923   19.7368 S   0  0  0  0  0  0  0  0  0  0  0  0
    7.8205  -12.8543   21.4751 C   0  0  0  0  0  0  0  0  0  0  0  0
    6.8892  -14.3408   21.9516 C   0  0  0  0  0  0  0  0  0  0  0  0
    7.2535  -15.4482   21.0191 C   0  0  2  0  0  0  0  0  0  0  0  0
    8.7301  -15.8056   21.2314 N   0  0  0  0  0  0  0  0  0  0  0  0
    9.0786  -16.8122   20.2882 C   0  0  0  0  0  0  0  0  0  0  0  0
    8.9519  -16.2421   22.6412 O   0  0  0  0  0  0  0  0  0  0  0  0
    8.5724  -17.3549   23.0755 O   0  0  0  0  0  0  0  0  0  0  0  0
   10.6123  -15.9073   31.3356 C   0  0  0  0  0  0  0  0  0  0  0  0
   10.5229  -15.6219   29.9773 C   0  0  0  0  0  0  0  0  0  0  0  0
   11.0239  -16.4459   28.9963 C   0  0  0  0  0  0  0  0  0  0  0  0
   10.9080  -16.1148   27.6641 C   0  0  0  0  0  0  0  0  0  0  0  0
   10.2844  -14.9410   27.2413 C   0  0  0  0  0  0  0  0  0  0  0  0
   10.1877  -14.5812   25.8100 C   0  0  2  0  0  0  0  0  0  0  0  0
    9.7115  -15.7222   25.0056 N   0  0  0  0  0  0  0  0  0  0  0  0
    9.6119  -15.4160   23.5829 C   0  0  0  0  0  0  0  0  0  0  0  0
    8.3604  -16.1375   25.4363 O   0  0  0  0  0  0  0  0  0  0  0  0
    7.2824  -15.6326   25.0275 C   0  0  0  0  0  0  0  0  0  0  0  0
    9.8012  -14.1534   28.2755 C   0  0  0  0  0  0  0  0  0  0  0  0
    9.9046  -14.4616   29.5995 O   0  0  0  0  0  0  0  0  0  0  0  0
  2  1  1  0
  3  2  2  0
  4  2  1  0
  5  4  1  0
  6  5  1  0
  7  6  1  0
  8  7  1  0
  8  9  1  6
 10  8  1  0
 10 11  2  0
 12 13  1  0
 13 14  1  0
 14 15  1  0
 16 15  1  6
 16 18  1  0
 16 17  1  0
 17 10  1  0
 18 27  1  0
 19 18  2  0
 21 20  1  0
 21 31  2  0
 22 21  1  0
 23 22  2  0
 23 24  1  0
 24 30  2  0
 25 24  1  0
 26 25  1  6
 26 28  1  0
 27 26  1  0
 28 29  2  0
 28 32  1  0
 30 31  1  0
M  END
$$$$
