NPT.pdb
     RDKit          3D

 23 23  0  0  1  0  0  0  0  0999 V2000
    6.4219  -17.4228   20.6222 N   0  0  0  0  0  0  0  0  0  0  0  0
    6.1731  -16.3635   21.5386 C   0  0  0  0  0  0  0  0  0  0  0  0
    5.1851  -15.6111   21.3424 O   0  0  0  0  0  0  0  0  0  0  0  0
    7.0125  -16.0876   22.7214 C   0  0  0  0  0  0  0  0  0  0  0  0
    7.6852  -14.7313   22.5072 C   0  0  2  0  0  0  0  0  0  0  0  0
    8.3948  -14.7215   21.2549 N   0  0  0  0  0  0  0  0  0  0  0  0
    8.5148  -14.3910   23.6788 C   0  0  0  0  0  0  0  0  0  0  0  0
    9.7280  -14.6932   23.6637 O   0  0  0  0  0  0  0  0  0  0  0  0
    7.9732  -13.7415   24.7969 N   0  0  0  0  0  0  0  0  0  0  0  0
    6.6298  -13.2234   24.8934 C   0  0  0  0  0  0  0  0  0  0  0  0
    6.4611  -12.6346   26.2756 C   0  0  0  0  0  0  0  0  0  0  0  0
    7.8555  -12.4201   26.7514 C   0  0  0  0  0  0  0  0  0  0  0  0
    8.6499  -13.4827   26.0324 C   0  0  1  0  0  0  0  0  0  0  0  0
    8.7750  -14.6495   26.9084 C   0  0  0  0  0  0  0  0  0  0  0  0
    7.7662  -15.2699   27.2706 O   0  0  0  0  0  0  0  0  0  0  0  0
   10.5880  -17.6218   25.8356 C   0  0  0  0  0  0  0  0  0  0  0  0
   11.0781  -17.3625   27.2276 C   0  0  1  0  0  0  0  0  0  0  0  0
   12.3600  -16.8181   27.1532 O   0  0  0  0  0  0  0  0  0  0  0  0
   10.2262  -16.4054   28.0111 C   0  0  2  0  0  0  0  0  0  0  0  0
   10.0431  -15.1322   27.3888 N   0  0  0  0  0  0  0  0  0  0  0  0
   10.6480  -16.3060   29.4347 C   0  0  0  0  0  0  0  0  0  0  0  0
   10.7326  -17.4217   30.2585 O   0  0  0  0  0  0  0  0  0  0  0  0
   10.9553  -15.2125   29.9877 O   0  0  0  0  0  0  0  0  0  0  0  0
  2  4  1  0
  2  1  1  0
  3  2  2  0
  5  4  1  0
  5  6  1  6
  5  7  1  0
  7  8  2  0
  9  7  1  0
  9 13  1  0
 10  9  1  0
 11 10  1  0
 11 12  1  0
 12 13  1  0
 13 14  1  1
 14 20  1  0
 14 15  2  0
 17 16  1  6
 17 19  1  0
 18 17  1  0
 19 21  1  0
 19 20  1  6
 21 22  1  0
 23 21  2  0
M  END
$$$$
