NPT.pdb
     RDKit          3D

 23 23  0  0  1  0  0  0  0  0999 V2000
    7.7399  -17.1998   21.7610 N   0  0  0  0  0  0  0  0  0  0  0  0
    6.7172  -16.7312   22.6318 C   0  0  0  0  0  0  0  0  0  0  0  0
    6.1912  -17.5385   23.4395 O   0  0  0  0  0  0  0  0  0  0  0  0
    6.2275  -15.3385   22.6478 C   0  0  0  0  0  0  0  0  0  0  0  0
    7.4268  -14.4218   22.4044 C   0  0  2  0  0  0  0  0  0  0  0  0
    8.1857  -14.8869   21.2732 N   0  0  0  0  0  0  0  0  0  0  0  0
    8.2112  -14.2799   23.6459 C   0  0  0  0  0  0  0  0  0  0  0  0
    9.3839  -14.7132   23.6680 O   0  0  0  0  0  0  0  0  0  0  0  0
    7.6714  -13.6741   24.7891 N   0  0  0  0  0  0  0  0  0  0  0  0
    6.3076  -13.2243   24.9319 C   0  0  0  0  0  0  0  0  0  0  0  0
    6.1507  -12.6646   26.3276 C   0  0  0  0  0  0  0  0  0  0  0  0
    7.5462  -12.3886   26.7669 C   0  0  0  0  0  0  0  0  0  0  0  0
    8.3703  -13.4003   26.0089 C   0  0  1  0  0  0  0  0  0  0  0  0
    8.5777  -14.5720   26.8623 C   0  0  0  0  0  0  0  0  0  0  0  0
    7.6351  -15.3336   27.1178 O   0  0  0  0  0  0  0  0  0  0  0  0
   10.6207  -17.4696   26.0881 C   0  0  0  0  0  0  0  0  0  0  0  0
   11.0692  -17.0438   27.4530 C   0  0  1  0  0  0  0  0  0  0  0  0
   12.2917  -16.3833   27.3331 O   0  0  0  0  0  0  0  0  0  0  0  0
   10.1193  -16.1121   28.1495 C   0  0  2  0  0  0  0  0  0  0  0  0
    9.8544  -14.9001   27.4404 N   0  0  0  0  0  0  0  0  0  0  0  0
   10.4870  -15.8885   29.5741 C   0  0  0  0  0  0  0  0  0  0  0  0
   10.6667  -16.9410   30.4633 O   0  0  0  0  0  0  0  0  0  0  0  0
   10.6595  -14.7392   30.0691 O   0  0  0  0  0  0  0  0  0  0  0  0
  2  4  1  0
  2  1  1  0
  3  2  2  0
  5  4  1  0
  5  6  1  6
  5  7  1  0
  7  8  2  0
  9  7  1  0
  9 13  1  0
 10  9  1  0
 11 10  1  0
 11 12  1  0
 12 13  1  0
 13 14  1  1
 14 20  1  0
 14 15  2  0
 17 16  1  6
 17 19  1  0
 18 17  1  0
 19 21  1  0
 19 20  1  6
 21 22  1  0
 23 21  2  0
M  END
$$$$
