NPT.pdb
     RDKit          3D

 23 23  0  0  1  0  0  0  0  0999 V2000
    8.2053  -16.9098   22.3380 N   0  0  0  0  0  0  0  0  0  0  0  0
    6.8245  -16.6374   22.5448 C   0  0  0  0  0  0  0  0  0  0  0  0
    6.0364  -17.6004   22.7249 O   0  0  0  0  0  0  0  0  0  0  0  0
    6.2499  -15.2775   22.5618 C   0  0  0  0  0  0  0  0  0  0  0  0
    7.4008  -14.2851   22.3922 C   0  0  2  0  0  0  0  0  0  0  0  0
    8.1584  -14.6008   21.2099 N   0  0  0  0  0  0  0  0  0  0  0  0
    8.2016  -14.2277   23.6301 C   0  0  0  0  0  0  0  0  0  0  0  0
    9.3541  -14.7123   23.6226 O   0  0  0  0  0  0  0  0  0  0  0  0
    7.6990  -13.6455   24.8021 N   0  0  0  0  0  0  0  0  0  0  0  0
    6.3515  -13.1621   24.9842 C   0  0  0  0  0  0  0  0  0  0  0  0
    6.2345  -12.6453   26.4001 C   0  0  0  0  0  0  0  0  0  0  0  0
    7.6447  -12.4240   26.8233 C   0  0  0  0  0  0  0  0  0  0  0  0
    8.4261  -13.4328   26.0176 C   0  0  1  0  0  0  0  0  0  0  0  0
    8.6137  -14.6379   26.8281 C   0  0  0  0  0  0  0  0  0  0  0  0
    7.6572  -15.3892   27.0613 O   0  0  0  0  0  0  0  0  0  0  0  0
   10.6385  -17.4832   25.8474 C   0  0  0  0  0  0  0  0  0  0  0  0
   11.0927  -17.1548   27.2371 C   0  0  1  0  0  0  0  0  0  0  0  0
   12.3143  -16.4864   27.1591 O   0  0  0  0  0  0  0  0  0  0  0  0
   10.1453  -16.2755   28.0019 C   0  0  2  0  0  0  0  0  0  0  0  0
    9.8862  -15.0116   27.3876 N   0  0  0  0  0  0  0  0  0  0  0  0
   10.5116  -16.1635   29.4399 C   0  0  0  0  0  0  0  0  0  0  0  0
   10.6658  -17.2811   30.2510 O   0  0  0  0  0  0  0  0  0  0  0  0
   10.7059  -15.0568   30.0173 O   0  0  0  0  0  0  0  0  0  0  0  0
  2  4  1  0
  2  1  1  0
  3  2  2  0
  5  4  1  0
  5  6  1  6
  5  7  1  0
  7  8  2  0
  9  7  1  0
  9 13  1  0
 10  9  1  0
 11 10  1  0
 11 12  1  0
 12 13  1  0
 13 14  1  1
 14 20  1  0
 14 15  2  0
 17 16  1  6
 17 19  1  0
 18 17  1  0
 19 21  1  0
 19 20  1  6
 21 22  1  0
 23 21  2  0
M  END
$$$$
