NPT.pdb
     RDKit          3D

 23 23  0  0  1  0  0  0  0  0999 V2000
    8.7337  -19.3464   16.9011 N   0  0  0  0  0  0  0  0  0  0  0  0
    9.0641  -19.8823   18.1767 C   0  0  0  0  0  0  0  0  0  0  0  0
    8.9288  -21.1174   18.3694 O   0  0  0  0  0  0  0  0  0  0  0  0
    9.5625  -19.0697   19.3041 C   0  0  0  0  0  0  0  0  0  0  0  0
    9.5920  -17.6107   18.8475 C   0  0  2  0  0  0  0  0  0  0  0  0
   10.7334  -17.3782   18.0020 N   0  0  0  0  0  0  0  0  0  0  0  0
    9.5099  -16.7159   20.0177 C   0  0  0  0  0  0  0  0  0  0  0  0
   10.5618  -16.4306   20.6303 O   0  0  0  0  0  0  0  0  0  0  0  0
    8.2867  -16.1851   20.4504 N   0  0  0  0  0  0  0  0  0  0  0  0
    7.0043  -16.4317   19.8363 C   0  0  0  0  0  0  0  0  0  0  0  0
    5.9587  -15.6918   20.6393 C   0  0  0  0  0  0  0  0  0  0  0  0
    6.7372  -14.6761   21.4004 C   0  0  0  0  0  0  0  0  0  0  0  0
    8.0938  -15.3147   21.5714 C   0  0  1  0  0  0  0  0  0  0  0  0
    8.1365  -15.9864   22.8719 C   0  0  0  0  0  0  0  0  0  0  0  0
    7.8103  -17.1770   22.9714 O   0  0  0  0  0  0  0  0  0  0  0  0
    8.2149  -13.9539   26.7908 C   0  0  0  0  0  0  0  0  0  0  0  0
    9.1413  -15.0843   26.4602 C   0  0  1  0  0  0  0  0  0  0  0  0
    9.2935  -15.8806   27.5951 O   0  0  0  0  0  0  0  0  0  0  0  0
    8.6574  -15.9708   25.3486 C   0  0  2  0  0  0  0  0  0  0  0  0
    8.5486  -15.3215   24.0803 N   0  0  0  0  0  0  0  0  0  0  0  0
    7.4354  -16.7332   25.7227 C   0  0  0  0  0  0  0  0  0  0  0  0
    7.4888  -17.8605   26.5333 O   0  0  0  0  0  0  0  0  0  0  0  0
    6.2770  -16.4124   25.3340 O   0  0  0  0  0  0  0  0  0  0  0  0
  2  4  1  0
  2  1  1  0
  3  2  2  0
  5  4  1  0
  5  6  1  1
  5  7  1  0
  7  8  2  0
  9  7  1  0
  9 13  1  0
 10  9  1  0
 11 10  1  0
 11 12  1  0
 12 13  1  0
 13 14  1  1
 14 20  1  0
 14 15  2  0
 17 16  1  1
 17 19  1  0
 18 17  1  0
 19 21  1  0
 19 20  1  6
 21 22  1  0
 23 21  2  0
M  END
$$$$
