NPT.pdb
     RDKit          3D

 23 23  0  0  1  0  0  0  0  0999 V2000
    4.4050  -18.4029   18.6692 N   0  0  0  0  0  0  0  0  0  0  0  0
    5.5619  -18.3548   17.8428 C   0  0  0  0  0  0  0  0  0  0  0  0
    5.4173  -18.3878   16.5942 O   0  0  0  0  0  0  0  0  0  0  0  0
    6.9402  -18.2674   18.3647 C   0  0  0  0  0  0  0  0  0  0  0  0
    7.6439  -17.1268   17.6287 C   0  0  2  0  0  0  0  0  0  0  0  0
    8.2318  -17.6119   16.4077 N   0  0  0  0  0  0  0  0  0  0  0  0
    8.5937  -16.4539   18.5353 C   0  0  0  0  0  0  0  0  0  0  0  0
    9.7443  -16.9275   18.6585 O   0  0  0  0  0  0  0  0  0  0  0  0
    8.2334  -15.3051   19.2533 N   0  0  0  0  0  0  0  0  0  0  0  0
    6.9383  -14.6692   19.2183 C   0  0  0  0  0  0  0  0  0  0  0  0
    6.9795  -13.4875   20.1605 C   0  0  0  0  0  0  0  0  0  0  0  0
    8.4325  -13.2174   20.3407 C   0  0  0  0  0  0  0  0  0  0  0  0
    9.0778  -14.5674   20.1444 C   0  0  1  0  0  0  0  0  0  0  0  0
    9.2663  -15.1932   21.4548 C   0  0  0  0  0  0  0  0  0  0  0  0
    8.3333  -15.2329   22.2683 O   0  0  0  0  0  0  0  0  0  0  0  0
    9.6822  -18.6579   22.2443 C   0  0  0  0  0  0  0  0  0  0  0  0
   10.8470  -17.9903   22.9096 C   0  0  1  0  0  0  0  0  0  0  0  0
   11.9843  -18.2002   22.1300 O   0  0  0  0  0  0  0  0  0  0  0  0
   10.6877  -16.5073   23.0852 C   0  0  2  0  0  0  0  0  0  0  0  0
   10.5132  -15.7836   21.8655 N   0  0  0  0  0  0  0  0  0  0  0  0
   11.7359  -15.9251   23.9666 C   0  0  0  0  0  0  0  0  0  0  0  0
   12.6503  -14.9864   23.5044 O   0  0  0  0  0  0  0  0  0  0  0  0
   11.8663  -16.2399   25.1830 O   0  0  0  0  0  0  0  0  0  0  0  0
  2  4  1  0
  2  1  1  0
  3  2  2  0
  5  4  1  0
  5  6  1  6
  5  7  1  0
  7  8  2  0
  9  7  1  0
  9 13  1  0
 10  9  1  0
 11 10  1  0
 11 12  1  0
 12 13  1  0
 13 14  1  1
 14 20  1  0
 14 15  2  0
 17 16  1  6
 17 19  1  0
 18 17  1  0
 19 21  1  0
 19 20  1  6
 21 22  1  0
 23 21  2  0
M  END
$$$$
