NPT.pdb
     RDKit          3D

 23 23  0  0  1  0  0  0  0  0999 V2000
    8.6549  -16.5013   19.9366 N   0  0  0  0  0  0  0  0  0  0  0  0
    7.6109  -16.8848   20.8236 C   0  0  0  0  0  0  0  0  0  0  0  0
    7.1361  -18.0457   20.7359 O   0  0  0  0  0  0  0  0  0  0  0  0
    7.0418  -15.9944   21.8547 C   0  0  0  0  0  0  0  0  0  0  0  0
    7.7882  -14.6620   21.7810 C   0  0  2  0  0  0  0  0  0  0  0  0
    8.6565  -14.6422   20.6332 N   0  0  0  0  0  0  0  0  0  0  0  0
    8.4686  -14.3953   23.0627 C   0  0  0  0  0  0  0  0  0  0  0  0
    9.7043  -14.5721   23.1346 O   0  0  0  0  0  0  0  0  0  0  0  0
    7.7622  -13.9519   24.1894 N   0  0  0  0  0  0  0  0  0  0  0  0
    6.3504  -13.6557   24.2278 C   0  0  0  0  0  0  0  0  0  0  0  0
    6.0045  -13.2421   25.6403 C   0  0  0  0  0  0  0  0  0  0  0  0
    7.3148  -12.8682   26.2402 C   0  0  0  0  0  0  0  0  0  0  0  0
    8.3108  -13.7200   25.4920 C   0  0  1  0  0  0  0  0  0  0  0  0
    8.5637  -14.9369   26.2662 C   0  0  0  0  0  0  0  0  0  0  0  0
    8.3142  -16.0490   25.7816 O   0  0  0  0  0  0  0  0  0  0  0  0
   11.2774  -13.5220   29.0597 C   0  0  0  0  0  0  0  0  0  0  0  0
   10.9913  -14.9878   29.1816 C   0  0  1  0  0  0  0  0  0  0  0  0
   10.1592  -15.1881   30.2827 O   0  0  0  0  0  0  0  0  0  0  0  0
   10.3064  -15.5822   27.9844 C   0  0  2  0  0  0  0  0  0  0  0  0
    9.1025  -14.9148   27.6008 N   0  0  0  0  0  0  0  0  0  0  0  0
   10.1477  -17.0575   28.0967 C   0  0  0  0  0  0  0  0  0  0  0  0
    8.9038  -17.6728   28.0278 O   0  0  0  0  0  0  0  0  0  0  0  0
   11.1218  -17.8449   28.2607 O   0  0  0  0  0  0  0  0  0  0  0  0
  2  4  1  0
  2  1  1  0
  3  2  2  0
  5  4  1  0
  5  6  1  6
  5  7  1  0
  7  8  2  0
  9  7  1  0
  9 13  1  0
 10  9  1  0
 11 10  1  0
 11 12  1  0
 12 13  1  0
 13 14  1  1
 14 20  1  0
 14 15  2  0
 17 16  1  6
 17 19  1  0
 18 17  1  0
 19 21  1  0
 19 20  1  1
 21 22  1  0
 23 21  2  0
M  END
$$$$
