NPT.pdb
     RDKit          3D

 23 23  0  0  1  0  0  0  0  0999 V2000
    7.9829  -18.5456   14.1347 N   0  0  0  0  0  0  0  0  0  0  0  0
    7.7481  -17.4627   15.0268 C   0  0  0  0  0  0  0  0  0  0  0  0
    6.7120  -16.7665   14.8763 O   0  0  0  0  0  0  0  0  0  0  0  0
    8.6558  -17.0992   16.1330 C   0  0  0  0  0  0  0  0  0  0  0  0
    8.8476  -15.5827   16.0970 C   0  0  2  0  0  0  0  0  0  0  0  0
    9.4791  -15.1913   14.8642 N   0  0  0  0  0  0  0  0  0  0  0  0
    9.5566  -15.1366   17.3116 C   0  0  0  0  0  0  0  0  0  0  0  0
   10.7720  -15.4051   17.4301 O   0  0  0  0  0  0  0  0  0  0  0  0
    8.8991  -14.4245   18.3244 N   0  0  0  0  0  0  0  0  0  0  0  0
    7.5131  -14.0234   18.2999 C   0  0  0  0  0  0  0  0  0  0  0  0
    7.2168  -13.3095   19.5992 C   0  0  0  0  0  0  0  0  0  0  0  0
    8.5586  -12.9200   20.1135 C   0  0  0  0  0  0  0  0  0  0  0  0
    9.4802  -13.9761   19.5543 C   0  0  1  0  0  0  0  0  0  0  0  0
    9.6545  -15.0274   20.5586 C   0  0  0  0  0  0  0  0  0  0  0  0
    8.7987  -15.9127   20.6916 O   0  0  0  0  0  0  0  0  0  0  0  0
   12.7881  -17.5976   23.4800 C   0  0  0  0  0  0  0  0  0  0  0  0
   12.5154  -16.4057   22.6139 C   0  0  1  0  0  0  0  0  0  0  0  0
   13.1660  -16.5850   21.3934 O   0  0  0  0  0  0  0  0  0  0  0  0
   11.0600  -16.1791   22.3204 C   0  0  2  0  0  0  0  0  0  0  0  0
   10.7995  -15.0934   21.4285 N   0  0  0  0  0  0  0  0  0  0  0  0
   10.2330  -16.1325   23.5566 C   0  0  0  0  0  0  0  0  0  0  0  0
    9.9561  -17.2719   24.3021 O   0  0  0  0  0  0  0  0  0  0  0  0
    9.7304  -15.0657   24.0098 O   0  0  0  0  0  0  0  0  0  0  0  0
  2  4  1  0
  2  1  1  0
  3  2  2  0
  5  4  1  0
  5  6  1  6
  5  7  1  0
  7  8  2  0
  9  7  1  0
  9 13  1  0
 10  9  1  0
 11 10  1  0
 11 12  1  0
 12 13  1  0
 13 14  1  1
 14 20  1  0
 14 15  2  0
 17 16  1  1
 17 19  1  0
 18 17  1  0
 19 21  1  0
 19 20  1  1
 21 22  1  0
 23 21  2  0
M  END
$$$$
