NPT.pdb
     RDKit          3D

 23 23  0  0  1  0  0  0  0  0999 V2000
    7.9716  -15.8926   14.0423 N   0  0  0  0  0  0  0  0  0  0  0  0
    7.8159  -16.8184   15.1111 C   0  0  0  0  0  0  0  0  0  0  0  0
    7.0893  -17.8296   14.9369 O   0  0  0  0  0  0  0  0  0  0  0  0
    8.4617  -16.6653   16.4299 C   0  0  0  0  0  0  0  0  0  0  0  0
    9.3435  -15.4175   16.3730 C   0  0  2  0  0  0  0  0  0  0  0  0
   10.3940  -15.5956   15.4053 N   0  0  0  0  0  0  0  0  0  0  0  0
    9.8166  -15.0740   17.7277 C   0  0  0  0  0  0  0  0  0  0  0  0
   10.9777  -15.3993   18.0586 O   0  0  0  0  0  0  0  0  0  0  0  0
    8.9967  -14.3965   18.6408 N   0  0  0  0  0  0  0  0  0  0  0  0
    7.6424  -13.9662   18.3890 C   0  0  0  0  0  0  0  0  0  0  0  0
    7.1263  -13.3077   19.6483 C   0  0  0  0  0  0  0  0  0  0  0  0
    8.3587  -12.9704   20.4127 C   0  0  0  0  0  0  0  0  0  0  0  0
    9.3530  -14.0181   19.9755 C   0  0  1  0  0  0  0  0  0  0  0  0
    9.3317  -15.1184   20.9414 C   0  0  0  0  0  0  0  0  0  0  0  0
    8.3674  -15.8946   20.9832 O   0  0  0  0  0  0  0  0  0  0  0  0
   11.9531  -17.7340   20.9500 C   0  0  0  0  0  0  0  0  0  0  0  0
   11.7745  -17.3388   22.3843 C   0  0  1  0  0  0  0  0  0  0  0  0
   12.8593  -16.5499   22.7663 O   0  0  0  0  0  0  0  0  0  0  0  0
   10.5255  -16.5495   22.6537 C   0  0  2  0  0  0  0  0  0  0  0  0
   10.4006  -15.3578   21.8752 N   0  0  0  0  0  0  0  0  0  0  0  0
   10.2989  -16.3257   24.1074 C   0  0  0  0  0  0  0  0  0  0  0  0
   10.2717  -17.3736   25.0195 O   0  0  0  0  0  0  0  0  0  0  0  0
   10.1175  -15.1803   24.6082 O   0  0  0  0  0  0  0  0  0  0  0  0
  2  4  1  0
  2  1  1  0
  3  2  2  0
  5  4  1  0
  5  6  1  6
  5  7  1  0
  7  8  2  0
  9  7  1  0
  9 13  1  0
 10  9  1  0
 11 10  1  0
 11 12  1  0
 12 13  1  0
 13 14  1  1
 14 20  1  0
 14 15  2  0
 17 16  1  6
 17 19  1  0
 18 17  1  0
 19 21  1  0
 19 20  1  6
 21 22  1  0
 23 21  2  0
M  END
$$$$
