NPT.pdb
     RDKit          3D

 23 23  0  0  1  0  0  0  0  0999 V2000
    7.0400  -17.5540   20.3175 N   0  0  0  0  0  0  0  0  0  0  0  0
    6.6766  -16.5426   21.2495 C   0  0  0  0  0  0  0  0  0  0  0  0
    5.6875  -15.8095   20.9943 O   0  0  0  0  0  0  0  0  0  0  0  0
    7.3965  -16.2956   22.5145 C   0  0  0  0  0  0  0  0  0  0  0  0
    8.1088  -14.9486   22.3880 C   0  0  2  0  0  0  0  0  0  0  0  0
    8.9639  -14.9459   21.2301 N   0  0  0  0  0  0  0  0  0  0  0  0
    8.7964  -14.6226   23.6521 C   0  0  0  0  0  0  0  0  0  0  0  0
    9.9991  -14.9392   23.7803 O   0  0  0  0  0  0  0  0  0  0  0  0
    8.1325  -13.9711   24.7009 N   0  0  0  0  0  0  0  0  0  0  0  0
    6.7585  -13.5306   24.6750 C   0  0  0  0  0  0  0  0  0  0  0  0
    6.4484  -12.9091   26.0179 C   0  0  0  0  0  0  0  0  0  0  0  0
    7.7866  -12.5974   26.5913 C   0  0  0  0  0  0  0  0  0  0  0  0
    8.6940  -13.6336   25.9746 C   0  0  1  0  0  0  0  0  0  0  0  0
    8.8153  -14.7624   26.8994 C   0  0  0  0  0  0  0  0  0  0  0  0
    7.8147  -15.4184   27.2194 O   0  0  0  0  0  0  0  0  0  0  0  0
   10.7229  -17.7958   26.2135 C   0  0  0  0  0  0  0  0  0  0  0  0
   11.1528  -17.3773   27.5866 C   0  0  1  0  0  0  0  0  0  0  0  0
   12.4236  -16.8092   27.5005 O   0  0  0  0  0  0  0  0  0  0  0  0
   10.2493  -16.3663   28.2323 C   0  0  2  0  0  0  0  0  0  0  0  0
   10.0703  -15.1665   27.4770 N   0  0  0  0  0  0  0  0  0  0  0  0
   10.6056  -16.1147   29.6551 C   0  0  0  0  0  0  0  0  0  0  0  0
   10.8296  -14.8334   30.1439 O   0  0  0  0  0  0  0  0  0  0  0  0
   10.7281  -17.0380   30.5085 O   0  0  0  0  0  0  0  0  0  0  0  0
  2  4  1  0
  2  1  1  0
  3  2  2  0
  5  4  1  0
  5  6  1  6
  5  7  1  0
  7  8  2  0
  9  7  1  0
  9 13  1  0
 10  9  1  0
 11 10  1  0
 11 12  1  0
 12 13  1  0
 13 14  1  1
 14 20  1  0
 14 15  2  0
 17 16  1  6
 17 19  1  0
 18 17  1  0
 19 21  1  0
 19 20  1  6
 21 22  1  0
 23 21  2  0
M  END
$$$$
