NPT.pdb
     RDKit          3D

 23 23  0  0  1  0  0  0  0  0999 V2000
    6.0393  -19.9128   16.9479 N   0  0  0  0  0  0  0  0  0  0  0  0
    5.8769  -18.8647   17.8959 C   0  0  0  0  0  0  0  0  0  0  0  0
    4.7444  -18.3343   18.0259 O   0  0  0  0  0  0  0  0  0  0  0  0
    6.9682  -18.3531   18.7485 C   0  0  0  0  0  0  0  0  0  0  0  0
    7.6304  -17.1910   18.0076 C   0  0  2  0  0  0  0  0  0  0  0  0
    8.2000  -17.6521   16.7688 N   0  0  0  0  0  0  0  0  0  0  0  0
    8.5864  -16.5061   18.8986 C   0  0  0  0  0  0  0  0  0  0  0  0
    9.7852  -16.8608   18.8792 O   0  0  0  0  0  0  0  0  0  0  0  0
    8.1793  -15.4756   19.7574 N   0  0  0  0  0  0  0  0  0  0  0  0
    6.8379  -14.9534   19.8597 C   0  0  0  0  0  0  0  0  0  0  0  0
    6.8412  -13.8796   20.9239 C   0  0  0  0  0  0  0  0  0  0  0  0
    8.2762  -13.5062   21.0583 C   0  0  0  0  0  0  0  0  0  0  0  0
    9.0143  -14.7670   20.6804 C   0  0  1  0  0  0  0  0  0  0  0  0
    9.3310  -15.5103   21.9018 C   0  0  0  0  0  0  0  0  0  0  0  0
    8.4240  -15.8916   22.6540 O   0  0  0  0  0  0  0  0  0  0  0  0
   10.4993  -18.8309   22.1321 C   0  0  0  0  0  0  0  0  0  0  0  0
   11.4831  -18.0637   22.9620 C   0  0  1  0  0  0  0  0  0  0  0  0
   12.6510  -17.8904   22.2197 O   0  0  0  0  0  0  0  0  0  0  0  0
   11.0064  -16.7015   23.3779 C   0  0  2  0  0  0  0  0  0  0  0  0
   10.6785  -15.8334   22.2913 N   0  0  0  0  0  0  0  0  0  0  0  0
   11.9042  -16.0691   24.3822 C   0  0  0  0  0  0  0  0  0  0  0  0
   12.1053  -16.6196   25.6420 O   0  0  0  0  0  0  0  0  0  0  0  0
   12.5392  -14.9994   24.1620 O   0  0  0  0  0  0  0  0  0  0  0  0
  2  4  1  0
  2  1  1  0
  3  2  2  0
  5  4  1  0
  5  6  1  6
  5  7  1  0
  7  8  2  0
  9  7  1  0
  9 13  1  0
 10  9  1  0
 11 10  1  0
 11 12  1  0
 12 13  1  0
 13 14  1  1
 14 20  1  0
 14 15  2  0
 17 16  1  6
 17 19  1  0
 18 17  1  0
 19 21  1  0
 19 20  1  6
 21 22  1  0
 23 21  2  0
M  END
$$$$
