NPT.pdb
     RDKit          3D

 23 23  0  0  1  0  0  0  0  0999 V2000
    7.0792  -19.1737   15.1736 N   0  0  0  0  0  0  0  0  0  0  0  0
    6.9874  -17.8612   15.7144 C   0  0  0  0  0  0  0  0  0  0  0  0
    6.2535  -17.0178   15.1390 O   0  0  0  0  0  0  0  0  0  0  0  0
    7.7087  -17.4201   16.9248 C   0  0  0  0  0  0  0  0  0  0  0  0
    8.5025  -16.1650   16.5607 C   0  0  2  0  0  0  0  0  0  0  0  0
    9.3464  -16.4237   15.4238 N   0  0  0  0  0  0  0  0  0  0  0  0
    9.2194  -15.6616   17.7479 C   0  0  0  0  0  0  0  0  0  0  0  0
   10.4188  -15.9782   17.9040 O   0  0  0  0  0  0  0  0  0  0  0  0
    8.5868  -14.8431   18.6940 N   0  0  0  0  0  0  0  0  0  0  0  0
    7.2241  -14.3744   18.6162 C   0  0  0  0  0  0  0  0  0  0  0  0
    6.9484  -13.5513   19.8540 C   0  0  0  0  0  0  0  0  0  0  0  0
    8.3018  -13.1938   20.3610 C   0  0  0  0  0  0  0  0  0  0  0  0
    9.1742  -14.3345   19.8972 C   0  0  1  0  0  0  0  0  0  0  0  0
    9.2798  -15.3155   20.9793 C   0  0  0  0  0  0  0  0  0  0  0  0
    8.3109  -16.0291   21.2725 O   0  0  0  0  0  0  0  0  0  0  0  0
   11.5384  -18.1464   20.8818 C   0  0  0  0  0  0  0  0  0  0  0  0
   11.7434  -17.5617   22.2461 C   0  0  1  0  0  0  0  0  0  0  0  0
   12.9641  -16.8873   22.2617 O   0  0  0  0  0  0  0  0  0  0  0  0
   10.6822  -16.5836   22.6617 C   0  0  2  0  0  0  0  0  0  0  0  0
   10.4829  -15.5042   21.7467 N   0  0  0  0  0  0  0  0  0  0  0  0
   10.8464  -16.1338   24.0707 C   0  0  0  0  0  0  0  0  0  0  0  0
   10.7985  -17.0216   25.1386 O   0  0  0  0  0  0  0  0  0  0  0  0
   11.0387  -14.9270   24.3909 O   0  0  0  0  0  0  0  0  0  0  0  0
  2  4  1  0
  2  1  1  0
  3  2  2  0
  5  4  1  0
  5  6  1  6
  5  7  1  0
  7  8  2  0
  9  7  1  0
  9 13  1  0
 10  9  1  0
 11 10  1  0
 11 12  1  0
 12 13  1  0
 13 14  1  1
 14 20  1  0
 14 15  2  0
 17 16  1  6
 17 19  1  0
 18 17  1  0
 19 21  1  0
 19 20  1  6
 21 22  1  0
 23 21  2  0
M  END
$$$$
