NPT.pdb
     RDKit          3D

 23 23  0  0  1  0  0  0  0  0999 V2000
   -1.3762  -28.9517   27.9350 N   0  0  0  0  0  0  0  0  0  0  0  0
   -1.8158  -28.3717   29.1573 C   0  0  0  0  0  0  0  0  0  0  0  0
   -1.7846  -29.0668   30.2045 O   0  0  0  0  0  0  0  0  0  0  0  0
   -2.3132  -26.9867   29.2761 C   0  0  0  0  0  0  0  0  0  0  0  0
   -2.2168  -26.3386   27.8946 C   0  0  2  0  0  0  0  0  0  0  0  0
   -0.8600  -25.9397   27.6269 N   0  0  0  0  0  0  0  0  0  0  0  0
   -3.2047  -25.2486   27.7806 C   0  0  0  0  0  0  0  0  0  0  0  0
   -2.9005  -24.1151   28.2119 O   0  0  0  0  0  0  0  0  0  0  0  0
   -4.4647  -25.4586   27.2032 N   0  0  0  0  0  0  0  0  0  0  0  0
   -4.9213  -26.6971   26.6200 C   0  0  0  0  0  0  0  0  0  0  0  0
   -6.3421  -26.4880   26.1477 C   0  0  0  0  0  0  0  0  0  0  0  0
   -6.4801  -25.0084   26.0562 C   0  0  0  0  0  0  0  0  0  0  0  0
   -5.5149  -24.4907   27.0943 C   0  0  1  0  0  0  0  0  0  0  0  0
   -6.2475  -24.2516   28.3395 C   0  0  0  0  0  0  0  0  0  0  0  0
   -6.5892  -25.2024   29.0559 O   0  0  0  0  0  0  0  0  0  0  0  0
   -4.9823  -22.4745   31.2838 C   0  0  0  0  0  0  0  0  0  0  0  0
   -6.3108  -21.8486   30.9862 C   0  0  1  0  0  0  0  0  0  0  0  0
   -6.0934  -20.6157   30.3715 O   0  0  0  0  0  0  0  0  0  0  0  0
   -7.1824  -22.6612   30.0720 C   0  0  2  0  0  0  0  0  0  0  0  0
   -6.6052  -22.9333   28.7934 N   0  0  0  0  0  0  0  0  0  0  0  0
   -8.5684  -22.1262   29.9868 C   0  0  0  0  0  0  0  0  0  0  0  0
   -9.4132  -22.0879   31.0893 O   0  0  0  0  0  0  0  0  0  0  0  0
   -9.0683  -21.6745   28.9182 O   0  0  0  0  0  0  0  0  0  0  0  0
  2  4  1  0
  2  1  1  0
  3  2  2  0
  5  4  1  0
  5  6  1  1
  5  7  1  0
  7  8  2  0
  9  7  1  0
  9 13  1  0
 10  9  1  0
 11 10  1  0
 11 12  1  0
 12 13  1  0
 13 14  1  1
 14 20  1  0
 14 15  2  0
 17 16  1  6
 17 19  1  0
 18 17  1  0
 19 21  1  0
 19 20  1  6
 21 22  1  0
 23 21  2  0
M  END
$$$$
