NPT.pdb
     RDKit          3D

 23 23  0  0  1  0  0  0  0  0999 V2000
    8.3138  -16.5647   21.9583 N   0  0  0  0  0  0  0  0  0  0  0  0
    6.9261  -16.3780   22.2093 C   0  0  0  0  0  0  0  0  0  0  0  0
    6.1841  -17.3893   22.2975 O   0  0  0  0  0  0  0  0  0  0  0  0
    6.2929  -15.0547   22.3750 C   0  0  0  0  0  0  0  0  0  0  0  0
    7.3991  -14.0005   22.3199 C   0  0  2  0  0  0  0  0  0  0  0  0
    8.1915  -14.1741   21.1308 N   0  0  0  0  0  0  0  0  0  0  0  0
    8.1744  -14.0191   23.5751 C   0  0  0  0  0  0  0  0  0  0  0  0
    9.3312  -14.4932   23.5593 O   0  0  0  0  0  0  0  0  0  0  0  0
    7.6431  -13.5198   24.7724 N   0  0  0  0  0  0  0  0  0  0  0  0
    6.2796  -13.0886   24.9664 C   0  0  0  0  0  0  0  0  0  0  0  0
    6.1335  -12.6566   26.4079 C   0  0  0  0  0  0  0  0  0  0  0  0
    7.5322  -12.4169   26.8585 C   0  0  0  0  0  0  0  0  0  0  0  0
    8.3519  -13.3542   26.0059 C   0  0  1  0  0  0  0  0  0  0  0  0
    8.5691  -14.5971   26.7492 C   0  0  0  0  0  0  0  0  0  0  0  0
    7.6222  -15.3617   26.9785 O   0  0  0  0  0  0  0  0  0  0  0  0
   10.6986  -17.3985   25.6531 C   0  0  0  0  0  0  0  0  0  0  0  0
   11.1108  -17.1099   27.0645 C   0  0  1  0  0  0  0  0  0  0  0  0
   12.3244  -16.4231   27.0414 O   0  0  0  0  0  0  0  0  0  0  0  0
   10.1309  -16.2689   27.8315 C   0  0  2  0  0  0  0  0  0  0  0  0
    9.8608  -14.9941   27.2450 N   0  0  0  0  0  0  0  0  0  0  0  0
   10.4646  -16.1884   29.2795 C   0  0  0  0  0  0  0  0  0  0  0  0
   10.6352  -17.3243   30.0613 O   0  0  0  0  0  0  0  0  0  0  0  0
   10.6145  -15.0939   29.8923 O   0  0  0  0  0  0  0  0  0  0  0  0
  2  4  1  0
  2  1  1  0
  3  2  2  0
  5  4  1  0
  5  6  1  6
  5  7  1  0
  7  8  2  0
  9  7  1  0
  9 13  1  0
 10  9  1  0
 11 10  1  0
 11 12  1  0
 12 13  1  0
 13 14  1  1
 14 20  1  0
 14 15  2  0
 17 16  1  6
 17 19  1  0
 18 17  1  0
 19 21  1  0
 19 20  1  6
 21 22  1  0
 23 21  2  0
M  END
$$$$
