NPT.pdb
     RDKit          3D

 23 23  0  0  1  0  0  0  0  0999 V2000
    8.7886  -17.6084   15.8506 N   0  0  0  0  0  0  0  0  0  0  0  0
   10.0314  -17.0179   15.4893 C   0  0  0  0  0  0  0  0  0  0  0  0
   10.4449  -17.1486   14.3092 O   0  0  0  0  0  0  0  0  0  0  0  0
   10.8781  -16.2509   16.4246 C   0  0  0  0  0  0  0  0  0  0  0  0
   10.1116  -16.1161   17.7408 C   0  0  2  0  0  0  0  0  0  0  0  0
    9.7003  -17.4128   18.2109 N   0  0  0  0  0  0  0  0  0  0  0  0
    9.0089  -15.1485   17.5836 C   0  0  0  0  0  0  0  0  0  0  0  0
    8.4745  -15.0245   16.4600 O   0  0  0  0  0  0  0  0  0  0  0  0
    8.5541  -14.3740   18.6599 N   0  0  0  0  0  0  0  0  0  0  0  0
    7.2732  -13.7131   18.7319 C   0  0  0  0  0  0  0  0  0  0  0  0
    7.1868  -13.0203   20.0730 C   0  0  0  0  0  0  0  0  0  0  0  0
    8.6027  -12.9221   20.5226 C   0  0  0  0  0  0  0  0  0  0  0  0
    9.2719  -14.1069   19.8701 C   0  0  1  0  0  0  0  0  0  0  0  0
    9.2880  -15.2202   20.8212 C   0  0  0  0  0  0  0  0  0  0  0  0
    8.3449  -16.0221   20.8605 O   0  0  0  0  0  0  0  0  0  0  0  0
   11.9292  -17.8228   20.8500 C   0  0  0  0  0  0  0  0  0  0  0  0
   11.7542  -17.4107   22.2800 C   0  0  1  0  0  0  0  0  0  0  0  0
   12.8391  -16.6159   22.6494 O   0  0  0  0  0  0  0  0  0  0  0  0
   10.5050  -16.6196   22.5434 C   0  0  2  0  0  0  0  0  0  0  0  0
   10.3708  -15.4436   21.7429 N   0  0  0  0  0  0  0  0  0  0  0  0
   10.2886  -16.3682   23.9941 C   0  0  0  0  0  0  0  0  0  0  0  0
   10.1970  -17.4035   24.9164 O   0  0  0  0  0  0  0  0  0  0  0  0
   10.1743  -15.2091   24.4830 O   0  0  0  0  0  0  0  0  0  0  0  0
  2  4  1  0
  2  1  1  0
  3  2  2  0
  5  4  1  0
  5  6  1  6
  5  7  1  0
  7  8  2  0
  9  7  1  0
  9 13  1  0
 10  9  1  0
 11 10  1  0
 11 12  1  0
 12 13  1  0
 13 14  1  1
 14 20  1  0
 14 15  2  0
 17 16  1  6
 17 19  1  0
 18 17  1  0
 19 21  1  0
 19 20  1  6
 21 22  1  0
 23 21  2  0
M  END
$$$$
