NPT.pdb
     RDKit          3D

 23 23  0  0  1  0  0  0  0  0999 V2000
    5.2245  -17.9572   17.3145 N   0  0  0  0  0  0  0  0  0  0  0  0
    6.4129  -18.6999   17.5589 C   0  0  0  0  0  0  0  0  0  0  0  0
    6.6254  -19.7424   16.8888 O   0  0  0  0  0  0  0  0  0  0  0  0
    7.4264  -18.3195   18.5627 C   0  0  0  0  0  0  0  0  0  0  0  0
    8.2554  -17.1767   17.9756 C   0  0  2  0  0  0  0  0  0  0  0  0
    9.0819  -17.6633   16.9024 N   0  0  0  0  0  0  0  0  0  0  0  0
    8.9967  -16.4896   19.0503 C   0  0  0  0  0  0  0  0  0  0  0  0
   10.1514  -16.8806   19.3281 O   0  0  0  0  0  0  0  0  0  0  0  0
    8.4360  -15.4173   19.7582 N   0  0  0  0  0  0  0  0  0  0  0  0
    7.1139  -14.8778   19.5492 C   0  0  0  0  0  0  0  0  0  0  0  0
    6.9110  -13.7572   20.5436 C   0  0  0  0  0  0  0  0  0  0  0  0
    8.2913  -13.3924   20.9660 C   0  0  0  0  0  0  0  0  0  0  0  0
    9.0685  -14.6762   20.8080 C   0  0  1  0  0  0  0  0  0  0  0  0
    9.1030  -15.3668   22.0988 C   0  0  0  0  0  0  0  0  0  0  0  0
    8.0568  -15.7890   22.6097 O   0  0  0  0  0  0  0  0  0  0  0  0
   10.8833  -18.4974   22.5060 C   0  0  0  0  0  0  0  0  0  0  0  0
   11.2933  -17.6833   23.6953 C   0  0  1  0  0  0  0  0  0  0  0  0
   12.5965  -17.2288   23.4949 O   0  0  0  0  0  0  0  0  0  0  0  0
   10.4292  -16.4804   23.9444 C   0  0  2  0  0  0  0  0  0  0  0  0
   10.3214  -15.5901   22.8319 N   0  0  0  0  0  0  0  0  0  0  0  0
   10.7733  -15.7890   25.2165 C   0  0  0  0  0  0  0  0  0  0  0  0
   11.2166  -14.4724   25.2437 O   0  0  0  0  0  0  0  0  0  0  0  0
   10.6874  -16.3445   26.3478 O   0  0  0  0  0  0  0  0  0  0  0  0
  2  4  1  0
  2  1  1  0
  3  2  2  0
  5  4  1  0
  5  6  1  6
  5  7  1  0
  7  8  2  0
  9  7  1  0
  9 13  1  0
 10  9  1  0
 11 10  1  0
 11 12  1  0
 12 13  1  0
 13 14  1  1
 14 20  1  0
 14 15  2  0
 17 16  1  6
 17 19  1  0
 18 17  1  0
 19 21  1  0
 19 20  1  6
 21 22  1  0
 23 21  2  0
M  END
$$$$
