ATY.pdb
     RDKit          3D

 25 25  0  0  1  0  0  0  0  0999 V2000
    8.1718  -12.2358   19.4002 C   0  0  0  0  0  0  0  0  0  0  0  0
    8.3784  -13.5982   18.7701 C   0  0  2  0  0  0  0  0  0  0  0  0
    7.4546  -13.8611   17.6968 N   0  0  0  0  0  0  0  0  0  0  0  0
    8.2984  -14.6324   19.8368 C   0  0  0  0  0  0  0  0  0  0  0  0
    7.1883  -15.1885   20.0896 O   0  0  0  0  0  0  0  0  0  0  0  0
    9.5557  -17.7691   19.9992 C   0  0  0  0  0  0  0  0  0  0  0  0
   10.0923  -17.2588   21.3254 C   0  0  1  0  0  0  0  0  0  0  0  0
   11.4536  -16.9812   21.1759 O   0  0  0  0  0  0  0  0  0  0  0  0
    9.3537  -16.0007   21.6594 C   0  0  2  0  0  0  0  0  0  0  0  0
    9.4168  -15.0376   20.6003 N   0  0  0  0  0  0  0  0  0  0  0  0
    9.8232  -15.4873   22.9547 C   0  0  0  0  0  0  0  0  0  0  0  0
   10.0324  -14.2785   23.2168 O   0  0  0  0  0  0  0  0  0  0  0  0
    6.5137  -10.7816   26.8106 O   0  0  0  0  0  0  0  0  0  0  0  0
    6.9107  -12.0501   26.4379 C   0  0  0  0  0  0  0  0  0  0  0  0
    8.0410  -12.6018   26.9877 C   0  0  0  0  0  0  0  0  0  0  0  0
    8.4251  -13.8887   26.5957 C   0  0  0  0  0  0  0  0  0  0  0  0
    7.6921  -14.5970   25.6778 C   0  0  0  0  0  0  0  0  0  0  0  0
    8.0898  -15.9395   25.2601 C   0  0  0  0  0  0  0  0  0  0  0  0
    9.5825  -16.1503   25.3468 C   0  0  2  0  0  0  0  0  0  0  0  0
   10.0588  -16.4334   23.9913 N   0  0  0  0  0  0  0  0  0  0  0  0
    9.9587  -17.2497   26.2623 C   0  0  0  0  0  0  0  0  0  0  0  0
   10.5241  -16.9850   27.5250 O   0  0  0  0  0  0  0  0  0  0  0  0
    6.5622  -14.0177   25.1430 C   0  0  0  0  0  0  0  0  0  0  0  0
    6.1560  -12.7363   25.5157 C   0  0  0  0  0  0  0  0  0  0  0  0
    9.8039  -18.4639   25.9837 O   0  0  0  0  0  0  0  0  0  0  0  0
  2  1  1  1
  3  2  1  0
  4  5  2  0
  4  2  1  0
  7  6  1  6
  7  8  1  0
  7  9  1  0
  9 10  1  6
 10  4  1  0
 11  9  1  0
 11 20  1  0
 12 11  2  0
 14 13  1  0
 15 14  2  0
 16 15  1  0
 17 16  2  0
 17 23  1  0
 18 17  1  0
 19 18  1  6
 20 19  1  0
 21 19  1  0
 22 21  1  0
 23 24  2  0
 24 14  1  0
 25 21  2  0
M  END
$$$$
