ATY.pdb
     RDKit          3D

 25 25  0  0  1  0  0  0  0  0999 V2000
    8.3369  -12.0896   19.2522 C   0  0  0  0  0  0  0  0  0  0  0  0
    8.4639  -13.4563   18.6104 C   0  0  2  0  0  0  0  0  0  0  0  0
    7.6102  -13.6131   17.4610 N   0  0  0  0  0  0  0  0  0  0  0  0
    8.1988  -14.4933   19.6439 C   0  0  0  0  0  0  0  0  0  0  0  0
    7.0139  -14.8983   19.8370 O   0  0  0  0  0  0  0  0  0  0  0  0
    8.9528  -17.8362   19.6380 C   0  0  0  0  0  0  0  0  0  0  0  0
    9.6333  -17.4105   20.9276 C   0  0  1  0  0  0  0  0  0  0  0  0
   10.9896  -17.2001   20.6649 O   0  0  0  0  0  0  0  0  0  0  0  0
    9.0003  -16.1295   21.3727 C   0  0  2  0  0  0  0  0  0  0  0  0
    9.2182  -15.0641   20.4396 N   0  0  0  0  0  0  0  0  0  0  0  0
    9.4391  -15.8168   22.7407 C   0  0  0  0  0  0  0  0  0  0  0  0
   10.4244  -15.0978   23.0339 O   0  0  0  0  0  0  0  0  0  0  0  0
    6.3453  -10.5195   26.6960 O   0  0  0  0  0  0  0  0  0  0  0  0
    6.7136  -11.8378   26.5174 C   0  0  0  0  0  0  0  0  0  0  0  0
    7.9501  -12.1385   26.0027 C   0  0  0  0  0  0  0  0  0  0  0  0
    8.3028  -13.4813   25.8300 C   0  0  0  0  0  0  0  0  0  0  0  0
    7.4353  -14.4894   26.1659 C   0  0  0  0  0  0  0  0  0  0  0  0
    7.7949  -15.8939   25.9839 C   0  0  0  0  0  0  0  0  0  0  0  0
    9.0713  -16.0632   25.1950 C   0  0  2  0  0  0  0  0  0  0  0  0
    8.6893  -16.3717   23.8154 N   0  0  0  0  0  0  0  0  0  0  0  0
    9.9472  -17.1264   25.7343 C   0  0  0  0  0  0  0  0  0  0  0  0
    9.9756  -18.4103   25.1554 O   0  0  0  0  0  0  0  0  0  0  0  0
    6.2010  -14.1574   26.6805 C   0  0  0  0  0  0  0  0  0  0  0  0
    5.8233  -12.8271   26.8633 C   0  0  0  0  0  0  0  0  0  0  0  0
   10.7065  -16.9616   26.7202 O   0  0  0  0  0  0  0  0  0  0  0  0
  2  1  1  1
  3  2  1  0
  4  5  2  0
  4  2  1  0
  7  6  1  6
  7  8  1  0
  7  9  1  0
  9 10  1  6
 10  4  1  0
 11  9  1  0
 11 20  1  0
 12 11  2  0
 14 13  1  0
 15 14  2  0
 16 15  1  0
 17 16  2  0
 17 23  1  0
 18 17  1  0
 19 18  1  1
 20 19  1  0
 21 19  1  0
 22 21  1  0
 23 24  2  0
 24 14  1  0
 25 21  2  0
M  END
$$$$
