ATY.pdb
     RDKit          3D

 25 25  0  0  1  0  0  0  0  0999 V2000
    4.7094  -18.5361   22.9758 C   0  0  0  0  0  0  0  0  0  0  0  0
    5.0355  -18.5540   21.4962 C   0  0  2  0  0  0  0  0  0  0  0  0
    4.8841  -19.8602   20.9085 N   0  0  0  0  0  0  0  0  0  0  0  0
    6.4095  -18.0158   21.3057 C   0  0  0  0  0  0  0  0  0  0  0  0
    7.3952  -18.8109   21.2683 O   0  0  0  0  0  0  0  0  0  0  0  0
    7.7237  -15.7556   18.7037 C   0  0  0  0  0  0  0  0  0  0  0  0
    8.1472  -15.0823   19.9978 C   0  0  1  0  0  0  0  0  0  0  0  0
    7.2971  -13.9984   20.2328 O   0  0  0  0  0  0  0  0  0  0  0  0
    8.0031  -16.0856   21.0990 C   0  0  2  0  0  0  0  0  0  0  0  0
    6.6817  -16.6363   21.1612 N   0  0  0  0  0  0  0  0  0  0  0  0
    8.4563  -15.4906   22.3648 C   0  0  0  0  0  0  0  0  0  0  0  0
    7.8872  -14.5440   22.9597 O   0  0  0  0  0  0  0  0  0  0  0  0
   10.4067  -14.4531   30.5080 O   0  0  0  0  0  0  0  0  0  0  0  0
   10.0506  -14.7647   29.2113 C   0  0  0  0  0  0  0  0  0  0  0  0
    9.6260  -13.7734   28.3619 C   0  0  0  0  0  0  0  0  0  0  0  0
    9.2700  -14.1116   27.0518 C   0  0  0  0  0  0  0  0  0  0  0  0
    9.3399  -15.4090   26.6122 C   0  0  0  0  0  0  0  0  0  0  0  0
    8.9652  -15.7703   25.2469 C   0  0  0  0  0  0  0  0  0  0  0  0
   10.0786  -15.5174   24.2588 C   0  0  2  0  0  0  0  0  0  0  0  0
    9.6304  -16.0290   22.9619 N   0  0  0  0  0  0  0  0  0  0  0  0
   11.3540  -16.1571   24.6491 C   0  0  0  0  0  0  0  0  0  0  0  0
   11.5184  -17.5546   24.5825 O   0  0  0  0  0  0  0  0  0  0  0  0
    9.7698  -16.3828   27.4871 C   0  0  0  0  0  0  0  0  0  0  0  0
   10.1310  -16.0739   28.7985 C   0  0  0  0  0  0  0  0  0  0  0  0
   12.3527  -15.5147   25.0562 O   0  0  0  0  0  0  0  0  0  0  0  0
  2  1  1  1
  3  2  1  0
  4  5  2  0
  4  2  1  0
  7  6  1  6
  7  8  1  0
  7  9  1  0
  9 10  1  1
 10  4  1  0
 11  9  1  0
 11 20  1  0
 12 11  2  0
 14 13  1  0
 15 14  2  0
 16 15  1  0
 17 16  2  0
 17 23  1  0
 18 17  1  0
 19 18  1  1
 20 19  1  0
 21 19  1  0
 22 21  1  0
 23 24  2  0
 24 14  1  0
 25 21  2  0
M  END
$$$$
