ATY.pdb
     RDKit          3D

 25 25  0  0  1  0  0  0  0  0999 V2000
    7.6278  -19.0974   18.0776 C   0  0  0  0  0  0  0  0  0  0  0  0
    7.9285  -17.9870   17.0913 C   0  0  2  0  0  0  0  0  0  0  0  0
    8.6885  -18.4419   15.9556 N   0  0  0  0  0  0  0  0  0  0  0  0
    8.6169  -16.8833   17.8135 C   0  0  0  0  0  0  0  0  0  0  0  0
    9.8827  -16.8259   17.8119 O   0  0  0  0  0  0  0  0  0  0  0  0
    8.4635  -12.3730   19.6939 C   0  0  0  0  0  0  0  0  0  0  0  0
    7.6609  -13.5355   19.1355 C   0  0  1  0  0  0  0  0  0  0  0  0
    7.2661  -13.2170   17.8334 O   0  0  0  0  0  0  0  0  0  0  0  0
    8.5556  -14.7350   19.1132 C   0  0  2  0  0  0  0  0  0  0  0  0
    7.9216  -15.8732   18.5167 N   0  0  0  0  0  0  0  0  0  0  0  0
    9.0700  -14.9864   20.4674 C   0  0  0  0  0  0  0  0  0  0  0  0
    8.3613  -15.1122   21.4948 O   0  0  0  0  0  0  0  0  0  0  0  0
   12.2370  -19.9852   26.3649 O   0  0  0  0  0  0  0  0  0  0  0  0
   11.7928  -19.2913   25.2573 C   0  0  0  0  0  0  0  0  0  0  0  0
   12.0463  -19.7775   23.9989 C   0  0  0  0  0  0  0  0  0  0  0  0
   11.5869  -19.0581   22.8904 C   0  0  0  0  0  0  0  0  0  0  0  0
   10.8936  -17.8848   23.0464 C   0  0  0  0  0  0  0  0  0  0  0  0
   10.4150  -17.1256   21.8933 C   0  0  0  0  0  0  0  0  0  0  0  0
   11.0223  -15.7450   21.8213 C   0  0  2  0  0  0  0  0  0  0  0  0
   10.4800  -15.0957   20.6260 N   0  0  0  0  0  0  0  0  0  0  0  0
   12.5005  -15.7659   21.7672 C   0  0  0  0  0  0  0  0  0  0  0  0
   13.2723  -15.7862   22.9454 O   0  0  0  0  0  0  0  0  0  0  0  0
   10.6539  -17.4213   24.3215 C   0  0  0  0  0  0  0  0  0  0  0  0
   11.1002  -18.1181   25.4444 C   0  0  0  0  0  0  0  0  0  0  0  0
   13.1523  -15.7671   20.6944 O   0  0  0  0  0  0  0  0  0  0  0  0
  2  1  1  1
  3  2  1  0
  4  5  2  0
  4  2  1  0
  7  6  1  6
  7  8  1  0
  7  9  1  0
  9 10  1  1
 10  4  1  0
 11  9  1  0
 11 20  1  0
 12 11  2  0
 14 13  1  0
 15 14  2  0
 16 15  1  0
 17 16  2  0
 17 23  1  0
 18 17  1  0
 19 18  1  6
 20 19  1  0
 21 19  1  0
 22 21  1  0
 23 24  2  0
 24 14  1  0
 25 21  2  0
M  END
$$$$
