ATY.pdb
     RDKit          3D

 25 25  0  0  1  0  0  0  0  0999 V2000
    9.8408  -23.6557   13.1568 C   0  0  0  0  0  0  0  0  0  0  0  0
    9.9816  -23.2369   14.6062 C   0  0  2  0  0  0  0  0  0  0  0  0
    8.8702  -22.4454   15.0675 N   0  0  0  0  0  0  0  0  0  0  0  0
   11.2769  -22.5238   14.7713 C   0  0  0  0  0  0  0  0  0  0  0  0
   12.3631  -23.1342   14.5406 O   0  0  0  0  0  0  0  0  0  0  0  0
   12.1758  -19.2499   13.2575 C   0  0  0  0  0  0  0  0  0  0  0  0
   12.5386  -19.0928   14.7241 C   0  0  1  0  0  0  0  0  0  0  0  0
   11.5373  -18.3467   15.3513 O   0  0  0  0  0  0  0  0  0  0  0  0
   12.6000  -20.4621   15.3251 C   0  0  2  0  0  0  0  0  0  0  0  0
   11.3647  -21.1736   15.1803 N   0  0  0  0  0  0  0  0  0  0  0  0
   13.0674  -20.3651   16.7158 C   0  0  0  0  0  0  0  0  0  0  0  0
   12.3596  -20.5777   17.7295 O   0  0  0  0  0  0  0  0  0  0  0  0
   13.0676  -20.7625   24.2946 O   0  0  0  0  0  0  0  0  0  0  0  0
   13.4732  -20.8757   22.9801 C   0  0  0  0  0  0  0  0  0  0  0  0
   12.5632  -21.2169   22.0107 C   0  0  0  0  0  0  0  0  0  0  0  0
   12.9960  -21.3260   20.6847 C   0  0  0  0  0  0  0  0  0  0  0  0
   14.3059  -21.0984   20.3471 C   0  0  0  0  0  0  0  0  0  0  0  0
   14.7661  -21.2153   18.9652 C   0  0  0  0  0  0  0  0  0  0  0  0
   14.9306  -19.8707   18.2981 C   0  0  2  0  0  0  0  0  0  0  0  0
   14.4267  -20.0024   16.9294 N   0  0  0  0  0  0  0  0  0  0  0  0
   16.3329  -19.3997   18.2849 C   0  0  0  0  0  0  0  0  0  0  0  0
   17.1133  -19.4682   17.1142 O   0  0  0  0  0  0  0  0  0  0  0  0
   15.1967  -20.7575   21.3413 C   0  0  0  0  0  0  0  0  0  0  0  0
   14.7926  -20.6415   22.6714 C   0  0  0  0  0  0  0  0  0  0  0  0
   16.9093  -18.9186   19.2909 O   0  0  0  0  0  0  0  0  0  0  0  0
  2  1  1  6
  3  2  1  0
  4  5  2  0
  4  2  1  0
  7  6  1  6
  7  8  1  0
  7  9  1  0
  9 10  1  1
 10  4  1  0
 11  9  1  0
 11 20  1  0
 12 11  2  0
 14 13  1  0
 15 14  2  0
 16 15  1  0
 17 16  2  0
 17 23  1  0
 18 17  1  0
 19 18  1  6
 20 19  1  0
 21 19  1  0
 22 21  1  0
 23 24  2  0
 24 14  1  0
 25 21  2  0
M  END
$$$$
