ATY.pdb
     RDKit          3D

 25 25  0  0  1  0  0  0  0  0999 V2000
    3.6001  -17.7276   22.3081 C   0  0  0  0  0  0  0  0  0  0  0  0
    4.3387  -18.3932   21.1647 C   0  0  2  0  0  0  0  0  0  0  0  0
    3.8594  -19.7237   20.8918 N   0  0  0  0  0  0  0  0  0  0  0  0
    5.7953  -18.3796   21.4679 C   0  0  0  0  0  0  0  0  0  0  0  0
    6.3232  -19.3704   22.0554 O   0  0  0  0  0  0  0  0  0  0  0  0
    8.4129  -18.1325   19.1378 C   0  0  0  0  0  0  0  0  0  0  0  0
    8.8516  -17.0779   20.1391 C   0  0  1  0  0  0  0  0  0  0  0  0
    8.5820  -15.8165   19.6015 O   0  0  0  0  0  0  0  0  0  0  0  0
    8.0505  -17.2769   21.3874 C   0  0  2  0  0  0  0  0  0  0  0  0
    6.6411  -17.2988   21.1294 N   0  0  0  0  0  0  0  0  0  0  0  0
    8.4528  -16.2803   22.3907 C   0  0  0  0  0  0  0  0  0  0  0  0
    7.6797  -15.4588   22.9396 O   0  0  0  0  0  0  0  0  0  0  0  0
   10.4443  -14.3729   30.2648 O   0  0  0  0  0  0  0  0  0  0  0  0
   10.1391  -14.7994   28.9880 C   0  0  0  0  0  0  0  0  0  0  0  0
    9.4090  -13.9906   28.1532 C   0  0  0  0  0  0  0  0  0  0  0  0
    9.1110  -14.4428   26.8631 C   0  0  0  0  0  0  0  0  0  0  0  0
    9.5361  -15.6725   26.4288 C   0  0  0  0  0  0  0  0  0  0  0  0
    9.2245  -16.1534   25.0847 C   0  0  0  0  0  0  0  0  0  0  0  0
   10.2021  -15.6466   24.0515 C   0  0  2  0  0  0  0  0  0  0  0  0
    9.8241  -16.2437   22.7689 N   0  0  0  0  0  0  0  0  0  0  0  0
   11.6076  -15.9751   24.3755 C   0  0  0  0  0  0  0  0  0  0  0  0
   12.1260  -17.2645   24.1453 O   0  0  0  0  0  0  0  0  0  0  0  0
   10.2672  -16.4626   27.2888 C   0  0  0  0  0  0  0  0  0  0  0  0
   10.5787  -16.0369   28.5801 C   0  0  0  0  0  0  0  0  0  0  0  0
   12.4148  -15.1480   24.8655 O   0  0  0  0  0  0  0  0  0  0  0  0
  2  1  1  1
  3  2  1  0
  4  5  2  0
  4  2  1  0
  7  6  1  6
  7  8  1  0
  7  9  1  0
  9 10  1  6
 10  4  1  0
 11  9  1  0
 11 20  1  0
 12 11  2  0
 14 13  1  0
 15 14  2  0
 16 15  1  0
 17 16  2  0
 17 23  1  0
 18 17  1  0
 19 18  1  1
 20 19  1  0
 21 19  1  0
 22 21  1  0
 23 24  2  0
 24 14  1  0
 25 21  2  0
M  END
$$$$
