ATY.pdb
     RDKit          3D

 25 25  0  0  1  0  0  0  0  0999 V2000
    7.7784  -12.2217   20.3479 C   0  0  0  0  0  0  0  0  0  0  0  0
    8.0884  -13.5036   19.6019 C   0  0  2  0  0  0  0  0  0  0  0  0
    7.1843  -13.7428   18.5066 N   0  0  0  0  0  0  0  0  0  0  0  0
    8.0928  -14.6300   20.5739 C   0  0  0  0  0  0  0  0  0  0  0  0
    7.0184  -15.2586   20.8107 O   0  0  0  0  0  0  0  0  0  0  0  0
   10.0092  -18.4801   22.5114 C   0  0  0  0  0  0  0  0  0  0  0  0
   10.1591  -17.2805   21.5917 C   0  0  1  0  0  0  0  0  0  0  0  0
    9.7128  -17.6403   20.3173 O   0  0  0  0  0  0  0  0  0  0  0  0
    9.3009  -16.1818   22.1361 C   0  0  2  0  0  0  0  0  0  0  0  0
    9.2546  -15.0467   21.2628 N   0  0  0  0  0  0  0  0  0  0  0  0
    9.7305  -15.8584   23.5045 C   0  0  0  0  0  0  0  0  0  0  0  0
   10.7286  -15.1577   23.7990 O   0  0  0  0  0  0  0  0  0  0  0  0
    6.2455  -10.7534   26.3925 O   0  0  0  0  0  0  0  0  0  0  0  0
    6.7202  -12.0458   26.4907 C   0  0  0  0  0  0  0  0  0  0  0  0
    5.9907  -13.0838   25.9666 C   0  0  0  0  0  0  0  0  0  0  0  0
    6.4906  -14.3858   26.0773 C   0  0  0  0  0  0  0  0  0  0  0  0
    7.6888  -14.6331   26.6975 C   0  0  0  0  0  0  0  0  0  0  0  0
    8.2148  -15.9907   26.8211 C   0  0  0  0  0  0  0  0  0  0  0  0
    9.4299  -16.2180   25.9540 C   0  0  2  0  0  0  0  0  0  0  0  0
    8.9554  -16.3794   24.5781 N   0  0  0  0  0  0  0  0  0  0  0  0
   10.2208  -17.3986   26.3652 C   0  0  0  0  0  0  0  0  0  0  0  0
   10.2000  -18.5881   25.6110 O   0  0  0  0  0  0  0  0  0  0  0  0
    8.3992  -13.5715   27.2140 C   0  0  0  0  0  0  0  0  0  0  0  0
    7.9246  -12.2634   27.1177 C   0  0  0  0  0  0  0  0  0  0  0  0
   10.9468  -17.4210   27.3891 O   0  0  0  0  0  0  0  0  0  0  0  0
  2  1  1  1
  3  2  1  0
  4  5  2  0
  4  2  1  0
  7  6  1  1
  7  8  1  0
  7  9  1  0
  9 10  1  6
 10  4  1  0
 11  9  1  0
 11 20  1  0
 12 11  2  0
 14 13  1  0
 15 14  2  0
 16 15  1  0
 17 16  2  0
 17 23  1  0
 18 17  1  0
 19 18  1  1
 20 19  1  0
 21 19  1  0
 22 21  1  0
 23 24  2  0
 24 14  1  0
 25 21  2  0
M  END
$$$$
