ATY.pdb
     RDKit          3D

 25 25  0  0  1  0  0  0  0  0999 V2000
    7.4271  -12.4912   18.7760 C   0  0  0  0  0  0  0  0  0  0  0  0
    8.5674  -13.4643   18.9967 C   0  0  2  0  0  0  0  0  0  0  0  0
    8.7651  -14.3527   17.8804 N   0  0  0  0  0  0  0  0  0  0  0  0
    8.3193  -14.2085   20.2609 C   0  0  0  0  0  0  0  0  0  0  0  0
    8.1763  -13.5711   21.3466 O   0  0  0  0  0  0  0  0  0  0  0  0
    6.7609  -17.9804   20.1998 C   0  0  0  0  0  0  0  0  0  0  0  0
    7.8264  -17.8195   21.2704 C   0  0  1  0  0  0  0  0  0  0  0  0
    9.0235  -18.3559   20.7888 O   0  0  0  0  0  0  0  0  0  0  0  0
    7.9955  -16.3545   21.5251 C   0  0  2  0  0  0  0  0  0  0  0  0
    8.2323  -15.6182   20.3188 N   0  0  0  0  0  0  0  0  0  0  0  0
    9.0269  -16.1529   22.5534 C   0  0  0  0  0  0  0  0  0  0  0  0
   10.2090  -15.7989   22.3275 O   0  0  0  0  0  0  0  0  0  0  0  0
    5.4230  -11.8113   26.9166 O   0  0  0  0  0  0  0  0  0  0  0  0
    6.5145  -12.5087   26.4393 C   0  0  0  0  0  0  0  0  0  0  0  0
    6.5323  -12.9430   25.1373 C   0  0  0  0  0  0  0  0  0  0  0  0
    7.6486  -13.6481   24.6745 C   0  0  0  0  0  0  0  0  0  0  0  0
    8.7136  -13.9070   25.4992 C   0  0  0  0  0  0  0  0  0  0  0  0
    9.8806  -14.6469   25.0242 C   0  0  0  0  0  0  0  0  0  0  0  0
    9.6355  -16.1359   24.9719 C   0  0  2  0  0  0  0  0  0  0  0  0
    8.6570  -16.3761   23.9092 N   0  0  0  0  0  0  0  0  0  0  0  0
    9.1449  -16.6863   26.2543 C   0  0  0  0  0  0  0  0  0  0  0  0
    9.9617  -16.6982   27.4020 O   0  0  0  0  0  0  0  0  0  0  0  0
    8.6677  -13.4586   26.8012 C   0  0  0  0  0  0  0  0  0  0  0  0
    7.5676  -12.7534   27.2891 C   0  0  0  0  0  0  0  0  0  0  0  0
    7.9957  -17.1686   26.4044 O   0  0  0  0  0  0  0  0  0  0  0  0
  2  1  1  6
  3  2  1  0
  4  5  2  0
  4  2  1  0
  7  6  1  6
  7  8  1  0
  7  9  1  0
  9 10  1  6
 10  4  1  0
 11  9  1  0
 11 20  1  0
 12 11  2  0
 14 13  1  0
 15 14  2  0
 16 15  1  0
 17 16  2  0
 17 23  1  0
 18 17  1  0
 19 18  1  1
 20 19  1  0
 21 19  1  0
 22 21  1  0
 23 24  2  0
 24 14  1  0
 25 21  2  0
M  END
$$$$
