ATY.pdb
     RDKit          3D

 25 25  0  0  1  0  0  0  0  0999 V2000
   -3.7497  -26.2595   23.9001 C   0  0  0  0  0  0  0  0  0  0  0  0
   -3.0233  -24.9298   23.9082 C   0  0  2  0  0  0  0  0  0  0  0  0
   -1.5907  -25.0779   23.8944 N   0  0  0  0  0  0  0  0  0  0  0  0
   -3.4882  -24.1414   25.0813 C   0  0  0  0  0  0  0  0  0  0  0  0
   -2.9900  -24.3646   26.2247 O   0  0  0  0  0  0  0  0  0  0  0  0
   -3.6584  -20.4476   25.1854 C   0  0  0  0  0  0  0  0  0  0  0  0
   -5.0061  -20.8818   25.7355 C   0  0  1  0  0  0  0  0  0  0  0  0
   -5.9687  -20.7104   24.7371 O   0  0  0  0  0  0  0  0  0  0  0  0
   -4.9034  -22.3309   26.0950 C   0  0  2  0  0  0  0  0  0  0  0  0
   -4.4766  -23.1352   24.9885 N   0  0  0  0  0  0  0  0  0  0  0  0
   -6.1688  -22.7762   26.6968 C   0  0  0  0  0  0  0  0  0  0  0  0
   -6.8792  -23.7162   26.2660 O   0  0  0  0  0  0  0  0  0  0  0  0
  -11.5657  -26.2473   32.1276 O   0  0  0  0  0  0  0  0  0  0  0  0
  -10.5440  -25.6899   31.3853 C   0  0  0  0  0  0  0  0  0  0  0  0
   -9.4229  -25.2113   32.0163 C   0  0  0  0  0  0  0  0  0  0  0  0
   -8.3996  -24.6504   31.2445 C   0  0  0  0  0  0  0  0  0  0  0  0
   -8.5039  -24.5745   29.8789 C   0  0  0  0  0  0  0  0  0  0  0  0
   -7.4414  -23.9857   29.0669 C   0  0  0  0  0  0  0  0  0  0  0  0
   -7.7879  -22.5972   28.5852 C   0  0  2  0  0  0  0  0  0  0  0  0
   -6.6236  -22.0890   27.8568 N   0  0  0  0  0  0  0  0  0  0  0  0
   -8.1461  -21.6762   29.6860 C   0  0  0  0  0  0  0  0  0  0  0  0
   -7.1599  -20.9334   30.3642 O   0  0  0  0  0  0  0  0  0  0  0  0
   -9.6408  -25.0632   29.2731 C   0  0  0  0  0  0  0  0  0  0  0  0
  -10.6764  -25.6275   30.0179 C   0  0  0  0  0  0  0  0  0  0  0  0
   -9.3240  -21.4977   30.0815 O   0  0  0  0  0  0  0  0  0  0  0  0
  2  1  1  1
  3  2  1  0
  4  5  2  0
  4  2  1  0
  7  6  1  6
  7  8  1  0
  7  9  1  0
  9 10  1  6
 10  4  1  0
 11  9  1  0
 11 20  1  0
 12 11  2  0
 14 13  1  0
 15 14  2  0
 16 15  1  0
 17 16  2  0
 17 23  1  0
 18 17  1  0
 19 18  1  1
 20 19  1  0
 21 19  1  0
 22 21  1  0
 23 24  2  0
 24 14  1  0
 25 21  2  0
M  END
$$$$
