ATY.pdb
     RDKit          3D

 25 25  0  0  1  0  0  0  0  0999 V2000
    8.7068  -12.3576   18.7730 C   0  0  0  0  0  0  0  0  0  0  0  0
    8.5573  -13.7685   18.2411 C   0  0  2  0  0  0  0  0  0  0  0  0
    7.4469  -13.9068   17.3343 N   0  0  0  0  0  0  0  0  0  0  0  0
    8.4515  -14.7025   19.3944 C   0  0  0  0  0  0  0  0  0  0  0  0
    7.3685  -14.7719   20.0483 O   0  0  0  0  0  0  0  0  0  0  0  0
   10.2169  -18.1499   19.4487 C   0  0  0  0  0  0  0  0  0  0  0  0
   10.3903  -17.5587   20.8372 C   0  0  1  0  0  0  0  0  0  0  0  0
   11.7102  -17.1196   20.9706 O   0  0  0  0  0  0  0  0  0  0  0  0
    9.4564  -16.3951   20.9544 C   0  0  2  0  0  0  0  0  0  0  0  0
    9.5157  -15.5349   19.8098 N   0  0  0  0  0  0  0  0  0  0  0  0
    9.6966  -15.7018   22.2285 C   0  0  0  0  0  0  0  0  0  0  0  0
    9.9377  -14.4764   22.3469 O   0  0  0  0  0  0  0  0  0  0  0  0
    6.0922  -10.7671   26.8753 O   0  0  0  0  0  0  0  0  0  0  0  0
    6.4845  -11.9286   26.2410 C   0  0  0  0  0  0  0  0  0  0  0  0
    7.2254  -11.8609   25.0874 C   0  0  0  0  0  0  0  0  0  0  0  0
    7.6122  -13.0506   24.4610 C   0  0  0  0  0  0  0  0  0  0  0  0
    7.2625  -14.2705   24.9818 C   0  0  0  0  0  0  0  0  0  0  0  0
    7.6588  -15.5169   24.3304 C   0  0  0  0  0  0  0  0  0  0  0  0
    9.0870  -15.8983   24.6388 C   0  0  2  0  0  0  0  0  0  0  0  0
    9.6523  -16.4795   23.4193 N   0  0  0  0  0  0  0  0  0  0  0  0
    9.2003  -16.8538   25.7623 C   0  0  0  0  0  0  0  0  0  0  0  0
    9.6406  -16.4351   27.0332 O   0  0  0  0  0  0  0  0  0  0  0  0
    6.5186  -14.3074   26.1409 C   0  0  0  0  0  0  0  0  0  0  0  0
    6.1194  -13.1370   26.7863 C   0  0  0  0  0  0  0  0  0  0  0  0
    8.9190  -18.0732   25.6630 O   0  0  0  0  0  0  0  0  0  0  0  0
  2  1  1  1
  3  2  1  0
  4  5  2  0
  4  2  1  0
  7  6  1  6
  7  8  1  0
  7  9  1  0
  9 10  1  6
 10  4  1  0
 11  9  1  0
 11 20  1  0
 12 11  2  0
 14 13  1  0
 15 14  2  0
 16 15  1  0
 17 16  2  0
 17 23  1  0
 18 17  1  0
 19 18  1  6
 20 19  1  0
 21 19  1  0
 22 21  1  0
 23 24  2  0
 24 14  1  0
 25 21  2  0
M  END
$$$$
