ATY.pdb
     RDKit          3D

 25 25  0  0  1  0  0  0  0  0999 V2000
   -3.7173  -23.1957   18.8710 C   0  0  0  0  0  0  0  0  0  0  0  0
   -3.5829  -21.7487   19.3000 C   0  0  2  0  0  0  0  0  0  0  0  0
   -2.9492  -20.9281   18.3002 N   0  0  0  0  0  0  0  0  0  0  0  0
   -2.8561  -21.7030   20.5975 C   0  0  0  0  0  0  0  0  0  0  0  0
   -1.6239  -21.9956   20.6370 O   0  0  0  0  0  0  0  0  0  0  0  0
   -2.7624  -18.8607   22.9417 C   0  0  0  0  0  0  0  0  0  0  0  0
   -3.1075  -20.0400   23.8347 C   0  0  1  0  0  0  0  0  0  0  0  0
   -4.4736  -19.9918   24.1250 O   0  0  0  0  0  0  0  0  0  0  0  0
   -2.7962  -21.2909   23.0743 C   0  0  2  0  0  0  0  0  0  0  0  0
   -3.4778  -21.3435   21.8149 N   0  0  0  0  0  0  0  0  0  0  0  0
   -3.0460  -22.4591   23.9314 C   0  0  0  0  0  0  0  0  0  0  0  0
   -3.7394  -23.4535   23.6088 O   0  0  0  0  0  0  0  0  0  0  0  0
    3.6928  -24.4025   25.2465 O   0  0  0  0  0  0  0  0  0  0  0  0
    2.3155  -24.4942   25.2435 C   0  0  0  0  0  0  0  0  0  0  0  0
    1.6027  -24.0448   24.1599 C   0  0  0  0  0  0  0  0  0  0  0  0
    0.2075  -24.1474   24.1779 C   0  0  0  0  0  0  0  0  0  0  0  0
   -0.4483  -24.6862   25.2555 C   0  0  0  0  0  0  0  0  0  0  0  0
   -1.9053  -24.7921   25.2835 C   0  0  0  0  0  0  0  0  0  0  0  0
   -2.5491  -23.6660   26.0565 C   0  0  2  0  0  0  0  0  0  0  0  0
   -2.4563  -22.4631   25.2265 N   0  0  0  0  0  0  0  0  0  0  0  0
   -1.9145  -23.4312   27.3720 C   0  0  0  0  0  0  0  0  0  0  0  0
   -2.1173  -24.3182   28.4474 O   0  0  0  0  0  0  0  0  0  0  0  0
    0.2934  -25.1290   26.3289 C   0  0  0  0  0  0  0  0  0  0  0  0
    1.6854  -25.0390   26.3376 C   0  0  0  0  0  0  0  0  0  0  0  0
   -1.1702  -22.4499   27.6144 O   0  0  0  0  0  0  0  0  0  0  0  0
  2  1  1  6
  3  2  1  0
  4  5  2  0
  4  2  1  0
  7  6  1  6
  7  8  1  0
  7  9  1  0
  9 10  1  6
 10  4  1  0
 11  9  1  0
 11 20  1  0
 12 11  2  0
 14 13  1  0
 15 14  2  0
 16 15  1  0
 17 16  2  0
 17 23  1  0
 18 17  1  0
 19 18  1  6
 20 19  1  0
 21 19  1  0
 22 21  1  0
 23 24  2  0
 24 14  1  0
 25 21  2  0
M  END
$$$$
