ATY.pdb
     RDKit          3D

 25 25  0  0  1  0  0  0  0  0999 V2000
    8.8989  -12.2721   18.9935 C   0  0  0  0  0  0  0  0  0  0  0  0
    8.8182  -13.6195   18.3052 C   0  0  2  0  0  0  0  0  0  0  0  0
    7.8838  -13.6298   17.2091 N   0  0  0  0  0  0  0  0  0  0  0  0
    8.4909  -14.6544   19.3229 C   0  0  0  0  0  0  0  0  0  0  0  0
    7.2791  -14.9110   19.5895 O   0  0  0  0  0  0  0  0  0  0  0  0
    9.1665  -18.1108   19.4726 C   0  0  0  0  0  0  0  0  0  0  0  0
    9.7138  -17.6694   20.8191 C   0  0  1  0  0  0  0  0  0  0  0  0
   11.1087  -17.6375   20.7419 O   0  0  0  0  0  0  0  0  0  0  0  0
    9.1912  -16.2938   21.0920 C   0  0  2  0  0  0  0  0  0  0  0  0
    9.4788  -15.3828   20.0239 N   0  0  0  0  0  0  0  0  0  0  0  0
    9.6742  -15.8387   22.4040 C   0  0  0  0  0  0  0  0  0  0  0  0
   10.4836  -14.8977   22.5863 O   0  0  0  0  0  0  0  0  0  0  0  0
    6.0777  -11.5051   28.5706 O   0  0  0  0  0  0  0  0  0  0  0  0
    6.4907  -12.2962   27.5175 C   0  0  0  0  0  0  0  0  0  0  0  0
    5.5787  -13.0723   26.8467 C   0  0  0  0  0  0  0  0  0  0  0  0
    6.0190  -13.8665   25.7823 C   0  0  0  0  0  0  0  0  0  0  0  0
    7.3382  -13.8775   25.4065 C   0  0  0  0  0  0  0  0  0  0  0  0
    7.8061  -14.7080   24.2991 C   0  0  0  0  0  0  0  0  0  0  0  0
    8.8113  -15.7442   24.7420 C   0  0  2  0  0  0  0  0  0  0  0  0
    9.1869  -16.5170   23.5561 N   0  0  0  0  0  0  0  0  0  0  0  0
    8.2895  -16.6425   25.7951 C   0  0  0  0  0  0  0  0  0  0  0  0
    7.3247  -17.6260   25.5014 O   0  0  0  0  0  0  0  0  0  0  0  0
    8.2308  -13.0882   26.0981 C   0  0  0  0  0  0  0  0  0  0  0  0
    7.8193  -12.2867   27.1630 C   0  0  0  0  0  0  0  0  0  0  0  0
    8.6614  -16.5915   26.9929 O   0  0  0  0  0  0  0  0  0  0  0  0
  2  1  1  1
  3  2  1  0
  4  5  2  0
  4  2  1  0
  7  6  1  6
  7  8  1  0
  7  9  1  0
  9 10  1  6
 10  4  1  0
 11  9  1  0
 11 20  1  0
 12 11  2  0
 14 13  1  0
 15 14  2  0
 16 15  1  0
 17 16  2  0
 17 23  1  0
 18 17  1  0
 19 18  1  6
 20 19  1  0
 21 19  1  0
 22 21  1  0
 23 24  2  0
 24 14  1  0
 25 21  2  0
M  END
$$$$
