PIS.pdb
     RDKit          3D

 22 22  0  0  1  0  0  0  0  0999 V2000
   27.8292  -19.1562  -14.7271 N   0  0  0  0  0  0  0  0  0  0  0  0
   29.2206  -18.8392  -14.8165 C   0  0  0  0  0  0  0  0  0  0  0  0
   29.9374  -20.0989  -15.2499 C   0  0  0  0  0  0  0  0  0  0  0  0
   28.9584  -21.1882  -14.8040 C   0  0  0  0  0  0  0  0  0  0  0  0
   27.6328  -20.5319  -15.0641 C   0  0  1  0  0  0  0  0  0  0  0  0
   26.5371  -21.1461  -14.2683 C   0  0  0  0  0  0  0  0  0  0  0  0
   26.2313  -22.3769  -14.3892 O   0  0  0  0  0  0  0  0  0  0  0  0
   26.4675  -20.3936   -9.1951 C   0  0  0  0  0  0  0  0  0  0  0  0
   26.2495  -20.9407  -10.6202 C   0  0  0  0  0  0  0  0  0  0  0  0
   24.9308  -20.5080  -11.1565 C   0  0  2  0  0  0  0  0  0  0  0  0
   23.7937  -20.7426  -10.2047 C   0  0  0  0  0  0  0  0  0  0  0  0
   24.6652  -20.9623  -12.5667 C   0  0  2  0  0  0  0  0  0  0  0  0
   25.7801  -20.4091  -13.3424 N   0  0  0  0  0  0  0  0  0  0  0  0
   23.3755  -20.5650  -13.1246 C   0  0  0  0  0  0  0  0  0  0  0  0
   22.9470  -19.3673  -13.0141 O   0  0  0  0  0  0  0  0  0  0  0  0
   20.9541  -23.2429  -15.3137 O   0  0  0  0  0  0  0  0  0  0  0  0
   20.8790  -21.8916  -15.5834 C   0  0  0  0  0  0  0  0  0  0  0  0
   21.2666  -21.0228  -14.4070 C   0  0  2  0  0  0  0  0  0  0  0  0
   22.5234  -21.4606  -13.8180 N   0  0  0  0  0  0  0  0  0  0  0  0
   20.1757  -21.0041  -13.4033 C   0  0  0  0  0  0  0  0  0  0  0  0
   20.3357  -21.5670  -12.2701 O   0  0  0  0  0  0  0  0  0  0  0  0
   18.9810  -20.3890  -13.6632 O   0  0  0  0  0  0  0  0  0  0  0  0
  1  2  1  0
  1  5  1  0
  2  3  1  0
  3  4  1  0
  5  6  1  1
  5  4  1  0
  6 13  1  0
  7  6  2  0
  8  9  1  0
  9 10  1  0
 10 11  1  1
 10 12  1  0
 12 14  1  0
 12 13  1  6
 14 15  2  0
 14 19  1  0
 16 17  1  0
 18 17  1  6
 18 20  1  0
 19 18  1  0
 20 22  1  0
 21 20  2  0
M  END
$$$$
