PIS.pdb
     RDKit          3D

 22 22  0  0  1  0  0  0  0  0999 V2000
   16.1903  -16.6220    5.1430 N   0  0  0  0  0  0  0  0  0  0  0  0
   14.8453  -17.0298    5.4064 C   0  0  0  0  0  0  0  0  0  0  0  0
   14.3202  -16.1436    6.5143 C   0  0  0  0  0  0  0  0  0  0  0  0
   15.6141  -15.6874    7.1935 C   0  0  0  0  0  0  0  0  0  0  0  0
   16.5419  -15.5493    6.0206 C   0  0  1  0  0  0  0  0  0  0  0  0
   17.9713  -15.6111    6.4258 C   0  0  0  0  0  0  0  0  0  0  0  0
   18.6839  -16.6446    6.2092 O   0  0  0  0  0  0  0  0  0  0  0  0
   20.5703  -10.7993    7.2162 C   0  0  0  0  0  0  0  0  0  0  0  0
   20.2562  -12.2440    6.7783 C   0  0  0  0  0  0  0  0  0  0  0  0
   20.3113  -13.1723    7.9398 C   0  0  2  0  0  0  0  0  0  0  0  0
   21.5450  -13.0050    8.7788 C   0  0  0  0  0  0  0  0  0  0  0  0
   19.9808  -14.6003    7.5977 C   0  0  2  0  0  0  0  0  0  0  0  0
   18.6149  -14.5397    7.0672 N   0  0  0  0  0  0  0  0  0  0  0  0
   20.0856  -15.5529    8.6995 C   0  0  0  0  0  0  0  0  0  0  0  0
   19.2637  -15.5283    9.6764 O   0  0  0  0  0  0  0  0  0  0  0  0
   21.0475  -19.9329   10.2355 O   0  0  0  0  0  0  0  0  0  0  0  0
   21.1052  -18.9551    9.2633 C   0  0  0  0  0  0  0  0  0  0  0  0
   21.1075  -17.5503    9.8252 C   0  0  2  0  0  0  0  0  0  0  0  0
   21.0849  -16.5560    8.7628 N   0  0  0  0  0  0  0  0  0  0  0  0
   22.2734  -17.3594   10.7209 C   0  0  0  0  0  0  0  0  0  0  0  0
   23.3853  -16.9498   10.2493 O   0  0  0  0  0  0  0  0  0  0  0  0
   22.1884  -17.6149   12.0628 O   0  0  0  0  0  0  0  0  0  0  0  0
  1  2  1  0
  1  5  1  0
  2  3  1  0
  3  4  1  0
  5  6  1  1
  5  4  1  0
  6 13  1  0
  7  6  2  0
  8  9  1  0
  9 10  1  0
 10 11  1  6
 10 12  1  0
 12 14  1  0
 12 13  1  1
 14 15  2  0
 14 19  1  0
 16 17  1  0
 18 17  1  6
 18 20  1  0
 19 18  1  0
 20 22  1  0
 21 20  2  0
M  END
$$$$
