PIS.pdb
     RDKit          3D

 22 22  0  0  1  0  0  0  0  0999 V2000
   36.1903   -9.0665  -14.2108 N   0  0  0  0  0  0  0  0  0  0  0  0
   36.5514   -8.7984  -15.5681 C   0  0  0  0  0  0  0  0  0  0  0  0
   37.8760   -9.4843  -15.8203 C   0  0  0  0  0  0  0  0  0  0  0  0
   38.4459   -9.6002  -14.4041 C   0  0  0  0  0  0  0  0  0  0  0  0
   37.2068   -9.8633  -13.5973 C   0  0  1  0  0  0  0  0  0  0  0  0
   37.3887   -9.5200  -12.1619 C   0  0  0  0  0  0  0  0  0  0  0  0
   37.0573   -8.3801  -11.6995 O   0  0  0  0  0  0  0  0  0  0  0  0
   36.6074  -13.4503   -8.7093 C   0  0  0  0  0  0  0  0  0  0  0  0
   36.6798  -12.0597   -9.3714 C   0  0  0  0  0  0  0  0  0  0  0  0
   37.9968  -11.4182   -9.1112 C   0  0  2  0  0  0  0  0  0  0  0  0
   38.3689  -11.3887   -7.6571 C   0  0  0  0  0  0  0  0  0  0  0  0
   38.1927  -10.1103   -9.8299 C   0  0  2  0  0  0  0  0  0  0  0  0
   37.9334  -10.4274  -11.2381 N   0  0  0  0  0  0  0  0  0  0  0  0
   39.5001   -9.4840   -9.6540 C   0  0  0  0  0  0  0  0  0  0  0  0
   40.5465   -9.9716  -10.1995 O   0  0  0  0  0  0  0  0  0  0  0  0
   42.2040   -5.9780   -7.5211 O   0  0  0  0  0  0  0  0  0  0  0  0
   40.9621   -6.5062   -7.8096 C   0  0  0  0  0  0  0  0  0  0  0  0
   41.0243   -7.7493   -8.6698 C   0  0  2  0  0  0  0  0  0  0  0  0
   39.6990   -8.3114   -8.8831 N   0  0  0  0  0  0  0  0  0  0  0  0
   41.9436   -8.7436   -8.0663 C   0  0  0  0  0  0  0  0  0  0  0  0
   41.5896   -9.4008   -7.0321 O   0  0  0  0  0  0  0  0  0  0  0  0
   43.1828   -8.9802   -8.5969 O   0  0  0  0  0  0  0  0  0  0  0  0
  1  2  1  0
  1  5  1  0
  2  3  1  0
  3  4  1  0
  5  6  1  1
  5  4  1  0
  6 13  1  0
  7  6  2  0
  8  9  1  0
  9 10  1  0
 10 11  1  1
 10 12  1  0
 12 14  1  0
 12 13  1  6
 14 15  2  0
 14 19  1  0
 16 17  1  0
 18 17  1  1
 18 20  1  0
 19 18  1  0
 20 22  1  0
 21 20  2  0
M  END
$$$$
