PIS.pdb
     RDKit          3D

 22 22  0  0  1  0  0  0  0  0999 V2000
   21.9461  -19.9950  -15.6619 N   0  0  0  0  0  0  0  0  0  0  0  0
   21.1061  -20.9513  -16.3133 C   0  0  0  0  0  0  0  0  0  0  0  0
   20.9895  -20.5285  -17.7611 C   0  0  0  0  0  0  0  0  0  0  0  0
   21.3025  -19.0322  -17.6789 C   0  0  0  0  0  0  0  0  0  0  0  0
   22.3508  -18.9984  -16.6040 C   0  0  1  0  0  0  0  0  0  0  0  0
   22.4662  -17.6560  -15.9749 C   0  0  0  0  0  0  0  0  0  0  0  0
   21.6799  -17.2834  -15.0444 O   0  0  0  0  0  0  0  0  0  0  0  0
   27.2484  -16.2928  -15.6179 C   0  0  0  0  0  0  0  0  0  0  0  0
   25.8150  -16.1939  -15.0582 C   0  0  0  0  0  0  0  0  0  0  0  0
   25.0478  -15.1265  -15.7552 C   0  0  2  0  0  0  0  0  0  0  0  0
   25.4285  -13.7399  -15.3238 C   0  0  0  0  0  0  0  0  0  0  0  0
   23.5644  -15.3757  -15.8094 C   0  0  2  0  0  0  0  0  0  0  0  0
   23.4432  -16.7262  -16.3680 N   0  0  0  0  0  0  0  0  0  0  0  0
   22.7901  -14.4062  -16.5794 C   0  0  0  0  0  0  0  0  0  0  0  0
   23.0427  -14.1858  -17.8115 O   0  0  0  0  0  0  0  0  0  0  0  0
   19.0292  -14.2561  -16.7613 O   0  0  0  0  0  0  0  0  0  0  0  0
   19.4421  -12.9507  -16.5882 C   0  0  0  0  0  0  0  0  0  0  0  0
   20.9207  -12.7511  -16.8391 C   0  0  2  0  0  0  0  0  0  0  0  0
   21.7213  -13.6561  -16.0280 N   0  0  0  0  0  0  0  0  0  0  0  0
   21.2938  -11.3363  -16.6004 C   0  0  0  0  0  0  0  0  0  0  0  0
   22.1531  -11.0409  -15.7055 O   0  0  0  0  0  0  0  0  0  0  0  0
   20.7322  -10.3208  -17.3260 O   0  0  0  0  0  0  0  0  0  0  0  0
  1  2  1  0
  1  5  1  0
  2  3  1  0
  3  4  1  0
  5  6  1  1
  5  4  1  0
  6 13  1  0
  7  6  2  0
  8  9  1  0
  9 10  1  0
 10 11  1  1
 10 12  1  0
 12 14  1  0
 12 13  1  6
 14 15  2  0
 14 19  1  0
 16 17  1  0
 18 17  1  1
 18 20  1  0
 19 18  1  0
 20 22  1  0
 21 20  2  0
M  END
$$$$
