PIS.pdb
     RDKit          3D

 22 22  0  0  1  0  0  0  0  0999 V2000
   31.2950  -21.1102  -10.4395 N   0  0  0  0  0  0  0  0  0  0  0  0
   32.6738  -21.2639  -10.0935 C   0  0  0  0  0  0  0  0  0  0  0  0
   32.8890  -22.7235   -9.7592 C   0  0  0  0  0  0  0  0  0  0  0  0
   31.4759  -23.1713   -9.3768 C   0  0  0  0  0  0  0  0  0  0  0  0
   30.6345  -22.3738  -10.3316 C   0  0  1  0  0  0  0  0  0  0  0  0
   29.2330  -22.2274   -9.8565 C   0  0  0  0  0  0  0  0  0  0  0  0
   28.4826  -23.2388   -9.6646 O   0  0  0  0  0  0  0  0  0  0  0  0
   28.3664  -19.2304   -5.8163 C   0  0  0  0  0  0  0  0  0  0  0  0
   28.2982  -20.2706   -6.9525 C   0  0  0  0  0  0  0  0  0  0  0  0
   27.3495  -19.8343   -8.0124 C   0  0  2  0  0  0  0  0  0  0  0  0
   26.0196  -19.3896   -7.4762 C   0  0  0  0  0  0  0  0  0  0  0  0
   27.2645  -20.7768   -9.1828 C   0  0  2  0  0  0  0  0  0  0  0  0
   28.6587  -20.9726   -9.5933 N   0  0  0  0  0  0  0  0  0  0  0  0
   26.4365  -20.3246  -10.2975 C   0  0  0  0  0  0  0  0  0  0  0  0
   26.3691  -19.0893  -10.6136 O   0  0  0  0  0  0  0  0  0  0  0  0
   24.7698  -22.9578  -13.1318 O   0  0  0  0  0  0  0  0  0  0  0  0
   24.9909  -21.6252  -13.4144 C   0  0  0  0  0  0  0  0  0  0  0  0
   24.8555  -20.7254  -12.2057 C   0  0  2  0  0  0  0  0  0  0  0  0
   25.6651  -21.2058  -11.0958 N   0  0  0  0  0  0  0  0  0  0  0  0
   23.4297  -20.5973  -11.8203 C   0  0  0  0  0  0  0  0  0  0  0  0
   23.0458  -20.9439  -10.6545 O   0  0  0  0  0  0  0  0  0  0  0  0
   22.4978  -20.1090  -12.6957 O   0  0  0  0  0  0  0  0  0  0  0  0
  1  2  1  0
  1  5  1  0
  2  3  1  0
  3  4  1  0
  5  6  1  1
  5  4  1  0
  6 13  1  0
  7  6  2  0
  8  9  1  0
  9 10  1  0
 10 11  1  1
 10 12  1  0
 12 14  1  0
 12 13  1  6
 14 15  2  0
 14 19  1  0
 16 17  1  0
 18 17  1  6
 18 20  1  0
 19 18  1  0
 20 22  1  0
 21 20  2  0
M  END
$$$$
