PIS.pdb
     RDKit          3D

 22 22  0  0  1  0  0  0  0  0999 V2000
   20.2901  -10.8031  -19.4130 N   0  0  0  0  0  0  0  0  0  0  0  0
   20.1401  -11.9934  -20.1909 C   0  0  0  0  0  0  0  0  0  0  0  0
   18.8239  -12.6234  -19.7916 C   0  0  0  0  0  0  0  0  0  0  0  0
   18.6084  -12.0434  -18.3913 C   0  0  0  0  0  0  0  0  0  0  0  0
   19.1614  -10.6558  -18.5475 C   0  0  1  0  0  0  0  0  0  0  0  0
   19.5394  -10.0523  -17.2421 C   0  0  0  0  0  0  0  0  0  0  0  0
   18.6910   -9.9021  -16.3037 O   0  0  0  0  0  0  0  0  0  0  0  0
   22.4217  -10.3399  -12.7827 C   0  0  0  0  0  0  0  0  0  0  0  0
   22.9990   -9.4957  -13.9367 C   0  0  0  0  0  0  0  0  0  0  0  0
   22.4053   -9.9038  -15.2386 C   0  0  2  0  0  0  0  0  0  0  0  0
   23.4301  -10.1887  -16.2981 C   0  0  0  0  0  0  0  0  0  0  0  0
   21.2676   -9.0293  -15.6929 C   0  0  2  0  0  0  0  0  0  0  0  0
   20.8465   -9.6155  -16.9695 N   0  0  0  0  0  0  0  0  0  0  0  0
   21.5805   -7.6098  -15.8326 C   0  0  0  0  0  0  0  0  0  0  0  0
   22.4888   -7.2080  -16.6351 O   0  0  0  0  0  0  0  0  0  0  0  0
   19.0320   -4.4939  -14.6615 O   0  0  0  0  0  0  0  0  0  0  0  0
   20.0706   -4.3369  -15.5567 C   0  0  0  0  0  0  0  0  0  0  0  0
   21.2762   -5.1915  -15.2323 C   0  0  2  0  0  0  0  0  0  0  0  0
   20.9109   -6.5945  -15.1050 N   0  0  0  0  0  0  0  0  0  0  0  0
   21.9423   -4.6919  -14.0057 C   0  0  0  0  0  0  0  0  0  0  0  0
   21.9703   -5.4100  -12.9521 O   0  0  0  0  0  0  0  0  0  0  0  0
   22.5385   -3.4604  -13.9717 O   0  0  0  0  0  0  0  0  0  0  0  0
  1  2  1  0
  1  5  1  0
  2  3  1  0
  3  4  1  0
  5  6  1  1
  5  4  1  0
  6 13  1  0
  7  6  2  0
  8  9  1  0
  9 10  1  0
 10 11  1  6
 10 12  1  0
 12 14  1  0
 12 13  1  6
 14 15  2  0
 14 19  1  0
 16 17  1  0
 18 17  1  1
 18 20  1  0
 19 18  1  0
 20 22  1  0
 21 20  2  0
M  END
$$$$
