PIS.pdb
     RDKit          3D

 22 22  0  0  1  0  0  0  0  0999 V2000
   23.8908  -12.5295  -17.4138 N   0  0  0  0  0  0  0  0  0  0  0  0
   25.1771  -13.0783  -17.1156 C   0  0  0  0  0  0  0  0  0  0  0  0
   25.5445  -12.6200  -15.7215 C   0  0  0  0  0  0  0  0  0  0  0  0
   24.6874  -11.3609  -15.5672 C   0  0  0  0  0  0  0  0  0  0  0  0
   23.4377  -11.7505  -16.3036 C   0  0  1  0  0  0  0  0  0  0  0  0
   22.6526  -10.5661  -16.7418 C   0  0  0  0  0  0  0  0  0  0  0  0
   22.8708   -9.9951  -17.8595 O   0  0  0  0  0  0  0  0  0  0  0  0
   18.5858  -11.4358  -17.3177 C   0  0  0  0  0  0  0  0  0  0  0  0
   19.1336  -10.0329  -17.6488 C   0  0  0  0  0  0  0  0  0  0  0  0
   19.4464   -9.2803  -16.4039 C   0  0  2  0  0  0  0  0  0  0  0  0
   18.4255   -8.2320  -16.0684 C   0  0  0  0  0  0  0  0  0  0  0  0
   20.8733   -8.8094  -16.3162 C   0  0  2  0  0  0  0  0  0  0  0  0
   21.6307  -10.0116  -15.9532 N   0  0  0  0  0  0  0  0  0  0  0  0
   21.1202   -7.7175  -15.3786 C   0  0  0  0  0  0  0  0  0  0  0  0
   20.9620   -7.8758  -14.1215 O   0  0  0  0  0  0  0  0  0  0  0  0
   23.9389   -4.7958  -15.8858 O   0  0  0  0  0  0  0  0  0  0  0  0
   22.7294   -4.3116  -15.4305 C   0  0  0  0  0  0  0  0  0  0  0  0
   21.8462   -5.3795  -14.8234 C   0  0  2  0  0  0  0  0  0  0  0  0
   21.5477   -6.4291  -15.7863 N   0  0  0  0  0  0  0  0  0  0  0  0
   20.6066   -4.7720  -14.2829 C   0  0  0  0  0  0  0  0  0  0  0  0
   19.5131   -4.8566  -14.9340 O   0  0  0  0  0  0  0  0  0  0  0  0
   20.6026   -4.1114  -13.0843 O   0  0  0  0  0  0  0  0  0  0  0  0
  1  2  1  0
  1  5  1  0
  2  3  1  0
  3  4  1  0
  5  6  1  6
  5  4  1  0
  6 13  1  0
  7  6  2  0
  8  9  1  0
  9 10  1  0
 10 11  1  6
 10 12  1  0
 12 14  1  0
 12 13  1  1
 14 15  2  0
 14 19  1  0
 16 17  1  0
 18 17  1  6
 18 20  1  0
 19 18  1  0
 20 22  1  0
 21 20  2  0
M  END
$$$$
