PIS.pdb
     RDKit          3D

 22 22  0  0  1  0  0  0  0  0999 V2000
   28.4936  -20.0161  -15.9469 N   0  0  0  0  0  0  0  0  0  0  0  0
   28.8233  -18.9955  -16.8926 C   0  0  0  0  0  0  0  0  0  0  0  0
   28.3020  -17.6885  -16.3370 C   0  0  0  0  0  0  0  0  0  0  0  0
   27.1985  -18.1662  -15.3895 C   0  0  0  0  0  0  0  0  0  0  0  0
   27.7915  -19.4343  -14.8455 C   0  0  1  0  0  0  0  0  0  0  0  0
   26.7539  -20.3513  -14.3035 C   0  0  0  0  0  0  0  0  0  0  0  0
   26.2927  -21.3201  -14.9903 O   0  0  0  0  0  0  0  0  0  0  0  0
   25.4534  -20.1965   -8.7115 C   0  0  0  0  0  0  0  0  0  0  0  0
   25.2762  -19.9213  -10.2184 C   0  0  0  0  0  0  0  0  0  0  0  0
   25.4666  -21.1671  -11.0093 C   0  0  2  0  0  0  0  0  0  0  0  0
   26.7737  -21.8531  -10.7360 C   0  0  0  0  0  0  0  0  0  0  0  0
   25.1344  -21.0209  -12.4700 C   0  0  2  0  0  0  0  0  0  0  0  0
   26.2253  -20.2032  -13.0104 N   0  0  0  0  0  0  0  0  0  0  0  0
   23.8295  -20.4349  -12.7641 C   0  0  0  0  0  0  0  0  0  0  0  0
   23.6359  -19.1754  -12.6830 O   0  0  0  0  0  0  0  0  0  0  0  0
   20.8801  -22.4865  -14.8979 O   0  0  0  0  0  0  0  0  0  0  0  0
   20.9212  -21.1086  -14.8329 C   0  0  0  0  0  0  0  0  0  0  0  0
   21.4375  -20.5858  -13.5104 C   0  0  2  0  0  0  0  0  0  0  0  0
   22.7060  -21.2050  -13.1561 N   0  0  0  0  0  0  0  0  0  0  0  0
   20.4219  -20.7865  -12.4492 C   0  0  0  0  0  0  0  0  0  0  0  0
   20.6708  -21.5495  -11.4580 O   0  0  0  0  0  0  0  0  0  0  0  0
   19.2037  -20.1652  -12.5043 O   0  0  0  0  0  0  0  0  0  0  0  0
  1  2  1  0
  1  5  1  0
  2  3  1  0
  3  4  1  0
  5  6  1  6
  5  4  1  0
  6 13  1  0
  7  6  2  0
  8  9  1  0
  9 10  1  0
 10 11  1  6
 10 12  1  0
 12 14  1  0
 12 13  1  6
 14 15  2  0
 14 19  1  0
 16 17  1  0
 18 17  1  6
 18 20  1  0
 19 18  1  0
 20 22  1  0
 21 20  2  0
M  END
$$$$
