PIS.pdb
     RDKit          3D

 22 22  0  0  1  0  0  0  0  0999 V2000
   23.6926  -12.8128  -17.6618 N   0  0  0  0  0  0  0  0  0  0  0  0
   25.0026  -13.3855  -17.6858 C   0  0  0  0  0  0  0  0  0  0  0  0
   25.6538  -13.0631  -16.3589 C   0  0  0  0  0  0  0  0  0  0  0  0
   24.8687  -11.8263  -15.9144 C   0  0  0  0  0  0  0  0  0  0  0  0
   23.4887  -12.1452  -16.4139 C   0  0  1  0  0  0  0  0  0  0  0  0
   22.6523  -10.9255  -16.5684 C   0  0  0  0  0  0  0  0  0  0  0  0
   22.4427  -10.3982  -17.7090 O   0  0  0  0  0  0  0  0  0  0  0  0
   18.5151  -11.6838  -15.0387 C   0  0  0  0  0  0  0  0  0  0  0  0
   19.0585  -10.4811  -15.8362 C   0  0  0  0  0  0  0  0  0  0  0  0
   19.8666   -9.5887  -14.9620 C   0  0  2  0  0  0  0  0  0  0  0  0
   19.0628   -8.4952  -14.3201 C   0  0  0  0  0  0  0  0  0  0  0  0
   21.1575   -9.1283  -15.5843 C   0  0  2  0  0  0  0  0  0  0  0  0
   22.0484  -10.2878  -15.4720 N   0  0  0  0  0  0  0  0  0  0  0  0
   21.7536   -7.9352  -14.9896 C   0  0  0  0  0  0  0  0  0  0  0  0
   22.2107   -7.9475  -13.7974 O   0  0  0  0  0  0  0  0  0  0  0  0
   23.2263   -3.2790  -15.5434 O   0  0  0  0  0  0  0  0  0  0  0  0
   22.5555   -4.3775  -16.0412 C   0  0  0  0  0  0  0  0  0  0  0  0
   22.5508   -5.5572  -15.0940 C   0  0  2  0  0  0  0  0  0  0  0  0
   21.8689   -6.7022  -15.6789 N   0  0  0  0  0  0  0  0  0  0  0  0
   21.9445   -5.1701  -13.7977 C   0  0  0  0  0  0  0  0  0  0  0  0
   20.6786   -5.2024  -13.6456 O   0  0  0  0  0  0  0  0  0  0  0  0
   22.7184   -4.7722  -12.7414 O   0  0  0  0  0  0  0  0  0  0  0  0
  1  2  1  0
  1  5  1  0
  2  3  1  0
  3  4  1  0
  5  6  1  6
  5  4  1  0
  6 13  1  0
  7  6  2  0
  8  9  1  0
  9 10  1  0
 10 11  1  6
 10 12  1  0
 12 14  1  0
 12 13  1  1
 14 15  2  0
 14 19  1  0
 16 17  1  0
 18 17  1  6
 18 20  1  0
 19 18  1  0
 20 22  1  0
 21 20  2  0
M  END
$$$$
