PIS.pdb
     RDKit          3D

 22 22  0  0  1  0  0  0  0  0999 V2000
   24.1327  -12.7178  -15.1468 N   0  0  0  0  0  0  0  0  0  0  0  0
   24.6239  -14.0491  -15.3223 C   0  0  0  0  0  0  0  0  0  0  0  0
   25.5694  -14.0229  -16.5029 C   0  0  0  0  0  0  0  0  0  0  0  0
   25.0850  -12.7883  -17.2677 C   0  0  0  0  0  0  0  0  0  0  0  0
   24.6995  -11.8667  -16.1463 C   0  0  1  0  0  0  0  0  0  0  0  0
   23.7432  -10.8166  -16.5868 C   0  0  0  0  0  0  0  0  0  0  0  0
   24.0241  -10.0100  -17.5320 O   0  0  0  0  0  0  0  0  0  0  0  0
   19.5342  -12.5589  -17.3900 C   0  0  0  0  0  0  0  0  0  0  0  0
   20.1455  -11.1843  -17.7283 C   0  0  0  0  0  0  0  0  0  0  0  0
   20.2183  -10.3253  -16.5156 C   0  0  2  0  0  0  0  0  0  0  0  0
   19.0056   -9.4617  -16.3228 C   0  0  0  0  0  0  0  0  0  0  0  0
   21.5286   -9.6019  -16.3563 C   0  0  2  0  0  0  0  0  0  0  0  0
   22.4821  -10.6541  -15.9896 N   0  0  0  0  0  0  0  0  0  0  0  0
   21.5331   -8.5125  -15.3839 C   0  0  0  0  0  0  0  0  0  0  0  0
   21.3035   -8.7286  -14.1466 O   0  0  0  0  0  0  0  0  0  0  0  0
   23.8314   -5.0881  -15.1724 O   0  0  0  0  0  0  0  0  0  0  0  0
   22.4684   -4.8722  -15.1894 C   0  0  0  0  0  0  0  0  0  0  0  0
   21.6642   -6.0825  -14.7680 C   0  0  2  0  0  0  0  0  0  0  0  0
   21.7903   -7.1634  -15.7343 N   0  0  0  0  0  0  0  0  0  0  0  0
   20.2456   -5.7065  -14.5581 C   0  0  0  0  0  0  0  0  0  0  0  0
   19.4327   -5.6926  -15.5407 O   0  0  0  0  0  0  0  0  0  0  0  0
   19.7759   -5.3679  -13.3180 O   0  0  0  0  0  0  0  0  0  0  0  0
  1  2  1  0
  1  5  1  0
  2  3  1  0
  3  4  1  0
  5  6  1  6
  5  4  1  0
  6 13  1  0
  7  6  2  0
  8  9  1  0
  9 10  1  0
 10 11  1  6
 10 12  1  0
 12 14  1  0
 12 13  1  1
 14 15  2  0
 14 19  1  0
 16 17  1  0
 18 17  1  6
 18 20  1  0
 19 18  1  0
 20 22  1  0
 21 20  2  0
M  END
$$$$
