PIS.pdb
     RDKit          3D

 22 22  0  0  1  0  0  0  0  0999 V2000
   28.4956  -20.0258  -15.8115 N   0  0  0  0  0  0  0  0  0  0  0  0
   28.7744  -19.0437  -16.8127 C   0  0  0  0  0  0  0  0  0  0  0  0
   28.2775  -17.7160  -16.2847 C   0  0  0  0  0  0  0  0  0  0  0  0
   27.2243  -18.1563  -15.2646 C   0  0  0  0  0  0  0  0  0  0  0  0
   27.8476  -19.4008  -14.7005 C   0  0  1  0  0  0  0  0  0  0  0  0
   26.8412  -20.2964  -14.0708 C   0  0  0  0  0  0  0  0  0  0  0  0
   26.4769  -21.3854  -14.6223 O   0  0  0  0  0  0  0  0  0  0  0  0
   26.5998  -20.4130   -8.7023 C   0  0  0  0  0  0  0  0  0  0  0  0
   26.5177  -20.8837  -10.1684 C   0  0  0  0  0  0  0  0  0  0  0  0
   25.2215  -20.4840  -10.7801 C   0  0  2  0  0  0  0  0  0  0  0  0
   24.0260  -20.9320   -9.9902 C   0  0  0  0  0  0  0  0  0  0  0  0
   25.1308  -20.7613  -12.2567 C   0  0  2  0  0  0  0  0  0  0  0  0
   26.2375  -19.9950  -12.8387 N   0  0  0  0  0  0  0  0  0  0  0  0
   23.8565  -20.4227  -12.8844 C   0  0  0  0  0  0  0  0  0  0  0  0
   23.4204  -19.2226  -12.8920 O   0  0  0  0  0  0  0  0  0  0  0  0
   22.7288  -21.7023  -16.3617 O   0  0  0  0  0  0  0  0  0  0  0  0
   21.6519  -21.8022  -15.5044 C   0  0  0  0  0  0  0  0  0  0  0  0
   21.8197  -20.9971  -14.2345 C   0  0  2  0  0  0  0  0  0  0  0  0
   23.0287  -21.3809  -13.5211 N   0  0  0  0  0  0  0  0  0  0  0  0
   20.6179  -21.1366  -13.3777 C   0  0  0  0  0  0  0  0  0  0  0  0
   20.6966  -21.7329  -12.2530 O   0  0  0  0  0  0  0  0  0  0  0  0
   19.4054  -20.6347  -13.7664 O   0  0  0  0  0  0  0  0  0  0  0  0
  1  2  1  0
  1  5  1  0
  2  3  1  0
  3  4  1  0
  5  6  1  6
  5  4  1  0
  6 13  1  0
  7  6  2  0
  8  9  1  0
  9 10  1  0
 10 11  1  1
 10 12  1  0
 12 14  1  0
 12 13  1  6
 14 15  2  0
 14 19  1  0
 16 17  1  0
 18 17  1  6
 18 20  1  0
 19 18  1  0
 20 22  1  0
 21 20  2  0
M  END
$$$$
