PIS.pdb
     RDKit          3D

 22 22  0  0  1  0  0  0  0  0999 V2000
   27.8553  -19.3123  -14.5276 N   0  0  0  0  0  0  0  0  0  0  0  0
   29.2439  -19.0484  -14.7433 C   0  0  0  0  0  0  0  0  0  0  0  0
   29.8615  -20.3220  -15.2772 C   0  0  0  0  0  0  0  0  0  0  0  0
   28.8843  -21.3844  -14.7673 C   0  0  0  0  0  0  0  0  0  0  0  0
   27.5690  -20.6682  -14.8800 C   0  0  1  0  0  0  0  0  0  0  0  0
   26.5296  -21.2621  -13.9980 C   0  0  0  0  0  0  0  0  0  0  0  0
   25.9997  -22.3917  -14.2552 O   0  0  0  0  0  0  0  0  0  0  0  0
   26.7901  -20.2793   -8.7235 C   0  0  0  0  0  0  0  0  0  0  0  0
   26.5318  -20.9656  -10.0799 C   0  0  0  0  0  0  0  0  0  0  0  0
   25.2262  -20.5357  -10.6496 C   0  0  2  0  0  0  0  0  0  0  0  0
   24.0827  -20.6668   -9.6857 C   0  0  0  0  0  0  0  0  0  0  0  0
   24.9479  -21.0847  -12.0232 C   0  0  2  0  0  0  0  0  0  0  0  0
   26.0743  -20.6157  -12.8368 N   0  0  0  0  0  0  0  0  0  0  0  0
   23.6670  -20.6986  -12.6086 C   0  0  0  0  0  0  0  0  0  0  0  0
   23.4217  -19.4857  -12.9234 O   0  0  0  0  0  0  0  0  0  0  0  0
   19.6025  -21.9727  -14.9461 O   0  0  0  0  0  0  0  0  0  0  0  0
   20.8329  -22.2842  -14.4041 C   0  0  0  0  0  0  0  0  0  0  0  0
   21.3699  -21.2128  -13.4805 C   0  0  2  0  0  0  0  0  0  0  0  0
   22.6246  -21.6233  -12.8679 N   0  0  0  0  0  0  0  0  0  0  0  0
   20.3558  -20.8646  -12.4567 C   0  0  0  0  0  0  0  0  0  0  0  0
   20.3986  -21.4028  -11.3013 O   0  0  0  0  0  0  0  0  0  0  0  0
   19.3578  -19.9662  -12.7213 O   0  0  0  0  0  0  0  0  0  0  0  0
  1  2  1  0
  1  5  1  0
  2  3  1  0
  3  4  1  0
  5  6  1  1
  5  4  1  0
  6 13  1  0
  7  6  2  0
  8  9  1  0
  9 10  1  0
 10 11  1  1
 10 12  1  0
 12 14  1  0
 12 13  1  6
 14 15  2  0
 14 19  1  0
 16 17  1  0
 18 17  1  1
 18 20  1  0
 19 18  1  0
 20 22  1  0
 21 20  2  0
M  END
$$$$
