KVR.pdb
     RDKit          3D

 28 27  0  0  1  0  0  0  0  0999 V2000
   21.0439  -13.5476  -16.9361 N   0  0  0  0  0  0  0  0  0  0  0  0
   20.1430  -12.4578  -16.7695 C   0  0  1  0  0  0  0  0  0  0  0  0
   18.7023  -12.8949  -16.7223 C   0  0  0  0  0  0  0  0  0  0  0  0
   18.4622  -14.2932  -17.1743 C   0  0  0  0  0  0  0  0  0  0  0  0
   17.0586  -14.7759  -17.0958 C   0  0  0  0  0  0  0  0  0  0  0  0
   16.8943  -16.2070  -17.5572 C   0  0  0  0  0  0  0  0  0  0  0  0
   15.4823  -16.5357  -17.3300 N   0  0  0  0  0  0  0  0  0  0  0  0
   20.4155  -11.6316  -15.5518 C   0  0  0  0  0  0  0  0  0  0  0  0
   20.2951  -12.1641  -14.3989 O   0  0  0  0  0  0  0  0  0  0  0  0
   22.4197   -7.8878  -15.6259 C   0  0  0  0  0  0  0  0  0  0  0  0
   22.3905   -8.8313  -14.4614 C   0  0  2  0  0  0  0  0  0  0  0  0
   23.5645   -9.7710  -14.6461 C   0  0  0  0  0  0  0  0  0  0  0  0
   21.0853   -9.5365  -14.3451 C   0  0  2  0  0  0  0  0  0  0  0  0
   20.8007  -10.2907  -15.5775 N   0  0  0  0  0  0  0  0  0  0  0  0
   19.9192   -8.6531  -14.0533 C   0  0  0  0  0  0  0  0  0  0  0  0
   19.1485   -8.2782  -15.0054 O   0  0  0  0  0  0  0  0  0  0  0  0
   14.1445   -7.9030   -7.4280 N   0  0  0  0  0  0  0  0  0  0  0  0
   13.7273   -6.9857   -8.4682 C   0  0  0  0  0  0  0  0  0  0  0  0
   12.5727   -6.4495   -8.3518 N   0  0  0  0  0  0  0  0  0  0  0  0
   14.5547   -6.6970   -9.5621 N   0  0  0  0  0  0  0  0  0  0  0  0
   15.8244   -7.3536   -9.7252 C   0  0  0  0  0  0  0  0  0  0  0  0
   16.4728   -6.9780  -11.0263 C   0  0  0  0  0  0  0  0  0  0  0  0
   17.7399   -7.7283  -11.3245 C   0  0  0  0  0  0  0  0  0  0  0  0
   18.3965   -7.2800  -12.6205 C   0  0  2  0  0  0  0  0  0  0  0  0
   19.5646   -8.1728  -12.7732 N   0  0  0  0  0  0  0  0  0  0  0  0
   18.8382   -5.8807  -12.4564 C   0  0  0  0  0  0  0  0  0  0  0  0
   20.0090   -5.6688  -12.0535 O   0  0  0  0  0  0  0  0  0  0  0  0
   18.0370   -4.7872  -12.7210 O   0  0  0  0  0  0  0  0  0  0  0  0
  2  1  1  1
  2  3  1  0
  4  3  1  0
  4  5  1  0
  6  5  1  0
  7  6  1  0
  8  2  1  0
  9  8  2  0
 11 13  1  0
 11 10  1  6
 11 12  1  0
 13 14  1  6
 14  8  1  0
 15 25  1  0
 15 13  1  0
 16 15  2  0
 17 18  1  0
 18 19  2  0
 20 21  1  0
 20 18  1  0
 21 22  1  0
 23 22  1  0
 24 23  1  1
 24 25  1  0
 26 28  1  0
 26 24  1  0
 27 26  2  0
M  END
$$$$
