KVR.pdb
     RDKit          3D

 28 27  0  0  1  0  0  0  0  0999 V2000
   24.6625  -20.1588  -15.0077 N   0  0  0  0  0  0  0  0  0  0  0  0
   23.2588  -19.9408  -14.9115 C   0  0  1  0  0  0  0  0  0  0  0  0
   22.5437  -20.1639  -16.2183 C   0  0  0  0  0  0  0  0  0  0  0  0
   22.5897  -21.5649  -16.7205 C   0  0  0  0  0  0  0  0  0  0  0  0
   21.8973  -21.8223  -18.0103 C   0  0  0  0  0  0  0  0  0  0  0  0
   21.7758  -23.2941  -18.3376 C   0  0  0  0  0  0  0  0  0  0  0  0
   22.8987  -23.5935  -19.2336 N   0  0  0  0  0  0  0  0  0  0  0  0
   22.5889  -20.7799  -13.8689 C   0  0  0  0  0  0  0  0  0  0  0  0
   23.0720  -21.9266  -13.5883 O   0  0  0  0  0  0  0  0  0  0  0  0
   19.5506  -19.2795  -11.2786 C   0  0  0  0  0  0  0  0  0  0  0  0
   20.5658  -20.3152  -10.8990 C   0  0  2  0  0  0  0  0  0  0  0  0
   21.7527  -19.5607  -10.3358 C   0  0  0  0  0  0  0  0  0  0  0  0
   20.9193  -21.1980  -12.0436 C   0  0  2  0  0  0  0  0  0  0  0  0
   21.4486  -20.3981  -13.1611 N   0  0  0  0  0  0  0  0  0  0  0  0
   19.7991  -22.0396  -12.5556 C   0  0  0  0  0  0  0  0  0  0  0  0
   19.5956  -22.1328  -13.8169 O   0  0  0  0  0  0  0  0  0  0  0  0
   20.2441  -29.4189  -10.1192 N   0  0  0  0  0  0  0  0  0  0  0  0
   18.8773  -29.0081   -9.8732 C   0  0  0  0  0  0  0  0  0  0  0  0
   18.0576  -29.9020   -9.4693 N   0  0  0  0  0  0  0  0  0  0  0  0
   18.4664  -27.6828  -10.0714 N   0  0  0  0  0  0  0  0  0  0  0  0
   19.3945  -26.6770  -10.5153 C   0  0  0  0  0  0  0  0  0  0  0  0
   18.7100  -25.3594  -10.7379 C   0  0  0  0  0  0  0  0  0  0  0  0
   18.4038  -25.0577  -12.1777 C   0  0  0  0  0  0  0  0  0  0  0  0
   17.8866  -23.6428  -12.3838 C   0  0  2  0  0  0  0  0  0  0  0  0
   18.9052  -22.7792  -11.7500 N   0  0  0  0  0  0  0  0  0  0  0  0
   16.5950  -23.5143  -11.6800 C   0  0  0  0  0  0  0  0  0  0  0  0
   16.5465  -22.7967  -10.6501 O   0  0  0  0  0  0  0  0  0  0  0  0
   15.4329  -24.1386  -12.0891 O   0  0  0  0  0  0  0  0  0  0  0  0
  2  1  1  6
  2  3  1  0
  4  3  1  0
  4  5  1  0
  6  5  1  0
  7  6  1  0
  8  2  1  0
  9  8  2  0
 11 13  1  0
 11 10  1  6
 11 12  1  0
 13 14  1  6
 14  8  1  0
 15 25  1  0
 15 13  1  0
 16 15  2  0
 17 18  1  0
 18 19  2  0
 20 21  1  0
 20 18  1  0
 21 22  1  0
 23 22  1  0
 24 23  1  1
 24 25  1  0
 26 28  1  0
 26 24  1  0
 27 26  2  0
M  END
$$$$
