KVR.pdb
     RDKit          3D

 28 27  0  0  1  0  0  0  0  0999 V2000
   29.1425  -25.7607  -16.7044 N   0  0  0  0  0  0  0  0  0  0  0  0
   28.1218  -24.8970  -17.1936 C   0  0  1  0  0  0  0  0  0  0  0  0
   26.7761  -25.5695  -17.2685 C   0  0  0  0  0  0  0  0  0  0  0  0
   26.6238  -26.5310  -18.3953 C   0  0  0  0  0  0  0  0  0  0  0  0
   27.3216  -27.8346  -18.2438 C   0  0  0  0  0  0  0  0  0  0  0  0
   26.4697  -28.8922  -17.5779 C   0  0  0  0  0  0  0  0  0  0  0  0
   25.8205  -29.6232  -18.6722 N   0  0  0  0  0  0  0  0  0  0  0  0
   27.9659  -23.6382  -16.3993 C   0  0  0  0  0  0  0  0  0  0  0  0
   28.2243  -23.6546  -15.1503 O   0  0  0  0  0  0  0  0  0  0  0  0
   29.0855  -19.9400  -17.5364 C   0  0  0  0  0  0  0  0  0  0  0  0
   27.6990  -19.9918  -16.9688 C   0  0  2  0  0  0  0  0  0  0  0  0
   27.4936  -18.6860  -16.2284 C   0  0  0  0  0  0  0  0  0  0  0  0
   27.4886  -21.1918  -16.1143 C   0  0  2  0  0  0  0  0  0  0  0  0
   27.5497  -22.4165  -16.9297 N   0  0  0  0  0  0  0  0  0  0  0  0
   26.2088  -21.1992  -15.3480 C   0  0  0  0  0  0  0  0  0  0  0  0
   25.1175  -21.5309  -15.9313 O   0  0  0  0  0  0  0  0  0  0  0  0
   22.7929  -21.6582   -7.6628 N   0  0  0  0  0  0  0  0  0  0  0  0
   22.6126  -20.3533   -8.2646 C   0  0  0  0  0  0  0  0  0  0  0  0
   21.5368  -19.7209   -7.9875 N   0  0  0  0  0  0  0  0  0  0  0  0
   23.5780  -19.8037   -9.1193 N   0  0  0  0  0  0  0  0  0  0  0  0
   24.7511  -20.5497   -9.4901 C   0  0  0  0  0  0  0  0  0  0  0  0
   24.6061  -21.1561  -10.8559 C   0  0  0  0  0  0  0  0  0  0  0  0
   24.9679  -20.2319  -11.9839 C   0  0  0  0  0  0  0  0  0  0  0  0
   24.7415  -20.8575  -13.3511 C   0  0  2  0  0  0  0  0  0  0  0  0
   26.0784  -20.8660  -13.9816 N   0  0  0  0  0  0  0  0  0  0  0  0
   23.8210  -19.9888  -14.1115 C   0  0  0  0  0  0  0  0  0  0  0  0
   24.2972  -18.9860  -14.6993 O   0  0  0  0  0  0  0  0  0  0  0  0
   22.4625  -20.2151  -14.2152 O   0  0  0  0  0  0  0  0  0  0  0  0
  2  1  1  1
  2  3  1  0
  4  3  1  0
  4  5  1  0
  6  5  1  0
  7  6  1  0
  8  2  1  0
  9  8  2  0
 11 13  1  0
 11 10  1  1
 11 12  1  0
 13 14  1  6
 14  8  1  0
 15 25  1  0
 15 13  1  0
 16 15  2  0
 17 18  1  0
 18 19  2  0
 20 21  1  0
 20 18  1  0
 21 22  1  0
 23 22  1  0
 24 23  1  1
 24 25  1  0
 26 28  1  0
 26 24  1  0
 27 26  2  0
M  END
$$$$
