KVR.pdb
     RDKit          3D

 28 27  0  0  1  0  0  0  0  0999 V2000
   28.0932  -25.1017  -16.6851 N   0  0  0  0  0  0  0  0  0  0  0  0
   27.5783  -23.7748  -16.6461 C   0  0  1  0  0  0  0  0  0  0  0  0
   26.8451  -23.3972  -17.9065 C   0  0  0  0  0  0  0  0  0  0  0  0
   27.7224  -23.1344  -19.0806 C   0  0  0  0  0  0  0  0  0  0  0  0
   28.8627  -22.2087  -18.8531 C   0  0  0  0  0  0  0  0  0  0  0  0
   29.7041  -21.9850  -20.0900 C   0  0  0  0  0  0  0  0  0  0  0  0
   29.2004  -20.7449  -20.6914 N   0  0  0  0  0  0  0  0  0  0  0  0
   26.6683  -23.5155  -15.4867 C   0  0  0  0  0  0  0  0  0  0  0  0
   25.8415  -24.4191  -15.1304 O   0  0  0  0  0  0  0  0  0  0  0  0
   25.6408  -21.0238  -11.3535 C   0  0  0  0  0  0  0  0  0  0  0  0
   26.4357  -21.1869  -12.6140 C   0  0  2  0  0  0  0  0  0  0  0  0
   26.5581  -19.8043  -13.2213 C   0  0  0  0  0  0  0  0  0  0  0  0
   25.8246  -22.1823  -13.5360 C   0  0  2  0  0  0  0  0  0  0  0  0
   26.6517  -22.3336  -14.7451 N   0  0  0  0  0  0  0  0  0  0  0  0
   24.4273  -21.8723  -13.9565 C   0  0  0  0  0  0  0  0  0  0  0  0
   24.2180  -21.0776  -14.9393 O   0  0  0  0  0  0  0  0  0  0  0  0
   16.7936  -25.8629  -12.6098 N   0  0  0  0  0  0  0  0  0  0  0  0
   18.0931  -25.9987  -13.2347 C   0  0  0  0  0  0  0  0  0  0  0  0
   18.4765  -27.1779  -13.5455 N   0  0  0  0  0  0  0  0  0  0  0  0
   18.9016  -24.8822  -13.4881 N   0  0  0  0  0  0  0  0  0  0  0  0
   18.5234  -23.5727  -13.0275 C   0  0  0  0  0  0  0  0  0  0  0  0
   19.5204  -22.5332  -13.4513 C   0  0  0  0  0  0  0  0  0  0  0  0
   20.9538  -22.9256  -13.2303 C   0  0  0  0  0  0  0  0  0  0  0  0
   21.9340  -21.8893  -13.7569 C   0  0  2  0  0  0  0  0  0  0  0  0
   23.2626  -22.3961  -13.3532 N   0  0  0  0  0  0  0  0  0  0  0  0
   21.6511  -20.6028  -13.0896 C   0  0  0  0  0  0  0  0  0  0  0  0
   22.1408  -20.4021  -11.9504 O   0  0  0  0  0  0  0  0  0  0  0  0
   20.8774  -19.6035  -13.6467 O   0  0  0  0  0  0  0  0  0  0  0  0
  2  1  1  6
  2  3  1  0
  4  3  1  0
  4  5  1  0
  6  5  1  0
  7  6  1  0
  8  2  1  0
  9  8  2  0
 11 13  1  0
 11 10  1  1
 11 12  1  0
 13 14  1  6
 14  8  1  0
 15 25  1  0
 15 13  1  0
 16 15  2  0
 17 18  1  0
 18 19  2  0
 20 21  1  0
 20 18  1  0
 21 22  1  0
 23 22  1  0
 24 23  1  1
 24 25  1  0
 26 28  1  0
 26 24  1  0
 27 26  2  0
M  END
$$$$
