KVR.pdb
     RDKit          3D

 28 27  0  0  1  0  0  0  0  0999 V2000
   18.0968  -24.0937   -6.4891 N   0  0  0  0  0  0  0  0  0  0  0  0
   18.6198  -24.2759   -7.8008 C   0  0  1  0  0  0  0  0  0  0  0  0
   17.7439  -25.1485   -8.6612 C   0  0  0  0  0  0  0  0  0  0  0  0
   17.8485  -26.6064   -8.3768 C   0  0  0  0  0  0  0  0  0  0  0  0
   19.0988  -27.2739   -8.8243 C   0  0  0  0  0  0  0  0  0  0  0  0
   18.8537  -28.4098   -9.7925 C   0  0  0  0  0  0  0  0  0  0  0  0
   20.1773  -28.9716  -10.0856 N   0  0  0  0  0  0  0  0  0  0  0  0
   18.8613  -22.9952   -8.5364 C   0  0  0  0  0  0  0  0  0  0  0  0
   17.9774  -22.0766   -8.4932 O   0  0  0  0  0  0  0  0  0  0  0  0
   21.9580  -19.7291  -10.5068 C   0  0  0  0  0  0  0  0  0  0  0  0
   21.6842  -21.0760   -9.9084 C   0  0  2  0  0  0  0  0  0  0  0  0
   22.5209  -22.0671  -10.6913 C   0  0  0  0  0  0  0  0  0  0  0  0
   20.2325  -21.4032   -9.9074 C   0  0  2  0  0  0  0  0  0  0  0  0
   20.0059  -22.7185   -9.2851 N   0  0  0  0  0  0  0  0  0  0  0  0
   19.5885  -21.4012  -11.2530 C   0  0  0  0  0  0  0  0  0  0  0  0
   19.3653  -22.5096  -11.8553 O   0  0  0  0  0  0  0  0  0  0  0  0
   18.5673  -14.6384  -16.2278 N   0  0  0  0  0  0  0  0  0  0  0  0
   19.6576  -15.5732  -16.0407 C   0  0  0  0  0  0  0  0  0  0  0  0
   20.8417  -15.1502  -16.2709 N   0  0  0  0  0  0  0  0  0  0  0  0
   19.4258  -16.8915  -15.6251 N   0  0  0  0  0  0  0  0  0  0  0  0
   18.1814  -17.5527  -15.9155 C   0  0  0  0  0  0  0  0  0  0  0  0
   18.1314  -18.9216  -15.3009 C   0  0  0  0  0  0  0  0  0  0  0  0
   18.7321  -19.0040  -13.9261 C   0  0  0  0  0  0  0  0  0  0  0  0
   18.5708  -20.3785  -13.2964 C   0  0  2  0  0  0  0  0  0  0  0  0
   19.1792  -20.2464  -11.9557 N   0  0  0  0  0  0  0  0  0  0  0  0
   19.3267  -21.3523  -14.1092 C   0  0  0  0  0  0  0  0  0  0  0  0
   20.5813  -21.2919  -14.0971 O   0  0  0  0  0  0  0  0  0  0  0  0
   18.7332  -22.3292  -14.8843 O   0  0  0  0  0  0  0  0  0  0  0  0
  2  1  1  1
  2  3  1  0
  4  3  1  0
  4  5  1  0
  6  5  1  0
  7  6  1  0
  8  2  1  0
  9  8  2  0
 11 13  1  0
 11 10  1  6
 11 12  1  0
 13 14  1  6
 14  8  1  0
 15 25  1  0
 15 13  1  0
 16 15  2  0
 17 18  1  0
 18 19  2  0
 20 21  1  0
 20 18  1  0
 21 22  1  0
 23 22  1  0
 24 23  1  6
 24 25  1  0
 26 28  1  0
 26 24  1  0
 27 26  2  0
M  END
$$$$
