KVR.pdb
     RDKit          3D

 28 27  0  0  1  0  0  0  0  0999 V2000
   24.3271  -21.0103  -20.9928 N   0  0  0  0  0  0  0  0  0  0  0  0
   23.1452  -20.7787  -20.2334 C   0  0  1  0  0  0  0  0  0  0  0  0
   21.9793  -21.6090  -20.7024 C   0  0  0  0  0  0  0  0  0  0  0  0
   21.0778  -20.9239  -21.6696 C   0  0  0  0  0  0  0  0  0  0  0  0
   21.6333  -19.7226  -22.3460 C   0  0  0  0  0  0  0  0  0  0  0  0
   20.6234  -19.0099  -23.2179 C   0  0  0  0  0  0  0  0  0  0  0  0
   21.3487  -17.8890  -23.8271 N   0  0  0  0  0  0  0  0  0  0  0  0
   23.3173  -21.0114  -18.7650 C   0  0  0  0  0  0  0  0  0  0  0  0
   23.9081  -22.0698  -18.3679 O   0  0  0  0  0  0  0  0  0  0  0  0
   23.0344  -17.9598  -15.8352 C   0  0  0  0  0  0  0  0  0  0  0  0
   23.8465  -19.2167  -15.7454 C   0  0  2  0  0  0  0  0  0  0  0  0
   25.1732  -18.9142  -16.4115 C   0  0  0  0  0  0  0  0  0  0  0  0
   23.1408  -20.3827  -16.3427 C   0  0  2  0  0  0  0  0  0  0  0  0
   22.8716  -20.1404  -17.7701 N   0  0  0  0  0  0  0  0  0  0  0  0
   21.8569  -20.7472  -15.6762 C   0  0  0  0  0  0  0  0  0  0  0  0
   20.7835  -20.1118  -15.9680 O   0  0  0  0  0  0  0  0  0  0  0  0
   18.3964  -23.6068   -9.6219 N   0  0  0  0  0  0  0  0  0  0  0  0
   17.6467  -24.7022  -10.2011 C   0  0  0  0  0  0  0  0  0  0  0  0
   16.5265  -24.9990   -9.6616 N   0  0  0  0  0  0  0  0  0  0  0  0
   18.1294  -25.4120  -11.3091 N   0  0  0  0  0  0  0  0  0  0  0  0
   19.3751  -25.0543  -11.9337 C   0  0  0  0  0  0  0  0  0  0  0  0
   19.2577  -23.7636  -12.6915 C   0  0  0  0  0  0  0  0  0  0  0  0
   20.5078  -23.3591  -13.4204 C   0  0  0  0  0  0  0  0  0  0  0  0
   20.3834  -21.9994  -14.0894 C   0  0  2  0  0  0  0  0  0  0  0  0
   21.7025  -21.7721  -14.7167 N   0  0  0  0  0  0  0  0  0  0  0  0
   20.1321  -20.9890  -13.0425 C   0  0  0  0  0  0  0  0  0  0  0  0
   21.1126  -20.5466  -12.3938 O   0  0  0  0  0  0  0  0  0  0  0  0
   18.8779  -20.4997  -12.7339 O   0  0  0  0  0  0  0  0  0  0  0  0
  2  1  1  6
  2  3  1  0
  4  3  1  0
  4  5  1  0
  6  5  1  0
  7  6  1  0
  8  2  1  0
  9  8  2  0
 11 13  1  0
 11 10  1  6
 11 12  1  0
 13 14  1  6
 14  8  1  0
 15 25  1  0
 15 13  1  0
 16 15  2  0
 17 18  1  0
 18 19  2  0
 20 21  1  0
 20 18  1  0
 21 22  1  0
 23 22  1  0
 24 23  1  1
 24 25  1  0
 26 28  1  0
 26 24  1  0
 27 26  2  0
M  END
$$$$
