KVR.pdb
     RDKit          3D

 28 27  0  0  1  0  0  0  0  0999 V2000
   25.1159  -22.2191  -11.2699 N   0  0  0  0  0  0  0  0  0  0  0  0
   24.4998  -20.9362  -11.3112 C   0  0  1  0  0  0  0  0  0  0  0  0
   24.5549  -20.2206   -9.9869 C   0  0  0  0  0  0  0  0  0  0  0  0
   23.5594  -20.6912   -8.9846 C   0  0  0  0  0  0  0  0  0  0  0  0
   22.1437  -20.7318   -9.4354 C   0  0  0  0  0  0  0  0  0  0  0  0
   21.1634  -20.9365   -8.3018 C   0  0  0  0  0  0  0  0  0  0  0  0
   21.0107  -22.3899   -8.1692 N   0  0  0  0  0  0  0  0  0  0  0  0
   25.0721  -20.0262  -12.3524 C   0  0  0  0  0  0  0  0  0  0  0  0
   24.6599  -18.8210  -12.4201 O   0  0  0  0  0  0  0  0  0  0  0  0
   28.4770  -21.0140  -14.7555 C   0  0  0  0  0  0  0  0  0  0  0  0
   28.1196  -19.6354  -14.2878 C   0  0  2  0  0  0  0  0  0  0  0  0
   28.8183  -19.4433  -12.9573 C   0  0  0  0  0  0  0  0  0  0  0  0
   26.6471  -19.4340  -14.2134 C   0  0  2  0  0  0  0  0  0  0  0  0
   26.0459  -20.4006  -13.2791 N   0  0  0  0  0  0  0  0  0  0  0  0
   25.9337  -19.5348  -15.5196 C   0  0  0  0  0  0  0  0  0  0  0  0
   25.7011  -20.6855  -16.0326 O   0  0  0  0  0  0  0  0  0  0  0  0
   19.4789  -15.9685  -17.4224 N   0  0  0  0  0  0  0  0  0  0  0  0
   19.5625  -17.0670  -16.4824 C   0  0  0  0  0  0  0  0  0  0  0  0
   18.5787  -17.8821  -16.4407 N   0  0  0  0  0  0  0  0  0  0  0  0
   20.6770  -17.2312  -15.6484 N   0  0  0  0  0  0  0  0  0  0  0  0
   21.9976  -16.8781  -16.0972 C   0  0  0  0  0  0  0  0  0  0  0  0
   22.4472  -17.7603  -17.2258 C   0  0  0  0  0  0  0  0  0  0  0  0
   23.8404  -17.4786  -17.7129 C   0  0  0  0  0  0  0  0  0  0  0  0
   24.7689  -18.6726  -17.5585 C   0  0  2  0  0  0  0  0  0  0  0  0
   25.4656  -18.4378  -16.2761 N   0  0  0  0  0  0  0  0  0  0  0  0
   25.7333  -18.6575  -18.6766 C   0  0  0  0  0  0  0  0  0  0  0  0
   25.3164  -18.9422  -19.8268 O   0  0  0  0  0  0  0  0  0  0  0  0
   27.0713  -18.3471  -18.5315 O   0  0  0  0  0  0  0  0  0  0  0  0
  2  1  1  1
  2  3  1  0
  4  3  1  0
  4  5  1  0
  6  5  1  0
  7  6  1  0
  8  2  1  0
  9  8  2  0
 11 13  1  0
 11 10  1  1
 11 12  1  0
 13 14  1  1
 14  8  1  0
 15 25  1  0
 15 13  1  0
 16 15  2  0
 17 18  1  0
 18 19  2  0
 20 21  1  0
 20 18  1  0
 21 22  1  0
 23 22  1  0
 24 23  1  6
 24 25  1  0
 26 28  1  0
 26 24  1  0
 27 26  2  0
M  END
$$$$
