KVR.pdb
     RDKit          3D

 28 27  0  0  1  0  0  0  0  0999 V2000
   26.1252  -22.0997  -11.8876 N   0  0  0  0  0  0  0  0  0  0  0  0
   25.7153  -21.7679  -13.2102 C   0  0  1  0  0  0  0  0  0  0  0  0
   24.4331  -22.4491  -13.6109 C   0  0  0  0  0  0  0  0  0  0  0  0
   24.5157  -23.9339  -13.6865 C   0  0  0  0  0  0  0  0  0  0  0  0
   23.3039  -24.6336  -14.1878 C   0  0  0  0  0  0  0  0  0  0  0  0
   23.4634  -26.1368  -14.2410 C   0  0  0  0  0  0  0  0  0  0  0  0
   22.2080  -26.6475  -14.8034 N   0  0  0  0  0  0  0  0  0  0  0  0
   25.5488  -20.2982  -13.4385 C   0  0  0  0  0  0  0  0  0  0  0  0
   25.0194  -19.5827  -12.5247 O   0  0  0  0  0  0  0  0  0  0  0  0
   27.1019  -16.1052  -15.2671 C   0  0  0  0  0  0  0  0  0  0  0  0
   27.1718  -17.5851  -15.0384 C   0  0  2  0  0  0  0  0  0  0  0  0
   27.8125  -18.1770  -16.2772 C   0  0  0  0  0  0  0  0  0  0  0  0
   25.8373  -18.1674  -14.7309 C   0  0  2  0  0  0  0  0  0  0  0  0
   25.9364  -19.6310  -14.6011 N   0  0  0  0  0  0  0  0  0  0  0  0
   24.7719  -17.8536  -15.7268 C   0  0  0  0  0  0  0  0  0  0  0  0
   24.6204  -18.6009  -16.7563 O   0  0  0  0  0  0  0  0  0  0  0  0
   17.2142  -13.0481  -15.8023 N   0  0  0  0  0  0  0  0  0  0  0  0
   17.3835  -13.6375  -17.1143 C   0  0  0  0  0  0  0  0  0  0  0  0
   16.4359  -13.4790  -17.9575 N   0  0  0  0  0  0  0  0  0  0  0  0
   18.5398  -14.3558  -17.4483 N   0  0  0  0  0  0  0  0  0  0  0  0
   19.5664  -14.6046  -16.4715 C   0  0  0  0  0  0  0  0  0  0  0  0
   20.7532  -15.2891  -17.0856 C   0  0  0  0  0  0  0  0  0  0  0  0
   21.7489  -15.8119  -16.0892 C   0  0  0  0  0  0  0  0  0  0  0  0
   22.9340  -16.4991  -16.7488 C   0  0  2  0  0  0  0  0  0  0  0  0
   23.8721  -16.7685  -15.6387 N   0  0  0  0  0  0  0  0  0  0  0  0
   23.5373  -15.5580  -17.7135 C   0  0  0  0  0  0  0  0  0  0  0  0
   22.9785  -15.4078  -18.8285 O   0  0  0  0  0  0  0  0  0  0  0  0
   24.6838  -14.8304  -17.4609 O   0  0  0  0  0  0  0  0  0  0  0  0
  2  1  1  1
  2  3  1  0
  4  3  1  0
  4  5  1  0
  6  5  1  0
  7  6  1  0
  8  2  1  0
  9  8  2  0
 11 13  1  0
 11 10  1  6
 11 12  1  0
 13 14  1  6
 14  8  1  0
 15 25  1  0
 15 13  1  0
 16 15  2  0
 17 18  1  0
 18 19  2  0
 20 21  1  0
 20 18  1  0
 21 22  1  0
 23 22  1  0
 24 23  1  1
 24 25  1  0
 26 28  1  0
 26 24  1  0
 27 26  2  0
M  END
$$$$
