KVR.pdb
     RDKit          3D

 28 27  0  0  1  0  0  0  0  0999 V2000
   28.2510  -22.2043  -15.4107 N   0  0  0  0  0  0  0  0  0  0  0  0
   26.9198  -21.8872  -15.8036 C   0  0  1  0  0  0  0  0  0  0  0  0
   25.8912  -22.7614  -15.1353 C   0  0  0  0  0  0  0  0  0  0  0  0
   25.2900  -23.7992  -16.0178 C   0  0  0  0  0  0  0  0  0  0  0  0
   24.1035  -24.5127  -15.4770 C   0  0  0  0  0  0  0  0  0  0  0  0
   23.5492  -25.5513  -16.4267 C   0  0  0  0  0  0  0  0  0  0  0  0
   24.2239  -26.8065  -16.0768 N   0  0  0  0  0  0  0  0  0  0  0  0
   26.5430  -20.4598  -15.5582 C   0  0  0  0  0  0  0  0  0  0  0  0
   26.6824  -19.9719  -14.3879 O   0  0  0  0  0  0  0  0  0  0  0  0
   26.6261  -17.4561  -18.4396 C   0  0  0  0  0  0  0  0  0  0  0  0
   26.7008  -17.2979  -16.9507 C   0  0  2  0  0  0  0  0  0  0  0  0
   28.1437  -17.5558  -16.5677 C   0  0  0  0  0  0  0  0  0  0  0  0
   25.7372  -18.1853  -16.2447 C   0  0  2  0  0  0  0  0  0  0  0  0
   26.0384  -19.5978  -16.5326 N   0  0  0  0  0  0  0  0  0  0  0  0
   24.3023  -17.9343  -16.5664 C   0  0  0  0  0  0  0  0  0  0  0  0
   23.7984  -18.4052  -17.6459 O   0  0  0  0  0  0  0  0  0  0  0  0
   18.6963  -19.7351  -10.9682 N   0  0  0  0  0  0  0  0  0  0  0  0
   19.5841  -20.6330  -11.6776 C   0  0  0  0  0  0  0  0  0  0  0  0
   19.6385  -21.8455  -11.2765 N   0  0  0  0  0  0  0  0  0  0  0  0
   20.3560  -20.1915  -12.7610 N   0  0  0  0  0  0  0  0  0  0  0  0
   20.2661  -18.8349  -13.2316 C   0  0  0  0  0  0  0  0  0  0  0  0
   21.0971  -18.6261  -14.4645 C   0  0  0  0  0  0  0  0  0  0  0  0
   21.1901  -17.1948  -14.9120 C   0  0  0  0  0  0  0  0  0  0  0  0
   22.0011  -17.0299  -16.1875 C   0  0  2  0  0  0  0  0  0  0  0  0
   23.4055  -17.2001  -15.7591 N   0  0  0  0  0  0  0  0  0  0  0  0
   21.7835  -15.6630  -16.7017 C   0  0  0  0  0  0  0  0  0  0  0  0
   22.5745  -14.7571  -16.3390 O   0  0  0  0  0  0  0  0  0  0  0  0
   20.7580  -15.3209  -17.5613 O   0  0  0  0  0  0  0  0  0  0  0  0
  2  1  1  1
  2  3  1  0
  4  3  1  0
  4  5  1  0
  6  5  1  0
  7  6  1  0
  8  2  1  0
  9  8  2  0
 11 13  1  0
 11 10  1  6
 11 12  1  0
 13 14  1  6
 14  8  1  0
 15 25  1  0
 15 13  1  0
 16 15  2  0
 17 18  1  0
 18 19  2  0
 20 21  1  0
 20 18  1  0
 21 22  1  0
 23 22  1  0
 24 23  1  1
 24 25  1  0
 26 28  1  0
 26 24  1  0
 27 26  2  0
M  END
$$$$
