KVR.pdb
     RDKit          3D

 28 27  0  0  1  0  0  0  0  0999 V2000
   23.5017  -20.6742  -16.0158 N   0  0  0  0  0  0  0  0  0  0  0  0
   22.6526  -19.8350  -15.2399 C   0  0  1  0  0  0  0  0  0  0  0  0
   21.5583  -19.1989  -16.0563 C   0  0  0  0  0  0  0  0  0  0  0  0
   20.6212  -20.1623  -16.6972 C   0  0  0  0  0  0  0  0  0  0  0  0
   19.4963  -19.5696  -17.4669 C   0  0  0  0  0  0  0  0  0  0  0  0
   18.5629  -20.6066  -18.0513 C   0  0  0  0  0  0  0  0  0  0  0  0
   17.5051  -19.8486  -18.7293 N   0  0  0  0  0  0  0  0  0  0  0  0
   22.0170  -20.5310  -14.0774 C   0  0  0  0  0  0  0  0  0  0  0  0
   22.1392  -21.7958  -13.9668 O   0  0  0  0  0  0  0  0  0  0  0  0
   22.2608  -19.2977  -10.2982 C   0  0  0  0  0  0  0  0  0  0  0  0
   20.8638  -19.6683  -10.6960 C   0  0  2  0  0  0  0  0  0  0  0  0
   20.2094  -20.2488   -9.4591 C   0  0  0  0  0  0  0  0  0  0  0  0
   20.8407  -20.5923  -11.8623 C   0  0  2  0  0  0  0  0  0  0  0  0
   21.2824  -19.8901  -13.0790 N   0  0  0  0  0  0  0  0  0  0  0  0
   19.5168  -21.2229  -12.1364 C   0  0  0  0  0  0  0  0  0  0  0  0
   18.6416  -20.5941  -12.8290 O   0  0  0  0  0  0  0  0  0  0  0  0
   16.2061  -29.5099  -11.1213 N   0  0  0  0  0  0  0  0  0  0  0  0
   15.2348  -28.7324  -11.8626 C   0  0  0  0  0  0  0  0  0  0  0  0
   14.2118  -29.3487  -12.3185 N   0  0  0  0  0  0  0  0  0  0  0  0
   15.4083  -27.3579  -12.0749 N   0  0  0  0  0  0  0  0  0  0  0  0
   16.5540  -26.6650  -11.5482 C   0  0  0  0  0  0  0  0  0  0  0  0
   16.5491  -25.2170  -11.9450 C   0  0  0  0  0  0  0  0  0  0  0  0
   17.8012  -24.4717  -11.5786 C   0  0  0  0  0  0  0  0  0  0  0  0
   17.7889  -23.0301  -12.0617 C   0  0  2  0  0  0  0  0  0  0  0  0
   19.1192  -22.5029  -11.6910 N   0  0  0  0  0  0  0  0  0  0  0  0
   16.7287  -22.3060  -11.3324 C   0  0  0  0  0  0  0  0  0  0  0  0
   16.9626  -21.9334  -10.1558 O   0  0  0  0  0  0  0  0  0  0  0  0
   15.4907  -22.0129  -11.8701 O   0  0  0  0  0  0  0  0  0  0  0  0
  2  1  1  6
  2  3  1  0
  4  3  1  0
  4  5  1  0
  6  5  1  0
  7  6  1  0
  8  2  1  0
  9  8  2  0
 11 13  1  0
 11 10  1  1
 11 12  1  0
 13 14  1  6
 14  8  1  0
 15 25  1  0
 15 13  1  0
 16 15  2  0
 17 18  1  0
 18 19  2  0
 20 21  1  0
 20 18  1  0
 21 22  1  0
 23 22  1  0
 24 23  1  1
 24 25  1  0
 26 28  1  0
 26 24  1  0
 27 26  2  0
M  END
$$$$
