KVR.pdb
     RDKit          3D

 28 27  0  0  1  0  0  0  0  0999 V2000
   25.6947  -25.4347  -18.1619 N   0  0  0  0  0  0  0  0  0  0  0  0
   25.7192  -25.7742  -16.7793 C   0  0  1  0  0  0  0  0  0  0  0  0
   27.0156  -26.4164  -16.3601 C   0  0  0  0  0  0  0  0  0  0  0  0
   27.4824  -27.5135  -17.2521 C   0  0  0  0  0  0  0  0  0  0  0  0
   27.3054  -28.8969  -16.7381 C   0  0  0  0  0  0  0  0  0  0  0  0
   28.5265  -29.4259  -16.0192 C   0  0  0  0  0  0  0  0  0  0  0  0
   29.5169  -29.6948  -17.0681 N   0  0  0  0  0  0  0  0  0  0  0  0
   25.4626  -24.6141  -15.8694 C   0  0  0  0  0  0  0  0  0  0  0  0
   25.4766  -24.7983  -14.6073 O   0  0  0  0  0  0  0  0  0  0  0  0
   26.9262  -20.9664  -15.6564 C   0  0  0  0  0  0  0  0  0  0  0  0
   25.4328  -20.9505  -15.7861 C   0  0  2  0  0  0  0  0  0  0  0  0
   24.9480  -19.7671  -14.9737 C   0  0  0  0  0  0  0  0  0  0  0  0
   24.8211  -22.2410  -15.3682 C   0  0  2  0  0  0  0  0  0  0  0  0
   25.2026  -23.3134  -16.3026 N   0  0  0  0  0  0  0  0  0  0  0  0
   23.3337  -22.2221  -15.2545 C   0  0  0  0  0  0  0  0  0  0  0  0
   22.6175  -21.9831  -16.2895 O   0  0  0  0  0  0  0  0  0  0  0  0
   16.8004  -25.9830  -12.0558 N   0  0  0  0  0  0  0  0  0  0  0  0
   18.1580  -26.3272  -11.6873 C   0  0  0  0  0  0  0  0  0  0  0  0
   18.4580  -27.5689  -11.6388 N   0  0  0  0  0  0  0  0  0  0  0  0
   19.1076  -25.3391  -11.3933 N   0  0  0  0  0  0  0  0  0  0  0  0
   18.7610  -23.9431  -11.4301 C   0  0  0  0  0  0  0  0  0  0  0  0
   19.2190  -23.2981  -12.7061 C   0  0  0  0  0  0  0  0  0  0  0  0
   20.7098  -23.1526  -12.8245 C   0  0  0  0  0  0  0  0  0  0  0  0
   21.1296  -22.4190  -14.0884 C   0  0  2  0  0  0  0  0  0  0  0  0
   22.6071  -22.4568  -14.0663 N   0  0  0  0  0  0  0  0  0  0  0  0
   20.6505  -21.0253  -13.9960 C   0  0  0  0  0  0  0  0  0  0  0  0
   21.2599  -20.2351  -13.2330 O   0  0  0  0  0  0  0  0  0  0  0  0
   19.5682  -20.5377  -14.7021 O   0  0  0  0  0  0  0  0  0  0  0  0
  2  1  1  6
  2  3  1  0
  4  3  1  0
  4  5  1  0
  6  5  1  0
  7  6  1  0
  8  2  1  0
  9  8  2  0
 11 13  1  0
 11 10  1  1
 11 12  1  0
 13 14  1  6
 14  8  1  0
 15 25  1  0
 15 13  1  0
 16 15  2  0
 17 18  1  0
 18 19  2  0
 20 21  1  0
 20 18  1  0
 21 22  1  0
 23 22  1  0
 24 23  1  1
 24 25  1  0
 26 28  1  0
 26 24  1  0
 27 26  2  0
M  END
$$$$
