KVR.pdb
     RDKit          3D

 28 27  0  0  1  0  0  0  0  0999 V2000
   30.1194  -24.0582  -16.4214 N   0  0  0  0  0  0  0  0  0  0  0  0
   29.2570  -23.1583  -17.1095 C   0  0  1  0  0  0  0  0  0  0  0  0
   28.3866  -23.8484  -18.1268 C   0  0  0  0  0  0  0  0  0  0  0  0
   29.1277  -24.4706  -19.2586 C   0  0  0  0  0  0  0  0  0  0  0  0
   29.9466  -23.5508  -20.0908 C   0  0  0  0  0  0  0  0  0  0  0  0
   30.5924  -24.2351  -21.2751 C   0  0  0  0  0  0  0  0  0  0  0  0
   31.3184  -23.1810  -21.9928 N   0  0  0  0  0  0  0  0  0  0  0  0
   28.3687  -22.3641  -16.2039 C   0  0  0  0  0  0  0  0  0  0  0  0
   27.7626  -22.9565  -15.2507 O   0  0  0  0  0  0  0  0  0  0  0  0
   26.9227  -18.0026  -14.3703 C   0  0  0  0  0  0  0  0  0  0  0  0
   27.7451  -18.8113  -15.3279 C   0  0  2  0  0  0  0  0  0  0  0  0
   27.6068  -18.1402  -16.6791 C   0  0  0  0  0  0  0  0  0  0  0  0
   27.3433  -20.2441  -15.3389 C   0  0  2  0  0  0  0  0  0  0  0  0
   28.1450  -20.9918  -16.3222 N   0  0  0  0  0  0  0  0  0  0  0  0
   25.8996  -20.4881  -15.6246 C   0  0  0  0  0  0  0  0  0  0  0  0
   25.5452  -20.9641  -16.7600 O   0  0  0  0  0  0  0  0  0  0  0  0
   19.7506  -24.9062  -13.7935 N   0  0  0  0  0  0  0  0  0  0  0  0
   19.8690  -25.1664  -15.2133 C   0  0  0  0  0  0  0  0  0  0  0  0
   18.8571  -25.6769  -15.8045 N   0  0  0  0  0  0  0  0  0  0  0  0
   21.0469  -24.8724  -15.9138 N   0  0  0  0  0  0  0  0  0  0  0  0
   22.1929  -24.3226  -15.2398 C   0  0  0  0  0  0  0  0  0  0  0  0
   22.1811  -22.8217  -15.2737 C   0  0  0  0  0  0  0  0  0  0  0  0
   23.5123  -22.1866  -14.9871 C   0  0  0  0  0  0  0  0  0  0  0  0
   23.4679  -20.6689  -15.0664 C   0  0  2  0  0  0  0  0  0  0  0  0
   24.8402  -20.2389  -14.7243 N   0  0  0  0  0  0  0  0  0  0  0  0
   22.5098  -20.1798  -14.0550 C   0  0  0  0  0  0  0  0  0  0  0  0
   22.9593  -19.7829  -12.9512 O   0  0  0  0  0  0  0  0  0  0  0  0
   21.1436  -20.1324  -14.2521 O   0  0  0  0  0  0  0  0  0  0  0  0
  2  1  1  1
  2  3  1  0
  4  3  1  0
  4  5  1  0
  6  5  1  0
  7  6  1  0
  8  2  1  0
  9  8  2  0
 11 13  1  0
 11 10  1  1
 11 12  1  0
 13 14  1  6
 14  8  1  0
 15 25  1  0
 15 13  1  0
 16 15  2  0
 17 18  1  0
 18 19  2  0
 20 21  1  0
 20 18  1  0
 21 22  1  0
 23 22  1  0
 24 23  1  1
 24 25  1  0
 26 28  1  0
 26 24  1  0
 27 26  2  0
M  END
$$$$
