KVR.pdb
     RDKit          3D

 28 27  0  0  1  0  0  0  0  0999 V2000
   33.4033  -25.3624  -15.1448 N   0  0  0  0  0  0  0  0  0  0  0  0
   32.7401  -25.1475  -16.3862 C   0  0  1  0  0  0  0  0  0  0  0  0
   32.8890  -26.3079  -17.3349 C   0  0  0  0  0  0  0  0  0  0  0  0
   34.2862  -26.5754  -17.7749 C   0  0  0  0  0  0  0  0  0  0  0  0
   34.8661  -25.6068  -18.7417 C   0  0  0  0  0  0  0  0  0  0  0  0
   36.3037  -25.9116  -19.1001 C   0  0  0  0  0  0  0  0  0  0  0  0
   36.7810  -24.7421  -19.8470 N   0  0  0  0  0  0  0  0  0  0  0  0
   31.2802  -24.8497  -16.2456 C   0  0  0  0  0  0  0  0  0  0  0  0
   30.6087  -25.4434  -15.3380 O   0  0  0  0  0  0  0  0  0  0  0  0
   27.5903  -21.6551  -16.8897 C   0  0  0  0  0  0  0  0  0  0  0  0
   29.0158  -22.0895  -17.0528 C   0  0  2  0  0  0  0  0  0  0  0  0
   29.4072  -21.7387  -18.4737 C   0  0  0  0  0  0  0  0  0  0  0  0
   29.2021  -23.5301  -16.7299 C   0  0  2  0  0  0  0  0  0  0  0  0
   30.5767  -23.9513  -17.0489 N   0  0  0  0  0  0  0  0  0  0  0  0
   28.2544  -24.4544  -17.4177 C   0  0  0  0  0  0  0  0  0  0  0  0
   28.4186  -24.7300  -18.6579 O   0  0  0  0  0  0  0  0  0  0  0  0
   20.8608  -28.7487  -14.7134 N   0  0  0  0  0  0  0  0  0  0  0  0
   20.9035  -28.8319  -16.1587 C   0  0  0  0  0  0  0  0  0  0  0  0
   19.9172  -29.3951  -16.7452 N   0  0  0  0  0  0  0  0  0  0  0  0
   21.9841  -28.3173  -16.8880 N   0  0  0  0  0  0  0  0  0  0  0  0
   23.1170  -27.7319  -16.2217 C   0  0  0  0  0  0  0  0  0  0  0  0
   24.1309  -27.2257  -17.2065 C   0  0  0  0  0  0  0  0  0  0  0  0
   25.3536  -26.6194  -16.5780 C   0  0  0  0  0  0  0  0  0  0  0  0
   26.2869  -25.9884  -17.5991 C   0  0  2  0  0  0  0  0  0  0  0  0
   27.1487  -25.0860  -16.8066 N   0  0  0  0  0  0  0  0  0  0  0  0
   25.4718  -25.2116  -18.5543 C   0  0  0  0  0  0  0  0  0  0  0  0
   25.2703  -25.6947  -19.6962 O   0  0  0  0  0  0  0  0  0  0  0  0
   24.9158  -23.9809  -18.2648 O   0  0  0  0  0  0  0  0  0  0  0  0
  2  1  1  1
  2  3  1  0
  4  3  1  0
  4  5  1  0
  6  5  1  0
  7  6  1  0
  8  2  1  0
  9  8  2  0
 11 13  1  0
 11 10  1  6
 11 12  1  0
 13 14  1  6
 14  8  1  0
 15 25  1  0
 15 13  1  0
 16 15  2  0
 17 18  1  0
 18 19  2  0
 20 21  1  0
 20 18  1  0
 21 22  1  0
 23 22  1  0
 24 23  1  1
 24 25  1  0
 26 28  1  0
 26 24  1  0
 27 26  2  0
M  END
$$$$
