ALH.pdb
     RDKit          3D

 24 24  0  0  1  0  0  0  0  0999 V2000
   29.8008  -20.4319  -11.9410 C   0  0  0  0  0  0  0  0  0  0  0  0
   30.0700  -21.0021  -10.5565 C   0  0  2  0  0  0  0  0  0  0  0  0
   30.7413  -22.2622  -10.7049 N   0  0  0  0  0  0  0  0  0  0  0  0
   28.7714  -21.1726   -9.8648 C   0  0  0  0  0  0  0  0  0  0  0  0
   28.0428  -22.1959  -10.0628 O   0  0  0  0  0  0  0  0  0  0  0  0
   28.3545  -18.7656   -5.1937 C   0  0  0  0  0  0  0  0  0  0  0  0
   28.1701  -19.8625   -6.2440 C   0  0  1  0  0  0  0  0  0  0  0  0
   27.9468  -21.2038   -5.5329 C   0  0  0  0  0  0  0  0  0  0  0  0
   26.9314  -19.5918   -7.0294 C   0  0  0  0  0  0  0  0  0  0  0  0
   26.9503  -20.2991   -8.3419 C   0  0  2  0  0  0  0  0  0  0  0  0
   28.2937  -20.1939   -8.9524 N   0  0  0  0  0  0  0  0  0  0  0  0
   25.9591  -19.6697   -9.2709 C   0  0  0  0  0  0  0  0  0  0  0  0
   26.2498  -18.6981  -10.0127 O   0  0  0  0  0  0  0  0  0  0  0  0
   24.6232  -20.1789   -9.3316 N   0  0  0  0  0  0  0  0  0  0  0  0
   23.9161  -20.1617  -10.6152 C   0  0  1  0  0  0  0  0  0  0  0  0
   24.7223  -20.8690  -11.6719 C   0  0  0  0  0  0  0  0  0  0  0  0
   23.9926  -20.8487  -12.9495 C   0  0  0  0  0  0  0  0  0  0  0  0
   22.7527  -20.3134  -13.2014 C   0  0  0  0  0  0  0  0  0  0  0  0
   22.4529  -20.5246  -14.4838 N   0  0  0  0  0  0  0  0  0  0  0  0
   23.4728  -21.1770  -15.0370 C   0  0  0  0  0  0  0  0  0  0  0  0
   24.4243  -21.3839  -14.1127 N   0  0  0  0  0  0  0  0  0  0  0  0
   22.5420  -20.6553  -10.4563 C   0  0  0  0  0  0  0  0  0  0  0  0
   21.4643  -20.2459  -11.2123 O   0  0  0  0  0  0  0  0  0  0  0  0
   22.3027  -21.5247   -9.5604 O   0  0  0  0  0  0  0  0  0  0  0  0
  2  1  1  6
  2  3  1  0
  4  2  1  0
  4  5  2  0
  7  6  1  1
  7  9  1  0
  7  8  1  0
 10  9  1  1
 10 11  1  0
 10 12  1  0
 11  4  1  0
 12 14  1  0
 13 12  2  0
 14 15  1  0
 15 22  1  0
 16 17  1  0
 15 16  1  6
 17 18  2  0
 19 18  1  0
 20 19  1  0
 21 20  2  0
 21 17  1  0
 22 24  2  0
 22 23  1  0
M  END
$$$$
