ALH.pdb
     RDKit          3D

 24 24  0  0  1  0  0  0  0  0999 V2000
   24.2763  -22.7484  -19.6938 C   0  0  0  0  0  0  0  0  0  0  0  0
   25.4869  -22.5451  -18.7951 C   0  0  2  0  0  0  0  0  0  0  0  0
   26.2800  -23.7412  -18.8211 N   0  0  0  0  0  0  0  0  0  0  0  0
   25.0038  -22.2601  -17.4242 C   0  0  0  0  0  0  0  0  0  0  0  0
   24.3284  -23.1140  -16.7672 O   0  0  0  0  0  0  0  0  0  0  0  0
   28.0557  -18.9321  -14.3677 C   0  0  0  0  0  0  0  0  0  0  0  0
   27.1910  -20.1056  -14.8316 C   0  0  1  0  0  0  0  0  0  0  0  0
   27.3368  -21.2605  -13.8318 C   0  0  0  0  0  0  0  0  0  0  0  0
   25.7551  -19.7035  -14.8029 C   0  0  0  0  0  0  0  0  0  0  0  0
   24.8802  -20.7562  -15.3941 C   0  0  2  0  0  0  0  0  0  0  0  0
   25.2802  -21.0170  -16.7942 N   0  0  0  0  0  0  0  0  0  0  0  0
   23.4562  -20.2935  -15.3885 C   0  0  0  0  0  0  0  0  0  0  0  0
   23.0833  -19.2460  -15.9735 O   0  0  0  0  0  0  0  0  0  0  0  0
   22.4657  -21.0592  -14.6956 N   0  0  0  0  0  0  0  0  0  0  0  0
   21.0905  -20.5556  -14.6418 C   0  0  1  0  0  0  0  0  0  0  0  0
   20.1409  -21.5451  -15.2633 C   0  0  0  0  0  0  0  0  0  0  0  0
   18.7735  -21.0022  -15.2410 C   0  0  0  0  0  0  0  0  0  0  0  0
   18.3572  -19.7918  -14.7421 C   0  0  0  0  0  0  0  0  0  0  0  0
   17.0363  -19.6994  -14.9024 N   0  0  0  0  0  0  0  0  0  0  0  0
   16.6191  -20.8198  -15.4877 C   0  0  0  0  0  0  0  0  0  0  0  0
   17.6688  -21.6288  -15.7024 N   0  0  0  0  0  0  0  0  0  0  0  0
   20.7427  -20.1436  -13.2756 C   0  0  0  0  0  0  0  0  0  0  0  0
   19.9144  -19.0888  -12.9565 O   0  0  0  0  0  0  0  0  0  0  0  0
   21.2306  -20.7917  -12.2970 O   0  0  0  0  0  0  0  0  0  0  0  0
  2  1  1  6
  2  3  1  0
  4  2  1  0
  4  5  2  0
  7  6  1  1
  7  9  1  0
  7  8  1  0
 10  9  1  6
 10 11  1  0
 10 12  1  0
 11  4  1  0
 12 14  1  0
 13 12  2  0
 14 15  1  0
 15 22  1  0
 16 17  1  0
 15 16  1  1
 17 18  2  0
 19 18  1  0
 20 19  1  0
 21 20  2  0
 21 17  1  0
 22 24  2  0
 22 23  1  0
M  END
$$$$
