ALH.pdb
     RDKit          3D

 24 24  0  0  1  0  0  0  0  0999 V2000
   16.6723  -14.5222  -16.8543 C   0  0  0  0  0  0  0  0  0  0  0  0
   17.1703  -13.3491  -17.6852 C   0  0  2  0  0  0  0  0  0  0  0  0
   18.0299  -13.8540  -18.7179 N   0  0  0  0  0  0  0  0  0  0  0  0
   17.9047  -12.4255  -16.7898 C   0  0  0  0  0  0  0  0  0  0  0  0
   17.3524  -11.9155  -15.7642 O   0  0  0  0  0  0  0  0  0  0  0  0
   23.1044  -13.2288  -15.7484 C   0  0  0  0  0  0  0  0  0  0  0  0
   21.6301  -12.8447  -15.6098 C   0  0  1  0  0  0  0  0  0  0  0  0
   21.2628  -12.7987  -14.1207 C   0  0  0  0  0  0  0  0  0  0  0  0
   21.4273  -11.4638  -16.1356 C   0  0  0  0  0  0  0  0  0  0  0  0
   19.9806  -11.1080  -16.1953 C   0  0  2  0  0  0  0  0  0  0  0  0
   19.2576  -12.0768  -17.0481 N   0  0  0  0  0  0  0  0  0  0  0  0
   19.8186   -9.7433  -16.7896 C   0  0  0  0  0  0  0  0  0  0  0  0
   20.0567   -9.4998  -17.9989 O   0  0  0  0  0  0  0  0  0  0  0  0
   19.3766   -8.6602  -15.9655 N   0  0  0  0  0  0  0  0  0  0  0  0
   18.7690   -7.4881  -16.6017 C   0  0  1  0  0  0  0  0  0  0  0  0
   17.6613   -7.9068  -17.5318 C   0  0  0  0  0  0  0  0  0  0  0  0
   17.8271   -7.2400  -18.8330 C   0  0  0  0  0  0  0  0  0  0  0  0
   18.8450   -6.4056  -19.2268 C   0  0  0  0  0  0  0  0  0  0  0  0
   18.6036   -6.0031  -20.4752 N   0  0  0  0  0  0  0  0  0  0  0  0
   17.4627   -6.5645  -20.8693 C   0  0  0  0  0  0  0  0  0  0  0  0
   16.9734   -7.3249  -19.8769 N   0  0  0  0  0  0  0  0  0  0  0  0
   18.3822   -6.4932  -15.5929 C   0  0  0  0  0  0  0  0  0  0  0  0
   18.4729   -6.6759  -14.2295 O   0  0  0  0  0  0  0  0  0  0  0  0
   17.9255   -5.3723  -15.9811 O   0  0  0  0  0  0  0  0  0  0  0  0
  2  1  1  1
  2  3  1  0
  4  2  1  0
  4  5  2  0
  7  6  1  1
  7  9  1  0
  7  8  1  0
 10  9  1  6
 10 11  1  0
 10 12  1  0
 11  4  1  0
 12 14  1  0
 13 12  2  0
 14 15  1  0
 15 22  1  0
 16 17  1  0
 15 16  1  1
 17 18  2  0
 19 18  1  0
 20 19  1  0
 21 20  2  0
 21 17  1  0
 22 24  2  0
 22 23  1  0
M  END
$$$$
