ALH.pdb
     RDKit          3D

 24 24  0  0  1  0  0  0  0  0999 V2000
   13.7833  -11.7874    6.3580 C   0  0  0  0  0  0  0  0  0  0  0  0
   14.9852  -11.3327    5.5436 C   0  0  2  0  0  0  0  0  0  0  0  0
   14.5880  -11.2194    4.1688 N   0  0  0  0  0  0  0  0  0  0  0  0
   16.0604  -12.3390    5.7025 C   0  0  0  0  0  0  0  0  0  0  0  0
   16.1933  -13.3036    4.8846 O   0  0  0  0  0  0  0  0  0  0  0  0
   20.9045  -10.9478    8.0012 C   0  0  0  0  0  0  0  0  0  0  0  0
   19.8504  -11.5539    7.0730 C   0  0  1  0  0  0  0  0  0  0  0  0
   20.5506  -12.1656    5.8523 C   0  0  0  0  0  0  0  0  0  0  0  0
   19.1646  -12.6791    7.7717 C   0  0  0  0  0  0  0  0  0  0  0  0
   18.0685  -13.2530    6.9396 C   0  0  2  0  0  0  0  0  0  0  0  0
   16.9838  -12.2600    6.7794 N   0  0  0  0  0  0  0  0  0  0  0  0
   17.5032  -14.4652    7.6125 C   0  0  0  0  0  0  0  0  0  0  0  0
   16.6310  -14.3932    8.5140 O   0  0  0  0  0  0  0  0  0  0  0  0
   17.9604  -15.7658    7.2291 N   0  0  0  0  0  0  0  0  0  0  0  0
   17.3977  -16.9409    7.9002 C   0  0  1  0  0  0  0  0  0  0  0  0
   17.6188  -18.1786    7.0717 C   0  0  0  0  0  0  0  0  0  0  0  0
   16.9587  -19.3280    7.7106 C   0  0  0  0  0  0  0  0  0  0  0  0
   15.8855  -19.3117    8.5681 C   0  0  0  0  0  0  0  0  0  0  0  0
   15.6141  -20.5662    8.9307 N   0  0  0  0  0  0  0  0  0  0  0  0
   16.4894  -21.3631    8.3219 C   0  0  0  0  0  0  0  0  0  0  0  0
   17.3201  -20.6225    7.5710 N   0  0  0  0  0  0  0  0  0  0  0  0
   17.8850  -17.0307    9.2828 C   0  0  0  0  0  0  0  0  0  0  0  0
   17.1069  -17.3539   10.3740 O   0  0  0  0  0  0  0  0  0  0  0  0
   19.1121  -16.7960    9.5167 O   0  0  0  0  0  0  0  0  0  0  0  0
  2  1  1  1
  2  3  1  0
  4  2  1  0
  4  5  2  0
  7  6  1  1
  7  9  1  0
  7  8  1  0
 10  9  1  1
 10 11  1  0
 10 12  1  0
 11  4  1  0
 12 14  1  0
 13 12  2  0
 14 15  1  0
 15 22  1  0
 16 17  1  0
 15 16  1  6
 17 18  2  0
 19 18  1  0
 20 19  1  0
 21 20  2  0
 21 17  1  0
 22 24  2  0
 22 23  1  0
M  END
$$$$
