ALH.pdb
     RDKit          3D

 24 24  0  0  1  0  0  0  0  0999 V2000
   24.8970  -14.6083  -15.5521 C   0  0  0  0  0  0  0  0  0  0  0  0
   26.1358  -15.3937  -15.9559 C   0  0  2  0  0  0  0  0  0  0  0  0
   26.4964  -15.0200  -17.2941 N   0  0  0  0  0  0  0  0  0  0  0  0
   25.8151  -16.8376  -15.8779 C   0  0  0  0  0  0  0  0  0  0  0  0
   25.3258  -17.4638  -16.8706 O   0  0  0  0  0  0  0  0  0  0  0  0
   28.6322  -20.5123  -12.8518 C   0  0  0  0  0  0  0  0  0  0  0  0
   27.8117  -19.8849  -13.9803 C   0  0  1  0  0  0  0  0  0  0  0  0
   27.7360  -20.8721  -15.1526 C   0  0  0  0  0  0  0  0  0  0  0  0
   26.4100  -19.6761  -13.5154 C   0  0  0  0  0  0  0  0  0  0  0  0
   25.5904  -18.9762  -14.5457 C   0  0  2  0  0  0  0  0  0  0  0  0
   26.0444  -17.5752  -14.6854 N   0  0  0  0  0  0  0  0  0  0  0  0
   24.1524  -18.9670  -14.1288 C   0  0  0  0  0  0  0  0  0  0  0  0
   23.6641  -18.0639  -13.4044 O   0  0  0  0  0  0  0  0  0  0  0  0
   23.2833  -20.0184  -14.5608 N   0  0  0  0  0  0  0  0  0  0  0  0
   21.8368  -19.8573  -14.3893 C   0  0  1  0  0  0  0  0  0  0  0  0
   21.3852  -18.5277  -14.9328 C   0  0  0  0  0  0  0  0  0  0  0  0
   19.9336  -18.3806  -14.7421 C   0  0  0  0  0  0  0  0  0  0  0  0
   19.1926  -18.7153  -13.6347 C   0  0  0  0  0  0  0  0  0  0  0  0
   17.9118  -18.4377  -13.8825 N   0  0  0  0  0  0  0  0  0  0  0  0
   17.8355  -17.9393  -15.1144 C   0  0  0  0  0  0  0  0  0  0  0  0
   19.0634  -17.8970  -15.6557 N   0  0  0  0  0  0  0  0  0  0  0  0
   21.1184  -21.0189  -14.9295 C   0  0  0  0  0  0  0  0  0  0  0  0
   20.0853  -21.6734  -14.2932 O   0  0  0  0  0  0  0  0  0  0  0  0
   21.4571  -21.4745  -16.0667 O   0  0  0  0  0  0  0  0  0  0  0  0
  2  1  1  6
  2  3  1  0
  4  2  1  0
  4  5  2  0
  7  6  1  1
  7  9  1  0
  7  8  1  0
 10  9  1  1
 10 11  1  0
 10 12  1  0
 11  4  1  0
 12 14  1  0
 13 12  2  0
 14 15  1  0
 15 22  1  0
 16 17  1  0
 15 16  1  6
 17 18  2  0
 19 18  1  0
 20 19  1  0
 21 20  2  0
 21 17  1  0
 22 24  2  0
 22 23  1  0
M  END
$$$$
