ALH.pdb
     RDKit          3D

 24 24  0  0  1  0  0  0  0  0999 V2000
   26.6892  -16.4500  -16.0211 C   0  0  0  0  0  0  0  0  0  0  0  0
   27.6621  -17.6052  -15.8389 C   0  0  2  0  0  0  0  0  0  0  0  0
   28.1449  -18.0030  -17.1308 N   0  0  0  0  0  0  0  0  0  0  0  0
   26.9420  -18.7179  -15.1774 C   0  0  0  0  0  0  0  0  0  0  0  0
   26.2615  -19.5588  -15.8458 O   0  0  0  0  0  0  0  0  0  0  0  0
   25.3132  -20.7747   -9.7579 C   0  0  0  0  0  0  0  0  0  0  0  0
   26.0980  -21.2543  -10.9803 C   0  0  1  0  0  0  0  0  0  0  0  0
   25.1240  -21.8848  -11.9844 C   0  0  0  0  0  0  0  0  0  0  0  0
   26.7087  -20.0800  -11.6678 C   0  0  0  0  0  0  0  0  0  0  0  0
   26.3021  -20.0125  -13.1007 C   0  0  2  0  0  0  0  0  0  0  0  0
   26.9877  -18.8837  -13.7671 N   0  0  0  0  0  0  0  0  0  0  0  0
   24.8245  -19.7912  -13.1982 C   0  0  0  0  0  0  0  0  0  0  0  0
   24.2645  -18.7590  -12.7514 O   0  0  0  0  0  0  0  0  0  0  0  0
   23.9998  -20.7813  -13.8203 N   0  0  0  0  0  0  0  0  0  0  0  0
   22.5849  -20.4796  -14.0543 C   0  0  1  0  0  0  0  0  0  0  0  0
   22.3142  -20.3257  -15.5274 C   0  0  0  0  0  0  0  0  0  0  0  0
   20.9001  -19.9777  -15.7385 C   0  0  0  0  0  0  0  0  0  0  0  0
   19.9330  -19.7722  -14.7846 C   0  0  0  0  0  0  0  0  0  0  0  0
   18.7827  -19.4959  -15.4005 N   0  0  0  0  0  0  0  0  0  0  0  0
   19.0076  -19.5238  -16.7122 C   0  0  0  0  0  0  0  0  0  0  0  0
   20.2982  -19.8172  -16.9376 N   0  0  0  0  0  0  0  0  0  0  0  0
   21.7270  -21.4556  -13.3697 C   0  0  0  0  0  0  0  0  0  0  0  0
   20.5021  -21.1702  -12.8052 O   0  0  0  0  0  0  0  0  0  0  0  0
   22.1223  -22.6601  -13.2764 O   0  0  0  0  0  0  0  0  0  0  0  0
  2  1  1  6
  2  3  1  0
  4  2  1  0
  4  5  2  0
  7  6  1  1
  7  9  1  0
  7  8  1  0
 10  9  1  1
 10 11  1  0
 10 12  1  0
 11  4  1  0
 12 14  1  0
 13 12  2  0
 14 15  1  0
 15 22  1  0
 16 17  1  0
 15 16  1  6
 17 18  2  0
 19 18  1  0
 20 19  1  0
 21 20  2  0
 21 17  1  0
 22 24  2  0
 22 23  1  0
M  END
$$$$
