ALH.pdb
     RDKit          3D

 24 24  0  0  1  0  0  0  0  0999 V2000
   22.6193  -16.6298  -16.9033 C   0  0  0  0  0  0  0  0  0  0  0  0
   22.3943  -15.3040  -17.6146 C   0  0  2  0  0  0  0  0  0  0  0  0
   23.2110  -15.2753  -18.7947 N   0  0  0  0  0  0  0  0  0  0  0  0
   22.7666  -14.2111  -16.6867 C   0  0  0  0  0  0  0  0  0  0  0  0
   22.1728  -14.0542  -15.5732 O   0  0  0  0  0  0  0  0  0  0  0  0
   27.9164  -12.3618  -16.7713 C   0  0  0  0  0  0  0  0  0  0  0  0
   26.5540  -12.8383  -16.2645 C   0  0  1  0  0  0  0  0  0  0  0  0
   26.6581  -13.1480  -14.7652 C   0  0  0  0  0  0  0  0  0  0  0  0
   25.5625  -11.7320  -16.3972 C   0  0  0  0  0  0  0  0  0  0  0  0
   24.1790  -12.1979  -16.0944 C   0  0  2  0  0  0  0  0  0  0  0  0
   23.8047  -13.2969  -17.0112 N   0  0  0  0  0  0  0  0  0  0  0  0
   23.2114  -11.0718  -16.2876 C   0  0  0  0  0  0  0  0  0  0  0  0
   22.8856  -10.6478  -17.4246 O   0  0  0  0  0  0  0  0  0  0  0  0
   22.6235  -10.4398  -15.1464 N   0  0  0  0  0  0  0  0  0  0  0  0
   21.6473   -9.3668  -15.3552 C   0  0  1  0  0  0  0  0  0  0  0  0
   20.3222   -9.7313  -14.7399 C   0  0  0  0  0  0  0  0  0  0  0  0
   19.6756  -10.7827  -15.5408 C   0  0  0  0  0  0  0  0  0  0  0  0
   20.1309  -11.3534  -16.7045 C   0  0  0  0  0  0  0  0  0  0  0  0
   19.2346  -12.2520  -17.1145 N   0  0  0  0  0  0  0  0  0  0  0  0
   18.2334  -12.2561  -16.2372 C   0  0  0  0  0  0  0  0  0  0  0  0
   18.4863  -11.3630  -15.2673 N   0  0  0  0  0  0  0  0  0  0  0  0
   22.1946   -8.0760  -14.9178 C   0  0  0  0  0  0  0  0  0  0  0  0
   23.4246   -7.9026  -14.3197 O   0  0  0  0  0  0  0  0  0  0  0  0
   21.5005   -7.0254  -15.0914 O   0  0  0  0  0  0  0  0  0  0  0  0
  2  1  1  1
  2  3  1  0
  4  2  1  0
  4  5  2  0
  7  6  1  1
  7  9  1  0
  7  8  1  0
 10  9  1  6
 10 11  1  0
 10 12  1  0
 11  4  1  0
 12 14  1  0
 13 12  2  0
 14 15  1  0
 15 22  1  0
 16 17  1  0
 15 16  1  1
 17 18  2  0
 19 18  1  0
 20 19  1  0
 21 20  2  0
 21 17  1  0
 22 24  2  0
 22 23  1  0
M  END
$$$$
