ALH.pdb
     RDKit          3D

 24 24  0  0  1  0  0  0  0  0999 V2000
   23.9483   -5.5341  -19.5231 C   0  0  0  0  0  0  0  0  0  0  0  0
   24.4624   -6.8708  -19.0101 C   0  0  2  0  0  0  0  0  0  0  0  0
   24.8496   -7.6730  -20.1357 N   0  0  0  0  0  0  0  0  0  0  0  0
   23.3748   -7.5230  -18.2447 C   0  0  0  0  0  0  0  0  0  0  0  0
   22.3470   -7.9972  -18.8242 O   0  0  0  0  0  0  0  0  0  0  0  0
   24.4834  -10.9478  -14.3082 C   0  0  0  0  0  0  0  0  0  0  0  0
   23.6898  -10.3122  -15.4512 C   0  0  1  0  0  0  0  0  0  0  0  0
   22.6055  -11.2943  -15.9142 C   0  0  0  0  0  0  0  0  0  0  0  0
   22.9750   -9.1048  -14.9453 C   0  0  0  0  0  0  0  0  0  0  0  0
   22.3764   -8.3162  -16.0602 C   0  0  2  0  0  0  0  0  0  0  0  0
   23.4437   -7.6412  -16.8305 N   0  0  0  0  0  0  0  0  0  0  0  0
   21.4605   -7.2696  -15.5056 C   0  0  0  0  0  0  0  0  0  0  0  0
   21.8801   -6.1761  -15.0507 O   0  0  0  0  0  0  0  0  0  0  0  0
   20.0490   -7.5038  -15.4833 N   0  0  0  0  0  0  0  0  0  0  0  0
   19.1458   -6.3688  -15.2738 C   0  0  1  0  0  0  0  0  0  0  0  0
   19.5126   -5.2269  -16.1842 C   0  0  0  0  0  0  0  0  0  0  0  0
   18.6114   -4.0893  -15.9413 C   0  0  0  0  0  0  0  0  0  0  0  0
   17.2381   -4.0968  -15.9060 C   0  0  0  0  0  0  0  0  0  0  0  0
   16.8136   -2.8537  -15.6751 N   0  0  0  0  0  0  0  0  0  0  0  0
   17.8857   -2.0724  -15.5658 C   0  0  0  0  0  0  0  0  0  0  0  0
   18.9949   -2.8117  -15.7259 N   0  0  0  0  0  0  0  0  0  0  0  0
   17.7443   -6.7992  -15.3606 C   0  0  0  0  0  0  0  0  0  0  0  0
   16.7220   -6.3218  -14.5683 O   0  0  0  0  0  0  0  0  0  0  0  0
   17.4250   -7.6777  -16.2219 O   0  0  0  0  0  0  0  0  0  0  0  0
  2  1  1  6
  2  3  1  0
  4  2  1  0
  4  5  2  0
  7  6  1  1
  7  9  1  0
  7  8  1  0
 10  9  1  1
 10 11  1  0
 10 12  1  0
 11  4  1  0
 12 14  1  0
 13 12  2  0
 14 15  1  0
 15 22  1  0
 16 17  1  0
 15 16  1  6
 17 18  2  0
 19 18  1  0
 20 19  1  0
 21 20  2  0
 21 17  1  0
 22 24  2  0
 22 23  1  0
M  END
$$$$
