ALH.pdb
     RDKit          3D

 24 24  0  0  1  0  0  0  0  0999 V2000
   16.8330  -12.1403  -16.8250 C   0  0  0  0  0  0  0  0  0  0  0  0
   17.0982  -10.6520  -16.9953 C   0  0  2  0  0  0  0  0  0  0  0  0
   17.5103  -10.4143  -18.3496 N   0  0  0  0  0  0  0  0  0  0  0  0
   18.1613  -10.2585  -16.0419 C   0  0  0  0  0  0  0  0  0  0  0  0
   17.9967  -10.3592  -14.7851 O   0  0  0  0  0  0  0  0  0  0  0  0
   22.6200  -10.2212  -13.6129 C   0  0  0  0  0  0  0  0  0  0  0  0
   22.8710   -9.6955  -15.0274 C   0  0  1  0  0  0  0  0  0  0  0  0
   24.1278  -10.3681  -15.5955 C   0  0  0  0  0  0  0  0  0  0  0  0
   21.7411  -10.0999  -15.9130 C   0  0  0  0  0  0  0  0  0  0  0  0
   20.4839   -9.3808  -15.5587 C   0  0  2  0  0  0  0  0  0  0  0  0
   19.4069   -9.7529  -16.5020 N   0  0  0  0  0  0  0  0  0  0  0  0
   20.7026   -7.9024  -15.6513 C   0  0  0  0  0  0  0  0  0  0  0  0
   21.0032   -7.3295  -16.7283 O   0  0  0  0  0  0  0  0  0  0  0  0
   20.5691   -7.0923  -14.4794 N   0  0  0  0  0  0  0  0  0  0  0  0
   20.8186   -5.6518  -14.5818 C   0  0  1  0  0  0  0  0  0  0  0  0
   19.5819   -4.8743  -14.2166 C   0  0  0  0  0  0  0  0  0  0  0  0
   18.6471   -4.8662  -15.3529 C   0  0  0  0  0  0  0  0  0  0  0  0
   18.9507   -4.8059  -16.6914 C   0  0  0  0  0  0  0  0  0  0  0  0
   17.8111   -4.8024  -17.3843 N   0  0  0  0  0  0  0  0  0  0  0  0
   16.8061   -4.8588  -16.5132 C   0  0  0  0  0  0  0  0  0  0  0  0
   17.2991   -4.8985  -15.2651 N   0  0  0  0  0  0  0  0  0  0  0  0
   22.0238   -5.2799  -13.8293 C   0  0  0  0  0  0  0  0  0  0  0  0
   22.5268   -4.0004  -13.7274 O   0  0  0  0  0  0  0  0  0  0  0  0
   22.6698   -6.1885  -13.2187 O   0  0  0  0  0  0  0  0  0  0  0  0
  2  1  1  6
  2  3  1  0
  4  2  1  0
  4  5  2  0
  7  6  1  1
  7  9  1  0
  7  8  1  0
 10  9  1  6
 10 11  1  0
 10 12  1  0
 11  4  1  0
 12 14  1  0
 13 12  2  0
 14 15  1  0
 15 22  1  0
 16 17  1  0
 15 16  1  1
 17 18  2  0
 19 18  1  0
 20 19  1  0
 21 20  2  0
 21 17  1  0
 22 24  2  0
 22 23  1  0
M  END
$$$$
