ALH.pdb
     RDKit          3D

 24 24  0  0  1  0  0  0  0  0999 V2000
   12.0744  -13.3443    6.8484 C   0  0  0  0  0  0  0  0  0  0  0  0
   13.0765  -12.6040    5.9755 C   0  0  2  0  0  0  0  0  0  0  0  0
   12.4019  -12.1472    4.7937 N   0  0  0  0  0  0  0  0  0  0  0  0
   14.1718  -13.5398    5.6313 C   0  0  0  0  0  0  0  0  0  0  0  0
   13.9747  -14.5437    4.8759 O   0  0  0  0  0  0  0  0  0  0  0  0
   19.2901  -11.7253    4.9607 C   0  0  0  0  0  0  0  0  0  0  0  0
   18.0446  -12.5828    4.7293 C   0  0  1  0  0  0  0  0  0  0  0  0
   18.2447  -13.4241    3.4617 C   0  0  0  0  0  0  0  0  0  0  0  0
   17.8933  -13.5490    5.8555 C   0  0  0  0  0  0  0  0  0  0  0  0
   16.5891  -14.2683    5.7877 C   0  0  2  0  0  0  0  0  0  0  0  0
   15.4858  -13.3465    6.1359 N   0  0  0  0  0  0  0  0  0  0  0  0
   16.5840  -15.4015    6.7664 C   0  0  0  0  0  0  0  0  0  0  0  0
   16.3059  -15.2442    7.9815 O   0  0  0  0  0  0  0  0  0  0  0  0
   16.9057  -16.7228    6.3213 N   0  0  0  0  0  0  0  0  0  0  0  0
   16.8157  -17.8328    7.2740 C   0  0  1  0  0  0  0  0  0  0  0  0
   16.3492  -19.0861    6.5820 C   0  0  0  0  0  0  0  0  0  0  0  0
   14.8872  -19.0489    6.4202 C   0  0  0  0  0  0  0  0  0  0  0  0
   13.9460  -18.6959    7.3567 C   0  0  0  0  0  0  0  0  0  0  0  0
   12.7365  -18.8165    6.8078 N   0  0  0  0  0  0  0  0  0  0  0  0
   12.8993  -19.2352    5.5547 C   0  0  0  0  0  0  0  0  0  0  0  0
   14.2092  -19.3828    5.3001 N   0  0  0  0  0  0  0  0  0  0  0  0
   18.0704  -17.9747    8.0242 C   0  0  0  0  0  0  0  0  0  0  0  0
   18.1659  -18.4245    9.3238 O   0  0  0  0  0  0  0  0  0  0  0  0
   19.1636  -17.6646    7.4546 O   0  0  0  0  0  0  0  0  0  0  0  0
  2  1  1  1
  2  3  1  0
  4  2  1  0
  4  5  2  0
  7  6  1  1
  7  9  1  0
  7  8  1  0
 10  9  1  1
 10 11  1  0
 10 12  1  0
 11  4  1  0
 12 14  1  0
 13 12  2  0
 14 15  1  0
 15 22  1  0
 16 17  1  0
 15 16  1  6
 17 18  2  0
 19 18  1  0
 20 19  1  0
 21 20  2  0
 21 17  1  0
 22 24  2  0
 22 23  1  0
M  END
$$$$
