ALH.pdb
     RDKit          3D

 24 24  0  0  1  0  0  0  0  0999 V2000
   23.9554  -14.0962  -19.6882 C   0  0  0  0  0  0  0  0  0  0  0  0
   23.9998  -12.5768  -19.7501 C   0  0  2  0  0  0  0  0  0  0  0  0
   25.1385  -12.1853  -20.5315 N   0  0  0  0  0  0  0  0  0  0  0  0
   24.1046  -12.0593  -18.3662 C   0  0  0  0  0  0  0  0  0  0  0  0
   23.1863  -12.2618  -17.5102 O   0  0  0  0  0  0  0  0  0  0  0  0
   29.0228  -11.5158  -16.4293 C   0  0  0  0  0  0  0  0  0  0  0  0
   27.5271  -11.8366  -16.4198 C   0  0  1  0  0  0  0  0  0  0  0  0
   27.2204  -12.7580  -15.2317 C   0  0  0  0  0  0  0  0  0  0  0  0
   26.7538  -10.5822  -16.1895 C   0  0  0  0  0  0  0  0  0  0  0  0
   25.3252  -10.7395  -16.5867 C   0  0  2  0  0  0  0  0  0  0  0  0
   25.2402  -11.3158  -17.9465 N   0  0  0  0  0  0  0  0  0  0  0  0
   24.6523   -9.4020  -16.5980 C   0  0  0  0  0  0  0  0  0  0  0  0
   24.9705   -8.4917  -17.4035 O   0  0  0  0  0  0  0  0  0  0  0  0
   23.6039   -9.1291  -15.6633 N   0  0  0  0  0  0  0  0  0  0  0  0
   22.7667   -7.9431  -15.8641 C   0  0  1  0  0  0  0  0  0  0  0  0
   22.2642   -7.8852  -17.2823 C   0  0  0  0  0  0  0  0  0  0  0  0
   21.5288   -6.6290  -17.4975 C   0  0  0  0  0  0  0  0  0  0  0  0
   21.3384   -5.6024  -16.6047 C   0  0  0  0  0  0  0  0  0  0  0  0
   20.5999   -4.6607  -17.1935 N   0  0  0  0  0  0  0  0  0  0  0  0
   20.3253   -5.0735  -18.4289 C   0  0  0  0  0  0  0  0  0  0  0  0
   20.8858   -6.2763  -18.6324 N   0  0  0  0  0  0  0  0  0  0  0  0
   21.7197   -7.8680  -14.8368 C   0  0  0  0  0  0  0  0  0  0  0  0
   21.5497   -8.7784  -13.8156 O   0  0  0  0  0  0  0  0  0  0  0  0
   20.8954   -6.9010  -14.8712 O   0  0  0  0  0  0  0  0  0  0  0  0
  2  1  1  1
  2  3  1  0
  4  2  1  0
  4  5  2  0
  7  6  1  1
  7  9  1  0
  7  8  1  0
 10  9  1  6
 10 11  1  0
 10 12  1  0
 11  4  1  0
 12 14  1  0
 13 12  2  0
 14 15  1  0
 15 22  1  0
 16 17  1  0
 15 16  1  6
 17 18  2  0
 19 18  1  0
 20 19  1  0
 21 20  2  0
 21 17  1  0
 22 24  2  0
 22 23  1  0
M  END
$$$$
