ALH.pdb
     RDKit          3D

 24 24  0  0  1  0  0  0  0  0999 V2000
   29.2247  -19.5664  -13.3878 C   0  0  0  0  0  0  0  0  0  0  0  0
   27.7233  -19.3570  -13.2600 C   0  0  2  0  0  0  0  0  0  0  0  0
   27.4864  -18.0118  -12.8186 N   0  0  0  0  0  0  0  0  0  0  0  0
   27.2007  -20.3357  -12.2786 C   0  0  0  0  0  0  0  0  0  0  0  0
   27.1970  -21.5837  -12.5228 O   0  0  0  0  0  0  0  0  0  0  0  0
   27.5478  -18.9958   -7.0764 C   0  0  0  0  0  0  0  0  0  0  0  0
   27.5799  -19.7945   -8.3808 C   0  0  1  0  0  0  0  0  0  0  0  0
   28.4827  -21.0212   -8.1944 C   0  0  0  0  0  0  0  0  0  0  0  0
   26.2144  -20.3181   -8.6737 C   0  0  0  0  0  0  0  0  0  0  0  0
   26.1271  -20.8772  -10.0532 C   0  0  2  0  0  0  0  0  0  0  0  0
   26.6835  -19.9109  -11.0253 N   0  0  0  0  0  0  0  0  0  0  0  0
   24.6946  -21.1310  -10.4072 C   0  0  0  0  0  0  0  0  0  0  0  0
   23.7445  -20.8196   -9.6463 O   0  0  0  0  0  0  0  0  0  0  0  0
   24.3732  -21.7516  -11.6558 N   0  0  0  0  0  0  0  0  0  0  0  0
   23.0673  -21.4837  -12.2648 C   0  0  1  0  0  0  0  0  0  0  0  0
   22.8669  -20.0035  -12.4548 C   0  0  0  0  0  0  0  0  0  0  0  0
   21.5330  -19.7522  -13.0230 C   0  0  0  0  0  0  0  0  0  0  0  0
   20.5606  -20.6740  -13.3261 C   0  0  0  0  0  0  0  0  0  0  0  0
   19.5114  -20.0298  -13.8388 N   0  0  0  0  0  0  0  0  0  0  0  0
   19.8045  -18.7315  -13.8631 C   0  0  0  0  0  0  0  0  0  0  0  0
   21.0379  -18.5431  -13.3675 N   0  0  0  0  0  0  0  0  0  0  0  0
   22.8866  -22.2900  -13.4790 C   0  0  0  0  0  0  0  0  0  0  0  0
   21.6896  -22.4622  -14.1407 O   0  0  0  0  0  0  0  0  0  0  0  0
   23.8944  -22.8847  -13.9754 O   0  0  0  0  0  0  0  0  0  0  0  0
  2  1  1  1
  2  3  1  0
  4  2  1  0
  4  5  2  0
  7  6  1  1
  7  9  1  0
  7  8  1  0
 10  9  1  1
 10 11  1  0
 10 12  1  0
 11  4  1  0
 12 14  1  0
 13 12  2  0
 14 15  1  0
 15 22  1  0
 16 17  1  0
 15 16  1  6
 17 18  2  0
 19 18  1  0
 20 19  1  0
 21 20  2  0
 21 17  1  0
 22 24  2  0
 22 23  1  0
M  END
$$$$
