ALH.pdb
     RDKit          3D

 24 24  0  0  1  0  0  0  0  0999 V2000
   25.9608  -15.5221  -16.4606 C   0  0  0  0  0  0  0  0  0  0  0  0
   27.0073  -16.6110  -16.2773 C   0  0  2  0  0  0  0  0  0  0  0  0
   27.6642  -16.8286  -17.5349 N   0  0  0  0  0  0  0  0  0  0  0  0
   26.3211  -17.8410  -15.8189 C   0  0  0  0  0  0  0  0  0  0  0  0
   25.5278  -18.4814  -16.5790 O   0  0  0  0  0  0  0  0  0  0  0  0
   28.8933  -20.7663  -12.0396 C   0  0  0  0  0  0  0  0  0  0  0  0
   28.1135  -20.3245  -13.2793 C   0  0  1  0  0  0  0  0  0  0  0  0
   28.2103  -21.4209  -14.3485 C   0  0  0  0  0  0  0  0  0  0  0  0
   26.6676  -20.1993  -12.9354 C   0  0  0  0  0  0  0  0  0  0  0  0
   25.8875  -19.6051  -14.0586 C   0  0  2  0  0  0  0  0  0  0  0  0
   26.5270  -18.3492  -14.5082 N   0  0  0  0  0  0  0  0  0  0  0  0
   24.4981  -19.2891  -13.5990 C   0  0  0  0  0  0  0  0  0  0  0  0
   24.2115  -18.2261  -12.9935 O   0  0  0  0  0  0  0  0  0  0  0  0
   23.4408  -20.2203  -13.8487 N   0  0  0  0  0  0  0  0  0  0  0  0
   22.1114  -19.7076  -14.1919 C   0  0  1  0  0  0  0  0  0  0  0  0
   22.2119  -18.6546  -15.2635 C   0  0  0  0  0  0  0  0  0  0  0  0
   20.8671  -18.1663  -15.6071 C   0  0  0  0  0  0  0  0  0  0  0  0
   19.6625  -18.5958  -15.1052 C   0  0  0  0  0  0  0  0  0  0  0  0
   18.6869  -17.9043  -15.6957 N   0  0  0  0  0  0  0  0  0  0  0  0
   19.2516  -17.0558  -16.5519 C   0  0  0  0  0  0  0  0  0  0  0  0
   20.5855  -17.2021  -16.5110 N   0  0  0  0  0  0  0  0  0  0  0  0
   21.1934  -20.8123  -14.4989 C   0  0  0  0  0  0  0  0  0  0  0  0
   21.5350  -22.1478  -14.4885 O   0  0  0  0  0  0  0  0  0  0  0  0
   19.9887  -20.5421  -14.8011 O   0  0  0  0  0  0  0  0  0  0  0  0
  2  1  1  6
  2  3  1  0
  4  2  1  0
  4  5  2  0
  7  6  1  1
  7  9  1  0
  7  8  1  0
 10  9  1  1
 10 11  1  0
 10 12  1  0
 11  4  1  0
 12 14  1  0
 13 12  2  0
 14 15  1  0
 15 22  1  0
 16 17  1  0
 15 16  1  6
 17 18  2  0
 19 18  1  0
 20 19  1  0
 21 20  2  0
 21 17  1  0
 22 24  2  0
 22 23  1  0
M  END
$$$$
