ALH.pdb
     RDKit          3D

 24 24  0  0  1  0  0  0  0  0999 V2000
   13.6529  -21.4580    2.7321 C   0  0  0  0  0  0  0  0  0  0  0  0
   14.4084  -20.6727    1.6706 C   0  0  2  0  0  0  0  0  0  0  0  0
   14.9144  -21.5956    0.6945 N   0  0  0  0  0  0  0  0  0  0  0  0
   15.5147  -19.9437    2.3329 C   0  0  0  0  0  0  0  0  0  0  0  0
   16.5015  -20.5591    2.8472 O   0  0  0  0  0  0  0  0  0  0  0  0
   19.1762  -16.2604    2.9633 C   0  0  0  0  0  0  0  0  0  0  0  0
   17.8020  -15.6596    3.2645 C   0  0  1  0  0  0  0  0  0  0  0  0
   17.7448  -14.2336    2.7007 C   0  0  0  0  0  0  0  0  0  0  0  0
   16.7533  -16.4385    2.5447 C   0  0  0  0  0  0  0  0  0  0  0  0
   16.5706  -17.7923    3.1422 C   0  0  2  0  0  0  0  0  0  0  0  0
   15.5105  -18.5253    2.4161 N   0  0  0  0  0  0  0  0  0  0  0  0
   16.1575  -17.6620    4.5754 C   0  0  0  0  0  0  0  0  0  0  0  0
   14.9711  -17.4318    4.9190 O   0  0  0  0  0  0  0  0  0  0  0  0
   17.1364  -17.8012    5.6098 N   0  0  0  0  0  0  0  0  0  0  0  0
   16.7208  -17.6357    7.0054 C   0  0  1  0  0  0  0  0  0  0  0  0
   17.3451  -18.6972    7.8718 C   0  0  0  0  0  0  0  0  0  0  0  0
   16.6038  -19.9594    7.7220 C   0  0  0  0  0  0  0  0  0  0  0  0
   15.2577  -20.1703    7.8980 C   0  0  0  0  0  0  0  0  0  0  0  0
   14.9995  -21.4609    7.6826 N   0  0  0  0  0  0  0  0  0  0  0  0
   16.1487  -22.0593    7.3771 C   0  0  0  0  0  0  0  0  0  0  0  0
   17.1414  -21.1556    7.3965 N   0  0  0  0  0  0  0  0  0  0  0  0
   16.9552  -16.2575    7.4558 C   0  0  0  0  0  0  0  0  0  0  0  0
   16.1624  -15.5756    8.3541 O   0  0  0  0  0  0  0  0  0  0  0  0
   17.9569  -15.6244    6.9959 O   0  0  0  0  0  0  0  0  0  0  0  0
  2  1  1  1
  2  3  1  0
  4  2  1  0
  4  5  2  0
  7  6  1  6
  7  9  1  0
  7  8  1  0
 10  9  1  6
 10 11  1  0
 10 12  1  0
 11  4  1  0
 12 14  1  0
 13 12  2  0
 14 15  1  0
 15 22  1  0
 16 17  1  0
 15 16  1  1
 17 18  2  0
 19 18  1  0
 20 19  1  0
 21 20  2  0
 21 17  1  0
 22 24  2  0
 22 23  1  0
M  END
$$$$
