NYW.pdb
     RDKit          3D

 35 37  0  0  1  0  0  0  0  0999 V2000
   45.6442  -14.3728  -11.9569 N   0  0  0  0  0  0  0  0  0  0  0  0
   44.2962  -14.5529  -11.5431 C   0  0  0  0  0  0  0  0  0  0  0  0
   43.5066  -15.1418  -12.3235 O   0  0  0  0  0  0  0  0  0  0  0  0
   43.8191  -14.0719  -10.2457 C   0  0  0  0  0  0  0  0  0  0  0  0
   44.9177  -13.3211   -9.4792 C   0  0  2  0  0  0  0  0  0  0  0  0
   45.6523  -14.3474   -8.7628 N   0  0  0  0  0  0  0  0  0  0  0  0
   44.1985  -12.4214   -8.5378 C   0  0  0  0  0  0  0  0  0  0  0  0
   43.6066  -12.9710   -7.5638 O   0  0  0  0  0  0  0  0  0  0  0  0
   48.0160  -11.3496   -3.2195 O   0  0  0  0  0  0  0  0  0  0  0  0
   47.1334  -10.8122   -4.1801 C   0  0  0  0  0  0  0  0  0  0  0  0
   45.9003  -10.3746   -3.8092 C   0  0  0  0  0  0  0  0  0  0  0  0
   45.0268   -9.8411   -4.7689 C   0  0  0  0  0  0  0  0  0  0  0  0
   45.4013   -9.7531   -6.0894 C   0  0  0  0  0  0  0  0  0  0  0  0
   44.4978   -9.1996   -7.0810 C   0  0  0  0  0  0  0  0  0  0  0  0
   43.5029  -10.1937   -7.6547 C   0  0  2  0  0  0  0  0  0  0  0  0
   44.1530  -11.0196   -8.6845 N   0  0  0  0  0  0  0  0  0  0  0  0
   42.3371   -9.4743   -8.2289 C   0  0  0  0  0  0  0  0  0  0  0  0
   42.5733   -8.6171   -9.1495 O   0  0  0  0  0  0  0  0  0  0  0  0
   46.6500  -10.2012   -6.4383 C   0  0  0  0  0  0  0  0  0  0  0  0
   47.5269  -10.7331   -5.4950 C   0  0  0  0  0  0  0  0  0  0  0  0
   41.0005   -9.6461   -7.8565 N   0  0  0  0  0  0  0  0  0  0  0  0
   39.9417   -8.6885   -8.2594 C   0  0  1  0  0  0  0  0  0  0  0  0
   38.6167   -9.1847   -7.8247 C   0  0  0  0  0  0  0  0  0  0  0  0
   37.6260   -8.1192   -7.6737 C   0  0  0  0  0  0  0  0  0  0  0  0
   37.2445   -7.1785   -8.6501 C   0  0  0  0  0  0  0  0  0  0  0  0
   36.3457   -6.3261   -8.1504 N   0  0  0  0  0  0  0  0  0  0  0  0
   36.1185   -6.6686   -6.8822 C   0  0  0  0  0  0  0  0  0  0  0  0
   35.2618   -6.1191   -5.9391 C   0  0  0  0  0  0  0  0  0  0  0  0
   35.1592   -6.6581   -4.6569 C   0  0  0  0  0  0  0  0  0  0  0  0
   35.9325   -7.7556   -4.3450 C   0  0  0  0  0  0  0  0  0  0  0  0
   36.7893   -8.3166   -5.2630 C   0  0  0  0  0  0  0  0  0  0  0  0
   36.8856   -7.7685   -6.5456 C   0  0  0  0  0  0  0  0  0  0  0  0
   40.2971   -7.3913   -7.7066 C   0  0  0  0  0  0  0  0  0  0  0  0
   40.7319   -7.2410   -6.5198 O   0  0  0  0  0  0  0  0  0  0  0  0
   40.1915   -6.2179   -8.4479 O   0  0  0  0  0  0  0  0  0  0  0  0
  2  1  1  0
  3  2  2  0
  4  2  1  0
  5  6  1  1
  5  4  1  0
  7  5  1  0
  8  7  2  0
  9 10  1  0
 10 20  2  0
 10 11  1  0
 11 12  2  0
 12 13  1  0
 13 14  1  0
 15 14  1  6
 15 17  1  0
 15 16  1  0
 16  7  1  0
 17 21  1  0
 18 17  2  0
 19 13  2  0
 20 19  1  0
 22 21  1  0
 22 23  1  1
 22 33  1  0
 24 32  1  0
 24 23  1  0
 25 24  2  0
 26 25  1  0
 26 27  1  0
 27 32  2  0
 28 27  1  0
 28 29  2  0
 29 30  1  0
 30 31  2  0
 32 31  1  0
 33 34  2  0
 33 35  1  0
M  END
$$$$
