NYW.pdb
     RDKit          3D

 35 37  0  0  1  0  0  0  0  0999 V2000
   24.3458  -19.3318  -18.5434 N   0  0  0  0  0  0  0  0  0  0  0  0
   24.8165  -18.2512  -17.7488 C   0  0  0  0  0  0  0  0  0  0  0  0
   25.8363  -17.6268  -18.1354 O   0  0  0  0  0  0  0  0  0  0  0  0
   24.1459  -17.8595  -16.5082 C   0  0  0  0  0  0  0  0  0  0  0  0
   22.9997  -18.8184  -16.1548 C   0  0  2  0  0  0  0  0  0  0  0  0
   21.7877  -18.1282  -16.5558 N   0  0  0  0  0  0  0  0  0  0  0  0
   23.0604  -18.9795  -14.6772 C   0  0  0  0  0  0  0  0  0  0  0  0
   22.8565  -17.9422  -13.9818 O   0  0  0  0  0  0  0  0  0  0  0  0
   17.0426  -19.4106  -11.1303 O   0  0  0  0  0  0  0  0  0  0  0  0
   18.3409  -19.8990  -11.3881 C   0  0  0  0  0  0  0  0  0  0  0  0
   19.2911  -19.8665  -10.4157 C   0  0  0  0  0  0  0  0  0  0  0  0
   20.5805  -20.3537  -10.6778 C   0  0  0  0  0  0  0  0  0  0  0  0
   20.9009  -20.8676  -11.9127 C   0  0  0  0  0  0  0  0  0  0  0  0
   22.2343  -21.3728  -12.1823 C   0  0  0  0  0  0  0  0  0  0  0  0
   23.2460  -20.3096  -12.5742 C   0  0  2  0  0  0  0  0  0  0  0  0
   23.3282  -20.2086  -14.0400 N   0  0  0  0  0  0  0  0  0  0  0  0
   24.5774  -20.6378  -12.0033 C   0  0  0  0  0  0  0  0  0  0  0  0
   25.2040  -21.6312  -12.5116 O   0  0  0  0  0  0  0  0  0  0  0  0
   19.9252  -20.8893  -12.8766 C   0  0  0  0  0  0  0  0  0  0  0  0
   18.6409  -20.4086  -12.6292 C   0  0  0  0  0  0  0  0  0  0  0  0
   25.2129  -19.9608  -10.9580 N   0  0  0  0  0  0  0  0  0  0  0  0
   26.4823  -20.4454  -10.3629 C   0  0  1  0  0  0  0  0  0  0  0  0
   27.0228  -19.4336   -9.4274 C   0  0  0  0  0  0  0  0  0  0  0  0
   28.2212  -19.8868   -8.7215 C   0  0  0  0  0  0  0  0  0  0  0  0
   29.3595  -20.4878   -9.2933 C   0  0  0  0  0  0  0  0  0  0  0  0
   30.2419  -20.8120   -8.3444 N   0  0  0  0  0  0  0  0  0  0  0  0
   29.7304  -20.4472   -7.1687 C   0  0  0  0  0  0  0  0  0  0  0  0
   30.2553  -20.5432   -5.8878 C   0  0  0  0  0  0  0  0  0  0  0  0
   29.5507  -20.0680   -4.7819 C   0  0  0  0  0  0  0  0  0  0  0  0
   28.3135  -19.4974   -4.9906 C   0  0  0  0  0  0  0  0  0  0  0  0
   27.7728  -19.3923   -6.2507 C   0  0  0  0  0  0  0  0  0  0  0  0
   28.4865  -19.8724   -7.3529 C   0  0  0  0  0  0  0  0  0  0  0  0
   26.2081  -21.7333   -9.7461 C   0  0  0  0  0  0  0  0  0  0  0  0
   26.9328  -22.7616   -9.9407 O   0  0  0  0  0  0  0  0  0  0  0  0
   25.1294  -21.9273   -8.8880 O   0  0  0  0  0  0  0  0  0  0  0  0
  2  1  1  0
  3  2  2  0
  4  2  1  0
  5  6  1  1
  5  4  1  0
  7  5  1  0
  8  7  2  0
  9 10  1  0
 10 20  2  0
 10 11  1  0
 11 12  2  0
 12 13  1  0
 13 14  1  0
 15 14  1  6
 15 17  1  0
 15 16  1  0
 16  7  1  0
 17 21  1  0
 18 17  2  0
 19 13  2  0
 20 19  1  0
 22 21  1  0
 22 23  1  1
 22 33  1  0
 24 32  1  0
 24 23  1  0
 25 24  2  0
 26 25  1  0
 26 27  1  0
 27 32  2  0
 28 27  1  0
 28 29  2  0
 29 30  1  0
 30 31  2  0
 32 31  1  0
 33 34  2  0
 33 35  1  0
M  END
$$$$
