NYW.pdb
     RDKit          3D

 35 37  0  0  1  0  0  0  0  0999 V2000
   28.1957  -20.7635  -20.4656 N   0  0  0  0  0  0  0  0  0  0  0  0
   28.2372  -20.0616  -19.2301 C   0  0  0  0  0  0  0  0  0  0  0  0
   28.9958  -19.0642  -19.1362 O   0  0  0  0  0  0  0  0  0  0  0  0
   27.4257  -20.4736  -18.0839 C   0  0  0  0  0  0  0  0  0  0  0  0
   28.2082  -21.3929  -17.1348 C   0  0  2  0  0  0  0  0  0  0  0  0
   28.2717  -22.6749  -17.8118 N   0  0  0  0  0  0  0  0  0  0  0  0
   27.3838  -21.4797  -15.8995 C   0  0  0  0  0  0  0  0  0  0  0  0
   26.3266  -22.1717  -15.9673 O   0  0  0  0  0  0  0  0  0  0  0  0
   24.5830  -20.8274   -7.4969 O   0  0  0  0  0  0  0  0  0  0  0  0
   25.3440  -20.7733   -8.6837 C   0  0  0  0  0  0  0  0  0  0  0  0
   25.9372  -19.6105   -9.0652 C   0  0  0  0  0  0  0  0  0  0  0  0
   26.6929  -19.5627  -10.2464 C   0  0  0  0  0  0  0  0  0  0  0  0
   26.8442  -20.6825  -11.0307 C   0  0  0  0  0  0  0  0  0  0  0  0
   27.6274  -20.6324  -12.2513 C   0  0  0  0  0  0  0  0  0  0  0  0
   26.8557  -20.9811  -13.5124 C   0  0  2  0  0  0  0  0  0  0  0  0
   27.7258  -20.8394  -14.6906 N   0  0  0  0  0  0  0  0  0  0  0  0
   25.6649  -20.1026  -13.6405 C   0  0  0  0  0  0  0  0  0  0  0  0
   25.8636  -18.8386  -13.6106 O   0  0  0  0  0  0  0  0  0  0  0  0
   26.2361  -21.8430  -10.6244 C   0  0  0  0  0  0  0  0  0  0  0  0
   25.4831  -21.9038   -9.4535 C   0  0  0  0  0  0  0  0  0  0  0  0
   24.3417  -20.5284  -13.7910 N   0  0  0  0  0  0  0  0  0  0  0  0
   23.1912  -19.6729  -13.4107 C   0  0  1  0  0  0  0  0  0  0  0  0
   22.8043  -18.8081  -14.5479 C   0  0  0  0  0  0  0  0  0  0  0  0
   22.8715  -19.4930  -15.8387 C   0  0  0  0  0  0  0  0  0  0  0  0
   22.0876  -20.5870  -16.2540 C   0  0  0  0  0  0  0  0  0  0  0  0
   22.4502  -20.9826  -17.4772 N   0  0  0  0  0  0  0  0  0  0  0  0
   23.4421  -20.1912  -17.8856 C   0  0  0  0  0  0  0  0  0  0  0  0
   24.1471  -20.1720  -19.0806 C   0  0  0  0  0  0  0  0  0  0  0  0
   25.1453  -19.2264  -19.3142 C   0  0  0  0  0  0  0  0  0  0  0  0
   25.4179  -18.3054  -18.3257 C   0  0  0  0  0  0  0  0  0  0  0  0
   24.7330  -18.3057  -17.1330 C   0  0  0  0  0  0  0  0  0  0  0  0
   23.7346  -19.2583  -16.9080 C   0  0  0  0  0  0  0  0  0  0  0  0
   22.1296  -20.5534  -12.9503 C   0  0  0  0  0  0  0  0  0  0  0  0
   22.2261  -21.8225  -12.9708 O   0  0  0  0  0  0  0  0  0  0  0  0
   20.9292  -20.0624  -12.4448 O   0  0  0  0  0  0  0  0  0  0  0  0
  2  1  1  0
  3  2  2  0
  4  2  1  0
  5  6  1  6
  5  4  1  0
  7  5  1  0
  8  7  2  0
  9 10  1  0
 10 20  2  0
 10 11  1  0
 11 12  2  0
 12 13  1  0
 13 14  1  0
 15 14  1  1
 15 17  1  0
 15 16  1  0
 16  7  1  0
 17 21  1  0
 18 17  2  0
 19 13  2  0
 20 19  1  0
 22 21  1  0
 22 23  1  6
 22 33  1  0
 24 32  1  0
 24 23  1  0
 25 24  2  0
 26 25  1  0
 26 27  1  0
 27 32  2  0
 28 27  1  0
 28 29  2  0
 29 30  1  0
 30 31  2  0
 32 31  1  0
 33 34  2  0
 33 35  1  0
M  END
$$$$
