NYW.pdb
     RDKit          3D

 35 37  0  0  1  0  0  0  0  0999 V2000
   29.7026  -17.8262  -17.9457 N   0  0  0  0  0  0  0  0  0  0  0  0
   29.0527  -18.8856  -17.2559 C   0  0  0  0  0  0  0  0  0  0  0  0
   29.4037  -20.0655  -17.5087 O   0  0  0  0  0  0  0  0  0  0  0  0
   27.9987  -18.6309  -16.2728 C   0  0  0  0  0  0  0  0  0  0  0  0
   26.8223  -19.6044  -16.4360 C   0  0  2  0  0  0  0  0  0  0  0  0
   26.1146  -19.1524  -17.6195 N   0  0  0  0  0  0  0  0  0  0  0  0
   25.9911  -19.4281  -15.2149 C   0  0  0  0  0  0  0  0  0  0  0  0
   25.7597  -18.2389  -14.8496 O   0  0  0  0  0  0  0  0  0  0  0  0
   19.5854  -19.7246   -9.3370 O   0  0  0  0  0  0  0  0  0  0  0  0
   20.5077  -20.0183  -10.3635 C   0  0  0  0  0  0  0  0  0  0  0  0
   20.7520  -19.1101  -11.3459 C   0  0  0  0  0  0  0  0  0  0  0  0
   21.6703  -19.4076  -12.3642 C   0  0  0  0  0  0  0  0  0  0  0  0
   22.3324  -20.6130  -12.3844 C   0  0  0  0  0  0  0  0  0  0  0  0
   23.2832  -20.9190  -13.4371 C   0  0  0  0  0  0  0  0  0  0  0  0
   24.6343  -20.2416  -13.2852 C   0  0  2  0  0  0  0  0  0  0  0  0
   25.4655  -20.5045  -14.4707 N   0  0  0  0  0  0  0  0  0  0  0  0
   25.3144  -20.7302  -12.0584 C   0  0  0  0  0  0  0  0  0  0  0  0
   25.6832  -21.9556  -12.0416 O   0  0  0  0  0  0  0  0  0  0  0  0
   22.0687  -21.5120  -11.3825 C   0  0  0  0  0  0  0  0  0  0  0  0
   21.1592  -21.2289  -10.3655 C   0  0  0  0  0  0  0  0  0  0  0  0
   25.5904  -19.9740  -10.9152 N   0  0  0  0  0  0  0  0  0  0  0  0
   26.2347  -20.5651   -9.7169 C   0  0  1  0  0  0  0  0  0  0  0  0
   27.0769  -19.5521   -9.0420 C   0  0  0  0  0  0  0  0  0  0  0  0
   27.7881  -20.0803   -7.8780 C   0  0  0  0  0  0  0  0  0  0  0  0
   28.2098  -21.4095   -7.6797 C   0  0  0  0  0  0  0  0  0  0  0  0
   28.7899  -21.5410   -6.4837 N   0  0  0  0  0  0  0  0  0  0  0  0
   28.7683  -20.3499   -5.8856 C   0  0  0  0  0  0  0  0  0  0  0  0
   29.2589  -19.9518   -4.6502 C   0  0  0  0  0  0  0  0  0  0  0  0
   29.1516  -18.6282   -4.2238 C   0  0  0  0  0  0  0  0  0  0  0  0
   28.5435  -17.7184   -5.0618 C   0  0  0  0  0  0  0  0  0  0  0  0
   28.0490  -18.0901   -6.2901 C   0  0  0  0  0  0  0  0  0  0  0  0
   28.1606  -19.4195   -6.7082 C   0  0  0  0  0  0  0  0  0  0  0  0
   25.1771  -21.1072   -8.8790 C   0  0  0  0  0  0  0  0  0  0  0  0
   24.0266  -20.5709   -8.7841 O   0  0  0  0  0  0  0  0  0  0  0  0
   25.3518  -22.2633   -8.1238 O   0  0  0  0  0  0  0  0  0  0  0  0
  2  1  1  0
  3  2  2  0
  4  2  1  0
  5  6  1  6
  5  4  1  0
  7  5  1  0
  8  7  2  0
  9 10  1  0
 10 20  2  0
 10 11  1  0
 11 12  2  0
 12 13  1  0
 13 14  1  0
 15 14  1  6
 15 17  1  0
 15 16  1  0
 16  7  1  0
 17 21  1  0
 18 17  2  0
 19 13  2  0
 20 19  1  0
 22 21  1  0
 22 23  1  1
 22 33  1  0
 24 32  1  0
 24 23  1  0
 25 24  2  0
 26 25  1  0
 26 27  1  0
 27 32  2  0
 28 27  1  0
 28 29  2  0
 29 30  1  0
 30 31  2  0
 32 31  1  0
 33 34  2  0
 33 35  1  0
M  END
$$$$
