NYW.pdb
     RDKit          3D

 35 37  0  0  1  0  0  0  0  0999 V2000
   21.0920  -31.0257   -0.3247 N   0  0  0  0  0  0  0  0  0  0  0  0
   21.4128  -31.3077   -1.6806 C   0  0  0  0  0  0  0  0  0  0  0  0
   22.5184  -31.8499   -1.9313 O   0  0  0  0  0  0  0  0  0  0  0  0
   20.4935  -30.9827   -2.7720 C   0  0  0  0  0  0  0  0  0  0  0  0
   19.1353  -30.4968   -2.2452 C   0  0  2  0  0  0  0  0  0  0  0  0
   18.4455  -31.6957   -1.8061 N   0  0  0  0  0  0  0  0  0  0  0  0
   18.4528  -29.8849   -3.4169 C   0  0  0  0  0  0  0  0  0  0  0  0
   18.1327  -30.6641   -4.3611 O   0  0  0  0  0  0  0  0  0  0  0  0
   15.1720  -24.2367    0.1176 O   0  0  0  0  0  0  0  0  0  0  0  0
   15.3497  -25.1362   -0.9548 C   0  0  0  0  0  0  0  0  0  0  0  0
   15.3306  -24.6855   -2.2378 C   0  0  0  0  0  0  0  0  0  0  0  0
   15.5078  -25.5847   -3.3002 C   0  0  0  0  0  0  0  0  0  0  0  0
   15.7020  -26.9254   -3.0623 C   0  0  0  0  0  0  0  0  0  0  0  0
   15.8869  -27.8542   -4.1618 C   0  0  0  0  0  0  0  0  0  0  0  0
   17.3262  -28.0121   -4.6209 C   0  0  2  0  0  0  0  0  0  0  0  0
   18.1567  -28.5095   -3.5127 N   0  0  0  0  0  0  0  0  0  0  0  0
   17.8488  -26.7126   -5.1156 C   0  0  0  0  0  0  0  0  0  0  0  0
   18.4406  -25.9583   -4.2678 O   0  0  0  0  0  0  0  0  0  0  0  0
   15.7171  -27.3550   -1.7597 C   0  0  0  0  0  0  0  0  0  0  0  0
   15.5424  -26.4725   -0.6957 C   0  0  0  0  0  0  0  0  0  0  0  0
   17.7542  -26.2339   -6.4259 N   0  0  0  0  0  0  0  0  0  0  0  0
   18.1543  -24.8528   -6.7902 C   0  0  1  0  0  0  0  0  0  0  0  0
   19.1969  -24.8870   -7.8404 C   0  0  0  0  0  0  0  0  0  0  0  0
   18.6921  -25.3417   -9.1358 C   0  0  0  0  0  0  0  0  0  0  0  0
   18.2345  -24.5318  -10.1934 C   0  0  0  0  0  0  0  0  0  0  0  0
   17.8065  -25.2877  -11.2080 N   0  0  0  0  0  0  0  0  0  0  0  0
   17.9651  -26.5651  -10.8613 C   0  0  0  0  0  0  0  0  0  0  0  0
   17.6965  -27.7307  -11.5647 C   0  0  0  0  0  0  0  0  0  0  0  0
   17.9666  -28.9836  -11.0148 C   0  0  0  0  0  0  0  0  0  0  0  0
   18.5095  -29.0391   -9.7491 C   0  0  0  0  0  0  0  0  0  0  0  0
   18.7832  -27.8973   -9.0328 C   0  0  0  0  0  0  0  0  0  0  0  0
   18.5081  -26.6460   -9.5925 C   0  0  0  0  0  0  0  0  0  0  0  0
   16.9478  -24.1402   -7.1787 C   0  0  0  0  0  0  0  0  0  0  0  0
   15.8273  -24.7194   -7.3500 O   0  0  0  0  0  0  0  0  0  0  0  0
   16.9362  -22.7634   -7.3838 O   0  0  0  0  0  0  0  0  0  0  0  0
  2  1  1  0
  3  2  2  0
  4  2  1  0
  5  6  1  6
  5  4  1  0
  7  5  1  0
  8  7  2  0
  9 10  1  0
 10 20  2  0
 10 11  1  0
 11 12  2  0
 12 13  1  0
 13 14  1  0
 15 14  1  1
 15 17  1  0
 15 16  1  0
 16  7  1  0
 17 21  1  0
 18 17  2  0
 19 13  2  0
 20 19  1  0
 22 21  1  0
 22 23  1  6
 22 33  1  0
 24 32  1  0
 24 23  1  0
 25 24  2  0
 26 25  1  0
 26 27  1  0
 27 32  2  0
 28 27  1  0
 28 29  2  0
 29 30  1  0
 30 31  2  0
 32 31  1  0
 33 34  2  0
 33 35  1  0
M  END
$$$$
