NYW.pdb
     RDKit          3D

 35 37  0  0  1  0  0  0  0  0999 V2000
   30.2450  -24.8307  -17.5606 N   0  0  0  0  0  0  0  0  0  0  0  0
   30.0199  -23.4944  -17.9900 C   0  0  0  0  0  0  0  0  0  0  0  0
   30.0481  -23.2516  -19.2227 O   0  0  0  0  0  0  0  0  0  0  0  0
   29.7608  -22.4138  -17.0375 C   0  0  0  0  0  0  0  0  0  0  0  0
   28.2564  -22.1642  -16.8571 C   0  0  2  0  0  0  0  0  0  0  0  0
   27.8590  -21.3785  -18.0107 N   0  0  0  0  0  0  0  0  0  0  0  0
   28.1345  -21.3735  -15.6028 C   0  0  0  0  0  0  0  0  0  0  0  0
   29.2097  -20.9413  -15.0947 O   0  0  0  0  0  0  0  0  0  0  0  0
   28.1447  -15.1720  -17.5461 O   0  0  0  0  0  0  0  0  0  0  0  0
   27.5965  -16.1378  -16.6760 C   0  0  0  0  0  0  0  0  0  0  0  0
   26.7064  -17.0542  -17.1426 C   0  0  0  0  0  0  0  0  0  0  0  0
   26.1645  -18.0124  -16.2726 C   0  0  0  0  0  0  0  0  0  0  0  0
   26.5223  -18.0395  -14.9449 C   0  0  0  0  0  0  0  0  0  0  0  0
   25.9626  -19.0321  -14.0463 C   0  0  0  0  0  0  0  0  0  0  0  0
   26.8613  -20.2290  -13.7876 C   0  0  2  0  0  0  0  0  0  0  0  0
   26.9020  -21.0947  -14.9768 N   0  0  0  0  0  0  0  0  0  0  0  0
   26.3698  -20.9904  -12.6106 C   0  0  0  0  0  0  0  0  0  0  0  0
   25.3818  -21.7824  -12.7964 O   0  0  0  0  0  0  0  0  0  0  0  0
   27.4217  -17.1048  -14.4987 C   0  0  0  0  0  0  0  0  0  0  0  0
   27.9672  -16.1480  -15.3522 C   0  0  0  0  0  0  0  0  0  0  0  0
   26.8871  -20.9226  -11.3134 N   0  0  0  0  0  0  0  0  0  0  0  0
   26.2879  -21.6783  -10.1865 C   0  0  1  0  0  0  0  0  0  0  0  0
   27.2585  -21.7848   -9.0740 C   0  0  0  0  0  0  0  0  0  0  0  0
   27.1921  -20.6574   -8.1444 C   0  0  0  0  0  0  0  0  0  0  0  0
   26.3496  -19.5329   -8.2423 C   0  0  0  0  0  0  0  0  0  0  0  0
   26.5897  -18.6818   -7.2412 N   0  0  0  0  0  0  0  0  0  0  0  0
   27.5573  -19.2018   -6.4859 C   0  0  0  0  0  0  0  0  0  0  0  0
   28.1500  -18.7253   -5.3253 C   0  0  0  0  0  0  0  0  0  0  0  0
   29.1432  -19.4537   -4.6710 C   0  0  0  0  0  0  0  0  0  0  0  0
   29.5255  -20.6651   -5.2059 C   0  0  0  0  0  0  0  0  0  0  0  0
   28.9528  -21.1570   -6.3555 C   0  0  0  0  0  0  0  0  0  0  0  0
   27.9586  -20.4189   -7.0046 C   0  0  0  0  0  0  0  0  0  0  0  0
   25.0479  -21.0095   -9.8265 C   0  0  0  0  0  0  0  0  0  0  0  0
   24.8583  -19.7631  -10.0021 O   0  0  0  0  0  0  0  0  0  0  0  0
   23.9733  -21.6954   -9.2677 O   0  0  0  0  0  0  0  0  0  0  0  0
  2  1  1  0
  3  2  2  0
  4  2  1  0
  5  6  1  6
  5  4  1  0
  7  5  1  0
  8  7  2  0
  9 10  1  0
 10 20  2  0
 10 11  1  0
 11 12  2  0
 12 13  1  0
 13 14  1  0
 15 14  1  6
 15 17  1  0
 15 16  1  0
 16  7  1  0
 17 21  1  0
 18 17  2  0
 19 13  2  0
 20 19  1  0
 22 21  1  0
 22 23  1  1
 22 33  1  0
 24 32  1  0
 24 23  1  0
 25 24  2  0
 26 25  1  0
 26 27  1  0
 27 32  2  0
 28 27  1  0
 28 29  2  0
 29 30  1  0
 30 31  2  0
 32 31  1  0
 33 34  2  0
 33 35  1  0
M  END
$$$$
