NYW.pdb
     RDKit          3D

 35 37  0  0  1  0  0  0  0  0999 V2000
   28.0650  -19.8387  -19.0183 N   0  0  0  0  0  0  0  0  0  0  0  0
   26.7230  -20.3029  -19.0841 C   0  0  0  0  0  0  0  0  0  0  0  0
   26.0656  -20.0795  -20.1315 O   0  0  0  0  0  0  0  0  0  0  0  0
   26.1032  -21.0240  -17.9715 C   0  0  0  0  0  0  0  0  0  0  0  0
   27.0451  -21.1216  -16.7626 C   0  0  2  0  0  0  0  0  0  0  0  0
   27.8713  -22.2875  -17.0160 N   0  0  0  0  0  0  0  0  0  0  0  0
   26.1590  -21.3383  -15.5875 C   0  0  0  0  0  0  0  0  0  0  0  0
   25.7635  -22.5226  -15.3824 O   0  0  0  0  0  0  0  0  0  0  0  0
   30.6447  -21.6311  -10.5920 O   0  0  0  0  0  0  0  0  0  0  0  0
   29.3737  -21.1918  -11.0187 C   0  0  0  0  0  0  0  0  0  0  0  0
   28.2568  -21.5563  -10.3336 C   0  0  0  0  0  0  0  0  0  0  0  0
   26.9954  -21.1163  -10.7626 C   0  0  0  0  0  0  0  0  0  0  0  0
   26.8700  -20.3159  -11.8741 C   0  0  0  0  0  0  0  0  0  0  0  0
   25.5651  -19.8600  -12.3160 C   0  0  0  0  0  0  0  0  0  0  0  0
   24.9956  -20.6241  -13.4988 C   0  0  2  0  0  0  0  0  0  0  0  0
   25.7550  -20.3042  -14.7179 N   0  0  0  0  0  0  0  0  0  0  0  0
   23.5605  -20.2867  -13.6803 C   0  0  0  0  0  0  0  0  0  0  0  0
   23.2722  -19.0626  -13.9182 O   0  0  0  0  0  0  0  0  0  0  0  0
   28.0113  -19.9621  -12.5478 C   0  0  0  0  0  0  0  0  0  0  0  0
   29.2699  -20.3922  -12.1322 C   0  0  0  0  0  0  0  0  0  0  0  0
   22.4905  -21.1843  -13.6151 N   0  0  0  0  0  0  0  0  0  0  0  0
   21.0821  -20.7422  -13.7604 C   0  0  1  0  0  0  0  0  0  0  0  0
   20.3550  -21.6553  -14.6706 C   0  0  0  0  0  0  0  0  0  0  0  0
   20.5401  -21.3247  -16.0835 C   0  0  0  0  0  0  0  0  0  0  0  0
   21.7106  -21.5073  -16.8454 C   0  0  0  0  0  0  0  0  0  0  0  0
   21.5330  -21.0531  -18.0889 N   0  0  0  0  0  0  0  0  0  0  0  0
   20.2903  -20.5789  -18.1773 C   0  0  0  0  0  0  0  0  0  0  0  0
   19.6119  -20.0213  -19.2517 C   0  0  0  0  0  0  0  0  0  0  0  0
   18.2854  -19.6077  -19.1313 C   0  0  0  0  0  0  0  0  0  0  0  0
   17.6590  -19.7661  -17.9138 C   0  0  0  0  0  0  0  0  0  0  0  0
   18.3114  -20.3153  -16.8348 C   0  0  0  0  0  0  0  0  0  0  0  0
   19.6415  -20.7260  -16.9653 C   0  0  0  0  0  0  0  0  0  0  0  0
   20.5126  -20.6626  -12.4248 C   0  0  0  0  0  0  0  0  0  0  0  0
   19.4037  -20.0880  -12.1789 O   0  0  0  0  0  0  0  0  0  0  0  0
   21.1444  -21.2213  -11.3174 O   0  0  0  0  0  0  0  0  0  0  0  0
  2  1  1  0
  3  2  2  0
  4  2  1  0
  5  6  1  6
  5  4  1  0
  7  5  1  0
  8  7  2  0
  9 10  1  0
 10 20  2  0
 10 11  1  0
 11 12  2  0
 12 13  1  0
 13 14  1  0
 15 14  1  1
 15 17  1  0
 15 16  1  0
 16  7  1  0
 17 21  1  0
 18 17  2  0
 19 13  2  0
 20 19  1  0
 22 21  1  0
 22 23  1  6
 22 33  1  0
 24 32  1  0
 24 23  1  0
 25 24  2  0
 26 25  1  0
 26 27  1  0
 27 32  2  0
 28 27  1  0
 28 29  2  0
 29 30  1  0
 30 31  2  0
 32 31  1  0
 33 34  2  0
 33 35  1  0
M  END
$$$$
