NYW.pdb
     RDKit          3D

 35 37  0  0  1  0  0  0  0  0999 V2000
   27.8550  -18.9376  -17.5324 N   0  0  0  0  0  0  0  0  0  0  0  0
   28.0002  -18.0310  -16.4472 C   0  0  0  0  0  0  0  0  0  0  0  0
   29.0388  -17.3254  -16.3947 O   0  0  0  0  0  0  0  0  0  0  0  0
   26.9785  -17.9069  -15.4067 C   0  0  0  0  0  0  0  0  0  0  0  0
   25.8440  -18.9235  -15.6003 C   0  0  2  0  0  0  0  0  0  0  0  0
   24.9140  -18.2876  -16.5150 N   0  0  0  0  0  0  0  0  0  0  0  0
   25.2359  -19.0985  -14.2539 C   0  0  0  0  0  0  0  0  0  0  0  0
   24.7779  -18.0593  -13.6959 O   0  0  0  0  0  0  0  0  0  0  0  0
   18.5620  -19.2881  -14.5675 O   0  0  0  0  0  0  0  0  0  0  0  0
   19.7506  -19.8244  -14.0287 C   0  0  0  0  0  0  0  0  0  0  0  0
   20.6747  -20.3989  -14.8445 C   0  0  0  0  0  0  0  0  0  0  0  0
   21.8550  -20.9306  -14.3030 C   0  0  0  0  0  0  0  0  0  0  0  0
   22.0935  -20.8794  -12.9495 C   0  0  0  0  0  0  0  0  0  0  0  0
   23.3152  -21.4281  -12.3907 C   0  0  0  0  0  0  0  0  0  0  0  0
   24.4663  -20.4414  -12.2967 C   0  0  2  0  0  0  0  0  0  0  0  0
   25.1521  -20.3424  -13.5949 N   0  0  0  0  0  0  0  0  0  0  0  0
   25.4189  -20.8688  -11.2402 C   0  0  0  0  0  0  0  0  0  0  0  0
   26.0944  -21.9341  -11.4566 O   0  0  0  0  0  0  0  0  0  0  0  0
   21.1461  -20.2949  -12.1479 C   0  0  0  0  0  0  0  0  0  0  0  0
   19.9700  -19.7632  -12.6730 C   0  0  0  0  0  0  0  0  0  0  0  0
   25.6478  -20.2140  -10.0262 N   0  0  0  0  0  0  0  0  0  0  0  0
   26.5444  -20.7748   -8.9861 C   0  0  1  0  0  0  0  0  0  0  0  0
   27.5701  -19.7766   -8.6085 C   0  0  0  0  0  0  0  0  0  0  0  0
   28.4538  -20.2384   -7.5381 C   0  0  0  0  0  0  0  0  0  0  0  0
   29.3610  -21.3140   -7.5995 C   0  0  0  0  0  0  0  0  0  0  0  0
   29.9710  -21.4771   -6.4224 N   0  0  0  0  0  0  0  0  0  0  0  0
   29.5021  -20.5500   -5.5871 C   0  0  0  0  0  0  0  0  0  0  0  0
   29.8254  -20.2809   -4.2648 C   0  0  0  0  0  0  0  0  0  0  0  0
   29.2227  -19.2296   -3.5744 C   0  0  0  0  0  0  0  0  0  0  0  0
   28.2930  -18.4587   -4.2386 C   0  0  0  0  0  0  0  0  0  0  0  0
   27.9561  -18.7072   -5.5486 C   0  0  0  0  0  0  0  0  0  0  0  0
   28.5652  -19.7641   -6.2319 C   0  0  0  0  0  0  0  0  0  0  0  0
   25.7067  -21.2084   -7.8794 C   0  0  0  0  0  0  0  0  0  0  0  0
   26.1290  -21.9664   -6.9481 O   0  0  0  0  0  0  0  0  0  0  0  0
   24.3772  -20.8138   -7.7599 O   0  0  0  0  0  0  0  0  0  0  0  0
  2  1  1  0
  3  2  2  0
  4  2  1  0
  5  6  1  6
  5  4  1  0
  7  5  1  0
  8  7  2  0
  9 10  1  0
 10 20  2  0
 10 11  1  0
 11 12  2  0
 12 13  1  0
 13 14  1  0
 15 14  1  6
 15 17  1  0
 15 16  1  0
 16  7  1  0
 17 21  1  0
 18 17  2  0
 19 13  2  0
 20 19  1  0
 22 21  1  0
 22 23  1  1
 22 33  1  0
 24 32  1  0
 24 23  1  0
 25 24  2  0
 26 25  1  0
 26 27  1  0
 27 32  2  0
 28 27  1  0
 28 29  2  0
 29 30  1  0
 30 31  2  0
 32 31  1  0
 33 34  2  0
 33 35  1  0
M  END
$$$$
