NYW.pdb
     RDKit          3D

 35 37  0  0  1  0  0  0  0  0999 V2000
   29.6476  -19.0860  -17.7471 N   0  0  0  0  0  0  0  0  0  0  0  0
   29.2173  -17.8282  -17.2437 C   0  0  0  0  0  0  0  0  0  0  0  0
   29.6315  -16.7859  -17.8106 O   0  0  0  0  0  0  0  0  0  0  0  0
   28.3157  -17.7270  -16.0953 C   0  0  0  0  0  0  0  0  0  0  0  0
   26.8896  -18.1714  -16.4517 C   0  0  2  0  0  0  0  0  0  0  0  0
   26.3144  -17.0573  -17.1824 N   0  0  0  0  0  0  0  0  0  0  0  0
   26.2002  -18.3703  -15.1485 C   0  0  0  0  0  0  0  0  0  0  0  0
   25.9317  -17.3295  -14.4809 O   0  0  0  0  0  0  0  0  0  0  0  0
   20.0160  -20.8685   -9.5343 O   0  0  0  0  0  0  0  0  0  0  0  0
   20.9565  -20.8031  -10.5838 C   0  0  0  0  0  0  0  0  0  0  0  0
   21.8345  -21.8226  -10.7820 C   0  0  0  0  0  0  0  0  0  0  0  0
   22.7677  -21.7520  -11.8275 C   0  0  0  0  0  0  0  0  0  0  0  0
   22.8085  -20.6591  -12.6615 C   0  0  0  0  0  0  0  0  0  0  0  0
   23.7729  -20.5878  -13.7435 C   0  0  0  0  0  0  0  0  0  0  0  0
   24.9970  -19.7397  -13.4446 C   0  0  2  0  0  0  0  0  0  0  0  0
   25.8442  -19.6379  -14.6434 N   0  0  0  0  0  0  0  0  0  0  0  0
   25.7640  -20.3308  -12.3183 C   0  0  0  0  0  0  0  0  0  0  0  0
   26.3104  -21.4711  -12.5164 O   0  0  0  0  0  0  0  0  0  0  0  0
   21.9126  -19.6440  -12.4410 C   0  0  0  0  0  0  0  0  0  0  0  0
   20.9809  -19.7018  -11.4064 C   0  0  0  0  0  0  0  0  0  0  0  0
   25.9457  -19.7564  -11.0566 N   0  0  0  0  0  0  0  0  0  0  0  0
   26.7384  -20.4231   -9.9948 C   0  0  1  0  0  0  0  0  0  0  0  0
   27.4003  -19.4092   -9.1435 C   0  0  0  0  0  0  0  0  0  0  0  0
   28.2514  -19.9958   -8.1085 C   0  0  0  0  0  0  0  0  0  0  0  0
   29.1416  -21.0765   -8.2619 C   0  0  0  0  0  0  0  0  0  0  0  0
   29.7216  -21.3719   -7.0956 N   0  0  0  0  0  0  0  0  0  0  0  0
   29.2494  -20.5273   -6.1786 C   0  0  0  0  0  0  0  0  0  0  0  0
   29.5468  -20.4026   -4.8290 C   0  0  0  0  0  0  0  0  0  0  0  0
   28.9462  -19.4169   -4.0461 C   0  0  0  0  0  0  0  0  0  0  0  0
   28.0451  -18.5639   -4.6462 C   0  0  0  0  0  0  0  0  0  0  0  0
   27.7341  -18.6692   -5.9818 C   0  0  0  0  0  0  0  0  0  0  0  0
   28.3408  -19.6612   -6.7580 C   0  0  0  0  0  0  0  0  0  0  0  0
   25.8376  -21.3054   -9.2705 C   0  0  0  0  0  0  0  0  0  0  0  0
   24.6412  -20.9836   -8.9782 O   0  0  0  0  0  0  0  0  0  0  0  0
   26.2248  -22.5749   -8.8513 O   0  0  0  0  0  0  0  0  0  0  0  0
  2  1  1  0
  3  2  2  0
  4  2  1  0
  5  6  1  6
  5  4  1  0
  7  5  1  0
  8  7  2  0
  9 10  1  0
 10 20  2  0
 10 11  1  0
 11 12  2  0
 12 13  1  0
 13 14  1  0
 15 14  1  6
 15 17  1  0
 15 16  1  0
 16  7  1  0
 17 21  1  0
 18 17  2  0
 19 13  2  0
 20 19  1  0
 22 21  1  0
 22 23  1  1
 22 33  1  0
 24 32  1  0
 24 23  1  0
 25 24  2  0
 26 25  1  0
 26 27  1  0
 27 32  2  0
 28 27  1  0
 28 29  2  0
 29 30  1  0
 30 31  2  0
 32 31  1  0
 33 34  2  0
 33 35  1  0
M  END
$$$$
