NYW.pdb
     RDKit          3D

 35 37  0  0  1  0  0  0  0  0999 V2000
   28.2677  -19.9531  -21.4972 N   0  0  0  0  0  0  0  0  0  0  0  0
   28.3838  -19.5625  -20.1353 C   0  0  0  0  0  0  0  0  0  0  0  0
   29.1027  -18.5695  -19.8591 O   0  0  0  0  0  0  0  0  0  0  0  0
   27.6926  -20.2850  -19.0665 C   0  0  0  0  0  0  0  0  0  0  0  0
   28.6814  -20.9119  -18.0729 C   0  0  2  0  0  0  0  0  0  0  0  0
   29.1110  -22.1516  -18.6932 N   0  0  0  0  0  0  0  0  0  0  0  0
   27.8903  -21.1756  -16.8409 C   0  0  0  0  0  0  0  0  0  0  0  0
   26.9735  -22.0434  -16.9271 O   0  0  0  0  0  0  0  0  0  0  0  0
   24.4843  -20.4099   -8.6660 O   0  0  0  0  0  0  0  0  0  0  0  0
   25.3250  -20.3634   -9.7981 C   0  0  0  0  0  0  0  0  0  0  0  0
   25.8821  -21.5044  -10.2854 C   0  0  0  0  0  0  0  0  0  0  0  0
   26.7173  -21.4521  -11.4116 C   0  0  0  0  0  0  0  0  0  0  0  0
   26.9836  -20.2554  -12.0352 C   0  0  0  0  0  0  0  0  0  0  0  0
   27.8462  -20.2026  -13.2009 C   0  0  0  0  0  0  0  0  0  0  0  0
   27.2315  -20.7704  -14.4686 C   0  0  2  0  0  0  0  0  0  0  0  0
   28.1168  -20.5149  -15.6158 N   0  0  0  0  0  0  0  0  0  0  0  0
   25.8951  -20.1655  -14.7022 C   0  0  0  0  0  0  0  0  0  0  0  0
   25.8567  -18.9135  -14.9649 O   0  0  0  0  0  0  0  0  0  0  0  0
   26.4098  -19.1189  -11.5245 C   0  0  0  0  0  0  0  0  0  0  0  0
   25.5786  -19.1571  -10.4068 C   0  0  0  0  0  0  0  0  0  0  0  0
   24.6700  -20.8381  -14.6615 N   0  0  0  0  0  0  0  0  0  0  0  0
   23.3749  -20.1212  -14.7567 C   0  0  1  0  0  0  0  0  0  0  0  0
   22.8716  -20.1654  -16.1480 C   0  0  0  0  0  0  0  0  0  0  0  0
   21.5960  -19.4702  -16.3193 C   0  0  0  0  0  0  0  0  0  0  0  0
   21.4076  -18.0851  -16.4919 C   0  0  0  0  0  0  0  0  0  0  0  0
   20.1056  -17.7982  -16.5733 N   0  0  0  0  0  0  0  0  0  0  0  0
   19.4276  -18.9406  -16.4623 C   0  0  0  0  0  0  0  0  0  0  0  0
   18.0627  -19.1872  -16.5040 C   0  0  0  0  0  0  0  0  0  0  0  0
   17.5600  -20.4832  -16.3912 C   0  0  0  0  0  0  0  0  0  0  0  0
   18.4544  -21.5205  -16.2365 C   0  0  0  0  0  0  0  0  0  0  0  0
   19.8112  -21.3001  -16.1915 C   0  0  0  0  0  0  0  0  0  0  0  0
   20.3054  -19.9971  -16.3045 C   0  0  0  0  0  0  0  0  0  0  0  0
   22.4752  -20.7203  -13.7840 C   0  0  0  0  0  0  0  0  0  0  0  0
   22.5494  -21.9418  -13.4338 O   0  0  0  0  0  0  0  0  0  0  0  0
   21.4686  -19.9891  -13.1597 O   0  0  0  0  0  0  0  0  0  0  0  0
  2  1  1  0
  3  2  2  0
  4  2  1  0
  5  6  1  6
  5  4  1  0
  7  5  1  0
  8  7  2  0
  9 10  1  0
 10 20  2  0
 10 11  1  0
 11 12  2  0
 12 13  1  0
 13 14  1  0
 15 14  1  1
 15 17  1  0
 15 16  1  0
 16  7  1  0
 17 21  1  0
 18 17  2  0
 19 13  2  0
 20 19  1  0
 22 21  1  0
 22 23  1  6
 22 33  1  0
 24 32  1  0
 24 23  1  0
 25 24  2  0
 26 25  1  0
 26 27  1  0
 27 32  2  0
 28 27  1  0
 28 29  2  0
 29 30  1  0
 30 31  2  0
 32 31  1  0
 33 34  2  0
 33 35  1  0
M  END
$$$$
