NYW.pdb
     RDKit          3D

 35 37  0  0  1  0  0  0  0  0999 V2000
   25.4668   -7.2334  -22.4580 N   0  0  0  0  0  0  0  0  0  0  0  0
   25.7389   -8.1716  -21.4253 C   0  0  0  0  0  0  0  0  0  0  0  0
   25.4643   -9.3806  -21.6306 O   0  0  0  0  0  0  0  0  0  0  0  0
   26.3233   -7.7611  -20.1478 C   0  0  0  0  0  0  0  0  0  0  0  0
   26.5446   -6.2428  -20.0860 C   0  0  2  0  0  0  0  0  0  0  0  0
   27.9798   -6.0716  -19.9558 N   0  0  0  0  0  0  0  0  0  0  0  0
   25.8376   -5.7899  -18.8579 C   0  0  0  0  0  0  0  0  0  0  0  0
   26.4693   -5.8916  -17.7662 O   0  0  0  0  0  0  0  0  0  0  0  0
   27.0417    0.7760  -18.4970 O   0  0  0  0  0  0  0  0  0  0  0  0
   26.1095   -0.2708  -18.3361 C   0  0  0  0  0  0  0  0  0  0  0  0
   25.8651   -1.1341  -19.3582 C   0  0  0  0  0  0  0  0  0  0  0  0
   24.9370   -2.1732  -19.1925 C   0  0  0  0  0  0  0  0  0  0  0  0
   24.2653   -2.3336  -18.0030 C   0  0  0  0  0  0  0  0  0  0  0  0
   23.3068   -3.4097  -17.8320 C   0  0  0  0  0  0  0  0  0  0  0  0
   23.9263   -4.7791  -17.6124 C   0  0  2  0  0  0  0  0  0  0  0  0
   24.5283   -5.2661  -18.8636 N   0  0  0  0  0  0  0  0  0  0  0  0
   22.8955   -5.7332  -17.1291 C   0  0  0  0  0  0  0  0  0  0  0  0
   22.0226   -6.1311  -17.9762 O   0  0  0  0  0  0  0  0  0  0  0  0
   24.5293   -1.4500  -16.9875 C   0  0  0  0  0  0  0  0  0  0  0  0
   25.4486   -0.4139  -17.1392 C   0  0  0  0  0  0  0  0  0  0  0  0
   22.7887   -6.2392  -15.8300 N   0  0  0  0  0  0  0  0  0  0  0  0
   21.7313   -7.2062  -15.4464 C   0  0  1  0  0  0  0  0  0  0  0  0
   22.0620   -8.5521  -15.9662 C   0  0  0  0  0  0  0  0  0  0  0  0
   23.2349   -9.1437  -15.3227 C   0  0  0  0  0  0  0  0  0  0  0  0
   23.2860   -9.7386  -14.0470 C   0  0  0  0  0  0  0  0  0  0  0  0
   24.5309  -10.1329  -13.7661 N   0  0  0  0  0  0  0  0  0  0  0  0
   25.3030   -9.8222  -14.8075 C   0  0  0  0  0  0  0  0  0  0  0  0
   26.6569  -10.0370  -15.0224 C   0  0  0  0  0  0  0  0  0  0  0  0
   27.2686   -9.6488  -16.2142 C   0  0  0  0  0  0  0  0  0  0  0  0
   26.4938   -9.0433  -17.1800 C   0  0  0  0  0  0  0  0  0  0  0  0
   25.1504   -8.8193  -16.9889 C   0  0  0  0  0  0  0  0  0  0  0  0
   24.5465   -9.2113  -15.7903 C   0  0  0  0  0  0  0  0  0  0  0  0
   21.5953   -7.1487  -13.9998 C   0  0  0  0  0  0  0  0  0  0  0  0
   20.6483   -7.7217  -13.3710 O   0  0  0  0  0  0  0  0  0  0  0  0
   22.5040   -6.4634  -13.1986 O   0  0  0  0  0  0  0  0  0  0  0  0
  2  1  1  0
  3  2  2  0
  4  2  1  0
  5  6  1  1
  5  4  1  0
  7  5  1  0
  8  7  2  0
  9 10  1  0
 10 20  2  0
 10 11  1  0
 11 12  2  0
 12 13  1  0
 13 14  1  0
 15 14  1  6
 15 17  1  0
 15 16  1  0
 16  7  1  0
 17 21  1  0
 18 17  2  0
 19 13  2  0
 20 19  1  0
 22 21  1  0
 22 23  1  1
 22 33  1  0
 24 32  1  0
 24 23  1  0
 25 24  2  0
 26 25  1  0
 26 27  1  0
 27 32  2  0
 28 27  1  0
 28 29  2  0
 29 30  1  0
 30 31  2  0
 32 31  1  0
 33 34  2  0
 33 35  1  0
M  END
$$$$
