NYW.pdb
     RDKit          3D

 35 37  0  0  1  0  0  0  0  0999 V2000
   27.8536  -22.7176  -18.4868 N   0  0  0  0  0  0  0  0  0  0  0  0
   29.0915  -22.5342  -17.8124 C   0  0  0  0  0  0  0  0  0  0  0  0
   30.0040  -23.3774  -18.0015 O   0  0  0  0  0  0  0  0  0  0  0  0
   29.3183  -21.3999  -16.9159 C   0  0  0  0  0  0  0  0  0  0  0  0
   28.1103  -20.4525  -16.8815 C   0  0  2  0  0  0  0  0  0  0  0  0
   28.4476  -19.3712  -17.7888 N   0  0  0  0  0  0  0  0  0  0  0  0
   28.0280  -19.9675  -15.4775 C   0  0  0  0  0  0  0  0  0  0  0  0
   29.0375  -19.3518  -15.0270 O   0  0  0  0  0  0  0  0  0  0  0  0
   20.6169  -20.5493  -14.5359 O   0  0  0  0  0  0  0  0  0  0  0  0
   21.8933  -20.0422  -14.2128 C   0  0  0  0  0  0  0  0  0  0  0  0
   22.3092  -20.0067  -12.9185 C   0  0  0  0  0  0  0  0  0  0  0  0
   23.5796  -19.5013  -12.6032 C   0  0  0  0  0  0  0  0  0  0  0  0
   24.4173  -19.0376  -13.5906 C   0  0  0  0  0  0  0  0  0  0  0  0
   25.7316  -18.5166  -13.2636 C   0  0  0  0  0  0  0  0  0  0  0  0
   26.8502  -19.5428  -13.3191 C   0  0  2  0  0  0  0  0  0  0  0  0
   26.9003  -20.1615  -14.6533 N   0  0  0  0  0  0  0  0  0  0  0  0
   26.6429  -20.5797  -12.2760 C   0  0  0  0  0  0  0  0  0  0  0  0
   26.0048  -21.6351  -12.6179 O   0  0  0  0  0  0  0  0  0  0  0  0
   23.9747  -19.0841  -14.8881 C   0  0  0  0  0  0  0  0  0  0  0  0
   22.7155  -19.5835  -15.2146 C   0  0  0  0  0  0  0  0  0  0  0  0
   27.0809  -20.5106  -10.9500 N   0  0  0  0  0  0  0  0  0  0  0  0
   26.5878  -21.4446   -9.9084 C   0  0  1  0  0  0  0  0  0  0  0  0
   27.6244  -21.6397   -8.8700 C   0  0  0  0  0  0  0  0  0  0  0  0
   27.7195  -20.5180   -7.9359 C   0  0  0  0  0  0  0  0  0  0  0  0
   27.0752  -19.2705   -8.0486 C   0  0  0  0  0  0  0  0  0  0  0  0
   27.4255  -18.4719   -7.0368 N   0  0  0  0  0  0  0  0  0  0  0  0
   28.2751  -19.1445   -6.2603 C   0  0  0  0  0  0  0  0  0  0  0  0
   28.9077  -18.7733   -5.0824 C   0  0  0  0  0  0  0  0  0  0  0  0
   29.7510  -19.6556   -4.4074 C   0  0  0  0  0  0  0  0  0  0  0  0
   29.9435  -20.9124   -4.9395 C   0  0  0  0  0  0  0  0  0  0  0  0
   29.3279  -21.3021   -6.1060 C   0  0  0  0  0  0  0  0  0  0  0  0
   28.4850  -20.4100   -6.7757 C   0  0  0  0  0  0  0  0  0  0  0  0
   25.3366  -20.9055   -9.3999 C   0  0  0  0  0  0  0  0  0  0  0  0
   24.9919  -19.6905   -9.5585 O   0  0  0  0  0  0  0  0  0  0  0  0
   24.4209  -21.6914   -8.7061 O   0  0  0  0  0  0  0  0  0  0  0  0
  2  1  1  0
  3  2  2  0
  4  2  1  0
  5  6  1  6
  5  4  1  0
  7  5  1  0
  8  7  2  0
  9 10  1  0
 10 20  2  0
 10 11  1  0
 11 12  2  0
 12 13  1  0
 13 14  1  0
 15 14  1  6
 15 17  1  0
 15 16  1  0
 16  7  1  0
 17 21  1  0
 18 17  2  0
 19 13  2  0
 20 19  1  0
 22 21  1  0
 22 23  1  1
 22 33  1  0
 24 32  1  0
 24 23  1  0
 25 24  2  0
 26 25  1  0
 26 27  1  0
 27 32  2  0
 28 27  1  0
 28 29  2  0
 29 30  1  0
 30 31  2  0
 32 31  1  0
 33 34  2  0
 33 35  1  0
M  END
$$$$
