NYW.pdb
     RDKit          3D

 35 37  0  0  1  0  0  0  0  0999 V2000
   12.2192  -13.9687    2.9073 N   0  0  0  0  0  0  0  0  0  0  0  0
   13.3132  -14.8764    2.8991 C   0  0  0  0  0  0  0  0  0  0  0  0
   13.1020  -16.0678    3.2383 O   0  0  0  0  0  0  0  0  0  0  0  0
   14.6595  -14.4547    2.5095 C   0  0  0  0  0  0  0  0  0  0  0  0
   15.3041  -13.5563    3.5750 C   0  0  2  0  0  0  0  0  0  0  0  0
   15.8185  -12.4107    2.8476 N   0  0  0  0  0  0  0  0  0  0  0  0
   16.4110  -14.3632    4.1555 C   0  0  0  0  0  0  0  0  0  0  0  0
   17.4312  -14.5382    3.4277 O   0  0  0  0  0  0  0  0  0  0  0  0
   21.4670  -10.7868    7.4204 O   0  0  0  0  0  0  0  0  0  0  0  0
   20.5687  -11.8747    7.4046 C   0  0  0  0  0  0  0  0  0  0  0  0
   19.2306  -11.6571    7.2975 C   0  0  0  0  0  0  0  0  0  0  0  0
   18.3419  -12.7428    7.2822 C   0  0  0  0  0  0  0  0  0  0  0  0
   18.8070  -14.0339    7.3746 C   0  0  0  0  0  0  0  0  0  0  0  0
   17.8872  -15.1563    7.3570 C   0  0  0  0  0  0  0  0  0  0  0  0
   17.5312  -15.6602    5.9690 C   0  0  2  0  0  0  0  0  0  0  0  0
   16.3683  -14.9238    5.4487 N   0  0  0  0  0  0  0  0  0  0  0  0
   17.2429  -17.1166    6.0140 C   0  0  0  0  0  0  0  0  0  0  0  0
   16.1419  -17.4793    6.5565 O   0  0  0  0  0  0  0  0  0  0  0  0
   20.1608  -14.2271    7.4818 C   0  0  0  0  0  0  0  0  0  0  0  0
   21.0539  -13.1576    7.4981 C   0  0  0  0  0  0  0  0  0  0  0  0
   18.0648  -18.1329    5.5176 N   0  0  0  0  0  0  0  0  0  0  0  0
   17.7158  -19.5676    5.6597 C   0  0  1  0  0  0  0  0  0  0  0  0
   18.3474  -20.3531    4.5757 C   0  0  0  0  0  0  0  0  0  0  0  0
   17.6169  -20.2766    3.3107 C   0  0  0  0  0  0  0  0  0  0  0  0
   17.4051  -19.1248    2.5282 C   0  0  0  0  0  0  0  0  0  0  0  0
   16.6581  -19.4175    1.4603 N   0  0  0  0  0  0  0  0  0  0  0  0
   16.3696  -20.7182    1.5073 C   0  0  0  0  0  0  0  0  0  0  0  0
   15.6460  -21.5139    0.6306 C   0  0  0  0  0  0  0  0  0  0  0  0
   15.4853  -22.8800    0.8614 C   0  0  0  0  0  0  0  0  0  0  0  0
   16.0647  -23.4258    1.9866 C   0  0  0  0  0  0  0  0  0  0  0  0
   16.7854  -22.6567    2.8700 C   0  0  0  0  0  0  0  0  0  0  0  0
   16.9402  -21.2880    2.6304 C   0  0  0  0  0  0  0  0  0  0  0  0
   18.1128  -19.9801    6.9964 C   0  0  0  0  0  0  0  0  0  0  0  0
   18.9530  -19.3318    7.6992 O   0  0  0  0  0  0  0  0  0  0  0  0
   17.5899  -21.1176    7.6047 O   0  0  0  0  0  0  0  0  0  0  0  0
  2  1  1  0
  3  2  2  0
  4  2  1  0
  5  6  1  6
  5  4  1  0
  7  5  1  0
  8  7  2  0
  9 10  1  0
 10 20  2  0
 10 11  1  0
 11 12  2  0
 12 13  1  0
 13 14  1  0
 15 14  1  1
 15 17  1  0
 15 16  1  0
 16  7  1  0
 17 21  1  0
 18 17  2  0
 19 13  2  0
 20 19  1  0
 22 21  1  0
 22 23  1  6
 22 33  1  0
 24 32  1  0
 24 23  1  0
 25 24  2  0
 26 25  1  0
 26 27  1  0
 27 32  2  0
 28 27  1  0
 28 29  2  0
 29 30  1  0
 30 31  2  0
 32 31  1  0
 33 34  2  0
 33 35  1  0
M  END
$$$$
