HPN.pdb
     RDKit          3D

 26 27  0  0  1  0  0  0  0  0999 V2000
   21.5410  -21.3386  -13.8645 N   0  0  0  0  0  0  0  0  0  0  0  0
   21.1821  -20.6761  -12.6539 C   0  0  1  0  0  0  0  0  0  0  0  0
   19.8424  -20.0109  -12.8462 C   0  0  0  0  0  0  0  0  0  0  0  0
   19.9133  -18.9592  -13.9025 C   0  0  0  0  0  0  0  0  0  0  0  0
   19.3908  -19.0094  -15.1796 C   0  0  0  0  0  0  0  0  0  0  0  0
   19.6802  -17.8542  -15.7989 N   0  0  0  0  0  0  0  0  0  0  0  0
   20.3719  -17.0653  -14.9587 C   0  0  0  0  0  0  0  0  0  0  0  0
   20.5026  -17.7542  -13.8137 N   0  0  0  0  0  0  0  0  0  0  0  0
   21.0613  -21.6077  -11.4802 C   0  0  0  0  0  0  0  0  0  0  0  0
   20.4071  -22.6844  -11.6415 O   0  0  0  0  0  0  0  0  0  0  0  0
   21.6422  -21.3333  -10.2174 N   0  0  0  0  0  0  0  0  0  0  0  0
   22.5026  -20.2125   -9.9394 C   0  0  0  0  0  0  0  0  0  0  0  0
   22.9385  -20.3177   -8.4986 C   0  0  0  0  0  0  0  0  0  0  0  0
   22.0290  -21.3349   -7.8623 C   0  0  0  0  0  0  0  0  0  0  0  0
   21.4807  -22.1022   -9.0388 C   0  0  1  0  0  0  0  0  0  0  0  0
   20.0547  -22.3897   -8.7130 C   0  0  0  0  0  0  0  0  0  0  0  0
   19.1171  -21.6098   -8.9201 O   0  0  0  0  0  0  0  0  0  0  0  0
   15.6387  -25.0808   -8.4645 N   0  0  0  0  0  0  0  0  0  0  0  0
   16.7843  -25.8497   -8.0733 C   0  0  0  0  0  0  0  0  0  0  0  0
   16.5517  -26.8981   -7.4321 O   0  0  0  0  0  0  0  0  0  0  0  0
   18.1139  -25.3521   -8.4510 C   0  0  0  0  0  0  0  0  0  0  0  0
   18.4691  -24.0916   -7.6953 C   0  0  2  0  0  0  0  0  0  0  0  0
   19.7914  -23.6543   -8.1261 N   0  0  0  0  0  0  0  0  0  0  0  0
   18.4097  -24.3103   -6.2444 C   0  0  0  0  0  0  0  0  0  0  0  0
   17.2219  -24.1776   -5.5597 O   0  0  0  0  0  0  0  0  0  0  0  0
   19.4441  -24.6199   -5.6206 O   0  0  0  0  0  0  0  0  0  0  0  0
  2  1  1  6
  2  9  1  0
  3  2  1  0
  4  8  1  0
  4  3  1  0
  5  4  2  0
  6  5  1  0
  6  7  1  0
  7  8  2  0
  9 11  1  0
 10  9  2  0
 11 15  1  0
 11 12  1  0
 12 13  1  0
 14 13  1  0
 15 14  1  0
 16 23  1  0
 15 16  1  1
 17 16  2  0
 18 19  1  0
 19 20  2  0
 21 19  1  0
 22 21  1  6
 22 23  1  0
 22 24  1  0
 24 25  1  0
 26 24  2  0
M  END
$$$$
