HPN.pdb
     RDKit          3D

 26 27  0  0  1  0  0  0  0  0999 V2000
   20.7712  -11.9742  -18.6660 N   0  0  0  0  0  0  0  0  0  0  0  0
   21.8843  -11.5470  -17.8837 C   0  0  1  0  0  0  0  0  0  0  0  0
   22.9627  -11.0462  -18.8114 C   0  0  0  0  0  0  0  0  0  0  0  0
   23.4866  -12.1495  -19.6687 C   0  0  0  0  0  0  0  0  0  0  0  0
   24.5161  -13.0242  -19.3826 C   0  0  0  0  0  0  0  0  0  0  0  0
   24.6619  -13.8582  -20.4242 N   0  0  0  0  0  0  0  0  0  0  0  0
   23.7581  -13.5455  -21.3687 C   0  0  0  0  0  0  0  0  0  0  0  0
   23.0550  -12.5062  -20.8908 N   0  0  0  0  0  0  0  0  0  0  0  0
   21.5494  -10.4310  -16.9337 C   0  0  0  0  0  0  0  0  0  0  0  0
   20.9315   -9.4223  -17.3966 O   0  0  0  0  0  0  0  0  0  0  0  0
   21.8925  -10.4617  -15.5594 N   0  0  0  0  0  0  0  0  0  0  0  0
   22.4781  -11.5931  -14.8880 C   0  0  0  0  0  0  0  0  0  0  0  0
   22.6384  -11.2279  -13.4327 C   0  0  0  0  0  0  0  0  0  0  0  0
   22.4511   -9.7359  -13.3555 C   0  0  0  0  0  0  0  0  0  0  0  0
   21.7176   -9.4063  -14.6309 C   0  0  1  0  0  0  0  0  0  0  0  0
   22.2768   -8.1074  -15.1023 C   0  0  0  0  0  0  0  0  0  0  0  0
   22.9849   -7.9724  -16.1077 O   0  0  0  0  0  0  0  0  0  0  0  0
   22.6032   -3.1170  -15.7439 N   0  0  0  0  0  0  0  0  0  0  0  0
   21.7086   -3.9532  -16.4904 C   0  0  0  0  0  0  0  0  0  0  0  0
   21.1658   -3.4278  -17.4873 O   0  0  0  0  0  0  0  0  0  0  0  0
   21.5063   -5.3339  -16.0314 C   0  0  0  0  0  0  0  0  0  0  0  0
   22.2286   -5.5965  -14.7293 C   0  0  2  0  0  0  0  0  0  0  0  0
   21.9546   -6.9685  -14.3200 N   0  0  0  0  0  0  0  0  0  0  0  0
   21.8320   -4.6275  -13.6997 C   0  0  0  0  0  0  0  0  0  0  0  0
   20.5853   -4.6886  -13.1172 O   0  0  0  0  0  0  0  0  0  0  0  0
   22.6298   -3.7370  -13.3453 O   0  0  0  0  0  0  0  0  0  0  0  0
  2  1  1  6
  2  9  1  0
  3  2  1  0
  4  8  1  0
  4  3  1  0
  5  4  2  0
  6  5  1  0
  6  7  1  0
  7  8  2  0
  9 11  1  0
 10  9  2  0
 11 15  1  0
 11 12  1  0
 12 13  1  0
 14 13  1  0
 15 14  1  0
 16 23  1  0
 15 16  1  6
 17 16  2  0
 18 19  1  0
 19 20  2  0
 21 19  1  0
 22 21  1  6
 22 23  1  0
 22 24  1  0
 24 25  1  0
 26 24  2  0
M  END
$$$$
