HPN.pdb
     RDKit          3D

 26 27  0  0  1  0  0  0  0  0999 V2000
   17.7374  -11.9748  -16.0081 N   0  0  0  0  0  0  0  0  0  0  0  0
   18.8974  -11.4264  -16.6302 C   0  0  1  0  0  0  0  0  0  0  0  0
   18.4900  -10.7884  -17.9345 C   0  0  0  0  0  0  0  0  0  0  0  0
   17.9989  -11.8132  -18.9016 C   0  0  0  0  0  0  0  0  0  0  0  0
   18.6949  -12.8881  -19.4179 C   0  0  0  0  0  0  0  0  0  0  0  0
   17.8814  -13.5558  -20.2510 N   0  0  0  0  0  0  0  0  0  0  0  0
   16.6859  -12.9424  -20.2849 C   0  0  0  0  0  0  0  0  0  0  0  0
   16.7780  -11.8875  -19.4594 N   0  0  0  0  0  0  0  0  0  0  0  0
   19.5733  -10.3704  -15.8006 C   0  0  0  0  0  0  0  0  0  0  0  0
   18.8746   -9.3836  -15.4113 O   0  0  0  0  0  0  0  0  0  0  0  0
   20.9423  -10.4337  -15.4414 N   0  0  0  0  0  0  0  0  0  0  0  0
   21.8338  -11.5053  -15.8031 C   0  0  0  0  0  0  0  0  0  0  0  0
   23.1780  -11.2096  -15.1847 C   0  0  0  0  0  0  0  0  0  0  0  0
   23.1278   -9.7689  -14.7501 C   0  0  0  0  0  0  0  0  0  0  0  0
   21.6509   -9.4739  -14.6778 C   0  0  1  0  0  0  0  0  0  0  0  0
   21.4853   -8.0807  -15.1813 C   0  0  0  0  0  0  0  0  0  0  0  0
   21.3735   -7.7750  -16.3748 O   0  0  0  0  0  0  0  0  0  0  0  0
   19.2246   -5.6694  -16.2290 N   0  0  0  0  0  0  0  0  0  0  0  0
   18.9015   -5.2468  -14.8971 C   0  0  0  0  0  0  0  0  0  0  0  0
   17.7006   -4.9712  -14.6824 O   0  0  0  0  0  0  0  0  0  0  0  0
   19.9882   -5.1733  -13.9113 C   0  0  0  0  0  0  0  0  0  0  0  0
   21.3007   -5.6425  -14.4974 C   0  0  2  0  0  0  0  0  0  0  0  0
   21.4583   -7.0601  -14.1961 N   0  0  0  0  0  0  0  0  0  0  0  0
   22.4231   -4.8453  -13.9866 C   0  0  0  0  0  0  0  0  0  0  0  0
   22.9225   -3.7858  -14.7114 O   0  0  0  0  0  0  0  0  0  0  0  0
   22.9334   -5.1270  -12.8842 O   0  0  0  0  0  0  0  0  0  0  0  0
  2  1  1  1
  2  9  1  0
  3  2  1  0
  4  8  1  0
  4  3  1  0
  5  4  2  0
  6  5  1  0
  6  7  1  0
  7  8  2  0
  9 11  1  0
 10  9  2  0
 11 15  1  0
 11 12  1  0
 12 13  1  0
 14 13  1  0
 15 14  1  0
 16 23  1  0
 15 16  1  6
 17 16  2  0
 18 19  1  0
 19 20  2  0
 21 19  1  0
 22 21  1  1
 22 23  1  0
 22 24  1  0
 24 25  1  0
 26 24  2  0
M  END
$$$$
