HPN.pdb
     RDKit          3D

 26 27  0  0  1  0  0  0  0  0999 V2000
   19.7832  -13.1221  -17.1047 N   0  0  0  0  0  0  0  0  0  0  0  0
   20.9346  -12.3288  -17.3843 C   0  0  1  0  0  0  0  0  0  0  0  0
   20.7327  -11.6340  -18.7075 C   0  0  0  0  0  0  0  0  0  0  0  0
   20.6149  -12.6225  -19.8191 C   0  0  0  0  0  0  0  0  0  0  0  0
   21.5984  -13.4545  -20.3160 C   0  0  0  0  0  0  0  0  0  0  0  0
   21.0706  -14.1821  -21.3129 N   0  0  0  0  0  0  0  0  0  0  0  0
   19.7796  -13.8424  -21.4704 C   0  0  0  0  0  0  0  0  0  0  0  0
   19.5230  -12.8947  -20.5545 N   0  0  0  0  0  0  0  0  0  0  0  0
   21.1909  -11.2684  -16.3499 C   0  0  0  0  0  0  0  0  0  0  0  0
   20.1967  -10.6037  -15.9220 O   0  0  0  0  0  0  0  0  0  0  0  0
   22.4828  -10.9864  -15.8411 N   0  0  0  0  0  0  0  0  0  0  0  0
   23.6621  -11.7611  -16.1292 C   0  0  0  0  0  0  0  0  0  0  0  0
   24.8072  -11.1546  -15.3561 C   0  0  0  0  0  0  0  0  0  0  0  0
   24.3265   -9.8056  -14.8911 C   0  0  0  0  0  0  0  0  0  0  0  0
   22.8253   -9.9175  -14.9771 C   0  0  1  0  0  0  0  0  0  0  0  0
   22.3416   -8.5921  -15.4582 C   0  0  0  0  0  0  0  0  0  0  0  0
   21.9002   -8.3766  -16.5936 O   0  0  0  0  0  0  0  0  0  0  0  0
   20.4389   -3.9113  -15.0986 N   0  0  0  0  0  0  0  0  0  0  0  0
   19.6396   -5.1020  -15.0952 C   0  0  0  0  0  0  0  0  0  0  0  0
   18.4160   -4.9451  -15.3019 O   0  0  0  0  0  0  0  0  0  0  0  0
   20.3111   -6.3860  -14.8535 C   0  0  0  0  0  0  0  0  0  0  0  0
   21.8093   -6.2153  -14.7415 C   0  0  2  0  0  0  0  0  0  0  0  0
   22.4066   -7.5271  -14.5231 N   0  0  0  0  0  0  0  0  0  0  0  0
   22.1555   -5.2703  -13.6722 C   0  0  0  0  0  0  0  0  0  0  0  0
   22.4657   -3.9600  -13.9626 O   0  0  0  0  0  0  0  0  0  0  0  0
   22.1702   -5.6539  -12.4857 O   0  0  0  0  0  0  0  0  0  0  0  0
  2  1  1  1
  2  9  1  0
  3  2  1  0
  4  8  1  0
  4  3  1  0
  5  4  2  0
  6  5  1  0
  6  7  1  0
  7  8  2  0
  9 11  1  0
 10  9  2  0
 11 15  1  0
 11 12  1  0
 12 13  1  0
 14 13  1  0
 15 14  1  0
 16 23  1  0
 15 16  1  6
 17 16  2  0
 18 19  1  0
 19 20  2  0
 21 19  1  0
 22 21  1  1
 22 23  1  0
 22 24  1  0
 24 25  1  0
 26 24  2  0
M  END
$$$$
