HPN.pdb
     RDKit          3D

 26 27  0  0  1  0  0  0  0  0999 V2000
   21.9227  -12.5869  -19.1100 N   0  0  0  0  0  0  0  0  0  0  0  0
   22.8957  -11.9774  -18.2643 C   0  0  1  0  0  0  0  0  0  0  0  0
   23.9491  -11.3306  -19.1282 C   0  0  0  0  0  0  0  0  0  0  0  0
   24.7093  -12.3546  -19.9030 C   0  0  0  0  0  0  0  0  0  0  0  0
   25.9295  -12.9180  -19.5862 C   0  0  0  0  0  0  0  0  0  0  0  0
   26.2525  -13.7933  -20.5512 N   0  0  0  0  0  0  0  0  0  0  0  0
   25.2776  -13.8085  -21.4765 C   0  0  0  0  0  0  0  0  0  0  0  0
   24.3508  -12.9287  -21.0645 N   0  0  0  0  0  0  0  0  0  0  0  0
   22.3233  -10.9110  -17.3726 C   0  0  0  0  0  0  0  0  0  0  0  0
   21.6822   -9.9606  -17.9195 O   0  0  0  0  0  0  0  0  0  0  0  0
   22.4701  -10.9261  -15.9635 N   0  0  0  0  0  0  0  0  0  0  0  0
   23.0696  -12.0008  -15.2154 C   0  0  0  0  0  0  0  0  0  0  0  0
   22.9838  -11.6422  -13.7522 C   0  0  0  0  0  0  0  0  0  0  0  0
   22.6332  -10.1787  -13.7027 C   0  0  0  0  0  0  0  0  0  0  0  0
   22.0570   -9.9080  -15.0695 C   0  0  1  0  0  0  0  0  0  0  0  0
   22.5390   -8.5516  -15.4571 C   0  0  0  0  0  0  0  0  0  0  0  0
   23.5681   -8.3326  -16.1076 O   0  0  0  0  0  0  0  0  0  0  0  0
   19.1941   -6.3050  -17.5086 N   0  0  0  0  0  0  0  0  0  0  0  0
   20.5432   -5.9090  -17.2257 C   0  0  0  0  0  0  0  0  0  0  0  0
   21.3638   -6.0404  -18.1604 O   0  0  0  0  0  0  0  0  0  0  0  0
   20.8458   -5.3906  -15.8848 C   0  0  0  0  0  0  0  0  0  0  0  0
   22.0638   -6.0630  -15.2926 C   0  0  2  0  0  0  0  0  0  0  0  0
   21.7375   -7.4601  -15.0339 N   0  0  0  0  0  0  0  0  0  0  0  0
   22.5120   -5.3705  -14.0778 C   0  0  0  0  0  0  0  0  0  0  0  0
   23.2243   -4.1944  -14.1590 O   0  0  0  0  0  0  0  0  0  0  0  0
   22.2469   -5.8490  -12.9571 O   0  0  0  0  0  0  0  0  0  0  0  0
  2  1  1  6
  2  9  1  0
  3  2  1  0
  4  8  1  0
  4  3  1  0
  5  4  2  0
  6  5  1  0
  6  7  1  0
  7  8  2  0
  9 11  1  0
 10  9  2  0
 11 15  1  0
 11 12  1  0
 12 13  1  0
 14 13  1  0
 15 14  1  0
 16 23  1  0
 15 16  1  6
 17 16  2  0
 18 19  1  0
 19 20  2  0
 21 19  1  0
 22 21  1  1
 22 23  1  0
 22 24  1  0
 24 25  1  0
 26 24  2  0
M  END
$$$$
