HPN.pdb
     RDKit          3D

 26 27  0  0  1  0  0  0  0  0999 V2000
   18.9805  -11.7896  -18.4105 N   0  0  0  0  0  0  0  0  0  0  0  0
   20.3260  -11.4085  -18.1320 C   0  0  1  0  0  0  0  0  0  0  0  0
   20.8364  -10.5678  -19.2754 C   0  0  0  0  0  0  0  0  0  0  0  0
   20.9206  -11.3677  -20.5323 C   0  0  0  0  0  0  0  0  0  0  0  0
   20.0829  -11.3077  -21.6283 C   0  0  0  0  0  0  0  0  0  0  0  0
   20.5151  -12.1952  -22.5379 N   0  0  0  0  0  0  0  0  0  0  0  0
   21.6035  -12.8220  -22.0592 C   0  0  0  0  0  0  0  0  0  0  0  0
   21.8329  -12.3055  -20.8412 N   0  0  0  0  0  0  0  0  0  0  0  0
   20.4653  -10.5962  -16.8747 C   0  0  0  0  0  0  0  0  0  0  0  0
   19.5638   -9.7386  -16.6188 O   0  0  0  0  0  0  0  0  0  0  0  0
   21.5500  -10.7491  -15.9762 N   0  0  0  0  0  0  0  0  0  0  0  0
   22.5513  -11.7797  -16.0714 C   0  0  0  0  0  0  0  0  0  0  0  0
   23.4887  -11.6153  -14.9004 C   0  0  0  0  0  0  0  0  0  0  0  0
   23.2013  -10.2536  -14.3259 C   0  0  0  0  0  0  0  0  0  0  0  0
   21.8255   -9.9322  -14.8524 C   0  0  1  0  0  0  0  0  0  0  0  0
   21.8374   -8.4759  -15.1706 C   0  0  0  0  0  0  0  0  0  0  0  0
   21.8346   -8.0084  -16.3159 O   0  0  0  0  0  0  0  0  0  0  0  0
   21.3345   -3.4962  -14.5090 N   0  0  0  0  0  0  0  0  0  0  0  0
   20.3382   -4.3514  -15.0858 C   0  0  0  0  0  0  0  0  0  0  0  0
   19.3914   -3.7792  -15.6693 O   0  0  0  0  0  0  0  0  0  0  0  0
   20.5079   -5.8040  -14.9467 C   0  0  0  0  0  0  0  0  0  0  0  0
   21.7600   -6.1437  -14.1700 C   0  0  2  0  0  0  0  0  0  0  0  0
   21.8528   -7.5943  -14.0590 N   0  0  0  0  0  0  0  0  0  0  0  0
   21.7592   -5.4920  -12.8541 C   0  0  0  0  0  0  0  0  0  0  0  0
   22.4848   -4.3416  -12.6369 O   0  0  0  0  0  0  0  0  0  0  0  0
   21.0952   -5.9823  -11.9192 O   0  0  0  0  0  0  0  0  0  0  0  0
  2  1  1  6
  2  9  1  0
  3  2  1  0
  4  8  1  0
  4  3  1  0
  5  4  2  0
  6  5  1  0
  6  7  1  0
  7  8  2  0
  9 11  1  0
 10  9  2  0
 11 15  1  0
 11 12  1  0
 12 13  1  0
 14 13  1  0
 15 14  1  0
 16 23  1  0
 15 16  1  6
 17 16  2  0
 18 19  1  0
 19 20  2  0
 21 19  1  0
 22 21  1  1
 22 23  1  0
 22 24  1  0
 24 25  1  0
 26 24  2  0
M  END
$$$$
