HPN.pdb
     RDKit          3D

 26 27  0  0  1  0  0  0  0  0999 V2000
   22.3875  -20.9827  -14.5987 N   0  0  0  0  0  0  0  0  0  0  0  0
   22.4094  -20.1623  -13.4325 C   0  0  1  0  0  0  0  0  0  0  0  0
   21.2419  -19.2095  -13.4903 C   0  0  0  0  0  0  0  0  0  0  0  0
   21.3369  -18.3177  -14.6829 C   0  0  0  0  0  0  0  0  0  0  0  0
   20.4769  -18.2566  -15.7615 C   0  0  0  0  0  0  0  0  0  0  0  0
   20.9299  -17.3193  -16.6089 N   0  0  0  0  0  0  0  0  0  0  0  0
   22.0531  -16.7777  -16.1071 C   0  0  0  0  0  0  0  0  0  0  0  0
   22.2829  -17.3972  -14.9382 N   0  0  0  0  0  0  0  0  0  0  0  0
   22.2935  -20.9443  -12.1538 C   0  0  0  0  0  0  0  0  0  0  0  0
   21.3372  -21.7738  -12.0496 O   0  0  0  0  0  0  0  0  0  0  0  0
   23.1989  -20.7928  -11.0747 N   0  0  0  0  0  0  0  0  0  0  0  0
   24.4278  -20.0446  -11.1374 C   0  0  0  0  0  0  0  0  0  0  0  0
   25.1115  -20.1762   -9.7987 C   0  0  0  0  0  0  0  0  0  0  0  0
   24.0767  -20.7310   -8.8561 C   0  0  0  0  0  0  0  0  0  0  0  0
   23.0528  -21.3437   -9.7779 C   0  0  1  0  0  0  0  0  0  0  0  0
   21.7248  -21.0604   -9.1629 C   0  0  0  0  0  0  0  0  0  0  0  0
   21.0189  -20.0825   -9.4380 O   0  0  0  0  0  0  0  0  0  0  0  0
   17.2229  -22.8154   -7.7351 N   0  0  0  0  0  0  0  0  0  0  0  0
   17.7859  -23.0065   -9.0403 C   0  0  0  0  0  0  0  0  0  0  0  0
   17.0010  -23.4135   -9.9249 O   0  0  0  0  0  0  0  0  0  0  0  0
   19.2131  -22.7136   -9.2282 C   0  0  0  0  0  0  0  0  0  0  0  0
   19.8638  -22.2756   -7.9356 C   0  0  2  0  0  0  0  0  0  0  0  0
   21.2703  -21.9979   -8.1998 N   0  0  0  0  0  0  0  0  0  0  0  0
   19.6926  -23.2894   -6.8872 C   0  0  0  0  0  0  0  0  0  0  0  0
   18.7871  -23.1018   -5.8663 O   0  0  0  0  0  0  0  0  0  0  0  0
   20.3728  -24.3342   -6.9172 O   0  0  0  0  0  0  0  0  0  0  0  0
  2  1  1  6
  2  9  1  0
  3  2  1  0
  4  8  1  0
  4  3  1  0
  5  4  2  0
  6  5  1  0
  6  7  1  0
  7  8  2  0
  9 11  1  0
 10  9  2  0
 11 15  1  0
 11 12  1  0
 12 13  1  0
 14 13  1  0
 15 14  1  0
 16 23  1  0
 15 16  1  1
 17 16  2  0
 18 19  1  0
 19 20  2  0
 21 19  1  0
 22 21  1  6
 22 23  1  0
 22 24  1  0
 24 25  1  0
 26 24  2  0
M  END
$$$$
