HPN.pdb
     RDKit          3D

 26 27  0  0  1  0  0  0  0  0999 V2000
   23.9587  -20.6440  -18.7169 N   0  0  0  0  0  0  0  0  0  0  0  0
   24.1968  -19.6986  -17.6763 C   0  0  1  0  0  0  0  0  0  0  0  0
   22.8695  -19.2505  -17.1178 C   0  0  0  0  0  0  0  0  0  0  0  0
   22.1282  -18.4129  -18.1056 C   0  0  0  0  0  0  0  0  0  0  0  0
   22.1768  -17.0409  -18.2532 C   0  0  0  0  0  0  0  0  0  0  0  0
   21.3571  -16.6962  -19.2588 N   0  0  0  0  0  0  0  0  0  0  0  0
   20.7848  -17.8042  -19.7601 C   0  0  0  0  0  0  0  0  0  0  0  0
   21.2659  -18.8349  -19.0466 N   0  0  0  0  0  0  0  0  0  0  0  0
   25.0018  -20.2593  -16.5371 C   0  0  0  0  0  0  0  0  0  0  0  0
   24.6302  -21.3654  -16.0352 O   0  0  0  0  0  0  0  0  0  0  0  0
   26.1444  -19.6088  -16.0092 N   0  0  0  0  0  0  0  0  0  0  0  0
   26.7883  -18.4702  -16.6116 C   0  0  0  0  0  0  0  0  0  0  0  0
   27.9866  -18.1214  -15.7634 C   0  0  0  0  0  0  0  0  0  0  0  0
   27.8131  -18.8723  -14.4700 C   0  0  0  0  0  0  0  0  0  0  0  0
   26.8351  -19.9638  -14.8246 C   0  0  1  0  0  0  0  0  0  0  0  0
   25.9397  -20.1129  -13.6421 C   0  0  0  0  0  0  0  0  0  0  0  0
   24.8621  -19.5223  -13.4996 O   0  0  0  0  0  0  0  0  0  0  0  0
   24.7058  -21.1706   -8.8327 N   0  0  0  0  0  0  0  0  0  0  0  0
   25.9541  -20.4780   -8.9701 C   0  0  0  0  0  0  0  0  0  0  0  0
   26.3993  -19.9338   -7.9357 O   0  0  0  0  0  0  0  0  0  0  0  0
   26.5965  -20.4644  -10.2912 C   0  0  0  0  0  0  0  0  0  0  0  0
   25.7377  -21.1468  -11.3320 C   0  0  2  0  0  0  0  0  0  0  0  0
   26.3856  -21.0014  -12.6298 N   0  0  0  0  0  0  0  0  0  0  0  0
   24.3752  -20.5994  -11.3349 C   0  0  0  0  0  0  0  0  0  0  0  0
   23.2979  -21.3883  -10.9963 O   0  0  0  0  0  0  0  0  0  0  0  0
   24.1860  -19.4069  -11.6470 O   0  0  0  0  0  0  0  0  0  0  0  0
  2  1  1  6
  2  9  1  0
  3  2  1  0
  4  8  1  0
  4  3  1  0
  5  4  2  0
  6  5  1  0
  6  7  1  0
  7  8  2  0
  9 11  1  0
 10  9  2  0
 11 15  1  0
 11 12  1  0
 12 13  1  0
 14 13  1  0
 15 14  1  0
 16 23  1  0
 15 16  1  1
 17 16  2  0
 18 19  1  0
 19 20  2  0
 21 19  1  0
 22 21  1  1
 22 23  1  0
 22 24  1  0
 24 25  1  0
 26 24  2  0
M  END
$$$$
