HPN.pdb
     RDKit          3D

 26 27  0  0  1  0  0  0  0  0999 V2000
   23.7722  -21.0126  -15.1345 N   0  0  0  0  0  0  0  0  0  0  0  0
   22.7198  -20.3024  -14.4854 C   0  0  1  0  0  0  0  0  0  0  0  0
   21.5986  -20.0925  -15.4718 C   0  0  0  0  0  0  0  0  0  0  0  0
   21.9681  -19.0689  -16.4928 C   0  0  0  0  0  0  0  0  0  0  0  0
   21.3496  -17.8586  -16.7364 C   0  0  0  0  0  0  0  0  0  0  0  0
   22.0003  -17.2473  -17.7388 N   0  0  0  0  0  0  0  0  0  0  0  0
   23.0163  -18.0278  -18.1451 C   0  0  0  0  0  0  0  0  0  0  0  0
   22.9794  -19.1282  -17.3765 N   0  0  0  0  0  0  0  0  0  0  0  0
   22.1512  -21.0343  -13.3017 C   0  0  0  0  0  0  0  0  0  0  0  0
   22.2010  -22.3036  -13.3083 O   0  0  0  0  0  0  0  0  0  0  0  0
   21.5693  -20.3703  -12.1936 N   0  0  0  0  0  0  0  0  0  0  0  0
   21.4945  -18.9399  -12.0447 C   0  0  0  0  0  0  0  0  0  0  0  0
   20.8490  -18.6526  -10.7114 C   0  0  0  0  0  0  0  0  0  0  0  0
   20.2414  -19.9524  -10.2550 C   0  0  0  0  0  0  0  0  0  0  0  0
   20.9776  -20.9892  -11.0653 C   0  0  1  0  0  0  0  0  0  0  0  0
   19.9666  -22.0246  -11.4231 C   0  0  0  0  0  0  0  0  0  0  0  0
   19.4024  -22.1039  -12.5212 O   0  0  0  0  0  0  0  0  0  0  0  0
   18.7177  -27.5401   -9.4540 N   0  0  0  0  0  0  0  0  0  0  0  0
   18.1004  -26.2547   -9.6082 C   0  0  0  0  0  0  0  0  0  0  0  0
   16.8766  -26.2584   -9.8663 O   0  0  0  0  0  0  0  0  0  0  0  0
   18.9409  -25.0600   -9.4530 C   0  0  0  0  0  0  0  0  0  0  0  0
   18.7462  -24.0929  -10.5989 C   0  0  2  0  0  0  0  0  0  0  0  0
   19.6541  -22.9679  -10.4104 N   0  0  0  0  0  0  0  0  0  0  0  0
   17.3467  -23.6583  -10.6922 C   0  0  0  0  0  0  0  0  0  0  0  0
   16.5047  -24.1924  -11.6426 O   0  0  0  0  0  0  0  0  0  0  0  0
   16.9108  -22.7959   -9.9039 O   0  0  0  0  0  0  0  0  0  0  0  0
  2  1  1  6
  2  9  1  0
  3  2  1  0
  4  8  1  0
  4  3  1  0
  5  4  2  0
  6  5  1  0
  6  7  1  0
  7  8  2  0
  9 11  1  0
 10  9  2  0
 11 15  1  0
 11 12  1  0
 12 13  1  0
 14 13  1  0
 15 14  1  0
 16 23  1  0
 15 16  1  6
 17 16  2  0
 18 19  1  0
 19 20  2  0
 21 19  1  0
 22 21  1  1
 22 23  1  0
 22 24  1  0
 24 25  1  0
 26 24  2  0
M  END
$$$$
