HPN.pdb
     RDKit          3D

 26 27  0  0  1  0  0  0  0  0999 V2000
   19.2830  -13.9219  -16.4787 N   0  0  0  0  0  0  0  0  0  0  0  0
   20.3471  -13.1039  -16.9602 C   0  0  1  0  0  0  0  0  0  0  0  0
   19.9819  -12.5942  -18.3318 C   0  0  0  0  0  0  0  0  0  0  0  0
   19.8655  -13.7176  -19.3070 C   0  0  0  0  0  0  0  0  0  0  0  0
   20.8473  -14.6118  -19.6853 C   0  0  0  0  0  0  0  0  0  0  0  0
   20.3216  -15.4595  -20.5835 N   0  0  0  0  0  0  0  0  0  0  0  0
   19.0337  -15.1366  -20.7927 C   0  0  0  0  0  0  0  0  0  0  0  0
   18.7767  -14.0772  -20.0088 N   0  0  0  0  0  0  0  0  0  0  0  0
   20.6180  -11.9085  -16.0897 C   0  0  0  0  0  0  0  0  0  0  0  0
   19.6287  -11.1941  -15.7372 O   0  0  0  0  0  0  0  0  0  0  0  0
   21.9184  -11.5534  -15.6535 N   0  0  0  0  0  0  0  0  0  0  0  0
   23.1013  -12.3424  -15.8820 C   0  0  0  0  0  0  0  0  0  0  0  0
   24.2570  -11.6359  -15.2171 C   0  0  0  0  0  0  0  0  0  0  0  0
   23.7684  -10.2476  -14.8995 C   0  0  0  0  0  0  0  0  0  0  0  0
   22.2673  -10.3867  -14.9300 C   0  0  1  0  0  0  0  0  0  0  0  0
   21.7512   -9.1326  -15.5488 C   0  0  0  0  0  0  0  0  0  0  0  0
   21.2141   -9.0691  -16.6613 O   0  0  0  0  0  0  0  0  0  0  0  0
   20.1074   -4.3397  -15.7837 N   0  0  0  0  0  0  0  0  0  0  0  0
   19.2456   -5.4677  -15.5800 C   0  0  0  0  0  0  0  0  0  0  0  0
   18.0190   -5.2523  -15.6958 O   0  0  0  0  0  0  0  0  0  0  0  0
   19.8628   -6.7613  -15.2578 C   0  0  0  0  0  0  0  0  0  0  0  0
   21.3684   -6.6510  -15.1727 C   0  0  2  0  0  0  0  0  0  0  0  0
   21.9031   -7.9494  -14.7808 N   0  0  0  0  0  0  0  0  0  0  0  0
   21.7691   -5.5891  -14.2410 C   0  0  0  0  0  0  0  0  0  0  0  0
   22.2642   -4.3915  -14.7079 O   0  0  0  0  0  0  0  0  0  0  0  0
   21.6616   -5.7690  -13.0116 O   0  0  0  0  0  0  0  0  0  0  0  0
  2  1  1  1
  2  9  1  0
  3  2  1  0
  4  8  1  0
  4  3  1  0
  5  4  2  0
  6  5  1  0
  6  7  1  0
  7  8  2  0
  9 11  1  0
 10  9  2  0
 11 15  1  0
 11 12  1  0
 12 13  1  0
 14 13  1  0
 15 14  1  0
 16 23  1  0
 15 16  1  6
 17 16  2  0
 18 19  1  0
 19 20  2  0
 21 19  1  0
 22 21  1  1
 22 23  1  0
 22 24  1  0
 24 25  1  0
 26 24  2  0
M  END
$$$$
