QPK.pdb
     RDKit          3D

 26 26  0  0  1  0  0  0  0  0999 V2000
    8.2790  -12.7776   25.8239 N   0  0  0  0  0  0  0  0  0  0  0  0
    7.6058  -13.8846   26.3852 C   0  0  0  0  0  0  0  0  0  0  0  0
    7.3684  -13.8504   27.6202 O   0  0  0  0  0  0  0  0  0  0  0  0
    7.1819  -15.0547   25.5834 C   0  0  0  0  0  0  0  0  0  0  0  0
    5.9960  -14.6665   24.7040 C   0  0  0  0  0  0  0  0  0  0  0  0
    5.6521  -15.8073   23.7701 C   0  0  2  0  0  0  0  0  0  0  0  0
    5.4789  -16.9751   24.6409 N   0  0  0  0  0  0  0  0  0  0  0  0
    6.7220  -16.0789   22.7976 C   0  0  0  0  0  0  0  0  0  0  0  0
    7.0067  -17.2767   22.5399 O   0  0  0  0  0  0  0  0  0  0  0  0
    7.4551  -15.0663   22.1301 N   0  0  0  0  0  0  0  0  0  0  0  0
    7.2618  -13.6241   22.1723 C   0  0  0  0  0  0  0  0  0  0  0  0
    7.3692  -13.2782   20.6802 C   0  0  0  0  0  0  0  0  0  0  0  0
    8.6432  -14.0610   20.3345 C   0  0  0  0  0  0  0  0  0  0  0  0
    8.5798  -15.2656   21.2368 C   0  0  1  0  0  0  0  0  0  0  0  0
    9.8468  -15.3132   22.0211 C   0  0  0  0  0  0  0  0  0  0  0  0
   10.0486  -14.6118   23.0444 O   0  0  0  0  0  0  0  0  0  0  0  0
   10.8863  -16.1827   21.6124 N   0  0  0  0  0  0  0  0  0  0  0  0
   11.8944  -16.6722   22.5680 C   0  0  1  0  0  0  0  0  0  0  0  0
   11.6542  -18.1123   22.8910 C   0  0  0  0  0  0  0  0  0  0  0  0
   12.5012  -18.7105   23.9449 C   0  0  0  0  0  0  0  0  0  0  0  0
   11.8219  -19.3299   25.1090 C   0  0  0  0  0  0  0  0  0  0  0  0
   12.8027  -19.9552   26.0929 C   0  0  0  0  0  0  0  0  0  0  0  0
   12.0702  -20.3658   27.2584 N   0  0  0  0  0  0  0  0  0  0  0  0
   13.2138  -16.3038   22.0724 C   0  0  0  0  0  0  0  0  0  0  0  0
   13.4857  -16.1455   20.8623 O   0  0  0  0  0  0  0  0  0  0  0  0
   14.2789  -16.1040   22.9598 O   0  0  0  0  0  0  0  0  0  0  0  0
  2  1  1  0
  3  2  2  0
  4  2  1  0
  5  4  1  0
  6  8  1  0
  6  5  1  0
  6  7  1  1
  8  9  2  0
  8 10  1  0
 10 14  1  0
 10 11  1  0
 12 11  1  0
 13 14  1  0
 13 12  1  0
 15 17  1  0
 14 15  1  1
 16 15  2  0
 18 17  1  0
 18 19  1  6
 20 19  1  0
 21 20  1  0
 22 21  1  0
 23 22  1  0
 24 18  1  0
 25 24  2  0
 26 24  1  0
M  END
$$$$
