QPK.pdb
     RDKit          3D

 26 26  0  0  1  0  0  0  0  0999 V2000
    5.6458  -19.4509   18.8804 N   0  0  0  0  0  0  0  0  0  0  0  0
    6.9925  -19.7645   18.5940 C   0  0  0  0  0  0  0  0  0  0  0  0
    7.3716  -20.9424   18.8205 O   0  0  0  0  0  0  0  0  0  0  0  0
    7.9470  -18.7728   18.0488 C   0  0  0  0  0  0  0  0  0  0  0  0
    7.2366  -17.4356   17.8551 C   0  0  0  0  0  0  0  0  0  0  0  0
    8.2280  -16.3872   17.3972 C   0  0  2  0  0  0  0  0  0  0  0  0
    9.1474  -17.0962   16.5006 N   0  0  0  0  0  0  0  0  0  0  0  0
    8.9882  -15.8071   18.5152 C   0  0  0  0  0  0  0  0  0  0  0  0
   10.1982  -16.1256   18.6453 O   0  0  0  0  0  0  0  0  0  0  0  0
    8.4360  -14.9060   19.4594 N   0  0  0  0  0  0  0  0  0  0  0  0
    7.0999  -14.3292   19.4943 C   0  0  0  0  0  0  0  0  0  0  0  0
    7.4312  -12.8605   19.7957 C   0  0  0  0  0  0  0  0  0  0  0  0
    8.4153  -13.0606   20.9562 C   0  0  0  0  0  0  0  0  0  0  0  0
    9.1110  -14.3531   20.6175 C   0  0  1  0  0  0  0  0  0  0  0  0
    8.9547  -15.2719   21.7811 C   0  0  0  0  0  0  0  0  0  0  0  0
    7.9943  -16.0741   21.8993 O   0  0  0  0  0  0  0  0  0  0  0  0
    9.9220  -15.2576   22.8143 N   0  0  0  0  0  0  0  0  0  0  0  0
   10.3182  -16.4946   23.5086 C   0  0  1  0  0  0  0  0  0  0  0  0
   11.1284  -17.3668   22.6036 C   0  0  0  0  0  0  0  0  0  0  0  0
   11.6546  -18.6220   23.1810 C   0  0  0  0  0  0  0  0  0  0  0  0
   12.5294  -19.4622   22.3272 C   0  0  0  0  0  0  0  0  0  0  0  0
   12.9381  -20.7615   23.0098 C   0  0  0  0  0  0  0  0  0  0  0  0
   13.8454  -21.4593   22.1418 N   0  0  0  0  0  0  0  0  0  0  0  0
   10.8999  -16.1333   24.7944 C   0  0  0  0  0  0  0  0  0  0  0  0
   10.7718  -16.8149   25.8347 O   0  0  0  0  0  0  0  0  0  0  0  0
   11.6560  -14.9621   24.9314 O   0  0  0  0  0  0  0  0  0  0  0  0
  2  1  1  0
  3  2  2  0
  4  2  1  0
  5  4  1  0
  6  8  1  0
  6  5  1  0
  6  7  1  6
  8  9  2  0
  8 10  1  0
 10 14  1  0
 10 11  1  0
 12 11  1  0
 13 14  1  0
 13 12  1  0
 15 17  1  0
 14 15  1  1
 16 15  2  0
 18 17  1  0
 18 19  1  6
 20 19  1  0
 21 20  1  0
 22 21  1  0
 23 22  1  0
 24 18  1  0
 25 24  2  0
 26 24  1  0
M  END
$$$$
