QPK.pdb
     RDKit          3D

 26 26  0  0  1  0  0  0  0  0999 V2000
    6.1737  -18.8626   17.2975 N   0  0  0  0  0  0  0  0  0  0  0  0
    7.5656  -19.1001   17.3067 C   0  0  0  0  0  0  0  0  0  0  0  0
    7.9520  -20.2561   17.6182 O   0  0  0  0  0  0  0  0  0  0  0  0
    8.5583  -18.0550   16.9690 C   0  0  0  0  0  0  0  0  0  0  0  0
    7.8381  -16.7356   16.7031 C   0  0  0  0  0  0  0  0  0  0  0  0
    8.8497  -15.6248   16.5175 C   0  0  2  0  0  0  0  0  0  0  0  0
    9.8941  -16.1980   15.6615 N   0  0  0  0  0  0  0  0  0  0  0  0
    9.4466  -15.1905   17.7901 C   0  0  0  0  0  0  0  0  0  0  0  0
   10.6378  -15.5131   18.0334 O   0  0  0  0  0  0  0  0  0  0  0  0
    8.7561  -14.4263   18.7635 N   0  0  0  0  0  0  0  0  0  0  0  0
    7.3928  -13.9176   18.7228 C   0  0  0  0  0  0  0  0  0  0  0  0
    7.6108  -12.4784   19.2115 C   0  0  0  0  0  0  0  0  0  0  0  0
    8.4875  -12.7625   20.4386 C   0  0  0  0  0  0  0  0  0  0  0  0
    9.2839  -13.9765   20.0370 C   0  0  1  0  0  0  0  0  0  0  0  0
    9.0671  -15.0257   21.0737 C   0  0  0  0  0  0  0  0  0  0  0  0
    8.0376  -15.7453   21.1187 O   0  0  0  0  0  0  0  0  0  0  0  0
   10.0547  -15.2394   22.0650 N   0  0  0  0  0  0  0  0  0  0  0  0
    9.8918  -16.2788   23.0956 C   0  0  1  0  0  0  0  0  0  0  0  0
   11.1825  -16.9993   23.3214 C   0  0  0  0  0  0  0  0  0  0  0  0
   11.8505  -17.5624   22.1286 C   0  0  0  0  0  0  0  0  0  0  0  0
   13.1683  -18.2162   22.3184 C   0  0  0  0  0  0  0  0  0  0  0  0
   13.6796  -18.8802   21.0462 C   0  0  0  0  0  0  0  0  0  0  0  0
   14.9932  -19.3999   21.3068 N   0  0  0  0  0  0  0  0  0  0  0  0
    9.2433  -15.6790   24.2541 C   0  0  0  0  0  0  0  0  0  0  0  0
    9.1705  -14.4468   24.4531 O   0  0  0  0  0  0  0  0  0  0  0  0
    8.6509  -16.4834   25.2359 O   0  0  0  0  0  0  0  0  0  0  0  0
  2  1  1  0
  3  2  2  0
  4  2  1  0
  5  4  1  0
  6  8  1  0
  6  5  1  0
  6  7  1  6
  8  9  2  0
  8 10  1  0
 10 14  1  0
 10 11  1  0
 12 11  1  0
 13 14  1  0
 13 12  1  0
 15 17  1  0
 14 15  1  1
 16 15  2  0
 18 17  1  0
 18 19  1  1
 20 19  1  0
 21 20  1  0
 22 21  1  0
 23 22  1  0
 24 18  1  0
 25 24  2  0
 26 24  1  0
M  END
$$$$
