QPK.pdb
     RDKit          3D

 26 26  0  0  1  0  0  0  0  0999 V2000
    7.5545  -19.6032   18.8416 N   0  0  0  0  0  0  0  0  0  0  0  0
    7.3544  -18.7551   17.7306 C   0  0  0  0  0  0  0  0  0  0  0  0
    6.2325  -18.8018   17.1633 O   0  0  0  0  0  0  0  0  0  0  0  0
    8.3996  -17.8358   17.2265 C   0  0  0  0  0  0  0  0  0  0  0  0
    7.7403  -16.6481   16.5302 C   0  0  0  0  0  0  0  0  0  0  0  0
    8.7276  -15.5065   16.4131 C   0  0  2  0  0  0  0  0  0  0  0  0
    9.7617  -15.9887   15.4911 N   0  0  0  0  0  0  0  0  0  0  0  0
    9.3462  -15.1646   17.7034 C   0  0  0  0  0  0  0  0  0  0  0  0
   10.5422  -15.5000   17.9014 O   0  0  0  0  0  0  0  0  0  0  0  0
    8.6715  -14.4761   18.7422 N   0  0  0  0  0  0  0  0  0  0  0  0
    7.2786  -14.0576   18.8025 C   0  0  0  0  0  0  0  0  0  0  0  0
    7.4346  -12.6218   19.3240 C   0  0  0  0  0  0  0  0  0  0  0  0
    8.4041  -12.8828   20.4847 C   0  0  0  0  0  0  0  0  0  0  0  0
    9.2494  -14.0294   19.9949 C   0  0  1  0  0  0  0  0  0  0  0  0
    9.1669  -15.1201   21.0078 C   0  0  0  0  0  0  0  0  0  0  0  0
    8.2400  -15.9688   21.0301 O   0  0  0  0  0  0  0  0  0  0  0  0
   10.1692  -15.2245   22.0018 N   0  0  0  0  0  0  0  0  0  0  0  0
   10.4442  -16.5026   22.6799 C   0  0  1  0  0  0  0  0  0  0  0  0
   11.7126  -17.1056   22.1666 C   0  0  0  0  0  0  0  0  0  0  0  0
   12.1554  -18.3672   22.7977 C   0  0  0  0  0  0  0  0  0  0  0  0
   13.4298  -18.9643   22.3293 C   0  0  0  0  0  0  0  0  0  0  0  0
   13.7932  -20.2347   23.0876 C   0  0  0  0  0  0  0  0  0  0  0  0
   15.0689  -20.6929   22.6121 N   0  0  0  0  0  0  0  0  0  0  0  0
   10.3308  -16.2935   24.1171 C   0  0  0  0  0  0  0  0  0  0  0  0
    9.9619  -17.1747   24.9237 O   0  0  0  0  0  0  0  0  0  0  0  0
   10.6393  -15.0501   24.6835 O   0  0  0  0  0  0  0  0  0  0  0  0
  2  1  1  0
  3  2  2  0
  4  2  1  0
  5  4  1  0
  6  8  1  0
  6  5  1  0
  6  7  1  6
  8  9  2  0
  8 10  1  0
 10 14  1  0
 10 11  1  0
 12 11  1  0
 13 14  1  0
 13 12  1  0
 15 17  1  0
 14 15  1  1
 16 15  2  0
 18 17  1  0
 18 19  1  1
 20 19  1  0
 21 20  1  0
 22 21  1  0
 23 22  1  0
 24 18  1  0
 25 24  2  0
 26 24  1  0
M  END
$$$$
