QPK.pdb
     RDKit          3D

 26 26  0  0  1  0  0  0  0  0999 V2000
    9.1976  -13.9979   13.8227 N   0  0  0  0  0  0  0  0  0  0  0  0
    7.9571  -14.4379   14.3338 C   0  0  0  0  0  0  0  0  0  0  0  0
    6.9390  -14.2507   13.6189 O   0  0  0  0  0  0  0  0  0  0  0  0
    7.8228  -15.0965   15.6529 C   0  0  0  0  0  0  0  0  0  0  0  0
    8.6869  -16.3545   15.6841 C   0  0  0  0  0  0  0  0  0  0  0  0
    8.6247  -16.9882   17.0576 C   0  0  2  0  0  0  0  0  0  0  0  0
    7.1963  -17.1980   17.3174 N   0  0  0  0  0  0  0  0  0  0  0  0
    9.1877  -16.1193   18.1028 C   0  0  0  0  0  0  0  0  0  0  0  0
   10.4284  -15.9119   18.1045 O   0  0  0  0  0  0  0  0  0  0  0  0
    8.4117  -15.4986   19.1131 N   0  0  0  0  0  0  0  0  0  0  0  0
    6.9631  -15.4516   19.2490 C   0  0  0  0  0  0  0  0  0  0  0  0
    6.7566  -13.9688   19.5899 C   0  0  0  0  0  0  0  0  0  0  0  0
    7.8234  -13.8138   20.6822 C   0  0  0  0  0  0  0  0  0  0  0  0
    8.9170  -14.7561   20.2516 C   0  0  1  0  0  0  0  0  0  0  0  0
    9.1866  -15.6874   21.3841 C   0  0  0  0  0  0  0  0  0  0  0  0
    8.4638  -16.6827   21.6426 O   0  0  0  0  0  0  0  0  0  0  0  0
   10.3046  -15.4595   22.2218 N   0  0  0  0  0  0  0  0  0  0  0  0
   10.9498  -16.5628   22.9535 C   0  0  1  0  0  0  0  0  0  0  0  0
   12.3726  -16.7175   22.5202 C   0  0  0  0  0  0  0  0  0  0  0  0
   13.1608  -17.7787   23.1824 C   0  0  0  0  0  0  0  0  0  0  0  0
   14.5824  -17.9320   22.7881 C   0  0  0  0  0  0  0  0  0  0  0  0
   15.2941  -19.0216   23.5801 C   0  0  0  0  0  0  0  0  0  0  0  0
   16.6552  -19.0913   23.1261 N   0  0  0  0  0  0  0  0  0  0  0  0
   10.6947  -16.3812   24.3763 C   0  0  0  0  0  0  0  0  0  0  0  0
   10.3349  -15.2988   24.8883 O   0  0  0  0  0  0  0  0  0  0  0  0
   10.8476  -17.4486   25.2703 O   0  0  0  0  0  0  0  0  0  0  0  0
  2  1  1  0
  3  2  2  0
  4  2  1  0
  5  4  1  0
  6  8  1  0
  6  5  1  0
  6  7  1  1
  8  9  2  0
  8 10  1  0
 10 14  1  0
 10 11  1  0
 12 11  1  0
 13 14  1  0
 13 12  1  0
 15 17  1  0
 14 15  1  1
 16 15  2  0
 18 17  1  0
 18 19  1  1
 20 19  1  0
 21 20  1  0
 22 21  1  0
 23 22  1  0
 24 18  1  0
 25 24  2  0
 26 24  1  0
M  END
$$$$
