QPK.pdb
     RDKit          3D

 26 26  0  0  1  0  0  0  0  0999 V2000
    7.9427  -19.8762   16.7703 N   0  0  0  0  0  0  0  0  0  0  0  0
    7.5021  -18.6493   16.2278 C   0  0  0  0  0  0  0  0  0  0  0  0
    6.2709  -18.5280   15.9997 O   0  0  0  0  0  0  0  0  0  0  0  0
    8.4232  -17.5300   15.9273 C   0  0  0  0  0  0  0  0  0  0  0  0
    7.6140  -16.2667   15.6447 C   0  0  0  0  0  0  0  0  0  0  0  0
    8.5279  -15.0599   15.6403 C   0  0  2  0  0  0  0  0  0  0  0  0
    9.5051  -15.3243   14.5787 N   0  0  0  0  0  0  0  0  0  0  0  0
    9.2333  -14.8850   16.9195 C   0  0  0  0  0  0  0  0  0  0  0  0
   10.4510  -15.1947   16.9787 O   0  0  0  0  0  0  0  0  0  0  0  0
    8.6197  -14.3858   18.0953 N   0  0  0  0  0  0  0  0  0  0  0  0
    7.2078  -14.1419   18.3525 C   0  0  0  0  0  0  0  0  0  0  0  0
    7.2730  -12.7559   19.0100 C   0  0  0  0  0  0  0  0  0  0  0  0
    8.3972  -13.0135   20.0224 C   0  0  0  0  0  0  0  0  0  0  0  0
    9.2937  -13.9992   19.3196 C   0  0  1  0  0  0  0  0  0  0  0  0
    9.4492  -15.1860   20.2083 C   0  0  0  0  0  0  0  0  0  0  0  0
    8.6770  -16.1772   20.1729 O   0  0  0  0  0  0  0  0  0  0  0  0
   10.5102  -15.2204   21.1446 N   0  0  0  0  0  0  0  0  0  0  0  0
   10.7408  -16.3994   21.9965 C   0  0  1  0  0  0  0  0  0  0  0  0
   12.2059  -16.6559   22.1506 C   0  0  0  0  0  0  0  0  0  0  0  0
   12.5982  -17.7894   23.0149 C   0  0  0  0  0  0  0  0  0  0  0  0
   14.0467  -18.0570   23.1891 C   0  0  0  0  0  0  0  0  0  0  0  0
   14.3144  -19.2981   24.0310 C   0  0  0  0  0  0  0  0  0  0  0  0
   15.7343  -19.5102   24.0806 N   0  0  0  0  0  0  0  0  0  0  0  0
    9.9517  -16.2491   23.2118 C   0  0  0  0  0  0  0  0  0  0  0  0
    9.5362  -15.1515   23.6430 O   0  0  0  0  0  0  0  0  0  0  0  0
    9.6102  -17.3671   23.9834 O   0  0  0  0  0  0  0  0  0  0  0  0
  2  1  1  0
  3  2  2  0
  4  2  1  0
  5  4  1  0
  6  8  1  0
  6  5  1  0
  6  7  1  6
  8  9  2  0
  8 10  1  0
 10 14  1  0
 10 11  1  0
 12 11  1  0
 13 14  1  0
 13 12  1  0
 15 17  1  0
 14 15  1  1
 16 15  2  0
 18 17  1  0
 18 19  1  1
 20 19  1  0
 21 20  1  0
 22 21  1  0
 23 22  1  0
 24 18  1  0
 25 24  2  0
 26 24  1  0
M  END
$$$$
