QPK.pdb
     RDKit          3D

 26 26  0  0  1  0  0  0  0  0999 V2000
    5.6382  -19.1903   18.3263 N   0  0  0  0  0  0  0  0  0  0  0  0
    7.0274  -19.3683   18.1465 C   0  0  0  0  0  0  0  0  0  0  0  0
    7.5235  -20.4600   18.5270 O   0  0  0  0  0  0  0  0  0  0  0  0
    7.8951  -18.3342   17.5389 C   0  0  0  0  0  0  0  0  0  0  0  0
    7.0636  -17.0937   17.2226 C   0  0  0  0  0  0  0  0  0  0  0  0
    7.9747  -15.9469   16.8394 C   0  0  2  0  0  0  0  0  0  0  0  0
    8.7726  -16.4513   15.7166 N   0  0  0  0  0  0  0  0  0  0  0  0
    8.8719  -15.5520   17.9364 C   0  0  0  0  0  0  0  0  0  0  0  0
   10.0928  -15.8408   17.8444 O   0  0  0  0  0  0  0  0  0  0  0  0
    8.4409  -14.8619   19.0967 N   0  0  0  0  0  0  0  0  0  0  0  0
    7.0866  -14.5046   19.4934 C   0  0  0  0  0  0  0  0  0  0  0  0
    7.2929  -13.0476   19.9316 C   0  0  0  0  0  0  0  0  0  0  0  0
    8.5315  -13.2279   20.8196 C   0  0  0  0  0  0  0  0  0  0  0  0
    9.2871  -14.3504   20.1574 C   0  0  1  0  0  0  0  0  0  0  0  0
    9.5138  -15.4111   21.1801 C   0  0  0  0  0  0  0  0  0  0  0  0
    8.6772  -16.3155   21.4296 O   0  0  0  0  0  0  0  0  0  0  0  0
   10.7218  -15.4202   21.9178 N   0  0  0  0  0  0  0  0  0  0  0  0
   11.1140  -16.5850   22.7293 C   0  0  1  0  0  0  0  0  0  0  0  0
   12.5458  -16.9378   22.4815 C   0  0  0  0  0  0  0  0  0  0  0  0
   13.1000  -18.0658   23.2603 C   0  0  0  0  0  0  0  0  0  0  0  0
   14.5435  -18.3697   23.1052 C   0  0  0  0  0  0  0  0  0  0  0  0
   14.9965  -19.5220   23.9929 C   0  0  0  0  0  0  0  0  0  0  0  0
   16.3867  -19.7718   23.7310 N   0  0  0  0  0  0  0  0  0  0  0  0
   10.7087  -16.3419   24.1073 C   0  0  0  0  0  0  0  0  0  0  0  0
   10.6834  -17.2237   24.9933 O   0  0  0  0  0  0  0  0  0  0  0  0
   10.3123  -15.0632   24.5192 O   0  0  0  0  0  0  0  0  0  0  0  0
  2  1  1  0
  3  2  2  0
  4  2  1  0
  5  4  1  0
  6  8  1  0
  6  5  1  0
  6  7  1  6
  8  9  2  0
  8 10  1  0
 10 14  1  0
 10 11  1  0
 12 11  1  0
 13 14  1  0
 13 12  1  0
 15 17  1  0
 14 15  1  1
 16 15  2  0
 18 17  1  0
 18 19  1  1
 20 19  1  0
 21 20  1  0
 22 21  1  0
 23 22  1  0
 24 18  1  0
 25 24  2  0
 26 24  1  0
M  END
$$$$
