QPK.pdb
     RDKit          3D

 26 26  0  0  1  0  0  0  0  0999 V2000
    5.6107  -18.1263   23.5938 N   0  0  0  0  0  0  0  0  0  0  0  0
    5.8385  -17.4153   22.3954 C   0  0  0  0  0  0  0  0  0  0  0  0
    5.0990  -17.6856   21.4143 O   0  0  0  0  0  0  0  0  0  0  0  0
    6.8954  -16.3871   22.2630 C   0  0  0  0  0  0  0  0  0  0  0  0
    6.2513  -15.0192   22.0521 C   0  0  0  0  0  0  0  0  0  0  0  0
    7.3106  -13.9386   22.0975 C   0  0  2  0  0  0  0  0  0  0  0  0
    8.1879  -14.2151   20.9548 N   0  0  0  0  0  0  0  0  0  0  0  0
    8.0997  -13.9777   23.3385 C   0  0  0  0  0  0  0  0  0  0  0  0
    9.3005  -14.3467   23.2728 O   0  0  0  0  0  0  0  0  0  0  0  0
    7.5853  -13.6226   24.6103 N   0  0  0  0  0  0  0  0  0  0  0  0
    6.2668  -13.1060   24.9475 C   0  0  0  0  0  0  0  0  0  0  0  0
    6.6436  -11.9632   25.9013 C   0  0  0  0  0  0  0  0  0  0  0  0
    7.6360  -12.7092   26.8034 C   0  0  0  0  0  0  0  0  0  0  0  0
    8.2902  -13.6990   25.8753 C   0  0  1  0  0  0  0  0  0  0  0  0
    8.1222  -15.0569   26.4671 C   0  0  0  0  0  0  0  0  0  0  0  0
    7.0337  -15.6852   26.4482 O   0  0  0  0  0  0  0  0  0  0  0  0
    9.2277  -15.6886   27.0854 N   0  0  0  0  0  0  0  0  0  0  0  0
    9.3120  -17.1554   27.1877 C   0  0  1  0  0  0  0  0  0  0  0  0
    9.5950  -17.7585   25.8490 C   0  0  0  0  0  0  0  0  0  0  0  0
   10.9892  -17.6815   25.3631 C   0  0  0  0  0  0  0  0  0  0  0  0
   11.2693  -18.1601   23.9873 C   0  0  0  0  0  0  0  0  0  0  0  0
   12.7502  -18.0944   23.6362 C   0  0  0  0  0  0  0  0  0  0  0  0
   12.8976  -18.4224   22.2454 N   0  0  0  0  0  0  0  0  0  0  0  0
   10.2152  -17.4882   28.2812 C   0  0  0  0  0  0  0  0  0  0  0  0
   10.9882  -16.6678   28.8223 O   0  0  0  0  0  0  0  0  0  0  0  0
   10.2634  -18.7902   28.7954 O   0  0  0  0  0  0  0  0  0  0  0  0
  2  1  1  0
  3  2  2  0
  4  2  1  0
  5  4  1  0
  6  8  1  0
  6  5  1  0
  6  7  1  6
  8  9  2  0
  8 10  1  0
 10 14  1  0
 10 11  1  0
 12 11  1  0
 13 14  1  0
 13 12  1  0
 15 17  1  0
 14 15  1  1
 16 15  2  0
 18 17  1  0
 18 19  1  6
 20 19  1  0
 21 20  1  0
 22 21  1  0
 23 22  1  0
 24 18  1  0
 25 24  2  0
 26 24  1  0
M  END
$$$$
