QPK.pdb
     RDKit          3D

 26 26  0  0  1  0  0  0  0  0999 V2000
    5.7832  -18.9264   17.7895 N   0  0  0  0  0  0  0  0  0  0  0  0
    7.1812  -19.1136   17.8544 C   0  0  0  0  0  0  0  0  0  0  0  0
    7.5961  -20.2149   18.2990 O   0  0  0  0  0  0  0  0  0  0  0  0
    8.1485  -18.0782   17.4254 C   0  0  0  0  0  0  0  0  0  0  0  0
    7.3921  -16.8373   16.9583 C   0  0  0  0  0  0  0  0  0  0  0  0
    8.3659  -15.7077   16.6988 C   0  0  2  0  0  0  0  0  0  0  0  0
    9.3119  -16.2379   15.7109 N   0  0  0  0  0  0  0  0  0  0  0  0
    9.0991  -15.3090   17.9104 C   0  0  0  0  0  0  0  0  0  0  0  0
   10.3067  -15.6445   18.0168 O   0  0  0  0  0  0  0  0  0  0  0  0
    8.5231  -14.5656   18.9705 N   0  0  0  0  0  0  0  0  0  0  0  0
    7.1734  -14.0310   19.0797 C   0  0  0  0  0  0  0  0  0  0  0  0
    7.4688  -12.6133   19.5902 C   0  0  0  0  0  0  0  0  0  0  0  0
    8.4544  -12.9546   20.7159 C   0  0  0  0  0  0  0  0  0  0  0  0
    9.1817  -14.1687   20.1999 C   0  0  1  0  0  0  0  0  0  0  0  0
    9.0443  -15.2481   21.2190 C   0  0  0  0  0  0  0  0  0  0  0  0
    8.0715  -16.0435   21.2510 O   0  0  0  0  0  0  0  0  0  0  0  0
   10.0452  -15.4036   22.2077 N   0  0  0  0  0  0  0  0  0  0  0  0
   10.1544  -16.6417   22.9978 C   0  0  1  0  0  0  0  0  0  0  0  0
   10.9543  -17.6661   22.2584 C   0  0  0  0  0  0  0  0  0  0  0  0
   11.2313  -18.9347   22.9652 C   0  0  0  0  0  0  0  0  0  0  0  0
   12.1302  -19.9122   22.3044 C   0  0  0  0  0  0  0  0  0  0  0  0
   12.3802  -21.1474   23.1604 C   0  0  0  0  0  0  0  0  0  0  0  0
   13.2735  -22.0164   22.4460 N   0  0  0  0  0  0  0  0  0  0  0  0
   10.5882  -16.2908   24.3435 C   0  0  0  0  0  0  0  0  0  0  0  0
   10.3639  -16.9918   25.3542 O   0  0  0  0  0  0  0  0  0  0  0  0
   11.3012  -15.1081   24.5775 O   0  0  0  0  0  0  0  0  0  0  0  0
  2  1  1  0
  3  2  2  0
  4  2  1  0
  5  4  1  0
  6  8  1  0
  6  5  1  0
  6  7  1  6
  8  9  2  0
  8 10  1  0
 10 14  1  0
 10 11  1  0
 12 11  1  0
 13 14  1  0
 13 12  1  0
 15 17  1  0
 14 15  1  1
 16 15  2  0
 18 17  1  0
 18 19  1  6
 20 19  1  0
 21 20  1  0
 22 21  1  0
 23 22  1  0
 24 18  1  0
 25 24  2  0
 26 24  1  0
M  END
$$$$
