DSN.pdb
     RDKit          3D

 23 22  0  0  1  0  0  0  0  0999 V2000
   19.2412  -12.8978  -18.4137 N   0  0  0  0  0  0  0  0  0  0  0  0
   18.5135  -11.6611  -18.2119 C   0  0  1  0  0  0  0  0  0  0  0  0
   17.5896  -11.8298  -17.0325 C   0  0  0  0  0  0  0  0  0  0  0  0
   16.3557  -12.5492  -17.4061 C   0  0  0  0  0  0  0  0  0  0  0  0
   16.1524  -12.8399  -18.5983 O   0  0  0  0  0  0  0  0  0  0  0  0
   19.4966  -10.5819  -17.8403 C   0  0  0  0  0  0  0  0  0  0  0  0
   20.4246  -10.8017  -17.0207 O   0  0  0  0  0  0  0  0  0  0  0  0
   15.4492  -12.8880  -16.4360 O   0  0  0  0  0  0  0  0  0  0  0  0
   20.7314   -7.6298  -20.4071 O   0  0  0  0  0  0  0  0  0  0  0  0
   20.1418   -7.1686  -19.2075 C   0  0  0  0  0  0  0  0  0  0  0  0
   20.3997   -8.2466  -18.1740 C   0  0  2  0  0  0  0  0  0  0  0  0
   19.4071   -9.2825  -18.4031 N   0  0  0  0  0  0  0  0  0  0  0  0
   20.2467   -7.6231  -16.8407 C   0  0  0  0  0  0  0  0  0  0  0  0
   19.0985   -7.4459  -16.3930 O   0  0  0  0  0  0  0  0  0  0  0  0
   22.3959   -6.7338  -11.3767 N   0  0  0  0  0  0  0  0  0  0  0  0
   21.3355   -6.8785  -12.2953 C   0  0  0  0  0  0  0  0  0  0  0  0
   20.2040   -6.4857  -11.9543 O   0  0  0  0  0  0  0  0  0  0  0  0
   21.5635   -7.4689  -13.5980 C   0  0  0  0  0  0  0  0  0  0  0  0
   21.2131   -6.5774  -14.7613 C   0  0  2  0  0  0  0  0  0  0  0  0
   21.3427   -7.2107  -16.0329 N   0  0  0  0  0  0  0  0  0  0  0  0
   21.9524   -5.2746  -14.6916 C   0  0  0  0  0  0  0  0  0  0  0  0
   21.5245   -4.2277  -13.8978 O   0  0  0  0  0  0  0  0  0  0  0  0
   23.0059   -5.0793  -15.3618 O   0  0  0  0  0  0  0  0  0  0  0  0
  2  1  1  1
  2  3  1  0
  3  4  1  0
  4  5  2  0
  4  8  1  0
  6 12  1  0
  6  2  1  0
  7  6  2  0
  9 10  1  0
 11 10  1  6
 11 13  1  0
 11 12  1  0
 13 20  1  0
 14 13  2  0
 16 15  1  0
 16 17  2  0
 18 16  1  0
 19 21  1  0
 19 18  1  1
 20 19  1  0
 21 22  1  0
 23 21  2  0
M  END
$$$$
