DSN.pdb
     RDKit          3D

 23 22  0  0  1  0  0  0  0  0999 V2000
   14.7048  -11.7116   -9.9276 N   0  0  0  0  0  0  0  0  0  0  0  0
   14.3707  -10.3297  -10.2077 C   0  0  1  0  0  0  0  0  0  0  0  0
   13.3426   -9.8675   -9.2064 C   0  0  0  0  0  0  0  0  0  0  0  0
   12.0356  -10.5169   -9.4290 C   0  0  0  0  0  0  0  0  0  0  0  0
   11.9281  -11.3953  -10.3031 O   0  0  0  0  0  0  0  0  0  0  0  0
   15.5989   -9.4857   -9.9876 C   0  0  0  0  0  0  0  0  0  0  0  0
   16.1981   -9.4853   -8.8820 O   0  0  0  0  0  0  0  0  0  0  0  0
   10.9567  -10.1447   -8.6707 O   0  0  0  0  0  0  0  0  0  0  0  0
   17.5319   -8.5498  -13.1164 O   0  0  0  0  0  0  0  0  0  0  0  0
   18.2972   -8.3973  -11.9372 C   0  0  0  0  0  0  0  0  0  0  0  0
   17.3388   -7.8868  -10.8802 C   0  0  2  0  0  0  0  0  0  0  0  0
   16.1192   -8.6639  -11.0205 N   0  0  0  0  0  0  0  0  0  0  0  0
   17.1099   -6.4501  -11.1511 C   0  0  0  0  0  0  0  0  0  0  0  0
   16.2854   -6.1322  -12.0282 O   0  0  0  0  0  0  0  0  0  0  0  0
   17.2941   -2.5379   -7.3363 N   0  0  0  0  0  0  0  0  0  0  0  0
   16.9753   -2.9864   -8.6348 C   0  0  0  0  0  0  0  0  0  0  0  0
   15.7920   -3.2878   -8.8792 O   0  0  0  0  0  0  0  0  0  0  0  0
   18.0014   -3.0913   -9.6515 C   0  0  0  0  0  0  0  0  0  0  0  0
   17.6639   -4.0182  -10.7907 C   0  0  2  0  0  0  0  0  0  0  0  0
   17.7814   -5.4016  -10.4631 N   0  0  0  0  0  0  0  0  0  0  0  0
   18.4245   -3.6562  -12.0315 C   0  0  0  0  0  0  0  0  0  0  0  0
   19.2058   -4.5727  -12.7087 O   0  0  0  0  0  0  0  0  0  0  0  0
   18.3815   -2.4883  -12.5123 O   0  0  0  0  0  0  0  0  0  0  0  0
  2  1  1  1
  2  3  1  0
  3  4  1  0
  4  5  2  0
  4  8  1  0
  6 12  1  0
  6  2  1  0
  7  6  2  0
  9 10  1  0
 11 10  1  6
 11 13  1  0
 11 12  1  0
 13 20  1  0
 14 13  2  0
 16 15  1  0
 16 17  2  0
 18 16  1  0
 19 21  1  0
 19 18  1  1
 20 19  1  0
 21 22  1  0
 23 21  2  0
M  END
$$$$
