DSN.pdb
     RDKit          3D

 23 22  0  0  1  0  0  0  0  0999 V2000
   17.6557  -12.3657  -16.6437 N   0  0  0  0  0  0  0  0  0  0  0  0
   18.4498  -11.2923  -17.2065 C   0  0  1  0  0  0  0  0  0  0  0  0
   17.5367  -10.3567  -17.9574 C   0  0  0  0  0  0  0  0  0  0  0  0
   16.9665  -10.9995  -19.1579 C   0  0  0  0  0  0  0  0  0  0  0  0
   17.7096  -11.6417  -19.9212 O   0  0  0  0  0  0  0  0  0  0  0  0
   19.0497  -10.4969  -16.0765 C   0  0  0  0  0  0  0  0  0  0  0  0
   18.3220   -9.9384  -15.2164 O   0  0  0  0  0  0  0  0  0  0  0  0
   15.6262  -10.8813  -19.4174 O   0  0  0  0  0  0  0  0  0  0  0  0
   23.0402  -10.2999  -15.9414 O   0  0  0  0  0  0  0  0  0  0  0  0
   22.4482  -10.1207  -14.6699 C   0  0  0  0  0  0  0  0  0  0  0  0
   21.0784   -9.5256  -14.9270 C   0  0  2  0  0  0  0  0  0  0  0  0
   20.4551  -10.3523  -15.9463 N   0  0  0  0  0  0  0  0  0  0  0  0
   21.2831   -8.1366  -15.3945 C   0  0  0  0  0  0  0  0  0  0  0  0
   21.3836   -7.9273  -16.6177 O   0  0  0  0  0  0  0  0  0  0  0  0
   21.9169   -3.0488  -15.8628 N   0  0  0  0  0  0  0  0  0  0  0  0
   20.6490   -3.6480  -16.0125 C   0  0  0  0  0  0  0  0  0  0  0  0
   19.7455   -2.9851  -16.5558 O   0  0  0  0  0  0  0  0  0  0  0  0
   20.4113   -4.9979  -15.5448 C   0  0  0  0  0  0  0  0  0  0  0  0
   21.6178   -5.6783  -14.9515 C   0  0  2  0  0  0  0  0  0  0  0  0
   21.3726   -7.0165  -14.5222 N   0  0  0  0  0  0  0  0  0  0  0  0
   22.2451   -4.8381  -13.8794 C   0  0  0  0  0  0  0  0  0  0  0  0
   22.4278   -5.3049  -12.5918 O   0  0  0  0  0  0  0  0  0  0  0  0
   22.6357   -3.6590  -14.1117 O   0  0  0  0  0  0  0  0  0  0  0  0
  2  1  1  1
  2  3  1  0
  3  4  1  0
  4  5  2  0
  4  8  1  0
  6 12  1  0
  6  2  1  0
  7  6  2  0
  9 10  1  0
 11 10  1  6
 11 13  1  0
 11 12  1  0
 13 20  1  0
 14 13  2  0
 16 15  1  0
 16 17  2  0
 18 16  1  0
 19 21  1  0
 19 18  1  1
 20 19  1  0
 21 22  1  0
 23 21  2  0
M  END
$$$$
