DSN.pdb
     RDKit          3D

 23 22  0  0  1  0  0  0  0  0999 V2000
   18.1112  -12.5887  -15.7769 N   0  0  0  0  0  0  0  0  0  0  0  0
   18.2676  -11.2768  -16.3720 C   0  0  1  0  0  0  0  0  0  0  0  0
   16.9226  -10.5963  -16.4045 C   0  0  0  0  0  0  0  0  0  0  0  0
   16.0718  -11.1237  -17.4896 C   0  0  0  0  0  0  0  0  0  0  0  0
   16.5943  -11.7462  -18.4313 O   0  0  0  0  0  0  0  0  0  0  0  0
   19.1508  -10.4469  -15.4773 C   0  0  0  0  0  0  0  0  0  0  0  0
   18.7708  -10.0989  -14.3302 O   0  0  0  0  0  0  0  0  0  0  0  0
   14.7172  -10.9216  -17.4470 O   0  0  0  0  0  0  0  0  0  0  0  0
   22.6714   -9.1692  -16.9941 O   0  0  0  0  0  0  0  0  0  0  0  0
   22.7207   -9.4265  -15.6046 C   0  0  0  0  0  0  0  0  0  0  0  0
   21.3138   -9.2018  -15.0880 C   0  0  2  0  0  0  0  0  0  0  0  0
   20.4398  -10.0311  -15.8999 N   0  0  0  0  0  0  0  0  0  0  0  0
   21.0112   -7.7621  -15.2482 C   0  0  0  0  0  0  0  0  0  0  0  0
   20.2194   -7.4148  -16.1440 O   0  0  0  0  0  0  0  0  0  0  0  0
   20.6342   -2.6402  -14.7801 N   0  0  0  0  0  0  0  0  0  0  0  0
   19.5845   -3.5671  -14.6130 C   0  0  0  0  0  0  0  0  0  0  0  0
   18.4225   -3.1294  -14.5189 O   0  0  0  0  0  0  0  0  0  0  0  0
   19.8579   -4.9882  -14.5532 C   0  0  0  0  0  0  0  0  0  0  0  0
   21.3206   -5.3483  -14.5933 C   0  0  2  0  0  0  0  0  0  0  0  0
   21.5760   -6.7426  -14.4327 N   0  0  0  0  0  0  0  0  0  0  0  0
   22.1155   -4.5063  -13.6404 C   0  0  0  0  0  0  0  0  0  0  0  0
   22.8417   -5.0572  -12.6020 O   0  0  0  0  0  0  0  0  0  0  0  0
   22.1539   -3.2479  -13.7491 O   0  0  0  0  0  0  0  0  0  0  0  0
  2  1  1  1
  2  3  1  0
  3  4  1  0
  4  5  2  0
  4  8  1  0
  6 12  1  0
  6  2  1  0
  7  6  2  0
  9 10  1  0
 11 10  1  6
 11 13  1  0
 11 12  1  0
 13 20  1  0
 14 13  2  0
 16 15  1  0
 16 17  2  0
 18 16  1  0
 19 21  1  0
 19 18  1  1
 20 19  1  0
 21 22  1  0
 23 21  2  0
M  END
$$$$
