DSN.pdb
     RDKit          3D

 23 22  0  0  1  0  0  0  0  0999 V2000
   28.1280  -21.6154  -18.5946 N   0  0  0  0  0  0  0  0  0  0  0  0
   27.8394  -22.1300  -17.2711 C   0  0  1  0  0  0  0  0  0  0  0  0
   29.1160  -22.1473  -16.4692 C   0  0  0  0  0  0  0  0  0  0  0  0
   30.0667  -23.1543  -16.9809 C   0  0  0  0  0  0  0  0  0  0  0  0
   30.7033  -22.9225  -18.0240 O   0  0  0  0  0  0  0  0  0  0  0  0
   26.9059  -21.1724  -16.5777 C   0  0  0  0  0  0  0  0  0  0  0  0
   26.7017  -21.2454  -15.3390 O   0  0  0  0  0  0  0  0  0  0  0  0
   30.2366  -24.3319  -16.3012 O   0  0  0  0  0  0  0  0  0  0  0  0
   24.9812  -18.6289  -18.9138 O   0  0  0  0  0  0  0  0  0  0  0  0
   25.2083  -18.0371  -17.6498 C   0  0  0  0  0  0  0  0  0  0  0  0
   25.3497  -19.1849  -16.6705 C   0  0  2  0  0  0  0  0  0  0  0  0
   26.2270  -20.1572  -17.2998 N   0  0  0  0  0  0  0  0  0  0  0  0
   23.9956  -19.7346  -16.4386 C   0  0  0  0  0  0  0  0  0  0  0  0
   23.6505  -20.7546  -17.0637 O   0  0  0  0  0  0  0  0  0  0  0  0
   19.2614  -20.7809  -14.6311 N   0  0  0  0  0  0  0  0  0  0  0  0
   20.2495  -20.7616  -13.6251 C   0  0  0  0  0  0  0  0  0  0  0  0
   19.9725  -21.2616  -12.5187 O   0  0  0  0  0  0  0  0  0  0  0  0
   21.5490  -20.1746  -13.8788 C   0  0  0  0  0  0  0  0  0  0  0  0
   21.7529  -19.6869  -15.2899 C   0  0  2  0  0  0  0  0  0  0  0  0
   23.0564  -19.1623  -15.5364 N   0  0  0  0  0  0  0  0  0  0  0  0
   20.6662  -18.7389  -15.7013 C   0  0  0  0  0  0  0  0  0  0  0  0
   19.4801  -19.1769  -16.2585 O   0  0  0  0  0  0  0  0  0  0  0  0
   20.7920  -17.4901  -15.5540 O   0  0  0  0  0  0  0  0  0  0  0  0
  2  1  1  6
  2  3  1  0
  3  4  1  0
  4  5  2  0
  4  8  1  0
  6 12  1  0
  6  2  1  0
  7  6  2  0
  9 10  1  0
 11 10  1  6
 11 13  1  0
 11 12  1  0
 13 20  1  0
 14 13  2  0
 16 15  1  0
 16 17  2  0
 18 16  1  0
 19 21  1  0
 19 18  1  1
 20 19  1  0
 21 22  1  0
 23 21  2  0
M  END
$$$$
