DSN.pdb
     RDKit          3D

 23 22  0  0  1  0  0  0  0  0999 V2000
   23.5507  -12.3594  -19.2518 N   0  0  0  0  0  0  0  0  0  0  0  0
   24.6426  -11.7477  -18.5217 C   0  0  1  0  0  0  0  0  0  0  0  0
   25.9386  -12.0903  -19.2118 C   0  0  0  0  0  0  0  0  0  0  0  0
   26.1955  -13.5441  -19.1966 C   0  0  0  0  0  0  0  0  0  0  0  0
   25.4708  -14.2879  -18.5120 O   0  0  0  0  0  0  0  0  0  0  0  0
   24.4930  -10.2508  -18.6010 C   0  0  0  0  0  0  0  0  0  0  0  0
   25.2749   -9.4854  -17.9814 O   0  0  0  0  0  0  0  0  0  0  0  0
   27.2287  -14.0568  -19.9363 O   0  0  0  0  0  0  0  0  0  0  0  0
   21.9214   -6.6039  -20.4872 O   0  0  0  0  0  0  0  0  0  0  0  0
   22.0836   -8.0051  -20.3876 C   0  0  0  0  0  0  0  0  0  0  0  0
   23.2122   -8.2258  -19.4006 C   0  0  2  0  0  0  0  0  0  0  0  0
   23.4649   -9.6563  -19.3773 N   0  0  0  0  0  0  0  0  0  0  0  0
   22.7507   -7.7271  -18.0861 C   0  0  0  0  0  0  0  0  0  0  0  0
   22.4527   -8.5547  -17.2049 O   0  0  0  0  0  0  0  0  0  0  0  0
   23.0960   -4.4315  -13.7774 N   0  0  0  0  0  0  0  0  0  0  0  0
   22.6894   -5.7512  -14.0635 C   0  0  0  0  0  0  0  0  0  0  0  0
   22.0516   -6.3722  -13.1926 O   0  0  0  0  0  0  0  0  0  0  0  0
   23.0084   -6.3615  -15.3376 C   0  0  0  0  0  0  0  0  0  0  0  0
   22.1983   -5.8482  -16.5000 C   0  0  2  0  0  0  0  0  0  0  0  0
   22.6262   -6.3465  -17.7663 N   0  0  0  0  0  0  0  0  0  0  0  0
   22.0990   -4.3520  -16.4765 C   0  0  0  0  0  0  0  0  0  0  0  0
   22.9772   -3.5456  -17.1748 O   0  0  0  0  0  0  0  0  0  0  0  0
   21.2003   -3.7627  -15.8116 O   0  0  0  0  0  0  0  0  0  0  0  0
  2  1  1  6
  2  3  1  0
  3  4  1  0
  4  5  2  0
  4  8  1  0
  6 12  1  0
  6  2  1  0
  7  6  2  0
  9 10  1  0
 11 10  1  6
 11 13  1  0
 11 12  1  0
 13 20  1  0
 14 13  2  0
 16 15  1  0
 16 17  2  0
 18 16  1  0
 19 21  1  0
 19 18  1  1
 20 19  1  0
 21 22  1  0
 23 21  2  0
M  END
$$$$
