DSN.pdb
     RDKit          3D

 23 22  0  0  1  0  0  0  0  0999 V2000
   17.4331  -12.2734  -16.9552 N   0  0  0  0  0  0  0  0  0  0  0  0
   16.8022  -11.1119  -16.3615 C   0  0  1  0  0  0  0  0  0  0  0  0
   16.7040  -11.3227  -14.8718 C   0  0  0  0  0  0  0  0  0  0  0  0
   15.7678  -12.4140  -14.5370 C   0  0  0  0  0  0  0  0  0  0  0  0
   14.6561  -12.4608  -15.0931 O   0  0  0  0  0  0  0  0  0  0  0  0
   17.6988   -9.9198  -16.5715 C   0  0  0  0  0  0  0  0  0  0  0  0
   18.9466  -10.0146  -16.4471 O   0  0  0  0  0  0  0  0  0  0  0  0
   16.1339  -13.3622  -13.6180 O   0  0  0  0  0  0  0  0  0  0  0  0
   16.6194   -6.7032  -18.9821 O   0  0  0  0  0  0  0  0  0  0  0  0
   17.0408   -6.3985  -17.6671 C   0  0  0  0  0  0  0  0  0  0  0  0
   17.9909   -7.5086  -17.2651 C   0  0  2  0  0  0  0  0  0  0  0  0
   17.1645   -8.6515  -16.9164 N   0  0  0  0  0  0  0  0  0  0  0  0
   18.7722   -7.0207  -16.1070 C   0  0  0  0  0  0  0  0  0  0  0  0
   18.5803   -7.5450  -14.9941 O   0  0  0  0  0  0  0  0  0  0  0  0
   22.3175   -4.8784  -13.0345 N   0  0  0  0  0  0  0  0  0  0  0  0
   22.1823   -6.2454  -13.3540 C   0  0  0  0  0  0  0  0  0  0  0  0
   22.8422   -7.0715  -12.6961 O   0  0  0  0  0  0  0  0  0  0  0  0
   21.2982   -6.6698  -14.4199 C   0  0  0  0  0  0  0  0  0  0  0  0
   20.5558   -5.5504  -15.1029 C   0  0  2  0  0  0  0  0  0  0  0  0
   19.7380   -5.9795  -16.1901 N   0  0  0  0  0  0  0  0  0  0  0  0
   21.4831   -4.4365  -15.4879 C   0  0  0  0  0  0  0  0  0  0  0  0
   21.6662   -3.3231  -14.6903 O   0  0  0  0  0  0  0  0  0  0  0  0
   22.1406   -4.4710  -16.5666 O   0  0  0  0  0  0  0  0  0  0  0  0
  2  1  1  6
  2  3  1  0
  3  4  1  0
  4  5  2  0
  4  8  1  0
  6 12  1  0
  6  2  1  0
  7  6  2  0
  9 10  1  0
 11 10  1  1
 11 13  1  0
 11 12  1  0
 13 20  1  0
 14 13  2  0
 16 15  1  0
 16 17  2  0
 18 16  1  0
 19 21  1  0
 19 18  1  6
 20 19  1  0
 21 22  1  0
 23 21  2  0
M  END
$$$$
