DSN.pdb
     RDKit          3D

 23 22  0  0  1  0  0  0  0  0999 V2000
   22.9750  -32.3934  -14.6998 N   0  0  0  0  0  0  0  0  0  0  0  0
   22.1440  -32.5302  -13.5207 C   0  0  1  0  0  0  0  0  0  0  0  0
   20.9584  -33.3969  -13.8617 C   0  0  0  0  0  0  0  0  0  0  0  0
   19.6832  -32.7255  -13.5413 C   0  0  0  0  0  0  0  0  0  0  0  0
   19.6256  -31.4829  -13.5482 O   0  0  0  0  0  0  0  0  0  0  0  0
   22.9277  -33.2652  -12.4648 C   0  0  0  0  0  0  0  0  0  0  0  0
   22.3641  -34.0670  -11.6769 O   0  0  0  0  0  0  0  0  0  0  0  0
   18.5785  -33.4782  -13.2403 O   0  0  0  0  0  0  0  0  0  0  0  0
   26.8472  -34.2481  -12.7704 O   0  0  0  0  0  0  0  0  0  0  0  0
   26.5692  -33.4582  -11.6311 C   0  0  0  0  0  0  0  0  0  0  0  0
   25.1161  -33.7175  -11.2874 C   0  0  2  0  0  0  0  0  0  0  0  0
   24.3269  -33.0764  -12.3251 N   0  0  0  0  0  0  0  0  0  0  0  0
   24.8654  -33.1198   -9.9571 C   0  0  0  0  0  0  0  0  0  0  0  0
   24.2282  -32.0521   -9.8930 O   0  0  0  0  0  0  0  0  0  0  0  0
   22.8751  -32.1197   -4.9636 N   0  0  0  0  0  0  0  0  0  0  0  0
   23.1004  -33.1965   -5.8460 C   0  0  0  0  0  0  0  0  0  0  0  0
   22.9138  -34.3528   -5.4230 O   0  0  0  0  0  0  0  0  0  0  0  0
   23.5372  -32.9567   -7.2059 C   0  0  0  0  0  0  0  0  0  0  0  0
   25.0084  -33.1817   -7.4417 C   0  0  2  0  0  0  0  0  0  0  0  0
   25.3129  -33.6974   -8.7365 N   0  0  0  0  0  0  0  0  0  0  0  0
   25.6181  -33.9983   -6.3415 C   0  0  0  0  0  0  0  0  0  0  0  0
   25.7694  -33.5076   -5.0588 O   0  0  0  0  0  0  0  0  0  0  0  0
   26.0218  -35.1785   -6.5444 O   0  0  0  0  0  0  0  0  0  0  0  0
  2  1  1  6
  2  3  1  0
  3  4  1  0
  4  5  2  0
  4  8  1  0
  6 12  1  0
  6  2  1  0
  7  6  2  0
  9 10  1  0
 11 10  1  6
 11 13  1  0
 11 12  1  0
 13 20  1  0
 14 13  2  0
 16 15  1  0
 16 17  2  0
 18 16  1  0
 19 21  1  0
 19 18  1  1
 20 19  1  0
 21 22  1  0
 23 21  2  0
M  END
$$$$
