DSN.pdb
     RDKit          3D

 23 22  0  0  1  0  0  0  0  0999 V2000
   16.9293  -11.4505  -17.3715 N   0  0  0  0  0  0  0  0  0  0  0  0
   16.7469  -10.7340  -16.1253 C   0  0  1  0  0  0  0  0  0  0  0  0
   17.6782  -11.3153  -15.0918 C   0  0  0  0  0  0  0  0  0  0  0  0
   17.2292  -12.6481  -14.6427 C   0  0  0  0  0  0  0  0  0  0  0  0
   16.0119  -12.8940  -14.5733 O   0  0  0  0  0  0  0  0  0  0  0  0
   17.1675   -9.3021  -16.3299 C   0  0  0  0  0  0  0  0  0  0  0  0
   18.2381   -9.0174  -16.9250 O   0  0  0  0  0  0  0  0  0  0  0  0
   18.1580  -13.5981  -14.3077 O   0  0  0  0  0  0  0  0  0  0  0  0
   15.7673   -4.6867  -16.0228 O   0  0  0  0  0  0  0  0  0  0  0  0
   15.4721   -6.0316  -15.7010 C   0  0  0  0  0  0  0  0  0  0  0  0
   16.7010   -6.8319  -16.0830 C   0  0  2  0  0  0  0  0  0  0  0  0
   16.3693   -8.2283  -15.8578 N   0  0  0  0  0  0  0  0  0  0  0  0
   17.8079   -6.3816  -15.2102 C   0  0  0  0  0  0  0  0  0  0  0  0
   17.9751   -6.9520  -14.1162 O   0  0  0  0  0  0  0  0  0  0  0  0
   22.4715   -5.6197  -12.8620 N   0  0  0  0  0  0  0  0  0  0  0  0
   22.1476   -5.0209  -14.0971 C   0  0  0  0  0  0  0  0  0  0  0  0
   22.8178   -4.0394  -14.4688 O   0  0  0  0  0  0  0  0  0  0  0  0
   21.0634   -5.5386  -14.9060 C   0  0  0  0  0  0  0  0  0  0  0  0
   19.7406   -4.8469  -14.6998 C   0  0  2  0  0  0  0  0  0  0  0  0
   18.7001   -5.3268  -15.5495 N   0  0  0  0  0  0  0  0  0  0  0  0
   19.8897   -3.3560  -14.7619 C   0  0  0  0  0  0  0  0  0  0  0  0
   20.1098   -2.5913  -13.6323 O   0  0  0  0  0  0  0  0  0  0  0  0
   19.8194   -2.7329  -15.8590 O   0  0  0  0  0  0  0  0  0  0  0  0
  2  1  1  6
  2  3  1  0
  3  4  1  0
  4  5  2  0
  4  8  1  0
  6 12  1  0
  6  2  1  0
  7  6  2  0
  9 10  1  0
 11 10  1  1
 11 13  1  0
 11 12  1  0
 13 20  1  0
 14 13  2  0
 16 15  1  0
 16 17  2  0
 18 16  1  0
 19 21  1  0
 19 18  1  6
 20 19  1  0
 21 22  1  0
 23 21  2  0
M  END
$$$$
