DSN.pdb
     RDKit          3D

 23 22  0  0  1  0  0  0  0  0999 V2000
   28.5900  -26.0178  -17.0788 N   0  0  0  0  0  0  0  0  0  0  0  0
   27.2310  -25.5373  -17.2265 C   0  0  1  0  0  0  0  0  0  0  0  0
   26.3020  -26.4841  -16.5099 C   0  0  0  0  0  0  0  0  0  0  0  0
   25.9201  -27.6244  -17.3663 C   0  0  0  0  0  0  0  0  0  0  0  0
   25.3271  -27.4141  -18.4393 O   0  0  0  0  0  0  0  0  0  0  0  0
   27.1148  -24.2069  -16.5295 C   0  0  0  0  0  0  0  0  0  0  0  0
   27.7498  -23.9701  -15.4702 O   0  0  0  0  0  0  0  0  0  0  0  0
   26.2231  -28.9005  -16.9696 O   0  0  0  0  0  0  0  0  0  0  0  0
   25.7106  -19.6319  -16.9292 O   0  0  0  0  0  0  0  0  0  0  0  0
   25.6855  -20.9233  -17.5047 C   0  0  0  0  0  0  0  0  0  0  0  0
   26.1554  -21.8728  -16.4211 C   0  0  2  0  0  0  0  0  0  0  0  0
   26.2850  -23.1782  -17.0455 N   0  0  0  0  0  0  0  0  0  0  0  0
   25.1259  -21.8711  -15.3581 C   0  0  0  0  0  0  0  0  0  0  0  0
   24.1246  -22.5982  -15.4959 O   0  0  0  0  0  0  0  0  0  0  0  0
   26.5543  -21.7017  -10.6163 N   0  0  0  0  0  0  0  0  0  0  0  0
   25.1866  -21.5981  -10.9444 C   0  0  0  0  0  0  0  0  0  0  0  0
   24.3992  -22.4288  -10.4537 O   0  0  0  0  0  0  0  0  0  0  0  0
   24.7175  -20.5515  -11.8289 C   0  0  0  0  0  0  0  0  0  0  0  0
   24.2116  -21.0369  -13.1628 C   0  0  2  0  0  0  0  0  0  0  0  0
   25.2127  -21.0814  -14.1781 N   0  0  0  0  0  0  0  0  0  0  0  0
   22.9925  -20.2768  -13.5928 C   0  0  0  0  0  0  0  0  0  0  0  0
   21.7660  -20.4458  -12.9793 O   0  0  0  0  0  0  0  0  0  0  0  0
   23.0375  -19.4435  -14.5418 O   0  0  0  0  0  0  0  0  0  0  0  0
  2  1  1  1
  2  3  1  0
  3  4  1  0
  4  5  2  0
  4  8  1  0
  6 12  1  0
  6  2  1  0
  7  6  2  0
  9 10  1  0
 11 10  1  6
 11 13  1  0
 11 12  1  0
 13 20  1  0
 14 13  2  0
 16 15  1  0
 16 17  2  0
 18 16  1  0
 19 21  1  0
 19 18  1  1
 20 19  1  0
 21 22  1  0
 23 21  2  0
M  END
$$$$
