DSN.pdb
     RDKit          3D

 23 22  0  0  1  0  0  0  0  0999 V2000
   18.3700  -12.6159  -17.2752 N   0  0  0  0  0  0  0  0  0  0  0  0
   18.9264  -11.3658  -17.7518 C   0  0  1  0  0  0  0  0  0  0  0  0
   17.8011  -10.4909  -18.2430 C   0  0  0  0  0  0  0  0  0  0  0  0
   17.1598  -11.0541  -19.4476 C   0  0  0  0  0  0  0  0  0  0  0  0
   15.9201  -11.1428  -19.4978 O   0  0  0  0  0  0  0  0  0  0  0  0
   19.5566  -10.6470  -16.5875 C   0  0  0  0  0  0  0  0  0  0  0  0
   18.9442  -10.5131  -15.4974 O   0  0  0  0  0  0  0  0  0  0  0  0
   17.9370  -11.4722  -20.4958 O   0  0  0  0  0  0  0  0  0  0  0  0
   23.5433   -9.0863  -14.5351 O   0  0  0  0  0  0  0  0  0  0  0  0
   22.9764   -9.5492  -15.7450 C   0  0  0  0  0  0  0  0  0  0  0  0
   21.4821   -9.3321  -15.6161 C   0  0  2  0  0  0  0  0  0  0  0  0
   20.8613  -10.0979  -16.6833 N   0  0  0  0  0  0  0  0  0  0  0  0
   21.2342   -7.8807  -15.7644 C   0  0  0  0  0  0  0  0  0  0  0  0
   21.2588   -7.3847  -16.9061 O   0  0  0  0  0  0  0  0  0  0  0  0
   20.1411   -2.8872  -15.0499 N   0  0  0  0  0  0  0  0  0  0  0  0
   19.2811   -3.6819  -14.2641 C   0  0  0  0  0  0  0  0  0  0  0  0
   18.3187   -3.1275  -13.7008 O   0  0  0  0  0  0  0  0  0  0  0  0
   19.5168   -5.1037  -14.1202 C   0  0  0  0  0  0  0  0  0  0  0  0
   20.7707   -5.6031  -14.7903 C   0  0  2  0  0  0  0  0  0  0  0  0
   20.9672   -7.0110  -14.6708 N   0  0  0  0  0  0  0  0  0  0  0  0
   21.9715   -4.8177  -14.3542 C   0  0  0  0  0  0  0  0  0  0  0  0
   22.5163   -4.9478  -13.0911 O   0  0  0  0  0  0  0  0  0  0  0  0
   22.5389   -3.9979  -15.1307 O   0  0  0  0  0  0  0  0  0  0  0  0
  2  1  1  1
  2  3  1  0
  3  4  1  0
  4  5  2  0
  4  8  1  0
  6 12  1  0
  6  2  1  0
  7  6  2  0
  9 10  1  0
 11 10  1  6
 11 13  1  0
 11 12  1  0
 13 20  1  0
 14 13  2  0
 16 15  1  0
 16 17  2  0
 18 16  1  0
 19 21  1  0
 19 18  1  1
 20 19  1  0
 21 22  1  0
 23 21  2  0
M  END
$$$$
