KCW.pdb
     RDKit          3D

 30 31  0  0  1  0  0  0  0  0999 V2000
   20.0705  -22.3738  -16.8233 N   0  0  0  0  0  0  0  0  0  0  0  0
   20.2391  -21.4099  -15.7409 C   0  0  1  0  0  0  0  0  0  0  0  0
   18.8958  -21.1307  -15.0764 C   0  0  0  0  0  0  0  0  0  0  0  0
   18.1841  -19.9786  -15.7142 C   0  0  0  0  0  0  0  0  0  0  0  0
   19.0484  -18.7653  -15.9425 C   0  0  0  0  0  0  0  0  0  0  0  0
   18.1517  -17.6846  -16.5288 C   0  0  0  0  0  0  0  0  0  0  0  0
   18.8983  -16.4920  -16.8388 N   0  0  0  0  0  0  0  0  0  0  0  0
   21.0774  -22.0277  -14.6944 C   0  0  0  0  0  0  0  0  0  0  0  0
   20.5737  -22.5421  -13.6786 O   0  0  0  0  0  0  0  0  0  0  0  0
   22.4786  -22.0337  -14.8546 N   0  0  0  0  0  0  0  0  0  0  0  0
   23.2871  -22.7080  -13.8935 C   0  0  1  0  0  0  0  0  0  0  0  0
   24.2094  -23.7360  -14.5617 C   0  0  0  0  0  0  0  0  0  0  0  0
   25.2453  -22.8151  -15.7333 S   0  0  0  0  0  0  0  0  0  0  0  0
   24.1494  -21.7388  -13.1914 C   0  0  0  0  0  0  0  0  0  0  0  0
   24.4907  -20.6471  -13.7872 O   0  0  0  0  0  0  0  0  0  0  0  0
   24.6602  -21.8912  -11.8749 N   0  0  0  0  0  0  0  0  0  0  0  0
   25.8984  -21.2524  -11.4584 C   0  0  1  0  0  0  0  0  0  0  0  0
   26.5257  -22.1145  -10.3752 C   0  0  0  0  0  0  0  0  0  0  0  0
   27.6631  -21.4735   -9.7108 C   0  0  0  0  0  0  0  0  0  0  0  0
   28.9704  -21.5133  -10.1110 C   0  0  0  0  0  0  0  0  0  0  0  0
   29.6623  -20.7986   -9.2133 N   0  0  0  0  0  0  0  0  0  0  0  0
   28.8597  -20.3039   -8.2580 C   0  0  0  0  0  0  0  0  0  0  0  0
   29.0857  -19.5193   -7.1319 C   0  0  0  0  0  0  0  0  0  0  0  0
   28.0189  -19.1617   -6.3136 C   0  0  0  0  0  0  0  0  0  0  0  0
   26.7492  -19.5701   -6.5989 C   0  0  0  0  0  0  0  0  0  0  0  0
   26.5456  -20.3483   -7.7209 C   0  0  0  0  0  0  0  0  0  0  0  0
   27.5939  -20.7231   -8.5605 C   0  0  0  0  0  0  0  0  0  0  0  0
   26.8356  -21.0543  -12.5801 C   0  0  0  0  0  0  0  0  0  0  0  0
   27.3636  -19.7882  -12.8018 O   0  0  0  0  0  0  0  0  0  0  0  0
   27.1548  -22.0079  -13.3276 O   0  0  0  0  0  0  0  0  0  0  0  0
  2  1  1  6
  3  4  1  0
  3  2  1  0
  5  6  1  0
  5  4  1  0
  7  6  1  0
  8  2  1  0
  8 10  1  0
  9  8  2  0
 11 10  1  0
 11 12  1  6
 13 12  1  0
 14 11  1  0
 15 14  2  0
 16 14  1  0
 17 28  1  0
 17 16  1  0
 17 18  1  1
 19 18  1  0
 20 19  2  0
 21 20  1  0
 22 21  1  0
 22 27  2  0
 23 24  2  0
 23 22  1  0
 24 25  1  0
 25 26  2  0
 27 26  1  0
 27 19  1  0
 28 29  1  0
 30 28  2  0
M  END
$$$$
