KCW.pdb
     RDKit          3D

 30 31  0  0  1  0  0  0  0  0999 V2000
   28.0698  -20.8408  -15.5945 N   0  0  0  0  0  0  0  0  0  0  0  0
   27.7618  -20.1205  -14.3635 C   0  0  1  0  0  0  0  0  0  0  0  0
   27.1829  -18.7489  -14.6918 C   0  0  0  0  0  0  0  0  0  0  0  0
   28.0125  -18.0179  -15.7008 C   0  0  0  0  0  0  0  0  0  0  0  0
   28.1291  -18.7165  -17.0310 C   0  0  0  0  0  0  0  0  0  0  0  0
   28.1781  -17.6335  -18.0991 C   0  0  0  0  0  0  0  0  0  0  0  0
   29.3544  -17.7581  -18.9216 N   0  0  0  0  0  0  0  0  0  0  0  0
   26.6866  -20.8451  -13.6573 C   0  0  0  0  0  0  0  0  0  0  0  0
   25.9016  -21.5960  -14.2656 O   0  0  0  0  0  0  0  0  0  0  0  0
   26.5511  -20.6803  -12.2632 N   0  0  0  0  0  0  0  0  0  0  0  0
   25.5558  -21.4262  -11.5668 C   0  0  1  0  0  0  0  0  0  0  0  0
   25.9462  -21.6448  -10.0992 C   0  0  0  0  0  0  0  0  0  0  0  0
   26.2381  -19.9990   -9.3923 S   0  0  0  0  0  0  0  0  0  0  0  0
   24.2776  -20.6901  -11.5737 C   0  0  0  0  0  0  0  0  0  0  0  0
   24.2497  -19.4657  -11.1694 O   0  0  0  0  0  0  0  0  0  0  0  0
   23.0268  -21.2125  -11.9982 N   0  0  0  0  0  0  0  0  0  0  0  0
   21.8275  -20.3906  -12.0284 C   0  0  1  0  0  0  0  0  0  0  0  0
   22.0735  -19.2435  -12.9948 C   0  0  0  0  0  0  0  0  0  0  0  0
   22.0387  -19.6531  -14.4009 C   0  0  0  0  0  0  0  0  0  0  0  0
   20.9492  -20.1078  -15.0917 C   0  0  0  0  0  0  0  0  0  0  0  0
   21.3724  -20.3671  -16.3364 N   0  0  0  0  0  0  0  0  0  0  0  0
   22.6805  -20.1001  -16.4742 C   0  0  0  0  0  0  0  0  0  0  0  0
   23.5689  -20.1997  -17.5398 C   0  0  0  0  0  0  0  0  0  0  0  0
   24.9008  -19.8376  -17.3649 C   0  0  0  0  0  0  0  0  0  0  0  0
   25.3517  -19.3848  -16.1600 C   0  0  0  0  0  0  0  0  0  0  0  0
   24.4543  -19.2934  -15.1148 C   0  0  0  0  0  0  0  0  0  0  0  0
   23.1136  -19.6484  -15.2586 C   0  0  0  0  0  0  0  0  0  0  0  0
   20.6286  -21.1569  -12.4173 C   0  0  0  0  0  0  0  0  0  0  0  0
   19.3799  -20.5577  -12.3053 O   0  0  0  0  0  0  0  0  0  0  0  0
   20.7260  -22.3317  -12.8420 O   0  0  0  0  0  0  0  0  0  0  0  0
  2  1  1  6
  3  4  1  0
  3  2  1  0
  5  6  1  0
  5  4  1  0
  7  6  1  0
  8  2  1  0
  8 10  1  0
  9  8  2  0
 11 10  1  0
 11 12  1  1
 13 12  1  0
 14 11  1  0
 15 14  2  0
 16 14  1  0
 17 28  1  0
 17 16  1  0
 17 18  1  6
 19 18  1  0
 20 19  2  0
 21 20  1  0
 22 21  1  0
 22 27  2  0
 23 24  2  0
 23 22  1  0
 24 25  1  0
 25 26  2  0
 27 26  1  0
 27 19  1  0
 28 29  1  0
 30 28  2  0
M  END
$$$$
