KCW.pdb
     RDKit          3D

 30 31  0  0  1  0  0  0  0  0999 V2000
   27.3235  -22.1951  -15.2784 N   0  0  0  0  0  0  0  0  0  0  0  0
   27.8672  -20.9227  -14.8154 C   0  0  1  0  0  0  0  0  0  0  0  0
   28.1134  -19.9974  -16.0017 C   0  0  0  0  0  0  0  0  0  0  0  0
   28.3618  -20.7606  -17.2652 C   0  0  0  0  0  0  0  0  0  0  0  0
   29.8165  -20.8875  -17.6372 C   0  0  0  0  0  0  0  0  0  0  0  0
   29.8706  -21.5846  -18.9889 C   0  0  0  0  0  0  0  0  0  0  0  0
   31.2294  -21.7845  -19.4242 N   0  0  0  0  0  0  0  0  0  0  0  0
   26.8409  -20.2496  -13.9948 C   0  0  0  0  0  0  0  0  0  0  0  0
   26.9328  -19.0432  -13.7014 O   0  0  0  0  0  0  0  0  0  0  0  0
   25.7339  -20.9940  -13.5370 N   0  0  0  0  0  0  0  0  0  0  0  0
   24.7785  -20.3687  -12.6837 C   0  0  1  0  0  0  0  0  0  0  0  0
   23.3497  -20.5617  -13.2083 C   0  0  0  0  0  0  0  0  0  0  0  0
   22.2438  -19.8077  -11.9827 S   0  0  0  0  0  0  0  0  0  0  0  0
   24.8346  -20.9704  -11.3381 C   0  0  0  0  0  0  0  0  0  0  0  0
   24.7994  -22.2539  -11.2164 O   0  0  0  0  0  0  0  0  0  0  0  0
   24.9287  -20.2523  -10.1163 N   0  0  0  0  0  0  0  0  0  0  0  0
   24.7955  -20.9159   -8.8292 C   0  0  1  0  0  0  0  0  0  0  0  0
   25.4391  -20.0266   -7.7780 C   0  0  0  0  0  0  0  0  0  0  0  0
   26.8516  -20.3361   -7.5435 C   0  0  0  0  0  0  0  0  0  0  0  0
   27.6616  -21.1025   -8.3357 C   0  0  0  0  0  0  0  0  0  0  0  0
   28.8629  -21.1203   -7.7426 N   0  0  0  0  0  0  0  0  0  0  0  0
   28.8597  -20.4019   -6.6088 C   0  0  0  0  0  0  0  0  0  0  0  0
   29.8315  -20.1176   -5.6551 C   0  0  0  0  0  0  0  0  0  0  0  0
   29.5124  -19.3209   -4.5600 C   0  0  0  0  0  0  0  0  0  0  0  0
   28.2563  -18.8123   -4.4055 C   0  0  0  0  0  0  0  0  0  0  0  0
   27.3060  -19.1063   -5.3628 C   0  0  0  0  0  0  0  0  0  0  0  0
   27.5949  -19.9013   -6.4714 C   0  0  0  0  0  0  0  0  0  0  0  0
   23.3899  -21.2023   -8.4854 C   0  0  0  0  0  0  0  0  0  0  0  0
   23.1161  -22.0676   -7.4332 O   0  0  0  0  0  0  0  0  0  0  0  0
   22.4509  -20.6784   -9.1286 O   0  0  0  0  0  0  0  0  0  0  0  0
  2  1  1  6
  3  4  1  0
  3  2  1  0
  5  6  1  0
  5  4  1  0
  7  6  1  0
  8  2  1  0
  8 10  1  0
  9  8  2  0
 11 10  1  0
 11 12  1  6
 13 12  1  0
 14 11  1  0
 15 14  2  0
 16 14  1  0
 17 28  1  0
 17 16  1  0
 17 18  1  1
 19 18  1  0
 20 19  2  0
 21 20  1  0
 22 21  1  0
 22 27  2  0
 23 24  2  0
 23 22  1  0
 24 25  1  0
 25 26  2  0
 27 26  1  0
 27 19  1  0
 28 29  1  0
 30 28  2  0
M  END
$$$$
