KCW.pdb
     RDKit          3D

 30 31  0  0  1  0  0  0  0  0999 V2000
   27.6232  -22.5666  -18.2923 N   0  0  0  0  0  0  0  0  0  0  0  0
   26.7440  -21.8444  -17.3788 C   0  0  1  0  0  0  0  0  0  0  0  0
   25.5459  -22.7125  -17.0115 C   0  0  0  0  0  0  0  0  0  0  0  0
   25.5628  -24.0243  -17.7323 C   0  0  0  0  0  0  0  0  0  0  0  0
   25.6861  -25.2256  -16.8309 C   0  0  0  0  0  0  0  0  0  0  0  0
   24.2775  -25.5982  -16.3914 C   0  0  0  0  0  0  0  0  0  0  0  0
   24.2896  -26.3309  -15.1509 N   0  0  0  0  0  0  0  0  0  0  0  0
   27.4717  -21.6186  -16.1142 C   0  0  0  0  0  0  0  0  0  0  0  0
   28.5037  -22.2570  -15.8361 O   0  0  0  0  0  0  0  0  0  0  0  0
   26.9833  -20.6568  -15.2057 N   0  0  0  0  0  0  0  0  0  0  0  0
   27.7529  -20.3364  -14.0494 C   0  0  1  0  0  0  0  0  0  0  0  0
   28.0941  -18.8412  -14.0019 C   0  0  0  0  0  0  0  0  0  0  0  0
   26.5379  -17.9481  -14.2749 S   0  0  0  0  0  0  0  0  0  0  0  0
   26.9838  -20.6479  -12.8299 C   0  0  0  0  0  0  0  0  0  0  0  0
   25.7055  -20.4765  -12.8263 O   0  0  0  0  0  0  0  0  0  0  0  0
   27.5290  -21.1375  -11.6131 N   0  0  0  0  0  0  0  0  0  0  0  0
   26.7835  -21.0807  -10.3658 C   0  0  1  0  0  0  0  0  0  0  0  0
   27.7801  -20.8769   -9.2366 C   0  0  0  0  0  0  0  0  0  0  0  0
   27.1456  -20.7156   -7.9260 C   0  0  0  0  0  0  0  0  0  0  0  0
   25.8430  -20.9892   -7.6108 C   0  0  0  0  0  0  0  0  0  0  0  0
   25.6986  -20.6937   -6.3118 N   0  0  0  0  0  0  0  0  0  0  0  0
   26.8467  -20.2441   -5.7816 C   0  0  0  0  0  0  0  0  0  0  0  0
   27.2081  -19.8163   -4.5083 C   0  0  0  0  0  0  0  0  0  0  0  0
   28.5123  -19.3975   -4.2646 C   0  0  0  0  0  0  0  0  0  0  0  0
   29.4463  -19.3991   -5.2585 C   0  0  0  0  0  0  0  0  0  0  0  0
   29.0677  -19.8271   -6.5153 C   0  0  0  0  0  0  0  0  0  0  0  0
   27.7689  -20.2529   -6.7910 C   0  0  0  0  0  0  0  0  0  0  0  0
   25.7648  -20.0139  -10.3660 C   0  0  0  0  0  0  0  0  0  0  0  0
   24.4664  -20.3216   -9.9779 O   0  0  0  0  0  0  0  0  0  0  0  0
   26.0573  -18.8454  -10.7109 O   0  0  0  0  0  0  0  0  0  0  0  0
  2  1  1  6
  3  4  1  0
  3  2  1  0
  5  6  1  0
  5  4  1  0
  7  6  1  0
  8  2  1  0
  8 10  1  0
  9  8  2  0
 11 10  1  0
 11 12  1  6
 13 12  1  0
 14 11  1  0
 15 14  2  0
 16 14  1  0
 17 28  1  0
 17 16  1  0
 17 18  1  1
 19 18  1  0
 20 19  2  0
 21 20  1  0
 22 21  1  0
 22 27  2  0
 23 24  2  0
 23 22  1  0
 24 25  1  0
 25 26  2  0
 27 26  1  0
 27 19  1  0
 28 29  1  0
 30 28  2  0
M  END
$$$$
