KCW.pdb
     RDKit          3D

 30 31  0  0  1  0  0  0  0  0999 V2000
   28.4657  -21.1806  -15.7978 N   0  0  0  0  0  0  0  0  0  0  0  0
   28.1338  -20.2782  -14.7003 C   0  0  1  0  0  0  0  0  0  0  0  0
   27.6673  -18.9354  -15.2512 C   0  0  0  0  0  0  0  0  0  0  0  0
   28.3400  -18.5967  -16.5448 C   0  0  0  0  0  0  0  0  0  0  0  0
   27.4025  -18.4774  -17.7187 C   0  0  0  0  0  0  0  0  0  0  0  0
   28.2460  -18.0862  -18.9234 C   0  0  0  0  0  0  0  0  0  0  0  0
   27.4263  -17.8403  -20.0825 N   0  0  0  0  0  0  0  0  0  0  0  0
   26.9731  -20.8336  -13.9764 C   0  0  0  0  0  0  0  0  0  0  0  0
   26.2123  -21.6631  -14.5085 O   0  0  0  0  0  0  0  0  0  0  0  0
   26.7263  -20.4128  -12.6531 N   0  0  0  0  0  0  0  0  0  0  0  0
   25.6104  -20.9504  -11.9476 C   0  0  1  0  0  0  0  0  0  0  0  0
   25.6559  -20.5752  -10.4606 C   0  0  0  0  0  0  0  0  0  0  0  0
   24.1179  -21.1969   -9.7244 S   0  0  0  0  0  0  0  0  0  0  0  0
   24.3555  -20.4038  -12.4977 C   0  0  0  0  0  0  0  0  0  0  0  0
   24.1279  -19.1369  -12.4177 O   0  0  0  0  0  0  0  0  0  0  0  0
   23.3343  -21.1601  -13.1321 N   0  0  0  0  0  0  0  0  0  0  0  0
   22.0807  -20.5514  -13.5476 C   0  0  1  0  0  0  0  0  0  0  0  0
   21.9535  -20.7275  -15.0518 C   0  0  0  0  0  0  0  0  0  0  0  0
   20.7393  -20.1230  -15.6053 C   0  0  0  0  0  0  0  0  0  0  0  0
   20.3579  -18.8137  -15.4986 C   0  0  0  0  0  0  0  0  0  0  0  0
   19.1894  -18.7067  -16.1456 N   0  0  0  0  0  0  0  0  0  0  0  0
   18.8054  -19.8851  -16.6608 C   0  0  0  0  0  0  0  0  0  0  0  0
   17.6983  -20.2899  -17.3990 C   0  0  0  0  0  0  0  0  0  0  0  0
   17.5813  -21.6180  -17.7970 C   0  0  0  0  0  0  0  0  0  0  0  0
   18.5389  -22.5336  -17.4731 C   0  0  0  0  0  0  0  0  0  0  0  0
   19.6299  -22.1121  -16.7397 C   0  0  0  0  0  0  0  0  0  0  0  0
   19.7758  -20.7884  -16.3264 C   0  0  0  0  0  0  0  0  0  0  0  0
   20.9156  -21.1286  -12.8510 C   0  0  0  0  0  0  0  0  0  0  0  0
   19.8155  -20.3197  -12.5931 O   0  0  0  0  0  0  0  0  0  0  0  0
   20.9105  -22.3292  -12.4925 O   0  0  0  0  0  0  0  0  0  0  0  0
  2  1  1  6
  3  4  1  0
  3  2  1  0
  5  6  1  0
  5  4  1  0
  7  6  1  0
  8  2  1  0
  8 10  1  0
  9  8  2  0
 11 10  1  0
 11 12  1  1
 13 12  1  0
 14 11  1  0
 15 14  2  0
 16 14  1  0
 17 28  1  0
 17 16  1  0
 17 18  1  6
 19 18  1  0
 20 19  2  0
 21 20  1  0
 22 21  1  0
 22 27  2  0
 23 24  2  0
 23 22  1  0
 24 25  1  0
 25 26  2  0
 27 26  1  0
 27 19  1  0
 28 29  1  0
 30 28  2  0
M  END
$$$$
