KCW.pdb
     RDKit          3D

 30 31  0  0  1  0  0  0  0  0999 V2000
   29.0108  -19.2356  -19.5659 N   0  0  0  0  0  0  0  0  0  0  0  0
   28.4966  -18.7773  -18.2795 C   0  0  1  0  0  0  0  0  0  0  0  0
   28.1362  -17.2981  -18.3582 C   0  0  0  0  0  0  0  0  0  0  0  0
   28.9298  -16.5834  -19.4069 C   0  0  0  0  0  0  0  0  0  0  0  0
   29.9287  -15.5950  -18.8626 C   0  0  0  0  0  0  0  0  0  0  0  0
   30.6334  -14.9707  -20.0583 C   0  0  0  0  0  0  0  0  0  0  0  0
   31.7009  -14.0969  -19.6429 N   0  0  0  0  0  0  0  0  0  0  0  0
   27.2266  -19.4802  -18.0094 C   0  0  0  0  0  0  0  0  0  0  0  0
   26.1264  -18.9355  -18.2163 O   0  0  0  0  0  0  0  0  0  0  0  0
   27.2666  -20.7975  -17.5073 N   0  0  0  0  0  0  0  0  0  0  0  0
   26.0444  -21.4636  -17.2000 C   0  0  1  0  0  0  0  0  0  0  0  0
   26.0754  -22.9278  -17.6574 C   0  0  0  0  0  0  0  0  0  0  0  0
   27.4795  -23.7038  -16.8086 S   0  0  0  0  0  0  0  0  0  0  0  0
   25.8249  -21.4663  -15.7413 C   0  0  0  0  0  0  0  0  0  0  0  0
   26.8416  -21.4852  -14.9480 O   0  0  0  0  0  0  0  0  0  0  0  0
   24.5591  -21.4479  -15.0973 N   0  0  0  0  0  0  0  0  0  0  0  0
   24.4407  -21.4389  -13.6479 C   0  0  1  0  0  0  0  0  0  0  0  0
   24.9995  -20.1186  -13.1434 C   0  0  0  0  0  0  0  0  0  0  0  0
   25.0639  -20.0375  -11.6821 C   0  0  0  0  0  0  0  0  0  0  0  0
   24.0430  -19.6968  -10.8379 C   0  0  0  0  0  0  0  0  0  0  0  0
   24.5457  -19.7484   -9.5969 N   0  0  0  0  0  0  0  0  0  0  0  0
   25.8395  -20.1056   -9.6074 C   0  0  0  0  0  0  0  0  0  0  0  0
   26.7865  -20.2954   -8.6064 C   0  0  0  0  0  0  0  0  0  0  0  0
   28.0817  -20.6754   -8.9439 C   0  0  0  0  0  0  0  0  0  0  0  0
   28.4396  -20.8653  -10.2462 C   0  0  0  0  0  0  0  0  0  0  0  0
   27.4853  -20.6716  -11.2249 C   0  0  0  0  0  0  0  0  0  0  0  0
   26.1793  -20.2910  -10.9187 C   0  0  0  0  0  0  0  0  0  0  0  0
   23.0497  -21.6277  -13.1948 C   0  0  0  0  0  0  0  0  0  0  0  0
   22.7975  -22.4885  -12.1334 O   0  0  0  0  0  0  0  0  0  0  0  0
   22.1038  -21.0259  -13.7541 O   0  0  0  0  0  0  0  0  0  0  0  0
  2  1  1  6
  3  4  1  0
  3  2  1  0
  5  6  1  0
  5  4  1  0
  7  6  1  0
  8  2  1  0
  8 10  1  0
  9  8  2  0
 11 10  1  0
 11 12  1  1
 13 12  1  0
 14 11  1  0
 15 14  2  0
 16 14  1  0
 17 28  1  0
 17 16  1  0
 17 18  1  6
 19 18  1  0
 20 19  2  0
 21 20  1  0
 22 21  1  0
 22 27  2  0
 23 24  2  0
 23 22  1  0
 24 25  1  0
 25 26  2  0
 27 26  1  0
 27 19  1  0
 28 29  1  0
 30 28  2  0
M  END
$$$$
