KCW.pdb
     RDKit          3D

 30 31  0  0  1  0  0  0  0  0999 V2000
   19.2512  -21.5148  -14.9962 N   0  0  0  0  0  0  0  0  0  0  0  0
   20.5107  -20.9769  -15.4993 C   0  0  1  0  0  0  0  0  0  0  0  0
   20.6379  -19.5053  -15.1220 C   0  0  0  0  0  0  0  0  0  0  0  0
   20.6248  -18.6155  -16.3256 C   0  0  0  0  0  0  0  0  0  0  0  0
   21.8201  -18.7765  -17.2291 C   0  0  0  0  0  0  0  0  0  0  0  0
   21.9110  -17.5149  -18.0752 C   0  0  0  0  0  0  0  0  0  0  0  0
   22.6698  -16.4874  -17.4085 N   0  0  0  0  0  0  0  0  0  0  0  0
   21.6192  -21.6609  -14.8041 C   0  0  0  0  0  0  0  0  0  0  0  0
   21.4137  -22.3944  -13.8194 O   0  0  0  0  0  0  0  0  0  0  0  0
   22.9373  -21.4767  -15.2707 N   0  0  0  0  0  0  0  0  0  0  0  0
   23.9931  -22.2439  -14.6975 C   0  0  1  0  0  0  0  0  0  0  0  0
   24.9727  -22.7362  -15.7708 C   0  0  0  0  0  0  0  0  0  0  0  0
   26.2583  -23.6783  -14.9028 S   0  0  0  0  0  0  0  0  0  0  0  0
   24.7627  -21.4142  -13.7513 C   0  0  0  0  0  0  0  0  0  0  0  0
   25.0631  -20.2016  -14.0718 O   0  0  0  0  0  0  0  0  0  0  0  0
   25.2227  -21.8308  -12.4737 N   0  0  0  0  0  0  0  0  0  0  0  0
   26.0436  -20.9675  -11.6397 C   0  0  1  0  0  0  0  0  0  0  0  0
   26.2105  -21.6459  -10.2900 C   0  0  0  0  0  0  0  0  0  0  0  0
   26.5190  -20.7104   -9.2056 C   0  0  0  0  0  0  0  0  0  0  0  0
   25.6757  -19.7770   -8.6685 C   0  0  0  0  0  0  0  0  0  0  0  0
   26.3705  -19.1459   -7.7123 N   0  0  0  0  0  0  0  0  0  0  0  0
   27.6180  -19.6311   -7.6126 C   0  0  0  0  0  0  0  0  0  0  0  0
   28.7013  -19.3215   -6.7969 C   0  0  0  0  0  0  0  0  0  0  0  0
   29.8949  -20.0221   -6.9383 C   0  0  0  0  0  0  0  0  0  0  0  0
   30.0208  -21.0119   -7.8682 C   0  0  0  0  0  0  0  0  0  0  0  0
   28.9342  -21.3040   -8.6682 C   0  0  0  0  0  0  0  0  0  0  0  0
   27.7248  -20.6200   -8.5507 C   0  0  0  0  0  0  0  0  0  0  0  0
   27.3559  -20.6782  -12.2479 C   0  0  0  0  0  0  0  0  0  0  0  0
   27.7832  -19.3587  -12.3331 O   0  0  0  0  0  0  0  0  0  0  0  0
   28.0800  -21.6026  -12.6850 O   0  0  0  0  0  0  0  0  0  0  0  0
  2  1  1  1
  3  4  1  0
  3  2  1  0
  5  6  1  0
  5  4  1  0
  7  6  1  0
  8  2  1  0
  8 10  1  0
  9  8  2  0
 11 10  1  0
 11 12  1  6
 13 12  1  0
 14 11  1  0
 15 14  2  0
 16 14  1  0
 17 28  1  0
 17 16  1  0
 17 18  1  1
 19 18  1  0
 20 19  2  0
 21 20  1  0
 22 21  1  0
 22 27  2  0
 23 24  2  0
 23 22  1  0
 24 25  1  0
 25 26  2  0
 27 26  1  0
 27 19  1  0
 28 29  1  0
 30 28  2  0
M  END
$$$$
