KCW.pdb
     RDKit          3D

 30 31  0  0  1  0  0  0  0  0999 V2000
   26.8978  -19.9119  -19.8832 N   0  0  0  0  0  0  0  0  0  0  0  0
   26.5309  -18.8715  -18.9283 C   0  0  1  0  0  0  0  0  0  0  0  0
   25.3727  -18.0450  -19.4758 C   0  0  0  0  0  0  0  0  0  0  0  0
   25.8266  -17.0582  -20.5058 C   0  0  0  0  0  0  0  0  0  0  0  0
   26.4314  -15.8010  -19.9361 C   0  0  0  0  0  0  0  0  0  0  0  0
   26.8393  -14.9299  -21.1154 C   0  0  0  0  0  0  0  0  0  0  0  0
   27.4062  -13.6804  -20.6757 N   0  0  0  0  0  0  0  0  0  0  0  0
   26.0112  -19.5217  -17.7089 C   0  0  0  0  0  0  0  0  0  0  0  0
   25.3392  -20.5681  -17.7672 O   0  0  0  0  0  0  0  0  0  0  0  0
   26.2862  -18.9412  -16.4533 N   0  0  0  0  0  0  0  0  0  0  0  0
   25.8242  -19.5883  -15.2702 C   0  0  1  0  0  0  0  0  0  0  0  0
   26.7942  -19.3740  -14.1008 C   0  0  0  0  0  0  0  0  0  0  0  0
   27.3251  -17.6404  -14.1821 S   0  0  0  0  0  0  0  0  0  0  0  0
   24.5213  -19.0277  -14.8652 C   0  0  0  0  0  0  0  0  0  0  0  0
   24.4095  -17.7566  -14.6776 O   0  0  0  0  0  0  0  0  0  0  0  0
   23.3315  -19.7743  -14.6542 N   0  0  0  0  0  0  0  0  0  0  0  0
   22.0959  -19.1363  -14.2288 C   0  0  1  0  0  0  0  0  0  0  0  0
   21.6969  -18.1339  -15.2994 C   0  0  0  0  0  0  0  0  0  0  0  0
   21.3603  -18.7585  -16.5811 C   0  0  0  0  0  0  0  0  0  0  0  0
   20.5848  -19.8696  -16.7688 C   0  0  0  0  0  0  0  0  0  0  0  0
   20.5475  -20.0853  -18.0907 N   0  0  0  0  0  0  0  0  0  0  0  0
   21.2623  -19.1653  -18.7571 C   0  0  0  0  0  0  0  0  0  0  0  0
   21.5309  -18.9571  -20.1059 C   0  0  0  0  0  0  0  0  0  0  0  0
   22.3295  -17.8859  -20.4939 C   0  0  0  0  0  0  0  0  0  0  0  0
   22.8561  -17.0331  -19.5689 C   0  0  0  0  0  0  0  0  0  0  0  0
   22.5781  -17.2569  -18.2353 C   0  0  0  0  0  0  0  0  0  0  0  0
   21.7812  -18.3212  -17.8150 C   0  0  0  0  0  0  0  0  0  0  0  0
   21.0127  -20.1085  -13.9898 C   0  0  0  0  0  0  0  0  0  0  0  0
   21.2541  -21.4572  -14.2217 O   0  0  0  0  0  0  0  0  0  0  0  0
   19.8882  -19.7320  -13.5852 O   0  0  0  0  0  0  0  0  0  0  0  0
  2  1  1  6
  3  4  1  0
  3  2  1  0
  5  6  1  0
  5  4  1  0
  7  6  1  0
  8  2  1  0
  8 10  1  0
  9  8  2  0
 11 10  1  0
 11 12  1  1
 13 12  1  0
 14 11  1  0
 15 14  2  0
 16 14  1  0
 17 28  1  0
 17 16  1  0
 17 18  1  6
 19 18  1  0
 20 19  2  0
 21 20  1  0
 22 21  1  0
 22 27  2  0
 23 24  2  0
 23 22  1  0
 24 25  1  0
 25 26  2  0
 27 26  1  0
 27 19  1  0
 28 29  1  0
 30 28  2  0
M  END
$$$$
