KCW.pdb
     RDKit          3D

 30 31  0  0  1  0  0  0  0  0999 V2000
   27.8966  -21.9855  -18.7495 N   0  0  0  0  0  0  0  0  0  0  0  0
   28.8741  -22.5597  -17.8309 C   0  0  1  0  0  0  0  0  0  0  0  0
   30.2805  -22.3969  -18.3962 C   0  0  0  0  0  0  0  0  0  0  0  0
   30.4884  -23.2228  -19.6272 C   0  0  0  0  0  0  0  0  0  0  0  0
   29.5650  -22.8795  -20.7675 C   0  0  0  0  0  0  0  0  0  0  0  0
   29.9234  -23.8026  -21.9232 C   0  0  0  0  0  0  0  0  0  0  0  0
   31.3406  -24.0574  -21.9734 N   0  0  0  0  0  0  0  0  0  0  0  0
   28.8563  -21.7730  -16.5816 C   0  0  0  0  0  0  0  0  0  0  0  0
   29.7032  -21.9553  -15.6875 O   0  0  0  0  0  0  0  0  0  0  0  0
   27.8567  -20.7943  -16.4031 N   0  0  0  0  0  0  0  0  0  0  0  0
   27.8519  -20.0124  -15.2113 C   0  0  1  0  0  0  0  0  0  0  0  0
   27.4434  -18.5612  -15.4965 C   0  0  0  0  0  0  0  0  0  0  0  0
   27.2813  -17.7444  -13.8840 S   0  0  0  0  0  0  0  0  0  0  0  0
   26.8741  -20.5609  -14.2526 C   0  0  0  0  0  0  0  0  0  0  0  0
   25.6898  -20.8669  -14.6613 O   0  0  0  0  0  0  0  0  0  0  0  0
   27.1145  -20.7966  -12.8727 N   0  0  0  0  0  0  0  0  0  0  0  0
   26.1141  -21.4178  -12.0194 C   0  0  1  0  0  0  0  0  0  0  0  0
   26.7994  -21.8406  -10.7304 C   0  0  0  0  0  0  0  0  0  0  0  0
   26.6316  -20.8751   -9.6415 C   0  0  0  0  0  0  0  0  0  0  0  0
   25.5147  -20.1319   -9.3747 C   0  0  0  0  0  0  0  0  0  0  0  0
   25.8044  -19.3874   -8.2990 N   0  0  0  0  0  0  0  0  0  0  0  0
   27.0533  -19.6190   -7.8653 C   0  0  0  0  0  0  0  0  0  0  0  0
   27.8090  -19.1118   -6.8135 C   0  0  0  0  0  0  0  0  0  0  0  0
   29.1107  -19.5624   -6.6179 C   0  0  0  0  0  0  0  0  0  0  0  0
   29.6604  -20.4975   -7.4448 C   0  0  0  0  0  0  0  0  0  0  0  0
   28.8942  -20.9884   -8.4830 C   0  0  0  0  0  0  0  0  0  0  0  0
   27.5869  -20.5569   -8.7049 C   0  0  0  0  0  0  0  0  0  0  0  0
   24.9765  -20.5214  -11.7397 C   0  0  0  0  0  0  0  0  0  0  0  0
   23.7366  -21.0766  -11.4481 O   0  0  0  0  0  0  0  0  0  0  0  0
   25.1175  -19.2766  -11.7642 O   0  0  0  0  0  0  0  0  0  0  0  0
  2  1  1  6
  3  4  1  0
  3  2  1  0
  5  6  1  0
  5  4  1  0
  7  6  1  0
  8  2  1  0
  8 10  1  0
  9  8  2  0
 11 10  1  0
 11 12  1  6
 13 12  1  0
 14 11  1  0
 15 14  2  0
 16 14  1  0
 17 28  1  0
 17 16  1  0
 17 18  1  1
 19 18  1  0
 20 19  2  0
 21 20  1  0
 22 21  1  0
 22 27  2  0
 23 24  2  0
 23 22  1  0
 24 25  1  0
 25 26  2  0
 27 26  1  0
 27 19  1  0
 28 29  1  0
 30 28  2  0
M  END
$$$$
