KCW.pdb
     RDKit          3D

 30 31  0  0  1  0  0  0  0  0999 V2000
   15.7294  -27.4887   -5.3479 N   0  0  0  0  0  0  0  0  0  0  0  0
   14.6801  -27.0871   -4.4168 C   0  0  1  0  0  0  0  0  0  0  0  0
   14.0555  -28.3188   -3.7711 C   0  0  0  0  0  0  0  0  0  0  0  0
   13.5438  -29.2873   -4.7913 C   0  0  0  0  0  0  0  0  0  0  0  0
   12.0486  -29.4741   -4.7739 C   0  0  0  0  0  0  0  0  0  0  0  0
   11.7196  -30.5251   -5.8242 C   0  0  0  0  0  0  0  0  0  0  0  0
   10.3018  -30.7711   -5.8967 N   0  0  0  0  0  0  0  0  0  0  0  0
   15.3034  -26.3335   -3.3108 C   0  0  0  0  0  0  0  0  0  0  0  0
   16.4156  -26.6542   -2.8523 O   0  0  0  0  0  0  0  0  0  0  0  0
   14.6200  -25.2264   -2.7663 N   0  0  0  0  0  0  0  0  0  0  0  0
   15.2940  -24.3783   -1.8398 C   0  0  1  0  0  0  0  0  0  0  0  0
   16.0193  -23.2320   -2.5569 C   0  0  0  0  0  0  0  0  0  0  0  0
   14.7614  -22.3495   -3.5225 S   0  0  0  0  0  0  0  0  0  0  0  0
   14.3205  -23.7681   -0.9148 C   0  0  0  0  0  0  0  0  0  0  0  0
   13.4546  -22.9278   -1.3705 O   0  0  0  0  0  0  0  0  0  0  0  0
   14.2357  -24.0231    0.4799 N   0  0  0  0  0  0  0  0  0  0  0  0
   14.1475  -22.9423    1.4490 C   0  0  1  0  0  0  0  0  0  0  0  0
   15.4867  -22.2238    1.4682 C   0  0  0  0  0  0  0  0  0  0  0  0
   15.5160  -21.0775    2.3799 C   0  0  0  0  0  0  0  0  0  0  0  0
   14.8821  -20.9793    3.5880 C   0  0  0  0  0  0  0  0  0  0  0  0
   15.1790  -19.7659    4.0729 N   0  0  0  0  0  0  0  0  0  0  0  0
   15.9723  -19.0836    3.2323 C   0  0  0  0  0  0  0  0  0  0  0  0
   16.5427  -17.8157    3.2742 C   0  0  0  0  0  0  0  0  0  0  0  0
   17.3395  -17.3815    2.2195 C   0  0  0  0  0  0  0  0  0  0  0  0
   17.5709  -18.1823    1.1400 C   0  0  0  0  0  0  0  0  0  0  0  0
   16.9955  -19.4371    1.1172 C   0  0  0  0  0  0  0  0  0  0  0  0
   16.1926  -19.9010    2.1586 C   0  0  0  0  0  0  0  0  0  0  0  0
   13.0516  -22.0024    1.1471 C   0  0  0  0  0  0  0  0  0  0  0  0
   13.0529  -21.3345   -0.0714 O   0  0  0  0  0  0  0  0  0  0  0  0
   12.1301  -21.8025    1.9722 O   0  0  0  0  0  0  0  0  0  0  0  0
  2  1  1  6
  3  4  1  0
  3  2  1  0
  5  6  1  0
  5  4  1  0
  7  6  1  0
  8  2  1  0
  8 10  1  0
  9  8  2  0
 11 10  1  0
 11 12  1  6
 13 12  1  0
 14 11  1  0
 15 14  2  0
 16 14  1  0
 17 28  1  0
 17 16  1  0
 17 18  1  6
 19 18  1  0
 20 19  2  0
 21 20  1  0
 22 21  1  0
 22 27  2  0
 23 24  2  0
 23 22  1  0
 24 25  1  0
 25 26  2  0
 27 26  1  0
 27 19  1  0
 28 29  1  0
 30 28  2  0
M  END
$$$$
