KCW.pdb
     RDKit          3D

 30 31  0  0  1  0  0  0  0  0999 V2000
   23.5733  -19.3375  -16.3666 N   0  0  0  0  0  0  0  0  0  0  0  0
   23.9595  -18.4440  -15.2796 C   0  0  1  0  0  0  0  0  0  0  0  0
   23.0934  -17.1897  -15.3020 C   0  0  0  0  0  0  0  0  0  0  0  0
   23.2250  -16.4412  -16.5916 C   0  0  0  0  0  0  0  0  0  0  0  0
   24.6143  -15.9294  -16.8727 C   0  0  0  0  0  0  0  0  0  0  0  0
   24.5593  -15.2053  -18.2101 C   0  0  0  0  0  0  0  0  0  0  0  0
   25.8732  -14.8085  -18.6483 N   0  0  0  0  0  0  0  0  0  0  0  0
   23.6556  -19.1119  -13.9985 C   0  0  0  0  0  0  0  0  0  0  0  0
   22.7485  -18.7011  -13.2513 O   0  0  0  0  0  0  0  0  0  0  0  0
   24.4118  -20.2401  -13.6183 N   0  0  0  0  0  0  0  0  0  0  0  0
   24.0760  -20.9319  -12.4181 C   0  0  1  0  0  0  0  0  0  0  0  0
   23.8620  -22.4289  -12.6771 C   0  0  0  0  0  0  0  0  0  0  0  0
   25.3725  -23.0347  -13.4803 S   0  0  0  0  0  0  0  0  0  0  0  0
   25.1752  -20.8103  -11.4420 C   0  0  0  0  0  0  0  0  0  0  0  0
   26.3960  -20.8249  -11.8579 O   0  0  0  0  0  0  0  0  0  0  0  0
   25.0196  -20.6720  -10.0370 N   0  0  0  0  0  0  0  0  0  0  0  0
   26.0638  -21.0784   -9.1101 C   0  0  1  0  0  0  0  0  0  0  0  0
   27.0218  -19.9098   -8.9464 C   0  0  0  0  0  0  0  0  0  0  0  0
   28.1638  -20.2138   -8.0807 C   0  0  0  0  0  0  0  0  0  0  0  0
   29.2764  -20.9335   -8.4202 C   0  0  0  0  0  0  0  0  0  0  0  0
   30.0534  -20.9651   -7.3291 N   0  0  0  0  0  0  0  0  0  0  0  0
   29.4906  -20.3001   -6.3080 C   0  0  0  0  0  0  0  0  0  0  0  0
   29.8851  -20.0491   -4.9980 C   0  0  0  0  0  0  0  0  0  0  0  0
   29.0601  -19.3077   -4.1581 C   0  0  0  0  0  0  0  0  0  0  0  0
   27.8652  -18.8211   -4.6004 C   0  0  0  0  0  0  0  0  0  0  0  0
   27.4916  -19.0812   -5.9037 C   0  0  0  0  0  0  0  0  0  0  0  0
   28.2963  -19.8207   -6.7697 C   0  0  0  0  0  0  0  0  0  0  0  0
   25.5248  -21.5024   -7.8042 C   0  0  0  0  0  0  0  0  0  0  0  0
   26.2293  -22.4372   -7.0554 O   0  0  0  0  0  0  0  0  0  0  0  0
   24.4475  -21.0324   -7.3699 O   0  0  0  0  0  0  0  0  0  0  0  0
  2  1  1  6
  3  4  1  0
  3  2  1  0
  5  6  1  0
  5  4  1  0
  7  6  1  0
  8  2  1  0
  8 10  1  0
  9  8  2  0
 11 10  1  0
 11 12  1  6
 13 12  1  0
 14 11  1  0
 15 14  2  0
 16 14  1  0
 17 28  1  0
 17 16  1  0
 17 18  1  1
 19 18  1  0
 20 19  2  0
 21 20  1  0
 22 21  1  0
 22 27  2  0
 23 24  2  0
 23 22  1  0
 24 25  1  0
 25 26  2  0
 27 26  1  0
 27 19  1  0
 28 29  1  0
 30 28  2  0
M  END
$$$$
