KCW.pdb
     RDKit          3D

 30 31  0  0  1  0  0  0  0  0999 V2000
   27.7845  -21.4103  -15.9748 N   0  0  0  0  0  0  0  0  0  0  0  0
   27.6136  -20.4531  -14.8869 C   0  0  1  0  0  0  0  0  0  0  0  0
   26.9721  -19.1739  -15.4127 C   0  0  0  0  0  0  0  0  0  0  0  0
   27.9550  -18.3146  -16.1450 C   0  0  0  0  0  0  0  0  0  0  0  0
   28.4055  -18.8773  -17.4683 C   0  0  0  0  0  0  0  0  0  0  0  0
   29.4066  -17.8914  -18.0530 C   0  0  0  0  0  0  0  0  0  0  0  0
   29.7794  -18.2541  -19.3966 N   0  0  0  0  0  0  0  0  0  0  0  0
   26.6463  -21.0132  -13.9223 C   0  0  0  0  0  0  0  0  0  0  0  0
   25.7598  -21.8105  -14.2806 O   0  0  0  0  0  0  0  0  0  0  0  0
   26.7339  -20.6344  -12.5666 N   0  0  0  0  0  0  0  0  0  0  0  0
   25.7431  -21.0920  -11.6497 C   0  0  1  0  0  0  0  0  0  0  0  0
   26.0769  -20.6743  -10.2116 C   0  0  0  0  0  0  0  0  0  0  0  0
   24.6400  -21.1222   -9.1976 S   0  0  0  0  0  0  0  0  0  0  0  0
   24.4346  -20.4988  -11.9842 C   0  0  0  0  0  0  0  0  0  0  0  0
   24.2953  -19.2168  -11.9585 O   0  0  0  0  0  0  0  0  0  0  0  0
   23.2685  -21.2238  -12.3472 N   0  0  0  0  0  0  0  0  0  0  0  0
   21.9895  -20.5612  -12.5467 C   0  0  1  0  0  0  0  0  0  0  0  0
   22.1012  -19.6992  -13.7935 C   0  0  0  0  0  0  0  0  0  0  0  0
   22.2968  -20.4766  -15.0196 C   0  0  0  0  0  0  0  0  0  0  0  0
   21.6533  -21.6335  -15.3638 C   0  0  0  0  0  0  0  0  0  0  0  0
   22.1418  -21.9968  -16.5574 N   0  0  0  0  0  0  0  0  0  0  0  0
   23.0672  -21.1275  -16.9928 C   0  0  0  0  0  0  0  0  0  0  0  0
   23.8495  -21.0600  -18.1409 C   0  0  0  0  0  0  0  0  0  0  0  0
   24.7422  -20.0059  -18.3075 C   0  0  0  0  0  0  0  0  0  0  0  0
   24.8636  -19.0336  -17.3587 C   0  0  0  0  0  0  0  0  0  0  0  0
   24.0786  -19.1188  -16.2263 C   0  0  0  0  0  0  0  0  0  0  0  0
   23.1747  -20.1623  -16.0303 C   0  0  0  0  0  0  0  0  0  0  0  0
   20.8723  -21.5168  -12.6674 C   0  0  0  0  0  0  0  0  0  0  0  0
   19.5774  -21.0279  -12.7909 O   0  0  0  0  0  0  0  0  0  0  0  0
   21.0791  -22.7525  -12.6581 O   0  0  0  0  0  0  0  0  0  0  0  0
  2  1  1  6
  3  4  1  0
  3  2  1  0
  5  6  1  0
  5  4  1  0
  7  6  1  0
  8  2  1  0
  8 10  1  0
  9  8  2  0
 11 10  1  0
 11 12  1  1
 13 12  1  0
 14 11  1  0
 15 14  2  0
 16 14  1  0
 17 28  1  0
 17 16  1  0
 17 18  1  6
 19 18  1  0
 20 19  2  0
 21 20  1  0
 22 21  1  0
 22 27  2  0
 23 24  2  0
 23 22  1  0
 24 25  1  0
 25 26  2  0
 27 26  1  0
 27 19  1  0
 28 29  1  0
 30 28  2  0
M  END
$$$$
