QKC.pdb
     RDKit          3D

 25 24  0  0  1  0  0  0  0  0999 V2000
   13.5086  -14.3568   20.0658 N   0  0  0  0  0  0  0  0  0  0  0  0
   12.9403  -13.8627   18.8736 C   0  0  0  0  0  0  0  0  0  0  0  0
   13.6753  -13.4661   17.9335 O   0  0  0  0  0  0  0  0  0  0  0  0
   11.4710  -13.7904   18.6793 C   0  0  0  0  0  0  0  0  0  0  0  0
   10.7355  -14.6808   19.6563 C   0  0  0  0  0  0  0  0  0  0  0  0
    9.2448  -14.4644   19.4809 C   0  0  2  0  0  0  0  0  0  0  0  0
    8.9640  -13.0841   19.1362 N   0  0  0  0  0  0  0  0  0  0  0  0
    8.5206  -14.8051   20.7642 C   0  0  0  0  0  0  0  0  0  0  0  0
    8.0281  -13.8940   21.4540 O   0  0  0  0  0  0  0  0  0  0  0  0
    8.3934  -16.1439   21.1946 N   0  0  0  0  0  0  0  0  0  0  0  0
    7.8292  -16.5060   22.5282 C   0  0  1  0  0  0  0  0  0  0  0  0
    7.4128  -17.9329   22.5027 C   0  0  0  0  0  0  0  0  0  0  0  0
    6.8762  -18.4590   23.7701 C   0  0  0  0  0  0  0  0  0  0  0  0
    6.4946  -19.9173   23.7475 C   0  0  0  0  0  0  0  0  0  0  0  0
    5.9692  -20.3586   25.1139 C   0  0  0  0  0  0  0  0  0  0  0  0
    5.5667  -21.7706   25.0199 N   0  0  0  0  0  0  0  0  0  0  0  0
    8.8173  -16.1054   23.5283 C   0  0  0  0  0  0  0  0  0  0  0  0
    9.7932  -15.3861   23.0897 O   0  0  0  0  0  0  0  0  0  0  0  0
    8.8032  -16.4209   24.8969 N   0  0  0  0  0  0  0  0  0  0  0  0
    8.8943  -15.3385   25.8729 C   0  0  1  0  0  0  0  0  0  0  0  0
    7.7447  -14.3719   25.7020 C   0  0  0  0  0  0  0  0  0  0  0  0
    7.7917  -13.1558   27.0208 S   0  0  0  0  0  0  0  0  0  0  0  0
    8.9275  -15.9217   27.2221 C   0  0  0  0  0  0  0  0  0  0  0  0
    9.8760  -15.5214   28.1435 O   0  0  0  0  0  0  0  0  0  0  0  0
    8.1121  -16.8047   27.6184 O   0  0  0  0  0  0  0  0  0  0  0  0
  2  1  1  0
  2  4  1  0
  3  2  2  0
  5  4  1  0
  6  5  1  0
  6  7  1  1
  8  6  1  0
  8 10  1  0
  9  8  2  0
 10 11  1  0
 11 12  1  6
 12 13  1  0
 13 14  1  0
 14 15  1  0
 15 16  1  0
 17 18  2  0
 17 11  1  0
 19 17  1  0
 20 19  1  0
 20 23  1  0
 20 21  1  1
 22 21  1  0
 23 24  1  0
 25 23  2  0
M  END
$$$$
