QKC.pdb
     RDKit          3D

 25 24  0  0  1  0  0  0  0  0999 V2000
    8.8957  -13.2260   17.1522 N   0  0  0  0  0  0  0  0  0  0  0  0
    8.1753  -14.4338   17.0480 C   0  0  0  0  0  0  0  0  0  0  0  0
    7.8938  -14.9130   15.9200 O   0  0  0  0  0  0  0  0  0  0  0  0
    7.7245  -15.1812   18.2480 C   0  0  0  0  0  0  0  0  0  0  0  0
    8.1718  -14.5056   19.5256 C   0  0  0  0  0  0  0  0  0  0  0  0
    9.0123  -15.4847   20.3223 C   0  0  2  0  0  0  0  0  0  0  0  0
    8.2954  -16.7285   20.5264 N   0  0  0  0  0  0  0  0  0  0  0  0
    9.3551  -14.8907   21.6703 C   0  0  0  0  0  0  0  0  0  0  0  0
   10.1945  -13.9750   21.7443 O   0  0  0  0  0  0  0  0  0  0  0  0
    8.7369  -15.3590   22.8503 N   0  0  0  0  0  0  0  0  0  0  0  0
    8.8381  -14.6318   24.1499 C   0  0  1  0  0  0  0  0  0  0  0  0
    7.4704  -14.2691   24.6056 C   0  0  0  0  0  0  0  0  0  0  0  0
    7.4076  -13.4187   25.8072 C   0  0  0  0  0  0  0  0  0  0  0  0
    6.0190  -13.0186   26.2366 C   0  0  0  0  0  0  0  0  0  0  0  0
    6.0776  -12.0562   27.4232 C   0  0  0  0  0  0  0  0  0  0  0  0
    4.7156  -11.5678   27.6895 N   0  0  0  0  0  0  0  0  0  0  0  0
    9.6509  -15.4624   25.0370 C   0  0  0  0  0  0  0  0  0  0  0  0
    9.9549  -16.6299   24.5827 O   0  0  0  0  0  0  0  0  0  0  0  0
   10.1260  -15.1145   26.3121 N   0  0  0  0  0  0  0  0  0  0  0  0
   11.0424  -16.0220   26.9970 C   0  0  1  0  0  0  0  0  0  0  0  0
   11.5798  -15.3822   28.2568 C   0  0  0  0  0  0  0  0  0  0  0  0
   10.3604  -14.2376   28.9071 S   0  0  0  0  0  0  0  0  0  0  0  0
   10.3375  -17.2816   27.2766 C   0  0  0  0  0  0  0  0  0  0  0  0
   11.0048  -18.3598   27.8252 O   0  0  0  0  0  0  0  0  0  0  0  0
    9.1068  -17.4572   27.0399 O   0  0  0  0  0  0  0  0  0  0  0  0
  2  1  1  0
  2  4  1  0
  3  2  2  0
  5  4  1  0
  6  5  1  0
  6  7  1  1
  8  6  1  0
  8 10  1  0
  9  8  2  0
 10 11  1  0
 11 12  1  1
 12 13  1  0
 13 14  1  0
 14 15  1  0
 15 16  1  0
 17 18  2  0
 17 11  1  0
 19 17  1  0
 20 19  1  0
 20 23  1  0
 20 21  1  1
 22 21  1  0
 23 24  1  0
 25 23  2  0
M  END
$$$$
