QKC.pdb
     RDKit          3D

 25 24  0  0  1  0  0  0  0  0999 V2000
    9.8129  -18.8049   16.3157 N   0  0  0  0  0  0  0  0  0  0  0  0
    8.7004  -18.1694   15.7264 C   0  0  0  0  0  0  0  0  0  0  0  0
    8.6222  -18.0498   14.4771 O   0  0  0  0  0  0  0  0  0  0  0  0
    7.5894  -17.6219   16.5436 C   0  0  0  0  0  0  0  0  0  0  0  0
    7.8136  -17.8614   18.0204 C   0  0  0  0  0  0  0  0  0  0  0  0
    7.3973  -19.2822   18.3490 C   0  0  2  0  0  0  0  0  0  0  0  0
    6.2961  -19.7023   17.5044 N   0  0  0  0  0  0  0  0  0  0  0  0
    6.9655  -19.3704   19.7958 C   0  0  0  0  0  0  0  0  0  0  0  0
    6.3778  -18.4085   20.3229 O   0  0  0  0  0  0  0  0  0  0  0  0
    7.2188  -20.5295   20.5614 N   0  0  0  0  0  0  0  0  0  0  0  0
    6.7985  -20.6542   21.9882 C   0  0  1  0  0  0  0  0  0  0  0  0
    6.2441  -22.0158   22.2088 C   0  0  0  0  0  0  0  0  0  0  0  0
    5.7704  -22.2931   23.5763 C   0  0  0  0  0  0  0  0  0  0  0  0
    5.1365  -23.6469   23.7721 C   0  0  0  0  0  0  0  0  0  0  0  0
    4.6297  -23.8028   25.2061 C   0  0  0  0  0  0  0  0  0  0  0  0
    3.9880  -25.1211   25.3285 N   0  0  0  0  0  0  0  0  0  0  0  0
    7.9419  -20.2470   22.8030 C   0  0  0  0  0  0  0  0  0  0  0  0
    9.1007  -20.4395   22.2718 O   0  0  0  0  0  0  0  0  0  0  0  0
    7.8989  -19.6734   24.0844 N   0  0  0  0  0  0  0  0  0  0  0  0
    9.1505  -19.2784   24.7246 C   0  0  1  0  0  0  0  0  0  0  0  0
    9.0841  -17.8370   25.1751 C   0  0  0  0  0  0  0  0  0  0  0  0
    7.6307  -17.6029   26.2012 S   0  0  0  0  0  0  0  0  0  0  0  0
    9.4169  -20.1935   25.8440 C   0  0  0  0  0  0  0  0  0  0  0  0
   10.6475  -20.2047   26.4720 O   0  0  0  0  0  0  0  0  0  0  0  0
    8.5606  -21.0092   26.2944 O   0  0  0  0  0  0  0  0  0  0  0  0
  2  1  1  0
  2  4  1  0
  3  2  2  0
  5  4  1  0
  6  5  1  0
  6  7  1  6
  8  6  1  0
  8 10  1  0
  9  8  2  0
 10 11  1  0
 11 12  1  1
 12 13  1  0
 13 14  1  0
 14 15  1  0
 15 16  1  0
 17 18  2  0
 17 11  1  0
 19 17  1  0
 20 19  1  0
 20 23  1  0
 20 21  1  1
 22 21  1  0
 23 24  1  0
 25 23  2  0
M  END
$$$$
