QKC.pdb
     RDKit          3D

 25 24  0  0  1  0  0  0  0  0999 V2000
    8.4290  -12.3396   18.1318 N   0  0  0  0  0  0  0  0  0  0  0  0
    8.1507  -13.6915   17.8425 C   0  0  0  0  0  0  0  0  0  0  0  0
    7.3614  -13.9950   16.9119 O   0  0  0  0  0  0  0  0  0  0  0  0
    8.7687  -14.7990   18.6129 C   0  0  0  0  0  0  0  0  0  0  0  0
    9.6680  -14.2786   19.7125 C   0  0  0  0  0  0  0  0  0  0  0  0
   10.1693  -15.4564   20.5258 C   0  0  2  0  0  0  0  0  0  0  0  0
   10.1413  -16.6731   19.7375 N   0  0  0  0  0  0  0  0  0  0  0  0
    9.2992  -15.6453   21.7483 C   0  0  0  0  0  0  0  0  0  0  0  0
    8.1467  -15.1762   21.7625 O   0  0  0  0  0  0  0  0  0  0  0  0
    9.7739  -16.3473   22.8778 N   0  0  0  0  0  0  0  0  0  0  0  0
    8.9338  -16.5743   24.0906 C   0  0  1  0  0  0  0  0  0  0  0  0
    8.5669  -18.0133   24.1588 C   0  0  0  0  0  0  0  0  0  0  0  0
    7.3884  -18.4049   23.3658 C   0  0  0  0  0  0  0  0  0  0  0  0
    6.9970  -19.8566   23.4748 C   0  0  0  0  0  0  0  0  0  0  0  0
    6.7862  -20.4641   22.0877 C   0  0  0  0  0  0  0  0  0  0  0  0
    6.4368  -21.8836   22.2533 N   0  0  0  0  0  0  0  0  0  0  0  0
    9.6634  -16.0057   25.2227 C   0  0  0  0  0  0  0  0  0  0  0  0
   10.7982  -15.4643   24.9383 O   0  0  0  0  0  0  0  0  0  0  0  0
    9.2516  -15.9905   26.5655 N   0  0  0  0  0  0  0  0  0  0  0  0
   10.1416  -15.4177   27.5715 C   0  0  1  0  0  0  0  0  0  0  0  0
    9.6258  -14.0737   28.0328 C   0  0  0  0  0  0  0  0  0  0  0  0
   10.6464  -13.4788   29.3835 S   0  0  0  0  0  0  0  0  0  0  0  0
   10.2701  -16.3698   28.6844 C   0  0  0  0  0  0  0  0  0  0  0  0
   11.4062  -16.3914   29.4703 O   0  0  0  0  0  0  0  0  0  0  0  0
    9.3735  -17.2096   28.9883 O   0  0  0  0  0  0  0  0  0  0  0  0
  2  1  1  0
  2  4  1  0
  3  2  2  0
  5  4  1  0
  6  5  1  0
  6  7  1  6
  8  6  1  0
  8 10  1  0
  9  8  2  0
 10 11  1  0
 11 12  1  1
 12 13  1  0
 13 14  1  0
 14 15  1  0
 15 16  1  0
 17 18  2  0
 17 11  1  0
 19 17  1  0
 20 19  1  0
 20 23  1  0
 20 21  1  1
 22 21  1  0
 23 24  1  0
 25 23  2  0
M  END
$$$$
