QKC.pdb
     RDKit          3D

 25 24  0  0  1  0  0  0  0  0999 V2000
    8.5391  -23.5055   24.4156 N   0  0  0  0  0  0  0  0  0  0  0  0
    8.0479  -23.9932   23.1870 C   0  0  0  0  0  0  0  0  0  0  0  0
    7.5844  -25.1591   23.1033 O   0  0  0  0  0  0  0  0  0  0  0  0
    8.0564  -23.1633   21.9569 C   0  0  0  0  0  0  0  0  0  0  0  0
    8.6869  -21.8102   22.2023 C   0  0  0  0  0  0  0  0  0  0  0  0
    7.7345  -20.7364   21.7127 C   0  0  2  0  0  0  0  0  0  0  0  0
    7.0670  -21.1586   20.4966 N   0  0  0  0  0  0  0  0  0  0  0  0
    8.4968  -19.4601   21.4346 C   0  0  0  0  0  0  0  0  0  0  0  0
    9.6720  -19.5204   21.0299 O   0  0  0  0  0  0  0  0  0  0  0  0
    7.8958  -18.1970   21.6271 N   0  0  0  0  0  0  0  0  0  0  0  0
    8.5990  -16.9191   21.3097 C   0  0  1  0  0  0  0  0  0  0  0  0
    7.5889  -15.8384   21.1620 C   0  0  0  0  0  0  0  0  0  0  0  0
    8.1280  -14.5090   20.8258 C   0  0  0  0  0  0  0  0  0  0  0  0
    7.7653  -13.9992   19.4541 C   0  0  0  0  0  0  0  0  0  0  0  0
    8.4240  -12.6448   19.1905 C   0  0  0  0  0  0  0  0  0  0  0  0
    8.0435  -12.2011   17.8403 N   0  0  0  0  0  0  0  0  0  0  0  0
    9.6364  -16.7440   22.3247 C   0  0  0  0  0  0  0  0  0  0  0  0
    9.2827  -17.0140   23.5346 O   0  0  0  0  0  0  0  0  0  0  0  0
   10.9584  -16.3206   22.1106 N   0  0  0  0  0  0  0  0  0  0  0  0
   11.8856  -16.3000   23.2385 C   0  0  1  0  0  0  0  0  0  0  0  0
   11.9944  -17.6733   23.8610 C   0  0  0  0  0  0  0  0  0  0  0  0
   12.8309  -17.5423   25.4432 S   0  0  0  0  0  0  0  0  0  0  0  0
   13.1875  -15.8031   22.7698 C   0  0  0  0  0  0  0  0  0  0  0  0
   14.1957  -15.5042   23.6659 O   0  0  0  0  0  0  0  0  0  0  0  0
   13.4637  -15.6212   21.5483 O   0  0  0  0  0  0  0  0  0  0  0  0
  2  1  1  0
  2  4  1  0
  3  2  2  0
  5  4  1  0
  6  5  1  0
  6  7  1  6
  8  6  1  0
  8 10  1  0
  9  8  2  0
 10 11  1  0
 11 12  1  1
 12 13  1  0
 13 14  1  0
 14 15  1  0
 15 16  1  0
 17 18  2  0
 17 11  1  0
 19 17  1  0
 20 19  1  0
 20 23  1  0
 20 21  1  6
 22 21  1  0
 23 24  1  0
 25 23  2  0
M  END
$$$$
