QKC.pdb
     RDKit          3D

 25 24  0  0  1  0  0  0  0  0999 V2000
    6.7443  -13.0414   17.6979 N   0  0  0  0  0  0  0  0  0  0  0  0
    7.7255  -14.0423   17.5426 C   0  0  0  0  0  0  0  0  0  0  0  0
    7.6469  -14.8715   16.6005 O   0  0  0  0  0  0  0  0  0  0  0  0
    8.8770  -14.1589   18.4711 C   0  0  0  0  0  0  0  0  0  0  0  0
    8.7850  -13.1575   19.6012 C   0  0  0  0  0  0  0  0  0  0  0  0
    9.9490  -13.3856   20.5462 C   0  0  2  0  0  0  0  0  0  0  0  0
   11.1458  -13.7419   19.8091 N   0  0  0  0  0  0  0  0  0  0  0  0
    9.6177  -14.5026   21.5106 C   0  0  0  0  0  0  0  0  0  0  0  0
    8.5408  -14.4791   22.1337 O   0  0  0  0  0  0  0  0  0  0  0  0
   10.5125  -15.5752   21.7168 N   0  0  0  0  0  0  0  0  0  0  0  0
   10.3144  -16.5868   22.7964 C   0  0  1  0  0  0  0  0  0  0  0  0
   11.2177  -17.7406   22.5458 C   0  0  0  0  0  0  0  0  0  0  0  0
   11.1696  -18.8137   23.5544 C   0  0  0  0  0  0  0  0  0  0  0  0
   11.1632  -20.2150   22.9985 C   0  0  0  0  0  0  0  0  0  0  0  0
   11.1690  -21.2439   24.1295 C   0  0  0  0  0  0  0  0  0  0  0  0
   11.1423  -22.5878   23.5314 N   0  0  0  0  0  0  0  0  0  0  0  0
   10.4535  -15.8801   24.0686 C   0  0  0  0  0  0  0  0  0  0  0  0
   11.5570  -15.2329   24.2282 O   0  0  0  0  0  0  0  0  0  0  0  0
    9.5152  -15.8372   25.1129 N   0  0  0  0  0  0  0  0  0  0  0  0
    9.8269  -15.0644   26.3121 C   0  0  1  0  0  0  0  0  0  0  0  0
    8.7132  -14.0893   26.6191 C   0  0  0  0  0  0  0  0  0  0  0  0
    9.1011  -13.2032   28.1306 S   0  0  0  0  0  0  0  0  0  0  0  0
   10.0658  -15.9955   27.4244 C   0  0  0  0  0  0  0  0  0  0  0  0
    9.8656  -17.3534   27.2667 O   0  0  0  0  0  0  0  0  0  0  0  0
   10.4598  -15.6255   28.5687 O   0  0  0  0  0  0  0  0  0  0  0  0
  2  1  1  0
  2  4  1  0
  3  2  2  0
  5  4  1  0
  6  5  1  0
  6  7  1  6
  8  6  1  0
  8 10  1  0
  9  8  2  0
 10 11  1  0
 11 12  1  6
 12 13  1  0
 13 14  1  0
 14 15  1  0
 15 16  1  0
 17 18  2  0
 17 11  1  0
 19 17  1  0
 20 19  1  0
 20 23  1  0
 20 21  1  1
 22 21  1  0
 23 24  1  0
 25 23  2  0
M  END
$$$$
