QKC.pdb
     RDKit          3D

 25 24  0  0  1  0  0  0  0  0999 V2000
    8.8992  -12.1788   18.5422 N   0  0  0  0  0  0  0  0  0  0  0  0
    8.5456  -13.5133   18.2546 C   0  0  0  0  0  0  0  0  0  0  0  0
    9.3710  -14.2876   17.7066 O   0  0  0  0  0  0  0  0  0  0  0  0
    7.2031  -14.0542   18.5817 C   0  0  0  0  0  0  0  0  0  0  0  0
    6.8803  -13.8927   20.0508 C   0  0  0  0  0  0  0  0  0  0  0  0
    7.9717  -14.5630   20.8628 C   0  0  2  0  0  0  0  0  0  0  0  0
    8.3855  -15.8050   20.2391 N   0  0  0  0  0  0  0  0  0  0  0  0
    7.4670  -14.8602   22.2572 C   0  0  0  0  0  0  0  0  0  0  0  0
    6.8063  -14.0014   22.8691 O   0  0  0  0  0  0  0  0  0  0  0  0
    7.7335  -16.0998   22.8787 N   0  0  0  0  0  0  0  0  0  0  0  0
    7.3357  -16.3908   24.2877 C   0  0  1  0  0  0  0  0  0  0  0  0
    7.6156  -17.8212   24.5805 C   0  0  0  0  0  0  0  0  0  0  0  0
    7.3422  -18.2500   25.9635 C   0  0  0  0  0  0  0  0  0  0  0  0
    7.6861  -19.6858   26.2684 C   0  0  0  0  0  0  0  0  0  0  0  0
    7.2369  -20.0597   27.6812 C   0  0  0  0  0  0  0  0  0  0  0  0
    7.6567  -21.4442   27.9482 N   0  0  0  0  0  0  0  0  0  0  0  0
    7.9869  -15.3864   25.1270 C   0  0  0  0  0  0  0  0  0  0  0  0
    9.2574  -15.2543   24.9528 O   0  0  0  0  0  0  0  0  0  0  0  0
    7.3708  -14.5645   26.0849 N   0  0  0  0  0  0  0  0  0  0  0  0
    8.1803  -13.5799   26.7973 C   0  0  1  0  0  0  0  0  0  0  0  0
    7.3116  -12.4615   27.3263 C   0  0  0  0  0  0  0  0  0  0  0  0
    5.9975  -12.1254   26.1515 S   0  0  0  0  0  0  0  0  0  0  0  0
    8.9147  -14.2624   27.8727 C   0  0  0  0  0  0  0  0  0  0  0  0
    9.8165  -13.5745   28.6616 O   0  0  0  0  0  0  0  0  0  0  0  0
    8.7736  -15.4913   28.1400 O   0  0  0  0  0  0  0  0  0  0  0  0
  2  1  1  0
  2  4  1  0
  3  2  2  0
  5  4  1  0
  6  5  1  0
  6  7  1  6
  8  6  1  0
  8 10  1  0
  9  8  2  0
 10 11  1  0
 11 12  1  1
 12 13  1  0
 13 14  1  0
 14 15  1  0
 15 16  1  0
 17 18  2  0
 17 11  1  0
 19 17  1  0
 20 19  1  0
 20 23  1  0
 20 21  1  1
 22 21  1  0
 23 24  1  0
 25 23  2  0
M  END
$$$$
