QKC.pdb
     RDKit          3D

 25 24  0  0  1  0  0  0  0  0999 V2000
    8.8190  -12.6123   18.1985 N   0  0  0  0  0  0  0  0  0  0  0  0
    8.1750  -13.7444   17.6579 C   0  0  0  0  0  0  0  0  0  0  0  0
    8.3316  -14.0500   16.4483 O   0  0  0  0  0  0  0  0  0  0  0  0
    7.2970  -14.6120   18.4815 C   0  0  0  0  0  0  0  0  0  0  0  0
    7.1078  -14.0514   19.8738 C   0  0  0  0  0  0  0  0  0  0  0  0
    8.1778  -14.6313   20.7787 C   0  0  2  0  0  0  0  0  0  0  0  0
    8.6830  -15.8796   20.2409 N   0  0  0  0  0  0  0  0  0  0  0  0
    7.6047  -14.8878   22.1546 C   0  0  0  0  0  0  0  0  0  0  0  0
    6.8995  -14.0194   22.6997 O   0  0  0  0  0  0  0  0  0  0  0  0
    7.8571  -16.0998   22.8337 N   0  0  0  0  0  0  0  0  0  0  0  0
    7.3593  -16.3614   24.2164 C   0  0  1  0  0  0  0  0  0  0  0  0
    7.5421  -17.8034   24.5283 C   0  0  0  0  0  0  0  0  0  0  0  0
    7.2299  -18.1965   25.9136 C   0  0  0  0  0  0  0  0  0  0  0  0
    7.4206  -19.6597   26.2224 C   0  0  0  0  0  0  0  0  0  0  0  0
    7.0987  -19.9480   27.6890 C   0  0  0  0  0  0  0  0  0  0  0  0
    7.4553  -21.3466   27.9740 N   0  0  0  0  0  0  0  0  0  0  0  0
    8.0126  -15.3898   25.0918 C   0  0  0  0  0  0  0  0  0  0  0  0
    9.2964  -15.3261   24.9927 O   0  0  0  0  0  0  0  0  0  0  0  0
    7.3860  -14.5326   26.0112 N   0  0  0  0  0  0  0  0  0  0  0  0
    8.2123  -13.6626   26.8434 C   0  0  1  0  0  0  0  0  0  0  0  0
    7.4368  -12.4336   27.2596 C   0  0  0  0  0  0  0  0  0  0  0  0
    6.5252  -11.8019   25.8489 S   0  0  0  0  0  0  0  0  0  0  0  0
    8.6886  -14.4319   28.0023 C   0  0  0  0  0  0  0  0  0  0  0  0
    9.5786  -13.8782   28.9024 O   0  0  0  0  0  0  0  0  0  0  0  0
    8.3252  -15.6194   28.2457 O   0  0  0  0  0  0  0  0  0  0  0  0
  2  1  1  0
  2  4  1  0
  3  2  2  0
  5  4  1  0
  6  5  1  0
  6  7  1  6
  8  6  1  0
  8 10  1  0
  9  8  2  0
 10 11  1  0
 11 12  1  1
 12 13  1  0
 13 14  1  0
 14 15  1  0
 15 16  1  0
 17 18  2  0
 17 11  1  0
 19 17  1  0
 20 19  1  0
 20 23  1  0
 20 21  1  1
 22 21  1  0
 23 24  1  0
 25 23  2  0
M  END
$$$$
