QKC.pdb
     RDKit          3D

 25 24  0  0  1  0  0  0  0  0999 V2000
    8.0356  -16.0033   13.0904 N   0  0  0  0  0  0  0  0  0  0  0  0
    7.4550  -17.2865   13.0208 C   0  0  0  0  0  0  0  0  0  0  0  0
    7.6383  -18.0155   12.0128 O   0  0  0  0  0  0  0  0  0  0  0  0
    6.6143  -17.8247   14.1188 C   0  0  0  0  0  0  0  0  0  0  0  0
    7.0498  -17.2921   15.4661 C   0  0  0  0  0  0  0  0  0  0  0  0
    8.1457  -18.1883   16.0098 C   0  0  2  0  0  0  0  0  0  0  0  0
    8.1281  -19.4788   15.3487 N   0  0  0  0  0  0  0  0  0  0  0  0
    7.9507  -18.3968   17.4950 C   0  0  0  0  0  0  0  0  0  0  0  0
    7.6981  -17.4218   18.2258 O   0  0  0  0  0  0  0  0  0  0  0  0
    8.0507  -19.6832   18.0685 N   0  0  0  0  0  0  0  0  0  0  0  0
    7.8705  -19.9241   19.5306 C   0  0  1  0  0  0  0  0  0  0  0  0
    7.4041  -21.3210   19.7337 C   0  0  0  0  0  0  0  0  0  0  0  0
    5.9451  -21.5171   19.6714 C   0  0  0  0  0  0  0  0  0  0  0  0
    5.4904  -22.9542   19.7008 C   0  0  0  0  0  0  0  0  0  0  0  0
    3.9764  -23.0450   19.5085 C   0  0  0  0  0  0  0  0  0  0  0  0
    3.5770  -24.4543   19.6458 N   0  0  0  0  0  0  0  0  0  0  0  0
    9.1165  -19.5233   20.1818 C   0  0  0  0  0  0  0  0  0  0  0  0
   10.1947  -19.7671   19.5186 O   0  0  0  0  0  0  0  0  0  0  0  0
    9.2480  -18.9064   21.4368 N   0  0  0  0  0  0  0  0  0  0  0  0
   10.5790  -18.5261   21.9016 C   0  0  1  0  0  0  0  0  0  0  0  0
   10.5206  -17.2272   22.6728 C   0  0  0  0  0  0  0  0  0  0  0  0
   12.1592  -16.8271   23.2850 S   0  0  0  0  0  0  0  0  0  0  0  0
   11.1269  -19.6235   22.7120 C   0  0  0  0  0  0  0  0  0  0  0  0
   12.4873  -19.8604   22.7561 O   0  0  0  0  0  0  0  0  0  0  0  0
   10.4089  -20.4027   23.4041 O   0  0  0  0  0  0  0  0  0  0  0  0
  2  1  1  0
  2  4  1  0
  3  2  2  0
  5  4  1  0
  6  5  1  0
  6  7  1  6
  8  6  1  0
  8 10  1  0
  9  8  2  0
 10 11  1  0
 11 12  1  6
 12 13  1  0
 13 14  1  0
 14 15  1  0
 15 16  1  0
 17 18  2  0
 17 11  1  0
 19 17  1  0
 20 19  1  0
 20 23  1  0
 20 21  1  1
 22 21  1  0
 23 24  1  0
 25 23  2  0
M  END
$$$$
