QKC.pdb
     RDKit          3D

 25 24  0  0  1  0  0  0  0  0999 V2000
    7.0494  -14.4877   16.3345 N   0  0  0  0  0  0  0  0  0  0  0  0
    8.0803  -14.2023   17.2535 C   0  0  0  0  0  0  0  0  0  0  0  0
    9.1706  -14.8267   17.2028 O   0  0  0  0  0  0  0  0  0  0  0  0
    7.9253  -13.1673   18.3054 C   0  0  0  0  0  0  0  0  0  0  0  0
    7.3115  -13.7397   19.5640 C   0  0  0  0  0  0  0  0  0  0  0  0
    8.4286  -14.1691   20.4954 C   0  0  2  0  0  0  0  0  0  0  0  0
    9.1153  -15.3333   19.9702 N   0  0  0  0  0  0  0  0  0  0  0  0
    7.8625  -14.5076   21.8564 C   0  0  0  0  0  0  0  0  0  0  0  0
    7.1062  -13.7006   22.4269 O   0  0  0  0  0  0  0  0  0  0  0  0
    8.1785  -15.7277   22.4930 N   0  0  0  0  0  0  0  0  0  0  0  0
    7.6049  -16.1123   23.8163 C   0  0  1  0  0  0  0  0  0  0  0  0
    7.6552  -17.5920   23.9503 C   0  0  0  0  0  0  0  0  0  0  0  0
    7.3849  -18.1154   25.3009 C   0  0  0  0  0  0  0  0  0  0  0  0
    7.4718  -19.6144   25.4359 C   0  0  0  0  0  0  0  0  0  0  0  0
    6.9670  -20.0626   26.8077 C   0  0  0  0  0  0  0  0  0  0  0  0
    7.0970  -21.5256   26.8924 N   0  0  0  0  0  0  0  0  0  0  0  0
    8.2998  -15.3156   24.8260 C   0  0  0  0  0  0  0  0  0  0  0  0
    9.5818  -15.2569   24.7033 O   0  0  0  0  0  0  0  0  0  0  0  0
    7.7142  -14.6182   25.8953 N   0  0  0  0  0  0  0  0  0  0  0  0
    8.5727  -13.8519   26.7943 C   0  0  1  0  0  0  0  0  0  0  0  0
    7.8021  -12.7119   27.4202 C   0  0  0  0  0  0  0  0  0  0  0  0
    6.9158  -11.8215   26.1389 S   0  0  0  0  0  0  0  0  0  0  0  0
    9.1278  -14.7625   27.8063 C   0  0  0  0  0  0  0  0  0  0  0  0
    9.9827  -14.2956   28.7861 O   0  0  0  0  0  0  0  0  0  0  0  0
    8.8669  -16.0001   27.8462 O   0  0  0  0  0  0  0  0  0  0  0  0
  2  1  1  0
  2  4  1  0
  3  2  2  0
  5  4  1  0
  6  5  1  0
  6  7  1  6
  8  6  1  0
  8 10  1  0
  9  8  2  0
 10 11  1  0
 11 12  1  1
 12 13  1  0
 13 14  1  0
 14 15  1  0
 15 16  1  0
 17 18  2  0
 17 11  1  0
 19 17  1  0
 20 19  1  0
 20 23  1  0
 20 21  1  1
 22 21  1  0
 23 24  1  0
 25 23  2  0
M  END
$$$$
