QKC.pdb
     RDKit          3D

 25 24  0  0  1  0  0  0  0  0999 V2000
   11.4630  -15.9425   13.5757 N   0  0  0  0  0  0  0  0  0  0  0  0
   10.2552  -16.5819   13.9238 C   0  0  0  0  0  0  0  0  0  0  0  0
    9.3981  -16.8484   13.0432 O   0  0  0  0  0  0  0  0  0  0  0  0
    9.9477  -16.9625   15.3247 C   0  0  0  0  0  0  0  0  0  0  0  0
   11.1015  -16.6518   16.2524 C   0  0  0  0  0  0  0  0  0  0  0  0
   10.9908  -17.5396   17.4768 C   0  0  2  0  0  0  0  0  0  0  0  0
    9.7121  -18.2231   17.5009 N   0  0  0  0  0  0  0  0  0  0  0  0
   11.1232  -16.7053   18.7313 C   0  0  0  0  0  0  0  0  0  0  0  0
   12.1780  -16.0814   18.9476 O   0  0  0  0  0  0  0  0  0  0  0  0
   10.0668  -16.6218   19.6645 N   0  0  0  0  0  0  0  0  0  0  0  0
   10.1799  -15.8454   20.9344 C   0  0  1  0  0  0  0  0  0  0  0  0
    8.8179  -15.4459   21.3765 C   0  0  0  0  0  0  0  0  0  0  0  0
    8.2953  -14.2057   20.7767 C   0  0  0  0  0  0  0  0  0  0  0  0
    7.9298  -14.3048   19.3175 C   0  0  0  0  0  0  0  0  0  0  0  0
    7.4858  -12.9444   18.7790 C   0  0  0  0  0  0  0  0  0  0  0  0
    7.0172  -13.1255   17.3962 N   0  0  0  0  0  0  0  0  0  0  0  0
   10.9822  -16.6515   21.8529 C   0  0  0  0  0  0  0  0  0  0  0  0
   10.7578  -17.9206   21.8211 O   0  0  0  0  0  0  0  0  0  0  0  0
   11.9586  -16.1839   22.7477 N   0  0  0  0  0  0  0  0  0  0  0  0
   12.7108  -17.1511   23.5421 C   0  0  1  0  0  0  0  0  0  0  0  0
   14.1915  -16.8538   23.4774 C   0  0  0  0  0  0  0  0  0  0  0  0
   14.4762  -15.1512   23.9675 S   0  0  0  0  0  0  0  0  0  0  0  0
   12.2035  -17.1244   24.9218 C   0  0  0  0  0  0  0  0  0  0  0  0
   12.6807  -18.0099   25.8689 O   0  0  0  0  0  0  0  0  0  0  0  0
   11.3206  -16.3112   25.3225 O   0  0  0  0  0  0  0  0  0  0  0  0
  2  1  1  0
  2  4  1  0
  3  2  2  0
  5  4  1  0
  6  5  1  0
  6  7  1  1
  8  6  1  0
  8 10  1  0
  9  8  2  0
 10 11  1  0
 11 12  1  1
 12 13  1  0
 13 14  1  0
 14 15  1  0
 15 16  1  0
 17 18  2  0
 17 11  1  0
 19 17  1  0
 20 19  1  0
 20 23  1  0
 20 21  1  1
 22 21  1  0
 23 24  1  0
 25 23  2  0
M  END
$$$$
