QKC.pdb
     RDKit          3D

 25 24  0  0  1  0  0  0  0  0999 V2000
   10.6007  -26.6478   18.6291 N   0  0  0  0  0  0  0  0  0  0  0  0
    9.5929  -26.5613   19.6116 C   0  0  0  0  0  0  0  0  0  0  0  0
    8.4561  -27.0574   19.4044 O   0  0  0  0  0  0  0  0  0  0  0  0
    9.8267  -25.8905   20.9144 C   0  0  0  0  0  0  0  0  0  0  0  0
   11.2017  -25.2631   20.9790 C   0  0  0  0  0  0  0  0  0  0  0  0
   11.3739  -24.6133   22.3384 C   0  0  2  0  0  0  0  0  0  0  0  0
   10.0925  -24.4597   22.9995 N   0  0  0  0  0  0  0  0  0  0  0  0
   12.0094  -23.2500   22.1804 C   0  0  0  0  0  0  0  0  0  0  0  0
   13.1451  -23.1540   21.6807 O   0  0  0  0  0  0  0  0  0  0  0  0
   11.3340  -22.0802   22.5917 N   0  0  0  0  0  0  0  0  0  0  0  0
   11.8899  -20.7134   22.3659 C   0  0  1  0  0  0  0  0  0  0  0  0
   10.9396  -19.9410   21.5233 C   0  0  0  0  0  0  0  0  0  0  0  0
   11.1694  -20.0240   20.0702 C   0  0  0  0  0  0  0  0  0  0  0  0
   10.2071  -19.2305   19.2234 C   0  0  0  0  0  0  0  0  0  0  0  0
   10.3883  -19.5661   17.7428 C   0  0  0  0  0  0  0  0  0  0  0  0
    9.4290  -18.7648   16.9668 N   0  0  0  0  0  0  0  0  0  0  0  0
   12.2258  -20.1710   23.6813 C   0  0  0  0  0  0  0  0  0  0  0  0
   12.8825  -19.0617   23.6749 O   0  0  0  0  0  0  0  0  0  0  0  0
   11.9040  -20.7314   24.9284 N   0  0  0  0  0  0  0  0  0  0  0  0
   12.2616  -20.0047   26.1435 C   0  0  1  0  0  0  0  0  0  0  0  0
   11.0364  -19.7576   26.9938 C   0  0  0  0  0  0  0  0  0  0  0  0
    9.7748  -18.9597   25.9978 S   0  0  0  0  0  0  0  0  0  0  0  0
   13.2880  -20.7702   26.8660 C   0  0  0  0  0  0  0  0  0  0  0  0
   13.7497  -21.9758   26.3738 O   0  0  0  0  0  0  0  0  0  0  0  0
   13.8026  -20.3865   27.9566 O   0  0  0  0  0  0  0  0  0  0  0  0
  2  1  1  0
  2  4  1  0
  3  2  2  0
  5  4  1  0
  6  5  1  0
  6  7  1  6
  8  6  1  0
  8 10  1  0
  9  8  2  0
 10 11  1  0
 11 12  1  1
 12 13  1  0
 13 14  1  0
 14 15  1  0
 15 16  1  0
 17 18  2  0
 17 11  1  0
 19 17  1  0
 20 19  1  0
 20 23  1  0
 20 21  1  1
 22 21  1  0
 23 24  1  0
 25 23  2  0
M  END
$$$$
