SEC.pdb
     RDKit          3D

 22 21  0  0  1  0  0  0  0  0999 V2000
   14.6793   -9.3232  -16.0113 O   0  0  0  0  0  0  0  0  0  0  0  0
   15.9352   -8.8706  -15.6306 C   0  0  0  0  0  0  0  0  0  0  0  0
   16.9676   -9.9481  -15.6501 C   0  0  2  0  0  0  0  0  0  0  0  0
   16.6206  -11.0101  -14.7567 N   0  0  0  0  0  0  0  0  0  0  0  0
   18.3255   -9.3871  -15.3422 C   0  0  0  0  0  0  0  0  0  0  0  0
   18.5662   -8.9508  -14.1877 O   0  0  0  0  0  0  0  0  0  0  0  0
   19.3007   -9.3686  -16.3760 N   0  0  0  0  0  0  0  0  0  0  0  0
   20.5928   -8.8107  -16.1644 C   0  0  1  0  0  0  0  0  0  0  0  0
   21.6183   -9.2447  -17.1903 C   0  0  0  0  0  0  0  0  0  0  0  0
   21.9612  -10.7049  -17.0611 C   0  0  0  0  0  0  0  0  0  0  0  0
   22.8904  -11.0524  -18.1656 C   0  0  0  0  0  0  0  0  0  0  0  0
   22.4667  -11.6719  -19.1732 O   0  0  0  0  0  0  0  0  0  0  0  0
   20.6018   -7.3305  -16.1261 C   0  0  0  0  0  0  0  0  0  0  0  0
   19.8371   -6.7201  -16.9150 O   0  0  0  0  0  0  0  0  0  0  0  0
   24.2403  -10.7222  -18.1479 O   0  0  0  0  0  0  0  0  0  0  0  0
   21.4119   -6.5503  -15.2627 N   0  0  0  0  0  0  0  0  0  0  0  0
   21.2766   -5.0982  -15.1748 C   0  0  1  0  0  0  0  0  0  0  0  0
   19.8776   -4.7003  -14.7753 C   0  0  0  0  0  0  0  0  0  0  0  0
   19.7653   -2.9431  -14.3616 S   0  0  0  0  0  0  0  0  0  0  0  0
   22.3007   -4.5592  -14.2197 C   0  0  0  0  0  0  0  0  0  0  0  0
   22.8900   -3.3190  -14.4137 O   0  0  0  0  0  0  0  0  0  0  0  0
   22.6622   -5.2138  -13.2069 O   0  0  0  0  0  0  0  0  0  0  0  0
  1  2  1  0
  2  3  1  0
  3  4  1  1
  5  7  1  0
  5  3  1  0
  6  5  2  0
  8 13  1  0
  8  7  1  0
  8  9  1  6
 10 11  1  0
 10  9  1  0
 11 15  1  0
 12 11  2  0
 13 16  1  0
 14 13  2  0
 16 17  1  0
 17 20  1  0
 17 18  1  1
 18 19  1  0
 20 21  1  0
 22 20  2  0
M  END
$$$$
