SEC.pdb
     RDKit          3D

 22 21  0  0  1  0  0  0  0  0999 V2000
   16.3223  -10.1361  -13.3193 O   0  0  0  0  0  0  0  0  0  0  0  0
   15.7305  -10.2560  -14.5693 C   0  0  0  0  0  0  0  0  0  0  0  0
   16.6909  -10.6976  -15.6227 C   0  0  2  0  0  0  0  0  0  0  0  0
   17.2437  -11.9796  -15.3110 N   0  0  0  0  0  0  0  0  0  0  0  0
   17.7634   -9.6675  -15.8280 C   0  0  0  0  0  0  0  0  0  0  0  0
   18.9638   -9.9746  -15.6142 O   0  0  0  0  0  0  0  0  0  0  0  0
   17.3809   -8.3688  -16.2609 N   0  0  0  0  0  0  0  0  0  0  0  0
   18.3526   -7.3802  -16.5831 C   0  0  1  0  0  0  0  0  0  0  0  0
   17.8207   -6.2684  -17.4626 C   0  0  0  0  0  0  0  0  0  0  0  0
   18.9133   -5.3368  -17.9154 C   0  0  0  0  0  0  0  0  0  0  0  0
   18.2981   -4.3066  -18.7894 C   0  0  0  0  0  0  0  0  0  0  0  0
   18.0992   -4.5502  -20.0058 O   0  0  0  0  0  0  0  0  0  0  0  0
   18.9739   -6.7490  -15.3964 C   0  0  0  0  0  0  0  0  0  0  0  0
   18.2279   -6.4695  -14.4243 O   0  0  0  0  0  0  0  0  0  0  0  0
   17.9189   -3.0525  -18.3257 O   0  0  0  0  0  0  0  0  0  0  0  0
   20.3517   -6.4364  -15.2769 N   0  0  0  0  0  0  0  0  0  0  0  0
   20.9034   -5.8099  -14.0779 C   0  0  1  0  0  0  0  0  0  0  0  0
   21.9422   -6.6892  -13.4276 C   0  0  0  0  0  0  0  0  0  0  0  0
   22.7417   -5.8704  -12.0268 S   0  0  0  0  0  0  0  0  0  0  0  0
   21.4600   -4.4619  -14.4310 C   0  0  0  0  0  0  0  0  0  0  0  0
   21.2488   -3.3564  -13.6209 O   0  0  0  0  0  0  0  0  0  0  0  0
   22.1393   -4.2856  -15.4761 O   0  0  0  0  0  0  0  0  0  0  0  0
  1  2  1  0
  2  3  1  0
  3  4  1  1
  5  7  1  0
  5  3  1  0
  6  5  2  0
  8 13  1  0
  8  7  1  0
  8  9  1  1
 10 11  1  0
 10  9  1  0
 11 15  1  0
 12 11  2  0
 13 16  1  0
 14 13  2  0
 16 17  1  0
 17 20  1  0
 17 18  1  6
 18 19  1  0
 20 21  1  0
 22 20  2  0
M  END
$$$$
