SEC.pdb
     RDKit          3D

 22 21  0  0  1  0  0  0  0  0999 V2000
   23.8598  -13.4429  -17.5376 O   0  0  0  0  0  0  0  0  0  0  0  0
   23.4171  -12.1315  -17.6444 C   0  0  0  0  0  0  0  0  0  0  0  0
   22.0498  -12.0300  -18.2339 C   0  0  2  0  0  0  0  0  0  0  0  0
   22.0628  -12.3632  -19.6250 N   0  0  0  0  0  0  0  0  0  0  0  0
   21.4700  -10.6658  -17.9969 C   0  0  0  0  0  0  0  0  0  0  0  0
   21.8224   -9.7087  -18.7322 O   0  0  0  0  0  0  0  0  0  0  0  0
   20.5343  -10.5022  -16.9396 N   0  0  0  0  0  0  0  0  0  0  0  0
   19.9203   -9.2442  -16.6829 C   0  0  1  0  0  0  0  0  0  0  0  0
   18.4828   -9.3521  -16.2199 C   0  0  0  0  0  0  0  0  0  0  0  0
   17.8523   -7.9997  -16.0203 C   0  0  0  0  0  0  0  0  0  0  0  0
   16.4473   -8.2128  -15.5908 C   0  0  0  0  0  0  0  0  0  0  0  0
   15.7136   -7.2276  -15.3266 O   0  0  0  0  0  0  0  0  0  0  0  0
   20.6463   -8.4205  -15.6894 C   0  0  0  0  0  0  0  0  0  0  0  0
   21.5161   -8.9885  -14.9820 O   0  0  0  0  0  0  0  0  0  0  0  0
   15.8814   -9.4754  -15.4607 O   0  0  0  0  0  0  0  0  0  0  0  0
   20.4310   -7.0352  -15.4777 N   0  0  0  0  0  0  0  0  0  0  0  0
   21.3999   -6.1989  -14.7731 C   0  0  1  0  0  0  0  0  0  0  0  0
   22.7678   -6.2953  -15.4012 C   0  0  0  0  0  0  0  0  0  0  0  0
   23.9304   -5.1140  -14.6770 S   0  0  0  0  0  0  0  0  0  0  0  0
   20.9041   -4.7831  -14.7384 C   0  0  0  0  0  0  0  0  0  0  0  0
   21.0552   -3.9902  -13.6108 O   0  0  0  0  0  0  0  0  0  0  0  0
   20.3325   -4.2633  -15.7325 O   0  0  0  0  0  0  0  0  0  0  0  0
  1  2  1  0
  2  3  1  0
  3  4  1  6
  5  7  1  0
  5  3  1  0
  6  5  2  0
  8 13  1  0
  8  7  1  0
  8  9  1  1
 10 11  1  0
 10  9  1  0
 11 15  1  0
 12 11  2  0
 13 16  1  0
 14 13  2  0
 16 17  1  0
 17 20  1  0
 17 18  1  6
 18 19  1  0
 20 21  1  0
 22 20  2  0
M  END
$$$$
