SEC.pdb
     RDKit          3D

 22 21  0  0  1  0  0  0  0  0999 V2000
   29.0296  -21.7148  -16.0460 O   0  0  0  0  0  0  0  0  0  0  0  0
   27.6432  -21.7808  -16.0695 C   0  0  0  0  0  0  0  0  0  0  0  0
   27.0024  -20.4352  -16.1476 C   0  0  2  0  0  0  0  0  0  0  0  0
   27.9319  -19.4478  -16.6029 N   0  0  0  0  0  0  0  0  0  0  0  0
   26.3973  -20.0585  -14.8265 C   0  0  0  0  0  0  0  0  0  0  0  0
   26.4985  -18.8743  -14.4161 O   0  0  0  0  0  0  0  0  0  0  0  0
   25.7248  -21.0629  -14.0788 N   0  0  0  0  0  0  0  0  0  0  0  0
   24.9123  -20.7318  -12.9582 C   0  0  1  0  0  0  0  0  0  0  0  0
   23.5482  -21.3883  -12.9807 C   0  0  0  0  0  0  0  0  0  0  0  0
   22.7327  -20.9523  -14.1687 C   0  0  0  0  0  0  0  0  0  0  0  0
   21.3192  -20.8351  -13.7306 C   0  0  0  0  0  0  0  0  0  0  0  0
   20.9753  -21.2509  -12.5960 O   0  0  0  0  0  0  0  0  0  0  0  0
   25.5381  -21.0525  -11.6551 C   0  0  0  0  0  0  0  0  0  0  0  0
   26.1041  -22.1685  -11.5367 O   0  0  0  0  0  0  0  0  0  0  0  0
   20.3266  -20.2757  -14.5265 O   0  0  0  0  0  0  0  0  0  0  0  0
   25.5453  -20.1907  -10.5292 N   0  0  0  0  0  0  0  0  0  0  0  0
   26.1197  -20.5940   -9.2479 C   0  0  1  0  0  0  0  0  0  0  0  0
   27.0285  -19.5256   -8.6930 C   0  0  0  0  0  0  0  0  0  0  0  0
   27.0643  -19.5391   -6.8846 S   0  0  0  0  0  0  0  0  0  0  0  0
   25.0148  -20.9340   -8.2913 C   0  0  0  0  0  0  0  0  0  0  0  0
   25.2326  -21.7559   -7.1958 O   0  0  0  0  0  0  0  0  0  0  0  0
   23.8492  -20.4851   -8.4487 O   0  0  0  0  0  0  0  0  0  0  0  0
  1  2  1  0
  2  3  1  0
  3  4  1  1
  5  7  1  0
  5  3  1  0
  6  5  2  0
  8 13  1  0
  8  7  1  0
  8  9  1  6
 10 11  1  0
 10  9  1  0
 11 15  1  0
 12 11  2  0
 13 16  1  0
 14 13  2  0
 16 17  1  0
 17 20  1  0
 17 18  1  1
 18 19  1  0
 20 21  1  0
 22 20  2  0
M  END
$$$$
