SEC.pdb
     RDKit          3D

 22 21  0  0  1  0  0  0  0  0999 V2000
   18.8387  -13.5189  -14.8167 O   0  0  0  0  0  0  0  0  0  0  0  0
   19.5566  -12.4060  -15.2329 C   0  0  0  0  0  0  0  0  0  0  0  0
   19.0986  -11.8846  -16.5540 C   0  0  2  0  0  0  0  0  0  0  0  0
   19.5547  -12.7185  -17.6230 N   0  0  0  0  0  0  0  0  0  0  0  0
   19.5314  -10.4593  -16.7405 C   0  0  0  0  0  0  0  0  0  0  0  0
   20.5776  -10.2118  -17.3927 O   0  0  0  0  0  0  0  0  0  0  0  0
   18.7360   -9.4298  -16.1681 N   0  0  0  0  0  0  0  0  0  0  0  0
   19.1013   -8.0595  -16.2878 C   0  0  1  0  0  0  0  0  0  0  0  0
   18.0548   -7.1024  -15.7574 C   0  0  0  0  0  0  0  0  0  0  0  0
   18.3956   -5.6686  -16.0644 C   0  0  0  0  0  0  0  0  0  0  0  0
   17.3481   -4.8122  -15.4536 C   0  0  0  0  0  0  0  0  0  0  0  0
   17.5829   -4.1970  -14.3836 O   0  0  0  0  0  0  0  0  0  0  0  0
   20.3836   -7.7266  -15.6264 C   0  0  0  0  0  0  0  0  0  0  0  0
   20.6462   -8.2977  -14.5380 O   0  0  0  0  0  0  0  0  0  0  0  0
   16.0869   -4.6476  -16.0137 O   0  0  0  0  0  0  0  0  0  0  0  0
   21.3384   -6.8087  -16.1325 N   0  0  0  0  0  0  0  0  0  0  0  0
   22.5894   -6.5264  -15.4326 C   0  0  1  0  0  0  0  0  0  0  0  0
   23.7801   -7.0214  -16.2152 C   0  0  0  0  0  0  0  0  0  0  0  0
   25.3440   -6.5032  -15.4687 S   0  0  0  0  0  0  0  0  0  0  0  0
   22.6826   -5.0553  -15.1521 C   0  0  0  0  0  0  0  0  0  0  0  0
   23.2104   -4.5769  -13.9623 O   0  0  0  0  0  0  0  0  0  0  0  0
   22.2848   -4.2014  -15.9874 O   0  0  0  0  0  0  0  0  0  0  0  0
  1  2  1  0
  2  3  1  0
  3  4  1  6
  5  7  1  0
  5  3  1  0
  6  5  2  0
  8 13  1  0
  8  7  1  0
  8  9  1  1
 10 11  1  0
 10  9  1  0
 11 15  1  0
 12 11  2  0
 13 16  1  0
 14 13  2  0
 16 17  1  0
 17 20  1  0
 17 18  1  6
 18 19  1  0
 20 21  1  0
 22 20  2  0
M  END
$$$$
