SEC.pdb
     RDKit          3D

 22 21  0  0  1  0  0  0  0  0999 V2000
   16.2771  -11.0096  -10.3011 O   0  0  0  0  0  0  0  0  0  0  0  0
   15.7738   -9.7325  -10.5079 C   0  0  0  0  0  0  0  0  0  0  0  0
   14.9973   -9.6164  -11.7770 C   0  0  2  0  0  0  0  0  0  0  0  0
   14.7162  -10.9060  -12.3285 N   0  0  0  0  0  0  0  0  0  0  0  0
   15.7160   -8.7386  -12.7601 C   0  0  0  0  0  0  0  0  0  0  0  0
   16.0762   -9.2160  -13.8661 O   0  0  0  0  0  0  0  0  0  0  0  0
   15.9665   -7.3859  -12.4029 N   0  0  0  0  0  0  0  0  0  0  0  0
   16.6904   -6.5150  -13.2647 C   0  0  1  0  0  0  0  0  0  0  0  0
   16.1897   -5.0862  -13.2459 C   0  0  0  0  0  0  0  0  0  0  0  0
   16.9015   -4.2265  -14.2562 C   0  0  0  0  0  0  0  0  0  0  0  0
   16.3478   -2.8529  -14.1540 C   0  0  0  0  0  0  0  0  0  0  0  0
   15.6862   -2.3685  -15.1060 O   0  0  0  0  0  0  0  0  0  0  0  0
   18.1448   -6.4796  -12.9885 C   0  0  0  0  0  0  0  0  0  0  0  0
   18.5111   -6.4244  -11.7875 O   0  0  0  0  0  0  0  0  0  0  0  0
   16.5244   -2.0497  -13.0338 O   0  0  0  0  0  0  0  0  0  0  0  0
   19.1559   -6.5035  -13.9822 N   0  0  0  0  0  0  0  0  0  0  0  0
   20.5711   -6.6380  -13.6452 C   0  0  1  0  0  0  0  0  0  0  0  0
   21.2038   -7.7918  -14.3825 C   0  0  0  0  0  0  0  0  0  0  0  0
   22.9844   -7.8933  -14.0812 S   0  0  0  0  0  0  0  0  0  0  0  0
   21.2763   -5.3444  -13.9296 C   0  0  0  0  0  0  0  0  0  0  0  0
   22.3142   -4.8939  -13.1278 O   0  0  0  0  0  0  0  0  0  0  0  0
   20.9511   -4.6208  -14.9071 O   0  0  0  0  0  0  0  0  0  0  0  0
  1  2  1  0
  2  3  1  0
  3  4  1  6
  5  7  1  0
  5  3  1  0
  6  5  2  0
  8 13  1  0
  8  7  1  0
  8  9  1  1
 10 11  1  0
 10  9  1  0
 11 15  1  0
 12 11  2  0
 13 16  1  0
 14 13  2  0
 16 17  1  0
 17 20  1  0
 17 18  1  6
 18 19  1  0
 20 21  1  0
 22 20  2  0
M  END
$$$$
