SEC.pdb
     RDKit          3D

 22 21  0  0  1  0  0  0  0  0999 V2000
   12.4021  -12.1018  -14.4283 O   0  0  0  0  0  0  0  0  0  0  0  0
   13.1342  -11.5375  -13.3926 C   0  0  0  0  0  0  0  0  0  0  0  0
   14.5245  -12.0734  -13.3095 C   0  0  2  0  0  0  0  0  0  0  0  0
   14.5239  -13.4475  -12.9120 N   0  0  0  0  0  0  0  0  0  0  0  0
   15.3632  -11.2320  -12.3917 C   0  0  0  0  0  0  0  0  0  0  0  0
   15.3181  -11.4373  -11.1521 O   0  0  0  0  0  0  0  0  0  0  0  0
   16.1867  -10.2233  -12.9616 N   0  0  0  0  0  0  0  0  0  0  0  0
   16.9897   -9.3763  -12.1473 C   0  0  1  0  0  0  0  0  0  0  0  0
   18.1408   -8.7315  -12.8901 C   0  0  0  0  0  0  0  0  0  0  0  0
   19.0468   -7.9620  -11.9662 C   0  0  0  0  0  0  0  0  0  0  0  0
   20.0338   -7.2328  -12.8017 C   0  0  0  0  0  0  0  0  0  0  0  0
   20.8924   -6.4928  -12.2599 O   0  0  0  0  0  0  0  0  0  0  0  0
   16.2278   -8.2940  -11.4833 C   0  0  0  0  0  0  0  0  0  0  0  0
   15.4557   -7.6016  -12.1932 O   0  0  0  0  0  0  0  0  0  0  0  0
   20.0628   -7.3247  -14.1882 O   0  0  0  0  0  0  0  0  0  0  0  0
   16.3062   -7.9817  -10.1025 N   0  0  0  0  0  0  0  0  0  0  0  0
   15.5179   -6.9065   -9.5050 C   0  0  1  0  0  0  0  0  0  0  0  0
   15.2507   -7.1685   -8.0437 C   0  0  0  0  0  0  0  0  0  0  0  0
   14.0989   -5.9648   -7.3394 S   0  0  0  0  0  0  0  0  0  0  0  0
   16.2210   -5.5975   -9.7142 C   0  0  0  0  0  0  0  0  0  0  0  0
   17.5336   -5.5433  -10.1582 O   0  0  0  0  0  0  0  0  0  0  0  0
   15.6444   -4.5002   -9.4940 O   0  0  0  0  0  0  0  0  0  0  0  0
  1  2  1  0
  2  3  1  0
  3  4  1  1
  5  7  1  0
  5  3  1  0
  6  5  2  0
  8 13  1  0
  8  7  1  0
  8  9  1  6
 10 11  1  0
 10  9  1  0
 11 15  1  0
 12 11  2  0
 13 16  1  0
 14 13  2  0
 16 17  1  0
 17 20  1  0
 17 18  1  1
 18 19  1  0
 20 21  1  0
 22 20  2  0
M  END
$$$$
