SEC.pdb
     RDKit          3D

 22 21  0  0  1  0  0  0  0  0999 V2000
   12.3704  -12.8783  -11.7880 O   0  0  0  0  0  0  0  0  0  0  0  0
   13.1514  -11.9979  -12.5242 C   0  0  0  0  0  0  0  0  0  0  0  0
   14.5864  -12.4043  -12.5765 C   0  0  2  0  0  0  0  0  0  0  0  0
   14.7536  -13.7598  -12.1510 N   0  0  0  0  0  0  0  0  0  0  0  0
   15.4340  -11.4627  -11.7712 C   0  0  0  0  0  0  0  0  0  0  0  0
   15.4388  -11.5549  -10.5172 O   0  0  0  0  0  0  0  0  0  0  0  0
   16.2086  -10.4908  -12.4608 N   0  0  0  0  0  0  0  0  0  0  0  0
   17.0065   -9.5455  -11.7571 C   0  0  1  0  0  0  0  0  0  0  0  0
   18.1262   -8.9560  -12.5886 C   0  0  0  0  0  0  0  0  0  0  0  0
   19.0608   -8.1157  -11.7599 C   0  0  0  0  0  0  0  0  0  0  0  0
   20.0826   -7.5408  -12.6705 C   0  0  0  0  0  0  0  0  0  0  0  0
   21.2709   -7.9457  -12.6189 O   0  0  0  0  0  0  0  0  0  0  0  0
   16.2315   -8.4173  -11.1921 C   0  0  0  0  0  0  0  0  0  0  0  0
   15.4494   -7.8022  -11.9599 O   0  0  0  0  0  0  0  0  0  0  0  0
   19.7916   -6.5524  -13.6032 O   0  0  0  0  0  0  0  0  0  0  0  0
   16.3078   -7.9799   -9.8456 N   0  0  0  0  0  0  0  0  0  0  0  0
   15.4498   -6.9178   -9.3257 C   0  0  1  0  0  0  0  0  0  0  0  0
   14.8876   -7.2787   -7.9734 C   0  0  0  0  0  0  0  0  0  0  0  0
   13.7589   -8.6893   -8.0637 S   0  0  0  0  0  0  0  0  0  0  0  0
   16.2211   -5.6314   -9.2804 C   0  0  0  0  0  0  0  0  0  0  0  0
   15.6040   -4.4274   -8.9758 O   0  0  0  0  0  0  0  0  0  0  0  0
   17.4571   -5.5986   -9.5174 O   0  0  0  0  0  0  0  0  0  0  0  0
  1  2  1  0
  2  3  1  0
  3  4  1  1
  5  7  1  0
  5  3  1  0
  6  5  2  0
  8 13  1  0
  8  7  1  0
  8  9  1  6
 10 11  1  0
 10  9  1  0
 11 15  1  0
 12 11  2  0
 13 16  1  0
 14 13  2  0
 16 17  1  0
 17 20  1  0
 17 18  1  1
 18 19  1  0
 20 21  1  0
 22 20  2  0
M  END
$$$$
