SEC.pdb
     RDKit          3D

 22 21  0  0  1  0  0  0  0  0999 V2000
   19.8835  -12.6383  -14.7084 O   0  0  0  0  0  0  0  0  0  0  0  0
   19.2190  -13.1042  -15.8346 C   0  0  0  0  0  0  0  0  0  0  0  0
   17.9047  -12.4306  -16.0494 C   0  0  2  0  0  0  0  0  0  0  0  0
   17.2007  -13.0139  -17.1495 N   0  0  0  0  0  0  0  0  0  0  0  0
   18.0902  -10.9521  -16.2322 C   0  0  0  0  0  0  0  0  0  0  0  0
   18.6087  -10.5213  -17.2936 O   0  0  0  0  0  0  0  0  0  0  0  0
   17.6693  -10.0829  -15.1894 N   0  0  0  0  0  0  0  0  0  0  0  0
   17.6936   -8.6690  -15.3496 C   0  0  1  0  0  0  0  0  0  0  0  0
   16.4209   -7.9837  -14.8989 C   0  0  0  0  0  0  0  0  0  0  0  0
   15.3365   -8.0687  -15.9397 C   0  0  0  0  0  0  0  0  0  0  0  0
   14.1177   -7.4337  -15.3783 C   0  0  0  0  0  0  0  0  0  0  0  0
   13.8927   -7.4860  -14.1433 O   0  0  0  0  0  0  0  0  0  0  0  0
   18.8227   -8.0115  -14.6529 C   0  0  0  0  0  0  0  0  0  0  0  0
   18.9478   -8.2160  -13.4191 O   0  0  0  0  0  0  0  0  0  0  0  0
   13.1852   -6.7659  -16.1631 O   0  0  0  0  0  0  0  0  0  0  0  0
   19.7747   -7.1666  -15.2776 N   0  0  0  0  0  0  0  0  0  0  0  0
   20.9159   -6.6145  -14.5514 C   0  0  1  0  0  0  0  0  0  0  0  0
   22.2154   -7.2022  -15.0423 C   0  0  0  0  0  0  0  0  0  0  0  0
   22.3854   -8.9445  -14.5872 S   0  0  0  0  0  0  0  0  0  0  0  0
   20.9045   -5.1186  -14.6681 C   0  0  0  0  0  0  0  0  0  0  0  0
   21.5709   -4.3158  -13.7546 O   0  0  0  0  0  0  0  0  0  0  0  0
   20.2892   -4.5376  -15.6003 O   0  0  0  0  0  0  0  0  0  0  0  0
  1  2  1  0
  2  3  1  0
  3  4  1  6
  5  7  1  0
  5  3  1  0
  6  5  2  0
  8 13  1  0
  8  7  1  0
  8  9  1  1
 10 11  1  0
 10  9  1  0
 11 15  1  0
 12 11  2  0
 13 16  1  0
 14 13  2  0
 16 17  1  0
 17 20  1  0
 17 18  1  6
 18 19  1  0
 20 21  1  0
 22 20  2  0
M  END
$$$$
