SEC.pdb
     RDKit          3D

 22 21  0  0  1  0  0  0  0  0999 V2000
   14.3265  -12.3133  -16.6200 O   0  0  0  0  0  0  0  0  0  0  0  0
   15.5754  -12.6230  -17.1411 C   0  0  0  0  0  0  0  0  0  0  0  0
   16.5384  -13.0828  -16.0979 C   0  0  2  0  0  0  0  0  0  0  0  0
   15.8514  -13.6129  -14.9606 N   0  0  0  0  0  0  0  0  0  0  0  0
   17.4726  -11.9727  -15.7124 C   0  0  0  0  0  0  0  0  0  0  0  0
   17.3400  -11.4145  -14.5936 O   0  0  0  0  0  0  0  0  0  0  0  0
   18.4837  -11.5880  -16.6342 N   0  0  0  0  0  0  0  0  0  0  0  0
   19.3927  -10.5337  -16.3380 C   0  0  1  0  0  0  0  0  0  0  0  0
   20.7233  -10.6599  -17.0493 C   0  0  0  0  0  0  0  0  0  0  0  0
   21.7158   -9.6326  -16.5740 C   0  0  0  0  0  0  0  0  0  0  0  0
   23.0208   -9.9312  -17.2155 C   0  0  0  0  0  0  0  0  0  0  0  0
   23.5720  -11.0453  -17.0322 O   0  0  0  0  0  0  0  0  0  0  0  0
   18.8564   -9.1859  -16.6351 C   0  0  0  0  0  0  0  0  0  0  0  0
   17.9423   -9.0959  -17.4930 O   0  0  0  0  0  0  0  0  0  0  0  0
   23.6864   -9.0231  -18.0303 O   0  0  0  0  0  0  0  0  0  0  0  0
   19.2999   -7.9873  -16.0211 N   0  0  0  0  0  0  0  0  0  0  0  0
   18.6414   -6.7049  -16.2584 C   0  0  1  0  0  0  0  0  0  0  0  0
   17.1909   -6.7481  -15.8465 C   0  0  0  0  0  0  0  0  0  0  0  0
   16.4681   -5.0936  -15.7384 S   0  0  0  0  0  0  0  0  0  0  0  0
   19.3896   -5.6201  -15.5409 C   0  0  0  0  0  0  0  0  0  0  0  0
   20.2645   -5.9076  -14.5041 O   0  0  0  0  0  0  0  0  0  0  0  0
   19.2501   -4.4088  -15.8543 O   0  0  0  0  0  0  0  0  0  0  0  0
  1  2  1  0
  2  3  1  0
  3  4  1  1
  5  7  1  0
  5  3  1  0
  6  5  2  0
  8 13  1  0
  8  7  1  0
  8  9  1  6
 10 11  1  0
 10  9  1  0
 11 15  1  0
 12 11  2  0
 13 16  1  0
 14 13  2  0
 16 17  1  0
 17 20  1  0
 17 18  1  1
 18 19  1  0
 20 21  1  0
 22 20  2  0
M  END
$$$$
