SEC.pdb
     RDKit          3D

 22 21  0  0  1  0  0  0  0  0999 V2000
   25.9092  -10.9762  -16.4507 O   0  0  0  0  0  0  0  0  0  0  0  0
   24.9042  -11.9211  -16.2948 C   0  0  0  0  0  0  0  0  0  0  0  0
   23.9362  -11.9271  -17.4307 C   0  0  2  0  0  0  0  0  0  0  0  0
   24.6166  -12.0015  -18.6868 N   0  0  0  0  0  0  0  0  0  0  0  0
   23.0303  -10.7320  -17.3617 C   0  0  0  0  0  0  0  0  0  0  0  0
   23.1809   -9.7945  -18.1860 O   0  0  0  0  0  0  0  0  0  0  0  0
   22.0247  -10.7018  -16.3577 N   0  0  0  0  0  0  0  0  0  0  0  0
   21.1409   -9.5938  -16.2289 C   0  0  1  0  0  0  0  0  0  0  0  0
   19.8805   -9.9083  -15.4510 C   0  0  0  0  0  0  0  0  0  0  0  0
   19.0259  -10.9301  -16.1525 C   0  0  0  0  0  0  0  0  0  0  0  0
   17.8666  -11.2313  -15.2755 C   0  0  0  0  0  0  0  0  0  0  0  0
   17.7453  -10.6473  -14.1697 O   0  0  0  0  0  0  0  0  0  0  0  0
   21.7647   -8.4060  -15.6023 C   0  0  0  0  0  0  0  0  0  0  0  0
   22.6167   -8.6005  -14.6989 O   0  0  0  0  0  0  0  0  0  0  0  0
   16.8800  -12.1484  -15.6176 O   0  0  0  0  0  0  0  0  0  0  0  0
   21.4703   -7.0628  -15.9479 N   0  0  0  0  0  0  0  0  0  0  0  0
   22.1271   -5.9326  -15.2956 C   0  0  1  0  0  0  0  0  0  0  0  0
   22.0257   -4.6813  -16.1319 C   0  0  0  0  0  0  0  0  0  0  0  0
   22.6127   -3.2213  -15.2400 S   0  0  0  0  0  0  0  0  0  0  0  0
   21.5395   -5.7355  -13.9291 C   0  0  0  0  0  0  0  0  0  0  0  0
   20.2300   -6.0930  -13.6454 O   0  0  0  0  0  0  0  0  0  0  0  0
   22.2144   -5.2381  -12.9899 O   0  0  0  0  0  0  0  0  0  0  0  0
  1  2  1  0
  2  3  1  0
  3  4  1  6
  5  7  1  0
  5  3  1  0
  6  5  2  0
  8 13  1  0
  8  7  1  0
  8  9  1  1
 10 11  1  0
 10  9  1  0
 11 15  1  0
 12 11  2  0
 13 16  1  0
 14 13  2  0
 16 17  1  0
 17 20  1  0
 17 18  1  6
 18 19  1  0
 20 21  1  0
 22 20  2  0
M  END
$$$$
