SEC.pdb
     RDKit          3D

 22 21  0  0  1  0  0  0  0  0999 V2000
   15.9027  -10.8374  -17.3670 O   0  0  0  0  0  0  0  0  0  0  0  0
   16.8515   -9.9141  -16.9497 C   0  0  0  0  0  0  0  0  0  0  0  0
   17.8948  -10.5164  -16.0687 C   0  0  2  0  0  0  0  0  0  0  0  0
   17.3116  -11.0770  -14.8889 N   0  0  0  0  0  0  0  0  0  0  0  0
   18.9552   -9.5072  -15.7362 C   0  0  0  0  0  0  0  0  0  0  0  0
   18.8079   -8.7644  -14.7324 O   0  0  0  0  0  0  0  0  0  0  0  0
   20.0994   -9.4259  -16.5755 N   0  0  0  0  0  0  0  0  0  0  0  0
   21.1722   -8.5387  -16.2799 C   0  0  1  0  0  0  0  0  0  0  0  0
   22.4709   -8.9043  -16.9672 C   0  0  0  0  0  0  0  0  0  0  0  0
   23.5860   -7.9608  -16.6029 C   0  0  0  0  0  0  0  0  0  0  0  0
   24.8327   -8.4681  -17.2293 C   0  0  0  0  0  0  0  0  0  0  0  0
   24.8239   -9.5565  -17.8569 O   0  0  0  0  0  0  0  0  0  0  0  0
   20.8803   -7.1241  -16.6058 C   0  0  0  0  0  0  0  0  0  0  0  0
   20.2941   -6.8826  -17.6910 O   0  0  0  0  0  0  0  0  0  0  0  0
   26.0429   -7.7886  -17.1589 O   0  0  0  0  0  0  0  0  0  0  0  0
   21.2145   -6.0202  -15.7812 N   0  0  0  0  0  0  0  0  0  0  0  0
   20.8524   -4.6499  -16.1356 C   0  0  1  0  0  0  0  0  0  0  0  0
   19.3776   -4.4031  -15.9373 C   0  0  0  0  0  0  0  0  0  0  0  0
   18.9907   -2.6378  -15.8611 S   0  0  0  0  0  0  0  0  0  0  0  0
   21.6873   -3.6916  -15.3381 C   0  0  0  0  0  0  0  0  0  0  0  0
   21.9009   -2.3893  -15.7641 O   0  0  0  0  0  0  0  0  0  0  0  0
   22.2246   -4.0353  -14.2527 O   0  0  0  0  0  0  0  0  0  0  0  0
  1  2  1  0
  2  3  1  0
  3  4  1  1
  5  7  1  0
  5  3  1  0
  6  5  2  0
  8 13  1  0
  8  7  1  0
  8  9  1  6
 10 11  1  0
 10  9  1  0
 11 15  1  0
 12 11  2  0
 13 16  1  0
 14 13  2  0
 16 17  1  0
 17 20  1  0
 17 18  1  1
 18 19  1  0
 20 21  1  0
 22 20  2  0
M  END
$$$$
