LVC.pdb
     RDKit          3D

 22 21  0  0  1  0  0  0  0  0999 V2000
   20.9320  -16.3328  -17.1048 C   0  0  0  0  0  0  0  0  0  0  0  0
   20.5151  -17.7893  -17.1245 C   0  0  2  0  0  0  0  0  0  0  0  0
   19.2136  -17.9148  -16.3243 C   0  0  0  0  0  0  0  0  0  0  0  0
   21.5770  -18.6153  -16.4457 C   0  0  0  0  0  0  0  0  0  0  0  0
   22.9444  -18.4204  -17.0506 C   0  0  2  0  0  0  0  0  0  0  0  0
   22.9561  -19.0242  -18.3657 N   0  0  0  0  0  0  0  0  0  0  0  0
   23.9132  -19.1809  -16.1823 C   0  0  0  0  0  0  0  0  0  0  0  0
   23.8961  -20.4420  -16.1119 O   0  0  0  0  0  0  0  0  0  0  0  0
   27.6812  -18.6319  -16.1776 C   0  0  0  0  0  0  0  0  0  0  0  0
   27.1847  -18.4129  -14.7291 C   0  0  2  0  0  0  0  0  0  0  0  0
   28.2928  -18.9536  -13.8603 C   0  0  0  0  0  0  0  0  0  0  0  0
   25.9153  -19.2203  -14.6289 C   0  0  2  0  0  0  0  0  0  0  0  0
   24.8875  -18.4915  -15.4100 N   0  0  0  0  0  0  0  0  0  0  0  0
   25.4299  -19.4225  -13.2451 C   0  0  0  0  0  0  0  0  0  0  0  0
   24.4901  -18.6496  -12.8417 O   0  0  0  0  0  0  0  0  0  0  0  0
   25.8758  -20.3631  -12.3197 N   0  0  0  0  0  0  0  0  0  0  0  0
   25.5264  -20.4293  -10.9137 C   0  0  1  0  0  0  0  0  0  0  0  0
   24.3731  -21.3200  -10.6091 C   0  0  0  0  0  0  0  0  0  0  0  0
   23.9987  -21.3013   -8.8306 S   0  0  0  0  0  0  0  0  0  0  0  0
   26.6800  -20.8845  -10.0943 C   0  0  0  0  0  0  0  0  0  0  0  0
   26.7372  -20.5675   -8.7398 O   0  0  0  0  0  0  0  0  0  0  0  0
   27.6248  -21.5548  -10.5697 O   0  0  0  0  0  0  0  0  0  0  0  0
  2  3  1  1
  2  1  1  0
  4  5  1  0
  4  2  1  0
  5  7  1  0
  5  6  1  6
  7 13  1  0
  8  7  2  0
 10  9  1  6
 10 12  1  0
 10 11  1  0
 12 13  1  6
 14 15  2  0
 14 12  1  0
 16 14  1  0
 17 16  1  0
 17 20  1  0
 17 18  1  6
 19 18  1  0
 20 21  1  0
 22 20  2  0
M  END
$$$$
