LVC.pdb
     RDKit          3D

 22 21  0  0  1  0  0  0  0  0999 V2000
   26.4827  -13.2252  -15.5059 C   0  0  0  0  0  0  0  0  0  0  0  0
   26.7495  -12.3975  -16.7466 C   0  0  2  0  0  0  0  0  0  0  0  0
   28.0880  -11.6765  -16.5499 C   0  0  0  0  0  0  0  0  0  0  0  0
   25.6639  -11.3624  -16.8916 C   0  0  0  0  0  0  0  0  0  0  0  0
   24.2936  -11.9712  -17.0507 C   0  0  2  0  0  0  0  0  0  0  0  0
   24.2912  -12.7943  -18.2410 N   0  0  0  0  0  0  0  0  0  0  0  0
   23.3368  -10.8288  -17.2746 C   0  0  0  0  0  0  0  0  0  0  0  0
   23.4128  -10.0864  -18.2937 O   0  0  0  0  0  0  0  0  0  0  0  0
   19.9160  -10.9719  -17.9351 C   0  0  0  0  0  0  0  0  0  0  0  0
   19.9507  -10.1987  -16.5960 C   0  0  2  0  0  0  0  0  0  0  0  0
   18.7925   -9.2362  -16.6812 C   0  0  0  0  0  0  0  0  0  0  0  0
   21.2891   -9.5045  -16.5844 C   0  0  2  0  0  0  0  0  0  0  0  0
   22.3072  -10.5525  -16.3340 N   0  0  0  0  0  0  0  0  0  0  0  0
   21.4150   -8.4418  -15.5616 C   0  0  0  0  0  0  0  0  0  0  0  0
   21.4006   -8.8133  -14.3348 O   0  0  0  0  0  0  0  0  0  0  0  0
   21.5506   -7.0721  -15.7751 N   0  0  0  0  0  0  0  0  0  0  0  0
   21.6571   -6.0426  -14.7591 C   0  0  1  0  0  0  0  0  0  0  0  0
   22.6768   -4.9974  -15.0490 C   0  0  0  0  0  0  0  0  0  0  0  0
   22.6935   -3.7356  -13.7409 S   0  0  0  0  0  0  0  0  0  0  0  0
   20.3541   -5.3592  -14.5480 C   0  0  0  0  0  0  0  0  0  0  0  0
   19.8755   -5.1613  -13.2557 O   0  0  0  0  0  0  0  0  0  0  0  0
   19.6483   -4.9414  -15.4943 O   0  0  0  0  0  0  0  0  0  0  0  0
  2  3  1  1
  2  1  1  0
  4  5  1  0
  4  2  1  0
  5  7  1  0
  5  6  1  6
  7 13  1  0
  8  7  2  0
 10  9  1  6
 10 12  1  0
 10 11  1  0
 12 13  1  1
 14 15  2  0
 14 12  1  0
 16 14  1  0
 17 16  1  0
 17 20  1  0
 17 18  1  6
 19 18  1  0
 20 21  1  0
 22 20  2  0
M  END
$$$$
