LVC.pdb
     RDKit          3D

 22 21  0  0  1  0  0  0  0  0999 V2000
   22.2681  -14.0823  -14.4539 C   0  0  0  0  0  0  0  0  0  0  0  0
   22.9837  -13.5642  -15.6849 C   0  0  2  0  0  0  0  0  0  0  0  0
   24.4369  -13.2723  -15.2940 C   0  0  0  0  0  0  0  0  0  0  0  0
   22.3374  -12.2761  -16.1252 C   0  0  0  0  0  0  0  0  0  0  0  0
   20.8705  -12.4348  -16.4364 C   0  0  2  0  0  0  0  0  0  0  0  0
   20.7371  -13.2693  -17.6112 N   0  0  0  0  0  0  0  0  0  0  0  0
   20.3511  -11.0628  -16.7805 C   0  0  0  0  0  0  0  0  0  0  0  0
   20.6384  -10.4964  -17.8724 O   0  0  0  0  0  0  0  0  0  0  0  0
   17.0452   -9.8233  -17.3589 C   0  0  0  0  0  0  0  0  0  0  0  0
   17.4962   -9.0761  -16.0819 C   0  0  2  0  0  0  0  0  0  0  0  0
   16.8364   -7.7232  -16.1785 C   0  0  0  0  0  0  0  0  0  0  0  0
   18.9986   -9.0034  -16.1863 C   0  0  2  0  0  0  0  0  0  0  0  0
   19.5105  -10.3594  -15.8751 N   0  0  0  0  0  0  0  0  0  0  0  0
   19.6255   -8.0196  -15.2749 C   0  0  0  0  0  0  0  0  0  0  0  0
   19.6861   -8.3356  -14.0340 O   0  0  0  0  0  0  0  0  0  0  0  0
   20.1645   -6.7793  -15.6082 N   0  0  0  0  0  0  0  0  0  0  0  0
   20.7587   -5.8193  -14.6978 C   0  0  1  0  0  0  0  0  0  0  0  0
   22.2469   -5.7893  -14.7232 C   0  0  0  0  0  0  0  0  0  0  0  0
   22.8817   -4.4762  -13.6386 S   0  0  0  0  0  0  0  0  0  0  0  0
   20.2722   -4.4426  -14.9760 C   0  0  0  0  0  0  0  0  0  0  0  0
   19.8712   -4.0951  -16.2632 O   0  0  0  0  0  0  0  0  0  0  0  0
   20.2017   -3.5585  -14.0920 O   0  0  0  0  0  0  0  0  0  0  0  0
  2  3  1  1
  2  1  1  0
  4  5  1  0
  4  2  1  0
  5  7  1  0
  5  6  1  6
  7 13  1  0
  8  7  2  0
 10  9  1  6
 10 12  1  0
 10 11  1  0
 12 13  1  1
 14 15  2  0
 14 12  1  0
 16 14  1  0
 17 16  1  0
 17 20  1  0
 17 18  1  6
 19 18  1  0
 20 21  1  0
 22 20  2  0
M  END
$$$$
