LVC.pdb
     RDKit          3D

 22 21  0  0  1  0  0  0  0  0999 V2000
   19.2699  -10.4566  -13.6040 C   0  0  0  0  0  0  0  0  0  0  0  0
   18.1404  -10.0005  -14.5051 C   0  0  2  0  0  0  0  0  0  0  0  0
   18.7614   -9.2729  -15.7029 C   0  0  0  0  0  0  0  0  0  0  0  0
   17.2706   -9.0278  -13.7513 C   0  0  0  0  0  0  0  0  0  0  0  0
   16.6167   -9.6452  -12.5410 C   0  0  2  0  0  0  0  0  0  0  0  0
   15.7171  -10.6880  -12.9857 N   0  0  0  0  0  0  0  0  0  0  0  0
   15.7896   -8.5624  -11.8974 C   0  0  0  0  0  0  0  0  0  0  0  0
   14.6741   -8.2061  -12.3710 O   0  0  0  0  0  0  0  0  0  0  0  0
   14.6399   -8.4852   -8.3750 C   0  0  0  0  0  0  0  0  0  0  0  0
   15.4958   -7.2095   -8.5549 C   0  0  2  0  0  0  0  0  0  0  0  0
   14.8186   -6.1715   -7.6953 C   0  0  0  0  0  0  0  0  0  0  0  0
   15.4151   -6.8937  -10.0270 C   0  0  2  0  0  0  0  0  0  0  0  0
   16.2466   -7.9047  -10.7228 N   0  0  0  0  0  0  0  0  0  0  0  0
   15.8871   -5.5372  -10.3856 C   0  0  0  0  0  0  0  0  0  0  0  0
   17.1385   -5.3011  -10.2383 O   0  0  0  0  0  0  0  0  0  0  0  0
   15.1265   -4.4761  -10.8706 N   0  0  0  0  0  0  0  0  0  0  0  0
   15.6208   -3.1876  -11.3167 C   0  0  1  0  0  0  0  0  0  0  0  0
   15.3035   -2.8662  -12.7353 C   0  0  0  0  0  0  0  0  0  0  0  0
   16.0347   -4.0994  -13.8526 S   0  0  0  0  0  0  0  0  0  0  0  0
   15.0889   -2.0863  -10.4721 C   0  0  0  0  0  0  0  0  0  0  0  0
   15.8629   -0.9521  -10.2421 O   0  0  0  0  0  0  0  0  0  0  0  0
   13.9537   -2.1259   -9.9449 O   0  0  0  0  0  0  0  0  0  0  0  0
  2  3  1  6
  2  1  1  0
  4  5  1  0
  4  2  1  0
  5  7  1  0
  5  6  1  6
  7 13  1  0
  8  7  2  0
 10  9  1  6
 10 12  1  0
 10 11  1  0
 12 13  1  6
 14 15  2  0
 14 12  1  0
 16 14  1  0
 17 16  1  0
 17 20  1  0
 17 18  1  6
 19 18  1  0
 20 21  1  0
 22 20  2  0
M  END
$$$$
