LVC.pdb
     RDKit          3D

 22 21  0  0  1  0  0  0  0  0999 V2000
   12.7101  -11.4724  -11.5058 C   0  0  0  0  0  0  0  0  0  0  0  0
   13.7544  -12.5319  -11.7931 C   0  0  2  0  0  0  0  0  0  0  0  0
   14.4095  -12.9171  -10.4617 C   0  0  0  0  0  0  0  0  0  0  0  0
   14.8108  -11.9505  -12.6969 C   0  0  0  0  0  0  0  0  0  0  0  0
   14.2651  -11.5288  -14.0378 C   0  0  2  0  0  0  0  0  0  0  0  0
   13.8473  -12.7128  -14.7575 N   0  0  0  0  0  0  0  0  0  0  0  0
   15.4103  -10.9063  -14.7938 C   0  0  0  0  0  0  0  0  0  0  0  0
   16.2815  -11.6085  -15.3798 O   0  0  0  0  0  0  0  0  0  0  0  0
   15.2095   -9.3451  -17.7718 C   0  0  0  0  0  0  0  0  0  0  0  0
   15.7056   -8.1866  -16.8750 C   0  0  2  0  0  0  0  0  0  0  0  0
   16.5459   -7.3299  -17.7888 C   0  0  0  0  0  0  0  0  0  0  0  0
   16.5140   -8.8546  -15.7917 C   0  0  2  0  0  0  0  0  0  0  0  0
   15.5426   -9.4930  -14.8716 N   0  0  0  0  0  0  0  0  0  0  0  0
   17.3849   -7.9341  -15.0264 C   0  0  0  0  0  0  0  0  0  0  0  0
   16.8034   -7.0083  -14.3570 O   0  0  0  0  0  0  0  0  0  0  0  0
   18.7751   -7.9549  -14.9444 N   0  0  0  0  0  0  0  0  0  0  0  0
   19.6137   -7.0334  -14.2022 C   0  0  1  0  0  0  0  0  0  0  0  0
   21.0386   -7.4512  -14.0941 C   0  0  0  0  0  0  0  0  0  0  0  0
   21.1772   -9.0454  -13.2321 S   0  0  0  0  0  0  0  0  0  0  0  0
   19.5837   -5.6751  -14.8049 C   0  0  0  0  0  0  0  0  0  0  0  0
   19.7727   -4.5545  -14.0005 O   0  0  0  0  0  0  0  0  0  0  0  0
   19.3938   -5.4815  -16.0274 O   0  0  0  0  0  0  0  0  0  0  0  0
  2  3  1  1
  2  1  1  0
  4  5  1  0
  4  2  1  0
  5  7  1  0
  5  6  1  6
  7 13  1  0
  8  7  2  0
 10  9  1  6
 10 12  1  0
 10 11  1  0
 12 13  1  1
 14 15  2  0
 14 12  1  0
 16 14  1  0
 17 16  1  0
 17 20  1  0
 17 18  1  6
 19 18  1  0
 20 21  1  0
 22 20  2  0
M  END
$$$$
