LVC.pdb
     RDKit          3D

 22 21  0  0  1  0  0  0  0  0999 V2000
   24.5019  -17.4423  -16.4592 C   0  0  0  0  0  0  0  0  0  0  0  0
   24.4822  -18.7377  -17.2447 C   0  0  2  0  0  0  0  0  0  0  0  0
   23.4288  -18.5995  -18.3499 C   0  0  0  0  0  0  0  0  0  0  0  0
   24.0725  -19.8629  -16.3297 C   0  0  0  0  0  0  0  0  0  0  0  0
   24.9162  -19.9382  -15.0823 C   0  0  2  0  0  0  0  0  0  0  0  0
   26.2264  -20.4364  -15.4423 N   0  0  0  0  0  0  0  0  0  0  0  0
   24.2647  -20.9551  -14.1810 C   0  0  0  0  0  0  0  0  0  0  0  0
   24.3216  -22.1934  -14.4236 O   0  0  0  0  0  0  0  0  0  0  0  0
   23.1232  -19.7431  -10.4636 C   0  0  0  0  0  0  0  0  0  0  0  0
   23.4967  -21.2223  -10.7180 C   0  0  2  0  0  0  0  0  0  0  0  0
   25.0040  -21.2493  -10.6666 C   0  0  0  0  0  0  0  0  0  0  0  0
   22.9522  -21.5286  -12.0902 C   0  0  2  0  0  0  0  0  0  0  0  0
   23.5608  -20.5440  -13.0163 N   0  0  0  0  0  0  0  0  0  0  0  0
   21.4773  -21.4525  -12.1910 C   0  0  0  0  0  0  0  0  0  0  0  0
   20.9665  -20.2877  -12.3513 O   0  0  0  0  0  0  0  0  0  0  0  0
   20.5686  -22.5065  -12.1336 N   0  0  0  0  0  0  0  0  0  0  0  0
   19.1237  -22.4110  -12.2157 C   0  0  1  0  0  0  0  0  0  0  0  0
   18.5113  -23.2640  -13.2711 C   0  0  0  0  0  0  0  0  0  0  0  0
   19.7902  -23.9498  -14.3655 S   0  0  0  0  0  0  0  0  0  0  0  0
   18.4873  -22.7653  -10.9200 C   0  0  0  0  0  0  0  0  0  0  0  0
   17.1355  -22.5023  -10.7159 O   0  0  0  0  0  0  0  0  0  0  0  0
   19.1183  -23.3015   -9.9807 O   0  0  0  0  0  0  0  0  0  0  0  0
  2  3  1  6
  2  1  1  0
  4  5  1  0
  4  2  1  0
  5  7  1  0
  5  6  1  6
  7 13  1  0
  8  7  2  0
 10  9  1  6
 10 12  1  0
 10 11  1  0
 12 13  1  6
 14 15  2  0
 14 12  1  0
 16 14  1  0
 17 16  1  0
 17 20  1  0
 17 18  1  6
 19 18  1  0
 20 21  1  0
 22 20  2  0
M  END
$$$$
