LVC.pdb
     RDKit          3D

 22 21  0  0  1  0  0  0  0  0999 V2000
   24.4539  -21.2108   -9.0805 C   0  0  0  0  0  0  0  0  0  0  0  0
   25.9244  -21.0026   -9.3804 C   0  0  2  0  0  0  0  0  0  0  0  0
   26.4704  -19.9900   -8.3673 C   0  0  0  0  0  0  0  0  0  0  0  0
   26.0680  -20.4221  -10.7637 C   0  0  0  0  0  0  0  0  0  0  0  0
   25.5766  -21.3542  -11.8424 C   0  0  2  0  0  0  0  0  0  0  0  0
   26.5550  -22.4051  -12.0232 N   0  0  0  0  0  0  0  0  0  0  0  0
   25.5193  -20.5496  -13.1152 C   0  0  0  0  0  0  0  0  0  0  0  0
   26.5318  -19.9440  -13.5664 O   0  0  0  0  0  0  0  0  0  0  0  0
   25.2266  -21.7139  -16.2419 C   0  0  0  0  0  0  0  0  0  0  0  0
   23.9544  -20.8355  -16.1937 C   0  0  2  0  0  0  0  0  0  0  0  0
   23.8189  -20.2838  -17.5910 C   0  0  0  0  0  0  0  0  0  0  0  0
   24.2581  -19.7703  -15.1708 C   0  0  2  0  0  0  0  0  0  0  0  0
   24.3090  -20.4502  -13.8544 N   0  0  0  0  0  0  0  0  0  0  0  0
   23.2648  -18.6738  -15.1201 C   0  0  0  0  0  0  0  0  0  0  0  0
   22.1245  -18.9481  -14.6026 O   0  0  0  0  0  0  0  0  0  0  0  0
   23.4233  -17.3655  -15.5706 N   0  0  0  0  0  0  0  0  0  0  0  0
   22.4227  -16.3157  -15.5545 C   0  0  1  0  0  0  0  0  0  0  0  0
   22.9720  -14.9417  -15.7183 C   0  0  0  0  0  0  0  0  0  0  0  0
   24.2780  -14.6218  -14.4953 S   0  0  0  0  0  0  0  0  0  0  0  0
   21.4051  -16.5272  -16.6170 C   0  0  0  0  0  0  0  0  0  0  0  0
   20.0524  -16.3812  -16.3214 O   0  0  0  0  0  0  0  0  0  0  0  0
   21.7081  -16.8360  -17.7922 O   0  0  0  0  0  0  0  0  0  0  0  0
  2  3  1  1
  2  1  1  0
  4  5  1  0
  4  2  1  0
  5  7  1  0
  5  6  1  6
  7 13  1  0
  8  7  2  0
 10  9  1  6
 10 12  1  0
 10 11  1  0
 12 13  1  1
 14 15  2  0
 14 12  1  0
 16 14  1  0
 17 16  1  0
 17 20  1  0
 17 18  1  6
 19 18  1  0
 20 21  1  0
 22 20  2  0
M  END
$$$$
