LVC.pdb
     RDKit          3D

 22 21  0  0  1  0  0  0  0  0999 V2000
   16.6172  -12.6641  -17.1936 C   0  0  0  0  0  0  0  0  0  0  0  0
   17.4060  -13.3525  -16.0983 C   0  0  2  0  0  0  0  0  0  0  0  0
   16.5267  -13.3943  -14.8433 C   0  0  0  0  0  0  0  0  0  0  0  0
   18.6384  -12.5406  -15.7937 C   0  0  0  0  0  0  0  0  0  0  0  0
   19.5129  -12.3295  -17.0038 C   0  0  2  0  0  0  0  0  0  0  0  0
   20.1808  -13.5758  -17.3119 N   0  0  0  0  0  0  0  0  0  0  0  0
   20.5642  -11.3254  -16.6071 C   0  0  0  0  0  0  0  0  0  0  0  0
   21.5200  -11.6300  -15.8394 O   0  0  0  0  0  0  0  0  0  0  0  0
   20.9741   -8.2752  -19.0540 C   0  0  0  0  0  0  0  0  0  0  0  0
   22.1911   -8.6783  -18.1888 C   0  0  2  0  0  0  0  0  0  0  0  0
   22.7854   -9.8695  -18.8980 C   0  0  0  0  0  0  0  0  0  0  0  0
   21.6098   -9.0288  -16.8425 C   0  0  2  0  0  0  0  0  0  0  0  0
   20.5103   -9.9908  -17.0939 N   0  0  0  0  0  0  0  0  0  0  0  0
   21.0860   -7.8698  -16.0850 C   0  0  0  0  0  0  0  0  0  0  0  0
   19.8981   -7.4805  -16.3693 O   0  0  0  0  0  0  0  0  0  0  0  0
   21.7356   -7.1452  -15.0887 N   0  0  0  0  0  0  0  0  0  0  0  0
   21.2007   -6.0199  -14.3463 C   0  0  1  0  0  0  0  0  0  0  0  0
   20.6572   -6.3717  -13.0056 C   0  0  0  0  0  0  0  0  0  0  0  0
   21.7822   -7.5010  -12.1323 S   0  0  0  0  0  0  0  0  0  0  0  0
   22.2292   -4.9639  -14.1561 C   0  0  0  0  0  0  0  0  0  0  0  0
   21.8727   -3.7408  -13.5946 O   0  0  0  0  0  0  0  0  0  0  0  0
   23.4283   -5.1211  -14.4813 O   0  0  0  0  0  0  0  0  0  0  0  0
  2  3  1  1
  2  1  1  0
  4  5  1  0
  4  2  1  0
  5  7  1  0
  5  6  1  1
  7 13  1  0
  8  7  2  0
 10  9  1  6
 10 12  1  0
 10 11  1  0
 12 13  1  6
 14 15  2  0
 14 12  1  0
 16 14  1  0
 17 16  1  0
 17 20  1  0
 17 18  1  1
 19 18  1  0
 20 21  1  0
 22 20  2  0
M  END
$$$$
