LVC.pdb
     RDKit          3D

 22 21  0  0  1  0  0  0  0  0999 V2000
   24.8961  -18.4394  -18.0531 C   0  0  0  0  0  0  0  0  0  0  0  0
   25.9036  -19.5121  -17.6924 C   0  0  2  0  0  0  0  0  0  0  0  0
   26.1437  -20.3681  -18.9411 C   0  0  0  0  0  0  0  0  0  0  0  0
   25.3240  -20.3899  -16.6133 C   0  0  0  0  0  0  0  0  0  0  0  0
   26.2588  -20.5735  -15.4445 C   0  0  2  0  0  0  0  0  0  0  0  0
   27.3342  -21.4533  -15.8492 N   0  0  0  0  0  0  0  0  0  0  0  0
   25.4701  -21.2704  -14.3660 C   0  0  0  0  0  0  0  0  0  0  0  0
   25.2019  -22.5031  -14.4282 O   0  0  0  0  0  0  0  0  0  0  0  0
   26.0295  -20.9113  -10.5821 C   0  0  0  0  0  0  0  0  0  0  0  0
   24.5656  -20.5076  -10.8759 C   0  0  2  0  0  0  0  0  0  0  0  0
   23.7829  -21.0250   -9.6949 C   0  0  0  0  0  0  0  0  0  0  0  0
   24.2200  -21.2143  -12.1621 C   0  0  2  0  0  0  0  0  0  0  0  0
   25.0020  -20.5510  -13.2327 N   0  0  0  0  0  0  0  0  0  0  0  0
   22.7814  -21.1782  -12.5092 C   0  0  0  0  0  0  0  0  0  0  0  0
   22.3253  -20.0749  -12.9764 O   0  0  0  0  0  0  0  0  0  0  0  0
   21.8546  -22.2110  -12.3893 N   0  0  0  0  0  0  0  0  0  0  0  0
   20.4407  -22.1482  -12.7060 C   0  0  1  0  0  0  0  0  0  0  0  0
   19.9740  -23.2068  -13.6430 C   0  0  0  0  0  0  0  0  0  0  0  0
   18.1635  -23.1737  -13.7997 S   0  0  0  0  0  0  0  0  0  0  0  0
   19.6103  -22.2327  -11.4761 C   0  0  0  0  0  0  0  0  0  0  0  0
   18.5402  -21.3597  -11.2998 O   0  0  0  0  0  0  0  0  0  0  0  0
   19.8276  -23.0686  -10.5693 O   0  0  0  0  0  0  0  0  0  0  0  0
  2  3  1  6
  2  1  1  0
  4  5  1  0
  4  2  1  0
  5  7  1  0
  5  6  1  6
  7 13  1  0
  8  7  2  0
 10  9  1  1
 10 12  1  0
 10 11  1  0
 12 13  1  6
 14 15  2  0
 14 12  1  0
 16 14  1  0
 17 16  1  0
 17 20  1  0
 17 18  1  6
 19 18  1  0
 20 21  1  0
 22 20  2  0
M  END
$$$$
