LVC.pdb
     RDKit          3D

 22 21  0  0  1  0  0  0  0  0999 V2000
   15.0139  -21.2396    3.3788 C   0  0  0  0  0  0  0  0  0  0  0  0
   16.3251  -21.5770    2.6985 C   0  0  2  0  0  0  0  0  0  0  0  0
   16.8645  -22.8640    3.3329 C   0  0  0  0  0  0  0  0  0  0  0  0
   17.3120  -20.4669    2.9523 C   0  0  0  0  0  0  0  0  0  0  0  0
   16.8746  -19.1499    2.3625 C   0  0  2  0  0  0  0  0  0  0  0  0
   17.0843  -19.1944    0.9313 N   0  0  0  0  0  0  0  0  0  0  0  0
   17.7887  -18.0964    2.9328 C   0  0  0  0  0  0  0  0  0  0  0  0
   19.0024  -18.0130    2.5931 O   0  0  0  0  0  0  0  0  0  0  0  0
   17.2689  -14.3824    3.0199 C   0  0  0  0  0  0  0  0  0  0  0  0
   17.3717  -14.8373    4.4947 C   0  0  2  0  0  0  0  0  0  0  0  0
   18.0867  -13.7078    5.1932 C   0  0  0  0  0  0  0  0  0  0  0  0
   18.1838  -16.1069    4.4524 C   0  0  2  0  0  0  0  0  0  0  0  0
   17.3037  -17.1533    3.8796 N   0  0  0  0  0  0  0  0  0  0  0  0
   18.6849  -16.5535    5.7718 C   0  0  0  0  0  0  0  0  0  0  0  0
   17.8565  -17.1772    6.5256 O   0  0  0  0  0  0  0  0  0  0  0  0
   19.9627  -16.3767    6.2970 N   0  0  0  0  0  0  0  0  0  0  0  0
   20.4134  -16.7481    7.6245 C   0  0  1  0  0  0  0  0  0  0  0  0
   21.8930  -16.8236    7.7715 C   0  0  0  0  0  0  0  0  0  0  0  0
   22.3429  -17.6097    9.3474 S   0  0  0  0  0  0  0  0  0  0  0  0
   19.9034  -15.8005    8.6498 C   0  0  0  0  0  0  0  0  0  0  0  0
   19.4136  -16.2846    9.8598 O   0  0  0  0  0  0  0  0  0  0  0  0
   19.8919  -14.5601    8.4784 O   0  0  0  0  0  0  0  0  0  0  0  0
  2  3  1  1
  2  1  1  0
  4  5  1  0
  4  2  1  0
  5  7  1  0
  5  6  1  6
  7 13  1  0
  8  7  2  0
 10  9  1  6
 10 12  1  0
 10 11  1  0
 12 13  1  1
 14 15  2  0
 14 12  1  0
 16 14  1  0
 17 16  1  0
 17 20  1  0
 17 18  1  6
 19 18  1  0
 20 21  1  0
 22 20  2  0
M  END
$$$$
