LVC.pdb
     RDKit          3D

 22 21  0  0  1  0  0  0  0  0999 V2000
   18.4567  -10.2344  -20.8664 C   0  0  0  0  0  0  0  0  0  0  0  0
   18.8819  -11.6291  -20.4544 C   0  0  2  0  0  0  0  0  0  0  0  0
   17.6958  -12.5702  -20.6938 C   0  0  0  0  0  0  0  0  0  0  0  0
   19.2063  -11.6309  -18.9828 C   0  0  0  0  0  0  0  0  0  0  0  0
   20.5734  -12.1940  -18.6865 C   0  0  2  0  0  0  0  0  0  0  0  0
   20.4435  -13.6152  -18.4463 N   0  0  0  0  0  0  0  0  0  0  0  0
   21.0386  -11.5478  -17.4071 C   0  0  0  0  0  0  0  0  0  0  0  0
   20.5426  -11.8555  -16.2869 O   0  0  0  0  0  0  0  0  0  0  0  0
   24.2304  -11.7889  -15.9862 C   0  0  0  0  0  0  0  0  0  0  0  0
   24.0987  -10.2619  -16.1947 C   0  0  2  0  0  0  0  0  0  0  0  0
   24.8216   -9.6528  -15.0193 C   0  0  0  0  0  0  0  0  0  0  0  0
   22.6151   -9.9947  -16.1719 C   0  0  2  0  0  0  0  0  0  0  0  0
   22.0635  -10.5628  -17.4252 N   0  0  0  0  0  0  0  0  0  0  0  0
   22.2557   -8.5615  -16.0814 C   0  0  0  0  0  0  0  0  0  0  0  0
   22.6178   -7.8105  -17.0552 O   0  0  0  0  0  0  0  0  0  0  0  0
   21.5625   -7.9250  -15.0547 N   0  0  0  0  0  0  0  0  0  0  0  0
   21.1862   -6.5254  -15.0003 C   0  0  1  0  0  0  0  0  0  0  0  0
   19.7659   -6.2859  -14.6237 C   0  0  0  0  0  0  0  0  0  0  0  0
   18.6479   -7.2385  -15.6943 S   0  0  0  0  0  0  0  0  0  0  0  0
   22.0419   -5.7758  -14.0436 C   0  0  0  0  0  0  0  0  0  0  0  0
   22.0376   -4.3835  -14.0523 O   0  0  0  0  0  0  0  0  0  0  0  0
   22.7831   -6.3446  -13.2098 O   0  0  0  0  0  0  0  0  0  0  0  0
  2  3  1  1
  2  1  1  0
  4  5  1  0
  4  2  1  0
  5  7  1  0
  5  6  1  1
  7 13  1  0
  8  7  2  0
 10  9  1  1
 10 12  1  0
 10 11  1  0
 12 13  1  6
 14 15  2  0
 14 12  1  0
 16 14  1  0
 17 16  1  0
 17 20  1  0
 17 18  1  1
 19 18  1  0
 20 21  1  0
 22 20  2  0
M  END
$$$$
