LVC.pdb
     RDKit          3D

 22 21  0  0  1  0  0  0  0  0999 V2000
   23.3419  -14.7433  -15.1810 C   0  0  0  0  0  0  0  0  0  0  0  0
   24.2472  -14.0187  -16.1563 C   0  0  2  0  0  0  0  0  0  0  0  0
   25.5857  -13.7651  -15.4534 C   0  0  0  0  0  0  0  0  0  0  0  0
   23.6303  -12.6894  -16.5072 C   0  0  0  0  0  0  0  0  0  0  0  0
   22.2785  -12.8268  -17.1610 C   0  0  2  0  0  0  0  0  0  0  0  0
   22.4470  -13.5066  -18.4275 N   0  0  0  0  0  0  0  0  0  0  0  0
   21.7923  -11.4292  -17.4456 C   0  0  0  0  0  0  0  0  0  0  0  0
   22.3421  -10.6971  -18.3158 O   0  0  0  0  0  0  0  0  0  0  0  0
   18.5813  -10.4642  -18.6790 C   0  0  0  0  0  0  0  0  0  0  0  0
   18.6594   -9.7454  -17.3117 C   0  0  2  0  0  0  0  0  0  0  0  0
   17.9262   -8.4442  -17.5225 C   0  0  0  0  0  0  0  0  0  0  0  0
   20.1333   -9.5526  -17.0594 C   0  0  2  0  0  0  0  0  0  0  0  0
   20.6855  -10.8896  -16.7351 N   0  0  0  0  0  0  0  0  0  0  0  0
   20.4449   -8.6116  -15.9599 C   0  0  0  0  0  0  0  0  0  0  0  0
   20.3560   -9.0668  -14.7647 O   0  0  0  0  0  0  0  0  0  0  0  0
   20.8288   -7.2773  -16.0698 N   0  0  0  0  0  0  0  0  0  0  0  0
   21.1092   -6.3631  -14.9794 C   0  0  1  0  0  0  0  0  0  0  0  0
   22.5530   -6.2396  -14.6378 C   0  0  0  0  0  0  0  0  0  0  0  0
   22.7979   -5.0191  -13.3135 S   0  0  0  0  0  0  0  0  0  0  0  0
   20.5947   -5.0004  -15.2749 C   0  0  0  0  0  0  0  0  0  0  0  0
   20.0884   -4.2113  -14.2457 O   0  0  0  0  0  0  0  0  0  0  0  0
   20.5938   -4.5131  -16.4285 O   0  0  0  0  0  0  0  0  0  0  0  0
  2  3  1  1
  2  1  1  0
  4  5  1  0
  4  2  1  0
  5  7  1  0
  5  6  1  6
  7 13  1  0
  8  7  2  0
 10  9  1  6
 10 12  1  0
 10 11  1  0
 12 13  1  1
 14 15  2  0
 14 12  1  0
 16 14  1  0
 17 16  1  0
 17 20  1  0
 17 18  1  6
 19 18  1  0
 20 21  1  0
 22 20  2  0
M  END
$$$$
