LVC.pdb
     RDKit          3D

 22 21  0  0  1  0  0  0  0  0999 V2000
   27.7783  -16.3738  -16.9054 C   0  0  0  0  0  0  0  0  0  0  0  0
   26.5669  -15.6548  -16.3475 C   0  0  2  0  0  0  0  0  0  0  0  0
   27.0353  -14.2999  -15.8045 C   0  0  0  0  0  0  0  0  0  0  0  0
   25.9990  -16.4585  -15.2063 C   0  0  0  0  0  0  0  0  0  0  0  0
   25.6238  -17.8621  -15.6099 C   0  0  2  0  0  0  0  0  0  0  0  0
   24.5166  -17.7932  -16.5392 N   0  0  0  0  0  0  0  0  0  0  0  0
   25.1401  -18.5555  -14.3625 C   0  0  0  0  0  0  0  0  0  0  0  0
   24.0967  -18.1832  -13.7556 O   0  0  0  0  0  0  0  0  0  0  0  0
   24.2702  -22.0149  -14.0957 C   0  0  0  0  0  0  0  0  0  0  0  0
   25.3714  -21.8685  -13.0195 C   0  0  2  0  0  0  0  0  0  0  0  0
   24.9247  -22.7657  -11.8923 C   0  0  0  0  0  0  0  0  0  0  0  0
   25.3559  -20.4078  -12.6462 C   0  0  2  0  0  0  0  0  0  0  0  0
   25.8525  -19.6636  -13.8283 N   0  0  0  0  0  0  0  0  0  0  0  0
   26.1870  -20.0714  -11.4682 C   0  0  0  0  0  0  0  0  0  0  0  0
   27.4493  -20.2690  -11.5739 O   0  0  0  0  0  0  0  0  0  0  0  0
   25.7573  -19.5589  -10.2465 N   0  0  0  0  0  0  0  0  0  0  0  0
   26.3753  -19.7711   -8.9517 C   0  0  1  0  0  0  0  0  0  0  0  0
   26.6118  -18.5245   -8.1729 C   0  0  0  0  0  0  0  0  0  0  0  0
   27.2671  -18.9124   -6.5226 S   0  0  0  0  0  0  0  0  0  0  0  0
   25.5587  -20.6841   -8.1098 C   0  0  0  0  0  0  0  0  0  0  0  0
   26.1412  -21.3354   -7.0259 O   0  0  0  0  0  0  0  0  0  0  0  0
   24.3453  -20.9023   -8.3290 O   0  0  0  0  0  0  0  0  0  0  0  0
  2  3  1  1
  2  1  1  0
  4  5  1  0
  4  2  1  0
  5  7  1  0
  5  6  1  6
  7 13  1  0
  8  7  2  0
 10  9  1  6
 10 12  1  0
 10 11  1  0
 12 13  1  6
 14 15  2  0
 14 12  1  0
 16 14  1  0
 17 16  1  0
 17 20  1  0
 17 18  1  1
 19 18  1  0
 20 21  1  0
 22 20  2  0
M  END
$$$$
