LVC.pdb
     RDKit          3D

 22 21  0  0  1  0  0  0  0  0999 V2000
   23.9752  -21.4471   -9.7173 C   0  0  0  0  0  0  0  0  0  0  0  0
   25.4642  -21.3996   -9.9936 C   0  0  2  0  0  0  0  0  0  0  0  0
   26.1062  -20.4837   -8.9453 C   0  0  0  0  0  0  0  0  0  0  0  0
   25.6936  -20.8020  -11.3578 C   0  0  0  0  0  0  0  0  0  0  0  0
   25.0442  -21.5983  -12.4613 C   0  0  2  0  0  0  0  0  0  0  0  0
   25.7347  -22.8643  -12.5828 N   0  0  0  0  0  0  0  0  0  0  0  0
   25.2626  -20.8264  -13.7369 C   0  0  0  0  0  0  0  0  0  0  0  0
   26.3967  -20.7594  -14.2890 O   0  0  0  0  0  0  0  0  0  0  0  0
   23.2815  -21.4154  -16.7534 C   0  0  0  0  0  0  0  0  0  0  0  0
   23.1214  -19.8982  -16.4987 C   0  0  2  0  0  0  0  0  0  0  0  0
   23.1075  -19.2800  -17.8745 C   0  0  0  0  0  0  0  0  0  0  0  0
   24.3365  -19.5103  -15.6949 C   0  0  2  0  0  0  0  0  0  0  0  0
   24.1838  -20.1452  -14.3640 N   0  0  0  0  0  0  0  0  0  0  0  0
   24.5144  -18.0504  -15.5261 C   0  0  0  0  0  0  0  0  0  0  0  0
   23.7971  -17.4787  -14.6305 O   0  0  0  0  0  0  0  0  0  0  0  0
   25.3783  -17.2151  -16.2302 N   0  0  0  0  0  0  0  0  0  0  0  0
   25.5184  -15.7803  -16.0713 C   0  0  1  0  0  0  0  0  0  0  0  0
   26.4989  -15.3712  -15.0284 C   0  0  0  0  0  0  0  0  0  0  0  0
   26.6804  -13.5631  -14.9911 S   0  0  0  0  0  0  0  0  0  0  0  0
   25.9190  -15.1348  -17.3489 C   0  0  0  0  0  0  0  0  0  0  0  0
   26.5209  -15.8920  -18.3502 O   0  0  0  0  0  0  0  0  0  0  0  0
   25.7381  -13.9169  -17.5772 O   0  0  0  0  0  0  0  0  0  0  0  0
  2  3  1  1
  2  1  1  0
  4  5  1  0
  4  2  1  0
  5  7  1  0
  5  6  1  6
  7 13  1  0
  8  7  2  0
 10  9  1  6
 10 12  1  0
 10 11  1  0
 12 13  1  1
 14 15  2  0
 14 12  1  0
 16 14  1  0
 17 16  1  0
 17 20  1  0
 17 18  1  1
 19 18  1  0
 20 21  1  0
 22 20  2  0
M  END
$$$$
