LVC.pdb
     RDKit          3D

 22 21  0  0  1  0  0  0  0  0999 V2000
   19.5265  -13.7210  -20.4640 C   0  0  0  0  0  0  0  0  0  0  0  0
   18.2708  -13.5915  -19.6260 C   0  0  2  0  0  0  0  0  0  0  0  0
   17.2129  -12.8768  -20.4746 C   0  0  0  0  0  0  0  0  0  0  0  0
   18.5700  -12.7426  -18.4175 C   0  0  0  0  0  0  0  0  0  0  0  0
   19.6612  -13.3212  -17.5526 C   0  0  2  0  0  0  0  0  0  0  0  0
   19.1469  -14.5009  -16.8907 N   0  0  0  0  0  0  0  0  0  0  0  0
   19.9660  -12.2916  -16.4953 C   0  0  0  0  0  0  0  0  0  0  0  0
   19.1631  -12.0492  -15.5508 O   0  0  0  0  0  0  0  0  0  0  0  0
   23.0050  -12.0350  -14.3835 C   0  0  0  0  0  0  0  0  0  0  0  0
   22.9454  -10.6949  -15.1536 C   0  0  2  0  0  0  0  0  0  0  0  0
   23.4294   -9.6646  -14.1640 C   0  0  0  0  0  0  0  0  0  0  0  0
   21.4922  -10.5211  -15.5159 C   0  0  2  0  0  0  0  0  0  0  0  0
   21.1823  -11.5566  -16.5305 N   0  0  0  0  0  0  0  0  0  0  0  0
   21.1552   -9.1852  -16.0575 C   0  0  0  0  0  0  0  0  0  0  0  0
   21.6138   -8.8983  -17.2197 O   0  0  0  0  0  0  0  0  0  0  0  0
   20.3898   -8.1930  -15.4496 N   0  0  0  0  0  0  0  0  0  0  0  0
   20.0298   -6.9070  -16.0155 C   0  0  1  0  0  0  0  0  0  0  0  0
   18.7719   -6.9174  -16.8118 C   0  0  0  0  0  0  0  0  0  0  0  0
   17.3859   -7.5422  -15.8157 S   0  0  0  0  0  0  0  0  0  0  0  0
   19.8874   -5.8746  -14.9557 C   0  0  0  0  0  0  0  0  0  0  0  0
   19.8824   -6.2517  -13.6155 O   0  0  0  0  0  0  0  0  0  0  0  0
   19.7699   -4.6544  -15.2115 O   0  0  0  0  0  0  0  0  0  0  0  0
  2  3  1  6
  2  1  1  0
  4  5  1  0
  4  2  1  0
  5  7  1  0
  5  6  1  1
  7 13  1  0
  8  7  2  0
 10  9  1  1
 10 12  1  0
 10 11  1  0
 12 13  1  6
 14 15  2  0
 14 12  1  0
 16 14  1  0
 17 16  1  0
 17 20  1  0
 17 18  1  1
 19 18  1  0
 20 21  1  0
 22 20  2  0
M  END
$$$$
