SWA.pdb
     RDKit          3D

 26 27  0  0  1  0  0  0  0  0999 V2000
   26.6169  -19.5564  -15.8340 O   0  0  0  0  0  0  0  0  0  0  0  0
   27.6160  -19.1416  -14.9781 C   0  0  0  0  0  0  0  0  0  0  0  0
   28.2008  -20.4020  -14.3312 C   0  0  2  0  0  0  0  0  0  0  0  0
   28.6181  -21.3347  -15.3660 N   0  0  0  0  0  0  0  0  0  0  0  0
   27.1238  -21.0178  -13.4976 C   0  0  0  0  0  0  0  0  0  0  0  0
   26.6593  -22.1310  -13.8550 O   0  0  0  0  0  0  0  0  0  0  0  0
   26.6668  -20.3381  -12.3481 N   0  0  0  0  0  0  0  0  0  0  0  0
   25.6210  -20.8947  -11.5264 C   0  0  1  0  0  0  0  0  0  0  0  0
   25.8012  -20.2697  -10.1603 C   0  0  0  0  0  0  0  0  0  0  0  0
   27.0487  -20.6393   -9.4893 C   0  0  0  0  0  0  0  0  0  0  0  0
   28.0224  -21.4638  -10.0342 C   0  0  0  0  0  0  0  0  0  0  0  0
   29.0391  -21.5953   -9.1488 N   0  0  0  0  0  0  0  0  0  0  0  0
   28.7715  -20.8889   -8.0428 C   0  0  0  0  0  0  0  0  0  0  0  0
   29.4678  -20.6951   -6.8689 C   0  0  0  0  0  0  0  0  0  0  0  0
   28.9082  -19.8924   -5.8986 C   0  0  0  0  0  0  0  0  0  0  0  0
   27.6893  -19.2943   -6.0819 C   0  0  0  0  0  0  0  0  0  0  0  0
   27.0083  -19.4970   -7.2564 C   0  0  0  0  0  0  0  0  0  0  0  0
   27.5292  -20.2910   -8.2531 C   0  0  0  0  0  0  0  0  0  0  0  0
   24.2786  -20.6696  -12.0774 C   0  0  0  0  0  0  0  0  0  0  0  0
   23.9319  -19.5043  -12.3824 O   0  0  0  0  0  0  0  0  0  0  0  0
   21.5844  -22.8637  -13.4762 C   0  0  0  0  0  0  0  0  0  0  0  0
   22.0835  -21.5394  -12.9266 C   0  0  2  0  0  0  0  0  0  0  0  0
   23.3601  -21.7250  -12.2769 N   0  0  0  0  0  0  0  0  0  0  0  0
   21.0744  -20.9956  -12.0215 C   0  0  0  0  0  0  0  0  0  0  0  0
   19.8607  -20.5731  -12.5594 O   0  0  0  0  0  0  0  0  0  0  0  0
   21.2080  -20.8738  -10.7798 O   0  0  0  0  0  0  0  0  0  0  0  0
  2  1  1  0
  3  2  1  0
  3  4  1  6
  5  7  1  0
  5  3  1  0
  6  5  2  0
  8  7  1  0
  8  9  1  1
  9 10  1  0
 10 18  1  0
 11 10  2  0
 11 12  1  0
 12 13  1  0
 13 14  1  0
 14 15  2  0
 16 15  1  0
 17 16  2  0
 18 13  2  0
 18 17  1  0
 19 23  1  0
 19  8  1  0
 20 19  2  0
 22 21  1  1
 22 24  1  0
 22 23  1  0
 24 25  1  0
 26 24  2  0
M  END
$$$$
