SWA.pdb
     RDKit          3D

 26 27  0  0  1  0  0  0  0  0999 V2000
   28.2753  -20.3287  -14.0263 O   0  0  0  0  0  0  0  0  0  0  0  0
   28.7137  -19.4173  -13.0882 C   0  0  0  0  0  0  0  0  0  0  0  0
   29.1776  -20.2211  -11.8684 C   0  0  2  0  0  0  0  0  0  0  0  0
   30.1509  -21.2196  -12.2815 N   0  0  0  0  0  0  0  0  0  0  0  0
   27.9739  -20.8940  -11.2919 C   0  0  0  0  0  0  0  0  0  0  0  0
   27.8697  -22.1408  -11.4247 O   0  0  0  0  0  0  0  0  0  0  0  0
   27.0026  -20.1178  -10.6240 N   0  0  0  0  0  0  0  0  0  0  0  0
   25.7753  -20.7116  -10.1555 C   0  0  1  0  0  0  0  0  0  0  0  0
   25.3945  -19.9332   -8.9152 C   0  0  0  0  0  0  0  0  0  0  0  0
   26.5140  -19.6498   -8.0154 C   0  0  0  0  0  0  0  0  0  0  0  0
   27.3442  -18.5427   -8.1148 C   0  0  0  0  0  0  0  0  0  0  0  0
   28.2704  -18.5923   -7.1276 N   0  0  0  0  0  0  0  0  0  0  0  0
   28.0811  -19.6893   -6.3829 C   0  0  0  0  0  0  0  0  0  0  0  0
   28.7392  -20.1937   -5.2815 C   0  0  0  0  0  0  0  0  0  0  0  0
   28.2896  -21.3746   -4.7320 C   0  0  0  0  0  0  0  0  0  0  0  0
   27.2150  -22.0432   -5.2568 C   0  0  0  0  0  0  0  0  0  0  0  0
   26.5701  -21.5280   -6.3537 C   0  0  0  0  0  0  0  0  0  0  0  0
   26.9849  -20.3512   -6.9353 C   0  0  0  0  0  0  0  0  0  0  0  0
   24.7142  -20.7101  -11.1706 C   0  0  0  0  0  0  0  0  0  0  0  0
   24.5809  -19.7084  -11.9122 O   0  0  0  0  0  0  0  0  0  0  0  0
   22.4883  -23.2779  -12.7200 C   0  0  0  0  0  0  0  0  0  0  0  0
   22.8211  -21.8386  -12.3702 C   0  0  2  0  0  0  0  0  0  0  0  0
   23.8344  -21.8029  -11.3415 N   0  0  0  0  0  0  0  0  0  0  0  0
   21.5945  -21.1576  -11.9641 C   0  0  0  0  0  0  0  0  0  0  0  0
   20.5580  -21.0522  -12.8890 O   0  0  0  0  0  0  0  0  0  0  0  0
   21.3895  -20.6505  -10.8348 O   0  0  0  0  0  0  0  0  0  0  0  0
  2  1  1  0
  3  2  1  0
  3  4  1  6
  5  7  1  0
  5  3  1  0
  6  5  2  0
  8  7  1  0
  8  9  1  1
  9 10  1  0
 10 18  1  0
 11 10  2  0
 11 12  1  0
 12 13  1  0
 13 14  1  0
 14 15  2  0
 16 15  1  0
 17 16  2  0
 18 13  2  0
 18 17  1  0
 19 23  1  0
 19  8  1  0
 20 19  2  0
 22 21  1  1
 22 24  1  0
 22 23  1  0
 24 25  1  0
 26 24  2  0
M  END
$$$$
