SWA.pdb
     RDKit          3D

 26 27  0  0  1  0  0  0  0  0999 V2000
   24.0829  -19.9803  -20.2754 O   0  0  0  0  0  0  0  0  0  0  0  0
   23.9993  -19.4378  -19.0099 C   0  0  0  0  0  0  0  0  0  0  0  0
   25.2747  -19.8463  -18.2645 C   0  0  2  0  0  0  0  0  0  0  0  0
   26.0603  -20.7454  -19.0948 N   0  0  0  0  0  0  0  0  0  0  0  0
   24.8560  -20.5476  -17.0127 C   0  0  0  0  0  0  0  0  0  0  0  0
   24.9519  -21.8015  -16.9738 O   0  0  0  0  0  0  0  0  0  0  0  0
   24.3714  -19.7891  -15.9255 N   0  0  0  0  0  0  0  0  0  0  0  0
   23.9108  -20.4335  -14.7208 C   0  0  1  0  0  0  0  0  0  0  0  0
   24.3593  -19.5402  -13.5850 C   0  0  0  0  0  0  0  0  0  0  0  0
   24.2627  -20.1564  -12.2606 C   0  0  0  0  0  0  0  0  0  0  0  0
   25.1936  -21.0389  -11.7321 C   0  0  0  0  0  0  0  0  0  0  0  0
   24.7961  -21.4140  -10.4927 N   0  0  0  0  0  0  0  0  0  0  0  0
   23.6396  -20.8121  -10.1859 C   0  0  0  0  0  0  0  0  0  0  0  0
   22.8328  -20.8566   -9.0689 C   0  0  0  0  0  0  0  0  0  0  0  0
   21.6789  -20.1035   -9.0621 C   0  0  0  0  0  0  0  0  0  0  0  0
   21.3284  -19.3239  -10.1329 C   0  0  0  0  0  0  0  0  0  0  0  0
   22.1423  -19.2901  -11.2378 C   0  0  0  0  0  0  0  0  0  0  0  0
   23.3045  -20.0263  -11.2883 C   0  0  0  0  0  0  0  0  0  0  0  0
   22.4614  -20.6687  -14.7152 C   0  0  0  0  0  0  0  0  0  0  0  0
   21.6913  -19.7402  -15.0557 O   0  0  0  0  0  0  0  0  0  0  0  0
   20.2627  -23.6726  -14.6488 C   0  0  0  0  0  0  0  0  0  0  0  0
   20.4868  -22.1886  -14.4198 C   0  0  2  0  0  0  0  0  0  0  0  0
   21.9018  -21.9105  -14.3381 N   0  0  0  0  0  0  0  0  0  0  0  0
   19.7718  -21.7859  -13.2116 C   0  0  0  0  0  0  0  0  0  0  0  0
   18.3788  -21.7862  -13.2350 O   0  0  0  0  0  0  0  0  0  0  0  0
   20.3126  -21.4336  -12.1355 O   0  0  0  0  0  0  0  0  0  0  0  0
  2  1  1  0
  3  2  1  0
  3  4  1  6
  5  7  1  0
  5  3  1  0
  6  5  2  0
  8  7  1  0
  8  9  1  1
  9 10  1  0
 10 18  1  0
 11 10  2  0
 11 12  1  0
 12 13  1  0
 13 14  1  0
 14 15  2  0
 16 15  1  0
 17 16  2  0
 18 13  2  0
 18 17  1  0
 19 23  1  0
 19  8  1  0
 20 19  2  0
 22 21  1  1
 22 24  1  0
 22 23  1  0
 24 25  1  0
 26 24  2  0
M  END
$$$$
