SWA.pdb
     RDKit          3D

 26 27  0  0  1  0  0  0  0  0999 V2000
   26.8062  -19.4095  -16.0835 O   0  0  0  0  0  0  0  0  0  0  0  0
   28.1615  -19.3485  -15.8341 C   0  0  0  0  0  0  0  0  0  0  0  0
   28.6006  -20.7545  -15.4103 C   0  0  2  0  0  0  0  0  0  0  0  0
   28.4715  -21.6674  -16.5350 N   0  0  0  0  0  0  0  0  0  0  0  0
   27.7004  -21.1883  -14.2988 C   0  0  0  0  0  0  0  0  0  0  0  0
   26.7654  -21.9857  -14.5686 O   0  0  0  0  0  0  0  0  0  0  0  0
   27.9253  -20.6949  -12.9957 N   0  0  0  0  0  0  0  0  0  0  0  0
   27.0779  -21.0905  -11.8984 C   0  0  1  0  0  0  0  0  0  0  0  0
   27.8290  -20.7013  -10.6440 C   0  0  0  0  0  0  0  0  0  0  0  0
   26.9937  -20.6154   -9.4448 C   0  0  0  0  0  0  0  0  0  0  0  0
   25.6342  -20.8900   -9.4099 C   0  0  0  0  0  0  0  0  0  0  0  0
   25.1775  -20.7117   -8.1471 N   0  0  0  0  0  0  0  0  0  0  0  0
   26.1844  -20.3306   -7.3504 C   0  0  0  0  0  0  0  0  0  0  0  0
   26.2467  -20.0265   -6.0072 C   0  0  0  0  0  0  0  0  0  0  0  0
   27.4625  -19.6580   -5.4733 C   0  0  0  0  0  0  0  0  0  0  0  0
   28.5914  -19.5909   -6.2467 C   0  0  0  0  0  0  0  0  0  0  0  0
   28.5130  -19.8968   -7.5826 C   0  0  0  0  0  0  0  0  0  0  0  0
   27.3194  -20.2697   -8.1584 C   0  0  0  0  0  0  0  0  0  0  0  0
   25.7391  -20.4908  -11.9636 C   0  0  0  0  0  0  0  0  0  0  0  0
   25.6307  -19.2425  -11.9963 O   0  0  0  0  0  0  0  0  0  0  0  0
   22.5237  -21.7382  -13.2207 C   0  0  0  0  0  0  0  0  0  0  0  0
   23.2735  -20.7391  -12.3579 C   0  0  2  0  0  0  0  0  0  0  0  0
   24.5636  -21.2750  -11.9910 N   0  0  0  0  0  0  0  0  0  0  0  0
   22.4548  -20.4170  -11.1920 C   0  0  0  0  0  0  0  0  0  0  0  0
   21.2616  -19.7259  -11.3909 O   0  0  0  0  0  0  0  0  0  0  0  0
   22.7378  -20.7138  -10.0062 O   0  0  0  0  0  0  0  0  0  0  0  0
  2  1  1  0
  3  2  1  0
  3  4  1  6
  5  7  1  0
  5  3  1  0
  6  5  2  0
  8  7  1  0
  8  9  1  1
  9 10  1  0
 10 18  1  0
 11 10  2  0
 11 12  1  0
 12 13  1  0
 13 14  1  0
 14 15  2  0
 16 15  1  0
 17 16  2  0
 18 13  2  0
 18 17  1  0
 19 23  1  0
 19  8  1  0
 20 19  2  0
 22 21  1  6
 22 24  1  0
 22 23  1  0
 24 25  1  0
 26 24  2  0
M  END
$$$$
