SWA.pdb
     RDKit          3D

 26 27  0  0  1  0  0  0  0  0999 V2000
   12.8804  -14.0116    6.9221 O   0  0  0  0  0  0  0  0  0  0  0  0
   13.2782  -15.1961    6.3377 C   0  0  0  0  0  0  0  0  0  0  0  0
   13.2684  -14.9707    4.8217 C   0  0  2  0  0  0  0  0  0  0  0  0
   11.9024  -15.0325    4.3265 N   0  0  0  0  0  0  0  0  0  0  0  0
   14.0824  -16.0605    4.2022 C   0  0  0  0  0  0  0  0  0  0  0  0
   13.4914  -17.1100    3.8388 O   0  0  0  0  0  0  0  0  0  0  0  0
   15.4734  -15.8796    4.0461 N   0  0  0  0  0  0  0  0  0  0  0  0
   16.2958  -16.9199    3.4804 C   0  0  1  0  0  0  0  0  0  0  0  0
   17.5708  -16.2353    3.0388 C   0  0  0  0  0  0  0  0  0  0  0  0
   18.3639  -17.0028    2.0771 C   0  0  0  0  0  0  0  0  0  0  0  0
   17.9499  -18.1840    1.4786 C   0  0  0  0  0  0  0  0  0  0  0  0
   18.9236  -18.6253    0.6468 N   0  0  0  0  0  0  0  0  0  0  0  0
   19.9620  -17.7798    0.6753 C   0  0  0  0  0  0  0  0  0  0  0  0
   21.1776  -17.7737    0.0252 C   0  0  0  0  0  0  0  0  0  0  0  0
   22.0510  -16.7379    0.2761 C   0  0  0  0  0  0  0  0  0  0  0  0
   21.7327  -15.7305    1.1484 C   0  0  0  0  0  0  0  0  0  0  0  0
   20.5182  -15.7507    1.7879 C   0  0  0  0  0  0  0  0  0  0  0  0
   19.6148  -16.7659    1.5677 C   0  0  0  0  0  0  0  0  0  0  0  0
   16.5435  -18.0258    4.4143 C   0  0  0  0  0  0  0  0  0  0  0  0
   17.0028  -17.7717    5.5526 O   0  0  0  0  0  0  0  0  0  0  0  0
   15.9267  -21.7465    4.4257 C   0  0  0  0  0  0  0  0  0  0  0  0
   16.5493  -20.4729    4.9690 C   0  0  2  0  0  0  0  0  0  0  0  0
   16.2810  -19.3720    4.0734 N   0  0  0  0  0  0  0  0  0  0  0  0
   17.9799  -20.6943    5.1626 C   0  0  0  0  0  0  0  0  0  0  0  0
   18.4006  -21.3243    6.3318 O   0  0  0  0  0  0  0  0  0  0  0  0
   18.8787  -20.3606    4.3531 O   0  0  0  0  0  0  0  0  0  0  0  0
  2  1  1  0
  3  2  1  0
  3  4  1  6
  5  7  1  0
  5  3  1  0
  6  5  2  0
  8  7  1  0
  8  9  1  1
  9 10  1  0
 10 18  1  0
 11 10  2  0
 11 12  1  0
 12 13  1  0
 13 14  1  0
 14 15  2  0
 16 15  1  0
 17 16  2  0
 18 13  2  0
 18 17  1  0
 19 23  1  0
 19  8  1  0
 20 19  2  0
 22 21  1  6
 22 24  1  0
 22 23  1  0
 24 25  1  0
 26 24  2  0
M  END
$$$$
