SWA.pdb
     RDKit          3D

 26 27  0  0  1  0  0  0  0  0999 V2000
   26.6913  -19.2319  -15.2467 O   0  0  0  0  0  0  0  0  0  0  0  0
   27.9898  -19.2566  -14.7818 C   0  0  0  0  0  0  0  0  0  0  0  0
   28.2834  -20.6992  -14.3553 C   0  0  2  0  0  0  0  0  0  0  0  0
   27.9655  -21.6066  -15.4465 N   0  0  0  0  0  0  0  0  0  0  0  0
   27.4174  -21.0019  -13.1753 C   0  0  0  0  0  0  0  0  0  0  0  0
   26.3311  -21.6045  -13.3746 O   0  0  0  0  0  0  0  0  0  0  0  0
   27.8412  -20.6063  -11.8884 N   0  0  0  0  0  0  0  0  0  0  0  0
   27.0107  -20.8369  -10.7327 C   0  0  1  0  0  0  0  0  0  0  0  0
   27.8078  -20.3287   -9.5513 C   0  0  0  0  0  0  0  0  0  0  0  0
   27.1338  -20.4804   -8.2607 C   0  0  0  0  0  0  0  0  0  0  0  0
   25.8728  -21.0330   -8.0902 C   0  0  0  0  0  0  0  0  0  0  0  0
   25.5563  -21.0191   -6.7732 N   0  0  0  0  0  0  0  0  0  0  0  0
   26.5607  -20.4786   -6.0711 C   0  0  0  0  0  0  0  0  0  0  0  0
   26.7336  -20.2381   -4.7247 C   0  0  0  0  0  0  0  0  0  0  0  0
   27.9096  -19.6531   -4.3081 C   0  0  0  0  0  0  0  0  0  0  0  0
   28.8930  -19.3129   -5.1993 C   0  0  0  0  0  0  0  0  0  0  0  0
   28.7059  -19.5589   -6.5367 C   0  0  0  0  0  0  0  0  0  0  0  0
   27.5469  -20.1415   -6.9977 C   0  0  0  0  0  0  0  0  0  0  0  0
   25.6915  -20.2007  -10.8391 C   0  0  0  0  0  0  0  0  0  0  0  0
   25.6158  -18.9496  -10.8389 O   0  0  0  0  0  0  0  0  0  0  0  0
   22.5459  -21.0682  -12.3772 C   0  0  0  0  0  0  0  0  0  0  0  0
   23.2158  -20.3508  -11.2190 C   0  0  2  0  0  0  0  0  0  0  0  0
   24.4993  -20.9526  -10.9424 N   0  0  0  0  0  0  0  0  0  0  0  0
   22.3242  -20.3900  -10.0628 C   0  0  0  0  0  0  0  0  0  0  0  0
   21.0944  -19.7415  -10.1523 O   0  0  0  0  0  0  0  0  0  0  0  0
   22.5741  -20.9669   -8.9769 O   0  0  0  0  0  0  0  0  0  0  0  0
  2  1  1  0
  3  2  1  0
  3  4  1  6
  5  7  1  0
  5  3  1  0
  6  5  2  0
  8  7  1  0
  8  9  1  1
  9 10  1  0
 10 18  1  0
 11 10  2  0
 11 12  1  0
 12 13  1  0
 13 14  1  0
 14 15  2  0
 16 15  1  0
 17 16  2  0
 18 13  2  0
 18 17  1  0
 19 23  1  0
 19  8  1  0
 20 19  2  0
 22 21  1  6
 22 24  1  0
 22 23  1  0
 24 25  1  0
 26 24  2  0
M  END
$$$$
