SWA.pdb
     RDKit          3D

 26 27  0  0  1  0  0  0  0  0999 V2000
   26.9030  -19.3003  -15.4511 O   0  0  0  0  0  0  0  0  0  0  0  0
   28.0913  -19.1498  -14.7670 C   0  0  0  0  0  0  0  0  0  0  0  0
   28.4830  -20.5360  -14.2433 C   0  0  2  0  0  0  0  0  0  0  0  0
   28.4010  -21.5079  -15.3220 N   0  0  0  0  0  0  0  0  0  0  0  0
   27.5157  -20.8954  -13.1620 C   0  0  0  0  0  0  0  0  0  0  0  0
   26.6715  -21.7984  -13.3962 O   0  0  0  0  0  0  0  0  0  0  0  0
   27.5793  -20.2177  -11.9256 N   0  0  0  0  0  0  0  0  0  0  0  0
   26.6513  -20.5239  -10.8655 C   0  0  1  0  0  0  0  0  0  0  0  0
   27.0639  -19.6524   -9.6996 C   0  0  0  0  0  0  0  0  0  0  0  0
   26.5408  -20.0920   -8.4050 C   0  0  0  0  0  0  0  0  0  0  0  0
   25.3199  -20.7250   -8.2221 C   0  0  0  0  0  0  0  0  0  0  0  0
   25.1508  -20.9914   -6.9048 N   0  0  0  0  0  0  0  0  0  0  0  0
   26.2136  -20.5581   -6.2145 C   0  0  0  0  0  0  0  0  0  0  0  0
   26.5286  -20.5863   -4.8727 C   0  0  0  0  0  0  0  0  0  0  0  0
   27.7292  -20.0438   -4.4687 C   0  0  0  0  0  0  0  0  0  0  0  0
   28.5997  -19.4862   -5.3679 C   0  0  0  0  0  0  0  0  0  0  0  0
   28.2716  -19.4658   -6.7007 C   0  0  0  0  0  0  0  0  0  0  0  0
   27.0829  -19.9961   -7.1490 C   0  0  0  0  0  0  0  0  0  0  0  0
   25.2500  -20.3201  -11.2543 C   0  0  0  0  0  0  0  0  0  0  0  0
   24.8828  -19.1854  -11.6402 O   0  0  0  0  0  0  0  0  0  0  0  0
   22.5330  -22.5053  -12.4215 C   0  0  0  0  0  0  0  0  0  0  0  0
   22.9574  -21.2220  -11.7303 C   0  0  2  0  0  0  0  0  0  0  0  0
   24.2969  -21.3626  -11.2087 N   0  0  0  0  0  0  0  0  0  0  0  0
   21.9859  -20.9069  -10.6862 C   0  0  0  0  0  0  0  0  0  0  0  0
   22.4145  -20.9077   -9.3605 O   0  0  0  0  0  0  0  0  0  0  0  0
   20.7779  -20.6307  -10.8828 O   0  0  0  0  0  0  0  0  0  0  0  0
  2  1  1  0
  3  2  1  0
  3  4  1  6
  5  7  1  0
  5  3  1  0
  6  5  2  0
  8  7  1  0
  8  9  1  1
  9 10  1  0
 10 18  1  0
 11 10  2  0
 11 12  1  0
 12 13  1  0
 13 14  1  0
 14 15  2  0
 16 15  1  0
 17 16  2  0
 18 13  2  0
 18 17  1  0
 19 23  1  0
 19  8  1  0
 20 19  2  0
 22 21  1  1
 22 24  1  0
 22 23  1  0
 24 25  1  0
 26 24  2  0
M  END
$$$$
