SWA.pdb
     RDKit          3D

 26 27  0  0  1  0  0  0  0  0999 V2000
   26.4638  -18.8672  -15.6088 O   0  0  0  0  0  0  0  0  0  0  0  0
   27.5068  -18.5337  -14.7699 C   0  0  0  0  0  0  0  0  0  0  0  0
   28.1532  -19.8480  -14.3180 C   0  0  2  0  0  0  0  0  0  0  0  0
   28.6157  -20.5908  -15.4796 N   0  0  0  0  0  0  0  0  0  0  0  0
   27.1082  -20.6352  -13.5954 C   0  0  0  0  0  0  0  0  0  0  0  0
   26.6956  -21.7000  -14.1235 O   0  0  0  0  0  0  0  0  0  0  0  0
   26.6223  -20.1642  -12.3568 N   0  0  0  0  0  0  0  0  0  0  0  0
   25.6295  -20.9067  -11.6209 C   0  0  1  0  0  0  0  0  0  0  0  0
   25.7541  -20.4413  -10.1867 C   0  0  0  0  0  0  0  0  0  0  0  0
   27.0673  -20.6842   -9.5871 C   0  0  0  0  0  0  0  0  0  0  0  0
   28.0970  -21.3823  -10.2011 C   0  0  0  0  0  0  0  0  0  0  0  0
   29.1658  -21.4194   -9.3697 N   0  0  0  0  0  0  0  0  0  0  0  0
   28.8784  -20.7726   -8.2326 C   0  0  0  0  0  0  0  0  0  0  0  0
   29.6079  -20.5289   -7.0885 C   0  0  0  0  0  0  0  0  0  0  0  0
   29.0132  -19.8160   -6.0702 C   0  0  0  0  0  0  0  0  0  0  0  0
   27.7280  -19.3538   -6.1777 C   0  0  0  0  0  0  0  0  0  0  0  0
   27.0146  -19.6046   -7.3234 C   0  0  0  0  0  0  0  0  0  0  0  0
   27.5686  -20.3127   -8.3660 C   0  0  0  0  0  0  0  0  0  0  0  0
   24.2725  -20.7334  -12.1546 C   0  0  0  0  0  0  0  0  0  0  0  0
   23.8486  -19.5754  -12.3791 O   0  0  0  0  0  0  0  0  0  0  0  0
   21.7883  -22.9621  -13.8153 C   0  0  0  0  0  0  0  0  0  0  0  0
   22.1397  -21.6871  -13.0698 C   0  0  2  0  0  0  0  0  0  0  0  0
   23.4243  -21.8309  -12.4254 N   0  0  0  0  0  0  0  0  0  0  0  0
   21.0723  -21.3893  -12.1184 C   0  0  0  0  0  0  0  0  0  0  0  0
   19.8055  -21.0912  -12.6159 O   0  0  0  0  0  0  0  0  0  0  0  0
   21.1992  -21.3785  -10.8701 O   0  0  0  0  0  0  0  0  0  0  0  0
  2  1  1  0
  3  2  1  0
  3  4  1  6
  5  7  1  0
  5  3  1  0
  6  5  2  0
  8  7  1  0
  8  9  1  1
  9 10  1  0
 10 18  1  0
 11 10  2  0
 11 12  1  0
 12 13  1  0
 13 14  1  0
 14 15  2  0
 16 15  1  0
 17 16  2  0
 18 13  2  0
 18 17  1  0
 19 23  1  0
 19  8  1  0
 20 19  2  0
 22 21  1  1
 22 24  1  0
 22 23  1  0
 24 25  1  0
 26 24  2  0
M  END
$$$$
