SWA.pdb
     RDKit          3D

 26 27  0  0  1  0  0  0  0  0999 V2000
   18.6623  -12.7076  -21.8979 O   0  0  0  0  0  0  0  0  0  0  0  0
   18.2466  -11.8250  -20.9227 C   0  0  0  0  0  0  0  0  0  0  0  0
   18.8991  -12.2716  -19.6097 C   0  0  2  0  0  0  0  0  0  0  0  0
   18.2674  -13.4944  -19.1402 N   0  0  0  0  0  0  0  0  0  0  0  0
   18.6913  -11.1779  -18.6123 C   0  0  0  0  0  0  0  0  0  0  0  0
   17.5124  -10.8118  -18.3692 O   0  0  0  0  0  0  0  0  0  0  0  0
   19.8121  -10.5966  -17.9815 N   0  0  0  0  0  0  0  0  0  0  0  0
   19.6502   -9.5511  -17.0021 C   0  0  1  0  0  0  0  0  0  0  0  0
   20.8918   -9.6067  -16.1391 C   0  0  0  0  0  0  0  0  0  0  0  0
   20.9044   -8.6399  -15.0399 C   0  0  0  0  0  0  0  0  0  0  0  0
   20.2595   -8.8197  -13.8248 C   0  0  0  0  0  0  0  0  0  0  0  0
   20.4771   -7.7357  -13.0421 N   0  0  0  0  0  0  0  0  0  0  0  0
   21.2401   -6.8502  -13.6958 C   0  0  0  0  0  0  0  0  0  0  0  0
   21.7360   -5.6114  -13.3493 C   0  0  0  0  0  0  0  0  0  0  0  0
   22.5083   -4.9333  -14.2673 C   0  0  0  0  0  0  0  0  0  0  0  0
   22.7854   -5.4649  -15.4992 C   0  0  0  0  0  0  0  0  0  0  0  0
   22.2844   -6.6996  -15.8292 C   0  0  0  0  0  0  0  0  0  0  0  0
   21.5083   -7.4125  -14.9435 C   0  0  0  0  0  0  0  0  0  0  0  0
   19.4408   -8.2287  -17.6051 C   0  0  0  0  0  0  0  0  0  0  0  0
   20.1827   -7.8634  -18.5471 O   0  0  0  0  0  0  0  0  0  0  0  0
   16.7464   -5.8984  -18.1356 C   0  0  0  0  0  0  0  0  0  0  0  0
   18.2059   -6.0490  -17.7461 C   0  0  2  0  0  0  0  0  0  0  0  0
   18.4279   -7.3499  -17.1590 N   0  0  0  0  0  0  0  0  0  0  0  0
   18.5648   -4.9624  -16.8384 C   0  0  0  0  0  0  0  0  0  0  0  0
   18.7323   -5.2563  -15.4868 O   0  0  0  0  0  0  0  0  0  0  0  0
   18.7385   -3.7665  -17.1760 O   0  0  0  0  0  0  0  0  0  0  0  0
  2  1  1  0
  3  2  1  0
  3  4  1  1
  5  7  1  0
  5  3  1  0
  6  5  2  0
  8  7  1  0
  8  9  1  6
  9 10  1  0
 10 18  1  0
 11 10  2  0
 11 12  1  0
 12 13  1  0
 13 14  1  0
 14 15  2  0
 16 15  1  0
 17 16  2  0
 18 13  2  0
 18 17  1  0
 19 23  1  0
 19  8  1  0
 20 19  2  0
 22 21  1  1
 22 24  1  0
 22 23  1  0
 24 25  1  0
 26 24  2  0
M  END
$$$$
