SWA.pdb
     RDKit          3D

 26 27  0  0  1  0  0  0  0  0999 V2000
   27.7518  -19.9536  -16.9350 O   0  0  0  0  0  0  0  0  0  0  0  0
   26.8558  -20.6015  -16.1103 C   0  0  0  0  0  0  0  0  0  0  0  0
   27.6759  -21.2862  -15.0114 C   0  0  2  0  0  0  0  0  0  0  0  0
   28.3110  -22.4801  -15.5464 N   0  0  0  0  0  0  0  0  0  0  0  0
   26.7308  -21.6618  -13.9161 C   0  0  0  0  0  0  0  0  0  0  0  0
   26.2141  -22.8086  -13.9446 O   0  0  0  0  0  0  0  0  0  0  0  0
   26.4507  -20.7281  -12.8954 N   0  0  0  0  0  0  0  0  0  0  0  0
   25.4158  -20.9819  -11.9242 C   0  0  1  0  0  0  0  0  0  0  0  0
   25.7682  -20.1319  -10.7231 C   0  0  0  0  0  0  0  0  0  0  0  0
   26.9814  -20.5551  -10.0216 C   0  0  0  0  0  0  0  0  0  0  0  0
   28.0118  -21.2834  -10.5983 C   0  0  0  0  0  0  0  0  0  0  0  0
   28.9741  -21.5023   -9.6704 N   0  0  0  0  0  0  0  0  0  0  0  0
   28.6162  -20.9459   -8.5059 C   0  0  0  0  0  0  0  0  0  0  0  0
   29.2310  -20.8852   -7.2735 C   0  0  0  0  0  0  0  0  0  0  0  0
   28.5874  -20.2228   -6.2508 C   0  0  0  0  0  0  0  0  0  0  0  0
   27.3651  -19.6333   -6.4393 C   0  0  0  0  0  0  0  0  0  0  0  0
   26.7659  -19.7024   -7.6724 C   0  0  0  0  0  0  0  0  0  0  0  0
   27.3723  -20.3538   -8.7227 C   0  0  0  0  0  0  0  0  0  0  0  0
   24.0683  -20.7033  -12.4369 C   0  0  0  0  0  0  0  0  0  0  0  0
   23.8123  -19.5638  -12.8921 O   0  0  0  0  0  0  0  0  0  0  0  0
   21.0095  -22.7394  -13.2208 C   0  0  0  0  0  0  0  0  0  0  0  0
   21.7213  -21.4255  -12.9530 C   0  0  2  0  0  0  0  0  0  0  0  0
   23.0458  -21.6788  -12.4353 N   0  0  0  0  0  0  0  0  0  0  0  0
   20.9102  -20.6297  -12.0354 C   0  0  0  0  0  0  0  0  0  0  0  0
   19.6937  -20.1272  -12.4921 O   0  0  0  0  0  0  0  0  0  0  0  0
   21.2191  -20.3546  -10.8508 O   0  0  0  0  0  0  0  0  0  0  0  0
  2  1  1  0
  3  2  1  0
  3  4  1  6
  5  7  1  0
  5  3  1  0
  6  5  2  0
  8  7  1  0
  8  9  1  1
  9 10  1  0
 10 18  1  0
 11 10  2  0
 11 12  1  0
 12 13  1  0
 13 14  1  0
 14 15  2  0
 16 15  1  0
 17 16  2  0
 18 13  2  0
 18 17  1  0
 19 23  1  0
 19  8  1  0
 20 19  2  0
 22 21  1  1
 22 24  1  0
 22 23  1  0
 24 25  1  0
 26 24  2  0
M  END
$$$$
