SWA.pdb
     RDKit          3D

 26 27  0  0  1  0  0  0  0  0999 V2000
   26.5289  -21.1427  -17.6862 O   0  0  0  0  0  0  0  0  0  0  0  0
   27.8558  -21.2407  -17.3223 C   0  0  0  0  0  0  0  0  0  0  0  0
   27.9908  -22.5038  -16.4646 C   0  0  2  0  0  0  0  0  0  0  0  0
   27.6201  -23.6705  -17.2496 N   0  0  0  0  0  0  0  0  0  0  0  0
   27.0614  -22.3573  -15.3033 C   0  0  0  0  0  0  0  0  0  0  0  0
   26.0195  -23.0624  -15.2838 O   0  0  0  0  0  0  0  0  0  0  0  0
   27.3784  -21.4426  -14.2763 N   0  0  0  0  0  0  0  0  0  0  0  0
   26.5907  -21.3822  -13.0703 C   0  0  1  0  0  0  0  0  0  0  0  0
   27.3793  -20.5159  -12.1127 C   0  0  0  0  0  0  0  0  0  0  0  0
   26.8118  -20.4376  -10.7655 C   0  0  0  0  0  0  0  0  0  0  0  0
   25.4548  -20.3702  -10.4846 C   0  0  0  0  0  0  0  0  0  0  0  0
   25.2818  -20.3083   -9.1425 N   0  0  0  0  0  0  0  0  0  0  0  0
   26.4727  -20.3324   -8.5302 C   0  0  0  0  0  0  0  0  0  0  0  0
   26.8392  -20.2926   -7.2018 C   0  0  0  0  0  0  0  0  0  0  0  0
   28.1806  -20.3344   -6.8893 C   0  0  0  0  0  0  0  0  0  0  0  0
   29.1392  -20.4137   -7.8650 C   0  0  0  0  0  0  0  0  0  0  0  0
   28.7582  -20.4526   -9.1833 C   0  0  0  0  0  0  0  0  0  0  0  0
   27.4296  -20.4132   -9.5415 C   0  0  0  0  0  0  0  0  0  0  0  0
   25.2309  -20.8771  -13.2990 C   0  0  0  0  0  0  0  0  0  0  0  0
   25.0785  -19.7163  -13.7464 O   0  0  0  0  0  0  0  0  0  0  0  0
   21.8924  -22.3039  -13.8498 C   0  0  0  0  0  0  0  0  0  0  0  0
   22.7407  -21.1839  -13.2748 C   0  0  2  0  0  0  0  0  0  0  0  0
   24.0833  -21.6574  -13.0314 N   0  0  0  0  0  0  0  0  0  0  0  0
   22.1001  -20.6847  -12.0608 C   0  0  0  0  0  0  0  0  0  0  0  0
   20.9362  -19.9297  -12.1883 O   0  0  0  0  0  0  0  0  0  0  0  0
   22.5142  -20.8803  -10.8926 O   0  0  0  0  0  0  0  0  0  0  0  0
  2  1  1  0
  3  2  1  0
  3  4  1  6
  5  7  1  0
  5  3  1  0
  6  5  2  0
  8  7  1  0
  8  9  1  1
  9 10  1  0
 10 18  1  0
 11 10  2  0
 11 12  1  0
 12 13  1  0
 13 14  1  0
 14 15  2  0
 16 15  1  0
 17 16  2  0
 18 13  2  0
 18 17  1  0
 19 23  1  0
 19  8  1  0
 20 19  2  0
 22 21  1  1
 22 24  1  0
 22 23  1  0
 24 25  1  0
 26 24  2  0
M  END
$$$$
