SWA.pdb
     RDKit          3D

 26 27  0  0  1  0  0  0  0  0999 V2000
   26.5251  -19.8830  -15.7983 O   0  0  0  0  0  0  0  0  0  0  0  0
   27.6704  -19.4322  -15.1756 C   0  0  0  0  0  0  0  0  0  0  0  0
   28.2684  -20.6263  -14.4234 C   0  0  2  0  0  0  0  0  0  0  0  0
   28.6214  -21.6734  -15.3689 N   0  0  0  0  0  0  0  0  0  0  0  0
   27.2250  -21.1273  -13.4778 C   0  0  0  0  0  0  0  0  0  0  0  0
   26.6892  -22.2397  -13.7194 O   0  0  0  0  0  0  0  0  0  0  0  0
   26.8775  -20.3450  -12.3555 N   0  0  0  0  0  0  0  0  0  0  0  0
   25.8245  -20.7595  -11.4622 C   0  0  1  0  0  0  0  0  0  0  0  0
   26.0760  -20.0199  -10.1665 C   0  0  0  0  0  0  0  0  0  0  0  0
   27.2534  -20.4812   -9.4290 C   0  0  0  0  0  0  0  0  0  0  0  0
   28.2344  -21.3122   -9.9506 C   0  0  0  0  0  0  0  0  0  0  0  0
   29.1744  -21.5391   -9.0020 N   0  0  0  0  0  0  0  0  0  0  0  0
   28.8493  -20.8894   -7.8768 C   0  0  0  0  0  0  0  0  0  0  0  0
   29.4601  -20.7956   -6.6445 C   0  0  0  0  0  0  0  0  0  0  0  0
   28.8582  -20.0294   -5.6701 C   0  0  0  0  0  0  0  0  0  0  0  0
   27.6803  -19.3705   -5.9057 C   0  0  0  0  0  0  0  0  0  0  0  0
   27.0845  -19.4737   -7.1380 C   0  0  0  0  0  0  0  0  0  0  0  0
   27.6502  -20.2281   -8.1410 C   0  0  0  0  0  0  0  0  0  0  0  0
   24.4826  -20.5094  -12.0035 C   0  0  0  0  0  0  0  0  0  0  0  0
   24.1420  -19.3330  -12.2706 O   0  0  0  0  0  0  0  0  0  0  0  0
   21.6680  -22.5945  -13.3448 C   0  0  0  0  0  0  0  0  0  0  0  0
   22.2236  -21.3192  -12.7367 C   0  0  2  0  0  0  0  0  0  0  0  0
   23.5578  -21.5527  -12.2351 N   0  0  0  0  0  0  0  0  0  0  0  0
   21.3113  -20.8597  -11.6928 C   0  0  0  0  0  0  0  0  0  0  0  0
   20.1220  -20.2437  -12.0765 O   0  0  0  0  0  0  0  0  0  0  0  0
   21.5090  -20.9734  -10.4590 O   0  0  0  0  0  0  0  0  0  0  0  0
  2  1  1  0
  3  2  1  0
  3  4  1  6
  5  7  1  0
  5  3  1  0
  6  5  2  0
  8  7  1  0
  8  9  1  1
  9 10  1  0
 10 18  1  0
 11 10  2  0
 11 12  1  0
 12 13  1  0
 13 14  1  0
 14 15  2  0
 16 15  1  0
 17 16  2  0
 18 13  2  0
 18 17  1  0
 19 23  1  0
 19  8  1  0
 20 19  2  0
 22 21  1  1
 22 24  1  0
 22 23  1  0
 24 25  1  0
 26 24  2  0
M  END
$$$$
