HRT.pdb
     RDKit          3D

 29 29  0  0  1  0  0  0  0  0999 V2000
   12.3172  -18.4417   17.3210 N   0  0  0  0  0  0  0  0  0  0  0  0
   11.5359  -19.2484   18.2254 C   0  0  1  0  0  0  0  0  0  0  0  0
   11.9824  -20.6805   18.2641 C   0  0  0  0  0  0  0  0  0  0  0  0
   11.6856  -21.2776   16.9298 C   0  0  0  0  0  0  0  0  0  0  0  0
   10.4461  -21.6300   16.4393 C   0  0  0  0  0  0  0  0  0  0  0  0
   10.5965  -22.1335   15.2022 N   0  0  0  0  0  0  0  0  0  0  0  0
   11.9147  -22.1103   14.8890 C   0  0  0  0  0  0  0  0  0  0  0  0
   12.5621  -21.5883   15.9474 N   0  0  0  0  0  0  0  0  0  0  0  0
   11.4528  -18.6021   19.5303 C   0  0  0  0  0  0  0  0  0  0  0  0
   12.4928  -18.5398   20.2351 O   0  0  0  0  0  0  0  0  0  0  0  0
    9.3430  -12.8429   19.9960 N   0  0  0  0  0  0  0  0  0  0  0  0
    8.2988  -13.1653   19.1096 C   0  0  0  0  0  0  0  0  0  0  0  0
    8.2723  -12.7511   17.8904 N   0  0  0  0  0  0  0  0  0  0  0  0
    7.2327  -13.9785   19.5756 N   0  0  0  0  0  0  0  0  0  0  0  0
    7.4401  -14.8914   20.6708 C   0  0  0  0  0  0  0  0  0  0  0  0
    8.7537  -15.6359   20.5155 C   0  0  0  0  0  0  0  0  0  0  0  0
    8.9715  -16.6324   21.6266 C   0  0  0  0  0  0  0  0  0  0  0  0
   10.1797  -17.4903   21.4285 C   0  0  2  0  0  0  0  0  0  0  0  0
   10.2808  -18.0262   20.0866 N   0  0  0  0  0  0  0  0  0  0  0  0
   10.2342  -18.6066   22.4345 C   0  0  0  0  0  0  0  0  0  0  0  0
    9.6966  -19.7019   22.1346 O   0  0  0  0  0  0  0  0  0  0  0  0
    7.5122  -12.9900   17.2393 C   0  0  0  0  0  0  0  0  0  0  0  0
   11.4541  -21.1563   22.8186 C   0  0  2  0  0  0  0  0  0  0  0  0
   11.9534  -20.5525   24.1040 O   0  0  0  0  0  0  0  0  0  0  0  0
   13.1710  -19.9152   23.8919 C   0  0  2  0  0  0  0  0  0  0  0  0
   10.9318  -19.5531   24.6642 N   0  0  0  0  0  0  0  0  0  0  0  0
   10.8526  -18.4835   23.6837 C   0  0  0  0  0  0  0  0  0  0  0  0
   11.5349  -18.9638   25.8947 O   0  0  0  0  0  0  0  0  0  0  0  0
   11.5846  -19.6408   27.1067 O   0  0  0  0  0  0  0  0  0  0  0  0
  2  1  1  6
  3  2  1  0
  3  4  1  0
  4  5  2  0
  4  8  1  0
  5  6  1  0
  6  7  1  0
  8  7  2  0
  9  2  1  0
 10  9  2  0
 11 12  1  0
 12 14  1  0
 12 13  2  0
 14 15  1  0
 16 17  1  0
 16 15  1  0
 18 17  1  6
 18 19  1  0
 19  9  1  0
 20 18  1  0
 21 20  2  0
 23 25  1  0
 23 22  1  1
 24 23  1  0
 25 26  1  1
 26 20  1  0
 27 25  1  0
 27 28  1  0
 29 27  2  0
M  END
$$$$
