HRT.pdb
     RDKit          3D

 29 29  0  0  1  0  0  0  0  0999 V2000
    9.8327  -13.9008   19.0509 N   0  0  0  0  0  0  0  0  0  0  0  0
    8.6732  -14.6683   19.4326 C   0  0  1  0  0  0  0  0  0  0  0  0
    8.0996  -15.4630   18.2962 C   0  0  0  0  0  0  0  0  0  0  0  0
    7.9358  -14.5353   17.1397 C   0  0  0  0  0  0  0  0  0  0  0  0
    8.3340  -13.2169   17.0749 C   0  0  0  0  0  0  0  0  0  0  0  0
    8.0096  -12.7248   15.8669 N   0  0  0  0  0  0  0  0  0  0  0  0
    7.4083  -13.7072   15.1530 C   0  0  0  0  0  0  0  0  0  0  0  0
    7.3712  -14.7992   15.9391 N   0  0  0  0  0  0  0  0  0  0  0  0
    8.9582  -15.4443   20.6342 C   0  0  0  0  0  0  0  0  0  0  0  0
    8.0956  -16.2678   21.0338 O   0  0  0  0  0  0  0  0  0  0  0  0
   15.4076  -14.3508   21.5115 N   0  0  0  0  0  0  0  0  0  0  0  0
   15.4490  -15.1793   20.3748 C   0  0  0  0  0  0  0  0  0  0  0  0
   16.0224  -14.8229   19.2782 N   0  0  0  0  0  0  0  0  0  0  0  0
   14.8354  -16.4578   20.4379 N   0  0  0  0  0  0  0  0  0  0  0  0
   14.0480  -16.8303   21.5856 C   0  0  0  0  0  0  0  0  0  0  0  0
   12.6615  -16.2166   21.5149 C   0  0  0  0  0  0  0  0  0  0  0  0
   11.8196  -16.5867   22.7104 C   0  0  0  0  0  0  0  0  0  0  0  0
   10.4064  -16.1087   22.6144 C   0  0  2  0  0  0  0  0  0  0  0  0
   10.1447  -15.3514   21.4076 N   0  0  0  0  0  0  0  0  0  0  0  0
   10.0132  -15.3046   23.8227 C   0  0  0  0  0  0  0  0  0  0  0  0
   10.6986  -14.2914   24.1095 O   0  0  0  0  0  0  0  0  0  0  0  0
   16.0460  -15.4237   18.4433 C   0  0  0  0  0  0  0  0  0  0  0  0
    6.9830  -13.3856   24.6049 C   0  0  2  0  0  0  0  0  0  0  0  0
    7.0870  -14.4842   25.6288 O   0  0  0  0  0  0  0  0  0  0  0  0
    6.3404  -15.5859   25.2259 C   0  0  2  0  0  0  0  0  0  0  0  0
    8.5520  -14.8936   25.8351 N   0  0  0  0  0  0  0  0  0  0  0  0
    8.9244  -15.6303   24.6393 C   0  0  0  0  0  0  0  0  0  0  0  0
    8.5725  -15.8685   26.9639 O   0  0  0  0  0  0  0  0  0  0  0  0
    8.3448  -15.4974   28.2830 O   0  0  0  0  0  0  0  0  0  0  0  0
  2  1  1  6
  3  2  1  0
  3  4  1  0
  4  5  2  0
  4  8  1  0
  5  6  1  0
  6  7  1  0
  8  7  2  0
  9  2  1  0
 10  9  2  0
 11 12  1  0
 12 14  1  0
 12 13  2  0
 14 15  1  0
 16 17  1  0
 16 15  1  0
 18 17  1  1
 18 19  1  0
 19  9  1  0
 20 18  1  0
 21 20  2  0
 23 25  1  0
 23 22  1  1
 24 23  1  0
 25 26  1  1
 26 20  1  0
 27 25  1  0
 27 28  1  0
 29 27  2  0
M  END
$$$$
