HRT.pdb
     RDKit          3D

 29 29  0  0  1  0  0  0  0  0999 V2000
    7.4550  -16.7297   17.2318 N   0  0  0  0  0  0  0  0  0  0  0  0
    8.5937  -16.0343   17.7785 C   0  0  1  0  0  0  0  0  0  0  0  0
    8.3596  -14.5598   17.9293 C   0  0  0  0  0  0  0  0  0  0  0  0
    7.9776  -14.0283   16.5889 C   0  0  0  0  0  0  0  0  0  0  0  0
    6.9020  -13.2164   16.2977 C   0  0  0  0  0  0  0  0  0  0  0  0
    6.9000  -12.9558   14.9791 N   0  0  0  0  0  0  0  0  0  0  0  0
    7.9586  -13.5880   14.4172 C   0  0  0  0  0  0  0  0  0  0  0  0
    8.6025  -14.2343   15.4070 N   0  0  0  0  0  0  0  0  0  0  0  0
    9.0567  -16.7033   18.9890 C   0  0  0  0  0  0  0  0  0  0  0  0
    8.2034  -17.2456   19.7373 O   0  0  0  0  0  0  0  0  0  0  0  0
   15.8056  -21.5024   18.6647 N   0  0  0  0  0  0  0  0  0  0  0  0
   14.5839  -21.8662   18.0687 C   0  0  0  0  0  0  0  0  0  0  0  0
   14.4669  -22.8919   17.2987 N   0  0  0  0  0  0  0  0  0  0  0  0
   13.4350  -21.0729   18.3251 N   0  0  0  0  0  0  0  0  0  0  0  0
   13.5064  -19.9663   19.2450 C   0  0  0  0  0  0  0  0  0  0  0  0
   12.1569  -19.2847   19.3800 C   0  0  0  0  0  0  0  0  0  0  0  0
   12.1866  -18.1727   20.3986 C   0  0  0  0  0  0  0  0  0  0  0  0
   10.8633  -17.5033   20.5879 C   0  0  2  0  0  0  0  0  0  0  0  0
   10.4101  -16.7987   19.4062 N   0  0  0  0  0  0  0  0  0  0  0  0
   10.8805  -16.5719   21.7682 C   0  0  0  0  0  0  0  0  0  0  0  0
   11.3195  -15.4070   21.5981 O   0  0  0  0  0  0  0  0  0  0  0  0
   13.5675  -23.1797   16.8902 C   0  0  0  0  0  0  0  0  0  0  0  0
    8.5856  -14.7241   25.3931 C   0  0  2  0  0  0  0  0  0  0  0  0
    8.8990  -15.4783   24.1286 O   0  0  0  0  0  0  0  0  0  0  0  0
    8.7398  -14.6481   23.0245 C   0  0  1  0  0  0  0  0  0  0  0  0
   10.3324  -16.0261   24.1673 N   0  0  0  0  0  0  0  0  0  0  0  0
   10.4325  -16.9398   23.0419 C   0  0  0  0  0  0  0  0  0  0  0  0
   10.4446  -16.8535   25.4035 O   0  0  0  0  0  0  0  0  0  0  0  0
   10.6369  -16.3015   26.6635 O   0  0  0  0  0  0  0  0  0  0  0  0
  2  1  1  1
  3  2  1  0
  3  4  1  0
  4  5  2  0
  4  8  1  0
  5  6  1  0
  6  7  1  0
  8  7  2  0
  9  2  1  0
 10  9  2  0
 11 12  1  0
 12 14  1  0
 12 13  2  0
 14 15  1  0
 16 17  1  0
 16 15  1  0
 18 17  1  6
 18 19  1  0
 19  9  1  0
 20 18  1  0
 21 20  2  0
 23 25  1  0
 23 22  1  6
 24 23  1  0
 25 26  1  6
 26 20  1  0
 27 25  1  0
 27 28  1  0
 29 27  2  0
M  END
$$$$
