HRT.pdb
     RDKit          3D

 29 29  0  0  1  0  0  0  0  0999 V2000
    8.9662  -15.9838   20.6166 N   0  0  0  0  0  0  0  0  0  0  0  0
    8.3117  -15.0135   21.4587 C   0  0  1  0  0  0  0  0  0  0  0  0
    7.0359  -14.4920   20.8652 C   0  0  0  0  0  0  0  0  0  0  0  0
    7.3395  -14.0448   19.4749 C   0  0  0  0  0  0  0  0  0  0  0  0
    7.8175  -12.8102   19.0896 C   0  0  0  0  0  0  0  0  0  0  0  0
    7.9611  -12.7986   17.7533 N   0  0  0  0  0  0  0  0  0  0  0  0
    7.5825  -14.0076   17.2725 C   0  0  0  0  0  0  0  0  0  0  0  0
    7.2082  -14.7523   18.3295 N   0  0  0  0  0  0  0  0  0  0  0  0
    8.1834  -15.5318   22.8159 C   0  0  0  0  0  0  0  0  0  0  0  0
    7.5855  -14.8297   23.6712 O   0  0  0  0  0  0  0  0  0  0  0  0
    6.6157  -22.1374   26.6679 N   0  0  0  0  0  0  0  0  0  0  0  0
    6.1219  -22.3198   25.3629 C   0  0  0  0  0  0  0  0  0  0  0  0
    4.9856  -22.8767   25.1236 N   0  0  0  0  0  0  0  0  0  0  0  0
    6.9055  -21.8730   24.2668 N   0  0  0  0  0  0  0  0  0  0  0  0
    8.0722  -21.0581   24.4917 C   0  0  0  0  0  0  0  0  0  0  0  0
    7.7110  -19.5839   24.5004 C   0  0  0  0  0  0  0  0  0  0  0  0
    8.9117  -18.7111   24.7679 C   0  0  0  0  0  0  0  0  0  0  0  0
    8.6265  -17.2494   24.6362 C   0  0  2  0  0  0  0  0  0  0  0  0
    8.6825  -16.7819   23.2664 N   0  0  0  0  0  0  0  0  0  0  0  0
    9.5448  -16.4286   25.4988 C   0  0  0  0  0  0  0  0  0  0  0  0
   10.6205  -16.0176   24.9961 O   0  0  0  0  0  0  0  0  0  0  0  0
    4.6372  -23.0394   24.1692 C   0  0  0  0  0  0  0  0  0  0  0  0
   10.0548  -13.1995   29.0298 C   0  0  2  0  0  0  0  0  0  0  0  0
    9.3072  -14.0535   28.0409 O   0  0  0  0  0  0  0  0  0  0  0  0
    9.0257  -13.3210   26.8930 C   0  0  1  0  0  0  0  0  0  0  0  0
   10.1250  -15.3005   27.6770 N   0  0  0  0  0  0  0  0  0  0  0  0
    9.2592  -16.1025   26.8292 C   0  0  0  0  0  0  0  0  0  0  0  0
   10.3227  -16.0702   28.9394 O   0  0  0  0  0  0  0  0  0  0  0  0
   11.3189  -15.7657   29.8582 O   0  0  0  0  0  0  0  0  0  0  0  0
  2  1  1  6
  3  2  1  0
  3  4  1  0
  4  5  2  0
  4  8  1  0
  5  6  1  0
  6  7  1  0
  8  7  2  0
  9  2  1  0
 10  9  2  0
 11 12  1  0
 12 14  1  0
 12 13  2  0
 14 15  1  0
 16 17  1  0
 16 15  1  0
 18 17  1  6
 18 19  1  0
 19  9  1  0
 20 18  1  0
 21 20  2  0
 23 25  1  0
 23 22  1  1
 24 23  1  0
 25 26  1  1
 26 20  1  0
 27 25  1  0
 27 28  1  0
 29 27  2  0
M  END
$$$$
