HRT.pdb
     RDKit          3D

 29 29  0  0  1  0  0  0  0  0999 V2000
    8.8570  -16.1652   19.5732 N   0  0  0  0  0  0  0  0  0  0  0  0
    8.4453  -15.0296   20.3606 C   0  0  1  0  0  0  0  0  0  0  0  0
    7.2505  -14.3250   19.7881 C   0  0  0  0  0  0  0  0  0  0  0  0
    7.5777  -13.9633   18.3784 C   0  0  0  0  0  0  0  0  0  0  0  0
    7.2541  -12.7906   17.7296 C   0  0  0  0  0  0  0  0  0  0  0  0
    7.7247  -12.8468   16.4719 N   0  0  0  0  0  0  0  0  0  0  0  0
    8.3466  -14.0386   16.3014 C   0  0  0  0  0  0  0  0  0  0  0  0
    8.2488  -14.7044   17.4672 N   0  0  0  0  0  0  0  0  0  0  0  0
    8.3117  -15.4122   21.7617 C   0  0  0  0  0  0  0  0  0  0  0  0
    7.2456  -15.1220   22.3628 O   0  0  0  0  0  0  0  0  0  0  0  0
   10.1127  -21.8887   25.1130 N   0  0  0  0  0  0  0  0  0  0  0  0
   10.6481  -20.9416   26.0055 C   0  0  0  0  0  0  0  0  0  0  0  0
   10.6021  -21.0909   27.2839 N   0  0  0  0  0  0  0  0  0  0  0  0
   11.2629  -19.7760   25.4778 N   0  0  0  0  0  0  0  0  0  0  0  0
   11.3392  -19.5761   24.0531 C   0  0  0  0  0  0  0  0  0  0  0  0
   10.2589  -18.6203   23.5805 C   0  0  0  0  0  0  0  0  0  0  0  0
   10.2143  -17.3638   24.4136 C   0  0  0  0  0  0  0  0  0  0  0  0
    9.2007  -16.3717   23.9409 C   0  0  2  0  0  0  0  0  0  0  0  0
    9.2962  -16.0958   22.5222 N   0  0  0  0  0  0  0  0  0  0  0  0
    9.2790  -15.0890   24.7217 C   0  0  0  0  0  0  0  0  0  0  0  0
   10.3222  -14.3961   24.6209 O   0  0  0  0  0  0  0  0  0  0  0  0
   10.9775  -20.3913   27.9383 C   0  0  0  0  0  0  0  0  0  0  0  0
    6.7514  -12.1119   24.8947 C   0  0  2  0  0  0  0  0  0  0  0  0
    6.9267  -12.7743   26.2351 O   0  0  0  0  0  0  0  0  0  0  0  0
    5.9444  -13.7403   26.4234 C   0  0  2  0  0  0  0  0  0  0  0  0
    8.3171  -13.4158   26.3431 N   0  0  0  0  0  0  0  0  0  0  0  0
    8.2490  -14.6326   25.5519 C   0  0  0  0  0  0  0  0  0  0  0  0
    8.4888  -13.8364   27.7640 O   0  0  0  0  0  0  0  0  0  0  0  0
    8.6242  -12.9285   28.8064 O   0  0  0  0  0  0  0  0  0  0  0  0
  2  1  1  6
  3  2  1  0
  3  4  1  0
  4  5  2  0
  4  8  1  0
  5  6  1  0
  6  7  1  0
  8  7  2  0
  9  2  1  0
 10  9  2  0
 11 12  1  0
 12 14  1  0
 12 13  2  0
 14 15  1  0
 16 17  1  0
 16 15  1  0
 18 17  1  1
 18 19  1  0
 19  9  1  0
 20 18  1  0
 21 20  2  0
 23 25  1  0
 23 22  1  1
 24 23  1  0
 25 26  1  1
 26 20  1  0
 27 25  1  0
 27 28  1  0
 29 27  2  0
M  END
$$$$
