HRT.pdb
     RDKit          3D

 29 29  0  0  1  0  0  0  0  0999 V2000
    7.7250  -16.6909   18.6106 N   0  0  0  0  0  0  0  0  0  0  0  0
    7.9537  -15.5282   19.4321 C   0  0  1  0  0  0  0  0  0  0  0  0
    7.3135  -14.2885   18.8798 C   0  0  0  0  0  0  0  0  0  0  0  0
    7.7883  -14.1280   17.4749 C   0  0  0  0  0  0  0  0  0  0  0  0
    8.6464  -14.9637   16.7919 C   0  0  0  0  0  0  0  0  0  0  0  0
    8.8291  -14.4780   15.5520 N   0  0  0  0  0  0  0  0  0  0  0  0
    8.1012  -13.3420   15.4267 C   0  0  0  0  0  0  0  0  0  0  0  0
    7.4755  -13.1432   16.6018 N   0  0  0  0  0  0  0  0  0  0  0  0
    7.6155  -15.8201   20.8205 C   0  0  0  0  0  0  0  0  0  0  0  0
    6.4177  -16.0796   21.1033 O   0  0  0  0  0  0  0  0  0  0  0  0
   12.8565  -18.0120   24.9909 N   0  0  0  0  0  0  0  0  0  0  0  0
   13.0505  -18.6932   23.7750 C   0  0  0  0  0  0  0  0  0  0  0  0
   14.1838  -18.7101   23.1635 N   0  0  0  0  0  0  0  0  0  0  0  0
   11.9556  -19.3891   23.1989 N   0  0  0  0  0  0  0  0  0  0  0  0
   10.6141  -19.1476   23.6658 C   0  0  0  0  0  0  0  0  0  0  0  0
   10.1280  -17.7759   23.2343 C   0  0  0  0  0  0  0  0  0  0  0  0
    8.7157  -17.5090   23.6915 C   0  0  0  0  0  0  0  0  0  0  0  0
    8.1960  -16.1722   23.2698 C   0  0  2  0  0  0  0  0  0  0  0  0
    8.5349  -15.8379   21.9018 N   0  0  0  0  0  0  0  0  0  0  0  0
    8.6603  -15.0829   24.1966 C   0  0  0  0  0  0  0  0  0  0  0  0
    9.7831  -14.5611   23.9830 O   0  0  0  0  0  0  0  0  0  0  0  0
   15.0531  -18.3698   23.5960 C   0  0  0  0  0  0  0  0  0  0  0  0
    6.4735  -12.0410   25.3509 C   0  0  2  0  0  0  0  0  0  0  0  0
    7.0107  -12.8057   26.5310 O   0  0  0  0  0  0  0  0  0  0  0  0
    6.0644  -13.7207   26.9790 C   0  0  2  0  0  0  0  0  0  0  0  0
    8.3073  -13.5370   26.1561 N   0  0  0  0  0  0  0  0  0  0  0  0
    7.9039  -14.6248   25.2812 C   0  0  0  0  0  0  0  0  0  0  0  0
    8.8270  -14.1620   27.4068 O   0  0  0  0  0  0  0  0  0  0  0  0
    9.3542  -13.4199   28.4560 O   0  0  0  0  0  0  0  0  0  0  0  0
  2  1  1  6
  3  2  1  0
  3  4  1  0
  4  5  2  0
  4  8  1  0
  5  6  1  0
  6  7  1  0
  8  7  2  0
  9  2  1  0
 10  9  2  0
 11 12  1  0
 12 14  1  0
 12 13  2  0
 14 15  1  0
 16 17  1  0
 16 15  1  0
 18 17  1  1
 18 19  1  0
 19  9  1  0
 20 18  1  0
 21 20  2  0
 23 25  1  0
 23 22  1  1
 24 23  1  0
 25 26  1  1
 26 20  1  0
 27 25  1  0
 27 28  1  0
 29 27  2  0
M  END
$$$$
