HRT.pdb
     RDKit          3D

 29 29  0  0  1  0  0  0  0  0999 V2000
   10.8198  -15.7655   18.6657 N   0  0  0  0  0  0  0  0  0  0  0  0
   11.4681  -15.4570   19.9162 C   0  0  1  0  0  0  0  0  0  0  0  0
   11.9823  -14.0484   19.9749 C   0  0  0  0  0  0  0  0  0  0  0  0
   13.3954  -14.0681   19.4976 C   0  0  0  0  0  0  0  0  0  0  0  0
   14.1188  -15.1732   19.1019 C   0  0  0  0  0  0  0  0  0  0  0  0
   15.3521  -14.7781   18.7422 N   0  0  0  0  0  0  0  0  0  0  0  0
   15.4333  -13.4348   18.9006 C   0  0  0  0  0  0  0  0  0  0  0  0
   14.2382  -13.0190   19.3595 N   0  0  0  0  0  0  0  0  0  0  0  0
   10.6113  -15.8383   21.0333 C   0  0  0  0  0  0  0  0  0  0  0  0
    9.4570  -15.3430   21.0990 O   0  0  0  0  0  0  0  0  0  0  0  0
    7.9351  -22.6346   21.2674 N   0  0  0  0  0  0  0  0  0  0  0  0
    8.6355  -22.5278   22.4832 C   0  0  0  0  0  0  0  0  0  0  0  0
    8.1237  -22.8813   23.6109 N   0  0  0  0  0  0  0  0  0  0  0  0
    9.9573  -22.0106   22.4677 N   0  0  0  0  0  0  0  0  0  0  0  0
   10.3371  -20.9591   23.3764 C   0  0  0  0  0  0  0  0  0  0  0  0
   10.1198  -19.5943   22.7485 C   0  0  0  0  0  0  0  0  0  0  0  0
   10.4183  -18.4754   23.7149 C   0  0  0  0  0  0  0  0  0  0  0  0
   10.1059  -17.1188   23.1698 C   0  0  2  0  0  0  0  0  0  0  0  0
   10.9706  -16.7356   22.0728 N   0  0  0  0  0  0  0  0  0  0  0  0
   10.1440  -16.0699   24.2466 C   0  0  0  0  0  0  0  0  0  0  0  0
   11.2095  -15.4239   24.4077 O   0  0  0  0  0  0  0  0  0  0  0  0
    8.6163  -22.7607   24.5062 C   0  0  0  0  0  0  0  0  0  0  0  0
    7.5049  -13.0110   27.0356 C   0  0  1  0  0  0  0  0  0  0  0  0
    7.6573  -14.0833   25.9903 O   0  0  0  0  0  0  0  0  0  0  0  0
    7.4654  -13.5460   24.7222 C   0  0  1  0  0  0  0  0  0  0  0  0
    9.0465  -14.7303   26.0783 N   0  0  0  0  0  0  0  0  0  0  0  0
    9.0532  -15.7806   25.0742 C   0  0  0  0  0  0  0  0  0  0  0  0
    9.1246  -15.4052   27.4063 O   0  0  0  0  0  0  0  0  0  0  0  0
    9.3665  -14.7158   28.5876 O   0  0  0  0  0  0  0  0  0  0  0  0
  2  1  1  6
  3  2  1  0
  3  4  1  0
  4  5  2  0
  4  8  1  0
  5  6  1  0
  6  7  1  0
  8  7  2  0
  9  2  1  0
 10  9  2  0
 11 12  1  0
 12 14  1  0
 12 13  2  0
 14 15  1  0
 16 17  1  0
 16 15  1  0
 18 17  1  1
 18 19  1  0
 19  9  1  0
 20 18  1  0
 21 20  2  0
 23 25  1  0
 23 22  1  1
 24 23  1  0
 25 26  1  1
 26 20  1  0
 27 25  1  0
 27 28  1  0
 29 27  2  0
M  END
$$$$
