HRT.pdb
     RDKit          3D

 29 29  0  0  1  0  0  0  0  0999 V2000
    8.3432  -13.7787   25.1296 N   0  0  0  0  0  0  0  0  0  0  0  0
    7.3800  -14.8465   25.0236 C   0  0  1  0  0  0  0  0  0  0  0  0
    6.0456  -14.4888   25.6095 C   0  0  0  0  0  0  0  0  0  0  0  0
    6.2405  -13.2788   26.4598 C   0  0  0  0  0  0  0  0  0  0  0  0
    6.0429  -11.9661   26.0870 C   0  0  0  0  0  0  0  0  0  0  0  0
    6.3249  -11.1711   27.1333 N   0  0  0  0  0  0  0  0  0  0  0  0
    6.7013  -11.9526   28.1744 C   0  0  0  0  0  0  0  0  0  0  0  0
    6.6449  -13.2287   27.7497 N   0  0  0  0  0  0  0  0  0  0  0  0
    7.3288  -15.3420   23.6528 C   0  0  0  0  0  0  0  0  0  0  0  0
    6.7660  -16.4457   23.4356 O   0  0  0  0  0  0  0  0  0  0  0  0
    6.7786  -14.1815   15.1298 N   0  0  0  0  0  0  0  0  0  0  0  0
    8.0356  -14.2601   15.7572 C   0  0  0  0  0  0  0  0  0  0  0  0
    9.1131  -14.5535   15.1157 N   0  0  0  0  0  0  0  0  0  0  0  0
    8.1211  -14.0064   17.1513 N   0  0  0  0  0  0  0  0  0  0  0  0
    9.3865  -14.1086   17.8324 C   0  0  0  0  0  0  0  0  0  0  0  0
    9.2901  -15.0514   19.0181 C   0  0  0  0  0  0  0  0  0  0  0  0
    8.5477  -14.4289   20.1741 C   0  0  0  0  0  0  0  0  0  0  0  0
    8.4044  -15.3411   21.3499 C   0  0  2  0  0  0  0  0  0  0  0  0
    7.8678  -14.6774   22.5203 N   0  0  0  0  0  0  0  0  0  0  0  0
    9.7068  -16.0115   21.6895 C   0  0  0  0  0  0  0  0  0  0  0  0
   10.6125  -15.3163   22.2139 O   0  0  0  0  0  0  0  0  0  0  0  0
   10.0323  -14.6160   15.5737 C   0  0  0  0  0  0  0  0  0  0  0  0
   10.1414  -19.8631   23.0633 C   0  0  2  0  0  0  0  0  0  0  0  0
   10.8903  -19.5293   21.8008 O   0  0  0  0  0  0  0  0  0  0  0  0
   10.1383  -19.8912   20.6886 C   0  0  2  0  0  0  0  0  0  0  0  0
   11.2154  -18.0301   21.7458 N   0  0  0  0  0  0  0  0  0  0  0  0
    9.9565  -17.3674   21.4501 C   0  0  0  0  0  0  0  0  0  0  0  0
   12.0981  -17.8234   20.5611 O   0  0  0  0  0  0  0  0  0  0  0  0
   13.4830  -17.9054   20.6312 O   0  0  0  0  0  0  0  0  0  0  0  0
  2  1  1  6
  3  2  1  0
  3  4  1  0
  4  5  2  0
  4  8  1  0
  5  6  1  0
  6  7  1  0
  8  7  2  0
  9  2  1  0
 10  9  2  0
 11 12  1  0
 12 14  1  0
 12 13  2  0
 14 15  1  0
 16 17  1  0
 16 15  1  0
 18 17  1  6
 18 19  1  0
 19  9  1  0
 20 18  1  0
 21 20  2  0
 23 25  1  0
 23 22  1  1
 24 23  1  0
 25 26  1  6
 26 20  1  0
 27 25  1  0
 27 28  1  0
 29 27  2  0
M  END
$$$$
