HRT.pdb
     RDKit          3D

 29 29  0  0  1  0  0  0  0  0999 V2000
    8.6421  -16.4662   19.5737 N   0  0  0  0  0  0  0  0  0  0  0  0
    8.3388  -15.2955   20.3591 C   0  0  1  0  0  0  0  0  0  0  0  0
    7.2222  -14.4774   19.7795 C   0  0  0  0  0  0  0  0  0  0  0  0
    7.6628  -14.0095   18.4334 C   0  0  0  0  0  0  0  0  0  0  0  0
    8.3547  -12.8520   18.1463 C   0  0  0  0  0  0  0  0  0  0  0  0
    8.5637  -12.7893   16.8201 N   0  0  0  0  0  0  0  0  0  0  0  0
    8.0164  -13.8896   16.2491 C   0  0  0  0  0  0  0  0  0  0  0  0
    7.4738  -14.6199   17.2411 N   0  0  0  0  0  0  0  0  0  0  0  0
    8.1599  -15.6628   21.7592 C   0  0  0  0  0  0  0  0  0  0  0  0
    7.0023  -15.9468   22.1607 O   0  0  0  0  0  0  0  0  0  0  0  0
   12.8217  -20.3449   27.0446 N   0  0  0  0  0  0  0  0  0  0  0  0
   11.8829  -20.5388   26.0144 C   0  0  0  0  0  0  0  0  0  0  0  0
   11.8920  -21.5793   25.2555 N   0  0  0  0  0  0  0  0  0  0  0  0
   10.8867  -19.5500   25.8022 N   0  0  0  0  0  0  0  0  0  0  0  0
   10.8808  -18.3435   26.5897 C   0  0  0  0  0  0  0  0  0  0  0  0
    9.8170  -17.3792   26.0972 C   0  0  0  0  0  0  0  0  0  0  0  0
    9.9522  -17.0964   24.6218 C   0  0  0  0  0  0  0  0  0  0  0  0
    9.0004  -16.0559   24.1254 C   0  0  2  0  0  0  0  0  0  0  0  0
    9.1954  -15.7296   22.7278 N   0  0  0  0  0  0  0  0  0  0  0  0
    9.0647  -14.8068   24.9601 C   0  0  0  0  0  0  0  0  0  0  0  0
   10.1277  -14.1372   24.9444 O   0  0  0  0  0  0  0  0  0  0  0  0
   11.2111  -21.7191   24.4970 C   0  0  0  0  0  0  0  0  0  0  0  0
    6.5139  -11.8292   25.1084 C   0  0  2  0  0  0  0  0  0  0  0  0
    6.6555  -12.5175   26.4397 O   0  0  0  0  0  0  0  0  0  0  0  0
    5.6705  -13.4885   26.5832 C   0  0  2  0  0  0  0  0  0  0  0  0
    8.0439  -13.1589   26.5714 N   0  0  0  0  0  0  0  0  0  0  0  0
    8.0009  -14.3569   25.7501 C   0  0  0  0  0  0  0  0  0  0  0  0
    8.1768  -13.6127   27.9862 O   0  0  0  0  0  0  0  0  0  0  0  0
    8.3085  -12.7298   29.0504 O   0  0  0  0  0  0  0  0  0  0  0  0
  2  1  1  6
  3  2  1  0
  3  4  1  0
  4  5  2  0
  4  8  1  0
  5  6  1  0
  6  7  1  0
  8  7  2  0
  9  2  1  0
 10  9  2  0
 11 12  1  0
 12 14  1  0
 12 13  2  0
 14 15  1  0
 16 17  1  0
 16 15  1  0
 18 17  1  1
 18 19  1  0
 19  9  1  0
 20 18  1  0
 21 20  2  0
 23 25  1  0
 23 22  1  1
 24 23  1  0
 25 26  1  1
 26 20  1  0
 27 25  1  0
 27 28  1  0
 29 27  2  0
M  END
$$$$
