HRT.pdb
     RDKit          3D

 29 29  0  0  1  0  0  0  0  0999 V2000
    8.1057  -16.5550   20.0204 N   0  0  0  0  0  0  0  0  0  0  0  0
    7.7808  -15.2902   20.6319 C   0  0  1  0  0  0  0  0  0  0  0  0
    6.8219  -14.4759   19.8139 C   0  0  0  0  0  0  0  0  0  0  0  0
    7.4427  -14.2671   18.4737 C   0  0  0  0  0  0  0  0  0  0  0  0
    8.4286  -13.3585   18.1520 C   0  0  0  0  0  0  0  0  0  0  0  0
    8.7189  -13.4782   16.8451 N   0  0  0  0  0  0  0  0  0  0  0  0
    7.9343  -14.4506   16.3207 C   0  0  0  0  0  0  0  0  0  0  0  0
    7.1657  -14.9194   17.3214 N   0  0  0  0  0  0  0  0  0  0  0  0
    7.3775  -15.4920   22.0189 C   0  0  0  0  0  0  0  0  0  0  0  0
    6.1992  -15.2005   22.3484 O   0  0  0  0  0  0  0  0  0  0  0  0
    8.4015  -22.5410   26.2253 N   0  0  0  0  0  0  0  0  0  0  0  0
    7.2769  -22.3427   25.4032 C   0  0  0  0  0  0  0  0  0  0  0  0
    6.5128  -23.3097   25.0294 N   0  0  0  0  0  0  0  0  0  0  0  0
    6.9714  -21.0265   24.9682 N   0  0  0  0  0  0  0  0  0  0  0  0
    7.8160  -19.9219   25.3455 C   0  0  0  0  0  0  0  0  0  0  0  0
    7.3509  -18.6343   24.6899 C   0  0  0  0  0  0  0  0  0  0  0  0
    8.2650  -17.4776   25.0083 C   0  0  0  0  0  0  0  0  0  0  0  0
    7.8055  -16.1786   24.4283 C   0  0  2  0  0  0  0  0  0  0  0  0
    8.2118  -15.9978   23.0498 N   0  0  0  0  0  0  0  0  0  0  0  0
    8.2643  -15.0114   25.2581 C   0  0  0  0  0  0  0  0  0  0  0  0
    9.4110  -14.5453   25.0429 O   0  0  0  0  0  0  0  0  0  0  0  0
    5.6640  -23.1610   24.4673 C   0  0  0  0  0  0  0  0  0  0  0  0
    6.8173  -11.2524   28.1044 C   0  0  1  0  0  0  0  0  0  0  0  0
    6.5620  -12.4586   27.2408 O   0  0  0  0  0  0  0  0  0  0  0  0
    6.0178  -12.0679   26.0223 C   0  0  1  0  0  0  0  0  0  0  0  0
    7.8623  -13.2396   27.0053 N   0  0  0  0  0  0  0  0  0  0  0  0
    7.4776  -14.4226   26.2543 C   0  0  0  0  0  0  0  0  0  0  0  0
    8.3297  -13.7119   28.3408 O   0  0  0  0  0  0  0  0  0  0  0  0
    8.8952  -12.8629   29.2836 O   0  0  0  0  0  0  0  0  0  0  0  0
  2  1  1  6
  3  2  1  0
  3  4  1  0
  4  5  2  0
  4  8  1  0
  5  6  1  0
  6  7  1  0
  8  7  2  0
  9  2  1  0
 10  9  2  0
 11 12  1  0
 12 14  1  0
 12 13  2  0
 14 15  1  0
 16 17  1  0
 16 15  1  0
 18 17  1  1
 18 19  1  0
 19  9  1  0
 20 18  1  0
 21 20  2  0
 23 25  1  0
 23 22  1  1
 24 23  1  0
 25 26  1  1
 26 20  1  0
 27 25  1  0
 27 28  1  0
 29 27  2  0
M  END
$$$$
