HRT.pdb
     RDKit          3D

 29 29  0  0  1  0  0  0  0  0999 V2000
    5.6934  -14.7990   20.3818 N   0  0  0  0  0  0  0  0  0  0  0  0
    6.8735  -15.0977   21.1547 C   0  0  1  0  0  0  0  0  0  0  0  0
    7.6903  -13.8782   21.4673 C   0  0  0  0  0  0  0  0  0  0  0  0
    8.1583  -13.3090   20.1704 C   0  0  0  0  0  0  0  0  0  0  0  0
    7.9290  -13.8228   18.9116 C   0  0  0  0  0  0  0  0  0  0  0  0
    8.5140  -13.0228   18.0037 N   0  0  0  0  0  0  0  0  0  0  0  0
    9.1165  -12.0014   18.6595 C   0  0  0  0  0  0  0  0  0  0  0  0
    8.8915  -12.1895   19.9732 N   0  0  0  0  0  0  0  0  0  0  0  0
    6.5216  -15.9076   22.3155 C   0  0  0  0  0  0  0  0  0  0  0  0
    5.7462  -15.4166   23.1756 O   0  0  0  0  0  0  0  0  0  0  0  0
    2.5379  -22.5703   21.7651 N   0  0  0  0  0  0  0  0  0  0  0  0
    3.3810  -21.8555   20.8943 C   0  0  0  0  0  0  0  0  0  0  0  0
    3.5874  -22.2191   19.6761 N   0  0  0  0  0  0  0  0  0  0  0  0
    4.0299  -20.6884   21.3757 N   0  0  0  0  0  0  0  0  0  0  0  0
    3.7791  -20.2169   22.7138 C   0  0  0  0  0  0  0  0  0  0  0  0
    4.5461  -18.9367   22.9910 C   0  0  0  0  0  0  0  0  0  0  0  0
    5.9228  -19.2127   23.5419 C   0  0  0  0  0  0  0  0  0  0  0  0
    6.7284  -17.9757   23.7785 C   0  0  2  0  0  0  0  0  0  0  0  0
    6.9850  -17.2256   22.5662 N   0  0  0  0  0  0  0  0  0  0  0  0
    8.0237  -18.2864   24.4761 C   0  0  0  0  0  0  0  0  0  0  0  0
    9.0871  -18.2178   23.8103 O   0  0  0  0  0  0  0  0  0  0  0  0
    4.2068  -21.7000   19.0393 C   0  0  0  0  0  0  0  0  0  0  0  0
    8.5767  -16.5519   27.5133 C   0  0  2  0  0  0  0  0  0  0  0  0
    9.7362  -17.2931   26.9032 O   0  0  0  0  0  0  0  0  0  0  0  0
   10.8209  -17.2840   27.7733 C   0  0  1  0  0  0  0  0  0  0  0  0
    9.3410  -18.7400   26.5767 N   0  0  0  0  0  0  0  0  0  0  0  0
    8.1004  -18.6468   25.8260 C   0  0  0  0  0  0  0  0  0  0  0  0
    9.0101  -19.3997   27.8730 O   0  0  0  0  0  0  0  0  0  0  0  0
    7.7126  -19.7388   28.2351 O   0  0  0  0  0  0  0  0  0  0  0  0
  2  1  1  1
  3  2  1  0
  3  4  1  0
  4  5  2  0
  4  8  1  0
  5  6  1  0
  6  7  1  0
  8  7  2  0
  9  2  1  0
 10  9  2  0
 11 12  1  0
 12 14  1  0
 12 13  2  0
 14 15  1  0
 16 17  1  0
 16 15  1  0
 18 17  1  6
 18 19  1  0
 19  9  1  0
 20 18  1  0
 21 20  2  0
 23 25  1  0
 23 22  1  6
 24 23  1  0
 25 26  1  6
 26 20  1  0
 27 25  1  0
 27 28  1  0
 29 27  2  0
M  END
$$$$
