HRT.pdb
     RDKit          3D

 29 29  0  0  1  0  0  0  0  0999 V2000
   11.7564  -19.4562   17.3341 N   0  0  0  0  0  0  0  0  0  0  0  0
   11.8221  -19.4647   18.7745 C   0  0  1  0  0  0  0  0  0  0  0  0
   13.0986  -20.0561   19.2968 C   0  0  0  0  0  0  0  0  0  0  0  0
   13.0663  -21.5184   19.0043 C   0  0  0  0  0  0  0  0  0  0  0  0
   12.0165  -22.3834   19.2295 C   0  0  0  0  0  0  0  0  0  0  0  0
   12.3774  -23.6159   18.8330 N   0  0  0  0  0  0  0  0  0  0  0  0
   13.6443  -23.5571   18.3558 C   0  0  0  0  0  0  0  0  0  0  0  0
   14.0482  -22.2778   18.4666 N   0  0  0  0  0  0  0  0  0  0  0  0
   11.5061  -18.1410   19.2993 C   0  0  0  0  0  0  0  0  0  0  0  0
   12.2034  -17.1648   18.9215 O   0  0  0  0  0  0  0  0  0  0  0  0
    7.4859  -13.9195   16.4328 N   0  0  0  0  0  0  0  0  0  0  0  0
    7.1957  -13.6156   17.7757 C   0  0  0  0  0  0  0  0  0  0  0  0
    6.7682  -12.4591   18.1476 N   0  0  0  0  0  0  0  0  0  0  0  0
    7.3808  -14.6218   18.7598 N   0  0  0  0  0  0  0  0  0  0  0  0
    7.8820  -15.9200   18.3866 C   0  0  0  0  0  0  0  0  0  0  0  0
    7.8433  -16.8760   19.5649 C   0  0  0  0  0  0  0  0  0  0  0  0
    8.6031  -16.3386   20.7519 C   0  0  0  0  0  0  0  0  0  0  0  0
   10.0831  -16.5193   20.6428 C   0  0  2  0  0  0  0  0  0  0  0  0
   10.4619  -17.8506   20.2158 N   0  0  0  0  0  0  0  0  0  0  0  0
   10.7770  -16.1746   21.9316 C   0  0  0  0  0  0  0  0  0  0  0  0
   10.6069  -15.0243   22.4074 O   0  0  0  0  0  0  0  0  0  0  0  0
    6.6129  -12.2159   19.1352 C   0  0  0  0  0  0  0  0  0  0  0  0
   10.4311  -17.5435   25.3331 C   0  0  2  0  0  0  0  0  0  0  0  0
   11.8372  -17.8181   24.8710 O   0  0  0  0  0  0  0  0  0  0  0  0
   11.9132  -19.0811   24.2944 C   0  0  2  0  0  0  0  0  0  0  0  0
   12.2915  -16.7550   23.8612 N   0  0  0  0  0  0  0  0  0  0  0  0
   11.5998  -17.0708   22.6230 C   0  0  0  0  0  0  0  0  0  0  0  0
   13.7438  -16.9882   23.6133 O   0  0  0  0  0  0  0  0  0  0  0  0
   14.7300  -16.6244   24.5213 O   0  0  0  0  0  0  0  0  0  0  0  0
  2  1  1  6
  3  2  1  0
  3  4  1  0
  4  5  2  0
  4  8  1  0
  5  6  1  0
  6  7  1  0
  8  7  2  0
  9  2  1  0
 10  9  2  0
 11 12  1  0
 12 14  1  0
 12 13  2  0
 14 15  1  0
 16 17  1  0
 16 15  1  0
 18 17  1  1
 18 19  1  0
 19  9  1  0
 20 18  1  0
 21 20  2  0
 23 25  1  0
 23 22  1  1
 24 23  1  0
 25 26  1  1
 26 20  1  0
 27 25  1  0
 27 28  1  0
 29 27  2  0
M  END
$$$$
