HRT.pdb
     RDKit          3D

 29 29  0  0  1  0  0  0  0  0999 V2000
    7.8867  -16.8375   19.4011 N   0  0  0  0  0  0  0  0  0  0  0  0
    8.1721  -15.6133   20.1075 C   0  0  1  0  0  0  0  0  0  0  0  0
    7.3857  -14.4445   19.5905 C   0  0  0  0  0  0  0  0  0  0  0  0
    7.8052  -14.2131   18.1778 C   0  0  0  0  0  0  0  0  0  0  0  0
    8.7400  -14.9333   17.4647 C   0  0  0  0  0  0  0  0  0  0  0  0
    8.8349  -14.4156   16.2280 N   0  0  0  0  0  0  0  0  0  0  0  0
    7.9749  -13.3726   16.1344 C   0  0  0  0  0  0  0  0  0  0  0  0
    7.3577  -13.2626   17.3255 N   0  0  0  0  0  0  0  0  0  0  0  0
    8.0673  -15.8278   21.5463 C   0  0  0  0  0  0  0  0  0  0  0  0
    6.9364  -16.0861   22.0325 O   0  0  0  0  0  0  0  0  0  0  0  0
   13.5511  -19.6640   22.5476 N   0  0  0  0  0  0  0  0  0  0  0  0
   12.4830  -20.5662   22.3888 C   0  0  0  0  0  0  0  0  0  0  0  0
   12.5249  -21.5504   21.5592 N   0  0  0  0  0  0  0  0  0  0  0  0
   11.3134  -20.3859   23.1727 N   0  0  0  0  0  0  0  0  0  0  0  0
   11.1900  -19.2435   24.0419 C   0  0  0  0  0  0  0  0  0  0  0  0
   10.2206  -18.2266   23.4675 C   0  0  0  0  0  0  0  0  0  0  0  0
   10.0686  -17.0235   24.3645 C   0  0  0  0  0  0  0  0  0  0  0  0
    9.0443  -16.0471   23.8824 C   0  0  2  0  0  0  0  0  0  0  0  0
    9.1482  -15.7699   22.4645 N   0  0  0  0  0  0  0  0  0  0  0  0
    9.0959  -14.7632   24.6636 C   0  0  0  0  0  0  0  0  0  0  0  0
   10.0141  -13.9465   24.4019 O   0  0  0  0  0  0  0  0  0  0  0  0
   11.7388  -22.2017   21.4304 C   0  0  0  0  0  0  0  0  0  0  0  0
    6.4606  -12.0148   25.2521 C   0  0  2  0  0  0  0  0  0  0  0  0
    6.8230  -12.6871   26.5493 O   0  0  0  0  0  0  0  0  0  0  0  0
    5.9270  -13.7150   26.8220 C   0  0  2  0  0  0  0  0  0  0  0  0
    8.2525  -13.2431   26.4889 N   0  0  0  0  0  0  0  0  0  0  0  0
    8.1735  -14.4367   25.6639 C   0  0  0  0  0  0  0  0  0  0  0  0
    8.5978  -13.6961   27.8676 O   0  0  0  0  0  0  0  0  0  0  0  0
    8.8874  -12.8125   28.8995 O   0  0  0  0  0  0  0  0  0  0  0  0
  2  1  1  6
  3  2  1  0
  3  4  1  0
  4  5  2  0
  4  8  1  0
  5  6  1  0
  6  7  1  0
  8  7  2  0
  9  2  1  0
 10  9  2  0
 11 12  1  0
 12 14  1  0
 12 13  2  0
 14 15  1  0
 16 17  1  0
 16 15  1  0
 18 17  1  1
 18 19  1  0
 19  9  1  0
 20 18  1  0
 21 20  2  0
 23 25  1  0
 23 22  1  1
 24 23  1  0
 25 26  1  1
 26 20  1  0
 27 25  1  0
 27 28  1  0
 29 27  2  0
M  END
$$$$
