HRT.pdb
     RDKit          3D

 29 29  0  0  1  0  0  0  0  0999 V2000
    8.0176  -16.9838   19.1634 N   0  0  0  0  0  0  0  0  0  0  0  0
    8.0930  -15.7542   19.9128 C   0  0  1  0  0  0  0  0  0  0  0  0
    7.0985  -14.7289   19.4530 C   0  0  0  0  0  0  0  0  0  0  0  0
    7.5208  -14.2730   18.0969 C   0  0  0  0  0  0  0  0  0  0  0  0
    8.6168  -14.7085   17.3827 C   0  0  0  0  0  0  0  0  0  0  0  0
    8.6540  -14.0588   16.2067 N   0  0  0  0  0  0  0  0  0  0  0  0
    7.5980  -13.2114   16.1532 C   0  0  0  0  0  0  0  0  0  0  0  0
    6.9202  -13.3532   17.3075 N   0  0  0  0  0  0  0  0  0  0  0  0
    8.0588  -16.0355   21.3435 C   0  0  0  0  0  0  0  0  0  0  0  0
    6.9430  -16.2379   21.8876 O   0  0  0  0  0  0  0  0  0  0  0  0
   13.3778  -18.9966   26.0616 N   0  0  0  0  0  0  0  0  0  0  0  0
   12.2169  -19.7756   26.2218 C   0  0  0  0  0  0  0  0  0  0  0  0
   11.9358  -20.3818   27.3228 N   0  0  0  0  0  0  0  0  0  0  0  0
   11.3201  -19.8989   25.1284 N   0  0  0  0  0  0  0  0  0  0  0  0
   11.6318  -19.2901   23.8604 C   0  0  0  0  0  0  0  0  0  0  0  0
   10.4576  -18.4779   23.3450 C   0  0  0  0  0  0  0  0  0  0  0  0
   10.2891  -17.1860   24.1049 C   0  0  0  0  0  0  0  0  0  0  0  0
    9.1461  -16.3540   23.6187 C   0  0  2  0  0  0  0  0  0  0  0  0
    9.1940  -16.1024   22.1930 N   0  0  0  0  0  0  0  0  0  0  0  0
    9.0523  -15.0540   24.3685 C   0  0  0  0  0  0  0  0  0  0  0  0
    9.7759  -14.0986   23.9916 O   0  0  0  0  0  0  0  0  0  0  0  0
   11.0991  -20.9701   27.4345 C   0  0  0  0  0  0  0  0  0  0  0  0
    6.2465  -12.1296   27.0853 C   0  0  2  0  0  0  0  0  0  0  0  0
    6.5359  -13.3597   26.2673 O   0  0  0  0  0  0  0  0  0  0  0  0
    5.9892  -13.2281   24.9956 C   0  0  1  0  0  0  0  0  0  0  0  0
    8.0492  -13.5955   26.1631 N   0  0  0  0  0  0  0  0  0  0  0  0
    8.2007  -14.8591   25.4617 C   0  0  0  0  0  0  0  0  0  0  0  0
    8.5485  -13.8127   27.5518 O   0  0  0  0  0  0  0  0  0  0  0  0
    8.6857  -12.7812   28.4720 O   0  0  0  0  0  0  0  0  0  0  0  0
  2  1  1  6
  3  2  1  0
  3  4  1  0
  4  5  2  0
  4  8  1  0
  5  6  1  0
  6  7  1  0
  8  7  2  0
  9  2  1  0
 10  9  2  0
 11 12  1  0
 12 14  1  0
 12 13  2  0
 14 15  1  0
 16 17  1  0
 16 15  1  0
 18 17  1  1
 18 19  1  0
 19  9  1  0
 20 18  1  0
 21 20  2  0
 23 25  1  0
 23 22  1  1
 24 23  1  0
 25 26  1  1
 26 20  1  0
 27 25  1  0
 27 28  1  0
 29 27  2  0
M  END
$$$$
