HRT.pdb
     RDKit          3D

 29 29  0  0  1  0  0  0  0  0999 V2000
    6.8013  -16.2231   20.6115 N   0  0  0  0  0  0  0  0  0  0  0  0
    7.3608  -15.7924   21.8688 C   0  0  1  0  0  0  0  0  0  0  0  0
    7.4150  -14.2987   22.0021 C   0  0  0  0  0  0  0  0  0  0  0  0
    8.1102  -13.7670   20.7941 C   0  0  0  0  0  0  0  0  0  0  0  0
    7.5567  -12.9947   19.7949 C   0  0  0  0  0  0  0  0  0  0  0  0
    8.5058  -12.7190   18.8840 N   0  0  0  0  0  0  0  0  0  0  0  0
    9.6623  -13.3023   19.2822 C   0  0  0  0  0  0  0  0  0  0  0  0
    9.4057  -13.9343   20.4426 N   0  0  0  0  0  0  0  0  0  0  0  0
    6.6995  -16.4775   22.9735 C   0  0  0  0  0  0  0  0  0  0  0  0
    5.8887  -15.8275   23.6821 O   0  0  0  0  0  0  0  0  0  0  0  0
    1.3901  -20.7588   22.3273 N   0  0  0  0  0  0  0  0  0  0  0  0
    1.7186  -19.9509   21.2230 C   0  0  0  0  0  0  0  0  0  0  0  0
    0.8271  -19.4631   20.4318 N   0  0  0  0  0  0  0  0  0  0  0  0
    3.0851  -19.6615   20.9699 N   0  0  0  0  0  0  0  0  0  0  0  0
    4.1068  -20.1348   21.8687 C   0  0  0  0  0  0  0  0  0  0  0  0
    4.2384  -19.2185   23.0716 C   0  0  0  0  0  0  0  0  0  0  0  0
    5.3625  -19.6431   23.9832 C   0  0  0  0  0  0  0  0  0  0  0  0
    6.2300  -18.5092   24.4268 C   0  0  2  0  0  0  0  0  0  0  0  0
    6.8927  -17.8386   23.3272 N   0  0  0  0  0  0  0  0  0  0  0  0
    7.2434  -18.9556   25.4441 C   0  0  0  0  0  0  0  0  0  0  0  0
    6.8385  -19.6129   26.4354 O   0  0  0  0  0  0  0  0  0  0  0  0
    1.0626  -18.8440   19.6445 C   0  0  0  0  0  0  0  0  0  0  0  0
   10.4913  -20.7664   24.5438 C   0  0  2  0  0  0  0  0  0  0  0  0
   10.8188  -19.5627   25.3863 O   0  0  0  0  0  0  0  0  0  0  0  0
   11.1802  -18.4939   24.5735 C   0  0  2  0  0  0  0  0  0  0  0  0
    9.6186  -19.1717   26.2598 N   0  0  0  0  0  0  0  0  0  0  0  0
    8.6102  -18.6747   25.3392 C   0  0  0  0  0  0  0  0  0  0  0  0
   10.0504  -18.0110   27.0914 O   0  0  0  0  0  0  0  0  0  0  0  0
   10.9130  -18.1395   28.1725 O   0  0  0  0  0  0  0  0  0  0  0  0
  2  1  1  6
  3  2  1  0
  3  4  1  0
  4  5  2  0
  4  8  1  0
  5  6  1  0
  6  7  1  0
  8  7  2  0
  9  2  1  0
 10  9  2  0
 11 12  1  0
 12 14  1  0
 12 13  2  0
 14 15  1  0
 16 17  1  0
 16 15  1  0
 18 17  1  6
 18 19  1  0
 19  9  1  0
 20 18  1  0
 21 20  2  0
 23 25  1  0
 23 22  1  1
 24 23  1  0
 25 26  1  1
 26 20  1  0
 27 25  1  0
 27 28  1  0
 29 27  2  0
M  END
$$$$
