MNM.pdb
     RDKit          3D

 25 24  0  0  1  0  0  0  0  0999 V2000
   29.0999  -17.8976  -16.2642 C   0  0  0  0  0  0  0  0  0  0  0  0
   27.8422  -18.8945  -17.0654 S   0  0  0  0  0  0  0  0  0  0  0  0
   27.9777  -20.6217  -16.7120 C   0  0  0  0  0  0  0  0  0  0  0  0
   29.2953  -21.2696  -16.8991 C   0  0  0  0  0  0  0  0  0  0  0  0
   29.3272  -22.4510  -17.7576 C   0  0  2  0  0  0  0  0  0  0  0  0
   28.4786  -23.5443  -17.4470 N   0  0  0  0  0  0  0  0  0  0  0  0
   30.7258  -23.0126  -17.9126 C   0  0  0  0  0  0  0  0  0  0  0  0
   31.7180  -22.3815  -17.4666 O   0  0  0  0  0  0  0  0  0  0  0  0
   33.3803  -25.6268  -15.8152 N   0  0  0  0  0  0  0  0  0  0  0  0
   31.9874  -25.7038  -15.5445 C   0  0  0  0  0  0  0  0  0  0  0  0
   31.6171  -25.8062  -14.3603 O   0  0  0  0  0  0  0  0  0  0  0  0
   31.0240  -25.6617  -16.6547 C   0  0  0  0  0  0  0  0  0  0  0  0
   31.6968  -25.3605  -17.9643 C   0  0  2  0  0  0  0  0  0  0  0  0
   30.9438  -24.2499  -18.5572 N   0  0  0  0  0  0  0  0  0  0  0  0
   31.6635  -26.5140  -18.8854 C   0  0  0  0  0  0  0  0  0  0  0  0
   30.5742  -26.7910  -19.5029 O   0  0  0  0  0  0  0  0  0  0  0  0
   35.7818  -31.9717  -20.6957 C   0  0  0  0  0  0  0  0  0  0  0  0
   35.5882  -30.6905  -21.9678 S   0  0  0  0  0  0  0  0  0  0  0  0
   33.9685  -29.8799  -21.7053 C   0  0  0  0  0  0  0  0  0  0  0  0
   34.0276  -29.0495  -20.4321 C   0  0  0  0  0  0  0  0  0  0  0  0
   32.6807  -28.3846  -20.2204 C   0  0  2  0  0  0  0  0  0  0  0  0
   32.7521  -27.3787  -19.1746 N   0  0  0  0  0  0  0  0  0  0  0  0
   31.6032  -29.3649  -20.0453 C   0  0  0  0  0  0  0  0  0  0  0  0
   31.3022  -29.7833  -18.9144 O   0  0  0  0  0  0  0  0  0  0  0  0
   30.9180  -29.8258  -21.1480 O   0  0  0  0  0  0  0  0  0  0  0  0
  1  2  1  0
  3  2  1  0
  4  3  1  0
  5  4  1  0
  5  6  1  1
  7  8  2  0
  7  5  1  0
  9 10  1  0
 10 12  1  0
 11 10  2  0
 13 12  1  1
 13 14  1  0
 14  7  1  0
 15 13  1  0
 15 16  2  0
 18 17  1  0
 19 20  1  0
 19 18  1  0
 21 22  1  0
 21 20  1  1
 22 15  1  0
 23 21  1  0
 24 23  2  0
 25 23  1  0
M  END
$$$$
