MNM.pdb
     RDKit          3D

 25 24  0  0  1  0  0  0  0  0999 V2000
   29.3918  -15.7832  -16.2508 C   0  0  0  0  0  0  0  0  0  0  0  0
   29.0990  -16.8200  -17.6848 S   0  0  0  0  0  0  0  0  0  0  0  0
   27.5616  -17.6916  -17.6250 C   0  0  0  0  0  0  0  0  0  0  0  0
   26.8343  -17.7332  -16.3367 C   0  0  0  0  0  0  0  0  0  0  0  0
   27.2035  -18.8014  -15.4113 C   0  0  2  0  0  0  0  0  0  0  0  0
   27.1729  -20.1433  -15.8699 N   0  0  0  0  0  0  0  0  0  0  0  0
   26.3961  -18.7581  -14.1301 C   0  0  0  0  0  0  0  0  0  0  0  0
   26.0940  -17.6558  -13.6052 O   0  0  0  0  0  0  0  0  0  0  0  0
   22.2168  -20.2264  -14.2587 N   0  0  0  0  0  0  0  0  0  0  0  0
   22.7395  -20.2151  -12.9374 C   0  0  0  0  0  0  0  0  0  0  0  0
   22.1168  -19.5923  -12.0574 O   0  0  0  0  0  0  0  0  0  0  0  0
   23.9896  -20.9302  -12.6401 C   0  0  0  0  0  0  0  0  0  0  0  0
   25.1087  -19.9821  -12.3128 C   0  0  2  0  0  0  0  0  0  0  0  0
   25.9675  -19.9478  -13.5016 N   0  0  0  0  0  0  0  0  0  0  0  0
   25.9034  -20.4378  -11.1547 C   0  0  0  0  0  0  0  0  0  0  0  0
   26.7307  -21.4060  -11.3052 O   0  0  0  0  0  0  0  0  0  0  0  0
   28.5130  -17.8922   -6.0581 C   0  0  0  0  0  0  0  0  0  0  0  0
   28.3525  -19.5429   -5.3187 S   0  0  0  0  0  0  0  0  0  0  0  0
   27.4571  -20.6060   -6.5093 C   0  0  0  0  0  0  0  0  0  0  0  0
   27.0874  -19.7817   -7.7331 C   0  0  0  0  0  0  0  0  0  0  0  0
   26.2775  -20.6485   -8.6786 C   0  0  2  0  0  0  0  0  0  0  0  0
   25.8503  -19.8938   -9.8442 N   0  0  0  0  0  0  0  0  0  0  0  0
   25.1957  -21.3577   -7.9864 C   0  0  0  0  0  0  0  0  0  0  0  0
   24.0277  -20.9354   -8.0319 O   0  0  0  0  0  0  0  0  0  0  0  0
   25.4792  -22.5050   -7.2785 O   0  0  0  0  0  0  0  0  0  0  0  0
  1  2  1  0
  3  2  1  0
  4  3  1  0
  5  4  1  0
  5  6  1  6
  7  8  2  0
  7  5  1  0
  9 10  1  0
 10 12  1  0
 11 10  2  0
 13 12  1  6
 13 14  1  0
 14  7  1  0
 15 13  1  0
 15 16  2  0
 18 17  1  0
 19 20  1  0
 19 18  1  0
 21 22  1  0
 21 20  1  1
 22 15  1  0
 23 21  1  0
 24 23  2  0
 25 23  1  0
M  END
$$$$
