MNM.pdb
     RDKit          3D

 25 24  0  0  1  0  0  0  0  0999 V2000
   29.1526  -18.4830   -5.5546 C   0  0  0  0  0  0  0  0  0  0  0  0
   28.0678  -19.7416   -4.8790 S   0  0  0  0  0  0  0  0  0  0  0  0
   26.8230  -20.2842   -6.0116 C   0  0  0  0  0  0  0  0  0  0  0  0
   26.8667  -19.7636   -7.3964 C   0  0  0  0  0  0  0  0  0  0  0  0
   25.7569  -20.1355   -8.2703 C   0  0  2  0  0  0  0  0  0  0  0  0
   25.2559  -21.4612   -8.2117 N   0  0  0  0  0  0  0  0  0  0  0  0
   26.0481  -19.8415   -9.7277 C   0  0  0  0  0  0  0  0  0  0  0  0
   26.4491  -18.7025  -10.0794 O   0  0  0  0  0  0  0  0  0  0  0  0
   28.7060  -20.0187  -12.9695 N   0  0  0  0  0  0  0  0  0  0  0  0
   28.3633  -21.3976  -12.9479 C   0  0  0  0  0  0  0  0  0  0  0  0
   29.2335  -22.2311  -13.2610 O   0  0  0  0  0  0  0  0  0  0  0  0
   27.0047  -21.8067  -12.5613 C   0  0  0  0  0  0  0  0  0  0  0  0
   26.1682  -20.6315  -12.1401 C   0  0  2  0  0  0  0  0  0  0  0  0
   25.8768  -20.8346  -10.7169 N   0  0  0  0  0  0  0  0  0  0  0  0
   24.8975  -20.5562  -12.8883 C   0  0  0  0  0  0  0  0  0  0  0  0
   23.9514  -21.3721  -12.5993 O   0  0  0  0  0  0  0  0  0  0  0  0
   22.8288  -16.0774  -17.4065 C   0  0  0  0  0  0  0  0  0  0  0  0
   21.3045  -16.6730  -16.6198 S   0  0  0  0  0  0  0  0  0  0  0  0
   21.6583  -18.3082  -15.8779 C   0  0  0  0  0  0  0  0  0  0  0  0
   23.0323  -18.2727  -15.2261 C   0  0  0  0  0  0  0  0  0  0  0  0
   23.3109  -19.6267  -14.6015 C   0  0  2  0  0  0  0  0  0  0  0  0
   24.5991  -19.6382  -13.9297 N   0  0  0  0  0  0  0  0  0  0  0  0
   23.1153  -20.7246  -15.5549 C   0  0  0  0  0  0  0  0  0  0  0  0
   22.0153  -21.2951  -15.6502 O   0  0  0  0  0  0  0  0  0  0  0  0
   24.1637  -21.1263  -16.3531 O   0  0  0  0  0  0  0  0  0  0  0  0
  1  2  1  0
  3  2  1  0
  4  3  1  0
  5  4  1  0
  5  6  1  6
  7  8  2  0
  7  5  1  0
  9 10  1  0
 10 12  1  0
 11 10  2  0
 13 12  1  6
 13 14  1  0
 14  7  1  0
 15 13  1  0
 15 16  2  0
 18 17  1  0
 19 20  1  0
 19 18  1  0
 21 22  1  0
 21 20  1  6
 22 15  1  0
 23 21  1  0
 24 23  2  0
 25 23  1  0
M  END
$$$$
