MNM.pdb
     RDKit          3D

 25 24  0  0  1  0  0  0  0  0999 V2000
   28.5295  -22.2861  -15.5487 C   0  0  0  0  0  0  0  0  0  0  0  0
   26.9189  -22.0996  -14.7815 S   0  0  0  0  0  0  0  0  0  0  0  0
   26.4371  -20.4141  -14.5497 C   0  0  0  0  0  0  0  0  0  0  0  0
   25.1318  -20.1452  -13.9058 C   0  0  0  0  0  0  0  0  0  0  0  0
   24.1569  -21.2328  -13.9246 C   0  0  2  0  0  0  0  0  0  0  0  0
   23.7084  -21.7267  -15.1763 N   0  0  0  0  0  0  0  0  0  0  0  0
   22.9194  -20.9109  -13.1121 C   0  0  0  0  0  0  0  0  0  0  0  0
   23.0242  -20.3916  -11.9715 O   0  0  0  0  0  0  0  0  0  0  0  0
   20.7913  -18.2910  -13.5182 N   0  0  0  0  0  0  0  0  0  0  0  0
   19.7293  -18.9510  -14.1933 C   0  0  0  0  0  0  0  0  0  0  0  0
   19.0784  -18.3142  -15.0424 O   0  0  0  0  0  0  0  0  0  0  0  0
   19.4243  -20.3548  -13.8790 C   0  0  0  0  0  0  0  0  0  0  0  0
   20.3891  -20.9229  -12.8766 C   0  0  2  0  0  0  0  0  0  0  0  0
   21.6289  -21.1853  -13.6154 N   0  0  0  0  0  0  0  0  0  0  0  0
   19.9003  -22.1857  -12.2876 C   0  0  0  0  0  0  0  0  0  0  0  0
   20.0776  -23.2839  -12.9254 O   0  0  0  0  0  0  0  0  0  0  0  0
   17.9617  -26.5624   -6.1316 C   0  0  0  0  0  0  0  0  0  0  0  0
   17.8266  -24.8796   -6.8003 S   0  0  0  0  0  0  0  0  0  0  0  0
   18.3753  -24.9240   -8.5456 C   0  0  0  0  0  0  0  0  0  0  0  0
   18.2813  -23.5240   -9.1332 C   0  0  0  0  0  0  0  0  0  0  0  0
   18.6716  -23.5826  -10.5979 C   0  0  2  0  0  0  0  0  0  0  0  0
   19.2342  -22.3183  -11.0406 N   0  0  0  0  0  0  0  0  0  0  0  0
   17.5812  -24.0880  -11.4394 C   0  0  0  0  0  0  0  0  0  0  0  0
   16.7341  -23.3131  -11.9152 O   0  0  0  0  0  0  0  0  0  0  0  0
   17.4969  -25.4372  -11.7047 O   0  0  0  0  0  0  0  0  0  0  0  0
  1  2  1  0
  3  2  1  0
  4  3  1  0
  5  4  1  0
  5  6  1  6
  7  8  2  0
  7  5  1  0
  9 10  1  0
 10 12  1  0
 11 10  2  0
 13 12  1  6
 13 14  1  0
 14  7  1  0
 15 13  1  0
 15 16  2  0
 18 17  1  0
 19 20  1  0
 19 18  1  0
 21 22  1  0
 21 20  1  1
 22 15  1  0
 23 21  1  0
 24 23  2  0
 25 23  1  0
M  END
$$$$
