MNM.pdb
     RDKit          3D

 25 24  0  0  1  0  0  0  0  0999 V2000
   29.9379  -19.6413  -17.4357 C   0  0  0  0  0  0  0  0  0  0  0  0
   30.2092  -18.4925  -18.7863 S   0  0  0  0  0  0  0  0  0  0  0  0
   29.1099  -17.1076  -18.7681 C   0  0  0  0  0  0  0  0  0  0  0  0
   28.2743  -16.8975  -17.5646 C   0  0  0  0  0  0  0  0  0  0  0  0
   27.1554  -17.8174  -17.3765 C   0  0  2  0  0  0  0  0  0  0  0  0
   26.1920  -17.9417  -18.4101 N   0  0  0  0  0  0  0  0  0  0  0  0
   26.3920  -17.5417  -16.0973 C   0  0  0  0  0  0  0  0  0  0  0  0
   25.7548  -16.4667  -15.9555 O   0  0  0  0  0  0  0  0  0  0  0  0
   24.4142  -20.8532  -14.1938 N   0  0  0  0  0  0  0  0  0  0  0  0
   23.7565  -19.7058  -14.7135 C   0  0  0  0  0  0  0  0  0  0  0  0
   22.8558  -19.8684  -15.5575 O   0  0  0  0  0  0  0  0  0  0  0  0
   24.1483  -18.3664  -14.2497 C   0  0  0  0  0  0  0  0  0  0  0  0
   25.5872  -18.3258  -13.8179 C   0  0  2  0  0  0  0  0  0  0  0  0
   26.3793  -18.4809  -15.0428 N   0  0  0  0  0  0  0  0  0  0  0  0
   25.9193  -19.4211  -12.8849 C   0  0  0  0  0  0  0  0  0  0  0  0
   25.9481  -20.6270  -13.3200 O   0  0  0  0  0  0  0  0  0  0  0  0
   27.5458  -18.8898   -6.6287 C   0  0  0  0  0  0  0  0  0  0  0  0
   27.9152  -20.6590   -6.8035 S   0  0  0  0  0  0  0  0  0  0  0  0
   27.3372  -21.1919   -8.4562 C   0  0  0  0  0  0  0  0  0  0  0  0
   27.0074  -19.9624   -9.2890 C   0  0  0  0  0  0  0  0  0  0  0  0
   26.5500  -20.4127  -10.6635 C   0  0  2  0  0  0  0  0  0  0  0  0
   26.2267  -19.2744  -11.5064 N   0  0  0  0  0  0  0  0  0  0  0  0
   25.4948  -21.4293  -10.5878 C   0  0  0  0  0  0  0  0  0  0  0  0
   24.2988  -21.1142  -10.7091 O   0  0  0  0  0  0  0  0  0  0  0  0
   25.8353  -22.7479  -10.3803 O   0  0  0  0  0  0  0  0  0  0  0  0
  1  2  1  0
  3  2  1  0
  4  3  1  0
  5  4  1  0
  5  6  1  6
  7  8  2  0
  7  5  1  0
  9 10  1  0
 10 12  1  0
 11 10  2  0
 13 12  1  6
 13 14  1  0
 14  7  1  0
 15 13  1  0
 15 16  2  0
 18 17  1  0
 19 20  1  0
 19 18  1  0
 21 22  1  0
 21 20  1  1
 22 15  1  0
 23 21  1  0
 24 23  2  0
 25 23  1  0
M  END
$$$$
