MNM.pdb
     RDKit          3D

 25 24  0  0  1  0  0  0  0  0999 V2000
   21.5730  -12.1119    6.1690 C   0  0  0  0  0  0  0  0  0  0  0  0
   20.2623  -11.7651    4.9945 S   0  0  0  0  0  0  0  0  0  0  0  0
   18.6545  -12.2164    5.5758 C   0  0  0  0  0  0  0  0  0  0  0  0
   18.3662  -13.6536    5.7809 C   0  0  0  0  0  0  0  0  0  0  0  0
   17.0475  -14.1224    5.3624 C   0  0  2  0  0  0  0  0  0  0  0  0
   15.8985  -13.5872    5.9989 N   0  0  0  0  0  0  0  0  0  0  0  0
   16.9239  -15.6308    5.4317 C   0  0  0  0  0  0  0  0  0  0  0  0
   16.6159  -16.1951    6.5126 O   0  0  0  0  0  0  0  0  0  0  0  0
   15.8115  -20.3640    1.9255 N   0  0  0  0  0  0  0  0  0  0  0  0
   16.8219  -19.7735    2.7314 C   0  0  0  0  0  0  0  0  0  0  0  0
   17.6373  -20.5202    3.3039 O   0  0  0  0  0  0  0  0  0  0  0  0
   16.8831  -18.3108    2.8713 C   0  0  0  0  0  0  0  0  0  0  0  0
   17.1122  -17.8972    4.2978 C   0  0  2  0  0  0  0  0  0  0  0  0
   17.1501  -16.4308    4.2903 N   0  0  0  0  0  0  0  0  0  0  0  0
   18.3907  -18.4117    4.8278 C   0  0  0  0  0  0  0  0  0  0  0  0
   19.4760  -17.7804    4.5669 O   0  0  0  0  0  0  0  0  0  0  0  0
   23.5976  -18.1791    9.7822 C   0  0  0  0  0  0  0  0  0  0  0  0
   22.0159  -17.7235    9.0155 S   0  0  0  0  0  0  0  0  0  0  0  0
   21.4954  -19.1083    7.9382 C   0  0  0  0  0  0  0  0  0  0  0  0
   20.2236  -18.7158    7.2018 C   0  0  0  0  0  0  0  0  0  0  0  0
   19.7980  -19.8699    6.3140 C   0  0  2  0  0  0  0  0  0  0  0  0
   18.5513  -19.5721    5.6303 N   0  0  0  0  0  0  0  0  0  0  0  0
   19.8044  -21.1494    7.0320 C   0  0  0  0  0  0  0  0  0  0  0  0
   18.7488  -21.6379    7.4695 O   0  0  0  0  0  0  0  0  0  0  0  0
   20.9949  -21.8159    7.2224 O   0  0  0  0  0  0  0  0  0  0  0  0
  1  2  1  0
  3  2  1  0
  4  3  1  0
  5  4  1  0
  5  6  1  1
  7  8  2  0
  7  5  1  0
  9 10  1  0
 10 12  1  0
 11 10  2  0
 13 12  1  6
 13 14  1  0
 14  7  1  0
 15 13  1  0
 15 16  2  0
 18 17  1  0
 19 20  1  0
 19 18  1  0
 21 22  1  0
 21 20  1  1
 22 15  1  0
 23 21  1  0
 24 23  2  0
 25 23  1  0
M  END
$$$$
