MNM.pdb
     RDKit          3D

 25 24  0  0  1  0  0  0  0  0999 V2000
   32.5387  -22.2590   -9.1033 C   0  0  0  0  0  0  0  0  0  0  0  0
   32.9436  -22.9533  -10.7068 S   0  0  0  0  0  0  0  0  0  0  0  0
   32.4363  -21.9402  -12.0644 C   0  0  0  0  0  0  0  0  0  0  0  0
   31.2041  -21.1349  -11.9101 C   0  0  0  0  0  0  0  0  0  0  0  0
   29.9739  -21.7125  -12.4456 C   0  0  2  0  0  0  0  0  0  0  0  0
   29.8978  -21.9905  -13.8344 N   0  0  0  0  0  0  0  0  0  0  0  0
   28.7513  -20.8888  -12.0962 C   0  0  0  0  0  0  0  0  0  0  0  0
   28.8274  -19.9664  -11.2447 O   0  0  0  0  0  0  0  0  0  0  0  0
   23.7132  -19.5658  -11.8743 N   0  0  0  0  0  0  0  0  0  0  0  0
   23.8943  -20.3869  -13.0199 C   0  0  0  0  0  0  0  0  0  0  0  0
   22.9071  -20.6304  -13.7383 O   0  0  0  0  0  0  0  0  0  0  0  0
   25.2271  -20.9256  -13.3294 C   0  0  0  0  0  0  0  0  0  0  0  0
   26.2503  -20.4955  -12.3162 C   0  0  2  0  0  0  0  0  0  0  0  0
   27.5071  -21.1375  -12.7162 N   0  0  0  0  0  0  0  0  0  0  0  0
   25.8978  -20.9310  -10.9500 C   0  0  0  0  0  0  0  0  0  0  0  0
   25.8415  -22.1849  -10.6876 O   0  0  0  0  0  0  0  0  0  0  0  0
   27.6254  -19.5319   -3.5061 C   0  0  0  0  0  0  0  0  0  0  0  0
   27.5827  -18.8978   -5.2071 S   0  0  0  0  0  0  0  0  0  0  0  0
   26.5938  -20.0622   -6.2149 C   0  0  0  0  0  0  0  0  0  0  0  0
   26.5698  -19.5771   -7.6565 C   0  0  0  0  0  0  0  0  0  0  0  0
   25.7163  -20.5261   -8.4763 C   0  0  2  0  0  0  0  0  0  0  0  0
   25.6088  -20.0762   -9.8536 N   0  0  0  0  0  0  0  0  0  0  0  0
   24.4303  -20.8096   -7.8297 C   0  0  0  0  0  0  0  0  0  0  0  0
   23.3683  -20.3794   -8.3110 O   0  0  0  0  0  0  0  0  0  0  0  0
   24.4010  -21.5618   -6.6759 O   0  0  0  0  0  0  0  0  0  0  0  0
  1  2  1  0
  3  2  1  0
  4  3  1  0
  5  4  1  0
  5  6  1  6
  7  8  2  0
  7  5  1  0
  9 10  1  0
 10 12  1  0
 11 10  2  0
 13 12  1  6
 13 14  1  0
 14  7  1  0
 15 13  1  0
 15 16  2  0
 18 17  1  0
 19 20  1  0
 19 18  1  0
 21 22  1  0
 21 20  1  1
 22 15  1  0
 23 21  1  0
 24 23  2  0
 25 23  1  0
M  END
$$$$
