MNM.pdb
     RDKit          3D

 25 24  0  0  1  0  0  0  0  0999 V2000
   20.5687  -25.5263    0.7529 C   0  0  0  0  0  0  0  0  0  0  0  0
   20.9541  -25.1263    2.4585 S   0  0  0  0  0  0  0  0  0  0  0  0
   20.4050  -23.5186    2.9491 C   0  0  0  0  0  0  0  0  0  0  0  0
   20.5695  -23.1293    4.3675 C   0  0  0  0  0  0  0  0  0  0  0  0
   19.3668  -23.1535    5.1961 C   0  0  2  0  0  0  0  0  0  0  0  0
   18.2712  -22.3284    4.8343 N   0  0  0  0  0  0  0  0  0  0  0  0
   19.6660  -22.8695    6.6539 C   0  0  0  0  0  0  0  0  0  0  0  0
   19.6735  -21.6875    7.0835 O   0  0  0  0  0  0  0  0  0  0  0  0
   18.3777  -24.1951   12.1210 N   0  0  0  0  0  0  0  0  0  0  0  0
   18.9855  -23.4342   11.0861 C   0  0  0  0  0  0  0  0  0  0  0  0
   19.5639  -22.3742   11.3893 O   0  0  0  0  0  0  0  0  0  0  0  0
   18.9196  -23.9083    9.6956 C   0  0  0  0  0  0  0  0  0  0  0  0
   20.2284  -23.7213    8.9812 C   0  0  2  0  0  0  0  0  0  0  0  0
   19.9410  -23.9201    7.5565 N   0  0  0  0  0  0  0  0  0  0  0  0
   21.2429  -24.7040    9.4120 C   0  0  0  0  0  0  0  0  0  0  0  0
   21.1169  -25.9300    9.0579 O   0  0  0  0  0  0  0  0  0  0  0  0
   27.0795  -22.7894   10.5706 C   0  0  0  0  0  0  0  0  0  0  0  0
   26.9772  -24.2397    9.4828 S   0  0  0  0  0  0  0  0  0  0  0  0
   25.2208  -24.7448    9.3854 C   0  0  0  0  0  0  0  0  0  0  0  0
   24.6963  -24.9970   10.7909 C   0  0  0  0  0  0  0  0  0  0  0  0
   23.2600  -25.4759   10.6969 C   0  0  2  0  0  0  0  0  0  0  0  0
   22.3888  -24.4237   10.2022 N   0  0  0  0  0  0  0  0  0  0  0  0
   22.8052  -26.1030   11.9428 C   0  0  0  0  0  0  0  0  0  0  0  0
   23.3711  -27.1160   12.3879 O   0  0  0  0  0  0  0  0  0  0  0  0
   21.7387  -25.5615   12.6262 O   0  0  0  0  0  0  0  0  0  0  0  0
  1  2  1  0
  3  2  1  0
  4  3  1  0
  5  4  1  0
  5  6  1  6
  7  8  2  0
  7  5  1  0
  9 10  1  0
 10 12  1  0
 11 10  2  0
 13 12  1  1
 13 14  1  0
 14  7  1  0
 15 13  1  0
 15 16  2  0
 18 17  1  0
 19 20  1  0
 19 18  1  0
 21 22  1  0
 21 20  1  1
 22 15  1  0
 23 21  1  0
 24 23  2  0
 25 23  1  0
M  END
$$$$
