MNM.pdb
     RDKit          3D

 25 24  0  0  1  0  0  0  0  0999 V2000
   31.4179  -20.8803   -9.4193 C   0  0  0  0  0  0  0  0  0  0  0  0
   31.1935  -22.2210  -10.5896 S   0  0  0  0  0  0  0  0  0  0  0  0
   30.4773  -21.7086  -12.1230 C   0  0  0  0  0  0  0  0  0  0  0  0
   29.5924  -20.5222  -12.1163 C   0  0  0  0  0  0  0  0  0  0  0  0
   28.2604  -20.6965  -12.6901 C   0  0  2  0  0  0  0  0  0  0  0  0
   28.0231  -21.8059  -13.5414 N   0  0  0  0  0  0  0  0  0  0  0  0
   27.7885  -19.4644  -13.4348 C   0  0  0  0  0  0  0  0  0  0  0  0
   28.6054  -18.5648  -13.7589 O   0  0  0  0  0  0  0  0  0  0  0  0
   26.1852  -22.1593  -17.6191 N   0  0  0  0  0  0  0  0  0  0  0  0
   26.3523  -20.8282  -17.1504 C   0  0  0  0  0  0  0  0  0  0  0  0
   26.1783  -19.8903  -17.9505 O   0  0  0  0  0  0  0  0  0  0  0  0
   26.7229  -20.5888  -15.7476 C   0  0  0  0  0  0  0  0  0  0  0  0
   25.8988  -19.4923  -15.1337 C   0  0  2  0  0  0  0  0  0  0  0  0
   26.4289  -19.3009  -13.7793 N   0  0  0  0  0  0  0  0  0  0  0  0
   24.4693  -19.8522  -15.0474 C   0  0  0  0  0  0  0  0  0  0  0  0
   23.5916  -19.0500  -15.5276 O   0  0  0  0  0  0  0  0  0  0  0  0
   26.5497  -21.1702   -9.6159 C   0  0  0  0  0  0  0  0  0  0  0  0
   25.0914  -20.0940   -9.5048 S   0  0  0  0  0  0  0  0  0  0  0  0
   23.8597  -20.6915  -10.7194 C   0  0  0  0  0  0  0  0  0  0  0  0
   24.4459  -20.5813  -12.1188 C   0  0  0  0  0  0  0  0  0  0  0  0
   23.4164  -21.0721  -13.1189 C   0  0  2  0  0  0  0  0  0  0  0  0
   23.9442  -21.0395  -14.4721 N   0  0  0  0  0  0  0  0  0  0  0  0
   22.1241  -20.3966  -12.9565 C   0  0  0  0  0  0  0  0  0  0  0  0
   21.9770  -19.2133  -13.3067 O   0  0  0  0  0  0  0  0  0  0  0  0
   21.0624  -21.0833  -12.4097 O   0  0  0  0  0  0  0  0  0  0  0  0
  1  2  1  0
  3  2  1  0
  4  3  1  0
  5  4  1  0
  5  6  1  6
  7  8  2  0
  7  5  1  0
  9 10  1  0
 10 12  1  0
 11 10  2  0
 13 12  1  1
 13 14  1  0
 14  7  1  0
 15 13  1  0
 15 16  2  0
 18 17  1  0
 19 20  1  0
 19 18  1  0
 21 22  1  0
 21 20  1  1
 22 15  1  0
 23 21  1  0
 24 23  2  0
 25 23  1  0
M  END
$$$$
