MNM.pdb
     RDKit          3D

 25 24  0  0  1  0  0  0  0  0999 V2000
   17.8981  -12.6713  -20.4423 C   0  0  0  0  0  0  0  0  0  0  0  0
   19.6320  -13.1305  -20.4335 S   0  0  0  0  0  0  0  0  0  0  0  0
   20.4450  -12.7935  -18.8998 C   0  0  0  0  0  0  0  0  0  0  0  0
   20.0758  -11.5583  -18.1727 C   0  0  0  0  0  0  0  0  0  0  0  0
   21.1157  -10.5408  -18.0418 C   0  0  2  0  0  0  0  0  0  0  0  0
   22.3189  -10.8762  -17.3698 N   0  0  0  0  0  0  0  0  0  0  0  0
   20.5984   -9.2675  -17.4043 C   0  0  0  0  0  0  0  0  0  0  0  0
   19.5649   -8.7067  -17.8505 O   0  0  0  0  0  0  0  0  0  0  0  0
   19.0057   -8.0134  -13.6528 N   0  0  0  0  0  0  0  0  0  0  0  0
   20.3576   -7.8532  -13.2455 C   0  0  0  0  0  0  0  0  0  0  0  0
   20.6370   -8.0018  -12.0414 O   0  0  0  0  0  0  0  0  0  0  0  0
   21.3862   -7.5190  -14.2421 C   0  0  0  0  0  0  0  0  0  0  0  0
   20.8165   -7.4599  -15.6315 C   0  0  2  0  0  0  0  0  0  0  0  0
   21.2619   -8.6865  -16.3014 N   0  0  0  0  0  0  0  0  0  0  0  0
   21.3096   -6.2901  -16.3857 C   0  0  0  0  0  0  0  0  0  0  0  0
   22.5221   -6.2800  -16.8029 O   0  0  0  0  0  0  0  0  0  0  0  0
   20.6821   -0.4907  -21.5176 C   0  0  0  0  0  0  0  0  0  0  0  0
   19.9163   -1.9517  -20.7584 S   0  0  0  0  0  0  0  0  0  0  0  0
   20.9450   -2.4440  -19.3270 C   0  0  0  0  0  0  0  0  0  0  0  0
   20.2900   -3.6241  -18.6253 C   0  0  0  0  0  0  0  0  0  0  0  0
   21.1357   -4.0092  -17.4262 C   0  0  2  0  0  0  0  0  0  0  0  0
   20.5535   -5.1341  -16.7147 N   0  0  0  0  0  0  0  0  0  0  0  0
   21.4495   -2.8534  -16.5787 C   0  0  0  0  0  0  0  0  0  0  0  0
   20.6696   -2.4934  -15.6806 O   0  0  0  0  0  0  0  0  0  0  0  0
   22.6227   -2.1604  -16.7817 O   0  0  0  0  0  0  0  0  0  0  0  0
  1  2  1  0
  3  2  1  0
  4  3  1  0
  5  4  1  0
  5  6  1  1
  7  8  2  0
  7  5  1  0
  9 10  1  0
 10 12  1  0
 11 10  2  0
 13 12  1  1
 13 14  1  0
 14  7  1  0
 15 13  1  0
 15 16  2  0
 18 17  1  0
 19 20  1  0
 19 18  1  0
 21 22  1  0
 21 20  1  6
 22 15  1  0
 23 21  1  0
 24 23  2  0
 25 23  1  0
M  END
$$$$
