MNM.pdb
     RDKit          3D

 25 24  0  0  1  0  0  0  0  0999 V2000
   30.4324  -16.8452  -16.5051 C   0  0  0  0  0  0  0  0  0  0  0  0
   29.9951  -17.9099  -17.8808 S   0  0  0  0  0  0  0  0  0  0  0  0
   28.2524  -18.1446  -18.0669 C   0  0  0  0  0  0  0  0  0  0  0  0
   27.4378  -18.3141  -16.8428 C   0  0  0  0  0  0  0  0  0  0  0  0
   26.0083  -18.5450  -17.0352 C   0  0  2  0  0  0  0  0  0  0  0  0
   25.2795  -17.6594  -17.8697 N   0  0  0  0  0  0  0  0  0  0  0  0
   25.2566  -18.6279  -15.7225 C   0  0  0  0  0  0  0  0  0  0  0  0
   24.6346  -17.6280  -15.2810 O   0  0  0  0  0  0  0  0  0  0  0  0
   21.9003  -22.1130  -12.5663 N   0  0  0  0  0  0  0  0  0  0  0  0
   22.2740  -20.8067  -12.9827 C   0  0  0  0  0  0  0  0  0  0  0  0
   21.8221  -19.8310  -12.3551 O   0  0  0  0  0  0  0  0  0  0  0  0
   23.1753  -20.6362  -14.1321 C   0  0  0  0  0  0  0  0  0  0  0  0
   24.4753  -19.9984  -13.7301 C   0  0  2  0  0  0  0  0  0  0  0  0
   25.2380  -19.8233  -14.9709 N   0  0  0  0  0  0  0  0  0  0  0  0
   25.2486  -20.8481  -12.8026 C   0  0  0  0  0  0  0  0  0  0  0  0
   24.9524  -22.0914  -12.6978 O   0  0  0  0  0  0  0  0  0  0  0  0
   29.4637  -20.5688   -7.9916 C   0  0  0  0  0  0  0  0  0  0  0  0
   28.4101  -19.1122   -7.7359 S   0  0  0  0  0  0  0  0  0  0  0  0
   26.7346  -19.5173   -8.3504 C   0  0  0  0  0  0  0  0  0  0  0  0
   26.6821  -19.2744   -9.8512 C   0  0  0  0  0  0  0  0  0  0  0  0
   26.3136  -20.5731  -10.5430 C   0  0  2  0  0  0  0  0  0  0  0  0
   26.3295  -20.4194  -11.9876 N   0  0  0  0  0  0  0  0  0  0  0  0
   25.0749  -21.1502  -10.0089 C   0  0  0  0  0  0  0  0  0  0  0  0
   23.9754  -20.6181  -10.2379 O   0  0  0  0  0  0  0  0  0  0  0  0
   25.1328  -22.2952   -9.2451 O   0  0  0  0  0  0  0  0  0  0  0  0
  1  2  1  0
  3  2  1  0
  4  3  1  0
  5  4  1  0
  5  6  1  6
  7  8  2  0
  7  5  1  0
  9 10  1  0
 10 12  1  0
 11 10  2  0
 13 12  1  6
 13 14  1  0
 14  7  1  0
 15 13  1  0
 15 16  2  0
 18 17  1  0
 19 20  1  0
 19 18  1  0
 21 22  1  0
 21 20  1  1
 22 15  1  0
 23 21  1  0
 24 23  2  0
 25 23  1  0
M  END
$$$$
