MNM.pdb
     RDKit          3D

 25 24  0  0  1  0  0  0  0  0999 V2000
   24.3384  -33.7480   -9.7918 C   0  0  0  0  0  0  0  0  0  0  0  0
   25.2760  -32.8837   -8.5303 S   0  0  0  0  0  0  0  0  0  0  0  0
   25.2104  -33.6613   -6.9435 C   0  0  0  0  0  0  0  0  0  0  0  0
   23.9108  -33.6911   -6.2358 C   0  0  0  0  0  0  0  0  0  0  0  0
   23.5371  -32.4839   -5.5032 C   0  0  2  0  0  0  0  0  0  0  0  0
   24.2788  -32.1293   -4.3473 N   0  0  0  0  0  0  0  0  0  0  0  0
   22.0758  -32.4820   -5.1034 C   0  0  0  0  0  0  0  0  0  0  0  0
   21.3737  -33.5146   -5.2534 O   0  0  0  0  0  0  0  0  0  0  0  0
   17.7833  -32.6626   -3.6128 N   0  0  0  0  0  0  0  0  0  0  0  0
   18.8569  -33.0438   -2.7634 C   0  0  0  0  0  0  0  0  0  0  0  0
   18.6635  -33.9496   -1.9314 O   0  0  0  0  0  0  0  0  0  0  0  0
   20.1580  -32.3690   -2.8829 C   0  0  0  0  0  0  0  0  0  0  0  0
   20.1396  -31.3094   -3.9484 C   0  0  2  0  0  0  0  0  0  0  0  0
   21.4744  -31.3273   -4.5566 N   0  0  0  0  0  0  0  0  0  0  0  0
   19.8788  -29.9663   -3.3931 C   0  0  0  0  0  0  0  0  0  0  0  0
   20.5727  -29.5555   -2.3960 O   0  0  0  0  0  0  0  0  0  0  0  0
   18.5461  -24.0746   -6.5190 C   0  0  0  0  0  0  0  0  0  0  0  0
   17.8409  -25.7356   -6.7218 S   0  0  0  0  0  0  0  0  0  0  0  0
   18.7018  -26.8561   -5.5588 C   0  0  0  0  0  0  0  0  0  0  0  0
   18.0171  -26.7878   -4.2022 C   0  0  0  0  0  0  0  0  0  0  0  0
   18.7179  -27.7417   -3.2535 C   0  0  2  0  0  0  0  0  0  0  0  0
   18.9082  -29.0447   -3.8673 N   0  0  0  0  0  0  0  0  0  0  0  0
   18.0739  -27.7812   -1.9358 C   0  0  0  0  0  0  0  0  0  0  0  0
   17.1814  -28.6101   -1.6891 O   0  0  0  0  0  0  0  0  0  0  0  0
   18.4643  -26.8888   -0.9616 O   0  0  0  0  0  0  0  0  0  0  0  0
  1  2  1  0
  3  2  1  0
  4  3  1  0
  5  4  1  0
  5  6  1  1
  7  8  2  0
  7  5  1  0
  9 10  1  0
 10 12  1  0
 11 10  2  0
 13 12  1  1
 13 14  1  0
 14  7  1  0
 15 13  1  0
 15 16  2  0
 18 17  1  0
 19 20  1  0
 19 18  1  0
 21 22  1  0
 21 20  1  6
 22 15  1  0
 23 21  1  0
 24 23  2  0
 25 23  1  0
M  END
$$$$
