YIA.pdb
     RDKit          3D

 26 26  0  0  1  0  0  0  0  0999 V2000
   10.8211  -20.7701   31.2253 O   0  0  0  0  0  0  0  0  0  0  0  0
   10.4261  -19.9995   30.1526 C   0  0  0  0  0  0  0  0  0  0  0  0
   11.3704  -19.6229   29.2131 C   0  0  0  0  0  0  0  0  0  0  0  0
   10.9469  -18.8413   28.1332 C   0  0  0  0  0  0  0  0  0  0  0  0
    9.6490  -18.4513   27.9912 C   0  0  0  0  0  0  0  0  0  0  0  0
    9.2314  -17.6228   26.8353 C   0  0  0  0  0  0  0  0  0  0  0  0
    7.7101  -17.7426   26.7223 C   0  0  2  0  0  0  0  0  0  0  0  0
    7.3438  -19.0885   26.4075 N   0  0  0  0  0  0  0  0  0  0  0  0
    7.2316  -16.8265   25.6611 C   0  0  0  0  0  0  0  0  0  0  0  0
    6.4808  -17.2161   24.7172 O   0  0  0  0  0  0  0  0  0  0  0  0
    8.7303  -18.8354   28.9332 C   0  0  0  0  0  0  0  0  0  0  0  0
    9.1102  -19.6173   30.0294 C   0  0  0  0  0  0  0  0  0  0  0  0
    6.7118  -11.7975   27.1730 C   0  0  0  0  0  0  0  0  0  0  0  0
    6.2612  -12.8956   26.1976 C   0  0  0  0  0  0  0  0  0  0  0  0
    7.3329  -13.1897   25.2060 C   0  0  2  0  0  0  0  0  0  0  0  0
    7.5113  -12.0755   24.2081 C   0  0  0  0  0  0  0  0  0  0  0  0
    7.2615  -14.5522   24.5604 C   0  0  2  0  0  0  0  0  0  0  0  0
    7.6034  -15.4753   25.6711 N   0  0  0  0  0  0  0  0  0  0  0  0
    8.2382  -14.7608   23.4800 C   0  0  0  0  0  0  0  0  0  0  0  0
    8.0826  -14.1443   22.3791 O   0  0  0  0  0  0  0  0  0  0  0  0
   11.7337  -15.7286   23.0551 C   0  0  0  0  0  0  0  0  0  0  0  0
   10.3043  -15.7076   22.5278 C   0  0  2  0  0  0  0  0  0  0  0  0
    9.3522  -15.6180   23.6092 N   0  0  0  0  0  0  0  0  0  0  0  0
   10.0388  -16.9536   21.7736 C   0  0  0  0  0  0  0  0  0  0  0  0
   10.8186  -17.2719   20.6650 O   0  0  0  0  0  0  0  0  0  0  0  0
    9.1234  -17.7146   22.1271 O   0  0  0  0  0  0  0  0  0  0  0  0
  2  1  1  0
  2  3  2  0
  4  3  1  0
  5  4  2  0
  6  5  1  0
  7  9  1  0
  7  6  1  0
  7  8  1  6
  9 18  1  0
  9 10  2  0
 11 12  2  0
 11  5  1  0
 12  2  1  0
 14 15  1  0
 14 13  1  0
 15 16  1  6
 17 15  1  0
 17 18  1  1
 19 23  1  0
 19 17  1  0
 20 19  2  0
 22 21  1  1
 22 24  1  0
 22 23  1  0
 24 25  1  0
 26 24  2  0
M  END
$$$$
