YIA.pdb
     RDKit          3D

 26 26  0  0  1  0  0  0  0  0999 V2000
    2.8242  -22.6609   22.6317 O   0  0  0  0  0  0  0  0  0  0  0  0
    3.8309  -21.7913   22.9935 C   0  0  0  0  0  0  0  0  0  0  0  0
    3.6712  -21.0149   24.1284 C   0  0  0  0  0  0  0  0  0  0  0  0
    4.7055  -20.1398   24.4762 C   0  0  0  0  0  0  0  0  0  0  0  0
    5.8440  -20.0390   23.7344 C   0  0  0  0  0  0  0  0  0  0  0  0
    6.9223  -19.1018   24.1294 C   0  0  0  0  0  0  0  0  0  0  0  0
    6.5664  -17.7339   23.5432 C   0  0  2  0  0  0  0  0  0  0  0  0
    6.5968  -17.7870   22.1145 N   0  0  0  0  0  0  0  0  0  0  0  0
    7.5403  -16.7309   24.0331 C   0  0  0  0  0  0  0  0  0  0  0  0
    8.6445  -16.5167   23.4489 O   0  0  0  0  0  0  0  0  0  0  0  0
    5.9815  -20.8170   22.6144 C   0  0  0  0  0  0  0  0  0  0  0  0
    4.9720  -21.7060   22.2296 C   0  0  0  0  0  0  0  0  0  0  0  0
    5.6148  -12.3190   26.3091 C   0  0  0  0  0  0  0  0  0  0  0  0
    6.5804  -13.2198   25.5239 C   0  0  0  0  0  0  0  0  0  0  0  0
    7.4353  -14.0097   26.4532 C   0  0  2  0  0  0  0  0  0  0  0  0
    8.2264  -13.1331   27.3885 C   0  0  0  0  0  0  0  0  0  0  0  0
    8.2725  -15.0860   25.8060 C   0  0  2  0  0  0  0  0  0  0  0  0
    7.2623  -15.9751   25.1801 N   0  0  0  0  0  0  0  0  0  0  0  0
    9.0601  -15.8903   26.7533 C   0  0  0  0  0  0  0  0  0  0  0  0
    8.4616  -16.4899   27.7012 O   0  0  0  0  0  0  0  0  0  0  0  0
   12.4710  -17.4044   26.9214 C   0  0  0  0  0  0  0  0  0  0  0  0
   11.1365  -16.9744   27.5182 C   0  0  2  0  0  0  0  0  0  0  0  0
   10.4612  -16.0324   26.6576 N   0  0  0  0  0  0  0  0  0  0  0  0
   11.3687  -16.3265   28.8289 C   0  0  0  0  0  0  0  0  0  0  0  0
   11.7738  -17.0928   29.9185 O   0  0  0  0  0  0  0  0  0  0  0  0
   11.2031  -15.1026   28.9587 O   0  0  0  0  0  0  0  0  0  0  0  0
  2  1  1  0
  2  3  2  0
  4  3  1  0
  5  4  2  0
  6  5  1  0
  7  9  1  0
  7  6  1  0
  7  8  1  6
  9 18  1  0
  9 10  2  0
 11 12  2  0
 11  5  1  0
 12  2  1  0
 14 15  1  0
 14 13  1  0
 15 16  1  6
 17 15  1  0
 17 18  1  1
 19 23  1  0
 19 17  1  0
 20 19  2  0
 22 21  1  6
 22 24  1  0
 22 23  1  0
 24 25  1  0
 26 24  2  0
M  END
$$$$
