YIA.pdb
     RDKit          3D

 26 26  0  0  1  0  0  0  0  0999 V2000
    4.9887  -21.3667   13.7741 O   0  0  0  0  0  0  0  0  0  0  0  0
    5.8063  -20.7769   14.7144 C   0  0  0  0  0  0  0  0  0  0  0  0
    7.1791  -20.8680   14.5615 C   0  0  0  0  0  0  0  0  0  0  0  0
    7.9890  -20.2621   15.5277 C   0  0  0  0  0  0  0  0  0  0  0  0
    7.4632  -19.5974   16.5947 C   0  0  0  0  0  0  0  0  0  0  0  0
    8.3484  -18.9656   17.6018 C   0  0  0  0  0  0  0  0  0  0  0  0
    8.5400  -17.5071   17.1804 C   0  0  2  0  0  0  0  0  0  0  0  0
    9.2807  -17.4403   15.9591 N   0  0  0  0  0  0  0  0  0  0  0  0
    9.2656  -16.7867   18.2523 C   0  0  0  0  0  0  0  0  0  0  0  0
   10.5202  -16.6091   18.2205 O   0  0  0  0  0  0  0  0  0  0  0  0
    6.1012  -19.5193   16.7266 C   0  0  0  0  0  0  0  0  0  0  0  0
    5.2535  -20.1108   15.7837 C   0  0  0  0  0  0  0  0  0  0  0  0
    6.8375  -12.4262   19.9424 C   0  0  0  0  0  0  0  0  0  0  0  0
    7.9451  -13.4196   19.5593 C   0  0  0  0  0  0  0  0  0  0  0  0
    8.2136  -14.3646   20.6788 C   0  0  2  0  0  0  0  0  0  0  0  0
    8.4645  -13.6521   21.9820 C   0  0  0  0  0  0  0  0  0  0  0  0
    9.2341  -15.4383   20.3891 C   0  0  2  0  0  0  0  0  0  0  0  0
    8.5709  -16.2704   19.3545 N   0  0  0  0  0  0  0  0  0  0  0  0
    9.5432  -16.3038   21.5380 C   0  0  0  0  0  0  0  0  0  0  0  0
    8.6260  -17.0393   22.0218 O   0  0  0  0  0  0  0  0  0  0  0  0
   12.5705  -17.6048   23.3094 C   0  0  0  0  0  0  0  0  0  0  0  0
   11.0779  -17.3324   23.1686 C   0  0  2  0  0  0  0  0  0  0  0  0
   10.8222  -16.3599   22.1327 N   0  0  0  0  0  0  0  0  0  0  0  0
   10.5507  -16.8031   24.4467 C   0  0  0  0  0  0  0  0  0  0  0  0
   10.5117  -17.6219   25.5721 O   0  0  0  0  0  0  0  0  0  0  0  0
   10.1437  -15.6320   24.5173 O   0  0  0  0  0  0  0  0  0  0  0  0
  2  1  1  0
  2  3  2  0
  4  3  1  0
  5  4  2  0
  6  5  1  0
  7  9  1  0
  7  6  1  0
  7  8  1  6
  9 18  1  0
  9 10  2  0
 11 12  2  0
 11  5  1  0
 12  2  1  0
 14 15  1  0
 14 13  1  0
 15 16  1  1
 17 15  1  0
 17 18  1  6
 19 23  1  0
 19 17  1  0
 20 19  2  0
 22 21  1  1
 22 24  1  0
 22 23  1  0
 24 25  1  0
 26 24  2  0
M  END
$$$$
