YIA.pdb
     RDKit          3D

 26 26  0  0  1  0  0  0  0  0999 V2000
    6.3698  -14.0273   15.6912 O   0  0  0  0  0  0  0  0  0  0  0  0
    6.6733  -14.3684   16.9920 C   0  0  0  0  0  0  0  0  0  0  0  0
    7.6072  -13.6153   17.6826 C   0  0  0  0  0  0  0  0  0  0  0  0
    7.8993  -13.9797   19.0011 C   0  0  0  0  0  0  0  0  0  0  0  0
    7.2945  -15.0402   19.6064 C   0  0  0  0  0  0  0  0  0  0  0  0
    7.6257  -15.4011   21.0053 C   0  0  0  0  0  0  0  0  0  0  0  0
    8.8865  -14.6213   21.3845 C   0  0  2  0  0  0  0  0  0  0  0  0
    9.9950  -15.0636   20.5970 N   0  0  0  0  0  0  0  0  0  0  0  0
    9.1708  -14.8337   22.8228 C   0  0  0  0  0  0  0  0  0  0  0  0
   10.1126  -15.5808   23.2245 O   0  0  0  0  0  0  0  0  0  0  0  0
    6.3727  -15.7723   18.9042 C   0  0  0  0  0  0  0  0  0  0  0  0
    6.0502  -15.4431   17.5832 C   0  0  0  0  0  0  0  0  0  0  0  0
    6.9335  -12.0202   27.8448 C   0  0  0  0  0  0  0  0  0  0  0  0
    7.9381  -13.0630   27.3315 C   0  0  0  0  0  0  0  0  0  0  0  0
    7.7624  -13.2867   25.8695 C   0  0  2  0  0  0  0  0  0  0  0  0
    6.3267  -13.5529   25.4993 C   0  0  0  0  0  0  0  0  0  0  0  0
    8.7231  -14.2692   25.2447 C   0  0  2  0  0  0  0  0  0  0  0  0
    8.3901  -14.2015   23.8000 N   0  0  0  0  0  0  0  0  0  0  0  0
    8.5388  -15.6598   25.6883 C   0  0  0  0  0  0  0  0  0  0  0  0
    7.4625  -16.2664   25.3882 O   0  0  0  0  0  0  0  0  0  0  0  0
   10.1993  -18.6644   25.9778 C   0  0  0  0  0  0  0  0  0  0  0  0
    9.2789  -17.7455   26.7718 C   0  0  2  0  0  0  0  0  0  0  0  0
    9.5099  -16.3608   26.4353 N   0  0  0  0  0  0  0  0  0  0  0  0
    9.5340  -17.9234   28.2192 C   0  0  0  0  0  0  0  0  0  0  0  0
    9.9423  -16.8376   28.9893 O   0  0  0  0  0  0  0  0  0  0  0  0
    9.3849  -19.0373   28.7475 O   0  0  0  0  0  0  0  0  0  0  0  0
  2  1  1  0
  2  3  2  0
  4  3  1  0
  5  4  2  0
  6  5  1  0
  7  9  1  0
  7  6  1  0
  7  8  1  6
  9 18  1  0
  9 10  2  0
 11 12  2  0
 11  5  1  0
 12  2  1  0
 14 15  1  0
 14 13  1  0
 15 16  1  1
 17 15  1  0
 17 18  1  6
 19 23  1  0
 19 17  1  0
 20 19  2  0
 22 21  1  6
 22 24  1  0
 22 23  1  0
 24 25  1  0
 26 24  2  0
M  END
$$$$
