YIA.pdb
     RDKit          3D

 26 26  0  0  1  0  0  0  0  0999 V2000
   11.7993  -18.9138   11.5769 O   0  0  0  0  0  0  0  0  0  0  0  0
   11.7878  -18.0386   12.6420 C   0  0  0  0  0  0  0  0  0  0  0  0
   12.8151  -18.0953   13.5680 C   0  0  0  0  0  0  0  0  0  0  0  0
   12.7829  -17.1978   14.6404 C   0  0  0  0  0  0  0  0  0  0  0  0
   11.7799  -16.2873   14.7879 C   0  0  0  0  0  0  0  0  0  0  0  0
   11.7741  -15.3493   15.9356 C   0  0  0  0  0  0  0  0  0  0  0  0
   11.2719  -16.1302   17.1520 C   0  0  2  0  0  0  0  0  0  0  0  0
    9.9930  -16.7062   16.8741 N   0  0  0  0  0  0  0  0  0  0  0  0
   11.1719  -15.2097   18.3084 C   0  0  0  0  0  0  0  0  0  0  0  0
   12.0430  -14.3196   18.5436 O   0  0  0  0  0  0  0  0  0  0  0  0
   10.7725  -16.2483   13.8593 C   0  0  0  0  0  0  0  0  0  0  0  0
   10.7650  -17.1275   12.7710 C   0  0  0  0  0  0  0  0  0  0  0  0
    6.9387  -12.4747   19.1269 C   0  0  0  0  0  0  0  0  0  0  0  0
    8.4181  -12.8747   19.2362 C   0  0  0  0  0  0  0  0  0  0  0  0
    8.6146  -13.8672   20.3292 C   0  0  2  0  0  0  0  0  0  0  0  0
    8.1045  -13.3673   21.6554 C   0  0  0  0  0  0  0  0  0  0  0  0
    9.9970  -14.4667   20.4185 C   0  0  2  0  0  0  0  0  0  0  0  0
   10.0887  -15.2991   19.1932 N   0  0  0  0  0  0  0  0  0  0  0  0
   10.2004  -15.3458   21.5806 C   0  0  0  0  0  0  0  0  0  0  0  0
   10.2458  -14.8326   22.7429 O   0  0  0  0  0  0  0  0  0  0  0  0
    9.8872  -18.9542   22.4157 C   0  0  0  0  0  0  0  0  0  0  0  0
   10.4192  -17.5481   22.6641 C   0  0  2  0  0  0  0  0  0  0  0  0
   10.3459  -16.7452   21.4666 N   0  0  0  0  0  0  0  0  0  0  0  0
   11.8352  -17.6248   23.0891 C   0  0  0  0  0  0  0  0  0  0  0  0
   12.1779  -18.3444   24.2308 O   0  0  0  0  0  0  0  0  0  0  0  0
   12.7170  -17.0495   22.4307 O   0  0  0  0  0  0  0  0  0  0  0  0
  2  1  1  0
  2  3  2  0
  4  3  1  0
  5  4  2  0
  6  5  1  0
  7  9  1  0
  7  6  1  0
  7  8  1  6
  9 18  1  0
  9 10  2  0
 11 12  2  0
 11  5  1  0
 12  2  1  0
 14 15  1  0
 14 13  1  0
 15 16  1  1
 17 15  1  0
 17 18  1  6
 19 23  1  0
 19 17  1  0
 20 19  2  0
 22 21  1  6
 22 24  1  0
 22 23  1  0
 24 25  1  0
 26 24  2  0
M  END
$$$$
