YIA.pdb
     RDKit          3D

 26 26  0  0  1  0  0  0  0  0999 V2000
    5.9904  -21.3716   18.8435 O   0  0  0  0  0  0  0  0  0  0  0  0
    6.6813  -20.5973   19.7511 C   0  0  0  0  0  0  0  0  0  0  0  0
    6.1704  -19.3600   20.1035 C   0  0  0  0  0  0  0  0  0  0  0  0
    6.8882  -18.5916   21.0259 C   0  0  0  0  0  0  0  0  0  0  0  0
    8.0570  -19.0289   21.5731 C   0  0  0  0  0  0  0  0  0  0  0  0
    8.7945  -18.1909   22.5482 C   0  0  0  0  0  0  0  0  0  0  0  0
    8.6815  -16.7413   22.0716 C   0  0  2  0  0  0  0  0  0  0  0  0
    9.4665  -16.5476   20.8922 N   0  0  0  0  0  0  0  0  0  0  0  0
    9.1555  -15.8411   23.1484 C   0  0  0  0  0  0  0  0  0  0  0  0
   10.3710  -15.5000   23.2607 O   0  0  0  0  0  0  0  0  0  0  0  0
    8.5450  -20.2572   21.2101 C   0  0  0  0  0  0  0  0  0  0  0  0
    7.8596  -21.0589   20.2909 C   0  0  0  0  0  0  0  0  0  0  0  0
    6.3419  -11.8694   26.8529 C   0  0  0  0  0  0  0  0  0  0  0  0
    7.6389  -12.6657   26.6426 C   0  0  0  0  0  0  0  0  0  0  0  0
    7.4922  -13.6186   25.5074 C   0  0  2  0  0  0  0  0  0  0  0  0
    6.2067  -14.4006   25.5785 C   0  0  0  0  0  0  0  0  0  0  0  0
    8.6952  -14.4878   25.2321 C   0  0  2  0  0  0  0  0  0  0  0  0
    8.2545  -15.3308   24.0929 N   0  0  0  0  0  0  0  0  0  0  0  0
    9.0623  -15.3808   26.3422 C   0  0  0  0  0  0  0  0  0  0  0  0
    8.2596  -16.3065   26.6816 O   0  0  0  0  0  0  0  0  0  0  0  0
   12.1216  -16.7528   27.6500 C   0  0  0  0  0  0  0  0  0  0  0  0
   10.6868  -16.3266   27.9354 C   0  0  2  0  0  0  0  0  0  0  0  0
   10.2756  -15.2603   27.0533 N   0  0  0  0  0  0  0  0  0  0  0  0
   10.5844  -15.8438   29.3312 C   0  0  0  0  0  0  0  0  0  0  0  0
   10.1456  -14.5471   29.5853 O   0  0  0  0  0  0  0  0  0  0  0  0
   10.8886  -16.5917   30.2747 O   0  0  0  0  0  0  0  0  0  0  0  0
  2  1  1  0
  2  3  2  0
  4  3  1  0
  5  4  2  0
  6  5  1  0
  7  9  1  0
  7  6  1  0
  7  8  1  6
  9 18  1  0
  9 10  2  0
 11 12  2  0
 11  5  1  0
 12  2  1  0
 14 15  1  0
 14 13  1  0
 15 16  1  1
 17 15  1  0
 17 18  1  6
 19 23  1  0
 19 17  1  0
 20 19  2  0
 22 21  1  6
 22 24  1  0
 22 23  1  0
 24 25  1  0
 26 24  2  0
M  END
$$$$
