YIA.pdb
     RDKit          3D

 26 26  0  0  1  0  0  0  0  0999 V2000
    6.3340  -10.5428   28.1828 O   0  0  0  0  0  0  0  0  0  0  0  0
    6.6730  -11.7277   27.5649 C   0  0  0  0  0  0  0  0  0  0  0  0
    5.8163  -12.2586   26.6161 C   0  0  0  0  0  0  0  0  0  0  0  0
    6.1807  -13.4615   26.0021 C   0  0  0  0  0  0  0  0  0  0  0  0
    7.3393  -14.1074   26.3138 C   0  0  0  0  0  0  0  0  0  0  0  0
    7.6974  -15.3810   25.6454 C   0  0  0  0  0  0  0  0  0  0  0  0
    6.5922  -15.6828   24.6311 C   0  0  2  0  0  0  0  0  0  0  0  0
    5.6504  -16.6035   25.1878 N   0  0  0  0  0  0  0  0  0  0  0  0
    7.2021  -16.2590   23.4102 C   0  0  0  0  0  0  0  0  0  0  0  0
    7.1495  -17.4974   23.1460 O   0  0  0  0  0  0  0  0  0  0  0  0
    8.1731  -13.5640   27.2563 C   0  0  0  0  0  0  0  0  0  0  0  0
    7.8480  -12.3626   27.8953 C   0  0  0  0  0  0  0  0  0  0  0  0
    7.4241  -12.5697   19.7744 C   0  0  0  0  0  0  0  0  0  0  0  0
    7.1908  -14.0341   20.1760 C   0  0  0  0  0  0  0  0  0  0  0  0
    8.4879  -14.7484   20.3354 C   0  0  2  0  0  0  0  0  0  0  0  0
    9.1598  -15.0175   19.0143 C   0  0  0  0  0  0  0  0  0  0  0  0
    8.4539  -15.9594   21.2358 C   0  0  2  0  0  0  0  0  0  0  0  0
    7.8684  -15.4337   22.4941 N   0  0  0  0  0  0  0  0  0  0  0  0
    9.7790  -16.5162   21.5498 C   0  0  0  0  0  0  0  0  0  0  0  0
   10.6038  -15.8117   22.2128 O   0  0  0  0  0  0  0  0  0  0  0  0
   11.6760  -19.7468   21.1797 C   0  0  0  0  0  0  0  0  0  0  0  0
   11.5231  -18.2536   21.4425 C   0  0  2  0  0  0  0  0  0  0  0  0
   10.1815  -17.8086   21.1494 N   0  0  0  0  0  0  0  0  0  0  0  0
   12.4633  -17.5026   20.5801 C   0  0  0  0  0  0  0  0  0  0  0  0
   12.0452  -17.0452   19.3333 O   0  0  0  0  0  0  0  0  0  0  0  0
   13.6225  -17.2798   20.9657 O   0  0  0  0  0  0  0  0  0  0  0  0
  2  1  1  0
  2  3  2  0
  4  3  1  0
  5  4  2  0
  6  5  1  0
  7  9  1  0
  7  6  1  0
  7  8  1  1
  9 18  1  0
  9 10  2  0
 11 12  2  0
 11  5  1  0
 12  2  1  0
 14 15  1  0
 14 13  1  0
 15 16  1  6
 17 15  1  0
 17 18  1  1
 19 23  1  0
 19 17  1  0
 20 19  2  0
 22 21  1  6
 22 24  1  0
 22 23  1  0
 24 25  1  0
 26 24  2  0
M  END
$$$$
