YIA.pdb
     RDKit          3D

 26 26  0  0  1  0  0  0  0  0999 V2000
    6.5875  -14.0614   15.8179 O   0  0  0  0  0  0  0  0  0  0  0  0
    6.8307  -14.3489   17.1441 C   0  0  0  0  0  0  0  0  0  0  0  0
    6.8139  -15.6696   17.5584 C   0  0  0  0  0  0  0  0  0  0  0  0
    7.0633  -15.9376   18.9084 C   0  0  0  0  0  0  0  0  0  0  0  0
    7.3174  -14.9437   19.8053 C   0  0  0  0  0  0  0  0  0  0  0  0
    7.5780  -15.2601   21.2297 C   0  0  0  0  0  0  0  0  0  0  0  0
    8.7350  -14.3678   21.6842 C   0  0  2  0  0  0  0  0  0  0  0  0
    9.8813  -14.5882   20.8583 N   0  0  0  0  0  0  0  0  0  0  0  0
    9.0601  -14.6809   23.0951 C   0  0  0  0  0  0  0  0  0  0  0  0
   10.1293  -15.2742   23.4288 O   0  0  0  0  0  0  0  0  0  0  0  0
    7.3293  -13.6428   19.3736 C   0  0  0  0  0  0  0  0  0  0  0  0
    7.0850  -13.3293   18.0322 C   0  0  0  0  0  0  0  0  0  0  0  0
    6.0475  -11.5219   26.3281 C   0  0  0  0  0  0  0  0  0  0  0  0
    7.2699  -12.1834   25.6734 C   0  0  0  0  0  0  0  0  0  0  0  0
    7.4902  -13.5473   26.2297 C   0  0  2  0  0  0  0  0  0  0  0  0
    7.6156  -13.5404   27.7307 C   0  0  0  0  0  0  0  0  0  0  0  0
    8.5699  -14.3562   25.5526 C   0  0  2  0  0  0  0  0  0  0  0  0
    8.1763  -14.3224   24.1221 N   0  0  0  0  0  0  0  0  0  0  0  0
    8.6247  -15.7644   25.9752 C   0  0  0  0  0  0  0  0  0  0  0  0
    7.5678  -16.4686   25.9160 O   0  0  0  0  0  0  0  0  0  0  0  0
   10.9578  -18.5150   26.1317 C   0  0  0  0  0  0  0  0  0  0  0  0
    9.7884  -17.7825   26.7781 C   0  0  2  0  0  0  0  0  0  0  0  0
    9.8060  -16.3781   26.4445 N   0  0  0  0  0  0  0  0  0  0  0  0
    9.8773  -17.9142   28.2500 C   0  0  0  0  0  0  0  0  0  0  0  0
    9.8186  -19.1752   28.8375 O   0  0  0  0  0  0  0  0  0  0  0  0
   10.0039  -16.9040   28.9610 O   0  0  0  0  0  0  0  0  0  0  0  0
  2  1  1  0
  2  3  2  0
  4  3  1  0
  5  4  2  0
  6  5  1  0
  7  9  1  0
  7  6  1  0
  7  8  1  6
  9 18  1  0
  9 10  2  0
 11 12  2  0
 11  5  1  0
 12  2  1  0
 14 15  1  0
 14 13  1  0
 15 16  1  1
 17 15  1  0
 17 18  1  6
 19 23  1  0
 19 17  1  0
 20 19  2  0
 22 21  1  6
 22 24  1  0
 22 23  1  0
 24 25  1  0
 26 24  2  0
M  END
$$$$
