YIA.pdb
     RDKit          3D

 26 26  0  0  1  0  0  0  0  0999 V2000
    6.9154  -14.8854   15.3106 O   0  0  0  0  0  0  0  0  0  0  0  0
    7.1494  -15.0827   16.6549 C   0  0  0  0  0  0  0  0  0  0  0  0
    7.2442  -13.9813   17.4880 C   0  0  0  0  0  0  0  0  0  0  0  0
    7.4820  -14.2053   18.8481 C   0  0  0  0  0  0  0  0  0  0  0  0
    7.6192  -15.4614   19.3582 C   0  0  0  0  0  0  0  0  0  0  0  0
    7.8706  -15.6659   20.8045 C   0  0  0  0  0  0  0  0  0  0  0  0
    7.7156  -14.3041   21.4849 C   0  0  2  0  0  0  0  0  0  0  0  0
    8.1871  -13.2657   20.6224 N   0  0  0  0  0  0  0  0  0  0  0  0
    8.4909  -14.3045   22.7472 C   0  0  0  0  0  0  0  0  0  0  0  0
    9.7550  -14.2144   22.7663 O   0  0  0  0  0  0  0  0  0  0  0  0
    7.5217  -16.5379   18.5154 C   0  0  0  0  0  0  0  0  0  0  0  0
    7.2847  -16.3599   17.1480 C   0  0  0  0  0  0  0  0  0  0  0  0
    5.9914  -11.6247   26.4274 C   0  0  0  0  0  0  0  0  0  0  0  0
    7.0804  -12.2425   25.5370 C   0  0  0  0  0  0  0  0  0  0  0  0
    7.5955  -13.5050   26.1363 C   0  0  2  0  0  0  0  0  0  0  0  0
    8.0969  -13.3083   27.5431 C   0  0  0  0  0  0  0  0  0  0  0  0
    8.5558  -14.2868   25.2732 C   0  0  2  0  0  0  0  0  0  0  0  0
    7.8349  -14.4066   23.9815 N   0  0  0  0  0  0  0  0  0  0  0  0
    8.8393  -15.6451   25.7623 C   0  0  0  0  0  0  0  0  0  0  0  0
    7.8687  -16.4030   26.0782 O   0  0  0  0  0  0  0  0  0  0  0  0
   11.6788  -18.0635   25.9520 C   0  0  0  0  0  0  0  0  0  0  0  0
   10.3400  -17.4918   26.4022 C   0  0  2  0  0  0  0  0  0  0  0  0
   10.1494  -16.1533   25.8960 N   0  0  0  0  0  0  0  0  0  0  0  0
   10.2975  -17.4424   27.8812 C   0  0  0  0  0  0  0  0  0  0  0  0
   10.5780  -16.2499   28.5429 O   0  0  0  0  0  0  0  0  0  0  0  0
   10.0125  -18.4608   28.5322 O   0  0  0  0  0  0  0  0  0  0  0  0
  2  1  1  0
  2  3  2  0
  4  3  1  0
  5  4  2  0
  6  5  1  0
  7  9  1  0
  7  6  1  0
  7  8  1  6
  9 18  1  0
  9 10  2  0
 11 12  2  0
 11  5  1  0
 12  2  1  0
 14 15  1  0
 14 13  1  0
 15 16  1  1
 17 15  1  0
 17 18  1  6
 19 23  1  0
 19 17  1  0
 20 19  2  0
 22 21  1  1
 22 24  1  0
 22 23  1  0
 24 25  1  0
 26 24  2  0
M  END
$$$$
