YIA.pdb
     RDKit          3D

 26 26  0  0  1  0  0  0  0  0999 V2000
    6.5674  -11.5860   17.6986 O   0  0  0  0  0  0  0  0  0  0  0  0
    7.1792  -12.5388   18.4851 C   0  0  0  0  0  0  0  0  0  0  0  0
    8.4518  -12.2917   18.9705 C   0  0  0  0  0  0  0  0  0  0  0  0
    9.0529  -13.2725   19.7663 C   0  0  0  0  0  0  0  0  0  0  0  0
    8.4226  -14.4426   20.0667 C   0  0  0  0  0  0  0  0  0  0  0  0
    9.0865  -15.4625   20.9129 C   0  0  0  0  0  0  0  0  0  0  0  0
   10.0297  -16.2551   20.0054 C   0  0  2  0  0  0  0  0  0  0  0  0
    9.2787  -16.9864   19.0328 N   0  0  0  0  0  0  0  0  0  0  0  0
   10.8268  -17.1880   20.8353 C   0  0  0  0  0  0  0  0  0  0  0  0
   10.4586  -18.3800   21.0591 O   0  0  0  0  0  0  0  0  0  0  0  0
    7.1628  -14.6667   19.5756 C   0  0  0  0  0  0  0  0  0  0  0  0
    6.5240  -13.7131   18.7756 C   0  0  0  0  0  0  0  0  0  0  0  0
   16.1901  -15.7831   21.0698 C   0  0  0  0  0  0  0  0  0  0  0  0
   14.8019  -15.9949   21.6930 C   0  0  0  0  0  0  0  0  0  0  0  0
   14.3055  -17.3713   21.4149 C   0  0  2  0  0  0  0  0  0  0  0  0
   14.3685  -17.7179   19.9503 C   0  0  0  0  0  0  0  0  0  0  0  0
   12.9797  -17.7213   22.0459 C   0  0  2  0  0  0  0  0  0  0  0  0
   12.0357  -16.7701   21.4083 N   0  0  0  0  0  0  0  0  0  0  0  0
   12.9274  -17.5062   23.5004 C   0  0  0  0  0  0  0  0  0  0  0  0
   12.8793  -16.3171   23.9477 O   0  0  0  0  0  0  0  0  0  0  0  0
   12.1046  -19.2871   26.6229 C   0  0  0  0  0  0  0  0  0  0  0  0
   12.9259  -18.2668   25.8443 C   0  0  2  0  0  0  0  0  0  0  0  0
   12.9246  -18.5666   24.4321 N   0  0  0  0  0  0  0  0  0  0  0  0
   14.3257  -18.2902   26.3255 C   0  0  0  0  0  0  0  0  0  0  0  0
   14.6281  -17.8189   27.6003 O   0  0  0  0  0  0  0  0  0  0  0  0
   15.2298  -18.7286   25.5958 O   0  0  0  0  0  0  0  0  0  0  0  0
  2  1  1  0
  2  3  2  0
  4  3  1  0
  5  4  2  0
  6  5  1  0
  7  9  1  0
  7  6  1  0
  7  8  1  6
  9 18  1  0
  9 10  2  0
 11 12  2  0
 11  5  1  0
 12  2  1  0
 14 15  1  0
 14 13  1  0
 15 16  1  6
 17 15  1  0
 17 18  1  6
 19 23  1  0
 19 17  1  0
 20 19  2  0
 22 21  1  1
 22 24  1  0
 22 23  1  0
 24 25  1  0
 26 24  2  0
M  END
$$$$
