YIA.pdb
     RDKit          3D

 26 26  0  0  1  0  0  0  0  0999 V2000
    3.1749  -22.7938   25.0575 O   0  0  0  0  0  0  0  0  0  0  0  0
    4.1773  -21.8695   24.8532 C   0  0  0  0  0  0  0  0  0  0  0  0
    4.1833  -21.1347   23.6801 C   0  0  0  0  0  0  0  0  0  0  0  0
    5.2098  -20.2028   23.4943 C   0  0  0  0  0  0  0  0  0  0  0  0
    6.1840  -20.0085   24.4270 C   0  0  0  0  0  0  0  0  0  0  0  0
    7.2586  -19.0131   24.2006 C   0  0  0  0  0  0  0  0  0  0  0  0
    6.5953  -17.7565   23.6328 C   0  0  2  0  0  0  0  0  0  0  0  0
    6.3869  -17.9022   22.2257 N   0  0  0  0  0  0  0  0  0  0  0  0
    7.4682  -16.5890   23.8968 C   0  0  0  0  0  0  0  0  0  0  0  0
    8.3560  -16.2073   23.0768 O   0  0  0  0  0  0  0  0  0  0  0  0
    6.1589  -20.7469   25.5815 C   0  0  0  0  0  0  0  0  0  0  0  0
    5.1507  -21.6900   25.8087 C   0  0  0  0  0  0  0  0  0  0  0  0
    5.5689  -12.2965   26.3392 C   0  0  0  0  0  0  0  0  0  0  0  0
    6.4646  -13.1690   25.4465 C   0  0  0  0  0  0  0  0  0  0  0  0
    7.5259  -13.8314   26.2546 C   0  0  2  0  0  0  0  0  0  0  0  0
    8.3703  -12.8411   27.0131 C   0  0  0  0  0  0  0  0  0  0  0  0
    8.3464  -14.8655   25.5226 C   0  0  2  0  0  0  0  0  0  0  0  0
    7.3339  -15.8587   25.0854 N   0  0  0  0  0  0  0  0  0  0  0  0
    9.3313  -15.5622   26.3648 C   0  0  0  0  0  0  0  0  0  0  0  0
    8.9201  -16.2893   27.3233 O   0  0  0  0  0  0  0  0  0  0  0  0
   12.9788  -16.4147   26.2017 C   0  0  0  0  0  0  0  0  0  0  0  0
   11.6098  -16.3541   26.8680 C   0  0  2  0  0  0  0  0  0  0  0  0
   10.7238  -15.4639   26.1561 N   0  0  0  0  0  0  0  0  0  0  0  0
   11.7579  -15.8559   28.2541 C   0  0  0  0  0  0  0  0  0  0  0  0
   11.1524  -14.6594   28.6287 O   0  0  0  0  0  0  0  0  0  0  0  0
   12.4200  -16.5019   29.0826 O   0  0  0  0  0  0  0  0  0  0  0  0
  2  1  1  0
  2  3  2  0
  4  3  1  0
  5  4  2  0
  6  5  1  0
  7  9  1  0
  7  6  1  0
  7  8  1  6
  9 18  1  0
  9 10  2  0
 11 12  2  0
 11  5  1  0
 12  2  1  0
 14 15  1  0
 14 13  1  0
 15 16  1  6
 17 15  1  0
 17 18  1  1
 19 23  1  0
 19 17  1  0
 20 19  2  0
 22 21  1  6
 22 24  1  0
 22 23  1  0
 24 25  1  0
 26 24  2  0
M  END
$$$$
