YIA.pdb
     RDKit          3D

 26 26  0  0  1  0  0  0  0  0999 V2000
   10.7167  -14.6025   32.0130 O   0  0  0  0  0  0  0  0  0  0  0  0
   10.5029  -15.3816   30.8959 C   0  0  0  0  0  0  0  0  0  0  0  0
   10.6231  -16.7564   31.0037 C   0  0  0  0  0  0  0  0  0  0  0  0
   10.4017  -17.5268   29.8574 C   0  0  0  0  0  0  0  0  0  0  0  0
   10.0767  -16.9614   28.6610 C   0  0  0  0  0  0  0  0  0  0  0  0
    9.8483  -17.8052   27.4640 C   0  0  0  0  0  0  0  0  0  0  0  0
    8.3368  -17.8557   27.2312 C   0  0  2  0  0  0  0  0  0  0  0  0
    7.8700  -19.2046   27.3152 N   0  0  0  0  0  0  0  0  0  0  0  0
    8.0362  -17.2987   25.8918 C   0  0  0  0  0  0  0  0  0  0  0  0
    7.6288  -18.0208   24.9332 O   0  0  0  0  0  0  0  0  0  0  0  0
    9.9629  -15.5981   28.5765 C   0  0  0  0  0  0  0  0  0  0  0  0
   10.1757  -14.7891   29.6981 C   0  0  0  0  0  0  0  0  0  0  0  0
    6.8987  -12.0408   26.2221 C   0  0  0  0  0  0  0  0  0  0  0  0
    6.7319  -13.5043   25.7853 C   0  0  0  0  0  0  0  0  0  0  0  0
    7.6910  -13.8402   24.6964 C   0  0  2  0  0  0  0  0  0  0  0  0
    7.5085  -12.9668   23.4828 C   0  0  0  0  0  0  0  0  0  0  0  0
    7.7958  -15.3069   24.3556 C   0  0  2  0  0  0  0  0  0  0  0  0
    8.1972  -15.9291   25.6418 N   0  0  0  0  0  0  0  0  0  0  0  0
    8.8289  -15.6227   23.3568 C   0  0  0  0  0  0  0  0  0  0  0  0
   10.0021  -15.1587   23.5136 O   0  0  0  0  0  0  0  0  0  0  0  0
    9.3043  -17.8812   20.3938 C   0  0  0  0  0  0  0  0  0  0  0  0
    9.6587  -16.7170   21.3108 C   0  0  2  0  0  0  0  0  0  0  0  0
    8.5787  -16.4264   22.2236 N   0  0  0  0  0  0  0  0  0  0  0  0
    9.9191  -15.5090   20.4955 C   0  0  0  0  0  0  0  0  0  0  0  0
   11.2261  -15.1727   20.1531 O   0  0  0  0  0  0  0  0  0  0  0  0
    8.9757  -14.7958   20.1168 O   0  0  0  0  0  0  0  0  0  0  0  0
  2  1  1  0
  2  3  2  0
  4  3  1  0
  5  4  2  0
  6  5  1  0
  7  9  1  0
  7  6  1  0
  7  8  1  6
  9 18  1  0
  9 10  2  0
 11 12  2  0
 11  5  1  0
 12  2  1  0
 14 15  1  0
 14 13  1  0
 15 16  1  6
 17 15  1  0
 17 18  1  1
 19 23  1  0
 19 17  1  0
 20 19  2  0
 22 21  1  6
 22 24  1  0
 22 23  1  0
 24 25  1  0
 26 24  2  0
M  END
$$$$
