YIA.pdb
     RDKit          3D

 26 26  0  0  1  0  0  0  0  0999 V2000
   11.8230  -16.0200   32.3831 O   0  0  0  0  0  0  0  0  0  0  0  0
   11.4274  -16.2238   31.0783 C   0  0  0  0  0  0  0  0  0  0  0  0
   11.6934  -17.4431   30.4793 C   0  0  0  0  0  0  0  0  0  0  0  0
   11.2829  -17.6275   29.1549 C   0  0  0  0  0  0  0  0  0  0  0  0
   10.6393  -16.6498   28.4573 C   0  0  0  0  0  0  0  0  0  0  0  0
   10.2168  -16.8759   27.0547 C   0  0  0  0  0  0  0  0  0  0  0  0
    8.7302  -17.2370   27.0854 C   0  0  2  0  0  0  0  0  0  0  0  0
    8.5687  -18.6440   27.2827 N   0  0  0  0  0  0  0  0  0  0  0  0
    8.1086  -16.8312   25.8034 C   0  0  0  0  0  0  0  0  0  0  0  0
    7.4113  -17.6274   25.1062 O   0  0  0  0  0  0  0  0  0  0  0  0
   10.3859  -15.4500   29.0697 C   0  0  0  0  0  0  0  0  0  0  0  0
   10.7789  -15.2225   30.3931 C   0  0  0  0  0  0  0  0  0  0  0  0
    6.5745  -11.7416   25.8914 C   0  0  0  0  0  0  0  0  0  0  0  0
    6.5230  -13.2444   25.5765 C   0  0  0  0  0  0  0  0  0  0  0  0
    7.3758  -13.5639   24.3981 C   0  0  2  0  0  0  0  0  0  0  0  0
    6.9846  -12.7738   23.1768 C   0  0  0  0  0  0  0  0  0  0  0  0
    7.5616  -15.0345   24.1129 C   0  0  2  0  0  0  0  0  0  0  0  0
    8.2777  -15.5283   25.3154 N   0  0  0  0  0  0  0  0  0  0  0  0
    8.3980  -15.3210   22.9370 C   0  0  0  0  0  0  0  0  0  0  0  0
    7.8612  -15.3302   21.7845 O   0  0  0  0  0  0  0  0  0  0  0  0
   11.8214  -14.9718   21.8213 C   0  0  0  0  0  0  0  0  0  0  0  0
   10.5409  -15.7977   21.8177 C   0  0  2  0  0  0  0  0  0  0  0  0
    9.7816  -15.5855   23.0270 N   0  0  0  0  0  0  0  0  0  0  0  0
   10.8820  -17.2354   21.7264 C   0  0  0  0  0  0  0  0  0  0  0  0
   11.6318  -17.7026   20.6502 O   0  0  0  0  0  0  0  0  0  0  0  0
   10.5014  -18.0247   22.6063 O   0  0  0  0  0  0  0  0  0  0  0  0
  2  1  1  0
  2  3  2  0
  4  3  1  0
  5  4  2  0
  6  5  1  0
  7  9  1  0
  7  6  1  0
  7  8  1  6
  9 18  1  0
  9 10  2  0
 11 12  2  0
 11  5  1  0
 12  2  1  0
 14 15  1  0
 14 13  1  0
 15 16  1  6
 17 15  1  0
 17 18  1  1
 19 23  1  0
 19 17  1  0
 20 19  2  0
 22 21  1  1
 22 24  1  0
 22 23  1  0
 24 25  1  0
 26 24  2  0
M  END
$$$$
