YIA.pdb
     RDKit          3D

 26 26  0  0  1  0  0  0  0  0999 V2000
    6.6290  -22.0599   13.8685 O   0  0  0  0  0  0  0  0  0  0  0  0
    7.2919  -21.3530   14.8490 C   0  0  0  0  0  0  0  0  0  0  0  0
    8.6758  -21.3237   14.8357 C   0  0  0  0  0  0  0  0  0  0  0  0
    9.3270  -20.6003   15.8403 C   0  0  0  0  0  0  0  0  0  0  0  0
    8.6392  -19.9373   16.8119 C   0  0  0  0  0  0  0  0  0  0  0  0
    9.3585  -19.1792   17.8630 C   0  0  0  0  0  0  0  0  0  0  0  0
    9.3895  -17.7149   17.4200 C   0  0  2  0  0  0  0  0  0  0  0  0
   10.2437  -17.5618   16.2835 N   0  0  0  0  0  0  0  0  0  0  0  0
    9.8843  -16.8822   18.5408 C   0  0  0  0  0  0  0  0  0  0  0  0
   11.1179  -16.6565   18.7244 O   0  0  0  0  0  0  0  0  0  0  0  0
    7.2692  -19.9794   16.8062 C   0  0  0  0  0  0  0  0  0  0  0  0
    6.5770  -20.6910   15.8203 C   0  0  0  0  0  0  0  0  0  0  0  0
    6.8066  -12.6716   19.6984 C   0  0  0  0  0  0  0  0  0  0  0  0
    8.0379  -13.5637   19.4780 C   0  0  0  0  0  0  0  0  0  0  0  0
    8.2798  -14.4284   20.6663 C   0  0  2  0  0  0  0  0  0  0  0  0
    8.3208  -13.6402   21.9493 C   0  0  0  0  0  0  0  0  0  0  0  0
    9.4264  -15.4014   20.5364 C   0  0  2  0  0  0  0  0  0  0  0  0
    8.9837  -16.3086   19.4485 N   0  0  0  0  0  0  0  0  0  0  0  0
    9.6662  -16.2164   21.7376 C   0  0  0  0  0  0  0  0  0  0  0  0
    8.7576  -17.0114   22.1361 O   0  0  0  0  0  0  0  0  0  0  0  0
   12.5484  -17.2202   23.9050 C   0  0  0  0  0  0  0  0  0  0  0  0
   11.0683  -17.0748   23.5731 C   0  0  2  0  0  0  0  0  0  0  0  0
   10.8691  -16.1603   22.4741 N   0  0  0  0  0  0  0  0  0  0  0  0
   10.3475  -16.5493   24.7547 C   0  0  0  0  0  0  0  0  0  0  0  0
   10.2557  -17.3210   25.9099 O   0  0  0  0  0  0  0  0  0  0  0  0
    9.8253  -15.4232   24.7179 O   0  0  0  0  0  0  0  0  0  0  0  0
  2  1  1  0
  2  3  2  0
  4  3  1  0
  5  4  2  0
  6  5  1  0
  7  9  1  0
  7  6  1  0
  7  8  1  6
  9 18  1  0
  9 10  2  0
 11 12  2  0
 11  5  1  0
 12  2  1  0
 14 15  1  0
 14 13  1  0
 15 16  1  1
 17 15  1  0
 17 18  1  6
 19 23  1  0
 19 17  1  0
 20 19  2  0
 22 21  1  1
 22 24  1  0
 22 23  1  0
 24 25  1  0
 26 24  2  0
M  END
$$$$
