WEI.pdb
     RDKit          3D

 32 33  0  0  1  0  0  0  0  0999 V2000
    6.0951  -17.9819   24.7874 N   0  0  0  0  0  0  0  0  0  0  0  0
    7.1154  -16.9931   24.5625 C   0  0  1  0  0  0  0  0  0  0  0  0
    7.2685  -16.0167   25.7183 C   0  0  0  0  0  0  0  0  0  0  0  0
    6.7824  -14.7078   25.2116 C   0  0  0  0  0  0  0  0  0  0  0  0
    5.7316  -13.9715   25.7092 C   0  0  0  0  0  0  0  0  0  0  0  0
    5.5931  -12.8705   24.9437 N   0  0  0  0  0  0  0  0  0  0  0  0
    6.5285  -12.8773   23.9644 C   0  0  0  0  0  0  0  0  0  0  0  0
    6.8349  -12.0150   22.9375 C   0  0  0  0  0  0  0  0  0  0  0  0
    7.8560  -12.2385   22.0579 C   0  0  0  0  0  0  0  0  0  0  0  0
    8.6124  -13.3773   22.2057 C   0  0  0  0  0  0  0  0  0  0  0  0
    8.3217  -14.2632   23.2353 C   0  0  0  0  0  0  0  0  0  0  0  0
    7.2899  -14.0411   24.1259 C   0  0  0  0  0  0  0  0  0  0  0  0
    8.4310  -17.7078   24.4657 C   0  0  0  0  0  0  0  0  0  0  0  0
    8.6234  -18.7521   25.1313 O   0  0  0  0  0  0  0  0  0  0  0  0
    9.4728  -17.2227   23.6279 N   0  0  0  0  0  0  0  0  0  0  0  0
   10.8365  -17.7851   23.7653 C   0  0  1  0  0  0  0  0  0  0  0  0
   11.6504  -17.3029   22.5698 C   0  0  0  0  0  0  0  0  0  0  0  0
   11.3889  -18.1131   21.3381 C   0  0  0  0  0  0  0  0  0  0  0  0
   12.1062  -17.6486   20.1314 C   0  0  0  0  0  0  0  0  0  0  0  0
   13.0965  -18.3368   19.7077 O   0  0  0  0  0  0  0  0  0  0  0  0
   11.4163  -17.4466   25.0597 C   0  0  0  0  0  0  0  0  0  0  0  0
   12.4330  -18.0345   25.5061 O   0  0  0  0  0  0  0  0  0  0  0  0
   11.8078  -16.5280   19.4080 O   0  0  0  0  0  0  0  0  0  0  0  0
    9.1621  -13.7965   29.2484 C   0  0  0  0  0  0  0  0  0  0  0  0
    9.7580  -15.0283   28.6569 C   0  0  0  0  0  0  0  0  0  0  0  0
   10.9314  -14.8357   27.7718 C   0  0  2  0  0  0  0  0  0  0  0  0
   10.4991  -13.9584   26.6105 C   0  0  0  0  0  0  0  0  0  0  0  0
   11.5291  -16.1056   27.2138 C   0  0  2  0  0  0  0  0  0  0  0  0
   10.8985  -16.4262   25.9387 N   0  0  0  0  0  0  0  0  0  0  0  0
   11.5171  -17.2199   28.1518 C   0  0  0  0  0  0  0  0  0  0  0  0
   10.7190  -18.1902   27.9416 O   0  0  0  0  0  0  0  0  0  0  0  0
   12.2997  -17.3531   29.2852 O   0  0  0  0  0  0  0  0  0  0  0  0
  2  1  1  1
  3  2  1  0
  3  4  1  0
  4  5  2  0
  5  6  1  0
  7  6  1  0
  8  7  2  0
  9  8  1  0
 10 11  1  0
 10  9  2  0
 11 12  2  0
 12  4  1  0
 12  7  1  0
 13 14  2  0
 13  2  1  0
 15 13  1  0
 16 15  1  0
 16 17  1  6
 18 17  1  0
 19 23  1  0
 19 18  1  0
 20 19  2  0
 21 29  1  0
 21 16  1  0
 22 21  2  0
 25 24  1  0
 26 25  1  0
 26 27  1  6
 28 26  1  0
 28 30  1  0
 28 29  1  6
 30 32  1  0
 31 30  2  0
M  END
$$$$
