WEI.pdb
     RDKit          3D

 32 33  0  0  1  0  0  0  0  0999 V2000
    6.9147  -18.3684   21.5506 N   0  0  0  0  0  0  0  0  0  0  0  0
    7.7008  -17.2203   21.9158 C   0  0  1  0  0  0  0  0  0  0  0  0
    6.8576  -16.0090   22.2824 C   0  0  0  0  0  0  0  0  0  0  0  0
    6.6907  -15.2348   21.0258 C   0  0  0  0  0  0  0  0  0  0  0  0
    5.7020  -15.3994   20.0829 C   0  0  0  0  0  0  0  0  0  0  0  0
    5.9326  -14.5295   19.0792 N   0  0  0  0  0  0  0  0  0  0  0  0
    7.0454  -13.8070   19.3507 C   0  0  0  0  0  0  0  0  0  0  0  0
    7.7122  -12.8039   18.6865 C   0  0  0  0  0  0  0  0  0  0  0  0
    8.8398  -12.2086   19.1767 C   0  0  0  0  0  0  0  0  0  0  0  0
    9.3308  -12.6310   20.3896 C   0  0  0  0  0  0  0  0  0  0  0  0
    8.6746  -13.6428   21.0789 C   0  0  0  0  0  0  0  0  0  0  0  0
    7.5349  -14.2474   20.5862 C   0  0  0  0  0  0  0  0  0  0  0  0
    8.4651  -17.5668   23.1596 C   0  0  0  0  0  0  0  0  0  0  0  0
    7.8630  -18.0495   24.1470 O   0  0  0  0  0  0  0  0  0  0  0  0
    9.8695  -17.3583   23.2431 N   0  0  0  0  0  0  0  0  0  0  0  0
   10.5645  -17.6010   24.5287 C   0  0  1  0  0  0  0  0  0  0  0  0
   11.9369  -18.1791   24.2024 C   0  0  0  0  0  0  0  0  0  0  0  0
   12.7346  -18.4831   25.4326 C   0  0  0  0  0  0  0  0  0  0  0  0
   14.0964  -18.9969   25.1722 C   0  0  0  0  0  0  0  0  0  0  0  0
   14.7888  -19.4180   26.1607 O   0  0  0  0  0  0  0  0  0  0  0  0
   10.6027  -16.3911   25.3417 C   0  0  0  0  0  0  0  0  0  0  0  0
   11.4367  -15.4755   25.1309 O   0  0  0  0  0  0  0  0  0  0  0  0
   14.7023  -19.0666   23.9491 O   0  0  0  0  0  0  0  0  0  0  0  0
    6.7925  -12.9437   26.9884 C   0  0  0  0  0  0  0  0  0  0  0  0
    7.6696  -14.1336   27.1817 C   0  0  0  0  0  0  0  0  0  0  0  0
    9.1311  -13.8851   27.1781 C   0  0  2  0  0  0  0  0  0  0  0  0
    9.5035  -13.3200   25.8190 C   0  0  0  0  0  0  0  0  0  0  0  0
    9.9888  -15.1001   27.4411 C   0  0  2  0  0  0  0  0  0  0  0  0
    9.7083  -16.1247   26.4423 N   0  0  0  0  0  0  0  0  0  0  0  0
    9.8983  -15.5962   28.8076 C   0  0  0  0  0  0  0  0  0  0  0  0
    9.5883  -16.8170   28.9979 O   0  0  0  0  0  0  0  0  0  0  0  0
   10.1178  -14.8707   29.9653 O   0  0  0  0  0  0  0  0  0  0  0  0
  2  1  1  1
  3  2  1  0
  3  4  1  0
  4  5  2  0
  5  6  1  0
  7  6  1  0
  8  7  2  0
  9  8  1  0
 10 11  1  0
 10  9  2  0
 11 12  2  0
 12  4  1  0
 12  7  1  0
 13 14  2  0
 13  2  1  0
 15 13  1  0
 16 15  1  0
 16 17  1  6
 18 17  1  0
 19 23  1  0
 19 18  1  0
 20 19  2  0
 21 29  1  0
 21 16  1  0
 22 21  2  0
 25 24  1  0
 26 25  1  0
 26 27  1  6
 28 26  1  0
 28 30  1  0
 28 29  1  6
 30 32  1  0
 31 30  2  0
M  END
$$$$
