WEI.pdb
     RDKit          3D

 32 33  0  0  1  0  0  0  0  0999 V2000
    5.8448  -17.9151   25.0021 N   0  0  0  0  0  0  0  0  0  0  0  0
    6.8451  -16.9184   24.7273 C   0  0  1  0  0  0  0  0  0  0  0  0
    7.1360  -16.0176   25.9175 C   0  0  0  0  0  0  0  0  0  0  0  0
    6.4819  -14.7191   25.6137 C   0  0  0  0  0  0  0  0  0  0  0  0
    5.3598  -14.2013   26.2191 C   0  0  0  0  0  0  0  0  0  0  0  0
    5.0705  -13.0251   25.6272 N   0  0  0  0  0  0  0  0  0  0  0  0
    5.9782  -12.7703   24.6550 C   0  0  0  0  0  0  0  0  0  0  0  0
    6.1540  -11.7342   23.7676 C   0  0  0  0  0  0  0  0  0  0  0  0
    7.1755  -11.6961   22.8612 C   0  0  0  0  0  0  0  0  0  0  0  0
    8.0690  -12.7409   22.8347 C   0  0  0  0  0  0  0  0  0  0  0  0
    7.9118  -13.7986   23.7212 C   0  0  0  0  0  0  0  0  0  0  0  0
    6.8800  -13.8411   24.6383 C   0  0  0  0  0  0  0  0  0  0  0  0
    8.1339  -17.6313   24.4409 C   0  0  0  0  0  0  0  0  0  0  0  0
    8.3985  -18.7031   25.0340 O   0  0  0  0  0  0  0  0  0  0  0  0
    9.0691  -17.1137   23.5028 N   0  0  0  0  0  0  0  0  0  0  0  0
   10.5029  -17.4606   23.6398 C   0  0  1  0  0  0  0  0  0  0  0  0
   11.2112  -16.9750   22.3802 C   0  0  0  0  0  0  0  0  0  0  0  0
   12.6874  -17.2220   22.4253 C   0  0  0  0  0  0  0  0  0  0  0  0
   13.3936  -16.9678   21.1513 C   0  0  0  0  0  0  0  0  0  0  0  0
   14.6603  -17.1340   21.1123 O   0  0  0  0  0  0  0  0  0  0  0  0
   11.0557  -16.9291   24.8800 C   0  0  0  0  0  0  0  0  0  0  0  0
   11.7363  -15.8733   24.9048 O   0  0  0  0  0  0  0  0  0  0  0  0
   12.8108  -16.5618   19.9835 O   0  0  0  0  0  0  0  0  0  0  0  0
    9.3689  -13.7142   27.6705 C   0  0  0  0  0  0  0  0  0  0  0  0
   10.3478  -14.7166   27.1610 C   0  0  0  0  0  0  0  0  0  0  0  0
   10.5126  -15.9491   27.9681 C   0  0  2  0  0  0  0  0  0  0  0  0
   11.0276  -15.5431   29.3374 C   0  0  0  0  0  0  0  0  0  0  0  0
   11.4575  -16.9743   27.3875 C   0  0  2  0  0  0  0  0  0  0  0  0
   10.8811  -17.5421   26.1745 N   0  0  0  0  0  0  0  0  0  0  0  0
   11.8832  -17.9866   28.3444 C   0  0  0  0  0  0  0  0  0  0  0  0
   11.3081  -19.1232   28.3317 O   0  0  0  0  0  0  0  0  0  0  0  0
   12.8751  -17.8538   29.3001 O   0  0  0  0  0  0  0  0  0  0  0  0
  2  1  1  1
  3  2  1  0
  3  4  1  0
  4  5  2  0
  5  6  1  0
  7  6  1  0
  8  7  2  0
  9  8  1  0
 10 11  1  0
 10  9  2  0
 11 12  2  0
 12  4  1  0
 12  7  1  0
 13 14  2  0
 13  2  1  0
 15 13  1  0
 16 15  1  0
 16 17  1  6
 18 17  1  0
 19 23  1  0
 19 18  1  0
 20 19  2  0
 21 29  1  0
 21 16  1  0
 22 21  2  0
 25 24  1  0
 26 25  1  0
 26 27  1  1
 28 26  1  0
 28 30  1  0
 28 29  1  6
 30 32  1  0
 31 30  2  0
M  END
$$$$
