WEI.pdb
     RDKit          3D

 32 33  0  0  1  0  0  0  0  0999 V2000
    6.9090  -18.2716   21.6939 N   0  0  0  0  0  0  0  0  0  0  0  0
    7.7033  -17.0979   21.9408 C   0  0  1  0  0  0  0  0  0  0  0  0
    6.8739  -15.8851   22.3334 C   0  0  0  0  0  0  0  0  0  0  0  0
    6.7020  -15.0907   21.0902 C   0  0  0  0  0  0  0  0  0  0  0  0
    5.7915  -15.3225   20.0848 C   0  0  0  0  0  0  0  0  0  0  0  0
    5.9899  -14.4015   19.1206 N   0  0  0  0  0  0  0  0  0  0  0  0
    7.0056  -13.5804   19.4786 C   0  0  0  0  0  0  0  0  0  0  0  0
    7.6040  -12.4944   18.8833 C   0  0  0  0  0  0  0  0  0  0  0  0
    8.6349  -11.8055   19.4570 C   0  0  0  0  0  0  0  0  0  0  0  0
    9.0954  -12.2161   20.6858 C   0  0  0  0  0  0  0  0  0  0  0  0
    8.5069  -13.3106   21.3065 C   0  0  0  0  0  0  0  0  0  0  0  0
    7.4652  -14.0099   20.7294 C   0  0  0  0  0  0  0  0  0  0  0  0
    8.5821  -17.3813   23.1234 C   0  0  0  0  0  0  0  0  0  0  0  0
    8.0660  -17.6381   24.2362 O   0  0  0  0  0  0  0  0  0  0  0  0
    9.9995  -17.3655   23.0082 N   0  0  0  0  0  0  0  0  0  0  0  0
   10.8289  -17.5498   24.2219 C   0  0  1  0  0  0  0  0  0  0  0  0
   12.2198  -17.9728   23.7630 C   0  0  0  0  0  0  0  0  0  0  0  0
   13.1770  -18.1189   24.9052 C   0  0  0  0  0  0  0  0  0  0  0  0
   14.5530  -18.4906   24.5120 C   0  0  0  0  0  0  0  0  0  0  0  0
   14.9804  -19.6562   24.8159 O   0  0  0  0  0  0  0  0  0  0  0  0
   10.8118  -16.3540   25.0562 C   0  0  0  0  0  0  0  0  0  0  0  0
   11.6154  -15.4055   24.8738 O   0  0  0  0  0  0  0  0  0  0  0  0
   15.4343  -17.6904   23.8402 O   0  0  0  0  0  0  0  0  0  0  0  0
    7.2331  -12.7335   26.4535 C   0  0  0  0  0  0  0  0  0  0  0  0
    7.9934  -14.0047   26.6219 C   0  0  0  0  0  0  0  0  0  0  0  0
    9.4439  -13.8757   26.8993 C   0  0  2  0  0  0  0  0  0  0  0  0
   10.0964  -13.2471   25.6810 C   0  0  0  0  0  0  0  0  0  0  0  0
   10.1559  -15.1718   27.2064 C   0  0  2  0  0  0  0  0  0  0  0  0
    9.8928  -16.1394   26.1478 N   0  0  0  0  0  0  0  0  0  0  0  0
    9.8756  -15.6928   28.5374 C   0  0  0  0  0  0  0  0  0  0  0  0
   10.1238  -14.9587   29.5485 O   0  0  0  0  0  0  0  0  0  0  0  0
    9.3518  -16.9365   28.8436 O   0  0  0  0  0  0  0  0  0  0  0  0
  2  1  1  1
  3  2  1  0
  3  4  1  0
  4  5  2  0
  5  6  1  0
  7  6  1  0
  8  7  2  0
  9  8  1  0
 10 11  1  0
 10  9  2  0
 11 12  2  0
 12  4  1  0
 12  7  1  0
 13 14  2  0
 13  2  1  0
 15 13  1  0
 16 15  1  0
 16 17  1  6
 18 17  1  0
 19 23  1  0
 19 18  1  0
 20 19  2  0
 21 29  1  0
 21 16  1  0
 22 21  2  0
 25 24  1  0
 26 25  1  0
 26 27  1  6
 28 26  1  0
 28 30  1  0
 28 29  1  6
 30 32  1  0
 31 30  2  0
M  END
$$$$
