WEI.pdb
     RDKit          3D

 32 33  0  0  1  0  0  0  0  0999 V2000
    6.9610  -17.8030   21.2546 N   0  0  0  0  0  0  0  0  0  0  0  0
    7.4850  -16.8046   22.1479 C   0  0  1  0  0  0  0  0  0  0  0  0
    6.4196  -16.1701   23.0283 C   0  0  0  0  0  0  0  0  0  0  0  0
    6.7579  -14.7255   23.0985 C   0  0  0  0  0  0  0  0  0  0  0  0
    7.2726  -13.9506   22.0844 C   0  0  0  0  0  0  0  0  0  0  0  0
    7.4741  -12.7087   22.5686 N   0  0  0  0  0  0  0  0  0  0  0  0
    7.1020  -12.6622   23.8698 C   0  0  0  0  0  0  0  0  0  0  0  0
    7.0910  -11.6675   24.8197 C   0  0  0  0  0  0  0  0  0  0  0  0
    6.6513  -11.8643   26.0981 C   0  0  0  0  0  0  0  0  0  0  0  0
    6.1988  -13.1137   26.4517 C   0  0  0  0  0  0  0  0  0  0  0  0
    6.2006  -14.1343   25.5096 C   0  0  0  0  0  0  0  0  0  0  0  0
    6.6450  -13.9394   24.2166 C   0  0  0  0  0  0  0  0  0  0  0  0
    8.4300  -17.4871   23.0924 C   0  0  0  0  0  0  0  0  0  0  0  0
    8.0344  -18.4616   23.7740 O   0  0  0  0  0  0  0  0  0  0  0  0
    9.7759  -17.0495   23.2320 N   0  0  0  0  0  0  0  0  0  0  0  0
   10.6816  -17.7698   24.1571 C   0  0  1  0  0  0  0  0  0  0  0  0
   11.8681  -18.2658   23.3385 C   0  0  0  0  0  0  0  0  0  0  0  0
   12.5343  -17.1635   22.5747 C   0  0  0  0  0  0  0  0  0  0  0  0
   13.7266  -17.5802   21.8058 C   0  0  0  0  0  0  0  0  0  0  0  0
   14.8333  -17.7269   22.4282 O   0  0  0  0  0  0  0  0  0  0  0  0
   11.0467  -16.9318   25.2932 C   0  0  0  0  0  0  0  0  0  0  0  0
   11.9143  -16.0278   25.1998 O   0  0  0  0  0  0  0  0  0  0  0  0
   13.7623  -17.8287   20.4622 O   0  0  0  0  0  0  0  0  0  0  0  0
    9.0351  -13.0675   27.4996 C   0  0  0  0  0  0  0  0  0  0  0  0
    9.9111  -14.2156   27.1297 C   0  0  0  0  0  0  0  0  0  0  0  0
   10.1532  -15.2289   28.1843 C   0  0  2  0  0  0  0  0  0  0  0  0
   10.8014  -14.5268   29.3641 C   0  0  0  0  0  0  0  0  0  0  0  0
   11.0350  -16.3842   27.7733 C   0  0  2  0  0  0  0  0  0  0  0  0
   10.4632  -17.0480   26.6077 N   0  0  0  0  0  0  0  0  0  0  0  0
   11.3398  -17.3040   28.8608 C   0  0  0  0  0  0  0  0  0  0  0  0
   10.5700  -18.3001   29.0558 O   0  0  0  0  0  0  0  0  0  0  0  0
   12.4062  -17.2200   29.7385 O   0  0  0  0  0  0  0  0  0  0  0  0
  2  1  1  6
  3  2  1  0
  3  4  1  0
  4  5  2  0
  5  6  1  0
  7  6  1  0
  8  7  2  0
  9  8  1  0
 10 11  1  0
 10  9  2  0
 11 12  2  0
 12  4  1  0
 12  7  1  0
 13 14  2  0
 13  2  1  0
 15 13  1  0
 16 15  1  0
 16 17  1  6
 18 17  1  0
 19 23  1  0
 19 18  1  0
 20 19  2  0
 21 29  1  0
 21 16  1  0
 22 21  2  0
 25 24  1  0
 26 25  1  0
 26 27  1  1
 28 26  1  0
 28 30  1  0
 28 29  1  6
 30 32  1  0
 31 30  2  0
M  END
$$$$
