WEI.pdb
     RDKit          3D

 32 33  0  0  1  0  0  0  0  0999 V2000
    6.0895  -17.5639   24.3134 N   0  0  0  0  0  0  0  0  0  0  0  0
    7.1790  -16.6323   24.4338 C   0  0  1  0  0  0  0  0  0  0  0  0
    7.3639  -16.1064   25.8487 C   0  0  0  0  0  0  0  0  0  0  0  0
    6.6391  -14.8109   25.8986 C   0  0  0  0  0  0  0  0  0  0  0  0
    5.4726  -14.5462   26.5791 C   0  0  0  0  0  0  0  0  0  0  0  0
    5.1264  -13.2667   26.3333 N   0  0  0  0  0  0  0  0  0  0  0  0
    6.0406  -12.6984   25.5115 C   0  0  0  0  0  0  0  0  0  0  0  0
    6.1744  -11.4446   24.9621 C   0  0  0  0  0  0  0  0  0  0  0  0
    7.2138  -11.0966   24.1466 C   0  0  0  0  0  0  0  0  0  0  0  0
    8.1702  -12.0427   23.8621 C   0  0  0  0  0  0  0  0  0  0  0  0
    8.0562  -13.3160   24.4052 C   0  0  0  0  0  0  0  0  0  0  0  0
    7.0066  -13.6717   25.2293 C   0  0  0  0  0  0  0  0  0  0  0  0
    8.4466  -17.3675   24.1116 C   0  0  0  0  0  0  0  0  0  0  0  0
    8.6251  -18.5261   24.5549 O   0  0  0  0  0  0  0  0  0  0  0  0
    9.4580  -16.7742   23.3069 N   0  0  0  0  0  0  0  0  0  0  0  0
   10.8544  -17.2550   23.4238 C   0  0  1  0  0  0  0  0  0  0  0  0
   11.6250  -16.7112   22.2261 C   0  0  0  0  0  0  0  0  0  0  0  0
   13.0509  -17.1682   22.2105 C   0  0  0  0  0  0  0  0  0  0  0  0
   13.8759  -16.5754   21.1361 C   0  0  0  0  0  0  0  0  0  0  0  0
   13.5047  -16.7350   19.9234 O   0  0  0  0  0  0  0  0  0  0  0  0
   11.4267  -16.8972   24.7163 C   0  0  0  0  0  0  0  0  0  0  0  0
   12.5789  -16.4070   24.8195 O   0  0  0  0  0  0  0  0  0  0  0  0
   15.0247  -15.8572   21.3169 O   0  0  0  0  0  0  0  0  0  0  0  0
    9.4341  -13.6965   27.0437 C   0  0  0  0  0  0  0  0  0  0  0  0
   10.6928  -14.3473   27.5067 C   0  0  0  0  0  0  0  0  0  0  0  0
   10.5732  -15.7381   28.0054 C   0  0  2  0  0  0  0  0  0  0  0  0
   11.0114  -15.7505   29.4590 C   0  0  0  0  0  0  0  0  0  0  0  0
   11.3892  -16.7619   27.2523 C   0  0  2  0  0  0  0  0  0  0  0  0
   10.7464  -17.0614   25.9782 N   0  0  0  0  0  0  0  0  0  0  0  0
   11.6952  -17.9545   28.0307 C   0  0  0  0  0  0  0  0  0  0  0  0
   12.6972  -17.9335   28.8170 O   0  0  0  0  0  0  0  0  0  0  0  0
   10.9997  -19.1507   28.0159 O   0  0  0  0  0  0  0  0  0  0  0  0
  2  1  1  1
  3  2  1  0
  3  4  1  0
  4  5  2  0
  5  6  1  0
  7  6  1  0
  8  7  2  0
  9  8  1  0
 10 11  1  0
 10  9  2  0
 11 12  2  0
 12  4  1  0
 12  7  1  0
 13 14  2  0
 13  2  1  0
 15 13  1  0
 16 15  1  0
 16 17  1  6
 18 17  1  0
 19 23  1  0
 19 18  1  0
 20 19  2  0
 21 29  1  0
 21 16  1  0
 22 21  2  0
 25 24  1  0
 26 25  1  0
 26 27  1  1
 28 26  1  0
 28 30  1  0
 28 29  1  6
 30 32  1  0
 31 30  2  0
M  END
$$$$
