WEI.pdb
     RDKit          3D

 32 33  0  0  1  0  0  0  0  0999 V2000
    6.4698  -17.2145   24.4133 N   0  0  0  0  0  0  0  0  0  0  0  0
    7.6769  -16.4436   24.2787 C   0  0  1  0  0  0  0  0  0  0  0  0
    8.0755  -15.7262   25.5591 C   0  0  0  0  0  0  0  0  0  0  0  0
    7.0492  -14.6737   25.7714 C   0  0  0  0  0  0  0  0  0  0  0  0
    5.8332  -14.8244   26.3979 C   0  0  0  0  0  0  0  0  0  0  0  0
    5.1865  -13.6427   26.3452 N   0  0  0  0  0  0  0  0  0  0  0  0
    5.9548  -12.7326   25.7007 C   0  0  0  0  0  0  0  0  0  0  0  0
    5.7885  -11.4052   25.3809 C   0  0  0  0  0  0  0  0  0  0  0  0
    6.7328  -10.6762   24.7151 C   0  0  0  0  0  0  0  0  0  0  0  0
    7.9032  -11.2975   24.3479 C   0  0  0  0  0  0  0  0  0  0  0  0
    8.0939  -12.6375   24.6597 C   0  0  0  0  0  0  0  0  0  0  0  0
    7.1413  -13.3779   25.3320 C   0  0  0  0  0  0  0  0  0  0  0  0
    8.7983  -17.3973   23.9889 C   0  0  0  0  0  0  0  0  0  0  0  0
    8.7877  -18.5439   24.4947 O   0  0  0  0  0  0  0  0  0  0  0  0
    9.8815  -17.0261   23.1455 N   0  0  0  0  0  0  0  0  0  0  0  0
   11.2442  -17.5187   23.4541 C   0  0  1  0  0  0  0  0  0  0  0  0
   12.1309  -17.1832   22.2602 C   0  0  0  0  0  0  0  0  0  0  0  0
   11.5260  -17.6174   20.9611 C   0  0  0  0  0  0  0  0  0  0  0  0
   12.3195  -17.2655   19.7641 C   0  0  0  0  0  0  0  0  0  0  0  0
   11.7010  -17.0188   18.6731 O   0  0  0  0  0  0  0  0  0  0  0  0
   11.7214  -16.9827   24.7234 C   0  0  0  0  0  0  0  0  0  0  0  0
   12.5234  -16.0170   24.7769 O   0  0  0  0  0  0  0  0  0  0  0  0
   13.6824  -17.1770   19.7083 O   0  0  0  0  0  0  0  0  0  0  0  0
    9.1541  -15.0661   29.0036 C   0  0  0  0  0  0  0  0  0  0  0  0
    9.8091  -16.0810   28.1297 C   0  0  0  0  0  0  0  0  0  0  0  0
   11.2363  -15.8495   27.8028 C   0  0  2  0  0  0  0  0  0  0  0  0
   11.3033  -14.7316   26.7777 C   0  0  0  0  0  0  0  0  0  0  0  0
   11.9702  -17.0483   27.2502 C   0  0  2  0  0  0  0  0  0  0  0  0
   11.3306  -17.4899   26.0165 N   0  0  0  0  0  0  0  0  0  0  0  0
   12.1473  -18.1233   28.2170 C   0  0  0  0  0  0  0  0  0  0  0  0
   11.5592  -19.2348   28.0131 O   0  0  0  0  0  0  0  0  0  0  0  0
   12.9072  -18.0773   29.3726 O   0  0  0  0  0  0  0  0  0  0  0  0
  2  1  1  1
  3  2  1  0
  3  4  1  0
  4  5  2  0
  5  6  1  0
  7  6  1  0
  8  7  2  0
  9  8  1  0
 10 11  1  0
 10  9  2  0
 11 12  2  0
 12  4  1  0
 12  7  1  0
 13 14  2  0
 13  2  1  0
 15 13  1  0
 16 15  1  0
 16 17  1  6
 18 17  1  0
 19 23  1  0
 19 18  1  0
 20 19  2  0
 21 29  1  0
 21 16  1  0
 22 21  2  0
 25 24  1  0
 26 25  1  0
 26 27  1  6
 28 26  1  0
 28 30  1  0
 28 29  1  6
 30 32  1  0
 31 30  2  0
M  END
$$$$
