WEI.pdb
     RDKit          3D

 32 33  0  0  1  0  0  0  0  0999 V2000
    6.0441  -18.1789   24.4455 N   0  0  0  0  0  0  0  0  0  0  0  0
    7.0106  -17.1197   24.3302 C   0  0  1  0  0  0  0  0  0  0  0  0
    7.3011  -16.4273   25.6527 C   0  0  0  0  0  0  0  0  0  0  0  0
    6.5127  -15.1686   25.6340 C   0  0  0  0  0  0  0  0  0  0  0  0
    5.2912  -14.9537   26.2303 C   0  0  0  0  0  0  0  0  0  0  0  0
    4.9010  -13.6959   25.9425 N   0  0  0  0  0  0  0  0  0  0  0  0
    5.8403  -13.0929   25.1756 C   0  0  0  0  0  0  0  0  0  0  0  0
    5.9504  -11.8406   24.6176 C   0  0  0  0  0  0  0  0  0  0  0  0
    7.0247  -11.4514   23.8688 C   0  0  0  0  0  0  0  0  0  0  0  0
    8.0429  -12.3525   23.6636 C   0  0  0  0  0  0  0  0  0  0  0  0
    7.9541  -13.6234   24.2170 C   0  0  0  0  0  0  0  0  0  0  0  0
    6.8693  -14.0207   24.9738 C   0  0  0  0  0  0  0  0  0  0  0  0
    8.3124  -17.7331   23.9055 C   0  0  0  0  0  0  0  0  0  0  0  0
    8.6045  -18.8942   24.2760 O   0  0  0  0  0  0  0  0  0  0  0  0
    9.2292  -17.0205   23.0845 N   0  0  0  0  0  0  0  0  0  0  0  0
   10.6781  -17.3100   23.1932 C   0  0  1  0  0  0  0  0  0  0  0  0
   11.3445  -16.7796   21.9289 C   0  0  0  0  0  0  0  0  0  0  0  0
   12.8258  -16.9985   21.9305 C   0  0  0  0  0  0  0  0  0  0  0  0
   13.5144  -16.5612   20.6972 C   0  0  0  0  0  0  0  0  0  0  0  0
   13.6739  -17.4092   19.7542 O   0  0  0  0  0  0  0  0  0  0  0  0
   11.2298  -16.7723   24.4312 C   0  0  0  0  0  0  0  0  0  0  0  0
   11.7573  -15.6332   24.4834 O   0  0  0  0  0  0  0  0  0  0  0  0
   14.0099  -15.3094   20.4615 O   0  0  0  0  0  0  0  0  0  0  0  0
   10.9002  -13.7193   28.9104 C   0  0  0  0  0  0  0  0  0  0  0  0
   11.6531  -14.9205   28.4492 C   0  0  0  0  0  0  0  0  0  0  0  0
   11.1153  -15.6208   27.2585 C   0  0  2  0  0  0  0  0  0  0  0  0
    9.6534  -15.9336   27.5236 C   0  0  0  0  0  0  0  0  0  0  0  0
   11.8206  -16.9067   26.8978 C   0  0  2  0  0  0  0  0  0  0  0  0
   11.2249  -17.4723   25.6930 N   0  0  0  0  0  0  0  0  0  0  0  0
   11.8988  -17.8598   27.9965 C   0  0  0  0  0  0  0  0  0  0  0  0
   12.5601  -17.5425   29.0381 O   0  0  0  0  0  0  0  0  0  0  0  0
   11.3176  -19.1148   28.0434 O   0  0  0  0  0  0  0  0  0  0  0  0
  2  1  1  1
  3  2  1  0
  3  4  1  0
  4  5  2  0
  5  6  1  0
  7  6  1  0
  8  7  2  0
  9  8  1  0
 10 11  1  0
 10  9  2  0
 11 12  2  0
 12  4  1  0
 12  7  1  0
 13 14  2  0
 13  2  1  0
 15 13  1  0
 16 15  1  0
 16 17  1  6
 18 17  1  0
 19 23  1  0
 19 18  1  0
 20 19  2  0
 21 29  1  0
 21 16  1  0
 22 21  2  0
 25 24  1  0
 26 25  1  0
 26 27  1  1
 28 26  1  0
 28 30  1  0
 28 29  1  6
 30 32  1  0
 31 30  2  0
M  END
$$$$
