WEI.pdb
     RDKit          3D

 32 33  0  0  1  0  0  0  0  0999 V2000
    7.2880  -17.5560   21.0218 N   0  0  0  0  0  0  0  0  0  0  0  0
    7.7207  -16.4387   21.8179 C   0  0  1  0  0  0  0  0  0  0  0  0
    6.5918  -15.7901   22.6038 C   0  0  0  0  0  0  0  0  0  0  0  0
    7.0227  -14.3909   22.8541 C   0  0  0  0  0  0  0  0  0  0  0  0
    7.7716  -13.5978   22.0151 C   0  0  0  0  0  0  0  0  0  0  0  0
    7.9774  -12.4160   22.6302 N   0  0  0  0  0  0  0  0  0  0  0  0
    7.3796  -12.4260   23.8454 C   0  0  0  0  0  0  0  0  0  0  0  0
    7.2732  -11.5027   24.8593 C   0  0  0  0  0  0  0  0  0  0  0  0
    6.5945  -11.7466   26.0196 C   0  0  0  0  0  0  0  0  0  0  0  0
    5.9899  -12.9709   26.1815 C   0  0  0  0  0  0  0  0  0  0  0  0
    6.0838  -13.9197   25.1714 C   0  0  0  0  0  0  0  0  0  0  0  0
    6.7696  -13.6770   23.9974 C   0  0  0  0  0  0  0  0  0  0  0  0
    8.6798  -16.9565   22.8490 C   0  0  0  0  0  0  0  0  0  0  0  0
    8.2468  -17.5840   23.8437 O   0  0  0  0  0  0  0  0  0  0  0  0
   10.0811  -16.7499   22.7211 N   0  0  0  0  0  0  0  0  0  0  0  0
   10.9994  -17.3702   23.7043 C   0  0  1  0  0  0  0  0  0  0  0  0
   12.3175  -17.6417   22.9881 C   0  0  0  0  0  0  0  0  0  0  0  0
   13.3123  -18.3335   23.8677 C   0  0  0  0  0  0  0  0  0  0  0  0
   14.6053  -18.6348   23.2169 C   0  0  0  0  0  0  0  0  0  0  0  0
   14.6378  -18.7382   21.9434 O   0  0  0  0  0  0  0  0  0  0  0  0
   11.1265  -16.5433   24.8987 C   0  0  0  0  0  0  0  0  0  0  0  0
   11.8092  -15.4885   24.9065 O   0  0  0  0  0  0  0  0  0  0  0  0
   15.7977  -18.8189   23.8592 O   0  0  0  0  0  0  0  0  0  0  0  0
    8.2671  -13.4884   27.7296 C   0  0  0  0  0  0  0  0  0  0  0  0
    9.3780  -14.3133   27.1746 C   0  0  0  0  0  0  0  0  0  0  0  0
    9.8689  -15.4213   28.0284 C   0  0  2  0  0  0  0  0  0  0  0  0
   10.3929  -14.8171   29.3189 C   0  0  0  0  0  0  0  0  0  0  0  0
   10.9627  -16.2651   27.4179 C   0  0  2  0  0  0  0  0  0  0  0  0
   10.4960  -16.8405   26.1621 N   0  0  0  0  0  0  0  0  0  0  0  0
   11.5142  -17.2581   28.3298 C   0  0  0  0  0  0  0  0  0  0  0  0
   10.9502  -18.3975   28.4102 O   0  0  0  0  0  0  0  0  0  0  0  0
   12.6190  -17.1035   29.1485 O   0  0  0  0  0  0  0  0  0  0  0  0
  2  1  1  1
  3  2  1  0
  3  4  1  0
  4  5  2  0
  5  6  1  0
  7  6  1  0
  8  7  2  0
  9  8  1  0
 10 11  1  0
 10  9  2  0
 11 12  2  0
 12  4  1  0
 12  7  1  0
 13 14  2  0
 13  2  1  0
 15 13  1  0
 16 15  1  0
 16 17  1  6
 18 17  1  0
 19 23  1  0
 19 18  1  0
 20 19  2  0
 21 29  1  0
 21 16  1  0
 22 21  2  0
 25 24  1  0
 26 25  1  0
 26 27  1  1
 28 26  1  0
 28 30  1  0
 28 29  1  6
 30 32  1  0
 31 30  2  0
M  END
$$$$
