WEI.pdb
     RDKit          3D

 32 33  0  0  1  0  0  0  0  0999 V2000
    7.3762  -17.9011   21.1831 N   0  0  0  0  0  0  0  0  0  0  0  0
    8.2196  -16.8393   21.6632 C   0  0  1  0  0  0  0  0  0  0  0  0
    7.4408  -15.6144   22.1170 C   0  0  0  0  0  0  0  0  0  0  0  0
    7.1659  -14.8289   20.8867 C   0  0  0  0  0  0  0  0  0  0  0  0
    6.0407  -14.9020   20.0978 C   0  0  0  0  0  0  0  0  0  0  0  0
    6.2027  -14.0578   19.0594 N   0  0  0  0  0  0  0  0  0  0  0  0
    7.4044  -13.4410   19.1582 C   0  0  0  0  0  0  0  0  0  0  0  0
    8.0573  -12.5044   18.3912 C   0  0  0  0  0  0  0  0  0  0  0  0
    9.2935  -12.0156   18.7062 C   0  0  0  0  0  0  0  0  0  0  0  0
    9.9136  -12.4808   19.8419 C   0  0  0  0  0  0  0  0  0  0  0  0
    9.2739  -13.4271   20.6323 C   0  0  0  0  0  0  0  0  0  0  0  0
    8.0246  -13.9241   20.3167 C   0  0  0  0  0  0  0  0  0  0  0  0
    8.9298  -17.3377   22.8872 C   0  0  0  0  0  0  0  0  0  0  0  0
    8.2672  -17.7448   23.8700 O   0  0  0  0  0  0  0  0  0  0  0  0
   10.3501  -17.3592   22.9572 N   0  0  0  0  0  0  0  0  0  0  0  0
   11.0091  -17.8004   24.2086 C   0  0  1  0  0  0  0  0  0  0  0  0
   12.3509  -18.4138   23.8248 C   0  0  0  0  0  0  0  0  0  0  0  0
   13.1129  -18.9082   25.0151 C   0  0  0  0  0  0  0  0  0  0  0  0
   14.4124  -19.5378   24.6966 C   0  0  0  0  0  0  0  0  0  0  0  0
   14.9588  -19.2734   23.5717 O   0  0  0  0  0  0  0  0  0  0  0  0
   11.1038  -16.7052   25.1666 C   0  0  0  0  0  0  0  0  0  0  0  0
   11.9676  -15.7995   25.0565 O   0  0  0  0  0  0  0  0  0  0  0  0
   15.1026  -20.3961   25.5060 O   0  0  0  0  0  0  0  0  0  0  0  0
    7.5477  -13.3563   26.0294 C   0  0  0  0  0  0  0  0  0  0  0  0
    8.9070  -13.9642   26.1026 C   0  0  0  0  0  0  0  0  0  0  0  0
    9.2789  -14.5986   27.3897 C   0  0  2  0  0  0  0  0  0  0  0  0
    9.5903  -13.4917   28.3812 C   0  0  0  0  0  0  0  0  0  0  0  0
   10.4661  -15.5301   27.3261 C   0  0  2  0  0  0  0  0  0  0  0  0
   10.2365  -16.5496   26.3092 N   0  0  0  0  0  0  0  0  0  0  0  0
   10.8426  -16.0880   28.6179 C   0  0  0  0  0  0  0  0  0  0  0  0
   10.4524  -17.2635   28.9158 O   0  0  0  0  0  0  0  0  0  0  0  0
   11.6023  -15.4686   29.5947 O   0  0  0  0  0  0  0  0  0  0  0  0
  2  1  1  1
  3  2  1  0
  3  4  1  0
  4  5  2  0
  5  6  1  0
  7  6  1  0
  8  7  2  0
  9  8  1  0
 10 11  1  0
 10  9  2  0
 11 12  2  0
 12  4  1  0
 12  7  1  0
 13 14  2  0
 13  2  1  0
 15 13  1  0
 16 15  1  0
 16 17  1  6
 18 17  1  0
 19 23  1  0
 19 18  1  0
 20 19  2  0
 21 29  1  0
 21 16  1  0
 22 21  2  0
 25 24  1  0
 26 25  1  0
 26 27  1  1
 28 26  1  0
 28 30  1  0
 28 29  1  6
 30 32  1  0
 31 30  2  0
M  END
$$$$
