WEI.pdb
     RDKit          3D

 32 33  0  0  1  0  0  0  0  0999 V2000
    7.0667  -18.9443   21.5110 N   0  0  0  0  0  0  0  0  0  0  0  0
    7.5939  -17.6097   21.6125 C   0  0  1  0  0  0  0  0  0  0  0  0
    6.5784  -16.6021   22.1285 C   0  0  0  0  0  0  0  0  0  0  0  0
    6.9873  -15.2891   21.5672 C   0  0  0  0  0  0  0  0  0  0  0  0
    7.2389  -15.0017   20.2451 C   0  0  0  0  0  0  0  0  0  0  0  0
    7.6207  -13.7114   20.1632 N   0  0  0  0  0  0  0  0  0  0  0  0
    7.6214  -13.1583   21.3994 C   0  0  0  0  0  0  0  0  0  0  0  0
    7.9153  -11.9028   21.8781 C   0  0  0  0  0  0  0  0  0  0  0  0
    7.8340  -11.5732   23.2014 C   0  0  0  0  0  0  0  0  0  0  0  0
    7.4402  -12.5404   24.0959 C   0  0  0  0  0  0  0  0  0  0  0  0
    7.1383  -13.8159   23.6360 C   0  0  0  0  0  0  0  0  0  0  0  0
    7.2201  -14.1530   22.2992 C   0  0  0  0  0  0  0  0  0  0  0  0
    8.6928  -17.6288   22.6338 C   0  0  0  0  0  0  0  0  0  0  0  0
    8.5352  -18.2561   23.7072 O   0  0  0  0  0  0  0  0  0  0  0  0
    9.9197  -16.9458   22.4085 N   0  0  0  0  0  0  0  0  0  0  0  0
   11.0195  -17.0849   23.3913 C   0  0  1  0  0  0  0  0  0  0  0  0
   12.3322  -16.9559   22.6270 C   0  0  0  0  0  0  0  0  0  0  0  0
   12.9228  -18.2874   22.2796 C   0  0  0  0  0  0  0  0  0  0  0  0
   14.2316  -18.2209   21.5948 C   0  0  0  0  0  0  0  0  0  0  0  0
   14.7001  -19.2878   21.0695 O   0  0  0  0  0  0  0  0  0  0  0  0
   10.8687  -16.1340   24.4864 C   0  0  0  0  0  0  0  0  0  0  0  0
   11.1895  -14.9253   24.3652 O   0  0  0  0  0  0  0  0  0  0  0  0
   15.0087  -17.1039   21.4663 O   0  0  0  0  0  0  0  0  0  0  0  0
    8.4348  -12.3724   27.7794 C   0  0  0  0  0  0  0  0  0  0  0  0
    9.3167  -13.5595   27.9675 C   0  0  0  0  0  0  0  0  0  0  0  0
    9.3153  -14.5635   26.8768 C   0  0  2  0  0  0  0  0  0  0  0  0
    8.0009  -15.3205   26.9429 C   0  0  0  0  0  0  0  0  0  0  0  0
   10.4453  -15.5644   26.9251 C   0  0  2  0  0  0  0  0  0  0  0  0
   10.3463  -16.4721   25.7883 N   0  0  0  0  0  0  0  0  0  0  0  0
   10.5586  -16.2585   28.2006 C   0  0  0  0  0  0  0  0  0  0  0  0
   10.1414  -17.4592   28.2850 O   0  0  0  0  0  0  0  0  0  0  0  0
   11.0858  -15.7484   29.3740 O   0  0  0  0  0  0  0  0  0  0  0  0
  2  1  1  1
  3  2  1  0
  3  4  1  0
  4  5  2  0
  5  6  1  0
  7  6  1  0
  8  7  2  0
  9  8  1  0
 10 11  1  0
 10  9  2  0
 11 12  2  0
 12  4  1  0
 12  7  1  0
 13 14  2  0
 13  2  1  0
 15 13  1  0
 16 15  1  0
 16 17  1  6
 18 17  1  0
 19 23  1  0
 19 18  1  0
 20 19  2  0
 21 29  1  0
 21 16  1  0
 22 21  2  0
 25 24  1  0
 26 25  1  0
 26 27  1  1
 28 26  1  0
 28 30  1  0
 28 29  1  6
 30 32  1  0
 31 30  2  0
M  END
$$$$
