WEI.pdb
     RDKit          3D

 32 33  0  0  1  0  0  0  0  0999 V2000
    7.0845  -17.6377   21.2461 N   0  0  0  0  0  0  0  0  0  0  0  0
    7.6262  -16.5343   21.9934 C   0  0  1  0  0  0  0  0  0  0  0  0
    6.6358  -15.9354   22.9800 C   0  0  0  0  0  0  0  0  0  0  0  0
    7.0454  -14.5188   23.1575 C   0  0  0  0  0  0  0  0  0  0  0  0
    7.7604  -13.7510   22.2669 C   0  0  0  0  0  0  0  0  0  0  0  0
    7.9572  -12.5392   22.8237 N   0  0  0  0  0  0  0  0  0  0  0  0
    7.3868  -12.5051   24.0515 C   0  0  0  0  0  0  0  0  0  0  0  0
    7.2854  -11.5390   25.0253 C   0  0  0  0  0  0  0  0  0  0  0  0
    6.6374  -11.7425   26.2106 C   0  0  0  0  0  0  0  0  0  0  0  0
    6.0599  -12.9689   26.4410 C   0  0  0  0  0  0  0  0  0  0  0  0
    6.1494  -13.9604   25.4724 C   0  0  0  0  0  0  0  0  0  0  0  0
    6.8043  -13.7587   24.2733 C   0  0  0  0  0  0  0  0  0  0  0  0
    8.7559  -17.0593   22.8296 C   0  0  0  0  0  0  0  0  0  0  0  0
    8.5098  -17.7332   23.8572 O   0  0  0  0  0  0  0  0  0  0  0  0
   10.1108  -16.8078   22.4785 N   0  0  0  0  0  0  0  0  0  0  0  0
   11.1930  -17.2869   23.3697 C   0  0  1  0  0  0  0  0  0  0  0  0
   12.5045  -17.1586   22.6031 C   0  0  0  0  0  0  0  0  0  0  0  0
   13.0070  -18.4794   22.1082 C   0  0  0  0  0  0  0  0  0  0  0  0
   13.9468  -18.3936   20.9699 C   0  0  0  0  0  0  0  0  0  0  0  0
   15.0778  -17.8273   21.1540 O   0  0  0  0  0  0  0  0  0  0  0  0
   11.1739  -16.5809   24.6454 C   0  0  0  0  0  0  0  0  0  0  0  0
   11.4072  -15.3490   24.7261 O   0  0  0  0  0  0  0  0  0  0  0  0
   13.7188  -18.8709   19.7095 O   0  0  0  0  0  0  0  0  0  0  0  0
    9.5735  -13.6962   29.1544 C   0  0  0  0  0  0  0  0  0  0  0  0
   10.5020  -14.8118   28.8139 C   0  0  0  0  0  0  0  0  0  0  0  0
   10.2753  -15.4871   27.5139 C   0  0  2  0  0  0  0  0  0  0  0  0
    8.8771  -16.0787   27.5346 C   0  0  0  0  0  0  0  0  0  0  0  0
   11.2546  -16.5886   27.1840 C   0  0  2  0  0  0  0  0  0  0  0  0
   10.8898  -17.2061   25.9145 N   0  0  0  0  0  0  0  0  0  0  0  0
   11.4315  -17.5560   28.2585 C   0  0  0  0  0  0  0  0  0  0  0  0
   12.0503  -17.1963   29.3123 O   0  0  0  0  0  0  0  0  0  0  0  0
   10.9899  -18.8674   28.2694 O   0  0  0  0  0  0  0  0  0  0  0  0
  2  1  1  1
  3  2  1  0
  3  4  1  0
  4  5  2  0
  5  6  1  0
  7  6  1  0
  8  7  2  0
  9  8  1  0
 10 11  1  0
 10  9  2  0
 11 12  2  0
 12  4  1  0
 12  7  1  0
 13 14  2  0
 13  2  1  0
 15 13  1  0
 16 15  1  0
 16 17  1  6
 18 17  1  0
 19 23  1  0
 19 18  1  0
 20 19  2  0
 21 29  1  0
 21 16  1  0
 22 21  2  0
 25 24  1  0
 26 25  1  0
 26 27  1  1
 28 26  1  0
 28 30  1  0
 28 29  1  6
 30 32  1  0
 31 30  2  0
M  END
$$$$
