WEI.pdb
     RDKit          3D

 32 33  0  0  1  0  0  0  0  0999 V2000
    6.1220  -18.7866   24.1087 N   0  0  0  0  0  0  0  0  0  0  0  0
    6.7292  -17.4839   24.1688 C   0  0  1  0  0  0  0  0  0  0  0  0
    6.1147  -16.5849   25.2303 C   0  0  0  0  0  0  0  0  0  0  0  0
    6.4513  -15.1947   24.8300 C   0  0  0  0  0  0  0  0  0  0  0  0
    7.1442  -14.8069   23.7060 C   0  0  0  0  0  0  0  0  0  0  0  0
    7.2714  -13.4652   23.7356 N   0  0  0  0  0  0  0  0  0  0  0  0
    6.6775  -12.9768   24.8504 C   0  0  0  0  0  0  0  0  0  0  0  0
    6.5111  -11.7105   25.3610 C   0  0  0  0  0  0  0  0  0  0  0  0
    5.8521  -11.4608   26.5313 C   0  0  0  0  0  0  0  0  0  0  0  0
    5.3310  -12.5236   27.2310 C   0  0  0  0  0  0  0  0  0  0  0  0
    5.4867  -13.8118   26.7353 C   0  0  0  0  0  0  0  0  0  0  0  0
    6.1529  -14.0683   25.5530 C   0  0  0  0  0  0  0  0  0  0  0  0
    8.1611  -17.6656   24.5786 C   0  0  0  0  0  0  0  0  0  0  0  0
    8.4315  -18.2135   25.6728 O   0  0  0  0  0  0  0  0  0  0  0  0
    9.2269  -17.2270   23.7455 N   0  0  0  0  0  0  0  0  0  0  0  0
   10.6258  -17.4222   24.1926 C   0  0  1  0  0  0  0  0  0  0  0  0
   11.5261  -17.1963   22.9832 C   0  0  0  0  0  0  0  0  0  0  0  0
   12.9600  -17.5165   23.2723 C   0  0  0  0  0  0  0  0  0  0  0  0
   13.9370  -16.7104   22.5095 C   0  0  0  0  0  0  0  0  0  0  0  0
   13.8354  -16.6736   21.2359 O   0  0  0  0  0  0  0  0  0  0  0  0
   10.9352  -16.5721   25.3361 C   0  0  0  0  0  0  0  0  0  0  0  0
   10.3308  -15.4900   25.5419 O   0  0  0  0  0  0  0  0  0  0  0  0
   14.9634  -15.9841   23.0456 O   0  0  0  0  0  0  0  0  0  0  0  0
    9.3658  -13.7917   28.8436 C   0  0  0  0  0  0  0  0  0  0  0  0
    9.8052  -15.0440   28.1646 C   0  0  0  0  0  0  0  0  0  0  0  0
   11.2628  -15.2001   27.9444 C   0  0  2  0  0  0  0  0  0  0  0  0
   11.6358  -14.3960   26.7118 C   0  0  0  0  0  0  0  0  0  0  0  0
   11.7330  -16.6218   27.7470 C   0  0  2  0  0  0  0  0  0  0  0  0
   11.9391  -16.8780   26.3264 N   0  0  0  0  0  0  0  0  0  0  0  0
   10.8811  -17.6146   28.3875 C   0  0  0  0  0  0  0  0  0  0  0  0
   10.7806  -17.6091   29.6575 O   0  0  0  0  0  0  0  0  0  0  0  0
   10.1410  -18.5983   27.7556 O   0  0  0  0  0  0  0  0  0  0  0  0
  2  1  1  1
  3  2  1  0
  3  4  1  0
  4  5  2  0
  5  6  1  0
  7  6  1  0
  8  7  2  0
  9  8  1  0
 10 11  1  0
 10  9  2  0
 11 12  2  0
 12  4  1  0
 12  7  1  0
 13 14  2  0
 13  2  1  0
 15 13  1  0
 16 15  1  0
 16 17  1  6
 18 17  1  0
 19 23  1  0
 19 18  1  0
 20 19  2  0
 21 29  1  0
 21 16  1  0
 22 21  2  0
 25 24  1  0
 26 25  1  0
 26 27  1  6
 28 26  1  0
 28 30  1  0
 28 29  1  6
 30 32  1  0
 31 30  2  0
M  END
$$$$
