WEI.pdb
     RDKit          3D

 32 33  0  0  1  0  0  0  0  0999 V2000
    8.9434  -15.9973   25.2174 N   0  0  0  0  0  0  0  0  0  0  0  0
    8.3960  -16.7879   24.1475 C   0  0  1  0  0  0  0  0  0  0  0  0
    7.1909  -16.1423   23.4815 C   0  0  0  0  0  0  0  0  0  0  0  0
    6.6178  -15.2146   24.4901 C   0  0  0  0  0  0  0  0  0  0  0  0
    5.7682  -15.5432   25.5216 C   0  0  0  0  0  0  0  0  0  0  0  0
    5.4509  -14.4099   26.1789 N   0  0  0  0  0  0  0  0  0  0  0  0
    6.0747  -13.3576   25.5979 C   0  0  0  0  0  0  0  0  0  0  0  0
    6.1048  -12.0078   25.8607 C   0  0  0  0  0  0  0  0  0  0  0  0
    6.8330  -11.1214   25.1187 C   0  0  0  0  0  0  0  0  0  0  0  0
    7.5696  -11.6001   24.0610 C   0  0  0  0  0  0  0  0  0  0  0  0
    7.5547  -12.9595   23.7760 C   0  0  0  0  0  0  0  0  0  0  0  0
    6.8193  -13.8585   24.5232 C   0  0  0  0  0  0  0  0  0  0  0  0
    9.4395  -16.8895   23.0742 C   0  0  0  0  0  0  0  0  0  0  0  0
    9.2634  -17.6642   22.1050 O   0  0  0  0  0  0  0  0  0  0  0  0
   10.6335  -16.1191   23.1326 N   0  0  0  0  0  0  0  0  0  0  0  0
   11.8844  -16.7533   23.6100 C   0  0  1  0  0  0  0  0  0  0  0  0
   13.0173  -16.2508   22.7223 C   0  0  0  0  0  0  0  0  0  0  0  0
   14.3293  -16.8908   23.0555 C   0  0  0  0  0  0  0  0  0  0  0  0
   15.4754  -16.3943   22.2641 C   0  0  0  0  0  0  0  0  0  0  0  0
   16.3722  -17.2290   21.8996 O   0  0  0  0  0  0  0  0  0  0  0  0
   12.0866  -16.5098   25.0335 C   0  0  0  0  0  0  0  0  0  0  0  0
   13.1289  -15.9623   25.4720 O   0  0  0  0  0  0  0  0  0  0  0  0
   15.6753  -15.0992   21.8757 O   0  0  0  0  0  0  0  0  0  0  0  0
    8.4254  -14.3848   27.6252 C   0  0  0  0  0  0  0  0  0  0  0  0
    9.1592  -15.6627   27.8509 C   0  0  0  0  0  0  0  0  0  0  0  0
   10.6253  -15.5581   28.0435 C   0  0  2  0  0  0  0  0  0  0  0  0
   11.0910  -14.2738   27.3811 C   0  0  0  0  0  0  0  0  0  0  0  0
   11.4298  -16.7050   27.4792 C   0  0  2  0  0  0  0  0  0  0  0  0
   11.1346  -16.8602   26.0597 N   0  0  0  0  0  0  0  0  0  0  0  0
   11.2878  -17.9451   28.2299 C   0  0  0  0  0  0  0  0  0  0  0  0
   11.6343  -17.9635   29.4556 O   0  0  0  0  0  0  0  0  0  0  0  0
   10.8026  -19.1492   27.7506 O   0  0  0  0  0  0  0  0  0  0  0  0
  2  1  1  1
  3  2  1  0
  3  4  1  0
  4  5  2  0
  5  6  1  0
  7  6  1  0
  8  7  2  0
  9  8  1  0
 10 11  1  0
 10  9  2  0
 11 12  2  0
 12  4  1  0
 12  7  1  0
 13 14  2  0
 13  2  1  0
 15 13  1  0
 16 15  1  0
 16 17  1  6
 18 17  1  0
 19 23  1  0
 19 18  1  0
 20 19  2  0
 21 29  1  0
 21 16  1  0
 22 21  2  0
 25 24  1  0
 26 25  1  0
 26 27  1  6
 28 26  1  0
 28 30  1  0
 28 29  1  6
 30 32  1  0
 31 30  2  0
M  END
$$$$
