WEI.pdb
     RDKit          3D

 32 33  0  0  1  0  0  0  0  0999 V2000
    8.1809  -18.2961   21.1557 N   0  0  0  0  0  0  0  0  0  0  0  0
    8.6315  -17.0879   21.7935 C   0  0  1  0  0  0  0  0  0  0  0  0
    7.5392  -16.3845   22.5839 C   0  0  0  0  0  0  0  0  0  0  0  0
    7.3798  -15.0480   21.9560 C   0  0  0  0  0  0  0  0  0  0  0  0
    7.2496  -14.7802   20.6124 C   0  0  0  0  0  0  0  0  0  0  0  0
    7.1702  -13.4433   20.4584 N   0  0  0  0  0  0  0  0  0  0  0  0
    7.2455  -12.8411   21.6690 C   0  0  0  0  0  0  0  0  0  0  0  0
    7.2107  -11.5293   22.0812 C   0  0  0  0  0  0  0  0  0  0  0  0
    7.2998  -11.1590   23.3932 C   0  0  0  0  0  0  0  0  0  0  0  0
    7.4300  -12.1424   24.3455 C   0  0  0  0  0  0  0  0  0  0  0  0
    7.4677  -13.4744   23.9533 C   0  0  0  0  0  0  0  0  0  0  0  0
    7.3786  -13.8525   22.6280 C   0  0  0  0  0  0  0  0  0  0  0  0
    9.6754  -17.4659   22.8028 C   0  0  0  0  0  0  0  0  0  0  0  0
    9.3754  -18.2214   23.7566 O   0  0  0  0  0  0  0  0  0  0  0  0
   11.0088  -16.9824   22.6996 N   0  0  0  0  0  0  0  0  0  0  0  0
   11.9882  -17.3212   23.7584 C   0  0  1  0  0  0  0  0  0  0  0  0
   13.3800  -17.1856   23.1514 C   0  0  0  0  0  0  0  0  0  0  0  0
   13.5471  -18.0166   21.9171 C   0  0  0  0  0  0  0  0  0  0  0  0
   14.8687  -17.8931   21.2656 C   0  0  0  0  0  0  0  0  0  0  0  0
   15.1651  -18.7094   20.3277 O   0  0  0  0  0  0  0  0  0  0  0  0
   11.7738  -16.5103   24.9512 C   0  0  0  0  0  0  0  0  0  0  0  0
   12.2386  -15.3478   25.0561 O   0  0  0  0  0  0  0  0  0  0  0  0
   15.8280  -16.9703   21.5762 O   0  0  0  0  0  0  0  0  0  0  0  0
    8.5650  -13.2791   28.3502 C   0  0  0  0  0  0  0  0  0  0  0  0
    9.7178  -14.2239   28.3803 C   0  0  0  0  0  0  0  0  0  0  0  0
    9.8806  -15.1060   27.2000 C   0  0  2  0  0  0  0  0  0  0  0  0
    8.5542  -15.8023   26.9532 C   0  0  0  0  0  0  0  0  0  0  0  0
   10.9554  -16.1590   27.3298 C   0  0  2  0  0  0  0  0  0  0  0  0
   11.0228  -16.9456   26.1038 N   0  0  0  0  0  0  0  0  0  0  0  0
   10.8303  -16.9791   28.5271 C   0  0  0  0  0  0  0  0  0  0  0  0
   10.9928  -16.4313   29.6657 O   0  0  0  0  0  0  0  0  0  0  0  0
   10.5449  -18.3322   28.5746 O   0  0  0  0  0  0  0  0  0  0  0  0
  2  1  1  1
  3  2  1  0
  3  4  1  0
  4  5  2  0
  5  6  1  0
  7  6  1  0
  8  7  2  0
  9  8  1  0
 10 11  1  0
 10  9  2  0
 11 12  2  0
 12  4  1  0
 12  7  1  0
 13 14  2  0
 13  2  1  0
 15 13  1  0
 16 15  1  0
 16 17  1  6
 18 17  1  0
 19 23  1  0
 19 18  1  0
 20 19  2  0
 21 29  1  0
 21 16  1  0
 22 21  2  0
 25 24  1  0
 26 25  1  0
 26 27  1  1
 28 26  1  0
 28 30  1  0
 28 29  1  6
 30 32  1  0
 31 30  2  0
M  END
$$$$
