WEI.pdb
     RDKit          3D

 32 33  0  0  1  0  0  0  0  0999 V2000
    6.0875  -17.9922   25.1386 N   0  0  0  0  0  0  0  0  0  0  0  0
    7.0546  -16.9734   24.8289 C   0  0  1  0  0  0  0  0  0  0  0  0
    7.4269  -16.1162   26.0286 C   0  0  0  0  0  0  0  0  0  0  0  0
    6.5811  -14.8987   25.9362 C   0  0  0  0  0  0  0  0  0  0  0  0
    5.3290  -14.7232   26.4796 C   0  0  0  0  0  0  0  0  0  0  0  0
    4.8911  -13.4963   26.1328 N   0  0  0  0  0  0  0  0  0  0  0  0
    5.8294  -12.8749   25.3794 C   0  0  0  0  0  0  0  0  0  0  0  0
    5.9012  -11.6384   24.7812 C   0  0  0  0  0  0  0  0  0  0  0  0
    6.9837  -11.2233   24.0586 C   0  0  0  0  0  0  0  0  0  0  0  0
    8.0504  -12.0803   23.9230 C   0  0  0  0  0  0  0  0  0  0  0  0
    8.0008  -13.3344   24.5181 C   0  0  0  0  0  0  0  0  0  0  0  0
    6.9080  -13.7579   25.2486 C   0  0  0  0  0  0  0  0  0  0  0  0
    8.3244  -17.6586   24.4174 C   0  0  0  0  0  0  0  0  0  0  0  0
    8.6773  -18.7147   24.9925 O   0  0  0  0  0  0  0  0  0  0  0  0
    9.1428  -17.1321   23.3803 N   0  0  0  0  0  0  0  0  0  0  0  0
   10.5609  -17.5512   23.2906 C   0  0  1  0  0  0  0  0  0  0  0  0
   11.0791  -17.1152   21.9248 C   0  0  0  0  0  0  0  0  0  0  0  0
   12.5050  -17.5142   21.7022 C   0  0  0  0  0  0  0  0  0  0  0  0
   13.0499  -17.1402   20.3795 C   0  0  0  0  0  0  0  0  0  0  0  0
   14.2620  -17.4445   20.1109 O   0  0  0  0  0  0  0  0  0  0  0  0
   11.3328  -17.0366   24.4157 C   0  0  0  0  0  0  0  0  0  0  0  0
   12.4433  -16.4711   24.2557 O   0  0  0  0  0  0  0  0  0  0  0  0
   12.3687  -16.4844   19.3926 O   0  0  0  0  0  0  0  0  0  0  0  0
    9.5902  -14.2664   28.8913 C   0  0  0  0  0  0  0  0  0  0  0  0
   10.0081  -15.4950   28.1577 C   0  0  0  0  0  0  0  0  0  0  0  0
   11.3410  -15.4571   27.5101 C   0  0  2  0  0  0  0  0  0  0  0  0
   11.2974  -14.4040   26.4172 C   0  0  0  0  0  0  0  0  0  0  0  0
   11.7941  -16.7614   26.8981 C   0  0  2  0  0  0  0  0  0  0  0  0
   10.9118  -17.1182   25.7934 N   0  0  0  0  0  0  0  0  0  0  0  0
   11.9584  -17.8368   27.8667 C   0  0  0  0  0  0  0  0  0  0  0  0
   12.8102  -17.6943   28.8031 O   0  0  0  0  0  0  0  0  0  0  0  0
   11.2726  -19.0385   27.8900 O   0  0  0  0  0  0  0  0  0  0  0  0
  2  1  1  1
  3  2  1  0
  3  4  1  0
  4  5  2  0
  5  6  1  0
  7  6  1  0
  8  7  2  0
  9  8  1  0
 10 11  1  0
 10  9  2  0
 11 12  2  0
 12  4  1  0
 12  7  1  0
 13 14  2  0
 13  2  1  0
 15 13  1  0
 16 15  1  0
 16 17  1  6
 18 17  1  0
 19 23  1  0
 19 18  1  0
 20 19  2  0
 21 29  1  0
 21 16  1  0
 22 21  2  0
 25 24  1  0
 26 25  1  0
 26 27  1  6
 28 26  1  0
 28 30  1  0
 28 29  1  6
 30 32  1  0
 31 30  2  0
M  END
$$$$
