HTM.pdb
     RDKit          3D

 26 26  0  0  1  0  0  0  0  0999 V2000
    9.4563  -16.2756   18.3618 N   0  0  0  0  0  0  0  0  0  0  0  0
    8.5853  -15.4482   19.1229 C   0  0  1  0  0  0  0  0  0  0  0  0
    7.3509  -15.1045   18.3345 C   0  0  0  0  0  0  0  0  0  0  0  0
    7.7847  -14.6027   16.9973 C   0  0  0  0  0  0  0  0  0  0  0  0
    8.3002  -13.3887   16.6381 C   0  0  0  0  0  0  0  0  0  0  0  0
    8.5268  -13.4405   15.3150 N   0  0  0  0  0  0  0  0  0  0  0  0
    8.1659  -14.6483   14.8538 C   0  0  0  0  0  0  0  0  0  0  0  0
    7.6980  -15.3933   15.8907 N   0  0  0  0  0  0  0  0  0  0  0  0
    8.2674  -16.0032   20.4623 C   0  0  0  0  0  0  0  0  0  0  0  0
    7.0610  -16.1500   20.7782 O   0  0  0  0  0  0  0  0  0  0  0  0
    9.8388  -19.2058   21.8917 C   0  0  0  0  0  0  0  0  0  0  0  0
    9.9512  -18.1146   22.9164 C   0  0  1  0  0  0  0  0  0  0  0  0
   11.2125  -17.5397   22.8254 O   0  0  0  0  0  0  0  0  0  0  0  0
    8.9328  -16.9996   22.6805 C   0  0  2  0  0  0  0  0  0  0  0  0
    9.2690  -16.3742   21.3985 N   0  0  0  0  0  0  0  0  0  0  0  0
    9.0848  -16.0286   23.7906 C   0  0  0  0  0  0  0  0  0  0  0  0
    9.9350  -15.0832   23.6507 O   0  0  0  0  0  0  0  0  0  0  0  0
    5.9179  -11.5544   26.1231 C   0  0  0  0  0  0  0  0  0  0  0  0
    7.4611  -11.8568   27.0272 S   0  0  0  0  0  0  0  0  0  0  0  0
    7.3846  -13.5493   27.6812 C   0  0  0  0  0  0  0  0  0  0  0  0
    7.2479  -14.4761   26.5001 C   0  0  0  0  0  0  0  0  0  0  0  0
    8.5805  -15.0651   26.0646 C   0  0  2  0  0  0  0  0  0  0  0  0
    8.3751  -16.0426   25.0014 N   0  0  0  0  0  0  0  0  0  0  0  0
    9.2751  -15.7665   27.1707 C   0  0  0  0  0  0  0  0  0  0  0  0
    9.4955  -17.1474   27.1687 O   0  0  0  0  0  0  0  0  0  0  0  0
    9.7160  -15.1561   28.1945 O   0  0  0  0  0  0  0  0  0  0  0  0
  2  9  1  0
  2  1  1  6
  3  2  1  0
  4  8  1  0
  4  3  1  0
  5  4  2  0
  6  5  1  0
  6  7  1  0
  7  8  2  0
  9 10  2  0
 12 11  1  6
 12 14  1  0
 13 12  1  0
 14 15  1  6
 15  9  1  0
 16 14  1  0
 16 17  2  0
 19 18  1  0
 19 20  1  0
 20 21  1  0
 22 21  1  1
 22 23  1  0
 22 24  1  0
 23 16  1  0
 24 26  2  0
 24 25  1  0
M  END
$$$$
