HTM.pdb
     RDKit          3D

 26 26  0  0  1  0  0  0  0  0999 V2000
   10.8692  -18.4734   17.8596 N   0  0  0  0  0  0  0  0  0  0  0  0
   11.2722  -17.8319   19.0632 C   0  0  1  0  0  0  0  0  0  0  0  0
   12.3387  -16.8064   18.7906 C   0  0  0  0  0  0  0  0  0  0  0  0
   13.6235  -17.5301   18.5593 C   0  0  0  0  0  0  0  0  0  0  0  0
   14.3124  -18.3826   19.3762 C   0  0  0  0  0  0  0  0  0  0  0  0
   15.4090  -18.7644   18.7007 N   0  0  0  0  0  0  0  0  0  0  0  0
   15.4123  -18.1720   17.4963 C   0  0  0  0  0  0  0  0  0  0  0  0
   14.3027  -17.3937   17.3858 N   0  0  0  0  0  0  0  0  0  0  0  0
   10.1374  -17.2775   19.8431 C   0  0  0  0  0  0  0  0  0  0  0  0
    9.3919  -16.4292   19.2941 O   0  0  0  0  0  0  0  0  0  0  0  0
    7.2082  -19.0167   21.2447 C   0  0  0  0  0  0  0  0  0  0  0  0
    7.8822  -18.3169   22.3890 C   0  0  1  0  0  0  0  0  0  0  0  0
    8.7519  -19.2044   23.0101 O   0  0  0  0  0  0  0  0  0  0  0  0
    8.7172  -17.1256   21.9205 C   0  0  2  0  0  0  0  0  0  0  0  0
    9.8610  -17.6663   21.1809 N   0  0  0  0  0  0  0  0  0  0  0  0
    9.1734  -16.4085   23.1355 C   0  0  0  0  0  0  0  0  0  0  0  0
   10.3619  -16.6290   23.5535 O   0  0  0  0  0  0  0  0  0  0  0  0
    5.9033  -11.6843   26.3178 C   0  0  0  0  0  0  0  0  0  0  0  0
    7.5361  -11.6458   27.1067 S   0  0  0  0  0  0  0  0  0  0  0  0
    8.2389  -13.3157   26.9822 C   0  0  0  0  0  0  0  0  0  0  0  0
    7.9088  -13.8350   25.6059 C   0  0  0  0  0  0  0  0  0  0  0  0
    8.8773  -14.9117   25.1418 C   0  0  2  0  0  0  0  0  0  0  0  0
    8.4178  -15.4942   23.8858 N   0  0  0  0  0  0  0  0  0  0  0  0
    8.9957  -16.0217   26.1174 C   0  0  0  0  0  0  0  0  0  0  0  0
    8.2745  -17.2135   25.9963 O   0  0  0  0  0  0  0  0  0  0  0  0
    9.7624  -15.9611   27.1292 O   0  0  0  0  0  0  0  0  0  0  0  0
  2  9  1  0
  2  1  1  6
  3  2  1  0
  4  8  1  0
  4  3  1  0
  5  4  2  0
  6  5  1  0
  6  7  1  0
  7  8  2  0
  9 10  2  0
 12 11  1  6
 12 14  1  0
 13 12  1  0
 14 15  1  1
 15  9  1  0
 16 14  1  0
 16 17  2  0
 19 18  1  0
 19 20  1  0
 20 21  1  0
 22 21  1  1
 22 23  1  0
 22 24  1  0
 23 16  1  0
 24 26  2  0
 24 25  1  0
M  END
$$$$
