HTM.pdb
     RDKit          3D

 26 26  0  0  1  0  0  0  0  0999 V2000
    9.0090  -16.8641   17.9205 N   0  0  0  0  0  0  0  0  0  0  0  0
    8.5660  -15.9606   18.9254 C   0  0  1  0  0  0  0  0  0  0  0  0
    7.3105  -15.2539   18.4924 C   0  0  0  0  0  0  0  0  0  0  0  0
    7.6409  -14.4200   17.2993 C   0  0  0  0  0  0  0  0  0  0  0  0
    8.1502  -13.1537   17.2248 C   0  0  0  0  0  0  0  0  0  0  0  0
    8.2635  -12.8581   15.9193 N   0  0  0  0  0  0  0  0  0  0  0  0
    7.8393  -13.9042   15.1930 C   0  0  0  0  0  0  0  0  0  0  0  0
    7.4444  -14.8946   16.0370 N   0  0  0  0  0  0  0  0  0  0  0  0
    8.4314  -16.5886   20.2636 C   0  0  0  0  0  0  0  0  0  0  0  0
    7.4028  -17.2670   20.5055 O   0  0  0  0  0  0  0  0  0  0  0  0
    9.3636  -19.3987   21.6296 C   0  0  0  0  0  0  0  0  0  0  0  0
   10.0149  -18.4087   22.5510 C   0  0  1  0  0  0  0  0  0  0  0  0
   11.2940  -18.1331   22.0844 O   0  0  0  0  0  0  0  0  0  0  0  0
    9.2582  -17.0815   22.5937 C   0  0  2  0  0  0  0  0  0  0  0  0
    9.4156  -16.4541   21.2788 N   0  0  0  0  0  0  0  0  0  0  0  0
    9.8919  -16.2522   23.6468 C   0  0  0  0  0  0  0  0  0  0  0  0
   11.0205  -15.7092   23.3870 O   0  0  0  0  0  0  0  0  0  0  0  0
    5.6316  -12.1347   26.5481 C   0  0  0  0  0  0  0  0  0  0  0  0
    7.4401  -12.2026   26.6690 S   0  0  0  0  0  0  0  0  0  0  0  0
    7.9740  -13.7798   25.9442 C   0  0  0  0  0  0  0  0  0  0  0  0
    9.4814  -13.7896   25.9632 C   0  0  0  0  0  0  0  0  0  0  0  0
   10.0551  -15.1976   25.9304 C   0  0  2  0  0  0  0  0  0  0  0  0
    9.3670  -15.9979   24.9234 N   0  0  0  0  0  0  0  0  0  0  0  0
    9.8973  -15.9008   27.2259 C   0  0  0  0  0  0  0  0  0  0  0  0
   10.4950  -15.4507   28.4072 O   0  0  0  0  0  0  0  0  0  0  0  0
    9.2066  -16.9608   27.3464 O   0  0  0  0  0  0  0  0  0  0  0  0
  2  9  1  0
  2  1  1  6
  3  2  1  0
  4  8  1  0
  4  3  1  0
  5  4  2  0
  6  5  1  0
  6  7  1  0
  7  8  2  0
  9 10  2  0
 12 11  1  6
 12 14  1  0
 13 12  1  0
 14 15  1  6
 15  9  1  0
 16 14  1  0
 16 17  2  0
 19 18  1  0
 19 20  1  0
 20 21  1  0
 22 21  1  1
 22 23  1  0
 22 24  1  0
 23 16  1  0
 24 26  2  0
 24 25  1  0
M  END
$$$$
