HTM.pdb
     RDKit          3D

 26 26  0  0  1  0  0  0  0  0999 V2000
   11.8867  -15.6881   17.6975 N   0  0  0  0  0  0  0  0  0  0  0  0
   12.1383  -15.3823   19.0634 C   0  0  1  0  0  0  0  0  0  0  0  0
   12.6965  -13.9924   19.2054 C   0  0  0  0  0  0  0  0  0  0  0  0
   14.1731  -14.0672   19.0007 C   0  0  0  0  0  0  0  0  0  0  0  0
   15.1494  -14.5731   19.8129 C   0  0  0  0  0  0  0  0  0  0  0  0
   16.3160  -14.4004   19.1698 N   0  0  0  0  0  0  0  0  0  0  0  0
   16.0838  -13.8047   17.9896 C   0  0  0  0  0  0  0  0  0  0  0  0
   14.7476  -13.5865   17.8623 N   0  0  0  0  0  0  0  0  0  0  0  0
   10.9670  -15.6166   19.9445 C   0  0  0  0  0  0  0  0  0  0  0  0
    9.8679  -15.0971   19.6296 O   0  0  0  0  0  0  0  0  0  0  0  0
    9.0880  -18.5417   20.6558 C   0  0  0  0  0  0  0  0  0  0  0  0
    9.5380  -18.0669   22.0069 C   0  0  1  0  0  0  0  0  0  0  0  0
   10.6944  -18.7498   22.3621 O   0  0  0  0  0  0  0  0  0  0  0  0
    9.8799  -16.5772   22.0063 C   0  0  2  0  0  0  0  0  0  0  0  0
   11.0380  -16.4021   21.1256 N   0  0  0  0  0  0  0  0  0  0  0  0
   10.2242  -16.2086   23.4006 C   0  0  0  0  0  0  0  0  0  0  0  0
   11.4598  -16.1911   23.7306 O   0  0  0  0  0  0  0  0  0  0  0  0
    5.4989  -12.2505   26.9080 C   0  0  0  0  0  0  0  0  0  0  0  0
    7.3068  -12.3977   26.9018 S   0  0  0  0  0  0  0  0  0  0  0  0
    7.7178  -14.0111   26.1766 C   0  0  0  0  0  0  0  0  0  0  0  0
    9.2204  -14.0841   26.0785 C   0  0  0  0  0  0  0  0  0  0  0  0
    9.7160  -15.4865   25.7615 C   0  0  2  0  0  0  0  0  0  0  0  0
    9.3130  -15.8695   24.4128 N   0  0  0  0  0  0  0  0  0  0  0  0
    9.1597  -16.5032   26.6860 C   0  0  0  0  0  0  0  0  0  0  0  0
    8.3252  -17.5393   26.2553 O   0  0  0  0  0  0  0  0  0  0  0  0
    9.4062  -16.4984   27.9327 O   0  0  0  0  0  0  0  0  0  0  0  0
  2  9  1  0
  2  1  1  6
  3  2  1  0
  4  8  1  0
  4  3  1  0
  5  4  2  0
  6  5  1  0
  6  7  1  0
  7  8  2  0
  9 10  2  0
 12 11  1  6
 12 14  1  0
 13 12  1  0
 14 15  1  6
 15  9  1  0
 16 14  1  0
 16 17  2  0
 19 18  1  0
 19 20  1  0
 20 21  1  0
 22 21  1  1
 22 23  1  0
 22 24  1  0
 23 16  1  0
 24 26  2  0
 24 25  1  0
M  END
$$$$
