HTM.pdb
     RDKit          3D

 26 26  0  0  1  0  0  0  0  0999 V2000
    9.5353  -17.3205   17.4119 N   0  0  0  0  0  0  0  0  0  0  0  0
    9.8067  -17.5755   18.7844 C   0  0  1  0  0  0  0  0  0  0  0  0
   11.1277  -18.2770   18.9462 C   0  0  0  0  0  0  0  0  0  0  0  0
   11.0368  -19.5940   18.2496 C   0  0  0  0  0  0  0  0  0  0  0  0
   11.5369  -19.9853   17.0391 C   0  0  0  0  0  0  0  0  0  0  0  0
   11.1806  -21.2693   16.8697 N   0  0  0  0  0  0  0  0  0  0  0  0
   10.4781  -21.6756   17.9389 C   0  0  0  0  0  0  0  0  0  0  0  0
   10.3756  -20.6420   18.8166 N   0  0  0  0  0  0  0  0  0  0  0  0
    9.6964  -16.3678   19.6405 C   0  0  0  0  0  0  0  0  0  0  0  0
    9.8045  -15.2395   19.1001 O   0  0  0  0  0  0  0  0  0  0  0  0
    7.6215  -14.5342   19.9183 C   0  0  0  0  0  0  0  0  0  0  0  0
    7.6849  -14.8610   21.3821 C   0  0  1  0  0  0  0  0  0  0  0  0
    6.8609  -15.9501   21.6364 O   0  0  0  0  0  0  0  0  0  0  0  0
    9.0952  -15.2544   21.8209 C   0  0  2  0  0  0  0  0  0  0  0  0
    9.4742  -16.4361   21.0416 N   0  0  0  0  0  0  0  0  0  0  0  0
    9.0265  -15.5818   23.2654 C   0  0  0  0  0  0  0  0  0  0  0  0
    8.3619  -16.6167   23.6167 O   0  0  0  0  0  0  0  0  0  0  0  0
    5.9067  -11.0055   26.2599 C   0  0  0  0  0  0  0  0  0  0  0  0
    7.1571  -11.9226   27.2008 S   0  0  0  0  0  0  0  0  0  0  0  0
    6.9901  -13.6764   26.7600 C   0  0  0  0  0  0  0  0  0  0  0  0
    7.7073  -13.8751   25.4489 C   0  0  0  0  0  0  0  0  0  0  0  0
    9.0065  -14.6494   25.6071 C   0  0  2  0  0  0  0  0  0  0  0  0
    9.6301  -14.8571   24.3047 N   0  0  0  0  0  0  0  0  0  0  0  0
    8.7948  -15.9891   26.2056 C   0  0  0  0  0  0  0  0  0  0  0  0
    8.5767  -17.1348   25.4342 O   0  0  0  0  0  0  0  0  0  0  0  0
    8.7981  -16.1828   27.4617 O   0  0  0  0  0  0  0  0  0  0  0  0
  2  9  1  0
  2  1  1  6
  3  2  1  0
  4  8  1  0
  4  3  1  0
  5  4  2  0
  6  5  1  0
  6  7  1  0
  7  8  2  0
  9 10  2  0
 12 11  1  6
 12 14  1  0
 13 12  1  0
 14 15  1  6
 15  9  1  0
 16 14  1  0
 16 17  2  0
 19 18  1  0
 19 20  1  0
 20 21  1  0
 22 21  1  6
 22 23  1  0
 22 24  1  0
 23 16  1  0
 24 26  2  0
 24 25  1  0
M  END
$$$$
