HTM.pdb
     RDKit          3D

 26 26  0  0  1  0  0  0  0  0999 V2000
   10.7049  -17.6887   17.8095 N   0  0  0  0  0  0  0  0  0  0  0  0
    9.9121  -17.8039   18.9845 C   0  0  1  0  0  0  0  0  0  0  0  0
   10.2640  -19.0529   19.7458 C   0  0  0  0  0  0  0  0  0  0  0  0
    9.8086  -20.2249   18.9415 C   0  0  0  0  0  0  0  0  0  0  0  0
   10.3116  -20.7449   17.7816 C   0  0  0  0  0  0  0  0  0  0  0  0
    9.5432  -21.8004   17.4653 N   0  0  0  0  0  0  0  0  0  0  0  0
    8.5860  -21.9422   18.3954 C   0  0  0  0  0  0  0  0  0  0  0  0
    8.7329  -20.9658   19.3304 N   0  0  0  0  0  0  0  0  0  0  0  0
    9.9452  -16.5902   19.8383 C   0  0  0  0  0  0  0  0  0  0  0  0
   11.0012  -15.9115   19.8727 O   0  0  0  0  0  0  0  0  0  0  0  0
    7.6534  -13.5464   19.7803 C   0  0  0  0  0  0  0  0  0  0  0  0
    7.6266  -14.1536   21.1530 C   0  0  1  0  0  0  0  0  0  0  0  0
    6.5539  -15.0324   21.2357 O   0  0  0  0  0  0  0  0  0  0  0  0
    8.8905  -14.9610   21.4473 C   0  0  2  0  0  0  0  0  0  0  0  0
    8.8346  -16.1662   20.6155 N   0  0  0  0  0  0  0  0  0  0  0  0
    8.8545  -15.3177   22.8860 C   0  0  0  0  0  0  0  0  0  0  0  0
    8.3406  -16.4421   23.2143 O   0  0  0  0  0  0  0  0  0  0  0  0
    6.0965  -10.9613   26.8158 C   0  0  0  0  0  0  0  0  0  0  0  0
    6.9937  -12.4434   27.3528 S   0  0  0  0  0  0  0  0  0  0  0  0
    6.4556  -13.8174   26.2942 C   0  0  0  0  0  0  0  0  0  0  0  0
    7.2931  -13.7674   25.0417 C   0  0  0  0  0  0  0  0  0  0  0  0
    8.6595  -14.4081   25.2287 C   0  0  2  0  0  0  0  0  0  0  0  0
    9.3378  -14.5310   23.9430 N   0  0  0  0  0  0  0  0  0  0  0  0
    8.5687  -15.7716   25.8036 C   0  0  0  0  0  0  0  0  0  0  0  0
    9.2553  -16.1502   26.9614 O   0  0  0  0  0  0  0  0  0  0  0  0
    7.8589  -16.6864   25.2796 O   0  0  0  0  0  0  0  0  0  0  0  0
  2  9  1  0
  2  1  1  6
  3  2  1  0
  4  8  1  0
  4  3  1  0
  5  4  2  0
  6  5  1  0
  6  7  1  0
  7  8  2  0
  9 10  2  0
 12 11  1  6
 12 14  1  0
 13 12  1  0
 14 15  1  6
 15  9  1  0
 16 14  1  0
 16 17  2  0
 19 18  1  0
 19 20  1  0
 20 21  1  0
 22 21  1  6
 22 23  1  0
 22 24  1  0
 23 16  1  0
 24 26  2  0
 24 25  1  0
M  END
$$$$
