HTM.pdb
     RDKit          3D

 26 26  0  0  1  0  0  0  0  0999 V2000
   11.3140  -17.5395   17.5135 N   0  0  0  0  0  0  0  0  0  0  0  0
   11.1778  -17.5834   18.9285 C   0  0  1  0  0  0  0  0  0  0  0  0
   12.4554  -17.1613   19.6013 C   0  0  0  0  0  0  0  0  0  0  0  0
   13.2154  -18.3951   19.9596 C   0  0  0  0  0  0  0  0  0  0  0  0
   12.7635  -19.6219   20.3586 C   0  0  0  0  0  0  0  0  0  0  0  0
   13.8487  -20.3878   20.5592 N   0  0  0  0  0  0  0  0  0  0  0  0
   14.9502  -19.6676   20.2953 C   0  0  0  0  0  0  0  0  0  0  0  0
   14.5773  -18.4156   19.9176 N   0  0  0  0  0  0  0  0  0  0  0  0
    9.9979  -16.8352   19.4297 C   0  0  0  0  0  0  0  0  0  0  0  0
    9.1587  -16.4131   18.5963 O   0  0  0  0  0  0  0  0  0  0  0  0
    7.2680  -17.1900   19.5244 C   0  0  0  0  0  0  0  0  0  0  0  0
    7.4020  -16.9106   20.9933 C   0  0  1  0  0  0  0  0  0  0  0  0
    7.6887  -18.0988   21.6533 O   0  0  0  0  0  0  0  0  0  0  0  0
    8.5488  -15.9450   21.2908 C   0  0  2  0  0  0  0  0  0  0  0  0
    9.7798  -16.5779   20.8094 N   0  0  0  0  0  0  0  0  0  0  0  0
    8.5957  -15.7643   22.7616 C   0  0  0  0  0  0  0  0  0  0  0  0
    9.4013  -16.4971   23.4324 O   0  0  0  0  0  0  0  0  0  0  0  0
    7.1136  -10.3473   26.8996 C   0  0  0  0  0  0  0  0  0  0  0  0
    6.1529  -11.8398   27.2729 S   0  0  0  0  0  0  0  0  0  0  0  0
    7.2053  -13.2713   26.8969 C   0  0  0  0  0  0  0  0  0  0  0  0
    7.0342  -13.5753   25.4303 C   0  0  0  0  0  0  0  0  0  0  0  0
    8.0276  -14.6127   24.9307 C   0  0  2  0  0  0  0  0  0  0  0  0
    7.8312  -14.8517   23.5051 N   0  0  0  0  0  0  0  0  0  0  0  0
    7.8712  -15.9183   25.6153 C   0  0  0  0  0  0  0  0  0  0  0  0
    7.0110  -16.9172   25.1489 O   0  0  0  0  0  0  0  0  0  0  0  0
    8.5107  -16.2143   26.6730 O   0  0  0  0  0  0  0  0  0  0  0  0
  2  9  1  0
  2  1  1  6
  3  2  1  0
  4  8  1  0
  4  3  1  0
  5  4  2  0
  6  5  1  0
  6  7  1  0
  7  8  2  0
  9 10  2  0
 12 11  1  6
 12 14  1  0
 13 12  1  0
 14 15  1  1
 15  9  1  0
 16 14  1  0
 16 17  2  0
 19 18  1  0
 19 20  1  0
 20 21  1  0
 22 21  1  1
 22 23  1  0
 22 24  1  0
 23 16  1  0
 24 26  2  0
 24 25  1  0
M  END
$$$$
