HTM.pdb
     RDKit          3D

 26 26  0  0  1  0  0  0  0  0999 V2000
    8.1085  -16.8309   18.8037 N   0  0  0  0  0  0  0  0  0  0  0  0
    8.3112  -15.9243   19.8805 C   0  0  1  0  0  0  0  0  0  0  0  0
    7.3273  -14.7882   19.8145 C   0  0  0  0  0  0  0  0  0  0  0  0
    7.6614  -13.9599   18.6185 C   0  0  0  0  0  0  0  0  0  0  0  0
    8.2972  -12.7528   18.5342 C   0  0  0  0  0  0  0  0  0  0  0  0
    8.3504  -12.4335   17.2305 N   0  0  0  0  0  0  0  0  0  0  0  0
    7.7670  -13.4077   16.5148 C   0  0  0  0  0  0  0  0  0  0  0  0
    7.3278  -14.3747   17.3640 N   0  0  0  0  0  0  0  0  0  0  0  0
    8.3285  -16.5840   21.2101 C   0  0  0  0  0  0  0  0  0  0  0  0
    7.5562  -17.5545   21.4066 O   0  0  0  0  0  0  0  0  0  0  0  0
    9.1310  -19.0066   22.1122 C   0  0  0  0  0  0  0  0  0  0  0  0
    9.9261  -18.2744   23.1540 C   0  0  1  0  0  0  0  0  0  0  0  0
   11.1942  -18.0126   22.6510 O   0  0  0  0  0  0  0  0  0  0  0  0
    9.2991  -16.9271   23.5114 C   0  0  2  0  0  0  0  0  0  0  0  0
    9.1805  -16.1640   22.2660 N   0  0  0  0  0  0  0  0  0  0  0  0
   10.2253  -16.2512   24.4514 C   0  0  0  0  0  0  0  0  0  0  0  0
   11.0902  -15.4430   23.9669 O   0  0  0  0  0  0  0  0  0  0  0  0
    6.4516  -11.4148   28.0549 C   0  0  0  0  0  0  0  0  0  0  0  0
    6.8321  -12.7482   26.8856 S   0  0  0  0  0  0  0  0  0  0  0  0
    8.3141  -13.6009   27.4976 C   0  0  0  0  0  0  0  0  0  0  0  0
    8.6933  -14.6301   26.4634 C   0  0  0  0  0  0  0  0  0  0  0  0
   10.0101  -15.3201   26.7838 C   0  0  2  0  0  0  0  0  0  0  0  0
   10.2474  -16.4116   25.8455 N   0  0  0  0  0  0  0  0  0  0  0  0
   10.0218  -15.9076   28.1450 C   0  0  0  0  0  0  0  0  0  0  0  0
    9.7344  -17.2542   28.3887 O   0  0  0  0  0  0  0  0  0  0  0  0
   10.2946  -15.2231   29.1805 O   0  0  0  0  0  0  0  0  0  0  0  0
  2  9  1  0
  2  1  1  6
  3  2  1  0
  4  8  1  0
  4  3  1  0
  5  4  2  0
  6  5  1  0
  6  7  1  0
  7  8  2  0
  9 10  2  0
 12 11  1  6
 12 14  1  0
 13 12  1  0
 14 15  1  6
 15  9  1  0
 16 14  1  0
 16 17  2  0
 19 18  1  0
 19 20  1  0
 20 21  1  0
 22 21  1  6
 22 23  1  0
 22 24  1  0
 23 16  1  0
 24 26  2  0
 24 25  1  0
M  END
$$$$
