HTM.pdb
     RDKit          3D

 26 26  0  0  1  0  0  0  0  0999 V2000
    8.9484  -17.7946   19.1814 N   0  0  0  0  0  0  0  0  0  0  0  0
    8.7769  -16.7321   20.1110 C   0  0  1  0  0  0  0  0  0  0  0  0
    7.6609  -15.8200   19.6797 C   0  0  0  0  0  0  0  0  0  0  0  0
    8.2135  -14.4378   19.5704 C   0  0  0  0  0  0  0  0  0  0  0  0
    9.4820  -13.9776   19.7892 C   0  0  0  0  0  0  0  0  0  0  0  0
    9.4598  -12.6550   19.5550 N   0  0  0  0  0  0  0  0  0  0  0  0
    8.2173  -12.2919   19.1997 C   0  0  0  0  0  0  0  0  0  0  0  0
    7.4195  -13.3931   19.2026 N   0  0  0  0  0  0  0  0  0  0  0  0
    8.6219  -17.1956   21.5126 C   0  0  0  0  0  0  0  0  0  0  0  0
    7.9303  -18.2208   21.7307 O   0  0  0  0  0  0  0  0  0  0  0  0
    9.1854  -19.3686   23.1690 C   0  0  0  0  0  0  0  0  0  0  0  0
    9.7614  -18.3435   24.1022 C   0  0  1  0  0  0  0  0  0  0  0  0
   11.0910  -18.1243   23.7649 O   0  0  0  0  0  0  0  0  0  0  0  0
    9.0434  -16.9989   23.9903 C   0  0  2  0  0  0  0  0  0  0  0  0
    9.2221  -16.5291   22.6138 N   0  0  0  0  0  0  0  0  0  0  0  0
    9.6986  -16.0743   24.9465 C   0  0  0  0  0  0  0  0  0  0  0  0
   10.7856  -15.5055   24.5845 O   0  0  0  0  0  0  0  0  0  0  0  0
    6.2219  -10.9923   25.5954 C   0  0  0  0  0  0  0  0  0  0  0  0
    6.9826  -11.8461   27.0034 S   0  0  0  0  0  0  0  0  0  0  0  0
    8.2107  -13.0058   26.3362 C   0  0  0  0  0  0  0  0  0  0  0  0
    8.8411  -13.7095   27.5110 C   0  0  0  0  0  0  0  0  0  0  0  0
    9.8641  -14.7511   27.0855 C   0  0  2  0  0  0  0  0  0  0  0  0
    9.2360  -15.7539   26.2323 N   0  0  0  0  0  0  0  0  0  0  0  0
   10.4502  -15.4705   28.2418 C   0  0  0  0  0  0  0  0  0  0  0  0
   11.3796  -14.8820   29.1049 O   0  0  0  0  0  0  0  0  0  0  0  0
   10.1445  -16.6715   28.5234 O   0  0  0  0  0  0  0  0  0  0  0  0
  2  9  1  0
  2  1  1  6
  3  2  1  0
  4  8  1  0
  4  3  1  0
  5  4  2  0
  6  5  1  0
  6  7  1  0
  7  8  2  0
  9 10  2  0
 12 11  1  6
 12 14  1  0
 13 12  1  0
 14 15  1  6
 15  9  1  0
 16 14  1  0
 16 17  2  0
 19 18  1  0
 19 20  1  0
 20 21  1  0
 22 21  1  1
 22 23  1  0
 22 24  1  0
 23 16  1  0
 24 26  2  0
 24 25  1  0
M  END
$$$$
