HTM.pdb
     RDKit          3D

 26 26  0  0  1  0  0  0  0  0999 V2000
   10.3833  -16.5862   17.5591 N   0  0  0  0  0  0  0  0  0  0  0  0
   10.5164  -15.7348   18.6903 C   0  0  1  0  0  0  0  0  0  0  0  0
   10.2240  -14.3060   18.3207 C   0  0  0  0  0  0  0  0  0  0  0  0
    9.2268  -14.3137   17.2101 C   0  0  0  0  0  0  0  0  0  0  0  0
    8.6795  -15.3633   16.5264 C   0  0  0  0  0  0  0  0  0  0  0  0
    7.8347  -14.8387   15.6232 N   0  0  0  0  0  0  0  0  0  0  0  0
    7.8483  -13.5010   15.7331 C   0  0  0  0  0  0  0  0  0  0  0  0
    8.7137  -13.1496   16.7215 N   0  0  0  0  0  0  0  0  0  0  0  0
    9.7312  -16.1895   19.8650 C   0  0  0  0  0  0  0  0  0  0  0  0
    8.4840  -16.2819   19.7516 O   0  0  0  0  0  0  0  0  0  0  0  0
    9.5938  -19.2685   21.5896 C   0  0  0  0  0  0  0  0  0  0  0  0
    9.8874  -18.2871   22.6869 C   0  0  1  0  0  0  0  0  0  0  0  0
   11.2505  -18.3044   22.9537 O   0  0  0  0  0  0  0  0  0  0  0  0
    9.5273  -16.8564   22.2877 C   0  0  2  0  0  0  0  0  0  0  0  0
   10.3310  -16.5237   21.1083 N   0  0  0  0  0  0  0  0  0  0  0  0
    9.8884  -15.9815   23.4290 C   0  0  0  0  0  0  0  0  0  0  0  0
   10.5248  -14.9003   23.1803 O   0  0  0  0  0  0  0  0  0  0  0  0
    6.7694  -11.3273   27.0804 C   0  0  0  0  0  0  0  0  0  0  0  0
    7.6770  -12.4449   25.9772 S   0  0  0  0  0  0  0  0  0  0  0  0
    6.7300  -13.9909   25.8714 C   0  0  0  0  0  0  0  0  0  0  0  0
    7.5286  -14.9435   25.0185 C   0  0  0  0  0  0  0  0  0  0  0  0
    8.8798  -15.2800   25.6299 C   0  0  2  0  0  0  0  0  0  0  0  0
    9.5953  -16.2252   24.7798 N   0  0  0  0  0  0  0  0  0  0  0  0
    8.7526  -15.9086   26.9666 C   0  0  0  0  0  0  0  0  0  0  0  0
    9.1444  -15.2646   28.1442 O   0  0  0  0  0  0  0  0  0  0  0  0
    8.2780  -17.0764   27.1282 O   0  0  0  0  0  0  0  0  0  0  0  0
  2  9  1  0
  2  1  1  6
  3  2  1  0
  4  8  1  0
  4  3  1  0
  5  4  2  0
  6  5  1  0
  6  7  1  0
  7  8  2  0
  9 10  2  0
 12 11  1  6
 12 14  1  0
 13 12  1  0
 14 15  1  6
 15  9  1  0
 16 14  1  0
 16 17  2  0
 19 18  1  0
 19 20  1  0
 20 21  1  0
 22 21  1  6
 22 23  1  0
 22 24  1  0
 23 16  1  0
 24 26  2  0
 24 25  1  0
M  END
$$$$
