HTM.pdb
     RDKit          3D

 26 26  0  0  1  0  0  0  0  0999 V2000
   11.2145  -16.4744   17.9295 N   0  0  0  0  0  0  0  0  0  0  0  0
   10.9584  -16.9466   19.2462 C   0  0  1  0  0  0  0  0  0  0  0  0
   12.1630  -17.6549   19.8033 C   0  0  0  0  0  0  0  0  0  0  0  0
   12.4992  -18.7819   18.8841 C   0  0  0  0  0  0  0  0  0  0  0  0
   11.8464  -19.2344   17.7716 C   0  0  0  0  0  0  0  0  0  0  0  0
   12.5565  -20.2734   17.3018 N   0  0  0  0  0  0  0  0  0  0  0  0
   13.6233  -20.4705   18.0923 C   0  0  0  0  0  0  0  0  0  0  0  0
   13.6077  -19.5472   19.0905 N   0  0  0  0  0  0  0  0  0  0  0  0
   10.4455  -15.8947   20.1594 C   0  0  0  0  0  0  0  0  0  0  0  0
   11.1170  -14.8426   20.2971 O   0  0  0  0  0  0  0  0  0  0  0  0
    6.8426  -14.2979   20.3463 C   0  0  0  0  0  0  0  0  0  0  0  0
    7.2455  -14.9073   21.6577 C   0  0  1  0  0  0  0  0  0  0  0  0
    6.7564  -16.2060   21.7198 O   0  0  0  0  0  0  0  0  0  0  0  0
    8.7641  -14.9930   21.8073 C   0  0  2  0  0  0  0  0  0  0  0  0
    9.2298  -16.0291   20.8814 N   0  0  0  0  0  0  0  0  0  0  0  0
    9.0423  -15.3837   23.2103 C   0  0  0  0  0  0  0  0  0  0  0  0
    9.1002  -16.6311   23.4872 O   0  0  0  0  0  0  0  0  0  0  0  0
    6.8811  -11.3332   27.7791 C   0  0  0  0  0  0  0  0  0  0  0  0
    5.9349  -12.1562   26.4687 S   0  0  0  0  0  0  0  0  0  0  0  0
    7.1295  -12.9223   25.3355 C   0  0  0  0  0  0  0  0  0  0  0  0
    7.3608  -14.3310   25.8199 C   0  0  0  0  0  0  0  0  0  0  0  0
    8.8040  -14.7774   25.6453 C   0  0  2  0  0  0  0  0  0  0  0  0
    9.2536  -14.5053   24.2844 N   0  0  0  0  0  0  0  0  0  0  0  0
    8.9760  -16.2316   25.8767 C   0  0  0  0  0  0  0  0  0  0  0  0
    9.2696  -16.7665   27.1348 O   0  0  0  0  0  0  0  0  0  0  0  0
    8.8673  -17.0878   24.9437 O   0  0  0  0  0  0  0  0  0  0  0  0
  2  9  1  0
  2  1  1  6
  3  2  1  0
  4  8  1  0
  4  3  1  0
  5  4  2  0
  6  5  1  0
  6  7  1  0
  7  8  2  0
  9 10  2  0
 12 11  1  6
 12 14  1  0
 13 12  1  0
 14 15  1  6
 15  9  1  0
 16 14  1  0
 16 17  2  0
 19 18  1  0
 19 20  1  0
 20 21  1  0
 22 21  1  6
 22 23  1  0
 22 24  1  0
 23 16  1  0
 24 26  2  0
 24 25  1  0
M  END
$$$$
