HDM.pdb
     RDKit          3D

 27 27  0  0  1  0  0  0  0  0999 V2000
   10.1437  -15.3298   19.8273 N   0  0  0  0  0  0  0  0  0  0  0  0
    9.0615  -14.9383   20.6992 C   0  0  1  0  0  0  0  0  0  0  0  0
    7.7344  -15.1767   20.0190 C   0  0  0  0  0  0  0  0  0  0  0  0
    7.7872  -14.5525   18.6687 C   0  0  0  0  0  0  0  0  0  0  0  0
    7.8730  -13.2106   18.3929 C   0  0  0  0  0  0  0  0  0  0  0  0
    7.8983  -13.0478   17.0439 N   0  0  0  0  0  0  0  0  0  0  0  0
    7.8281  -14.2885   16.5093 C   0  0  0  0  0  0  0  0  0  0  0  0
    7.7614  -15.1902   17.4921 N   0  0  0  0  0  0  0  0  0  0  0  0
    9.1356  -15.7437   21.9685 C   0  0  0  0  0  0  0  0  0  0  0  0
    8.1555  -15.8847   22.7331 O   0  0  0  0  0  0  0  0  0  0  0  0
   10.3418  -16.3884   22.3579 N   0  0  0  0  0  0  0  0  0  0  0  0
   10.4501  -17.1156   23.5750 C   0  0  1  0  0  0  0  0  0  0  0  0
   11.7411  -17.8773   23.7298 C   0  0  0  0  0  0  0  0  0  0  0  0
   12.9330  -17.0272   23.5618 C   0  0  0  0  0  0  0  0  0  0  0  0
   12.7405  -15.7884   23.3888 O   0  0  0  0  0  0  0  0  0  0  0  0
   10.3879  -16.1484   24.7033 C   0  0  0  0  0  0  0  0  0  0  0  0
   10.9382  -15.0281   24.5693 O   0  0  0  0  0  0  0  0  0  0  0  0
   14.2234  -17.4768   23.5789 O   0  0  0  0  0  0  0  0  0  0  0  0
    7.2997  -10.9843   26.1258 C   0  0  0  0  0  0  0  0  0  0  0  0
    6.8008  -12.4496   27.0515 S   0  0  0  0  0  0  0  0  0  0  0  0
    8.2326  -13.4359   27.5484 C   0  0  0  0  0  0  0  0  0  0  0  0
    8.5018  -14.5270   26.5761 C   0  0  0  0  0  0  0  0  0  0  0  0
    9.6759  -15.4012   26.9310 C   0  0  2  0  0  0  0  0  0  0  0  0
    9.7312  -16.4394   25.9261 N   0  0  0  0  0  0  0  0  0  0  0  0
    9.5809  -16.0035   28.2546 C   0  0  0  0  0  0  0  0  0  0  0  0
    9.5272  -15.2623   29.2665 O   0  0  0  0  0  0  0  0  0  0  0  0
    9.5433  -17.3678   28.5028 O   0  0  0  0  0  0  0  0  0  0  0  0
  2  1  1  6
  2  3  1  0
  4  3  1  0
  5  4  2  0
  6  7  1  0
  6  5  1  0
  7  8  2  0
  8  4  1  0
  9 10  2  0
  9  2  1  0
 11  9  1  0
 12 11  1  0
 12 13  1  6
 14 13  1  0
 15 14  2  0
 16 12  1  0
 17 16  2  0
 18 14  1  0
 20 19  1  0
 21 20  1  0
 22 21  1  0
 23 22  1  6
 23 24  1  0
 24 16  1  0
 25 23  1  0
 26 25  2  0
 27 25  1  0
M  END
$$$$
