HDM.pdb
     RDKit          3D

 27 27  0  0  1  0  0  0  0  0999 V2000
    8.9883  -18.3466   19.8295 N   0  0  0  0  0  0  0  0  0  0  0  0
    9.9779  -18.0935   20.8500 C   0  0  1  0  0  0  0  0  0  0  0  0
   10.7911  -16.8719   20.4930 C   0  0  0  0  0  0  0  0  0  0  0  0
   11.8144  -17.2737   19.4895 C   0  0  0  0  0  0  0  0  0  0  0  0
   12.0010  -18.5317   18.9732 C   0  0  0  0  0  0  0  0  0  0  0  0
   13.0312  -18.4867   18.0880 N   0  0  0  0  0  0  0  0  0  0  0  0
   13.4633  -17.2050   18.0715 C   0  0  0  0  0  0  0  0  0  0  0  0
   12.7272  -16.4793   18.9171 N   0  0  0  0  0  0  0  0  0  0  0  0
    9.2827  -17.8760   22.1670 C   0  0  0  0  0  0  0  0  0  0  0  0
    8.2177  -17.2270   22.2657 O   0  0  0  0  0  0  0  0  0  0  0  0
    9.8156  -18.4075   23.3735 N   0  0  0  0  0  0  0  0  0  0  0  0
    9.1370  -18.2849   24.6170 C   0  0  1  0  0  0  0  0  0  0  0  0
    9.3578  -19.4389   25.5606 C   0  0  0  0  0  0  0  0  0  0  0  0
    8.6182  -19.2945   26.8271 C   0  0  0  0  0  0  0  0  0  0  0  0
    7.7297  -18.3949   26.8790 O   0  0  0  0  0  0  0  0  0  0  0  0
    9.6429  -17.0677   25.3064 C   0  0  0  0  0  0  0  0  0  0  0  0
   10.8679  -16.8016   25.2404 O   0  0  0  0  0  0  0  0  0  0  0  0
    8.8212  -20.0570   27.9429 O   0  0  0  0  0  0  0  0  0  0  0  0
    6.8637  -10.9818   26.9384 C   0  0  0  0  0  0  0  0  0  0  0  0
    6.2328  -12.4761   26.1495 S   0  0  0  0  0  0  0  0  0  0  0  0
    7.5710  -13.6202   25.7369 C   0  0  0  0  0  0  0  0  0  0  0  0
    8.2885  -14.0757   26.9559 C   0  0  0  0  0  0  0  0  0  0  0  0
    9.4013  -15.0561   26.6930 C   0  0  2  0  0  0  0  0  0  0  0  0
    8.7973  -16.1937   26.0358 N   0  0  0  0  0  0  0  0  0  0  0  0
   10.0938  -15.4956   27.8975 C   0  0  0  0  0  0  0  0  0  0  0  0
    9.9494  -16.6778   28.2948 O   0  0  0  0  0  0  0  0  0  0  0  0
   10.9255  -14.6968   28.6688 O   0  0  0  0  0  0  0  0  0  0  0  0
  2  1  1  6
  2  3  1  0
  4  3  1  0
  5  4  2  0
  6  7  1  0
  6  5  1  0
  7  8  2  0
  8  4  1  0
  9 10  2  0
  9  2  1  0
 11  9  1  0
 12 11  1  0
 12 13  1  1
 14 13  1  0
 15 14  2  0
 16 12  1  0
 17 16  2  0
 18 14  1  0
 20 19  1  0
 21 20  1  0
 22 21  1  0
 23 22  1  1
 23 24  1  0
 24 16  1  0
 25 23  1  0
 26 25  2  0
 27 25  1  0
M  END
$$$$
