HDM.pdb
     RDKit          3D

 27 27  0  0  1  0  0  0  0  0999 V2000
    7.6206  -16.6818   19.7602 N   0  0  0  0  0  0  0  0  0  0  0  0
    8.5270  -15.8353   20.4994 C   0  0  1  0  0  0  0  0  0  0  0  0
    7.9972  -14.4218   20.5448 C   0  0  0  0  0  0  0  0  0  0  0  0
    8.0121  -13.8768   19.1597 C   0  0  0  0  0  0  0  0  0  0  0  0
    6.9245  -13.4513   18.4386 C   0  0  0  0  0  0  0  0  0  0  0  0
    7.3533  -13.0250   17.2215 N   0  0  0  0  0  0  0  0  0  0  0  0
    8.6955  -13.1935   17.2103 C   0  0  0  0  0  0  0  0  0  0  0  0
    9.0865  -13.7065   18.3796 N   0  0  0  0  0  0  0  0  0  0  0  0
    8.6707  -16.3710   21.8985 C   0  0  0  0  0  0  0  0  0  0  0  0
    7.7001  -16.4763   22.6808 O   0  0  0  0  0  0  0  0  0  0  0  0
    9.9357  -16.7866   22.3979 N   0  0  0  0  0  0  0  0  0  0  0  0
   10.0864  -17.3557   23.6922 C   0  0  1  0  0  0  0  0  0  0  0  0
   11.3433  -18.1676   23.8703 C   0  0  0  0  0  0  0  0  0  0  0  0
   11.0764  -19.6041   24.0626 C   0  0  0  0  0  0  0  0  0  0  0  0
   12.0604  -20.3937   23.9640 O   0  0  0  0  0  0  0  0  0  0  0  0
   10.1499  -16.2487   24.6838 C   0  0  0  0  0  0  0  0  0  0  0  0
   11.0207  -15.3564   24.5377 O   0  0  0  0  0  0  0  0  0  0  0  0
    9.8507  -20.1422   24.3378 O   0  0  0  0  0  0  0  0  0  0  0  0
    6.3941  -11.7143   27.4326 C   0  0  0  0  0  0  0  0  0  0  0  0
    6.1920  -12.8890   26.0789 S   0  0  0  0  0  0  0  0  0  0  0  0
    7.7243  -13.7926   25.7546 C   0  0  0  0  0  0  0  0  0  0  0  0
    8.2769  -14.3854   27.0003 C   0  0  0  0  0  0  0  0  0  0  0  0
    9.5476  -15.1702   26.8055 C   0  0  2  0  0  0  0  0  0  0  0  0
    9.2657  -16.1590   25.7889 N   0  0  0  0  0  0  0  0  0  0  0  0
   10.0213  -15.8307   28.0150 C   0  0  0  0  0  0  0  0  0  0  0  0
   10.3798  -15.1353   28.9969 O   0  0  0  0  0  0  0  0  0  0  0  0
   10.1140  -17.2047   28.1824 O   0  0  0  0  0  0  0  0  0  0  0  0
  2  1  1  6
  2  3  1  0
  4  3  1  0
  5  4  2  0
  6  7  1  0
  6  5  1  0
  7  8  2  0
  8  4  1  0
  9 10  2  0
  9  2  1  0
 11  9  1  0
 12 11  1  0
 12 13  1  6
 14 13  1  0
 15 14  2  0
 16 12  1  0
 17 16  2  0
 18 14  1  0
 20 19  1  0
 21 20  1  0
 22 21  1  0
 23 22  1  1
 23 24  1  0
 24 16  1  0
 25 23  1  0
 26 25  2  0
 27 25  1  0
M  END
$$$$
