HDM.pdb
     RDKit          3D

 27 27  0  0  1  0  0  0  0  0999 V2000
    9.8897  -15.3421   19.0586 N   0  0  0  0  0  0  0  0  0  0  0  0
    8.7242  -15.0385   19.8549 C   0  0  1  0  0  0  0  0  0  0  0  0
    7.4686  -15.2861   19.0531 C   0  0  0  0  0  0  0  0  0  0  0  0
    7.6184  -14.6082   17.7364 C   0  0  0  0  0  0  0  0  0  0  0  0
    7.8411  -13.2698   17.5284 C   0  0  0  0  0  0  0  0  0  0  0  0
    7.9190  -13.0479   16.1899 N   0  0  0  0  0  0  0  0  0  0  0  0
    7.7437  -14.2496   15.5940 C   0  0  0  0  0  0  0  0  0  0  0  0
    7.5633  -15.1851   16.5298 N   0  0  0  0  0  0  0  0  0  0  0  0
    8.7255  -15.9099   21.0820 C   0  0  0  0  0  0  0  0  0  0  0  0
    7.7537  -15.9653   21.8680 O   0  0  0  0  0  0  0  0  0  0  0  0
    9.8490  -16.7197   21.4046 N   0  0  0  0  0  0  0  0  0  0  0  0
    9.9226  -17.4607   22.6159 C   0  0  1  0  0  0  0  0  0  0  0  0
   11.1437  -18.3356   22.7348 C   0  0  0  0  0  0  0  0  0  0  0  0
   11.1834  -19.0978   23.9954 C   0  0  0  0  0  0  0  0  0  0  0  0
   10.1551  -19.7708   24.2974 O   0  0  0  0  0  0  0  0  0  0  0  0
    9.9759  -16.4982   23.7488 C   0  0  0  0  0  0  0  0  0  0  0  0
   10.8984  -15.6472   23.7751 O   0  0  0  0  0  0  0  0  0  0  0  0
   12.2438  -19.1302   24.8570 O   0  0  0  0  0  0  0  0  0  0  0  0
    6.5537  -10.7969   27.0178 C   0  0  0  0  0  0  0  0  0  0  0  0
    6.4042  -12.4682   26.3562 S   0  0  0  0  0  0  0  0  0  0  0  0
    7.9867  -13.3417   26.4054 C   0  0  0  0  0  0  0  0  0  0  0  0
    7.8750  -14.6978   25.8080 C   0  0  0  0  0  0  0  0  0  0  0  0
    9.1521  -15.4960   25.8332 C   0  0  2  0  0  0  0  0  0  0  0  0
    9.0261  -16.5016   24.8018 N   0  0  0  0  0  0  0  0  0  0  0  0
    9.4188  -16.1373   27.1143 C   0  0  0  0  0  0  0  0  0  0  0  0
    9.1585  -17.3570   27.2589 O   0  0  0  0  0  0  0  0  0  0  0  0
    9.9524  -15.4980   28.2238 O   0  0  0  0  0  0  0  0  0  0  0  0
  2  1  1  6
  2  3  1  0
  4  3  1  0
  5  4  2  0
  6  7  1  0
  6  5  1  0
  7  8  2  0
  8  4  1  0
  9 10  2  0
  9  2  1  0
 11  9  1  0
 12 11  1  0
 12 13  1  6
 14 13  1  0
 15 14  2  0
 16 12  1  0
 17 16  2  0
 18 14  1  0
 20 19  1  0
 21 20  1  0
 22 21  1  0
 23 22  1  1
 23 24  1  0
 24 16  1  0
 25 23  1  0
 26 25  2  0
 27 25  1  0
M  END
$$$$
