HDM.pdb
     RDKit          3D

 27 27  0  0  1  0  0  0  0  0999 V2000
    7.1627  -16.8296   20.5859 N   0  0  0  0  0  0  0  0  0  0  0  0
    8.2159  -16.0189   21.1500 C   0  0  1  0  0  0  0  0  0  0  0  0
    7.7308  -14.6027   21.3499 C   0  0  0  0  0  0  0  0  0  0  0  0
    7.8307  -13.8906   20.0467 C   0  0  0  0  0  0  0  0  0  0  0  0
    7.0955  -14.1495   18.9168 C   0  0  0  0  0  0  0  0  0  0  0  0
    7.4813  -13.2839   17.9428 N   0  0  0  0  0  0  0  0  0  0  0  0
    8.4461  -12.5060   18.4850 C   0  0  0  0  0  0  0  0  0  0  0  0
    8.6523  -12.8757   19.7516 N   0  0  0  0  0  0  0  0  0  0  0  0
    8.6348  -16.6054   22.4713 C   0  0  0  0  0  0  0  0  0  0  0  0
    7.8170  -17.1112   23.2716 O   0  0  0  0  0  0  0  0  0  0  0  0
    9.9993  -16.6094   22.8716 N   0  0  0  0  0  0  0  0  0  0  0  0
   10.4273  -17.2086   24.0881 C   0  0  1  0  0  0  0  0  0  0  0  0
   11.8225  -17.7762   24.0428 C   0  0  0  0  0  0  0  0  0  0  0  0
   11.9038  -19.0410   23.2909 C   0  0  0  0  0  0  0  0  0  0  0  0
   13.0509  -19.4138   22.9079 O   0  0  0  0  0  0  0  0  0  0  0  0
   10.4260  -16.1648   25.1478 C   0  0  0  0  0  0  0  0  0  0  0  0
   11.3222  -15.2860   25.1309 O   0  0  0  0  0  0  0  0  0  0  0  0
   10.8366  -19.8356   22.9790 O   0  0  0  0  0  0  0  0  0  0  0  0
    7.0834  -10.9243   26.8339 C   0  0  0  0  0  0  0  0  0  0  0  0
    6.6988  -12.5198   26.0859 S   0  0  0  0  0  0  0  0  0  0  0  0
    8.1674  -13.5693   25.9774 C   0  0  0  0  0  0  0  0  0  0  0  0
    8.4136  -14.2891   27.2539 C   0  0  0  0  0  0  0  0  0  0  0  0
    9.6383  -15.1659   27.2477 C   0  0  2  0  0  0  0  0  0  0  0  0
    9.4523  -16.1206   26.1779 N   0  0  0  0  0  0  0  0  0  0  0  0
    9.8617  -15.8720   28.5027 C   0  0  0  0  0  0  0  0  0  0  0  0
   10.0420  -15.2137   29.5565 O   0  0  0  0  0  0  0  0  0  0  0  0
    9.8936  -17.2520   28.6400 O   0  0  0  0  0  0  0  0  0  0  0  0
  2  1  1  1
  2  3  1  0
  4  3  1  0
  5  4  2  0
  6  7  1  0
  6  5  1  0
  7  8  2  0
  8  4  1  0
  9 10  2  0
  9  2  1  0
 11  9  1  0
 12 11  1  0
 12 13  1  6
 14 13  1  0
 15 14  2  0
 16 12  1  0
 17 16  2  0
 18 14  1  0
 20 19  1  0
 21 20  1  0
 22 21  1  0
 23 22  1  1
 23 24  1  0
 24 16  1  0
 25 23  1  0
 26 25  2  0
 27 25  1  0
M  END
$$$$
