HDM.pdb
     RDKit          3D

 27 27  0  0  1  0  0  0  0  0999 V2000
   10.0353  -15.5461   18.7794 N   0  0  0  0  0  0  0  0  0  0  0  0
    9.0819  -15.1003   19.7678 C   0  0  1  0  0  0  0  0  0  0  0  0
    7.6819  -15.1654   19.2053 C   0  0  0  0  0  0  0  0  0  0  0  0
    7.6777  -14.4669   17.8909 C   0  0  0  0  0  0  0  0  0  0  0  0
    7.8268  -13.1183   17.6831 C   0  0  0  0  0  0  0  0  0  0  0  0
    7.7668  -12.8780   16.3469 N   0  0  0  0  0  0  0  0  0  0  0  0
    7.5822  -14.0789   15.7521 C   0  0  0  0  0  0  0  0  0  0  0  0
    7.5293  -15.0316   16.6864 N   0  0  0  0  0  0  0  0  0  0  0  0
    9.1843  -15.9816   20.9835 C   0  0  0  0  0  0  0  0  0  0  0  0
    8.1865  -16.3038   21.6660 O   0  0  0  0  0  0  0  0  0  0  0  0
   10.4392  -16.4932   21.4142 N   0  0  0  0  0  0  0  0  0  0  0  0
   10.5697  -17.2807   22.5909 C   0  0  1  0  0  0  0  0  0  0  0  0
   11.8606  -18.0530   22.6806 C   0  0  0  0  0  0  0  0  0  0  0  0
   12.0204  -19.0326   21.5913 C   0  0  0  0  0  0  0  0  0  0  0  0
   11.1635  -19.9610   21.5177 O   0  0  0  0  0  0  0  0  0  0  0  0
   10.5347  -16.3709   23.7672 C   0  0  0  0  0  0  0  0  0  0  0  0
   10.9058  -15.1806   23.6211 O   0  0  0  0  0  0  0  0  0  0  0  0
   13.0209  -19.0115   20.6606 O   0  0  0  0  0  0  0  0  0  0  0  0
    6.2530  -11.8762   27.3030 C   0  0  0  0  0  0  0  0  0  0  0  0
    6.7697  -13.1281   26.1117 S   0  0  0  0  0  0  0  0  0  0  0  0
    8.2505  -14.0015   26.6722 C   0  0  0  0  0  0  0  0  0  0  0  0
    8.7500  -14.9407   25.6346 C   0  0  0  0  0  0  0  0  0  0  0  0
    9.9184  -15.7855   26.0705 C   0  0  2  0  0  0  0  0  0  0  0  0
   10.0984  -16.7927   25.0489 N   0  0  0  0  0  0  0  0  0  0  0  0
    9.7287  -16.4274   27.3649 C   0  0  0  0  0  0  0  0  0  0  0  0
    9.2849  -17.6009   27.4117 O   0  0  0  0  0  0  0  0  0  0  0  0
   10.0044  -15.8369   28.5896 O   0  0  0  0  0  0  0  0  0  0  0  0
  2  1  1  6
  2  3  1  0
  4  3  1  0
  5  4  2  0
  6  7  1  0
  6  5  1  0
  7  8  2  0
  8  4  1  0
  9 10  2  0
  9  2  1  0
 11  9  1  0
 12 11  1  0
 12 13  1  6
 14 13  1  0
 15 14  2  0
 16 12  1  0
 17 16  2  0
 18 14  1  0
 20 19  1  0
 21 20  1  0
 22 21  1  0
 23 22  1  6
 23 24  1  0
 24 16  1  0
 25 23  1  0
 26 25  2  0
 27 25  1  0
M  END
$$$$
