HDM.pdb
     RDKit          3D

 27 27  0  0  1  0  0  0  0  0999 V2000
   14.0745  -19.2401   21.5566 N   0  0  0  0  0  0  0  0  0  0  0  0
   12.7912  -19.4490   22.1844 C   0  0  1  0  0  0  0  0  0  0  0  0
   12.9795  -19.9109   23.6099 C   0  0  0  0  0  0  0  0  0  0  0  0
   12.9664  -21.3993   23.6202 C   0  0  0  0  0  0  0  0  0  0  0  0
   12.7730  -22.2211   22.5378 C   0  0  0  0  0  0  0  0  0  0  0  0
   12.8333  -23.5117   22.9593 N   0  0  0  0  0  0  0  0  0  0  0  0
   13.0625  -23.4667   24.2917 C   0  0  0  0  0  0  0  0  0  0  0  0
   13.1417  -22.1926   24.6840 N   0  0  0  0  0  0  0  0  0  0  0  0
   12.0174  -18.1583   22.1649 C   0  0  0  0  0  0  0  0  0  0  0  0
   12.5647  -17.0442   22.3215 O   0  0  0  0  0  0  0  0  0  0  0  0
   10.6096  -18.1507   21.9642 N   0  0  0  0  0  0  0  0  0  0  0  0
    9.8631  -16.9424   21.8976 C   0  0  1  0  0  0  0  0  0  0  0  0
    8.5795  -17.0485   21.1154 C   0  0  0  0  0  0  0  0  0  0  0  0
    8.7968  -17.3982   19.7003 C   0  0  0  0  0  0  0  0  0  0  0  0
    9.6340  -16.7030   19.0545 O   0  0  0  0  0  0  0  0  0  0  0  0
    9.4872  -16.5496   23.2822 C   0  0  0  0  0  0  0  0  0  0  0  0
    9.5465  -17.4127   24.1919 O   0  0  0  0  0  0  0  0  0  0  0  0
    8.1633  -18.4126   19.0390 O   0  0  0  0  0  0  0  0  0  0  0  0
    5.7761  -11.1301   27.6734 C   0  0  0  0  0  0  0  0  0  0  0  0
    6.5077  -11.6200   26.0992 S   0  0  0  0  0  0  0  0  0  0  0  0
    7.1584  -13.3056   26.1697 C   0  0  0  0  0  0  0  0  0  0  0  0
    7.8933  -13.6544   24.9260 C   0  0  0  0  0  0  0  0  0  0  0  0
    8.5453  -15.0120   24.9485 C   0  0  2  0  0  0  0  0  0  0  0  0
    9.0645  -15.2383   23.6181 N   0  0  0  0  0  0  0  0  0  0  0  0
    7.6386  -16.0932   25.3123 C   0  0  0  0  0  0  0  0  0  0  0  0
    6.9449  -16.6418   24.4211 O   0  0  0  0  0  0  0  0  0  0  0  0
    7.4692  -16.5857   26.5980 O   0  0  0  0  0  0  0  0  0  0  0  0
  2  1  1  1
  2  3  1  0
  4  3  1  0
  5  4  2  0
  6  7  1  0
  6  5  1  0
  7  8  2  0
  8  4  1  0
  9 10  2  0
  9  2  1  0
 11  9  1  0
 12 11  1  0
 12 13  1  6
 14 13  1  0
 15 14  2  0
 16 12  1  0
 17 16  2  0
 18 14  1  0
 20 19  1  0
 21 20  1  0
 22 21  1  0
 23 22  1  6
 23 24  1  0
 24 16  1  0
 25 23  1  0
 26 25  2  0
 27 25  1  0
M  END
$$$$
