HDM.pdb
     RDKit          3D

 27 27  0  0  1  0  0  0  0  0999 V2000
   10.1070  -15.2145   19.9163 N   0  0  0  0  0  0  0  0  0  0  0  0
    9.0631  -14.7995   20.8234 C   0  0  1  0  0  0  0  0  0  0  0  0
    7.7082  -15.0474   20.2041 C   0  0  0  0  0  0  0  0  0  0  0  0
    7.6956  -14.4243   18.8524 C   0  0  0  0  0  0  0  0  0  0  0  0
    8.1552  -13.1726   18.5266 C   0  0  0  0  0  0  0  0  0  0  0  0
    7.9683  -12.9771   17.1948 N   0  0  0  0  0  0  0  0  0  0  0  0
    7.3978  -14.1081   16.7203 C   0  0  0  0  0  0  0  0  0  0  0  0
    7.2361  -14.9758   17.7226 N   0  0  0  0  0  0  0  0  0  0  0  0
    9.1873  -15.5771   22.1060 C   0  0  0  0  0  0  0  0  0  0  0  0
    8.3250  -15.5231   23.0108 O   0  0  0  0  0  0  0  0  0  0  0  0
   10.3076  -16.4193   22.3469 N   0  0  0  0  0  0  0  0  0  0  0  0
   10.4323  -17.1876   23.5368 C   0  0  1  0  0  0  0  0  0  0  0  0
   11.5764  -18.1682   23.5250 C   0  0  0  0  0  0  0  0  0  0  0  0
   11.3840  -19.2633   22.5578 C   0  0  0  0  0  0  0  0  0  0  0  0
   12.4051  -19.6639   21.9266 O   0  0  0  0  0  0  0  0  0  0  0  0
   10.6810  -16.2560   24.6695 C   0  0  0  0  0  0  0  0  0  0  0  0
   11.5492  -15.3594   24.5344 O   0  0  0  0  0  0  0  0  0  0  0  0
   10.1900  -19.8739   22.2945 O   0  0  0  0  0  0  0  0  0  0  0  0
    5.8024  -12.2285   26.9918 C   0  0  0  0  0  0  0  0  0  0  0  0
    7.5946  -12.3001   26.8012 S   0  0  0  0  0  0  0  0  0  0  0  0
    8.1663  -13.9997   26.5679 C   0  0  0  0  0  0  0  0  0  0  0  0
    9.6451  -14.0595   26.4337 C   0  0  0  0  0  0  0  0  0  0  0  0
   10.2617  -15.3479   26.9117 C   0  0  2  0  0  0  0  0  0  0  0  0
    9.9767  -16.3384   25.8976 N   0  0  0  0  0  0  0  0  0  0  0  0
    9.7507  -15.8017   28.1987 C   0  0  0  0  0  0  0  0  0  0  0  0
    9.1012  -16.8744   28.2603 O   0  0  0  0  0  0  0  0  0  0  0  0
    9.9245  -15.1312   29.4007 O   0  0  0  0  0  0  0  0  0  0  0  0
  2  1  1  6
  2  3  1  0
  4  3  1  0
  5  4  2  0
  6  7  1  0
  6  5  1  0
  7  8  2  0
  8  4  1  0
  9 10  2  0
  9  2  1  0
 11  9  1  0
 12 11  1  0
 12 13  1  6
 14 13  1  0
 15 14  2  0
 16 12  1  0
 17 16  2  0
 18 14  1  0
 20 19  1  0
 21 20  1  0
 22 21  1  0
 23 22  1  6
 23 24  1  0
 24 16  1  0
 25 23  1  0
 26 25  2  0
 27 25  1  0
M  END
$$$$
