HDM.pdb
     RDKit          3D

 27 27  0  0  1  0  0  0  0  0999 V2000
   10.0702  -14.9218   19.5264 N   0  0  0  0  0  0  0  0  0  0  0  0
    8.8153  -14.8864   20.2396 C   0  0  1  0  0  0  0  0  0  0  0  0
    7.6939  -15.3502   19.3407 C   0  0  0  0  0  0  0  0  0  0  0  0
    7.7172  -14.5205   18.1051 C   0  0  0  0  0  0  0  0  0  0  0  0
    8.1354  -13.2169   18.0055 C   0  0  0  0  0  0  0  0  0  0  0  0
    8.0028  -12.8185   16.7130 N   0  0  0  0  0  0  0  0  0  0  0  0
    7.5062  -13.8795   16.0366 C   0  0  0  0  0  0  0  0  0  0  0  0
    7.3363  -14.9012   16.8797 N   0  0  0  0  0  0  0  0  0  0  0  0
    8.9078  -15.7843   21.4439 C   0  0  0  0  0  0  0  0  0  0  0  0
    7.9193  -16.0454   22.1649 O   0  0  0  0  0  0  0  0  0  0  0  0
   10.1420  -16.3830   21.8186 N   0  0  0  0  0  0  0  0  0  0  0  0
   10.2940  -17.0997   23.0372 C   0  0  1  0  0  0  0  0  0  0  0  0
   11.5709  -17.8939   23.1347 C   0  0  0  0  0  0  0  0  0  0  0  0
   11.6487  -18.9800   22.1417 C   0  0  0  0  0  0  0  0  0  0  0  0
   12.7921  -19.2564   21.6748 O   0  0  0  0  0  0  0  0  0  0  0  0
   10.3156  -16.1190   24.1555 C   0  0  0  0  0  0  0  0  0  0  0  0
   11.1082  -15.1477   24.0914 O   0  0  0  0  0  0  0  0  0  0  0  0
   10.5822  -19.7060   21.6911 O   0  0  0  0  0  0  0  0  0  0  0  0
    5.8828  -12.3767   25.8785 C   0  0  0  0  0  0  0  0  0  0  0  0
    7.4501  -11.7395   26.5035 S   0  0  0  0  0  0  0  0  0  0  0  0
    8.5411  -13.0788   27.0383 C   0  0  0  0  0  0  0  0  0  0  0  0
    8.6451  -14.1386   26.0017 C   0  0  0  0  0  0  0  0  0  0  0  0
    9.6086  -15.2462   26.3386 C   0  0  2  0  0  0  0  0  0  0  0  0
    9.4762  -16.2356   25.2925 N   0  0  0  0  0  0  0  0  0  0  0  0
    9.3620  -15.8655   27.6344 C   0  0  0  0  0  0  0  0  0  0  0  0
    9.4623  -15.1736   28.6772 O   0  0  0  0  0  0  0  0  0  0  0  0
    9.0147  -17.1953   27.8231 O   0  0  0  0  0  0  0  0  0  0  0  0
  2  1  1  6
  2  3  1  0
  4  3  1  0
  5  4  2  0
  6  7  1  0
  6  5  1  0
  7  8  2  0
  8  4  1  0
  9 10  2  0
  9  2  1  0
 11  9  1  0
 12 11  1  0
 12 13  1  6
 14 13  1  0
 15 14  2  0
 16 12  1  0
 17 16  2  0
 18 14  1  0
 20 19  1  0
 21 20  1  0
 22 21  1  0
 23 22  1  6
 23 24  1  0
 24 16  1  0
 25 23  1  0
 26 25  2  0
 27 25  1  0
M  END
$$$$
