HDM.pdb
     RDKit          3D

 27 27  0  0  1  0  0  0  0  0999 V2000
    5.9990  -15.6123   20.3041 N   0  0  0  0  0  0  0  0  0  0  0  0
    7.2514  -15.5581   21.0203 C   0  0  1  0  0  0  0  0  0  0  0  0
    7.7999  -14.1510   21.0016 C   0  0  0  0  0  0  0  0  0  0  0  0
    8.1108  -13.7938   19.5904 C   0  0  0  0  0  0  0  0  0  0  0  0
    7.9207  -14.5877   18.4869 C   0  0  0  0  0  0  0  0  0  0  0  0
    8.3267  -13.9016   17.3863 N   0  0  0  0  0  0  0  0  0  0  0  0
    8.7599  -12.6980   17.8263 C   0  0  0  0  0  0  0  0  0  0  0  0
    8.6276  -12.6388   19.1539 N   0  0  0  0  0  0  0  0  0  0  0  0
    7.0254  -15.9980   22.4418 C   0  0  0  0  0  0  0  0  0  0  0  0
    6.1743  -15.4602   23.1845 O   0  0  0  0  0  0  0  0  0  0  0  0
    7.7815  -17.0604   23.0091 N   0  0  0  0  0  0  0  0  0  0  0  0
    7.6546  -17.4311   24.3760 C   0  0  1  0  0  0  0  0  0  0  0  0
    7.1852  -18.8464   24.5939 C   0  0  0  0  0  0  0  0  0  0  0  0
    6.0718  -19.2252   23.7059 C   0  0  0  0  0  0  0  0  0  0  0  0
    4.9737  -18.6159   23.8625 O   0  0  0  0  0  0  0  0  0  0  0  0
    8.9936  -17.3230   25.0147 C   0  0  0  0  0  0  0  0  0  0  0  0
    9.4776  -18.3354   25.5775 O   0  0  0  0  0  0  0  0  0  0  0  0
    6.1387  -20.1810   22.7314 O   0  0  0  0  0  0  0  0  0  0  0  0
    6.6986  -10.9463   27.8470 C   0  0  0  0  0  0  0  0  0  0  0  0
    6.9335  -12.1898   26.5618 S   0  0  0  0  0  0  0  0  0  0  0  0
    8.2106  -13.3837   27.0236 C   0  0  0  0  0  0  0  0  0  0  0  0
    8.5061  -14.3190   25.9073 C   0  0  0  0  0  0  0  0  0  0  0  0
    9.6527  -15.2596   26.1705 C   0  0  2  0  0  0  0  0  0  0  0  0
    9.7478  -16.1221   25.0138 N   0  0  0  0  0  0  0  0  0  0  0  0
    9.4863  -16.0667   27.3724 C   0  0  0  0  0  0  0  0  0  0  0  0
    9.7738  -15.5733   28.4906 O   0  0  0  0  0  0  0  0  0  0  0  0
    9.0233  -17.3742   27.3904 O   0  0  0  0  0  0  0  0  0  0  0  0
  2  1  1  6
  2  3  1  0
  4  3  1  0
  5  4  2  0
  6  7  1  0
  6  5  1  0
  7  8  2  0
  8  4  1  0
  9 10  2  0
  9  2  1  0
 11  9  1  0
 12 11  1  0
 12 13  1  6
 14 13  1  0
 15 14  2  0
 16 12  1  0
 17 16  2  0
 18 14  1  0
 20 19  1  0
 21 20  1  0
 22 21  1  0
 23 22  1  6
 23 24  1  0
 24 16  1  0
 25 23  1  0
 26 25  2  0
 27 25  1  0
M  END
$$$$
