HDM.pdb
     RDKit          3D

 27 27  0  0  1  0  0  0  0  0999 V2000
    9.9839  -16.5731   17.9715 N   0  0  0  0  0  0  0  0  0  0  0  0
    9.2193  -15.6707   18.7997 C   0  0  1  0  0  0  0  0  0  0  0  0
    7.8580  -15.4337   18.1900 C   0  0  0  0  0  0  0  0  0  0  0  0
    8.0526  -14.8453   16.8367 C   0  0  0  0  0  0  0  0  0  0  0  0
    9.2523  -14.6292   16.2057 C   0  0  0  0  0  0  0  0  0  0  0  0
    9.0067  -14.0787   14.9878 N   0  0  0  0  0  0  0  0  0  0  0  0
    7.6626  -13.9638   14.8860 C   0  0  0  0  0  0  0  0  0  0  0  0
    7.0936  -14.4269   16.0019 N   0  0  0  0  0  0  0  0  0  0  0  0
    9.0659  -16.2714   20.1711 C   0  0  0  0  0  0  0  0  0  0  0  0
    7.9588  -16.3566   20.7476 O   0  0  0  0  0  0  0  0  0  0  0  0
   10.1907  -16.7753   20.8804 N   0  0  0  0  0  0  0  0  0  0  0  0
   10.0613  -17.4190   22.1417 C   0  0  1  0  0  0  0  0  0  0  0  0
   11.1873  -18.3635   22.4745 C   0  0  0  0  0  0  0  0  0  0  0  0
   11.0032  -19.0427   23.7693 C   0  0  0  0  0  0  0  0  0  0  0  0
    9.8249  -19.3818   24.0825 O   0  0  0  0  0  0  0  0  0  0  0  0
   10.0547  -16.3738   23.2001 C   0  0  0  0  0  0  0  0  0  0  0  0
   11.0120  -15.5637   23.2547 O   0  0  0  0  0  0  0  0  0  0  0  0
   12.0067  -19.3310   24.6512 O   0  0  0  0  0  0  0  0  0  0  0  0
    6.1535  -11.3861   27.6544 C   0  0  0  0  0  0  0  0  0  0  0  0
    6.2207  -12.6380   26.3577 S   0  0  0  0  0  0  0  0  0  0  0  0
    7.7991  -13.5202   26.3729 C   0  0  0  0  0  0  0  0  0  0  0  0
    7.9009  -14.4668   25.2320 C   0  0  0  0  0  0  0  0  0  0  0  0
    9.1656  -15.2846   25.2129 C   0  0  2  0  0  0  0  0  0  0  0  0
    9.0097  -16.2540   24.1513 N   0  0  0  0  0  0  0  0  0  0  0  0
    9.4402  -15.9714   26.4685 C   0  0  0  0  0  0  0  0  0  0  0  0
    9.5874  -15.2996   27.5189 O   0  0  0  0  0  0  0  0  0  0  0  0
    9.5570  -17.3464   26.6099 O   0  0  0  0  0  0  0  0  0  0  0  0
  2  1  1  6
  2  3  1  0
  4  3  1  0
  5  4  2  0
  6  7  1  0
  6  5  1  0
  7  8  2  0
  8  4  1  0
  9 10  2  0
  9  2  1  0
 11  9  1  0
 12 11  1  0
 12 13  1  1
 14 13  1  0
 15 14  2  0
 16 12  1  0
 17 16  2  0
 18 14  1  0
 20 19  1  0
 21 20  1  0
 22 21  1  0
 23 22  1  1
 23 24  1  0
 24 16  1  0
 25 23  1  0
 26 25  2  0
 27 25  1  0
M  END
$$$$
