HDM.pdb
     RDKit          3D

 27 27  0  0  1  0  0  0  0  0999 V2000
    9.7844  -14.8731   19.6439 N   0  0  0  0  0  0  0  0  0  0  0  0
    8.4874  -14.9453   20.2742 C   0  0  1  0  0  0  0  0  0  0  0  0
    7.4613  -15.4608   19.2932 C   0  0  0  0  0  0  0  0  0  0  0  0
    7.4974  -14.5914   18.0855 C   0  0  0  0  0  0  0  0  0  0  0  0
    8.3133  -13.5059   17.8856 C   0  0  0  0  0  0  0  0  0  0  0  0
    8.0434  -12.9824   16.6609 N   0  0  0  0  0  0  0  0  0  0  0  0
    7.0676  -13.7510   16.1250 C   0  0  0  0  0  0  0  0  0  0  0  0
    6.7430  -14.7180   16.9870 N   0  0  0  0  0  0  0  0  0  0  0  0
    8.5670  -15.8682   21.4604 C   0  0  0  0  0  0  0  0  0  0  0  0
    7.5707  -16.1449   22.1647 O   0  0  0  0  0  0  0  0  0  0  0  0
    9.7974  -16.4740   21.8363 N   0  0  0  0  0  0  0  0  0  0  0  0
    9.9188  -17.2738   23.0057 C   0  0  1  0  0  0  0  0  0  0  0  0
   11.1711  -18.1104   23.0579 C   0  0  0  0  0  0  0  0  0  0  0  0
   11.2477  -18.9548   24.2632 C   0  0  0  0  0  0  0  0  0  0  0  0
   10.1764  -19.5033   24.6544 O   0  0  0  0  0  0  0  0  0  0  0  0
    9.9602  -16.3702   24.1865 C   0  0  0  0  0  0  0  0  0  0  0  0
   10.8116  -15.4480   24.2115 O   0  0  0  0  0  0  0  0  0  0  0  0
   12.3848  -19.1869   24.9849 O   0  0  0  0  0  0  0  0  0  0  0  0
    6.3071  -11.1726   25.2976 C   0  0  0  0  0  0  0  0  0  0  0  0
    6.8793  -12.4005   26.4884 S   0  0  0  0  0  0  0  0  0  0  0  0
    7.6968  -13.7876   25.6653 C   0  0  0  0  0  0  0  0  0  0  0  0
    7.9354  -14.9116   26.6077 C   0  0  0  0  0  0  0  0  0  0  0  0
    9.2515  -15.6178   26.4135 C   0  0  2  0  0  0  0  0  0  0  0  0
    9.0761  -16.5070   25.2868 N   0  0  0  0  0  0  0  0  0  0  0  0
    9.6868  -16.3795   27.5770 C   0  0  0  0  0  0  0  0  0  0  0  0
   10.1511  -15.7719   28.5728 O   0  0  0  0  0  0  0  0  0  0  0  0
    9.6314  -17.7614   27.6848 O   0  0  0  0  0  0  0  0  0  0  0  0
  2  1  1  6
  2  3  1  0
  4  3  1  0
  5  4  2  0
  6  7  1  0
  6  5  1  0
  7  8  2  0
  8  4  1  0
  9 10  2  0
  9  2  1  0
 11  9  1  0
 12 11  1  0
 12 13  1  6
 14 13  1  0
 15 14  2  0
 16 12  1  0
 17 16  2  0
 18 14  1  0
 20 19  1  0
 21 20  1  0
 22 21  1  0
 23 22  1  1
 23 24  1  0
 24 16  1  0
 25 23  1  0
 26 25  2  0
 27 25  1  0
M  END
$$$$
