HDM.pdb
     RDKit          3D

 27 27  0  0  1  0  0  0  0  0999 V2000
    9.8079  -15.1505   19.3295 N   0  0  0  0  0  0  0  0  0  0  0  0
    8.6748  -14.7980   20.1520 C   0  0  1  0  0  0  0  0  0  0  0  0
    7.3887  -15.0689   19.4080 C   0  0  0  0  0  0  0  0  0  0  0  0
    7.4926  -14.4446   18.0608 C   0  0  0  0  0  0  0  0  0  0  0  0
    7.6768  -13.1113   17.7914 C   0  0  0  0  0  0  0  0  0  0  0  0
    7.7197  -12.9451   16.4433 N   0  0  0  0  0  0  0  0  0  0  0  0
    7.5619  -14.1751   15.9028 C   0  0  0  0  0  0  0  0  0  0  0  0
    7.4256  -15.0738   16.8812 N   0  0  0  0  0  0  0  0  0  0  0  0
    8.7126  -15.6119   21.4174 C   0  0  0  0  0  0  0  0  0  0  0  0
    7.7689  -15.6217   22.2387 O   0  0  0  0  0  0  0  0  0  0  0  0
    9.8404  -16.4167   21.7377 N   0  0  0  0  0  0  0  0  0  0  0  0
    9.9393  -17.1224   22.9681 C   0  0  1  0  0  0  0  0  0  0  0  0
   11.0997  -18.0809   23.0421 C   0  0  0  0  0  0  0  0  0  0  0  0
   11.0867  -19.0826   21.9614 C   0  0  0  0  0  0  0  0  0  0  0  0
   11.9588  -18.9641   21.0520 O   0  0  0  0  0  0  0  0  0  0  0  0
   10.1350  -16.1311   24.0598 C   0  0  0  0  0  0  0  0  0  0  0  0
   10.3567  -14.9336   23.7554 O   0  0  0  0  0  0  0  0  0  0  0  0
   10.2064  -20.1240   21.8705 O   0  0  0  0  0  0  0  0  0  0  0  0
    6.9183  -11.0301   27.0106 C   0  0  0  0  0  0  0  0  0  0  0  0
    6.9588  -12.8327   26.9638 S   0  0  0  0  0  0  0  0  0  0  0  0
    8.2936  -13.4358   25.9035 C   0  0  0  0  0  0  0  0  0  0  0  0
    8.3790  -14.9192   25.9319 C   0  0  0  0  0  0  0  0  0  0  0  0
    9.7116  -15.4573   26.3824 C   0  0  2  0  0  0  0  0  0  0  0  0
   10.0807  -16.4830   25.4325 N   0  0  0  0  0  0  0  0  0  0  0  0
    9.6947  -16.0171   27.7277 C   0  0  0  0  0  0  0  0  0  0  0  0
    9.7240  -15.2447   28.7171 O   0  0  0  0  0  0  0  0  0  0  0  0
    9.6475  -17.3722   28.0210 O   0  0  0  0  0  0  0  0  0  0  0  0
  2  1  1  6
  2  3  1  0
  4  3  1  0
  5  4  2  0
  6  7  1  0
  6  5  1  0
  7  8  2  0
  8  4  1  0
  9 10  2  0
  9  2  1  0
 11  9  1  0
 12 11  1  0
 12 13  1  6
 14 13  1  0
 15 14  2  0
 16 12  1  0
 17 16  2  0
 18 14  1  0
 20 19  1  0
 21 20  1  0
 22 21  1  0
 23 22  1  6
 23 24  1  0
 24 16  1  0
 25 23  1  0
 26 25  2  0
 27 25  1  0
M  END
$$$$
