REA.pdb
     RDKit          3D

 26 25  0  0  1  0  0  0  0  0999 V2000
   37.9531  -12.2689  -14.7670 N   0  0  0  0  0  0  0  0  0  0  0  0
   38.1993  -10.9586  -14.2832 C   0  0  0  0  0  0  0  0  0  0  0  0
   38.9091  -10.8251  -13.2125 N   0  0  0  0  0  0  0  0  0  0  0  0
   37.6849   -9.7975  -14.9482 N   0  0  0  0  0  0  0  0  0  0  0  0
   36.4594   -9.8786  -15.7399 C   0  0  0  0  0  0  0  0  0  0  0  0
   35.3366   -9.2194  -15.0204 C   0  0  0  0  0  0  0  0  0  0  0  0
   34.0044   -9.2929  -15.6604 C   0  0  0  0  0  0  0  0  0  0  0  0
   33.6134   -8.1553  -16.5404 C   0  0  2  0  0  0  0  0  0  0  0  0
   33.7020   -6.9206  -15.7523 N   0  0  0  0  0  0  0  0  0  0  0  0
   32.1486   -8.3364  -16.8490 C   0  0  0  0  0  0  0  0  0  0  0  0
   31.2796   -7.8195  -16.0905 O   0  0  0  0  0  0  0  0  0  0  0  0
   39.2623   -9.9057  -12.8586 N   0  0  0  0  0  0  0  0  0  0  0  0
   31.7440   -9.0750  -17.9735 C   0  0  2  0  0  0  0  0  0  0  0  0
   30.3332   -9.2493  -18.3748 C   0  0  0  0  0  0  0  0  0  0  0  0
   30.2505   -9.0778  -19.8824 C   0  0  0  0  0  0  0  0  0  0  0  0
   28.9296   -9.4047  -20.4875 C   0  0  0  0  0  0  0  0  0  0  0  0
   29.0943   -9.1783  -21.9798 O   0  0  0  0  0  0  0  0  0  0  0  0
   29.3088  -10.1084  -22.7732 C   0  0  0  0  0  0  0  0  0  0  0  0
   29.8939  -10.5440  -17.8773 O   0  0  0  0  0  0  0  0  0  0  0  0
   30.6421  -11.5778  -17.9810 O   0  0  0  0  0  0  0  0  0  0  0  0
   29.0013   -7.8847  -22.4725 C   0  0  0  0  0  0  0  0  0  0  0  0
   27.1323  -12.1085  -15.8193 C   0  0  1  0  0  0  0  0  0  0  0  0
   28.2302  -12.1527  -16.8305 N   0  0  0  0  0  0  0  0  0  0  0  0
   28.6408  -10.8119  -17.2408 C   0  0  0  0  0  0  0  0  0  0  0  0
   27.9121  -12.9811  -18.0245 O   0  0  0  0  0  0  0  0  0  0  0  0
   28.0796  -14.3431  -17.9483 O   0  0  0  0  0  0  0  0  0  0  0  0
  2  3  2  0
  2  1  1  0
  4  2  1  0
  5  4  1  0
  6  5  1  0
  7  6  1  0
  8 10  1  0
  8  7  1  0
  8  9  1  1
 10 11  2  0
 12 10  1  0
 12 13  1  0
 13 14  1  6
 15 14  1  0
 15 16  1  0
 16 17  2  0
 18 23  1  0
 18 13  1  0
 19 18  2  0
 20 16  1  0
 22 21  1  1
 22 24  1  0
 22 23  1  0
 24 25  1  0
 26 24  2  0
M  END
$$$$
