REA.pdb
     RDKit          3D

 26 25  0  0  1  0  0  0  0  0999 V2000
   29.3255  -21.1598  -18.0129 N   0  0  0  0  0  0  0  0  0  0  0  0
   28.9436  -21.8092  -16.8112 C   0  0  0  0  0  0  0  0  0  0  0  0
   29.3635  -23.0131  -16.6063 N   0  0  0  0  0  0  0  0  0  0  0  0
   28.1144  -21.1662  -15.8344 N   0  0  0  0  0  0  0  0  0  0  0  0
   27.3309  -19.9849  -16.1891 C   0  0  0  0  0  0  0  0  0  0  0  0
   26.5404  -19.5201  -15.0177 C   0  0  0  0  0  0  0  0  0  0  0  0
   26.4628  -20.4412  -13.8621 C   0  0  0  0  0  0  0  0  0  0  0  0
   25.2122  -21.2390  -13.7163 C   0  0  2  0  0  0  0  0  0  0  0  0
   24.9416  -21.8973  -14.9996 N   0  0  0  0  0  0  0  0  0  0  0  0
   24.0921  -20.2481  -13.5234 C   0  0  0  0  0  0  0  0  0  0  0  0
   24.1751  -19.3780  -12.6104 O   0  0  0  0  0  0  0  0  0  0  0  0
   29.1354  -23.5721  -15.7513 N   0  0  0  0  0  0  0  0  0  0  0  0
   22.9580  -20.2857  -14.3517 C   0  0  1  0  0  0  0  0  0  0  0  0
   21.8143  -19.3607  -14.2171 C   0  0  0  0  0  0  0  0  0  0  0  0
   21.6265  -18.6513  -15.5478 C   0  0  0  0  0  0  0  0  0  0  0  0
   20.4825  -17.6996  -15.6044 C   0  0  0  0  0  0  0  0  0  0  0  0
   20.4866  -17.1362  -17.0144 O   0  0  0  0  0  0  0  0  0  0  0  0
   20.0012  -17.7513  -17.9770 C   0  0  0  0  0  0  0  0  0  0  0  0
   20.6712  -20.1411  -13.7686 O   0  0  0  0  0  0  0  0  0  0  0  0
   20.5250  -21.3613  -14.1280 O   0  0  0  0  0  0  0  0  0  0  0  0
   21.0536  -15.8889  -17.2326 C   0  0  0  0  0  0  0  0  0  0  0  0
   17.7467  -19.8620  -11.3592 C   0  0  1  0  0  0  0  0  0  0  0  0
   18.5623  -20.5400  -12.4104 N   0  0  0  0  0  0  0  0  0  0  0  0
   19.6245  -19.6720  -12.9133 C   0  0  0  0  0  0  0  0  0  0  0  0
   17.7570  -21.0753  -13.5410 O   0  0  0  0  0  0  0  0  0  0  0  0
   16.9929  -22.1989  -13.3351 O   0  0  0  0  0  0  0  0  0  0  0  0
  2  3  2  0
  2  1  1  0
  4  2  1  0
  5  4  1  0
  6  5  1  0
  7  6  1  0
  8 10  1  0
  8  7  1  0
  8  9  1  6
 10 11  2  0
 12 10  1  0
 12 13  1  0
 13 14  1  1
 15 14  1  0
 15 16  1  0
 16 17  2  0
 18 23  1  0
 18 13  1  0
 19 18  2  0
 20 16  1  0
 22 21  1  1
 22 24  1  0
 22 23  1  0
 24 25  1  0
 26 24  2  0
M  END
$$$$
