REA.pdb
     RDKit          3D

 26 25  0  0  1  0  0  0  0  0999 V2000
   19.0681  -25.5307  -10.5129 N   0  0  0  0  0  0  0  0  0  0  0  0
   18.6242  -24.4916   -9.6557 C   0  0  0  0  0  0  0  0  0  0  0  0
   18.6283  -23.2818  -10.1077 N   0  0  0  0  0  0  0  0  0  0  0  0
   18.1775  -24.7527   -8.3187 N   0  0  0  0  0  0  0  0  0  0  0  0
   18.0529  -26.1254   -7.8336 C   0  0  0  0  0  0  0  0  0  0  0  0
   17.5807  -26.1325   -6.4229 C   0  0  0  0  0  0  0  0  0  0  0  0
   17.9155  -24.9454   -5.6054 C   0  0  0  0  0  0  0  0  0  0  0  0
   17.5775  -25.0062   -4.1549 C   0  0  2  0  0  0  0  0  0  0  0  0
   18.1932  -26.2152   -3.5958 N   0  0  0  0  0  0  0  0  0  0  0  0
   16.0890  -25.2319   -4.0711 C   0  0  0  0  0  0  0  0  0  0  0  0
   15.6423  -26.3957   -3.8618 O   0  0  0  0  0  0  0  0  0  0  0  0
   18.2846  -22.4558   -9.5647 N   0  0  0  0  0  0  0  0  0  0  0  0
   15.1964  -24.1578   -4.2235 C   0  0  2  0  0  0  0  0  0  0  0  0
   13.7346  -24.2763   -4.0481 C   0  0  0  0  0  0  0  0  0  0  0  0
   13.1843  -22.8908   -3.7541 C   0  0  0  0  0  0  0  0  0  0  0  0
   13.4172  -22.3954   -2.3691 C   0  0  0  0  0  0  0  0  0  0  0  0
   12.8412  -20.9911   -2.3330 O   0  0  0  0  0  0  0  0  0  0  0  0
   12.4664  -20.4536   -1.2788 C   0  0  0  0  0  0  0  0  0  0  0  0
   13.2007  -24.9100   -5.2441 O   0  0  0  0  0  0  0  0  0  0  0  0
   13.6583  -24.6187   -6.4039 O   0  0  0  0  0  0  0  0  0  0  0  0
   12.7305  -20.2848   -3.5220 C   0  0  0  0  0  0  0  0  0  0  0  0
   11.3068  -27.9570   -6.2617 C   0  0  1  0  0  0  0  0  0  0  0  0
   11.7195  -26.5428   -6.5057 N   0  0  0  0  0  0  0  0  0  0  0  0
   12.1565  -25.8877   -5.2751 C   0  0  0  0  0  0  0  0  0  0  0  0
   10.6789  -25.7233   -7.1830 O   0  0  0  0  0  0  0  0  0  0  0  0
   10.1905  -24.6112   -6.5399 O   0  0  0  0  0  0  0  0  0  0  0  0
  2  3  2  0
  2  1  1  0
  4  2  1  0
  5  4  1  0
  6  5  1  0
  7  6  1  0
  8 10  1  0
  8  7  1  0
  8  9  1  6
 10 11  2  0
 12 10  1  0
 12 13  1  0
 13 14  1  1
 15 14  1  0
 15 16  1  0
 16 17  2  0
 18 23  1  0
 18 13  1  0
 19 18  2  0
 20 16  1  0
 22 21  1  6
 22 24  1  0
 22 23  1  0
 24 25  1  0
 26 24  2  0
M  END
$$$$
