REA.pdb
     RDKit          3D

 26 25  0  0  1  0  0  0  0  0999 V2000
   21.1352  -12.7724  -18.8989 N   0  0  0  0  0  0  0  0  0  0  0  0
   21.0927  -11.3612  -18.7643 C   0  0  0  0  0  0  0  0  0  0  0  0
   21.4732  -10.6394  -19.7654 N   0  0  0  0  0  0  0  0  0  0  0  0
   20.6425  -10.7294  -17.5588 N   0  0  0  0  0  0  0  0  0  0  0  0
   20.1571  -11.5316  -16.4380 C   0  0  0  0  0  0  0  0  0  0  0  0
   18.8475  -11.0116  -15.9611 C   0  0  0  0  0  0  0  0  0  0  0  0
   18.3164  -11.5982  -14.7107 C   0  0  0  0  0  0  0  0  0  0  0  0
   17.0037  -11.0841  -14.2269 C   0  0  2  0  0  0  0  0  0  0  0  0
   16.0268  -11.2431  -15.3104 N   0  0  0  0  0  0  0  0  0  0  0  0
   17.1678   -9.5966  -14.0427 C   0  0  0  0  0  0  0  0  0  0  0  0
   16.8111   -8.8076  -14.9636 O   0  0  0  0  0  0  0  0  0  0  0  0
   21.5457   -9.5957  -19.7369 N   0  0  0  0  0  0  0  0  0  0  0  0
   17.7141   -9.0824  -12.8548 C   0  0  2  0  0  0  0  0  0  0  0  0
   17.8593   -7.6388  -12.5776 C   0  0  0  0  0  0  0  0  0  0  0  0
   17.4313   -7.3925  -11.1405 C   0  0  0  0  0  0  0  0  0  0  0  0
   17.6886   -6.0182  -10.6278 C   0  0  0  0  0  0  0  0  0  0  0  0
   17.1580   -6.0047   -9.2052 O   0  0  0  0  0  0  0  0  0  0  0  0
   16.5744   -6.9791   -8.7045 C   0  0  0  0  0  0  0  0  0  0  0  0
   19.2336   -7.2712  -12.8825 O   0  0  0  0  0  0  0  0  0  0  0  0
   20.2119   -8.0015  -12.4964 O   0  0  0  0  0  0  0  0  0  0  0  0
   17.3326   -4.8614   -8.4390 C   0  0  0  0  0  0  0  0  0  0  0  0
   21.1910   -4.8286  -15.0068 C   0  0  1  0  0  0  0  0  0  0  0  0
   21.0464   -5.7983  -13.8805 N   0  0  0  0  0  0  0  0  0  0  0  0
   19.6446   -6.1129  -13.6151 C   0  0  0  0  0  0  0  0  0  0  0  0
   21.7227   -5.3667  -12.6276 O   0  0  0  0  0  0  0  0  0  0  0  0
   23.0950   -5.4121  -12.5673 O   0  0  0  0  0  0  0  0  0  0  0  0
  2  3  2  0
  2  1  1  0
  4  2  1  0
  5  4  1  0
  6  5  1  0
  7  6  1  0
  8 10  1  0
  8  7  1  0
  8  9  1  6
 10 11  2  0
 12 10  1  0
 12 13  1  0
 13 14  1  1
 15 14  1  0
 15 16  1  0
 16 17  2  0
 18 23  1  0
 18 13  1  0
 19 18  2  0
 20 16  1  0
 22 21  1  6
 22 24  1  0
 22 23  1  0
 24 25  1  0
 26 24  2  0
M  END
$$$$
