REA.pdb
     RDKit          3D

 26 25  0  0  1  0  0  0  0  0999 V2000
   27.7417  -21.8648  -15.4501 N   0  0  0  0  0  0  0  0  0  0  0  0
   27.6617  -20.5786  -16.0423 C   0  0  0  0  0  0  0  0  0  0  0  0
   28.4867  -20.2905  -16.9933 N   0  0  0  0  0  0  0  0  0  0  0  0
   26.6986  -19.6070  -15.6139 N   0  0  0  0  0  0  0  0  0  0  0  0
   25.5109  -20.0189  -14.8690 C   0  0  0  0  0  0  0  0  0  0  0  0
   24.5774  -20.7620  -15.7576 C   0  0  0  0  0  0  0  0  0  0  0  0
   23.2096  -20.9895  -15.2409 C   0  0  0  0  0  0  0  0  0  0  0  0
   22.8751  -22.3733  -14.7994 C   0  0  2  0  0  0  0  0  0  0  0  0
   23.2675  -23.2982  -15.8690 N   0  0  0  0  0  0  0  0  0  0  0  0
   21.3707  -22.4484  -14.7286 C   0  0  0  0  0  0  0  0  0  0  0  0
   20.6865  -22.3244  -15.7842 O   0  0  0  0  0  0  0  0  0  0  0  0
   28.5500  -19.3482  -17.4442 N   0  0  0  0  0  0  0  0  0  0  0  0
   20.7254  -22.6554  -13.4980 C   0  0  2  0  0  0  0  0  0  0  0  0
   19.2583  -22.7329  -13.3452 C   0  0  0  0  0  0  0  0  0  0  0  0
   18.9606  -23.4463  -12.0370 C   0  0  0  0  0  0  0  0  0  0  0  0
   17.5176  -23.5498  -11.6838 C   0  0  0  0  0  0  0  0  0  0  0  0
   17.4644  -24.3781  -10.4124 O   0  0  0  0  0  0  0  0  0  0  0  0
   18.4889  -24.7510   -9.8190 C   0  0  0  0  0  0  0  0  0  0  0  0
   18.7367  -21.3780  -13.4404 O   0  0  0  0  0  0  0  0  0  0  0  0
   19.4435  -20.3733  -13.0795 O   0  0  0  0  0  0  0  0  0  0  0  0
   16.2254  -24.7299   -9.8969 C   0  0  0  0  0  0  0  0  0  0  0  0
   18.3563  -18.9727  -14.9093 C   0  0  2  0  0  0  0  0  0  0  0  0
   17.1299  -19.6827  -14.4382 N   0  0  0  0  0  0  0  0  0  0  0  0
   17.4405  -21.0151  -13.9257 C   0  0  0  0  0  0  0  0  0  0  0  0
   16.0538  -19.7635  -15.4623 O   0  0  0  0  0  0  0  0  0  0  0  0
   15.3005  -18.6434  -15.7201 O   0  0  0  0  0  0  0  0  0  0  0  0
  2  3  2  0
  2  1  1  0
  4  2  1  0
  5  4  1  0
  6  5  1  0
  7  6  1  0
  8 10  1  0
  8  7  1  0
  8  9  1  6
 10 11  2  0
 12 10  1  0
 12 13  1  0
 13 14  1  6
 15 14  1  0
 15 16  1  0
 16 17  2  0
 18 23  1  0
 18 13  1  0
 19 18  2  0
 20 16  1  0
 22 21  1  1
 22 24  1  0
 22 23  1  0
 24 25  1  0
 26 24  2  0
M  END
$$$$
