REA.pdb
     RDKit          3D

 26 25  0  0  1  0  0  0  0  0999 V2000
   12.8979  -12.9682  -14.8484 N   0  0  0  0  0  0  0  0  0  0  0  0
   13.3285  -12.8527  -16.1948 C   0  0  0  0  0  0  0  0  0  0  0  0
   13.1425  -13.8572  -16.9849 N   0  0  0  0  0  0  0  0  0  0  0  0
   13.9557  -11.6621  -16.6891 N   0  0  0  0  0  0  0  0  0  0  0  0
   14.2787  -10.5630  -15.7820 C   0  0  0  0  0  0  0  0  0  0  0  0
   15.3661  -10.9664  -14.8504 C   0  0  0  0  0  0  0  0  0  0  0  0
   15.8501   -9.9328  -13.9085 C   0  0  0  0  0  0  0  0  0  0  0  0
   17.2768   -9.5196  -14.0328 C   0  0  2  0  0  0  0  0  0  0  0  0
   18.0938  -10.7344  -14.1349 N   0  0  0  0  0  0  0  0  0  0  0  0
   17.6548   -8.8847  -12.7184 C   0  0  0  0  0  0  0  0  0  0  0  0
   17.6282   -9.5734  -11.6589 O   0  0  0  0  0  0  0  0  0  0  0  0
   13.4575  -13.8798  -17.9827 N   0  0  0  0  0  0  0  0  0  0  0  0
   18.0365   -7.5337  -12.6641 C   0  0  1  0  0  0  0  0  0  0  0  0
   18.4823   -6.8575  -11.4290 C   0  0  0  0  0  0  0  0  0  0  0  0
   19.5922   -5.8883  -11.8001 C   0  0  0  0  0  0  0  0  0  0  0  0
   20.8849   -6.5198  -12.1847 C   0  0  0  0  0  0  0  0  0  0  0  0
   21.8147   -5.3717  -12.5349 O   0  0  0  0  0  0  0  0  0  0  0  0
   21.6500   -4.6673  -13.5435 C   0  0  0  0  0  0  0  0  0  0  0  0
   17.3114   -6.2478  -10.8173 O   0  0  0  0  0  0  0  0  0  0  0  0
   16.4550   -5.6111  -11.5247 O   0  0  0  0  0  0  0  0  0  0  0  0
   22.8863   -5.1016  -11.6961 C   0  0  0  0  0  0  0  0  0  0  0  0
   15.4362   -6.2496   -7.5324 C   0  0  1  0  0  0  0  0  0  0  0  0
   15.7573   -5.7016   -8.8839 N   0  0  0  0  0  0  0  0  0  0  0  0
   16.9836   -6.2829   -9.4249 C   0  0  0  0  0  0  0  0  0  0  0  0
   15.8299   -4.2163   -8.9265 O   0  0  0  0  0  0  0  0  0  0  0  0
   14.6893   -3.4909   -8.6783 O   0  0  0  0  0  0  0  0  0  0  0  0
  2  3  2  0
  2  1  1  0
  4  2  1  0
  5  4  1  0
  6  5  1  0
  7  6  1  0
  8 10  1  0
  8  7  1  0
  8  9  1  1
 10 11  2  0
 12 10  1  0
 12 13  1  0
 13 14  1  1
 15 14  1  0
 15 16  1  0
 16 17  2  0
 18 23  1  0
 18 13  1  0
 19 18  2  0
 20 16  1  0
 22 21  1  6
 22 24  1  0
 22 23  1  0
 24 25  1  0
 26 24  2  0
M  END
$$$$
