REA.pdb
     RDKit          3D

 26 25  0  0  1  0  0  0  0  0999 V2000
   20.2005  -21.8293   -7.0488 N   0  0  0  0  0  0  0  0  0  0  0  0
   19.9164  -22.6774   -8.1495 C   0  0  0  0  0  0  0  0  0  0  0  0
   18.6890  -23.0228   -8.3549 N   0  0  0  0  0  0  0  0  0  0  0  0
   20.9476  -23.1511   -9.0255 N   0  0  0  0  0  0  0  0  0  0  0  0
   22.2658  -22.5208   -9.0277 C   0  0  0  0  0  0  0  0  0  0  0  0
   22.2045  -21.2006   -9.7106 C   0  0  0  0  0  0  0  0  0  0  0  0
   23.4809  -20.4643   -9.8469 C   0  0  0  0  0  0  0  0  0  0  0  0
   24.5591  -21.1211  -10.6393 C   0  0  2  0  0  0  0  0  0  0  0  0
   25.8179  -20.9776   -9.8989 N   0  0  0  0  0  0  0  0  0  0  0  0
   24.7291  -20.3011  -11.8932 C   0  0  0  0  0  0  0  0  0  0  0  0
   25.0865  -19.0917  -11.8077 O   0  0  0  0  0  0  0  0  0  0  0  0
   18.3772  -23.6146   -9.1598 N   0  0  0  0  0  0  0  0  0  0  0  0
   24.4932  -20.8724  -13.1548 C   0  0  2  0  0  0  0  0  0  0  0  0
   24.7046  -20.1579  -14.4301 C   0  0  0  0  0  0  0  0  0  0  0  0
   25.5110  -21.0632  -15.3462 C   0  0  0  0  0  0  0  0  0  0  0  0
   26.9526  -21.1977  -14.9981 C   0  0  0  0  0  0  0  0  0  0  0  0
   27.5408  -22.1339  -16.0388 O   0  0  0  0  0  0  0  0  0  0  0  0
   26.8374  -22.7272  -16.8718 C   0  0  0  0  0  0  0  0  0  0  0  0
   23.3963  -19.7749  -14.9388 O   0  0  0  0  0  0  0  0  0  0  0  0
   22.4072  -20.5864  -14.8896 O   0  0  0  0  0  0  0  0  0  0  0  0
   28.9138  -22.3319  -16.0579 C   0  0  0  0  0  0  0  0  0  0  0  0
   21.2933  -16.8276  -15.5645 C   0  0  1  0  0  0  0  0  0  0  0  0
   21.7249  -18.1874  -16.0054 N   0  0  0  0  0  0  0  0  0  0  0  0
   23.0654  -18.5115  -15.5231 C   0  0  0  0  0  0  0  0  0  0  0  0
   21.6437  -18.3942  -17.4765 O   0  0  0  0  0  0  0  0  0  0  0  0
   22.7926  -18.7003  -18.1658 O   0  0  0  0  0  0  0  0  0  0  0  0
  2  3  2  0
  2  1  1  0
  4  2  1  0
  5  4  1  0
  6  5  1  0
  7  6  1  0
  8 10  1  0
  8  7  1  0
  8  9  1  1
 10 11  2  0
 12 10  1  0
 12 13  1  0
 13 14  1  1
 15 14  1  0
 15 16  1  0
 16 17  2  0
 18 23  1  0
 18 13  1  0
 19 18  2  0
 20 16  1  0
 22 21  1  1
 22 24  1  0
 22 23  1  0
 24 25  1  0
 26 24  2  0
M  END
$$$$
