REA.pdb
     RDKit          3D

 26 25  0  0  1  0  0  0  0  0999 V2000
   21.6074  -20.6000   -6.8432 N   0  0  0  0  0  0  0  0  0  0  0  0
   21.7975  -21.8417   -7.5017 C   0  0  0  0  0  0  0  0  0  0  0  0
   20.7884  -22.6414   -7.6029 N   0  0  0  0  0  0  0  0  0  0  0  0
   23.0669  -22.2211   -8.0492 N   0  0  0  0  0  0  0  0  0  0  0  0
   24.0351  -21.2031   -8.4510 C   0  0  0  0  0  0  0  0  0  0  0  0
   23.4822  -20.3734   -9.5551 C   0  0  0  0  0  0  0  0  0  0  0  0
   24.3554  -20.1681  -10.7319 C   0  0  0  0  0  0  0  0  0  0  0  0
   25.3129  -21.2616  -11.0624 C   0  0  2  0  0  0  0  0  0  0  0  0
   26.6317  -20.8827  -10.5422 N   0  0  0  0  0  0  0  0  0  0  0  0
   25.4545  -21.2677  -12.5636 C   0  0  0  0  0  0  0  0  0  0  0  0
   25.9911  -20.2830  -13.1467 O   0  0  0  0  0  0  0  0  0  0  0  0
   20.8407  -23.5938   -8.0336 N   0  0  0  0  0  0  0  0  0  0  0  0
   24.9944  -22.3602  -13.3176 C   0  0  2  0  0  0  0  0  0  0  0  0
   25.2032  -22.4968  -14.7734 C   0  0  0  0  0  0  0  0  0  0  0  0
   25.5799  -23.9410  -15.0591 C   0  0  0  0  0  0  0  0  0  0  0  0
   25.7161  -24.2887  -16.5008 C   0  0  0  0  0  0  0  0  0  0  0  0
   26.0848  -25.7612  -16.5349 O   0  0  0  0  0  0  0  0  0  0  0  0
   25.2677  -26.6570  -16.2691 C   0  0  0  0  0  0  0  0  0  0  0  0
   23.9924  -22.0339  -15.4341 O   0  0  0  0  0  0  0  0  0  0  0  0
   22.8362  -22.3924  -15.0167 O   0  0  0  0  0  0  0  0  0  0  0  0
   27.3819  -26.1163  -16.8757 C   0  0  0  0  0  0  0  0  0  0  0  0
   22.8897  -19.7296  -18.2463 C   0  0  1  0  0  0  0  0  0  0  0  0
   22.6974  -20.8350  -17.2608 N   0  0  0  0  0  0  0  0  0  0  0  0
   23.9415  -21.1645  -16.5693 C   0  0  0  0  0  0  0  0  0  0  0  0
   22.0943  -22.0621  -17.8471 O   0  0  0  0  0  0  0  0  0  0  0  0
   20.7418  -22.0830  -18.0902 O   0  0  0  0  0  0  0  0  0  0  0  0
  2  3  2  0
  2  1  1  0
  4  2  1  0
  5  4  1  0
  6  5  1  0
  7  6  1  0
  8 10  1  0
  8  7  1  0
  8  9  1  1
 10 11  2  0
 12 10  1  0
 12 13  1  0
 13 14  1  1
 15 14  1  0
 15 16  1  0
 16 17  2  0
 18 23  1  0
 18 13  1  0
 19 18  2  0
 20 16  1  0
 22 21  1  1
 22 24  1  0
 22 23  1  0
 24 25  1  0
 26 24  2  0
M  END
$$$$
