REA.pdb
     RDKit          3D

 26 25  0  0  1  0  0  0  0  0999 V2000
   17.0752  -14.3879  -17.9246 N   0  0  0  0  0  0  0  0  0  0  0  0
   16.9717  -14.1913  -16.5239 C   0  0  0  0  0  0  0  0  0  0  0  0
   16.6638  -15.2048  -15.7849 N   0  0  0  0  0  0  0  0  0  0  0  0
   17.1988  -12.9107  -15.9208 N   0  0  0  0  0  0  0  0  0  0  0  0
   17.7353  -11.8043  -16.7102 C   0  0  0  0  0  0  0  0  0  0  0  0
   19.1913  -11.9978  -16.9457 C   0  0  0  0  0  0  0  0  0  0  0  0
   19.9193  -10.8677  -17.5642 C   0  0  0  0  0  0  0  0  0  0  0  0
   21.3526  -11.0925  -17.9058 C   0  0  2  0  0  0  0  0  0  0  0  0
   21.7291  -12.4277  -17.4272 N   0  0  0  0  0  0  0  0  0  0  0  0
   22.1492  -10.1218  -17.0711 C   0  0  0  0  0  0  0  0  0  0  0  0
   22.4043  -10.3956  -15.8637 O   0  0  0  0  0  0  0  0  0  0  0  0
   16.6385  -15.1769  -14.7390 N   0  0  0  0  0  0  0  0  0  0  0  0
   22.6095   -8.9162  -17.6264 C   0  0  1  0  0  0  0  0  0  0  0  0
   23.3952   -7.9158  -16.8757 C   0  0  0  0  0  0  0  0  0  0  0  0
   24.1161   -7.0349  -17.8824 C   0  0  0  0  0  0  0  0  0  0  0  0
   24.8471   -5.8743  -17.3024 C   0  0  0  0  0  0  0  0  0  0  0  0
   25.4430   -5.1317  -18.4851 O   0  0  0  0  0  0  0  0  0  0  0  0
   26.3328   -5.6225  -19.1978 C   0  0  0  0  0  0  0  0  0  0  0  0
   22.4782   -7.2150  -15.9897 O   0  0  0  0  0  0  0  0  0  0  0  0
   21.3671   -6.7510  -16.4251 O   0  0  0  0  0  0  0  0  0  0  0  0
   24.9748   -3.8591  -18.7781 C   0  0  0  0  0  0  0  0  0  0  0  0
   21.6537   -6.9197  -12.3804 C   0  0  1  0  0  0  0  0  0  0  0  0
   21.6942   -6.3179  -13.7465 N   0  0  0  0  0  0  0  0  0  0  0  0
   22.6875   -6.9715  -14.5954 C   0  0  0  0  0  0  0  0  0  0  0  0
   21.9067   -4.8455  -13.7465 O   0  0  0  0  0  0  0  0  0  0  0  0
   20.9399   -4.0376  -13.1976 O   0  0  0  0  0  0  0  0  0  0  0  0
  2  3  2  0
  2  1  1  0
  4  2  1  0
  5  4  1  0
  6  5  1  0
  7  6  1  0
  8 10  1  0
  8  7  1  0
  8  9  1  1
 10 11  2  0
 12 10  1  0
 12 13  1  0
 13 14  1  1
 15 14  1  0
 15 16  1  0
 16 17  2  0
 18 23  1  0
 18 13  1  0
 19 18  2  0
 20 16  1  0
 22 21  1  6
 22 24  1  0
 22 23  1  0
 24 25  1  0
 26 24  2  0
M  END
$$$$
