MNT.pdb
     RDKit          3D

 24 23  0  0  1  0  0  0  0  0999 V2000
   13.6731  -13.8227  -17.4741 C   0  0  0  0  0  0  0  0  0  0  0  0
   13.8835  -12.0833  -17.0221 S   0  0  0  0  0  0  0  0  0  0  0  0
   15.2922  -11.9291  -15.9094 C   0  0  0  0  0  0  0  0  0  0  0  0
   15.5459  -10.4701  -15.5426 C   0  0  0  0  0  0  0  0  0  0  0  0
   16.7169  -10.4630  -14.5826 C   0  0  2  0  0  0  0  0  0  0  0  0
   16.3134  -11.2480  -13.4322 N   0  0  0  0  0  0  0  0  0  0  0  0
   17.0244   -9.0707  -14.1256 C   0  0  0  0  0  0  0  0  0  0  0  0
   17.3086   -8.1553  -14.9475 O   0  0  0  0  0  0  0  0  0  0  0  0
   16.5230   -6.0413   -8.7336 N   0  0  0  0  0  0  0  0  0  0  0  0
   16.6550   -6.1290  -10.1234 C   0  0  0  0  0  0  0  0  0  0  0  0
   16.9511   -5.0412  -10.7262 O   0  0  0  0  0  0  0  0  0  0  0  0
   16.4910   -7.3196  -10.9397 C   0  0  0  0  0  0  0  0  0  0  0  0
   17.1616   -7.3431  -12.2674 C   0  0  2  0  0  0  0  0  0  0  0  0
   17.0080   -8.7290  -12.7550 N   0  0  0  0  0  0  0  0  0  0  0  0
   18.6137   -7.0704  -12.2068 C   0  0  0  0  0  0  0  0  0  0  0  0
   19.3114   -7.5837  -11.2591 O   0  0  0  0  0  0  0  0  0  0  0  0
   21.4396   -8.3716  -13.7457 C   0  0  0  0  0  0  0  0  0  0  0  0
   21.5605   -6.9004  -13.9578 C   0  0  1  0  0  0  0  0  0  0  0  0
   21.0513   -6.5935  -15.2350 O   0  0  0  0  0  0  0  0  0  0  0  0
   20.7681   -6.0640  -12.9803 C   0  0  2  0  0  0  0  0  0  0  0  0
   19.3418   -6.2716  -13.1255 N   0  0  0  0  0  0  0  0  0  0  0  0
   21.1863   -4.6610  -13.0495 C   0  0  0  0  0  0  0  0  0  0  0  0
   22.4408   -4.2350  -12.6468 O   0  0  0  0  0  0  0  0  0  0  0  0
   20.3693   -3.8077  -13.4941 O   0  0  0  0  0  0  0  0  0  0  0  0
  1  2  1  0
  2  3  1  0
  3  4  1  0
  5  7  1  0
  5  4  1  0
  5  6  1  1
  7  8  2  0
  9 10  1  0
 10 12  1  0
 11 10  2  0
 13 12  1  1
 14 13  1  0
 14  7  1  0
 15 21  1  0
 15 13  1  0
 16 15  2  0
 18 17  1  1
 19 18  1  0
 20 21  1  6
 20 18  1  0
 22 20  1  0
 23 22  1  0
 24 22  2  0
M  END
$$$$
