MNT.pdb
     RDKit          3D

 24 23  0  0  1  0  0  0  0  0999 V2000
   30.8813  -21.7564  -11.2474 C   0  0  0  0  0  0  0  0  0  0  0  0
   29.6595  -20.4856  -10.8396 S   0  0  0  0  0  0  0  0  0  0  0  0
   28.0324  -21.2498  -10.7153 C   0  0  0  0  0  0  0  0  0  0  0  0
   27.1930  -20.9604  -11.9559 C   0  0  0  0  0  0  0  0  0  0  0  0
   25.8868  -21.7054  -11.7773 C   0  0  2  0  0  0  0  0  0  0  0  0
   26.1947  -23.1166  -11.9046 N   0  0  0  0  0  0  0  0  0  0  0  0
   24.9085  -21.3324  -12.8478 C   0  0  0  0  0  0  0  0  0  0  0  0
   25.0668  -21.7055  -14.0437 O   0  0  0  0  0  0  0  0  0  0  0  0
   20.2137  -19.4078  -14.9334 N   0  0  0  0  0  0  0  0  0  0  0  0
   20.3188  -19.5647  -13.5474 C   0  0  0  0  0  0  0  0  0  0  0  0
   19.2422  -19.3857  -12.8817 O   0  0  0  0  0  0  0  0  0  0  0  0
   21.5160  -19.9069  -12.7987 C   0  0  0  0  0  0  0  0  0  0  0  0
   22.7530  -20.1985  -13.5717 C   0  0  2  0  0  0  0  0  0  0  0  0
   23.7701  -20.5477  -12.5589 N   0  0  0  0  0  0  0  0  0  0  0  0
   23.2770  -19.0351  -14.3192 C   0  0  0  0  0  0  0  0  0  0  0  0
   23.3554  -17.8948  -13.7345 O   0  0  0  0  0  0  0  0  0  0  0  0
   26.5521  -18.0487  -15.4659 C   0  0  0  0  0  0  0  0  0  0  0  0
   25.6604  -17.9245  -16.6548 C   0  0  1  0  0  0  0  0  0  0  0  0
   25.8211  -19.0751  -17.4516 O   0  0  0  0  0  0  0  0  0  0  0  0
   24.1883  -17.8487  -16.3229 C   0  0  2  0  0  0  0  0  0  0  0  0
   23.7210  -19.0525  -15.6664 N   0  0  0  0  0  0  0  0  0  0  0  0
   23.4149  -17.4653  -17.5073 C   0  0  0  0  0  0  0  0  0  0  0  0
   23.6095  -16.2651  -18.1699 O   0  0  0  0  0  0  0  0  0  0  0  0
   22.5363  -18.2619  -17.9398 O   0  0  0  0  0  0  0  0  0  0  0  0
  1  2  1  0
  2  3  1  0
  3  4  1  0
  5  7  1  0
  5  4  1  0
  5  6  1  6
  7  8  2  0
  9 10  1  0
 10 12  1  0
 11 10  2  0
 13 12  1  1
 14 13  1  0
 14  7  1  0
 15 21  1  0
 15 13  1  0
 16 15  2  0
 18 17  1  1
 19 18  1  0
 20 21  1  6
 20 18  1  0
 22 20  1  0
 23 22  1  0
 24 22  2  0
M  END
$$$$
