MNT.pdb
     RDKit          3D

 24 23  0  0  1  0  0  0  0  0999 V2000
   20.3438  -14.6278  -19.2738 C   0  0  0  0  0  0  0  0  0  0  0  0
   19.3761  -15.5857  -18.0822 S   0  0  0  0  0  0  0  0  0  0  0  0
   19.4582  -14.7806  -16.4723 C   0  0  0  0  0  0  0  0  0  0  0  0
   18.7386  -13.4356  -16.4930 C   0  0  0  0  0  0  0  0  0  0  0  0
   19.7682  -12.4007  -16.8954 C   0  0  2  0  0  0  0  0  0  0  0  0
   20.8703  -12.5289  -15.9619 N   0  0  0  0  0  0  0  0  0  0  0  0
   19.2068  -11.0171  -16.7832 C   0  0  0  0  0  0  0  0  0  0  0  0
   18.1233  -10.6981  -17.3475 O   0  0  0  0  0  0  0  0  0  0  0  0
   16.2899   -6.9126  -15.3134 N   0  0  0  0  0  0  0  0  0  0  0  0
   17.4348   -7.5105  -14.7763 C   0  0  0  0  0  0  0  0  0  0  0  0
   17.9727   -6.9011  -13.7896 O   0  0  0  0  0  0  0  0  0  0  0  0
   18.0654   -8.7407  -15.2234 C   0  0  0  0  0  0  0  0  0  0  0  0
   19.3703   -8.6297  -15.9288 C   0  0  2  0  0  0  0  0  0  0  0  0
   19.8701  -10.0153  -16.0403 N   0  0  0  0  0  0  0  0  0  0  0  0
   20.3909   -7.8671  -15.1781 C   0  0  0  0  0  0  0  0  0  0  0  0
   20.8488   -8.3433  -14.0772 O   0  0  0  0  0  0  0  0  0  0  0  0
   23.8185   -6.6780  -16.4278 C   0  0  0  0  0  0  0  0  0  0  0  0
   23.1456   -5.5602  -15.7056 C   0  0  1  0  0  0  0  0  0  0  0  0
   22.5834   -4.6904  -16.6605 O   0  0  0  0  0  0  0  0  0  0  0  0
   22.0060   -5.9933  -14.8131 C   0  0  2  0  0  0  0  0  0  0  0  0
   20.9379   -6.6173  -15.5669 N   0  0  0  0  0  0  0  0  0  0  0  0
   21.5756   -4.8844  -13.9568 C   0  0  0  0  0  0  0  0  0  0  0  0
   20.3246   -4.3005  -14.0636 O   0  0  0  0  0  0  0  0  0  0  0  0
   22.3784   -4.4447  -13.0875 O   0  0  0  0  0  0  0  0  0  0  0  0
  1  2  1  0
  2  3  1  0
  3  4  1  0
  5  7  1  0
  5  4  1  0
  5  6  1  1
  7  8  2  0
  9 10  1  0
 10 12  1  0
 11 10  2  0
 13 12  1  1
 14 13  1  0
 14  7  1  0
 15 21  1  0
 15 13  1  0
 16 15  2  0
 18 17  1  6
 19 18  1  0
 20 21  1  6
 20 18  1  0
 22 20  1  0
 23 22  1  0
 24 22  2  0
M  END
$$$$
