MNT.pdb
     RDKit          3D

 24 23  0  0  1  0  0  0  0  0999 V2000
   17.1066  -13.5089  -18.0030 C   0  0  0  0  0  0  0  0  0  0  0  0
   17.3170  -11.8195  -17.3900 S   0  0  0  0  0  0  0  0  0  0  0  0
   16.4356  -11.6444  -15.8283 C   0  0  0  0  0  0  0  0  0  0  0  0
   16.4018  -10.1876  -15.3764 C   0  0  0  0  0  0  0  0  0  0  0  0
   17.8092   -9.8374  -14.9411 C   0  0  2  0  0  0  0  0  0  0  0  0
   18.1876  -10.8150  -13.9393 N   0  0  0  0  0  0  0  0  0  0  0  0
   17.8527   -8.4760  -14.3191 C   0  0  0  0  0  0  0  0  0  0  0  0
   17.4703   -7.4512  -14.9497 O   0  0  0  0  0  0  0  0  0  0  0  0
   18.6147   -4.7998  -10.3005 N   0  0  0  0  0  0  0  0  0  0  0  0
   18.3416   -6.1313   -9.9699 C   0  0  0  0  0  0  0  0  0  0  0  0
   18.1997   -6.3797   -8.7239 O   0  0  0  0  0  0  0  0  0  0  0  0
   18.2050   -7.2463  -10.8912 C   0  0  0  0  0  0  0  0  0  0  0  0
   18.3717   -6.9659  -12.3426 C   0  0  2  0  0  0  0  0  0  0  0  0
   18.3242   -8.2875  -13.0009 N   0  0  0  0  0  0  0  0  0  0  0  0
   19.6778   -6.3642  -12.6874 C   0  0  0  0  0  0  0  0  0  0  0  0
   20.7474   -6.8344  -12.1553 O   0  0  0  0  0  0  0  0  0  0  0  0
   21.8790   -6.5248  -15.5115 C   0  0  0  0  0  0  0  0  0  0  0  0
   21.6595   -5.0728  -15.2516 C   0  0  1  0  0  0  0  0  0  0  0  0
   20.6376   -4.6188  -16.1086 O   0  0  0  0  0  0  0  0  0  0  0  0
   21.1994   -4.7548  -13.8481 C   0  0  2  0  0  0  0  0  0  0  0  0
   19.8764   -5.2813  -13.5820 N   0  0  0  0  0  0  0  0  0  0  0  0
   21.3486   -3.3232  -13.5718 C   0  0  0  0  0  0  0  0  0  0  0  0
   22.5840   -2.7038  -13.4867 O   0  0  0  0  0  0  0  0  0  0  0  0
   20.3082   -2.6279  -13.4049 O   0  0  0  0  0  0  0  0  0  0  0  0
  1  2  1  0
  2  3  1  0
  3  4  1  0
  5  7  1  0
  5  4  1  0
  5  6  1  1
  7  8  2  0
  9 10  1  0
 10 12  1  0
 11 10  2  0
 13 12  1  1
 14 13  1  0
 14  7  1  0
 15 21  1  0
 15 13  1  0
 16 15  2  0
 18 17  1  1
 19 18  1  0
 20 21  1  6
 20 18  1  0
 22 20  1  0
 23 22  1  0
 24 22  2  0
M  END
$$$$
