MNT.pdb
     RDKit          3D

 24 23  0  0  1  0  0  0  0  0999 V2000
   16.2720  -12.4304  -20.5896 C   0  0  0  0  0  0  0  0  0  0  0  0
   16.5793  -14.2066  -20.4337 S   0  0  0  0  0  0  0  0  0  0  0  0
   18.0314  -14.4656  -19.3988 C   0  0  0  0  0  0  0  0  0  0  0  0
   18.1125  -13.4176  -18.2932 C   0  0  0  0  0  0  0  0  0  0  0  0
   19.3853  -13.6996  -17.5228 C   0  0  2  0  0  0  0  0  0  0  0  0
   19.2002  -14.9829  -16.8737 N   0  0  0  0  0  0  0  0  0  0  0  0
   19.6129  -12.6607  -16.4688 C   0  0  0  0  0  0  0  0  0  0  0  0
   19.1171  -12.7750  -15.3132 O   0  0  0  0  0  0  0  0  0  0  0  0
   21.8198   -8.2621  -14.0870 N   0  0  0  0  0  0  0  0  0  0  0  0
   22.5347   -8.9637  -15.0633 C   0  0  0  0  0  0  0  0  0  0  0  0
   23.7553   -8.6171  -15.2191 O   0  0  0  0  0  0  0  0  0  0  0  0
   22.0334  -10.0345  -15.9077 C   0  0  0  0  0  0  0  0  0  0  0  0
   20.6146  -10.4450  -15.7313 C   0  0  2  0  0  0  0  0  0  0  0  0
   20.3924  -11.5117  -16.7288 N   0  0  0  0  0  0  0  0  0  0  0  0
   19.6419   -9.3720  -16.0301 C   0  0  0  0  0  0  0  0  0  0  0  0
   19.5906   -8.8814  -17.2154 O   0  0  0  0  0  0  0  0  0  0  0  0
   15.7405   -9.2167  -15.5928 C   0  0  0  0  0  0  0  0  0  0  0  0
   16.4038   -8.0263  -14.9870 C   0  0  1  0  0  0  0  0  0  0  0  0
   16.5317   -8.2475  -13.6015 O   0  0  0  0  0  0  0  0  0  0  0  0
   17.8010   -7.7652  -15.4990 C   0  0  2  0  0  0  0  0  0  0  0  0
   18.7235   -8.8107  -15.1061 N   0  0  0  0  0  0  0  0  0  0  0  0
   18.2329   -6.4108  -15.1423 C   0  0  0  0  0  0  0  0  0  0  0  0
   19.3001   -6.1661  -14.2948 O   0  0  0  0  0  0  0  0  0  0  0  0
   17.6058   -5.4286  -15.6279 O   0  0  0  0  0  0  0  0  0  0  0  0
  1  2  1  0
  2  3  1  0
  3  4  1  0
  5  7  1  0
  5  4  1  0
  5  6  1  1
  7  8  2  0
  9 10  1  0
 10 12  1  0
 11 10  2  0
 13 12  1  6
 14 13  1  0
 14  7  1  0
 15 21  1  0
 15 13  1  0
 16 15  2  0
 18 17  1  6
 19 18  1  0
 20 21  1  1
 20 18  1  0
 22 20  1  0
 23 22  1  0
 24 22  2  0
M  END
$$$$
