MNT.pdb
     RDKit          3D

 24 23  0  0  1  0  0  0  0  0999 V2000
   28.7189  -20.2086   -4.6804 C   0  0  0  0  0  0  0  0  0  0  0  0
   28.4994  -19.3055   -6.2329 S   0  0  0  0  0  0  0  0  0  0  0  0
   26.7793  -19.4362   -6.7534 C   0  0  0  0  0  0  0  0  0  0  0  0
   26.6362  -20.3748   -7.9476 C   0  0  0  0  0  0  0  0  0  0  0  0
   25.1645  -20.4006   -8.3032 C   0  0  2  0  0  0  0  0  0  0  0  0
   24.5365  -21.3424   -7.3971 N   0  0  0  0  0  0  0  0  0  0  0  0
   24.9625  -20.8820   -9.7066 C   0  0  0  0  0  0  0  0  0  0  0  0
   25.0419  -22.1073  -10.0004 O   0  0  0  0  0  0  0  0  0  0  0  0
   21.6468  -21.9107  -12.1295 N   0  0  0  0  0  0  0  0  0  0  0  0
   21.7296  -20.5224  -12.2792 C   0  0  0  0  0  0  0  0  0  0  0  0
   20.6153  -19.9039  -12.3804 O   0  0  0  0  0  0  0  0  0  0  0  0
   22.9420  -19.7234  -12.3306 C   0  0  0  0  0  0  0  0  0  0  0  0
   24.2363  -20.4184  -12.0970 C   0  0  2  0  0  0  0  0  0  0  0  0
   24.6749  -19.9811  -10.7559 N   0  0  0  0  0  0  0  0  0  0  0  0
   25.3027  -20.0268  -13.0436 C   0  0  0  0  0  0  0  0  0  0  0  0
   25.7598  -18.8274  -13.0154 O   0  0  0  0  0  0  0  0  0  0  0  0
   28.7857  -21.4504  -13.3645 C   0  0  0  0  0  0  0  0  0  0  0  0
   28.1904  -21.3597  -14.7288 C   0  0  1  0  0  0  0  0  0  0  0  0
   27.7132  -22.6351  -15.0899 O   0  0  0  0  0  0  0  0  0  0  0  0
   27.0063  -20.4267  -14.8298 C   0  0  2  0  0  0  0  0  0  0  0  0
   25.8960  -20.8744  -14.0141 N   0  0  0  0  0  0  0  0  0  0  0  0
   26.6659  -20.1807  -16.2340 C   0  0  0  0  0  0  0  0  0  0  0  0
   27.5671  -19.6440  -17.1379 O   0  0  0  0  0  0  0  0  0  0  0  0
   25.5042  -20.4701  -16.6343 O   0  0  0  0  0  0  0  0  0  0  0  0
  1  2  1  0
  2  3  1  0
  3  4  1  0
  5  7  1  0
  5  4  1  0
  5  6  1  1
  7  8  2  0
  9 10  1  0
 10 12  1  0
 11 10  2  0
 13 12  1  6
 14 13  1  0
 14  7  1  0
 15 21  1  0
 15 13  1  0
 16 15  2  0
 18 17  1  1
 19 18  1  0
 20 21  1  1
 20 18  1  0
 22 20  1  0
 23 22  1  0
 24 22  2  0
M  END
$$$$
