MNT.pdb
     RDKit          3D

 24 23  0  0  1  0  0  0  0  0999 V2000
   26.3287  -19.5734   -8.2068 C   0  0  0  0  0  0  0  0  0  0  0  0
   27.3980  -20.9424   -8.7132 S   0  0  0  0  0  0  0  0  0  0  0  0
   26.9832  -21.4225  -10.3997 C   0  0  0  0  0  0  0  0  0  0  0  0
   25.5766  -20.9636  -10.7716 C   0  0  0  0  0  0  0  0  0  0  0  0
   25.3898  -21.2884  -12.2388 C   0  0  2  0  0  0  0  0  0  0  0  0
   26.5508  -20.7621  -12.9299 N   0  0  0  0  0  0  0  0  0  0  0  0
   24.1666  -20.6177  -12.7828 C   0  0  0  0  0  0  0  0  0  0  0  0
   23.9581  -19.3848  -12.6070 O   0  0  0  0  0  0  0  0  0  0  0  0
   19.9069  -19.5651  -15.8864 N   0  0  0  0  0  0  0  0  0  0  0  0
   21.1479  -20.0334  -16.3304 C   0  0  0  0  0  0  0  0  0  0  0  0
   21.3980  -19.8619  -17.5724 O   0  0  0  0  0  0  0  0  0  0  0  0
   22.1685  -20.6876  -15.5296 C   0  0  0  0  0  0  0  0  0  0  0  0
   21.9701  -20.7244  -14.0558 C   0  0  2  0  0  0  0  0  0  0  0  0
   23.1985  -21.3409  -13.5143 N   0  0  0  0  0  0  0  0  0  0  0  0
   20.8402  -21.5768  -13.6274 C   0  0  0  0  0  0  0  0  0  0  0  0
   20.9721  -22.8537  -13.6482 O   0  0  0  0  0  0  0  0  0  0  0  0
   16.4446  -22.3381  -11.4243 C   0  0  0  0  0  0  0  0  0  0  0  0
   17.5786  -21.4453  -11.7997 C   0  0  1  0  0  0  0  0  0  0  0  0
   18.3639  -21.2201  -10.6519 O   0  0  0  0  0  0  0  0  0  0  0  0
   18.5113  -22.0270  -12.8363 C   0  0  2  0  0  0  0  0  0  0  0  0
   19.5792  -21.1092  -13.1763 N   0  0  0  0  0  0  0  0  0  0  0  0
   17.7521  -22.5260  -13.9864 C   0  0  0  0  0  0  0  0  0  0  0  0
   17.2791  -21.6938  -14.9869 O   0  0  0  0  0  0  0  0  0  0  0  0
   17.5206  -23.7643  -14.0670 O   0  0  0  0  0  0  0  0  0  0  0  0
  1  2  1  0
  2  3  1  0
  3  4  1  0
  5  7  1  0
  5  4  1  0
  5  6  1  6
  7  8  2  0
  9 10  1  0
 10 12  1  0
 11 10  2  0
 13 12  1  6
 14 13  1  0
 14  7  1  0
 15 21  1  0
 15 13  1  0
 16 15  2  0
 18 17  1  1
 19 18  1  0
 20 21  1  6
 20 18  1  0
 22 20  1  0
 23 22  1  0
 24 22  2  0
M  END
$$$$
