MNT.pdb
     RDKit          3D

 24 23  0  0  1  0  0  0  0  0999 V2000
   30.6795  -21.5421   -8.9176 C   0  0  0  0  0  0  0  0  0  0  0  0
   31.5799  -21.7627  -10.4715 S   0  0  0  0  0  0  0  0  0  0  0  0
   30.5166  -21.2792  -11.8434 C   0  0  0  0  0  0  0  0  0  0  0  0
   29.0895  -21.7763  -11.6346 C   0  0  0  0  0  0  0  0  0  0  0  0
   28.2714  -21.2396  -12.7902 C   0  0  2  0  0  0  0  0  0  0  0  0
   28.4097  -19.7966  -12.7599 N   0  0  0  0  0  0  0  0  0  0  0  0
   26.8234  -21.5834  -12.6246 C   0  0  0  0  0  0  0  0  0  0  0  0
   26.4147  -22.7746  -12.7153 O   0  0  0  0  0  0  0  0  0  0  0  0
   22.8439  -21.2852   -8.7295 N   0  0  0  0  0  0  0  0  0  0  0  0
   23.0432  -20.5906   -9.9273 C   0  0  0  0  0  0  0  0  0  0  0  0
   21.9926  -20.1134  -10.4777 O   0  0  0  0  0  0  0  0  0  0  0  0
   24.3105  -20.3608  -10.5995 C   0  0  0  0  0  0  0  0  0  0  0  0
   24.4648  -20.8918  -11.9804 C   0  0  2  0  0  0  0  0  0  0  0  0
   25.8591  -20.5856  -12.3603 N   0  0  0  0  0  0  0  0  0  0  0  0
   23.5957  -20.2274  -12.9754 C   0  0  0  0  0  0  0  0  0  0  0  0
   23.7807  -18.9853  -13.2427 O   0  0  0  0  0  0  0  0  0  0  0  0
   23.3270  -20.5882  -16.5952 C   0  0  0  0  0  0  0  0  0  0  0  0
   21.9369  -20.6817  -16.0636 C   0  0  1  0  0  0  0  0  0  0  0  0
   21.5863  -22.0434  -15.9767 O   0  0  0  0  0  0  0  0  0  0  0  0
   21.7633  -20.1163  -14.6732 C   0  0  2  0  0  0  0  0  0  0  0  0
   22.5406  -20.8469  -13.6932 N   0  0  0  0  0  0  0  0  0  0  0  0
   20.3405  -19.9892  -14.3455 C   0  0  0  0  0  0  0  0  0  0  0  0
   19.4832  -19.1603  -15.0491 O   0  0  0  0  0  0  0  0  0  0  0  0
   19.8791  -20.6631  -13.3828 O   0  0  0  0  0  0  0  0  0  0  0  0
  1  2  1  0
  2  3  1  0
  3  4  1  0
  5  7  1  0
  5  4  1  0
  5  6  1  1
  7  8  2  0
  9 10  1  0
 10 12  1  0
 11 10  2  0
 13 12  1  1
 14 13  1  0
 14  7  1  0
 15 21  1  0
 15 13  1  0
 16 15  2  0
 18 17  1  1
 19 18  1  0
 20 21  1  1
 20 18  1  0
 22 20  1  0
 23 22  1  0
 24 22  2  0
M  END
$$$$
