MNT.pdb
     RDKit          3D

 24 23  0  0  1  0  0  0  0  0999 V2000
   29.2702  -19.6937   -4.6000 C   0  0  0  0  0  0  0  0  0  0  0  0
   28.9373  -19.2479   -6.3217 S   0  0  0  0  0  0  0  0  0  0  0  0
   27.2614  -19.7538   -6.7488 C   0  0  0  0  0  0  0  0  0  0  0  0
   26.9006  -19.3198   -8.1662 C   0  0  0  0  0  0  0  0  0  0  0  0
   26.3208  -20.5365   -8.8564 C   0  0  2  0  0  0  0  0  0  0  0  0
   27.4159  -21.4692   -9.0393 N   0  0  0  0  0  0  0  0  0  0  0  0
   25.7717  -20.1762  -10.2020 C   0  0  0  0  0  0  0  0  0  0  0  0
   24.9927  -19.1942  -10.3540 O   0  0  0  0  0  0  0  0  0  0  0  0
   28.3028  -19.2279  -13.1673 N   0  0  0  0  0  0  0  0  0  0  0  0
   27.9479  -20.4450  -13.7582 C   0  0  0  0  0  0  0  0  0  0  0  0
   28.8437  -20.9950  -14.4859 O   0  0  0  0  0  0  0  0  0  0  0  0
   26.6773  -21.1377  -13.6285 C   0  0  0  0  0  0  0  0  0  0  0  0
   25.6625  -20.5511  -12.7127 C   0  0  2  0  0  0  0  0  0  0  0  0
   26.1054  -20.9232  -11.3535 N   0  0  0  0  0  0  0  0  0  0  0  0
   24.3057  -21.1125  -12.8881 C   0  0  0  0  0  0  0  0  0  0  0  0
   24.1573  -22.3850  -12.9724 O   0  0  0  0  0  0  0  0  0  0  0  0
   20.9837  -20.5993  -10.8333 C   0  0  0  0  0  0  0  0  0  0  0  0
   20.7512  -20.4094  -12.2941 C   0  0  1  0  0  0  0  0  0  0  0  0
   20.7436  -19.0271  -12.5656 O   0  0  0  0  0  0  0  0  0  0  0  0
   21.8243  -21.0025  -13.1768 C   0  0  2  0  0  0  0  0  0  0  0  0
   23.1064  -20.3597  -12.9730 N   0  0  0  0  0  0  0  0  0  0  0  0
   21.3788  -21.0368  -14.5727 C   0  0  0  0  0  0  0  0  0  0  0  0
   20.2938  -21.7878  -14.9921 O   0  0  0  0  0  0  0  0  0  0  0  0
   22.0105  -20.3537  -15.4260 O   0  0  0  0  0  0  0  0  0  0  0  0
  1  2  1  0
  2  3  1  0
  3  4  1  0
  5  7  1  0
  5  4  1  0
  5  6  1  6
  7  8  2  0
  9 10  1  0
 10 12  1  0
 11 10  2  0
 13 12  1  6
 14 13  1  0
 14  7  1  0
 15 21  1  0
 15 13  1  0
 16 15  2  0
 18 17  1  1
 19 18  1  0
 20 21  1  6
 20 18  1  0
 22 20  1  0
 23 22  1  0
 24 22  2  0
M  END
$$$$
