MNT.pdb
     RDKit          3D

 24 23  0  0  1  0  0  0  0  0999 V2000
   29.1007  -22.5953  -16.8984 C   0  0  0  0  0  0  0  0  0  0  0  0
   27.8563  -22.6488  -15.5860 S   0  0  0  0  0  0  0  0  0  0  0  0
   27.3678  -20.9657  -15.1672 C   0  0  0  0  0  0  0  0  0  0  0  0
   27.2806  -20.0920  -16.4148 C   0  0  0  0  0  0  0  0  0  0  0  0
   26.8838  -18.7078  -15.9462 C   0  0  2  0  0  0  0  0  0  0  0  0
   25.5847  -18.8411  -15.3161 N   0  0  0  0  0  0  0  0  0  0  0  0
   26.7576  -17.7676  -17.1047 C   0  0  0  0  0  0  0  0  0  0  0  0
   27.7561  -17.4557  -17.8117 O   0  0  0  0  0  0  0  0  0  0  0  0
   25.8096  -18.5466  -20.6539 N   0  0  0  0  0  0  0  0  0  0  0  0
   24.5279  -18.0935  -20.3241 C   0  0  0  0  0  0  0  0  0  0  0  0
   23.5580  -18.6868  -20.9086 O   0  0  0  0  0  0  0  0  0  0  0  0
   24.1939  -17.0282  -19.3942 C   0  0  0  0  0  0  0  0  0  0  0  0
   25.3128  -16.3749  -18.6634 C   0  0  2  0  0  0  0  0  0  0  0  0
   25.5141  -17.1935  -17.4503 N   0  0  0  0  0  0  0  0  0  0  0  0
   25.0055  -15.0026  -18.2061 C   0  0  0  0  0  0  0  0  0  0  0  0
   24.0493  -14.8174  -17.3697 O   0  0  0  0  0  0  0  0  0  0  0  0
   27.1050  -12.5745  -16.2997 C   0  0  0  0  0  0  0  0  0  0  0  0
   26.5032  -11.8308  -17.4437 C   0  0  1  0  0  0  0  0  0  0  0  0
   27.4786  -11.7043  -18.4523 O   0  0  0  0  0  0  0  0  0  0  0  0
   25.3255  -12.5255  -18.0864 C   0  0  2  0  0  0  0  0  0  0  0  0
   25.6874  -13.8264  -18.6109 N   0  0  0  0  0  0  0  0  0  0  0  0
   24.6755  -11.6404  -19.0570 C   0  0  0  0  0  0  0  0  0  0  0  0
   24.0085  -10.4855  -18.6848 O   0  0  0  0  0  0  0  0  0  0  0  0
   24.7264  -11.9441  -20.2813 O   0  0  0  0  0  0  0  0  0  0  0  0
  1  2  1  0
  2  3  1  0
  3  4  1  0
  5  7  1  0
  5  4  1  0
  5  6  1  6
  7  8  2  0
  9 10  1  0
 10 12  1  0
 11 10  2  0
 13 12  1  1
 14 13  1  0
 14  7  1  0
 15 21  1  0
 15 13  1  0
 16 15  2  0
 18 17  1  1
 19 18  1  0
 20 21  1  6
 20 18  1  0
 22 20  1  0
 23 22  1  0
 24 22  2  0
M  END
$$$$
