MNT.pdb
     RDKit          3D

 24 23  0  0  1  0  0  0  0  0999 V2000
   24.2219  -19.9550   -8.6131 C   0  0  0  0  0  0  0  0  0  0  0  0
   26.0290  -19.8752   -8.5705 S   0  0  0  0  0  0  0  0  0  0  0  0
   26.6932  -20.7893   -9.9741 C   0  0  0  0  0  0  0  0  0  0  0  0
   25.7800  -20.6690  -11.1903 C   0  0  0  0  0  0  0  0  0  0  0  0
   26.4734  -21.3935  -12.3248 C   0  0  2  0  0  0  0  0  0  0  0  0
   27.7242  -20.6977  -12.5568 N   0  0  0  0  0  0  0  0  0  0  0  0
   25.6547  -21.3327  -13.5770 C   0  0  0  0  0  0  0  0  0  0  0  0
   25.7110  -20.3383  -14.3531 O   0  0  0  0  0  0  0  0  0  0  0  0
   25.4021  -25.8384  -15.8401 N   0  0  0  0  0  0  0  0  0  0  0  0
   25.0077  -24.5210  -16.0966 C   0  0  0  0  0  0  0  0  0  0  0  0
   25.7495  -23.8628  -16.9034 O   0  0  0  0  0  0  0  0  0  0  0  0
   23.8525  -23.8350  -15.5436 C   0  0  0  0  0  0  0  0  0  0  0  0
   24.0071  -22.3980  -15.1916 C   0  0  2  0  0  0  0  0  0  0  0  0
   24.7871  -22.3876  -13.9371 N   0  0  0  0  0  0  0  0  0  0  0  0
   22.7281  -21.7135  -14.9046 C   0  0  0  0  0  0  0  0  0  0  0  0
   22.1156  -21.9603  -13.8036 O   0  0  0  0  0  0  0  0  0  0  0  0
   21.9704  -17.7770  -15.2171 C   0  0  0  0  0  0  0  0  0  0  0  0
   20.9025  -18.6289  -15.8151 C   0  0  1  0  0  0  0  0  0  0  0  0
   21.1136  -18.6926  -17.2066 O   0  0  0  0  0  0  0  0  0  0  0  0
   20.9016  -20.0588  -15.3271 C   0  0  2  0  0  0  0  0  0  0  0  0
   22.0867  -20.7747  -15.7529 N   0  0  0  0  0  0  0  0  0  0  0  0
   19.6389  -20.7176  -15.6729 C   0  0  0  0  0  0  0  0  0  0  0  0
   18.4594  -20.4775  -14.9885 O   0  0  0  0  0  0  0  0  0  0  0  0
   19.6273  -21.5366  -16.6334 O   0  0  0  0  0  0  0  0  0  0  0  0
  1  2  1  0
  2  3  1  0
  3  4  1  0
  5  7  1  0
  5  4  1  0
  5  6  1  6
  7  8  2  0
  9 10  1  0
 10 12  1  0
 11 10  2  0
 13 12  1  1
 14 13  1  0
 14  7  1  0
 15 21  1  0
 15 13  1  0
 16 15  2  0
 18 17  1  1
 19 18  1  0
 20 21  1  6
 20 18  1  0
 22 20  1  0
 23 22  1  0
 24 22  2  0
M  END
$$$$
