MNT.pdb
     RDKit          3D

 24 23  0  0  1  0  0  0  0  0999 V2000
   27.4342  -18.7089   -6.6318 C   0  0  0  0  0  0  0  0  0  0  0  0
   28.4220  -20.1535   -7.0912 S   0  0  0  0  0  0  0  0  0  0  0  0
   27.4827  -21.1671   -8.2475 C   0  0  0  0  0  0  0  0  0  0  0  0
   26.7329  -20.3006   -9.2546 C   0  0  0  0  0  0  0  0  0  0  0  0
   26.0313  -21.2494  -10.2035 C   0  0  2  0  0  0  0  0  0  0  0  0
   27.0627  -22.0762  -10.7993 N   0  0  0  0  0  0  0  0  0  0  0  0
   25.3348  -20.4962  -11.2941 C   0  0  0  0  0  0  0  0  0  0  0  0
   24.4837  -19.5999  -11.0359 O   0  0  0  0  0  0  0  0  0  0  0  0
   27.2116  -18.1548  -14.2993 N   0  0  0  0  0  0  0  0  0  0  0  0
   26.9618  -19.2910  -15.0760 C   0  0  0  0  0  0  0  0  0  0  0  0
   27.8074  -19.5298  -16.0046 O   0  0  0  0  0  0  0  0  0  0  0  0
   25.8500  -20.2154  -14.9336 C   0  0  0  0  0  0  0  0  0  0  0  0
   24.9497  -20.0359  -13.7632 C   0  0  2  0  0  0  0  0  0  0  0  0
   25.6046  -20.7609  -12.6552 N   0  0  0  0  0  0  0  0  0  0  0  0
   23.6134  -20.6440  -13.9401 C   0  0  0  0  0  0  0  0  0  0  0  0
   23.4998  -21.9229  -13.9470 O   0  0  0  0  0  0  0  0  0  0  0  0
   18.7708  -20.6606  -13.2630 C   0  0  0  0  0  0  0  0  0  0  0  0
   20.1208  -20.0297  -13.2046 C   0  0  1  0  0  0  0  0  0  0  0  0
   20.6524  -20.2387  -11.9168 O   0  0  0  0  0  0  0  0  0  0  0  0
   21.1236  -20.6161  -14.1706 C   0  0  2  0  0  0  0  0  0  0  0  0
   22.3984  -19.9310  -14.1066 N   0  0  0  0  0  0  0  0  0  0  0  0
   20.5492  -20.7025  -15.5162 C   0  0  0  0  0  0  0  0  0  0  0  0
   19.9673  -21.8592  -16.0069 O   0  0  0  0  0  0  0  0  0  0  0  0
   20.5870  -19.6808  -16.2566 O   0  0  0  0  0  0  0  0  0  0  0  0
  1  2  1  0
  2  3  1  0
  3  4  1  0
  5  7  1  0
  5  4  1  0
  5  6  1  6
  7  8  2  0
  9 10  1  0
 10 12  1  0
 11 10  2  0
 13 12  1  6
 14 13  1  0
 14  7  1  0
 15 21  1  0
 15 13  1  0
 16 15  2  0
 18 17  1  1
 19 18  1  0
 20 21  1  6
 20 18  1  0
 22 20  1  0
 23 22  1  0
 24 22  2  0
M  END
$$$$
