MNT.pdb
     RDKit          3D

 24 23  0  0  1  0  0  0  0  0999 V2000
   25.8445  -17.4451  -18.7247 C   0  0  0  0  0  0  0  0  0  0  0  0
   26.2967  -19.1466  -19.1419 S   0  0  0  0  0  0  0  0  0  0  0  0
   26.7115  -20.0345  -17.6299 C   0  0  0  0  0  0  0  0  0  0  0  0
   27.3446  -19.1026  -16.6012 C   0  0  0  0  0  0  0  0  0  0  0  0
   27.6593  -19.9499  -15.3863 C   0  0  2  0  0  0  0  0  0  0  0  0
   27.4533  -21.3301  -15.7800 N   0  0  0  0  0  0  0  0  0  0  0  0
   26.7281  -19.6319  -14.2577 C   0  0  0  0  0  0  0  0  0  0  0  0
   26.6869  -18.4800  -13.7424 O   0  0  0  0  0  0  0  0  0  0  0  0
   22.3704  -20.2322  -11.0314 N   0  0  0  0  0  0  0  0  0  0  0  0
   22.4814  -20.9812  -12.2075 C   0  0  0  0  0  0  0  0  0  0  0  0
   21.4488  -21.6586  -12.5380 O   0  0  0  0  0  0  0  0  0  0  0  0
   23.6400  -21.0643  -13.0803 C   0  0  0  0  0  0  0  0  0  0  0  0
   24.8630  -20.3205  -12.6754 C   0  0  2  0  0  0  0  0  0  0  0  0
   25.8594  -20.6110  -13.7265 N   0  0  0  0  0  0  0  0  0  0  0  0
   25.4451  -20.7812  -11.3965 C   0  0  0  0  0  0  0  0  0  0  0  0
   25.9552  -21.9572  -11.3247 O   0  0  0  0  0  0  0  0  0  0  0  0
   27.2541  -20.4643   -6.8598 C   0  0  0  0  0  0  0  0  0  0  0  0
   26.9370  -19.9213   -8.2121 C   0  0  1  0  0  0  0  0  0  0  0  0
   28.0789  -20.0619   -9.0251 O   0  0  0  0  0  0  0  0  0  0  0  0
   25.8225  -20.6479   -8.9282 C   0  0  2  0  0  0  0  0  0  0  0  0
   25.5015  -20.0264  -10.1968 N   0  0  0  0  0  0  0  0  0  0  0  0
   24.6744  -20.8320   -8.0361 C   0  0  0  0  0  0  0  0  0  0  0  0
   24.6929  -21.7117   -6.9670 O   0  0  0  0  0  0  0  0  0  0  0  0
   23.6271  -20.1610   -8.2520 O   0  0  0  0  0  0  0  0  0  0  0  0
  1  2  1  0
  2  3  1  0
  3  4  1  0
  5  7  1  0
  5  4  1  0
  5  6  1  6
  7  8  2  0
  9 10  1  0
 10 12  1  0
 11 10  2  0
 13 12  1  6
 14 13  1  0
 14  7  1  0
 15 21  1  0
 15 13  1  0
 16 15  2  0
 18 17  1  1
 19 18  1  0
 20 21  1  6
 20 18  1  0
 22 20  1  0
 23 22  1  0
 24 22  2  0
M  END
$$$$
