ISC.pdb
     RDKit          3D

 21 20  0  0  1  0  0  0  0  0999 V2000
   11.1042  -12.3094   -8.9350 C   0  0  0  0  0  0  0  0  0  0  0  0
   11.3673  -11.7197  -10.2807 C   0  0  0  0  0  0  0  0  0  0  0  0
   12.7191  -11.0405  -10.3642 C   0  0  2  0  0  0  0  0  0  0  0  0
   12.8155   -9.9073   -9.3817 C   0  0  0  0  0  0  0  0  0  0  0  0
   12.8867  -10.5378  -11.7956 C   0  0  2  0  0  0  0  0  0  0  0  0
   12.8093  -11.6768  -12.6596 N   0  0  0  0  0  0  0  0  0  0  0  0
   14.1850   -9.8508  -11.9809 C   0  0  0  0  0  0  0  0  0  0  0  0
   14.5291   -8.8571  -11.2904 O   0  0  0  0  0  0  0  0  0  0  0  0
   16.7084  -10.9735  -15.0980 O   0  0  0  0  0  0  0  0  0  0  0  0
   17.3382  -10.4178  -13.9861 C   0  0  0  0  0  0  0  0  0  0  0  0
   16.3593   -9.6063  -13.1570 C   0  0  2  0  0  0  0  0  0  0  0  0
   15.1053  -10.3112  -12.9756 N   0  0  0  0  0  0  0  0  0  0  0  0
   16.0791   -8.3759  -13.9131 C   0  0  0  0  0  0  0  0  0  0  0  0
   15.0029   -8.2452  -14.5170 O   0  0  0  0  0  0  0  0  0  0  0  0
   17.0300   -7.3423  -13.9548 N   0  0  0  0  0  0  0  0  0  0  0  0
   16.7964   -6.2065  -14.8077 C   0  0  1  0  0  0  0  0  0  0  0  0
   15.8250   -5.2228  -14.1824 C   0  0  0  0  0  0  0  0  0  0  0  0
   16.4817   -4.7908  -12.5475 S   0  0  0  0  0  0  0  0  0  0  0  0
   18.0881   -5.5792  -15.1290 C   0  0  0  0  0  0  0  0  0  0  0  0
   19.1907   -5.9922  -14.6834 O   0  0  0  0  0  0  0  0  0  0  0  0
   18.1095   -4.4769  -15.9628 O   0  0  0  0  0  0  0  0  0  0  0  0
  2  3  1  0
  2  1  1  0
  3  5  1  0
  3  4  1  1
  5  6  1  6
  5  7  1  0
  7  8  2  0
 10  9  1  0
 11 10  1  6
 12  7  1  0
 12 11  1  0
 13 15  1  0
 13 11  1  0
 14 13  2  0
 16 19  1  0
 16 17  1  1
 16 15  1  0
 18 17  1  0
 19 21  1  0
 20 19  2  0
M  END
$$$$
