ISC.pdb
     RDKit          3D

 21 20  0  0  1  0  0  0  0  0999 V2000
   22.6045  -14.4845  -19.4961 C   0  0  0  0  0  0  0  0  0  0  0  0
   23.2730  -13.2007  -19.8604 C   0  0  0  0  0  0  0  0  0  0  0  0
   23.0984  -12.1324  -18.8002 C   0  0  2  0  0  0  0  0  0  0  0  0
   21.6433  -11.8445  -18.5585 C   0  0  0  0  0  0  0  0  0  0  0  0
   23.8280  -10.8842  -19.2894 C   0  0  2  0  0  0  0  0  0  0  0  0
   25.1946  -11.2486  -19.5123 N   0  0  0  0  0  0  0  0  0  0  0  0
   23.7533   -9.7882  -18.2970 C   0  0  0  0  0  0  0  0  0  0  0  0
   24.4338   -9.7862  -17.2389 O   0  0  0  0  0  0  0  0  0  0  0  0
   21.1660   -6.3956  -18.7685 O   0  0  0  0  0  0  0  0  0  0  0  0
   22.4118   -6.2953  -18.1525 C   0  0  0  0  0  0  0  0  0  0  0  0
   22.8175   -7.6189  -17.5295 C   0  0  2  0  0  0  0  0  0  0  0  0
   22.8829   -8.6745  -18.5214 N   0  0  0  0  0  0  0  0  0  0  0  0
   21.7671   -7.9737  -16.5626 C   0  0  0  0  0  0  0  0  0  0  0  0
   20.9013   -8.8114  -16.8601 O   0  0  0  0  0  0  0  0  0  0  0  0
   21.7398   -7.3648  -15.2967 N   0  0  0  0  0  0  0  0  0  0  0  0
   20.7051   -7.7283  -14.3642 C   0  0  1  0  0  0  0  0  0  0  0  0
   21.2355   -8.6125  -13.2509 C   0  0  0  0  0  0  0  0  0  0  0  0
   19.9126   -8.7716  -12.0200 S   0  0  0  0  0  0  0  0  0  0  0  0
   20.0799   -6.5016  -13.8452 C   0  0  0  0  0  0  0  0  0  0  0  0
   20.6996   -5.4161  -13.6954 O   0  0  0  0  0  0  0  0  0  0  0  0
   18.7418   -6.5255  -13.4992 O   0  0  0  0  0  0  0  0  0  0  0  0
  2  3  1  0
  2  1  1  0
  3  5  1  0
  3  4  1  6
  5  6  1  1
  5  7  1  0
  7  8  2  0
 10  9  1  0
 11 10  1  6
 12  7  1  0
 12 11  1  0
 13 15  1  0
 13 11  1  0
 14 13  2  0
 16 19  1  0
 16 17  1  1
 16 15  1  0
 18 17  1  0
 19 21  1  0
 20 19  2  0
M  END
$$$$
