ISC.pdb
     RDKit          3D

 21 20  0  0  1  0  0  0  0  0999 V2000
   29.0404  -12.4877  -16.4384 C   0  0  0  0  0  0  0  0  0  0  0  0
   27.5835  -12.8002  -16.3508 C   0  0  0  0  0  0  0  0  0  0  0  0
   26.7118  -11.5882  -16.6094 C   0  0  2  0  0  0  0  0  0  0  0  0
   26.8484  -10.5793  -15.5039 C   0  0  0  0  0  0  0  0  0  0  0  0
   25.2718  -12.0811  -16.7239 C   0  0  2  0  0  0  0  0  0  0  0  0
   25.2530  -13.1179  -17.7112 N   0  0  0  0  0  0  0  0  0  0  0  0
   24.3546  -10.9890  -17.1212 C   0  0  0  0  0  0  0  0  0  0  0  0
   24.3218  -10.5248  -18.2900 O   0  0  0  0  0  0  0  0  0  0  0  0
   20.8482  -10.4162  -15.2340 O   0  0  0  0  0  0  0  0  0  0  0  0
   21.0965   -9.8373  -16.4769 C   0  0  0  0  0  0  0  0  0  0  0  0
   22.5400   -9.3799  -16.5841 C   0  0  2  0  0  0  0  0  0  0  0  0
   23.4588  -10.4189  -16.1616 N   0  0  0  0  0  0  0  0  0  0  0  0
   22.6947   -8.2410  -15.6659 C   0  0  0  0  0  0  0  0  0  0  0  0
   23.1219   -8.4203  -14.5147 O   0  0  0  0  0  0  0  0  0  0  0  0
   22.3589   -6.9440  -16.0890 N   0  0  0  0  0  0  0  0  0  0  0  0
   22.4226   -5.8585  -15.1457 C   0  0  1  0  0  0  0  0  0  0  0  0
   22.6474   -4.5256  -15.8352 C   0  0  0  0  0  0  0  0  0  0  0  0
   22.6947   -3.2564  -14.5401 S   0  0  0  0  0  0  0  0  0  0  0  0
   21.1953   -5.8608  -14.3341 C   0  0  0  0  0  0  0  0  0  0  0  0
   21.1797   -5.6226  -13.0980 O   0  0  0  0  0  0  0  0  0  0  0  0
   19.9870   -6.1372  -14.9460 O   0  0  0  0  0  0  0  0  0  0  0  0
  2  3  1  0
  2  1  1  0
  3  5  1  0
  3  4  1  1
  5  6  1  6
  5  7  1  0
  7  8  2  0
 10  9  1  0
 11 10  1  1
 12  7  1  0
 12 11  1  0
 13 15  1  0
 13 11  1  0
 14 13  2  0
 16 19  1  0
 16 17  1  6
 16 15  1  0
 18 17  1  0
 19 21  1  0
 20 19  2  0
M  END
$$$$
