ISC.pdb
     RDKit          3D

 21 20  0  0  1  0  0  0  0  0999 V2000
   26.7478  -14.7428  -16.2282 C   0  0  0  0  0  0  0  0  0  0  0  0
   25.3554  -14.5512  -16.7307 C   0  0  0  0  0  0  0  0  0  0  0  0
   24.9823  -13.0892  -16.8680 C   0  0  2  0  0  0  0  0  0  0  0  0
   25.0277  -12.3931  -15.5368 C   0  0  0  0  0  0  0  0  0  0  0  0
   23.5790  -13.0332  -17.4658 C   0  0  2  0  0  0  0  0  0  0  0  0
   23.6003  -13.7974  -18.6764 N   0  0  0  0  0  0  0  0  0  0  0  0
   23.1676  -11.6408  -17.7550 C   0  0  0  0  0  0  0  0  0  0  0  0
   23.7130  -10.9466  -18.6514 O   0  0  0  0  0  0  0  0  0  0  0  0
   19.4941  -10.2577  -16.4459 O   0  0  0  0  0  0  0  0  0  0  0  0
   20.1241   -9.7082  -17.5607 C   0  0  0  0  0  0  0  0  0  0  0  0
   21.6328   -9.7214  -17.3930 C   0  0  2  0  0  0  0  0  0  0  0  0
   22.1122  -11.0331  -17.0032 N   0  0  0  0  0  0  0  0  0  0  0  0
   21.9480   -8.7845  -16.3036 C   0  0  0  0  0  0  0  0  0  0  0  0
   22.2283   -9.2125  -15.1731 O   0  0  0  0  0  0  0  0  0  0  0  0
   21.9331   -7.3994  -16.5389 N   0  0  0  0  0  0  0  0  0  0  0  0
   22.2531   -6.5000  -15.4614 C   0  0  1  0  0  0  0  0  0  0  0  0
   23.1457   -5.3631  -15.9230 C   0  0  0  0  0  0  0  0  0  0  0  0
   23.4625   -4.3133  -14.4779 S   0  0  0  0  0  0  0  0  0  0  0  0
   21.0013   -6.0114  -14.8619 C   0  0  0  0  0  0  0  0  0  0  0  0
   19.9944   -5.6715  -15.5368 O   0  0  0  0  0  0  0  0  0  0  0  0
   20.9096   -5.9144  -13.4861 O   0  0  0  0  0  0  0  0  0  0  0  0
  2  3  1  0
  2  1  1  0
  3  5  1  0
  3  4  1  1
  5  6  1  6
  5  7  1  0
  7  8  2  0
 10  9  1  0
 11 10  1  1
 12  7  1  0
 12 11  1  0
 13 15  1  0
 13 11  1  0
 14 13  2  0
 16 19  1  0
 16 17  1  6
 16 15  1  0
 18 17  1  0
 19 21  1  0
 20 19  2  0
M  END
$$$$
