ISC.pdb
     RDKit          3D

 21 20  0  0  1  0  0  0  0  0999 V2000
   28.2881  -19.8321   -3.9243 C   0  0  0  0  0  0  0  0  0  0  0  0
   27.2240  -20.1887   -4.9084 C   0  0  0  0  0  0  0  0  0  0  0  0
   27.5589  -19.7391   -6.3160 C   0  0  2  0  0  0  0  0  0  0  0  0
   27.8985  -18.2754   -6.3488 C   0  0  0  0  0  0  0  0  0  0  0  0
   26.3427  -20.0371   -7.1889 C   0  0  2  0  0  0  0  0  0  0  0  0
   25.9516  -21.3896   -6.9282 N   0  0  0  0  0  0  0  0  0  0  0  0
   26.6528  -19.8695   -8.6268 C   0  0  0  0  0  0  0  0  0  0  0  0
   26.1591  -18.9444   -9.3219 O   0  0  0  0  0  0  0  0  0  0  0  0
   29.0223  -22.6679  -10.5240 O   0  0  0  0  0  0  0  0  0  0  0  0
   29.0603  -21.4021  -11.1053 C   0  0  0  0  0  0  0  0  0  0  0  0
   27.8621  -20.5731  -10.6794 C   0  0  2  0  0  0  0  0  0  0  0  0
   27.5449  -20.7786   -9.2796 N   0  0  0  0  0  0  0  0  0  0  0  0
   26.7164  -21.0415  -11.4744 C   0  0  0  0  0  0  0  0  0  0  0  0
   26.0144  -21.9796  -11.0659 O   0  0  0  0  0  0  0  0  0  0  0  0
   26.4120  -20.4279  -12.7012 N   0  0  0  0  0  0  0  0  0  0  0  0
   25.2657  -20.8779  -13.4466 C   0  0  1  0  0  0  0  0  0  0  0  0
   24.0420  -20.0252  -13.1672 C   0  0  0  0  0  0  0  0  0  0  0  0
   23.0664  -20.8896  -11.9055 S   0  0  0  0  0  0  0  0  0  0  0  0
   25.6079  -20.9013  -14.8775 C   0  0  0  0  0  0  0  0  0  0  0  0
   26.5624  -20.2477  -15.3741 O   0  0  0  0  0  0  0  0  0  0  0  0
   24.8511  -21.6770  -15.7356 O   0  0  0  0  0  0  0  0  0  0  0  0
  2  3  1  0
  2  1  1  0
  3  5  1  0
  3  4  1  1
  5  6  1  6
  5  7  1  0
  7  8  2  0
 10  9  1  0
 11 10  1  6
 12  7  1  0
 12 11  1  0
 13 15  1  0
 13 11  1  0
 14 13  2  0
 16 19  1  0
 16 17  1  6
 16 15  1  0
 18 17  1  0
 19 21  1  0
 20 19  2  0
M  END
$$$$
