ISC.pdb
     RDKit          3D

 21 20  0  0  1  0  0  0  0  0999 V2000
   25.9643  -14.0517  -15.1532 C   0  0  0  0  0  0  0  0  0  0  0  0
   24.5545  -14.0361  -15.6433 C   0  0  0  0  0  0  0  0  0  0  0  0
   24.0173  -12.6312  -15.8260 C   0  0  2  0  0  0  0  0  0  0  0  0
   23.9815  -11.8927  -14.5175 C   0  0  0  0  0  0  0  0  0  0  0  0
   22.6175  -12.7546  -16.4218 C   0  0  2  0  0  0  0  0  0  0  0  0
   22.7250  -13.5610  -17.6001 N   0  0  0  0  0  0  0  0  0  0  0  0
   22.0560  -11.4289  -16.7669 C   0  0  0  0  0  0  0  0  0  0  0  0
   22.5280  -10.7133  -17.6877 O   0  0  0  0  0  0  0  0  0  0  0  0
   18.4119  -10.1579  -15.1577 O   0  0  0  0  0  0  0  0  0  0  0  0
   18.8670   -9.6318  -16.3650 C   0  0  0  0  0  0  0  0  0  0  0  0
   20.3842   -9.6254  -16.4167 C   0  0  2  0  0  0  0  0  0  0  0  0
   20.9334  -10.9143  -16.0435 N   0  0  0  0  0  0  0  0  0  0  0  0
   20.8395   -8.6377  -15.4261 C   0  0  0  0  0  0  0  0  0  0  0  0
   21.2992   -9.0124  -14.3361 O   0  0  0  0  0  0  0  0  0  0  0  0
   20.7557   -7.2643  -15.7105 N   0  0  0  0  0  0  0  0  0  0  0  0
   21.2235   -6.3149  -14.7348 C   0  0  1  0  0  0  0  0  0  0  0  0
   22.5682   -5.7270  -15.1206 C   0  0  0  0  0  0  0  0  0  0  0  0
   22.9496   -4.4294  -13.9118 S   0  0  0  0  0  0  0  0  0  0  0  0
   20.1979   -5.2757  -14.5523 C   0  0  0  0  0  0  0  0  0  0  0  0
   19.4936   -4.8224  -15.4922 O   0  0  0  0  0  0  0  0  0  0  0  0
   19.9839   -4.7592  -13.2881 O   0  0  0  0  0  0  0  0  0  0  0  0
  2  3  1  0
  2  1  1  0
  3  5  1  0
  3  4  1  1
  5  6  1  6
  5  7  1  0
  7  8  2  0
 10  9  1  0
 11 10  1  1
 12  7  1  0
 12 11  1  0
 13 15  1  0
 13 11  1  0
 14 13  2  0
 16 19  1  0
 16 17  1  6
 16 15  1  0
 18 17  1  0
 19 21  1  0
 20 19  2  0
M  END
$$$$
