ISC.pdb
     RDKit          3D

 21 20  0  0  1  0  0  0  0  0999 V2000
   17.3363  -13.6047  -14.1862 C   0  0  0  0  0  0  0  0  0  0  0  0
   17.6208  -13.1061  -15.5640 C   0  0  0  0  0  0  0  0  0  0  0  0
   18.3288  -11.7665  -15.5634 C   0  0  2  0  0  0  0  0  0  0  0  0
   17.4851  -10.7103  -14.9067 C   0  0  0  0  0  0  0  0  0  0  0  0
   18.6200  -11.4066  -17.0179 C   0  0  2  0  0  0  0  0  0  0  0  0
   19.3352  -12.5049  -17.5942 N   0  0  0  0  0  0  0  0  0  0  0  0
   19.4270  -10.1696  -17.1195 C   0  0  0  0  0  0  0  0  0  0  0  0
   20.6740  -10.1598  -16.9531 O   0  0  0  0  0  0  0  0  0  0  0  0
   17.6389   -6.3913  -17.8172 O   0  0  0  0  0  0  0  0  0  0  0  0
   18.8829   -6.6671  -18.3810 C   0  0  0  0  0  0  0  0  0  0  0  0
   19.6124   -7.7374  -17.5893 C   0  0  2  0  0  0  0  0  0  0  0  0
   18.7932   -8.9213  -17.4172 N   0  0  0  0  0  0  0  0  0  0  0  0
   19.8766   -7.1746  -16.2561 C   0  0  0  0  0  0  0  0  0  0  0  0
   19.1031   -7.4092  -15.3145 O   0  0  0  0  0  0  0  0  0  0  0  0
   21.0071   -6.3680  -16.0430 N   0  0  0  0  0  0  0  0  0  0  0  0
   21.1933   -5.7438  -14.7593 C   0  0  1  0  0  0  0  0  0  0  0  0
   22.2338   -6.4688  -13.9261 C   0  0  0  0  0  0  0  0  0  0  0  0
   22.4644   -5.5068  -12.4056 S   0  0  0  0  0  0  0  0  0  0  0  0
   21.5379   -4.3281  -14.9641 C   0  0  0  0  0  0  0  0  0  0  0  0
   22.0122   -3.8773  -16.0396 O   0  0  0  0  0  0  0  0  0  0  0  0
   21.3362   -3.4324  -13.9307 O   0  0  0  0  0  0  0  0  0  0  0  0
  2  3  1  0
  2  1  1  0
  3  5  1  0
  3  4  1  6
  5  6  1  1
  5  7  1  0
  7  8  2  0
 10  9  1  0
 11 10  1  6
 12  7  1  0
 12 11  1  0
 13 15  1  0
 13 11  1  0
 14 13  2  0
 16 19  1  0
 16 17  1  6
 16 15  1  0
 18 17  1  0
 19 21  1  0
 20 19  2  0
M  END
$$$$
