ISC.pdb
     RDKit          3D

 21 20  0  0  1  0  0  0  0  0999 V2000
   26.8727  -18.0771  -15.6546 C   0  0  0  0  0  0  0  0  0  0  0  0
   26.9358  -19.5093  -15.2389 C   0  0  0  0  0  0  0  0  0  0  0  0
   25.5992  -20.2115  -15.3661 C   0  0  2  0  0  0  0  0  0  0  0  0
   24.5866  -19.6189  -14.4268 C   0  0  0  0  0  0  0  0  0  0  0  0
   25.8314  -21.6882  -15.0578 C   0  0  2  0  0  0  0  0  0  0  0  0
   26.9261  -22.1265  -15.8699 N   0  0  0  0  0  0  0  0  0  0  0  0
   24.6283  -22.4995  -15.3518 C   0  0  0  0  0  0  0  0  0  0  0  0
   24.3266  -22.8641  -16.5175 O   0  0  0  0  0  0  0  0  0  0  0  0
   22.2716  -26.0844  -15.3697 O   0  0  0  0  0  0  0  0  0  0  0  0
   23.2865  -25.1870  -15.0438 C   0  0  0  0  0  0  0  0  0  0  0  0
   22.7105  -23.8672  -14.5634 C   0  0  2  0  0  0  0  0  0  0  0  0
   23.7555  -22.8998  -14.2906 N   0  0  0  0  0  0  0  0  0  0  0  0
   22.0110  -24.1433  -13.2991 C   0  0  0  0  0  0  0  0  0  0  0  0
   22.6538  -24.2807  -12.2466 O   0  0  0  0  0  0  0  0  0  0  0  0
   20.6104  -24.2528  -13.2780 N   0  0  0  0  0  0  0  0  0  0  0  0
   19.9417  -24.4753  -12.0227 C   0  0  1  0  0  0  0  0  0  0  0  0
   20.1701  -23.3313  -11.0524 C   0  0  0  0  0  0  0  0  0  0  0  0
   19.5399  -21.8260  -11.8447 S   0  0  0  0  0  0  0  0  0  0  0  0
   18.5112  -24.7047  -12.2798 C   0  0  0  0  0  0  0  0  0  0  0  0
   17.9840  -24.5967  -13.4179 O   0  0  0  0  0  0  0  0  0  0  0  0
   17.6887  -25.0584  -11.2265 O   0  0  0  0  0  0  0  0  0  0  0  0
  2  3  1  0
  2  1  1  0
  3  5  1  0
  3  4  1  1
  5  6  1  6
  5  7  1  0
  7  8  2  0
 10  9  1  0
 11 10  1  1
 12  7  1  0
 12 11  1  0
 13 15  1  0
 13 11  1  0
 14 13  2  0
 16 19  1  0
 16 17  1  1
 16 15  1  0
 18 17  1  0
 19 21  1  0
 20 19  2  0
M  END
$$$$
