ISC.pdb
     RDKit          3D

 21 20  0  0  1  0  0  0  0  0999 V2000
   12.5276   -9.2901  -10.4190 C   0  0  0  0  0  0  0  0  0  0  0  0
   13.3548  -10.2502  -11.2075 C   0  0  0  0  0  0  0  0  0  0  0  0
   14.7989   -9.8089  -11.3316 C   0  0  2  0  0  0  0  0  0  0  0  0
   14.8973   -8.4650  -11.9972 C   0  0  0  0  0  0  0  0  0  0  0  0
   15.5311  -10.8747  -12.1426 C   0  0  2  0  0  0  0  0  0  0  0  0
   15.4554  -12.0992  -11.4044 N   0  0  0  0  0  0  0  0  0  0  0  0
   16.9475  -10.5075  -12.3675 C   0  0  0  0  0  0  0  0  0  0  0  0
   17.8005  -10.5044  -11.4428 O   0  0  0  0  0  0  0  0  0  0  0  0
   18.3396   -9.6619  -16.2397 O   0  0  0  0  0  0  0  0  0  0  0  0
   19.2118  -10.2412  -15.3202 C   0  0  0  0  0  0  0  0  0  0  0  0
   18.8070   -9.8986  -13.8978 C   0  0  2  0  0  0  0  0  0  0  0  0
   17.3942  -10.1373  -13.6758 N   0  0  0  0  0  0  0  0  0  0  0  0
   19.0541   -8.4593  -13.7201 C   0  0  0  0  0  0  0  0  0  0  0  0
   18.1059   -7.6589  -13.7131 O   0  0  0  0  0  0  0  0  0  0  0  0
   20.3663   -7.9844  -13.5574 N   0  0  0  0  0  0  0  0  0  0  0  0
   20.6008   -6.5645  -13.5243 C   0  0  1  0  0  0  0  0  0  0  0  0
   21.8374   -6.2164  -12.7168 C   0  0  0  0  0  0  0  0  0  0  0  0
   22.0724   -4.4224  -12.8475 S   0  0  0  0  0  0  0  0  0  0  0  0
   20.6837   -6.0636  -14.9055 C   0  0  0  0  0  0  0  0  0  0  0  0
   20.1721   -4.9767  -15.2819 O   0  0  0  0  0  0  0  0  0  0  0  0
   21.3553   -6.8144  -15.8520 O   0  0  0  0  0  0  0  0  0  0  0  0
  2  3  1  0
  2  1  1  0
  3  5  1  0
  3  4  1  6
  5  6  1  1
  5  7  1  0
  7  8  2  0
 10  9  1  0
 11 10  1  6
 12  7  1  0
 12 11  1  0
 13 15  1  0
 13 11  1  0
 14 13  2  0
 16 19  1  0
 16 17  1  1
 16 15  1  0
 18 17  1  0
 19 21  1  0
 20 19  2  0
M  END
$$$$
