ISC.pdb
     RDKit          3D

 21 20  0  0  1  0  0  0  0  0999 V2000
   20.1139  -15.5771  -17.1835 C   0  0  0  0  0  0  0  0  0  0  0  0
   19.1642  -14.7183  -16.4165 C   0  0  0  0  0  0  0  0  0  0  0  0
   19.2535  -13.2576  -16.8090 C   0  0  2  0  0  0  0  0  0  0  0  0
   20.6223  -12.7053  -16.5261 C   0  0  0  0  0  0  0  0  0  0  0  0
   18.1874  -12.5082  -16.0142 C   0  0  2  0  0  0  0  0  0  0  0  0
   16.9373  -13.1636  -16.2538 N   0  0  0  0  0  0  0  0  0  0  0  0
   18.1006  -11.0890  -16.4269 C   0  0  0  0  0  0  0  0  0  0  0  0
   17.5108  -10.7248  -17.4767 O   0  0  0  0  0  0  0  0  0  0  0  0
   17.1463   -6.8862  -16.6044 O   0  0  0  0  0  0  0  0  0  0  0  0
   17.1974   -8.2188  -16.2003 C   0  0  0  0  0  0  0  0  0  0  0  0
   18.6340   -8.6901  -16.0645 C   0  0  2  0  0  0  0  0  0  0  0  0
   18.7006  -10.0692  -15.6217 N   0  0  0  0  0  0  0  0  0  0  0  0
   19.2602   -7.8537  -15.0289 C   0  0  0  0  0  0  0  0  0  0  0  0
   19.0607   -8.0929  -13.8278 O   0  0  0  0  0  0  0  0  0  0  0  0
   20.0877   -6.7793  -15.3961 N   0  0  0  0  0  0  0  0  0  0  0  0
   20.7130   -5.9903  -14.3671 C   0  0  1  0  0  0  0  0  0  0  0  0
   22.2206   -6.1619  -14.3637 C   0  0  0  0  0  0  0  0  0  0  0  0
   22.8812   -5.0501  -13.0916 S   0  0  0  0  0  0  0  0  0  0  0  0
   20.3173   -4.5836  -14.5396 C   0  0  0  0  0  0  0  0  0  0  0  0
   20.1562   -4.0403  -15.6637 O   0  0  0  0  0  0  0  0  0  0  0  0
   20.1072   -3.8035  -13.4179 O   0  0  0  0  0  0  0  0  0  0  0  0
  2  3  1  0
  2  1  1  0
  3  5  1  0
  3  4  1  1
  5  6  1  6
  5  7  1  0
  7  8  2  0
 10  9  1  0
 11 10  1  1
 12  7  1  0
 12 11  1  0
 13 15  1  0
 13 11  1  0
 14 13  2  0
 16 19  1  0
 16 17  1  6
 16 15  1  0
 18 17  1  0
 19 21  1  0
 20 19  2  0
M  END
$$$$
