ISC.pdb
     RDKit          3D

 21 20  0  0  1  0  0  0  0  0999 V2000
   16.2942  -13.7441  -17.8449 C   0  0  0  0  0  0  0  0  0  0  0  0
   17.6723  -13.2814  -17.5062 C   0  0  0  0  0  0  0  0  0  0  0  0
   17.6881  -11.8902  -16.9064 C   0  0  2  0  0  0  0  0  0  0  0  0
   17.1727  -10.8739  -17.8863 C   0  0  0  0  0  0  0  0  0  0  0  0
   19.1296  -11.5836  -16.5093 C   0  0  2  0  0  0  0  0  0  0  0  0
   19.5937  -12.6770  -15.7098 N   0  0  0  0  0  0  0  0  0  0  0  0
   19.2241  -10.3212  -15.7416 C   0  0  0  0  0  0  0  0  0  0  0  0
   18.4722  -10.0649  -14.7660 O   0  0  0  0  0  0  0  0  0  0  0  0
   22.6466   -8.2004  -14.7736 O   0  0  0  0  0  0  0  0  0  0  0  0
   21.6696   -7.4799  -15.4576 C   0  0  0  0  0  0  0  0  0  0  0  0
   20.3066   -8.1293  -15.3005 C   0  0  2  0  0  0  0  0  0  0  0  0
   20.1978   -9.3349  -16.0987 N   0  0  0  0  0  0  0  0  0  0  0  0
   19.3155   -7.1654  -15.8031 C   0  0  0  0  0  0  0  0  0  0  0  0
   18.6743   -7.4102  -16.8369 O   0  0  0  0  0  0  0  0  0  0  0  0
   19.0904   -5.9619  -15.1137 N   0  0  0  0  0  0  0  0  0  0  0  0
   18.1264   -5.0259  -15.6302 C   0  0  1  0  0  0  0  0  0  0  0  0
   16.7117   -5.5675  -15.5409 C   0  0  0  0  0  0  0  0  0  0  0  0
   15.5902   -4.1974  -15.9356 S   0  0  0  0  0  0  0  0  0  0  0  0
   18.2748   -3.7476  -14.9166 C   0  0  0  0  0  0  0  0  0  0  0  0
   17.7635   -2.6676  -15.3129 O   0  0  0  0  0  0  0  0  0  0  0  0
   19.0117   -3.7136  -13.7476 O   0  0  0  0  0  0  0  0  0  0  0  0
  2  3  1  0
  2  1  1  0
  3  5  1  0
  3  4  1  6
  5  6  1  1
  5  7  1  0
  7  8  2  0
 10  9  1  0
 11 10  1  6
 12  7  1  0
 12 11  1  0
 13 15  1  0
 13 11  1  0
 14 13  2  0
 16 19  1  0
 16 17  1  1
 16 15  1  0
 18 17  1  0
 19 21  1  0
 20 19  2  0
M  END
$$$$
