ISC.pdb
     RDKit          3D

 21 20  0  0  1  0  0  0  0  0999 V2000
   22.7046  -16.8712  -16.8331 C   0  0  0  0  0  0  0  0  0  0  0  0
   24.0051  -16.1410  -16.8886 C   0  0  0  0  0  0  0  0  0  0  0  0
   23.8508  -14.6567  -16.6264 C   0  0  2  0  0  0  0  0  0  0  0  0
   22.9051  -14.0299  -17.6120 C   0  0  0  0  0  0  0  0  0  0  0  0
   25.2393  -14.0311  -16.7282 C   0  0  2  0  0  0  0  0  0  0  0  0
   26.0823  -14.7085  -15.7898 N   0  0  0  0  0  0  0  0  0  0  0  0
   25.2056  -12.5829  -16.4228 C   0  0  0  0  0  0  0  0  0  0  0  0
   25.1531  -12.1408  -15.2462 O   0  0  0  0  0  0  0  0  0  0  0  0
   24.7486   -9.6944  -19.4586 O   0  0  0  0  0  0  0  0  0  0  0  0
   25.5515   -9.3586  -18.3704 C   0  0  0  0  0  0  0  0  0  0  0  0
   25.2113  -10.2111  -17.1613 C   0  0  2  0  0  0  0  0  0  0  0  0
   25.2325  -11.6243  -17.4852 N   0  0  0  0  0  0  0  0  0  0  0  0
   23.8385   -9.8601  -16.7659 C   0  0  0  0  0  0  0  0  0  0  0  0
   22.8722  -10.4529  -17.2705 O   0  0  0  0  0  0  0  0  0  0  0  0
   23.6156   -8.8511  -15.8140 N   0  0  0  0  0  0  0  0  0  0  0  0
   22.2637   -8.4819  -15.4847 C   0  0  1  0  0  0  0  0  0  0  0  0
   22.0379   -8.4505  -13.9845 C   0  0  0  0  0  0  0  0  0  0  0  0
   20.3299   -7.9029  -13.7135 S   0  0  0  0  0  0  0  0  0  0  0  0
   21.9560   -7.1894  -16.1170 C   0  0  0  0  0  0  0  0  0  0  0  0
   22.8176   -6.2955  -16.3253 O   0  0  0  0  0  0  0  0  0  0  0  0
   20.6567   -6.9270  -16.5092 O   0  0  0  0  0  0  0  0  0  0  0  0
  2  3  1  0
  2  1  1  0
  3  5  1  0
  3  4  1  6
  5  6  1  1
  5  7  1  0
  7  8  2  0
 10  9  1  0
 11 10  1  6
 12  7  1  0
 12 11  1  0
 13 15  1  0
 13 11  1  0
 14 13  2  0
 16 19  1  0
 16 17  1  1
 16 15  1  0
 18 17  1  0
 19 21  1  0
 20 19  2  0
M  END
$$$$
