MWA.pdb
     RDKit          3D

 28 29  0  0  1  0  0  0  0  0999 V2000
    7.8718  -11.6879   19.8337 C   0  0  0  0  0  0  0  0  0  0  0  0
    6.8698  -13.1523   20.0670 S   0  0  0  0  0  0  0  0  0  0  0  0
    7.5081  -14.6792   19.4430 C   0  0  0  0  0  0  0  0  0  0  0  0
    8.8418  -15.1347   19.9055 C   0  0  0  0  0  0  0  0  0  0  0  0
    8.8494  -16.2494   20.8617 C   0  0  2  0  0  0  0  0  0  0  0  0
    7.5216  -16.6572   21.2188 N   0  0  0  0  0  0  0  0  0  0  0  0
    9.5679  -15.9305   22.1313 C   0  0  0  0  0  0  0  0  0  0  0  0
   10.5052  -15.0934   22.1857 O   0  0  0  0  0  0  0  0  0  0  0  0
    9.1635  -16.6106   23.3216 N   0  0  0  0  0  0  0  0  0  0  0  0
    9.8086  -16.3296   24.5928 C   0  0  1  0  0  0  0  0  0  0  0  0
    8.8296  -16.5858   25.7444 C   0  0  0  0  0  0  0  0  0  0  0  0
    7.6716  -15.6691   25.6754 C   0  0  0  0  0  0  0  0  0  0  0  0
    6.3745  -16.0063   25.3539 C   0  0  0  0  0  0  0  0  0  0  0  0
    5.5988  -14.8857   25.3958 N   0  0  0  0  0  0  0  0  0  0  0  0
    6.3799  -13.8343   25.7398 C   0  0  0  0  0  0  0  0  0  0  0  0
    6.1004  -12.4980   25.9198 C   0  0  0  0  0  0  0  0  0  0  0  0
    7.0984  -11.6103   26.2783 C   0  0  0  0  0  0  0  0  0  0  0  0
    8.3909  -12.0546   26.4605 C   0  0  0  0  0  0  0  0  0  0  0  0
    8.6414  -13.3931   26.2741 C   0  0  0  0  0  0  0  0  0  0  0  0
    7.6775  -14.3130   25.9169 C   0  0  0  0  0  0  0  0  0  0  0  0
   10.9283  -17.2920   24.7641 C   0  0  0  0  0  0  0  0  0  0  0  0
   10.6663  -18.5415   24.8383 O   0  0  0  0  0  0  0  0  0  0  0  0
   14.6649  -17.2901   24.6742 C   0  0  0  0  0  0  0  0  0  0  0  0
   13.3092  -17.9356   24.9916 C   0  0  2  0  0  0  0  0  0  0  0  0
   12.2921  -16.9029   24.8518 N   0  0  0  0  0  0  0  0  0  0  0  0
   13.2845  -18.5255   26.3313 C   0  0  0  0  0  0  0  0  0  0  0  0
   13.8852  -19.6017   26.5479 O   0  0  0  0  0  0  0  0  0  0  0  0
   12.6091  -17.9192   27.3718 O   0  0  0  0  0  0  0  0  0  0  0  0
  1  2  1  0
  3  2  1  0
  4  3  1  0
  5  4  1  0
  5  6  1  1
  7  5  1  0
  8  7  2  0
  9  7  1  0
 10  9  1  0
 10 11  1  1
 11 12  1  0
 12 20  1  0
 12 13  2  0
 13 14  1  0
 15 16  2  0
 15 14  1  0
 17 16  1  0
 18 17  2  0
 19 18  1  0
 19 20  2  0
 20 15  1  0
 21 22  2  0
 21 10  1  0
 24 23  1  1
 24 25  1  0
 25 21  1  0
 26 24  1  0
 27 26  2  0
 28 26  1  0
M  END
$$$$
