MWA.pdb
     RDKit          3D

 28 29  0  0  1  0  0  0  0  0999 V2000
    7.1892  -12.8624   17.1529 C   0  0  0  0  0  0  0  0  0  0  0  0
    7.9128  -13.3174   18.7253 S   0  0  0  0  0  0  0  0  0  0  0  0
    6.8119  -13.5297   20.0931 C   0  0  0  0  0  0  0  0  0  0  0  0
    7.3822  -13.8707   21.4193 C   0  0  0  0  0  0  0  0  0  0  0  0
    8.4317  -14.8980   21.4278 C   0  0  2  0  0  0  0  0  0  0  0  0
    7.8873  -16.2202   21.3178 N   0  0  0  0  0  0  0  0  0  0  0  0
    9.2726  -14.8698   22.6614 C   0  0  0  0  0  0  0  0  0  0  0  0
   10.0698  -13.9304   22.9149 O   0  0  0  0  0  0  0  0  0  0  0  0
    9.1557  -15.9589   23.5797 N   0  0  0  0  0  0  0  0  0  0  0  0
    9.9205  -15.9739   24.8149 C   0  0  1  0  0  0  0  0  0  0  0  0
    9.0162  -16.3764   25.9856 C   0  0  0  0  0  0  0  0  0  0  0  0
    7.7737  -15.5750   26.0013 C   0  0  0  0  0  0  0  0  0  0  0  0
    6.5028  -16.0235   25.7130 C   0  0  0  0  0  0  0  0  0  0  0  0
    5.6256  -14.9866   25.8346 N   0  0  0  0  0  0  0  0  0  0  0  0
    6.3159  -13.8792   26.1968 C   0  0  0  0  0  0  0  0  0  0  0  0
    5.9172  -12.5853   26.4477 C   0  0  0  0  0  0  0  0  0  0  0  0
    6.8396  -11.6201   26.8089 C   0  0  0  0  0  0  0  0  0  0  0  0
    8.1752  -11.9434   26.9226 C   0  0  0  0  0  0  0  0  0  0  0  0
    8.5449  -13.2422   26.6665 C   0  0  0  0  0  0  0  0  0  0  0  0
    7.6596  -14.2361   26.3038 C   0  0  0  0  0  0  0  0  0  0  0  0
   10.9618  -17.0283   24.6995 C   0  0  0  0  0  0  0  0  0  0  0  0
   11.6141  -17.3728   25.7441 O   0  0  0  0  0  0  0  0  0  0  0  0
   11.9365  -19.7241   22.3721 C   0  0  0  0  0  0  0  0  0  0  0  0
   12.2875  -18.7394   23.4956 C   0  0  2  0  0  0  0  0  0  0  0  0
   11.2816  -17.6865   23.4815 N   0  0  0  0  0  0  0  0  0  0  0  0
   13.6344  -18.1874   23.3383 C   0  0  0  0  0  0  0  0  0  0  0  0
   14.6318  -18.9240   23.5068 O   0  0  0  0  0  0  0  0  0  0  0  0
   13.8342  -16.8623   23.0056 O   0  0  0  0  0  0  0  0  0  0  0  0
  1  2  1  0
  3  2  1  0
  4  3  1  0
  5  4  1  0
  5  6  1  1
  7  5  1  0
  8  7  2  0
  9  7  1  0
 10  9  1  0
 10 11  1  1
 11 12  1  0
 12 20  1  0
 12 13  2  0
 13 14  1  0
 15 16  2  0
 15 14  1  0
 17 16  1  0
 18 17  2  0
 19 18  1  0
 19 20  2  0
 20 15  1  0
 21 22  2  0
 21 10  1  0
 24 23  1  6
 24 25  1  0
 25 21  1  0
 26 24  1  0
 27 26  2  0
 28 26  1  0
M  END
$$$$
