MWA.pdb
     RDKit          3D

 28 29  0  0  1  0  0  0  0  0999 V2000
    7.9105  -11.6534   19.5596 C   0  0  0  0  0  0  0  0  0  0  0  0
    7.4786  -13.1383   18.6588 S   0  0  0  0  0  0  0  0  0  0  0  0
    7.8182  -14.6882   19.4403 C   0  0  0  0  0  0  0  0  0  0  0  0
    8.6885  -14.7039   20.6412 C   0  0  0  0  0  0  0  0  0  0  0  0
    9.0096  -16.0275   21.1907 C   0  0  2  0  0  0  0  0  0  0  0  0
    7.8478  -16.8626   21.2882 N   0  0  0  0  0  0  0  0  0  0  0  0
    9.6231  -15.9669   22.5507 C   0  0  0  0  0  0  0  0  0  0  0  0
   10.6177  -15.2425   22.8120 O   0  0  0  0  0  0  0  0  0  0  0  0
    9.0467  -16.7682   23.5844 N   0  0  0  0  0  0  0  0  0  0  0  0
    9.4983  -16.6430   24.9597 C   0  0  1  0  0  0  0  0  0  0  0  0
    8.3096  -16.7913   25.9165 C   0  0  0  0  0  0  0  0  0  0  0  0
    7.3380  -15.6915   25.7362 C   0  0  0  0  0  0  0  0  0  0  0  0
    6.0452  -15.8048   25.2723 C   0  0  0  0  0  0  0  0  0  0  0  0
    5.4706  -14.5684   25.2463 N   0  0  0  0  0  0  0  0  0  0  0  0
    6.3766  -13.6635   25.6870 C   0  0  0  0  0  0  0  0  0  0  0  0
    6.3097  -12.2984   25.8547 C   0  0  0  0  0  0  0  0  0  0  0  0
    7.3989  -11.5917   26.3310 C   0  0  0  0  0  0  0  0  0  0  0  0
    8.5700  -12.2484   26.6448 C   0  0  0  0  0  0  0  0  0  0  0  0
    8.6088  -13.6108   26.4677 C   0  0  0  0  0  0  0  0  0  0  0  0
    7.5474  -14.3550   25.9959 C   0  0  0  0  0  0  0  0  0  0  0  0
   10.4194  -17.7736   25.2471 C   0  0  0  0  0  0  0  0  0  0  0  0
    9.9887  -18.9714   25.1232 O   0  0  0  0  0  0  0  0  0  0  0  0
   14.0360  -18.4228   25.6497 C   0  0  0  0  0  0  0  0  0  0  0  0
   12.5726  -18.7842   25.9380 C   0  0  2  0  0  0  0  0  0  0  0  0
   11.7691  -17.6026   25.6571 N   0  0  0  0  0  0  0  0  0  0  0  0
   12.3827  -19.2383   27.3169 C   0  0  0  0  0  0  0  0  0  0  0  0
   12.9469  -20.2836   27.7104 O   0  0  0  0  0  0  0  0  0  0  0  0
   11.5896  -18.5362   28.2025 O   0  0  0  0  0  0  0  0  0  0  0  0
  1  2  1  0
  3  2  1  0
  4  3  1  0
  5  4  1  0
  5  6  1  1
  7  5  1  0
  8  7  2  0
  9  7  1  0
 10  9  1  0
 10 11  1  1
 11 12  1  0
 12 20  1  0
 12 13  2  0
 13 14  1  0
 15 16  2  0
 15 14  1  0
 17 16  1  0
 18 17  2  0
 19 18  1  0
 19 20  2  0
 20 15  1  0
 21 22  2  0
 21 10  1  0
 24 23  1  1
 24 25  1  0
 25 21  1  0
 26 24  1  0
 27 26  2  0
 28 26  1  0
M  END
$$$$
