MWA.pdb
     RDKit          3D

 28 29  0  0  1  0  0  0  0  0999 V2000
    7.5616  -11.5678   19.6433 C   0  0  0  0  0  0  0  0  0  0  0  0
    6.9380  -13.0595   18.8758 S   0  0  0  0  0  0  0  0  0  0  0  0
    7.5272  -14.6030   19.5069 C   0  0  0  0  0  0  0  0  0  0  0  0
    8.3795  -14.5966   20.7209 C   0  0  0  0  0  0  0  0  0  0  0  0
    8.8157  -15.9100   21.2125 C   0  0  2  0  0  0  0  0  0  0  0  0
    7.7105  -16.8034   21.4050 N   0  0  0  0  0  0  0  0  0  0  0  0
    9.5537  -15.8377   22.5086 C   0  0  0  0  0  0  0  0  0  0  0  0
   10.5887  -15.1389   22.6591 O   0  0  0  0  0  0  0  0  0  0  0  0
    9.0522  -16.5968   23.6109 N   0  0  0  0  0  0  0  0  0  0  0  0
    9.6834  -16.5150   24.9170 C   0  0  1  0  0  0  0  0  0  0  0  0
    8.6237  -16.6327   26.0187 C   0  0  0  0  0  0  0  0  0  0  0  0
    7.5607  -15.6192   25.8482 C   0  0  0  0  0  0  0  0  0  0  0  0
    6.2900  -15.8351   25.3605 C   0  0  0  0  0  0  0  0  0  0  0  0
    5.6080  -14.6543   25.3542 N   0  0  0  0  0  0  0  0  0  0  0  0
    6.4234  -13.6839   25.8309 C   0  0  0  0  0  0  0  0  0  0  0  0
    6.2328  -12.3347   26.0296 C   0  0  0  0  0  0  0  0  0  0  0  0
    7.2478  -11.5462   26.5402 C   0  0  0  0  0  0  0  0  0  0  0  0
    8.4681  -12.1041   26.8578 C   0  0  0  0  0  0  0  0  0  0  0  0
    8.6306  -13.4529   26.6494 C   0  0  0  0  0  0  0  0  0  0  0  0
    7.6465  -14.2763   26.1428 C   0  0  0  0  0  0  0  0  0  0  0  0
   10.5854  -17.6868   25.0673 C   0  0  0  0  0  0  0  0  0  0  0  0
   10.0852  -18.8633   25.0306 O   0  0  0  0  0  0  0  0  0  0  0  0
   14.2413  -18.4379   25.1859 C   0  0  0  0  0  0  0  0  0  0  0  0
   12.7698  -18.7943   25.4366 C   0  0  2  0  0  0  0  0  0  0  0  0
   11.9900  -17.5784   25.2519 N   0  0  0  0  0  0  0  0  0  0  0  0
   12.5633  -19.3583   26.7717 C   0  0  0  0  0  0  0  0  0  0  0  0
   12.1138  -18.6358   27.6892 O   0  0  0  0  0  0  0  0  0  0  0  0
   12.8545  -20.6796   27.0473 O   0  0  0  0  0  0  0  0  0  0  0  0
  1  2  1  0
  3  2  1  0
  4  3  1  0
  5  4  1  0
  5  6  1  1
  7  5  1  0
  8  7  2  0
  9  7  1  0
 10  9  1  0
 10 11  1  1
 11 12  1  0
 12 20  1  0
 12 13  2  0
 13 14  1  0
 15 16  2  0
 15 14  1  0
 17 16  1  0
 18 17  2  0
 19 18  1  0
 19 20  2  0
 20 15  1  0
 21 22  2  0
 21 10  1  0
 24 23  1  1
 24 25  1  0
 25 21  1  0
 26 24  1  0
 27 26  2  0
 28 26  1  0
M  END
$$$$
