MWA.pdb
     RDKit          3D

 28 29  0  0  1  0  0  0  0  0999 V2000
    8.0984  -11.3486   19.6919 C   0  0  0  0  0  0  0  0  0  0  0  0
    7.1434  -12.7176   19.0463 S   0  0  0  0  0  0  0  0  0  0  0  0
    7.4139  -14.3079   19.7714 C   0  0  0  0  0  0  0  0  0  0  0  0
    8.4904  -14.4558   20.7810 C   0  0  0  0  0  0  0  0  0  0  0  0
    8.7498  -15.8212   21.2555 C   0  0  2  0  0  0  0  0  0  0  0  0
    7.5347  -16.5433   21.4983 N   0  0  0  0  0  0  0  0  0  0  0  0
    9.5465  -15.8641   22.5177 C   0  0  0  0  0  0  0  0  0  0  0  0
   10.6501  -15.2732   22.6409 O   0  0  0  0  0  0  0  0  0  0  0  0
    9.0217  -16.6089   23.6189 N   0  0  0  0  0  0  0  0  0  0  0  0
    9.6679  -16.5661   24.9195 C   0  0  1  0  0  0  0  0  0  0  0  0
    8.6250  -16.7476   26.0284 C   0  0  0  0  0  0  0  0  0  0  0  0
    7.5698  -15.7153   25.9439 C   0  0  0  0  0  0  0  0  0  0  0  0
    6.2580  -15.9098   25.5687 C   0  0  0  0  0  0  0  0  0  0  0  0
    5.5995  -14.7167   25.6137 N   0  0  0  0  0  0  0  0  0  0  0  0
    6.4703  -13.7594   26.0126 C   0  0  0  0  0  0  0  0  0  0  0  0
    6.3220  -12.4060   26.2185 C   0  0  0  0  0  0  0  0  0  0  0  0
    7.3913  -11.6341   26.6351 C   0  0  0  0  0  0  0  0  0  0  0  0
    8.6241  -12.2131   26.8500 C   0  0  0  0  0  0  0  0  0  0  0  0
    8.7436  -13.5656   26.6366 C   0  0  0  0  0  0  0  0  0  0  0  0
    7.7049  -14.3730   26.2217 C   0  0  0  0  0  0  0  0  0  0  0  0
   10.5939  -17.7250   25.0124 C   0  0  0  0  0  0  0  0  0  0  0  0
   10.1066  -18.8977   25.1639 O   0  0  0  0  0  0  0  0  0  0  0  0
   14.2286  -18.4686   24.5667 C   0  0  0  0  0  0  0  0  0  0  0  0
   12.8194  -18.8109   25.0687 C   0  0  2  0  0  0  0  0  0  0  0  0
   12.0083  -17.6081   24.9424 N   0  0  0  0  0  0  0  0  0  0  0  0
   12.8336  -19.2976   26.4494 C   0  0  0  0  0  0  0  0  0  0  0  0
   13.0913  -20.4998   26.6822 O   0  0  0  0  0  0  0  0  0  0  0  0
   12.5676  -18.4562   27.5113 O   0  0  0  0  0  0  0  0  0  0  0  0
  1  2  1  0
  3  2  1  0
  4  3  1  0
  5  4  1  0
  5  6  1  1
  7  5  1  0
  8  7  2  0
  9  7  1  0
 10  9  1  0
 10 11  1  1
 11 12  1  0
 12 20  1  0
 12 13  2  0
 13 14  1  0
 15 16  2  0
 15 14  1  0
 17 16  1  0
 18 17  2  0
 19 18  1  0
 19 20  2  0
 20 15  1  0
 21 22  2  0
 21 10  1  0
 24 23  1  1
 24 25  1  0
 25 21  1  0
 26 24  1  0
 27 26  2  0
 28 26  1  0
M  END
$$$$
