MWA.pdb
     RDKit          3D

 28 29  0  0  1  0  0  0  0  0999 V2000
    7.6659  -11.8821   17.8507 C   0  0  0  0  0  0  0  0  0  0  0  0
    7.5823  -13.5245   17.1446 S   0  0  0  0  0  0  0  0  0  0  0  0
    8.3247  -14.8407   18.0635 C   0  0  0  0  0  0  0  0  0  0  0  0
    9.4459  -14.5236   18.9814 C   0  0  0  0  0  0  0  0  0  0  0  0
    9.9327  -15.6303   19.8152 C   0  0  2  0  0  0  0  0  0  0  0  0
    9.1644  -16.8254   19.6202 N   0  0  0  0  0  0  0  0  0  0  0  0
    9.9045  -15.3228   21.2761 C   0  0  0  0  0  0  0  0  0  0  0  0
   10.7153  -14.5263   21.8151 O   0  0  0  0  0  0  0  0  0  0  0  0
    8.9125  -15.9657   22.0794 N   0  0  0  0  0  0  0  0  0  0  0  0
    8.7152  -15.5795   23.4661 C   0  0  1  0  0  0  0  0  0  0  0  0
    7.2526  -15.8014   23.8683 C   0  0  0  0  0  0  0  0  0  0  0  0
    6.9923  -15.3006   25.2349 C   0  0  0  0  0  0  0  0  0  0  0  0
    6.5942  -16.0481   26.3222 C   0  0  0  0  0  0  0  0  0  0  0  0
    6.4569  -15.2269   27.4020 N   0  0  0  0  0  0  0  0  0  0  0  0
    6.7615  -13.9630   27.0229 C   0  0  0  0  0  0  0  0  0  0  0  0
    6.7829  -12.7727   27.7149 C   0  0  0  0  0  0  0  0  0  0  0  0
    7.1370  -11.5949   27.0823 C   0  0  0  0  0  0  0  0  0  0  0  0
    7.4742  -11.5985   25.7453 C   0  0  0  0  0  0  0  0  0  0  0  0
    7.4443  -12.8004   25.0794 C   0  0  0  0  0  0  0  0  0  0  0  0
    7.0975  -13.9979   25.6700 C   0  0  0  0  0  0  0  0  0  0  0  0
    9.5325  -16.4836   24.3170 C   0  0  0  0  0  0  0  0  0  0  0  0
    9.3922  -16.4345   25.5872 O   0  0  0  0  0  0  0  0  0  0  0  0
   11.1388  -19.6660   24.3380 C   0  0  0  0  0  0  0  0  0  0  0  0
   11.2809  -18.1888   24.7290 C   0  0  2  0  0  0  0  0  0  0  0  0
   10.4739  -17.4126   23.7979 N   0  0  0  0  0  0  0  0  0  0  0  0
   12.6777  -17.7504   24.7123 C   0  0  0  0  0  0  0  0  0  0  0  0
   13.0757  -16.9767   23.8130 O   0  0  0  0  0  0  0  0  0  0  0  0
   13.5756  -18.1727   25.6724 O   0  0  0  0  0  0  0  0  0  0  0  0
  1  2  1  0
  3  2  1  0
  4  3  1  0
  5  4  1  0
  5  6  1  1
  7  5  1  0
  8  7  2  0
  9  7  1  0
 10  9  1  0
 10 11  1  1
 11 12  1  0
 12 20  1  0
 12 13  2  0
 13 14  1  0
 15 16  2  0
 15 14  1  0
 17 16  1  0
 18 17  2  0
 19 18  1  0
 19 20  2  0
 20 15  1  0
 21 22  2  0
 21 10  1  0
 24 23  1  6
 24 25  1  0
 25 21  1  0
 26 24  1  0
 27 26  2  0
 28 26  1  0
M  END
$$$$
