MWA.pdb
     RDKit          3D

 28 29  0  0  1  0  0  0  0  0999 V2000
    8.2110  -11.7174   18.2223 C   0  0  0  0  0  0  0  0  0  0  0  0
    7.1888  -13.1737   18.0284 S   0  0  0  0  0  0  0  0  0  0  0  0
    7.7084  -14.6453   18.8605 C   0  0  0  0  0  0  0  0  0  0  0  0
    9.1317  -14.7734   19.2577 C   0  0  0  0  0  0  0  0  0  0  0  0
    9.4896  -15.9888   20.0005 C   0  0  2  0  0  0  0  0  0  0  0  0
    8.4842  -17.0044   19.8813 N   0  0  0  0  0  0  0  0  0  0  0  0
    9.6993  -15.7465   21.4590 C   0  0  0  0  0  0  0  0  0  0  0  0
   10.6437  -15.0412   21.8981 O   0  0  0  0  0  0  0  0  0  0  0  0
    8.7836  -16.3456   22.3784 N   0  0  0  0  0  0  0  0  0  0  0  0
    8.8636  -16.0572   23.8002 C   0  0  1  0  0  0  0  0  0  0  0  0
    7.4539  -15.9128   24.3851 C   0  0  0  0  0  0  0  0  0  0  0  0
    7.4972  -15.3462   25.7502 C   0  0  0  0  0  0  0  0  0  0  0  0
    7.7137  -16.0396   26.9213 C   0  0  0  0  0  0  0  0  0  0  0  0
    7.6781  -15.1677   27.9691 N   0  0  0  0  0  0  0  0  0  0  0  0
    7.4417  -13.9247   27.4866 C   0  0  0  0  0  0  0  0  0  0  0  0
    7.3120  -12.7033   28.1092 C   0  0  0  0  0  0  0  0  0  0  0  0
    7.0667  -11.5585   27.3730 C   0  0  0  0  0  0  0  0  0  0  0  0
    6.9484  -11.6267   26.0010 C   0  0  0  0  0  0  0  0  0  0  0  0
    7.0822  -12.8585   25.4060 C   0  0  0  0  0  0  0  0  0  0  0  0
    7.3270  -14.0250   26.1006 C   0  0  0  0  0  0  0  0  0  0  0  0
    9.4859  -17.2272   24.4734 C   0  0  0  0  0  0  0  0  0  0  0  0
    8.9496  -18.3799   24.3352 O   0  0  0  0  0  0  0  0  0  0  0  0
   12.7521  -18.2797   25.6327 C   0  0  0  0  0  0  0  0  0  0  0  0
   11.2304  -18.3676   25.8116 C   0  0  2  0  0  0  0  0  0  0  0  0
   10.6573  -17.1420   25.2730 N   0  0  0  0  0  0  0  0  0  0  0  0
   10.8545  -18.5565   27.2139 C   0  0  0  0  0  0  0  0  0  0  0  0
   10.1937  -17.6733   27.8048 O   0  0  0  0  0  0  0  0  0  0  0  0
   11.2135  -19.6950   27.9077 O   0  0  0  0  0  0  0  0  0  0  0  0
  1  2  1  0
  3  2  1  0
  4  3  1  0
  5  4  1  0
  5  6  1  1
  7  5  1  0
  8  7  2  0
  9  7  1  0
 10  9  1  0
 10 11  1  1
 11 12  1  0
 12 20  1  0
 12 13  2  0
 13 14  1  0
 15 16  2  0
 15 14  1  0
 17 16  1  0
 18 17  2  0
 19 18  1  0
 19 20  2  0
 20 15  1  0
 21 22  2  0
 21 10  1  0
 24 23  1  1
 24 25  1  0
 25 21  1  0
 26 24  1  0
 27 26  2  0
 28 26  1  0
M  END
$$$$
