MWA.pdb
     RDKit          3D

 28 29  0  0  1  0  0  0  0  0999 V2000
    7.9117  -11.5590   19.5463 C   0  0  0  0  0  0  0  0  0  0  0  0
    6.9710  -13.0218   19.1242 S   0  0  0  0  0  0  0  0  0  0  0  0
    7.5373  -14.5656   19.7754 C   0  0  0  0  0  0  0  0  0  0  0  0
    8.3385  -14.5604   21.0236 C   0  0  0  0  0  0  0  0  0  0  0  0
    8.7964  -15.8704   21.5044 C   0  0  2  0  0  0  0  0  0  0  0  0
    7.6990  -16.7381   21.8200 N   0  0  0  0  0  0  0  0  0  0  0  0
    9.6528  -15.7829   22.7245 C   0  0  0  0  0  0  0  0  0  0  0  0
   10.6899  -15.0728   22.7730 O   0  0  0  0  0  0  0  0  0  0  0  0
    9.2659  -16.5405   23.8731 N   0  0  0  0  0  0  0  0  0  0  0  0
    9.9967  -16.4195   25.1230 C   0  0  1  0  0  0  0  0  0  0  0  0
    9.0390  -16.5895   26.3079 C   0  0  0  0  0  0  0  0  0  0  0  0
    7.8142  -15.7815   26.1253 C   0  0  0  0  0  0  0  0  0  0  0  0
    6.5608  -16.2515   25.7977 C   0  0  0  0  0  0  0  0  0  0  0  0
    5.6965  -15.1998   25.7187 N   0  0  0  0  0  0  0  0  0  0  0  0
    6.3778  -14.0616   25.9909 C   0  0  0  0  0  0  0  0  0  0  0  0
    5.9857  -12.7427   26.0446 C   0  0  0  0  0  0  0  0  0  0  0  0
    6.8957  -11.7478   26.3520 C   0  0  0  0  0  0  0  0  0  0  0  0
    8.2124  -12.0659   26.6094 C   0  0  0  0  0  0  0  0  0  0  0  0
    8.5761  -13.3900   26.5489 C   0  0  0  0  0  0  0  0  0  0  0  0
    7.7025  -14.4140   26.2466 C   0  0  0  0  0  0  0  0  0  0  0  0
   10.9699  -17.5405   25.1982 C   0  0  0  0  0  0  0  0  0  0  0  0
   11.6085  -17.7353   26.2890 O   0  0  0  0  0  0  0  0  0  0  0  0
   11.9977  -20.5239   23.2131 C   0  0  0  0  0  0  0  0  0  0  0  0
   12.2470  -19.4579   24.2886 C   0  0  2  0  0  0  0  0  0  0  0  0
   11.2383  -18.4217   24.1165 N   0  0  0  0  0  0  0  0  0  0  0  0
   13.5983  -18.9009   24.2039 C   0  0  0  0  0  0  0  0  0  0  0  0
   14.4761  -19.2733   25.0141 O   0  0  0  0  0  0  0  0  0  0  0  0
   13.9321  -17.9664   23.2438 O   0  0  0  0  0  0  0  0  0  0  0  0
  1  2  1  0
  3  2  1  0
  4  3  1  0
  5  4  1  0
  5  6  1  1
  7  5  1  0
  8  7  2  0
  9  7  1  0
 10  9  1  0
 10 11  1  1
 11 12  1  0
 12 20  1  0
 12 13  2  0
 13 14  1  0
 15 16  2  0
 15 14  1  0
 17 16  1  0
 18 17  2  0
 19 18  1  0
 19 20  2  0
 20 15  1  0
 21 22  2  0
 21 10  1  0
 24 23  1  6
 24 25  1  0
 25 21  1  0
 26 24  1  0
 27 26  2  0
 28 26  1  0
M  END
$$$$
