MWA.pdb
     RDKit          3D

 28 29  0  0  1  0  0  0  0  0999 V2000
   10.8374  -18.3046   17.1987 C   0  0  0  0  0  0  0  0  0  0  0  0
    9.1224  -18.0790   16.7396 S   0  0  0  0  0  0  0  0  0  0  0  0
    8.0238  -17.4682   17.9839 C   0  0  0  0  0  0  0  0  0  0  0  0
    8.5819  -16.6438   19.0834 C   0  0  0  0  0  0  0  0  0  0  0  0
    7.6647  -16.3294   20.1865 C   0  0  2  0  0  0  0  0  0  0  0  0
    6.6996  -15.3364   19.8134 N   0  0  0  0  0  0  0  0  0  0  0  0
    8.3629  -15.8273   21.4072 C   0  0  0  0  0  0  0  0  0  0  0  0
    8.9850  -14.7342   21.4288 O   0  0  0  0  0  0  0  0  0  0  0  0
    8.3131  -16.6306   22.5883 N   0  0  0  0  0  0  0  0  0  0  0  0
    9.0393  -16.2385   23.7841 C   0  0  1  0  0  0  0  0  0  0  0  0
    8.1834  -16.5057   25.0276 C   0  0  0  0  0  0  0  0  0  0  0  0
    7.2663  -15.3778   25.2975 C   0  0  0  0  0  0  0  0  0  0  0  0
    5.8896  -15.4059   25.2395 C   0  0  0  0  0  0  0  0  0  0  0  0
    5.4046  -14.1703   25.5519 N   0  0  0  0  0  0  0  0  0  0  0  0
    6.4508  -13.3499   25.8094 C   0  0  0  0  0  0  0  0  0  0  0  0
    6.5147  -12.0215   26.1663 C   0  0  0  0  0  0  0  0  0  0  0  0
    7.7347  -11.4048   26.3756 C   0  0  0  0  0  0  0  0  0  0  0  0
    8.9069  -12.1159   26.2286 C   0  0  0  0  0  0  0  0  0  0  0  0
    8.8136  -13.4399   25.8717 C   0  0  0  0  0  0  0  0  0  0  0  0
    7.6192  -14.0947   25.6533 C   0  0  0  0  0  0  0  0  0  0  0  0
   10.2402  -17.1069   23.8995 C   0  0  0  0  0  0  0  0  0  0  0  0
   10.1031  -18.3733   23.7850 O   0  0  0  0  0  0  0  0  0  0  0  0
   13.9563  -16.7583   24.1078 C   0  0  0  0  0  0  0  0  0  0  0  0
   12.6517  -17.5550   24.2438 C   0  0  2  0  0  0  0  0  0  0  0  0
   11.5503  -16.6089   24.1328 N   0  0  0  0  0  0  0  0  0  0  0  0
   12.5905  -18.2932   25.5067 C   0  0  0  0  0  0  0  0  0  0  0  0
   13.0586  -19.4518   25.5729 O   0  0  0  0  0  0  0  0  0  0  0  0
   12.0243  -17.7386   26.6373 O   0  0  0  0  0  0  0  0  0  0  0  0
  1  2  1  0
  3  2  1  0
  4  3  1  0
  5  4  1  0
  5  6  1  6
  7  5  1  0
  8  7  2  0
  9  7  1  0
 10  9  1  0
 10 11  1  1
 11 12  1  0
 12 20  1  0
 12 13  2  0
 13 14  1  0
 15 16  2  0
 15 14  1  0
 17 16  1  0
 18 17  2  0
 19 18  1  0
 19 20  2  0
 20 15  1  0
 21 22  2  0
 21 10  1  0
 24 23  1  1
 24 25  1  0
 25 21  1  0
 26 24  1  0
 27 26  2  0
 28 26  1  0
M  END
$$$$
