MWA.pdb
     RDKit          3D

 28 29  0  0  1  0  0  0  0  0999 V2000
    8.1440  -11.5403   19.2773 C   0  0  0  0  0  0  0  0  0  0  0  0
    7.0876  -12.9446   18.9381 S   0  0  0  0  0  0  0  0  0  0  0  0
    7.6118  -14.5195   19.5488 C   0  0  0  0  0  0  0  0  0  0  0  0
    8.5531  -14.5611   20.6942 C   0  0  0  0  0  0  0  0  0  0  0  0
    8.9886  -15.8956   21.1261 C   0  0  2  0  0  0  0  0  0  0  0  0
    7.8878  -16.8082   21.2361 N   0  0  0  0  0  0  0  0  0  0  0  0
    9.6872  -15.8880   22.4458 C   0  0  0  0  0  0  0  0  0  0  0  0
   10.7645  -15.2675   22.6369 O   0  0  0  0  0  0  0  0  0  0  0  0
    9.0966  -16.6183   23.5232 N   0  0  0  0  0  0  0  0  0  0  0  0
    9.6649  -16.5601   24.8591 C   0  0  1  0  0  0  0  0  0  0  0  0
    8.5569  -16.7184   25.9067 C   0  0  0  0  0  0  0  0  0  0  0  0
    7.5447  -15.6480   25.7800 C   0  0  0  0  0  0  0  0  0  0  0  0
    6.2291  -15.8018   25.3996 C   0  0  0  0  0  0  0  0  0  0  0  0
    5.6188  -14.5825   25.4009 N   0  0  0  0  0  0  0  0  0  0  0  0
    6.5245  -13.6484   25.7769 C   0  0  0  0  0  0  0  0  0  0  0  0
    6.4292  -12.2843   25.9384 C   0  0  0  0  0  0  0  0  0  0  0  0
    7.5255  -11.5429   26.3397 C   0  0  0  0  0  0  0  0  0  0  0  0
    8.7324  -12.1635   26.5838 C   0  0  0  0  0  0  0  0  0  0  0  0
    8.7989  -13.5258   26.4146 C   0  0  0  0  0  0  0  0  0  0  0  0
    7.7317  -14.3039   26.0163 C   0  0  0  0  0  0  0  0  0  0  0  0
   10.5755  -17.7233   25.0237 C   0  0  0  0  0  0  0  0  0  0  0  0
   10.0958  -18.9050   24.9272 O   0  0  0  0  0  0  0  0  0  0  0  0
   14.1908  -18.4741   24.9652 C   0  0  0  0  0  0  0  0  0  0  0  0
   12.7647  -18.8117   25.4206 C   0  0  2  0  0  0  0  0  0  0  0  0
   11.9666  -17.6011   25.2856 N   0  0  0  0  0  0  0  0  0  0  0  0
   12.7341  -19.3159   26.7947 C   0  0  0  0  0  0  0  0  0  0  0  0
   12.1547  -18.6561   27.6863 O   0  0  0  0  0  0  0  0  0  0  0  0
   13.3337  -20.5120   27.1355 O   0  0  0  0  0  0  0  0  0  0  0  0
  1  2  1  0
  3  2  1  0
  4  3  1  0
  5  4  1  0
  5  6  1  1
  7  5  1  0
  8  7  2  0
  9  7  1  0
 10  9  1  0
 10 11  1  1
 11 12  1  0
 12 20  1  0
 12 13  2  0
 13 14  1  0
 15 16  2  0
 15 14  1  0
 17 16  1  0
 18 17  2  0
 19 18  1  0
 19 20  2  0
 20 15  1  0
 21 22  2  0
 21 10  1  0
 24 23  1  1
 24 25  1  0
 25 21  1  0
 26 24  1  0
 27 26  2  0
 28 26  1  0
M  END
$$$$
