FMS.pdb
     RDKit          3D

 26 26  0  0  1  0  0  0  0  0999 V2000
    6.3679  -17.8699   26.2712 N   0  0  0  0  0  0  0  0  0  0  0  0
    6.8109  -16.6552   25.6645 C   0  0  1  0  0  0  0  0  0  0  0  0
    7.7752  -15.8795   26.5222 C   0  0  0  0  0  0  0  0  0  0  0  0
    7.2731  -14.4878   26.6431 C   0  0  0  0  0  0  0  0  0  0  0  0
    5.9635  -14.2183   26.3219 C   0  0  0  0  0  0  0  0  0  0  0  0
    5.5061  -12.9227   26.4366 C   0  0  0  0  0  0  0  0  0  0  0  0
    6.3509  -11.9276   26.8647 C   0  0  0  0  0  0  0  0  0  0  0  0
    7.6778  -12.2159   27.1872 C   0  0  0  0  0  0  0  0  0  0  0  0
    8.1358  -13.4973   27.0753 C   0  0  0  0  0  0  0  0  0  0  0  0
    7.4697  -16.8756   24.3451 C   0  0  0  0  0  0  0  0  0  0  0  0
    8.0239  -17.9577   24.1186 O   0  0  0  0  0  0  0  0  0  0  0  0
    6.7819  -12.3765   19.2437 C   0  0  0  0  0  0  0  0  0  0  0  0
    8.1991  -12.3743   20.3687 S   0  0  0  0  0  0  0  0  0  0  0  0
    7.9546  -13.5769   21.7250 C   0  0  0  0  0  0  0  0  0  0  0  0
    7.6737  -14.9098   21.0763 C   0  0  0  0  0  0  0  0  0  0  0  0
    7.9490  -16.0773   21.9908 C   0  0  2  0  0  0  0  0  0  0  0  0
    7.4881  -15.8842   23.3256 N   0  0  0  0  0  0  0  0  0  0  0  0
    9.4136  -16.2960   21.9987 C   0  0  0  0  0  0  0  0  0  0  0  0
   10.1078  -15.5598   22.7373 O   0  0  0  0  0  0  0  0  0  0  0  0
   10.8881  -19.4010   19.9344 O   0  0  0  0  0  0  0  0  0  0  0  0
   11.6791  -19.0271   21.0180 C   0  0  0  0  0  0  0  0  0  0  0  0
   11.4815  -17.5188   21.2135 C   0  0  2  0  0  0  0  0  0  0  0  0
   10.0744  -17.2795   21.2283 N   0  0  0  0  0  0  0  0  0  0  0  0
   12.2200  -16.7424   20.2210 C   0  0  0  0  0  0  0  0  0  0  0  0
   13.6049  -16.6928   20.1307 O   0  0  0  0  0  0  0  0  0  0  0  0
   11.5716  -16.0652   19.3818 O   0  0  0  0  0  0  0  0  0  0  0  0
  2  1  1  1
  3  2  1  0
  4  3  1  0
  5  4  2  0
  6  5  1  0
  7  6  2  0
  7  8  1  0
  8  9  2  0
  9  4  1  0
 10  2  1  0
 10 11  2  0
 13 12  1  0
 14 13  1  0
 16 15  1  6
 15 14  1  0
 16 17  1  0
 17 10  1  0
 18 16  1  0
 19 18  2  0
 21 20  1  0
 22 21  1  6
 22 23  1  0
 23 18  1  0
 24 22  1  0
 25 24  1  0
 26 24  2  0
M  END
$$$$
