FMS.pdb
     RDKit          3D

 26 26  0  0  1  0  0  0  0  0999 V2000
    6.4920  -17.7815   25.9386 N   0  0  0  0  0  0  0  0  0  0  0  0
    6.8580  -16.4963   25.4342 C   0  0  1  0  0  0  0  0  0  0  0  0
    7.7325  -15.7143   26.3782 C   0  0  0  0  0  0  0  0  0  0  0  0
    7.0902  -14.3988   26.6241 C   0  0  0  0  0  0  0  0  0  0  0  0
    5.9513  -14.0693   25.9274 C   0  0  0  0  0  0  0  0  0  0  0  0
    5.3620  -12.8451   26.1619 C   0  0  0  0  0  0  0  0  0  0  0  0
    5.9102  -11.9787   27.0761 C   0  0  0  0  0  0  0  0  0  0  0  0
    7.0665  -12.3267   27.7759 C   0  0  0  0  0  0  0  0  0  0  0  0
    7.6541  -13.5378   27.5474 C   0  0  0  0  0  0  0  0  0  0  0  0
    7.5722  -16.5709   24.1274 C   0  0  0  0  0  0  0  0  0  0  0  0
    8.2225  -17.5855   23.8501 O   0  0  0  0  0  0  0  0  0  0  0  0
    6.6811  -12.0279   19.6082 C   0  0  0  0  0  0  0  0  0  0  0  0
    8.1909  -12.7394   18.9094 S   0  0  0  0  0  0  0  0  0  0  0  0
    8.6182  -14.3086   19.7462 C   0  0  0  0  0  0  0  0  0  0  0  0
    8.0058  -14.2453   21.1237 C   0  0  0  0  0  0  0  0  0  0  0  0
    8.1494  -15.5367   21.8898 C   0  0  2  0  0  0  0  0  0  0  0  0
    7.5369  -15.5139   23.1765 N   0  0  0  0  0  0  0  0  0  0  0  0
    9.5986  -15.8047   22.0353 C   0  0  0  0  0  0  0  0  0  0  0  0
   10.2489  -15.0768   22.8205 O   0  0  0  0  0  0  0  0  0  0  0  0
   11.0849  -19.3371   21.3079 O   0  0  0  0  0  0  0  0  0  0  0  0
   11.8856  -18.4573   22.0321 C   0  0  0  0  0  0  0  0  0  0  0  0
   11.6962  -17.0685   21.4096 C   0  0  2  0  0  0  0  0  0  0  0  0
   10.2908  -16.8264   21.3464 N   0  0  0  0  0  0  0  0  0  0  0  0
   12.3921  -16.9480   20.1312 C   0  0  0  0  0  0  0  0  0  0  0  0
   13.7643  -17.0816   19.9654 O   0  0  0  0  0  0  0  0  0  0  0  0
   11.7161  -16.7063   19.0978 O   0  0  0  0  0  0  0  0  0  0  0  0
  2  1  1  1
  3  2  1  0
  4  3  1  0
  5  4  2  0
  6  5  1  0
  7  6  2  0
  7  8  1  0
  8  9  2  0
  9  4  1  0
 10  2  1  0
 10 11  2  0
 13 12  1  0
 14 13  1  0
 16 15  1  1
 15 14  1  0
 16 17  1  0
 17 10  1  0
 18 16  1  0
 19 18  2  0
 21 20  1  0
 22 21  1  6
 22 23  1  0
 23 18  1  0
 24 22  1  0
 25 24  1  0
 26 24  2  0
M  END
$$$$
