FMS.pdb
     RDKit          3D

 26 26  0  0  1  0  0  0  0  0999 V2000
   10.4335  -17.6742   21.1433 N   0  0  0  0  0  0  0  0  0  0  0  0
    9.6609  -16.5442   21.5509 C   0  0  1  0  0  0  0  0  0  0  0  0
    8.2697  -16.5363   20.9750 C   0  0  0  0  0  0  0  0  0  0  0  0
    7.9091  -15.1332   20.6513 C   0  0  0  0  0  0  0  0  0  0  0  0
    6.9332  -14.5055   21.3893 C   0  0  0  0  0  0  0  0  0  0  0  0
    6.6045  -13.2025   21.0811 C   0  0  0  0  0  0  0  0  0  0  0  0
    7.2457  -12.5530   20.0545 C   0  0  0  0  0  0  0  0  0  0  0  0
    8.2343  -13.2027   19.3139 C   0  0  0  0  0  0  0  0  0  0  0  0
    8.5636  -14.4931   19.6150 C   0  0  0  0  0  0  0  0  0  0  0  0
    9.5279  -16.4397   23.0324 C   0  0  0  0  0  0  0  0  0  0  0  0
   10.0338  -17.3118   23.7485 O   0  0  0  0  0  0  0  0  0  0  0  0
    5.8459  -11.8758   25.9647 C   0  0  0  0  0  0  0  0  0  0  0  0
    7.2092  -11.9672   27.1509 S   0  0  0  0  0  0  0  0  0  0  0  0
    8.1950  -13.4861   26.8930 C   0  0  0  0  0  0  0  0  0  0  0  0
    8.1142  -13.8100   25.4216 C   0  0  0  0  0  0  0  0  0  0  0  0
    8.9494  -15.0057   25.0371 C   0  0  2  0  0  0  0  0  0  0  0  0
    8.8368  -15.3687   23.6634 N   0  0  0  0  0  0  0  0  0  0  0  0
    8.5155  -16.1386   25.8864 C   0  0  0  0  0  0  0  0  0  0  0  0
    8.6559  -16.0237   27.1259 O   0  0  0  0  0  0  0  0  0  0  0  0
    7.2263  -20.0227   24.4481 O   0  0  0  0  0  0  0  0  0  0  0  0
    6.5187  -19.2363   25.3541 C   0  0  0  0  0  0  0  0  0  0  0  0
    7.5563  -18.4593   26.1738 C   0  0  2  0  0  0  0  0  0  0  0  0
    7.9550  -17.3365   25.3878 N   0  0  0  0  0  0  0  0  0  0  0  0
    8.6550  -19.3170   26.6101 C   0  0  0  0  0  0  0  0  0  0  0  0
    8.5090  -20.4300   27.4277 O   0  0  0  0  0  0  0  0  0  0  0  0
    9.8219  -19.0426   26.2277 O   0  0  0  0  0  0  0  0  0  0  0  0
  2  1  1  1
  3  2  1  0
  4  3  1  0
  5  4  2  0
  6  5  1  0
  7  6  2  0
  7  8  1  0
  8  9  2  0
  9  4  1  0
 10  2  1  0
 10 11  2  0
 13 12  1  0
 14 13  1  0
 16 15  1  6
 15 14  1  0
 16 17  1  0
 17 10  1  0
 18 16  1  0
 19 18  2  0
 21 20  1  0
 22 21  1  6
 22 23  1  0
 23 18  1  0
 24 22  1  0
 25 24  1  0
 26 24  2  0
M  END
$$$$
