FMS.pdb
     RDKit          3D

 26 26  0  0  1  0  0  0  0  0999 V2000
    9.0873  -15.4820   20.9177 N   0  0  0  0  0  0  0  0  0  0  0  0
    8.7407  -14.9756   22.2074 C   0  0  1  0  0  0  0  0  0  0  0  0
    7.2561  -14.9540   22.4583 C   0  0  0  0  0  0  0  0  0  0  0  0
    7.0101  -14.2221   23.7261 C   0  0  0  0  0  0  0  0  0  0  0  0
    7.2376  -12.8667   23.7715 C   0  0  0  0  0  0  0  0  0  0  0  0
    7.0069  -12.1954   24.9535 C   0  0  0  0  0  0  0  0  0  0  0  0
    6.5584  -12.8771   26.0586 C   0  0  0  0  0  0  0  0  0  0  0  0
    6.3319  -14.2529   25.9977 C   0  0  0  0  0  0  0  0  0  0  0  0
    6.5588  -14.9225   24.8296 C   0  0  0  0  0  0  0  0  0  0  0  0
    9.3668  -15.7481   23.3184 C   0  0  0  0  0  0  0  0  0  0  0  0
    9.7506  -16.9050   23.1099 O   0  0  0  0  0  0  0  0  0  0  0  0
   10.1983  -13.0864   29.1870 C   0  0  0  0  0  0  0  0  0  0  0  0
   10.8548  -14.7298   29.5641 S   0  0  0  0  0  0  0  0  0  0  0  0
   11.1300  -15.6879   28.0305 C   0  0  0  0  0  0  0  0  0  0  0  0
   10.2751  -15.0510   26.9629 C   0  0  0  0  0  0  0  0  0  0  0  0
   10.4316  -15.7098   25.6151 C   0  0  2  0  0  0  0  0  0  0  0  0
    9.5433  -15.2054   24.6212 N   0  0  0  0  0  0  0  0  0  0  0  0
   10.1945  -17.1595   25.8022 C   0  0  0  0  0  0  0  0  0  0  0  0
    9.0360  -17.5249   26.1084 O   0  0  0  0  0  0  0  0  0  0  0  0
   12.6322  -19.8533   24.2214 O   0  0  0  0  0  0  0  0  0  0  0  0
   11.3607  -20.2792   24.5981 C   0  0  0  0  0  0  0  0  0  0  0  0
   11.0147  -19.5482   25.9013 C   0  0  2  0  0  0  0  0  0  0  0  0
   11.1896  -18.1527   25.6574 N   0  0  0  0  0  0  0  0  0  0  0  0
   11.7774  -20.0680   27.0332 C   0  0  0  0  0  0  0  0  0  0  0  0
   11.7491  -21.3883   27.4627 O   0  0  0  0  0  0  0  0  0  0  0  0
   12.5166  -19.2777   27.6753 O   0  0  0  0  0  0  0  0  0  0  0  0
  2  1  1  6
  3  2  1  0
  4  3  1  0
  5  4  2  0
  6  5  1  0
  7  6  2  0
  7  8  1  0
  8  9  2  0
  9  4  1  0
 10  2  1  0
 10 11  2  0
 13 12  1  0
 14 13  1  0
 16 15  1  1
 15 14  1  0
 16 17  1  0
 17 10  1  0
 18 16  1  0
 19 18  2  0
 21 20  1  0
 22 21  1  6
 22 23  1  0
 23 18  1  0
 24 22  1  0
 25 24  1  0
 26 24  2  0
M  END
$$$$
