FMS.pdb
     RDKit          3D

 26 26  0  0  1  0  0  0  0  0999 V2000
   11.7413  -16.5159   20.8515 N   0  0  0  0  0  0  0  0  0  0  0  0
   10.5946  -15.7165   21.1449 C   0  0  1  0  0  0  0  0  0  0  0  0
    9.3811  -16.0997   20.3400 C   0  0  0  0  0  0  0  0  0  0  0  0
    8.4508  -14.9430   20.3232 C   0  0  0  0  0  0  0  0  0  0  0  0
    7.1701  -15.1070   20.7962 C   0  0  0  0  0  0  0  0  0  0  0  0
    6.3129  -14.0273   20.7761 C   0  0  0  0  0  0  0  0  0  0  0  0
    6.7404  -12.8153   20.2908 C   0  0  0  0  0  0  0  0  0  0  0  0
    8.0432  -12.6636   19.8139 C   0  0  0  0  0  0  0  0  0  0  0  0
    8.8961  -13.7297   19.8316 C   0  0  0  0  0  0  0  0  0  0  0  0
   10.2069  -15.7691   22.5837 C   0  0  0  0  0  0  0  0  0  0  0  0
   10.7487  -16.5961   23.3266 O   0  0  0  0  0  0  0  0  0  0  0  0
    6.7496  -10.8389   26.7293 C   0  0  0  0  0  0  0  0  0  0  0  0
    6.1276  -12.5180   26.4685 S   0  0  0  0  0  0  0  0  0  0  0  0
    7.5092  -13.7055   26.3062 C   0  0  0  0  0  0  0  0  0  0  0  0
    7.7617  -13.8765   24.8286 C   0  0  0  0  0  0  0  0  0  0  0  0
    8.9571  -14.7480   24.5344 C   0  0  2  0  0  0  0  0  0  0  0  0
    9.2306  -14.8998   23.1439 N   0  0  0  0  0  0  0  0  0  0  0  0
    8.6942  -16.0755   25.1357 C   0  0  0  0  0  0  0  0  0  0  0  0
    8.3912  -16.1142   26.3507 O   0  0  0  0  0  0  0  0  0  0  0  0
    8.8085  -20.8771   24.4477 O   0  0  0  0  0  0  0  0  0  0  0  0
    9.0207  -19.6082   23.9142 C   0  0  0  0  0  0  0  0  0  0  0  0
    8.6176  -18.5979   24.9954 C   0  0  2  0  0  0  0  0  0  0  0  0
    8.7634  -17.2966   24.4274 N   0  0  0  0  0  0  0  0  0  0  0  0
    9.3598  -18.8066   26.2359 C   0  0  0  0  0  0  0  0  0  0  0  0
   10.6230  -18.2912   26.4946 O   0  0  0  0  0  0  0  0  0  0  0  0
    8.8323  -19.4995   27.1442 O   0  0  0  0  0  0  0  0  0  0  0  0
  2  1  1  1
  3  2  1  0
  4  3  1  0
  5  4  2  0
  6  5  1  0
  7  6  2  0
  7  8  1  0
  8  9  2  0
  9  4  1  0
 10  2  1  0
 10 11  2  0
 13 12  1  0
 14 13  1  0
 16 15  1  6
 15 14  1  0
 16 17  1  0
 17 10  1  0
 18 16  1  0
 19 18  2  0
 21 20  1  0
 22 21  1  6
 22 23  1  0
 23 18  1  0
 24 22  1  0
 25 24  1  0
 26 24  2  0
M  END
$$$$
