FMS.pdb
     RDKit          3D

 26 26  0  0  1  0  0  0  0  0999 V2000
    7.1281  -17.3152   26.5756 N   0  0  0  0  0  0  0  0  0  0  0  0
    7.2241  -16.3035   25.5720 C   0  0  1  0  0  0  0  0  0  0  0  0
    8.4044  -15.3879   25.7619 C   0  0  0  0  0  0  0  0  0  0  0  0
    7.9021  -14.0769   26.2440 C   0  0  0  0  0  0  0  0  0  0  0  0
    8.7184  -13.2939   27.0261 C   0  0  0  0  0  0  0  0  0  0  0  0
    8.2432  -12.0780   27.4698 C   0  0  0  0  0  0  0  0  0  0  0  0
    6.9772  -11.6663   27.1313 C   0  0  0  0  0  0  0  0  0  0  0  0
    6.1599  -12.4716   26.3367 C   0  0  0  0  0  0  0  0  0  0  0  0
    6.6256  -13.6766   25.8947 C   0  0  0  0  0  0  0  0  0  0  0  0
    7.3155  -16.8644   24.1935 C   0  0  0  0  0  0  0  0  0  0  0  0
    7.5182  -18.0752   24.0450 O   0  0  0  0  0  0  0  0  0  0  0  0
    8.5415  -11.4098   20.0217 C   0  0  0  0  0  0  0  0  0  0  0  0
    7.6407  -12.9459   19.7004 S   0  0  0  0  0  0  0  0  0  0  0  0
    7.8377  -14.1183   21.0903 C   0  0  0  0  0  0  0  0  0  0  0  0
    7.1975  -15.4142   20.6577 C   0  0  0  0  0  0  0  0  0  0  0  0
    7.3335  -16.5084   21.6870 C   0  0  2  0  0  0  0  0  0  0  0  0
    7.1781  -16.0578   23.0301 N   0  0  0  0  0  0  0  0  0  0  0  0
    8.6765  -17.1090   21.5177 C   0  0  0  0  0  0  0  0  0  0  0  0
    8.7799  -18.0974   20.7549 O   0  0  0  0  0  0  0  0  0  0  0  0
   11.9660  -16.8978   19.4607 O   0  0  0  0  0  0  0  0  0  0  0  0
   11.2414  -16.0718   20.3167 C   0  0  0  0  0  0  0  0  0  0  0  0
   11.1781  -16.7836   21.6737 C   0  0  2  0  0  0  0  0  0  0  0  0
    9.8440  -16.6387   22.1604 N   0  0  0  0  0  0  0  0  0  0  0  0
   12.2135  -16.3048   22.5857 C   0  0  0  0  0  0  0  0  0  0  0  0
   11.9724  -15.8031   23.8580 O   0  0  0  0  0  0  0  0  0  0  0  0
   13.4132  -16.3424   22.2081 O   0  0  0  0  0  0  0  0  0  0  0  0
  2  1  1  1
  3  2  1  0
  4  3  1  0
  5  4  2  0
  6  5  1  0
  7  6  2  0
  7  8  1  0
  8  9  2  0
  9  4  1  0
 10  2  1  0
 10 11  2  0
 13 12  1  0
 14 13  1  0
 16 15  1  6
 15 14  1  0
 16 17  1  0
 17 10  1  0
 18 16  1  0
 19 18  2  0
 21 20  1  0
 22 21  1  6
 22 23  1  0
 23 18  1  0
 24 22  1  0
 25 24  1  0
 26 24  2  0
M  END
$$$$
