FMS.pdb
     RDKit          3D

 26 26  0  0  1  0  0  0  0  0999 V2000
    7.6368  -18.9715   27.1543 N   0  0  0  0  0  0  0  0  0  0  0  0
    8.2811  -17.7012   27.0478 C   0  0  1  0  0  0  0  0  0  0  0  0
    9.6711  -17.6892   27.6267 C   0  0  0  0  0  0  0  0  0  0  0  0
    9.8968  -16.3682   28.2651 C   0  0  0  0  0  0  0  0  0  0  0  0
    9.8946  -15.2375   27.4825 C   0  0  0  0  0  0  0  0  0  0  0  0
   10.1057  -14.0149   28.0840 C   0  0  0  0  0  0  0  0  0  0  0  0
   10.3132  -13.9392   29.4399 C   0  0  0  0  0  0  0  0  0  0  0  0
   10.3127  -15.0954   30.2216 C   0  0  0  0  0  0  0  0  0  0  0  0
   10.1041  -16.3085   29.6308 C   0  0  0  0  0  0  0  0  0  0  0  0
    8.3832  -17.2219   25.6396 C   0  0  0  0  0  0  0  0  0  0  0  0
    8.6164  -18.0361   24.7385 O   0  0  0  0  0  0  0  0  0  0  0  0
    5.7388  -12.0571   26.7995 C   0  0  0  0  0  0  0  0  0  0  0  0
    6.6488  -11.9349   25.2402 S   0  0  0  0  0  0  0  0  0  0  0  0
    6.5313  -13.4960   24.2945 C   0  0  0  0  0  0  0  0  0  0  0  0
    7.9361  -13.8575   23.8795 C   0  0  0  0  0  0  0  0  0  0  0  0
    8.2078  -15.3392   23.9559 C   0  0  2  0  0  0  0  0  0  0  0  0
    8.2223  -15.8540   25.2849 N   0  0  0  0  0  0  0  0  0  0  0  0
    9.5215  -15.5806   23.3164 C   0  0  0  0  0  0  0  0  0  0  0  0
   10.5427  -15.1615   23.9087 O   0  0  0  0  0  0  0  0  0  0  0  0
   11.3539  -18.8242   20.6946 O   0  0  0  0  0  0  0  0  0  0  0  0
   11.1277  -18.1438   21.8886 C   0  0  0  0  0  0  0  0  0  0  0  0
   10.9429  -16.6643   21.5293 C   0  0  2  0  0  0  0  0  0  0  0  0
    9.6943  -16.2516   22.0846 N   0  0  0  0  0  0  0  0  0  0  0  0
   11.0752  -16.4346   20.0931 C   0  0  0  0  0  0  0  0  0  0  0  0
   10.0808  -15.8978   19.2860 O   0  0  0  0  0  0  0  0  0  0  0  0
   12.1595  -16.7389   19.5318 O   0  0  0  0  0  0  0  0  0  0  0  0
  2  1  1  6
  3  2  1  0
  4  3  1  0
  5  4  2  0
  6  5  1  0
  7  6  2  0
  7  8  1  0
  8  9  2  0
  9  4  1  0
 10  2  1  0
 10 11  2  0
 13 12  1  0
 14 13  1  0
 16 15  1  1
 15 14  1  0
 16 17  1  0
 17 10  1  0
 18 16  1  0
 19 18  2  0
 21 20  1  0
 22 21  1  6
 22 23  1  0
 23 18  1  0
 24 22  1  0
 25 24  1  0
 26 24  2  0
M  END
$$$$
