FMS.pdb
     RDKit          3D

 26 26  0  0  1  0  0  0  0  0999 V2000
    8.2304  -16.8278   21.1589 N   0  0  0  0  0  0  0  0  0  0  0  0
    9.4872  -16.2599   21.5305 C   0  0  1  0  0  0  0  0  0  0  0  0
    9.8966  -15.1013   20.6602 C   0  0  0  0  0  0  0  0  0  0  0  0
    8.6983  -14.2611   20.4118 C   0  0  0  0  0  0  0  0  0  0  0  0
    7.9529  -14.4771   19.2766 C   0  0  0  0  0  0  0  0  0  0  0  0
    6.8420  -13.6915   19.0540 C   0  0  0  0  0  0  0  0  0  0  0  0
    6.4954  -12.7144   19.9553 C   0  0  0  0  0  0  0  0  0  0  0  0
    7.2614  -12.5066   21.1032 C   0  0  0  0  0  0  0  0  0  0  0  0
    8.3625  -13.2818   21.3285 C   0  0  0  0  0  0  0  0  0  0  0  0
    9.5103  -15.7831   22.9431 C   0  0  0  0  0  0  0  0  0  0  0  0
   10.5643  -15.3414   23.4156 O   0  0  0  0  0  0  0  0  0  0  0  0
    7.9096  -11.4457   26.9302 C   0  0  0  0  0  0  0  0  0  0  0  0
    6.5329  -12.5974   26.7012 S   0  0  0  0  0  0  0  0  0  0  0  0
    6.7955  -13.6387   25.2206 C   0  0  0  0  0  0  0  0  0  0  0  0
    7.0636  -15.0378   25.7175 C   0  0  0  0  0  0  0  0  0  0  0  0
    8.3550  -15.6109   25.1893 C   0  0  2  0  0  0  0  0  0  0  0  0
    8.3599  -15.8150   23.7788 N   0  0  0  0  0  0  0  0  0  0  0  0
    8.5790  -16.9027   25.8780 C   0  0  0  0  0  0  0  0  0  0  0  0
    7.6010  -17.4314   26.4553 O   0  0  0  0  0  0  0  0  0  0  0  0
   11.0718  -20.9199   26.1846 O   0  0  0  0  0  0  0  0  0  0  0  0
   10.8118  -19.7076   25.5502 C   0  0  0  0  0  0  0  0  0  0  0  0
   10.0687  -18.8265   26.5620 C   0  0  2  0  0  0  0  0  0  0  0  0
    9.8221  -17.5735   25.9241 N   0  0  0  0  0  0  0  0  0  0  0  0
   10.7879  -18.7323   27.8297 C   0  0  0  0  0  0  0  0  0  0  0  0
   11.2580  -17.5484   28.3829 O   0  0  0  0  0  0  0  0  0  0  0  0
   11.0052  -19.7880   28.4789 O   0  0  0  0  0  0  0  0  0  0  0  0
  2  1  1  6
  3  2  1  0
  4  3  1  0
  5  4  2  0
  6  5  1  0
  7  6  2  0
  7  8  1  0
  8  9  2  0
  9  4  1  0
 10  2  1  0
 10 11  2  0
 13 12  1  0
 14 13  1  0
 16 15  1  1
 15 14  1  0
 16 17  1  0
 17 10  1  0
 18 16  1  0
 19 18  2  0
 21 20  1  0
 22 21  1  6
 22 23  1  0
 23 18  1  0
 24 22  1  0
 25 24  1  0
 26 24  2  0
M  END
$$$$
