FMS.pdb
     RDKit          3D

 26 26  0  0  1  0  0  0  0  0999 V2000
    7.7827  -17.1058   21.5848 N   0  0  0  0  0  0  0  0  0  0  0  0
    9.1389  -16.6600   21.6296 C   0  0  1  0  0  0  0  0  0  0  0  0
    9.5286  -15.8215   20.4412 C   0  0  0  0  0  0  0  0  0  0  0  0
    8.6842  -14.6006   20.4374 C   0  0  0  0  0  0  0  0  0  0  0  0
    9.2763  -13.3767   20.6436 C   0  0  0  0  0  0  0  0  0  0  0  0
    8.4841  -12.2482   20.6391 C   0  0  0  0  0  0  0  0  0  0  0  0
    7.1304  -12.3557   20.4316 C   0  0  0  0  0  0  0  0  0  0  0  0
    6.5433  -13.6047   20.2237 C   0  0  0  0  0  0  0  0  0  0  0  0
    7.3233  -14.7254   20.2272 C   0  0  0  0  0  0  0  0  0  0  0  0
    9.4449  -15.8643   22.8529 C   0  0  0  0  0  0  0  0  0  0  0  0
   10.6037  -15.4805   23.0511 O   0  0  0  0  0  0  0  0  0  0  0  0
    5.9498  -11.2007   25.5436 C   0  0  0  0  0  0  0  0  0  0  0  0
    6.4042  -12.1044   27.0440 S   0  0  0  0  0  0  0  0  0  0  0  0
    7.8437  -13.1905   26.7383 C   0  0  0  0  0  0  0  0  0  0  0  0
    7.5368  -13.9738   25.4858 C   0  0  0  0  0  0  0  0  0  0  0  0
    8.6850  -14.8458   25.0427 C   0  0  2  0  0  0  0  0  0  0  0  0
    8.4507  -15.5244   23.8114 N   0  0  0  0  0  0  0  0  0  0  0  0
    8.9269  -15.8364   26.1165 C   0  0  0  0  0  0  0  0  0  0  0  0
    9.1087  -15.4030   27.2778 O   0  0  0  0  0  0  0  0  0  0  0  0
    8.9043  -19.9589   25.3756 O   0  0  0  0  0  0  0  0  0  0  0  0
    8.4121  -19.4545   26.5769 C   0  0  0  0  0  0  0  0  0  0  0  0
    9.2478  -18.2133   26.9138 C   0  0  2  0  0  0  0  0  0  0  0  0
    8.9652  -17.2346   25.9139 N   0  0  0  0  0  0  0  0  0  0  0  0
   10.6638  -18.5378   27.0641 C   0  0  0  0  0  0  0  0  0  0  0  0
   11.1807  -19.3747   28.0444 O   0  0  0  0  0  0  0  0  0  0  0  0
   11.4867  -18.0321   26.2576 O   0  0  0  0  0  0  0  0  0  0  0  0
  2  1  1  6
  3  2  1  0
  4  3  1  0
  5  4  2  0
  6  5  1  0
  7  6  2  0
  7  8  1  0
  8  9  2  0
  9  4  1  0
 10  2  1  0
 10 11  2  0
 13 12  1  0
 14 13  1  0
 16 15  1  1
 15 14  1  0
 16 17  1  0
 17 10  1  0
 18 16  1  0
 19 18  2  0
 21 20  1  0
 22 21  1  6
 22 23  1  0
 23 18  1  0
 24 22  1  0
 25 24  1  0
 26 24  2  0
M  END
$$$$
