FMS.pdb
     RDKit          3D

 26 26  0  0  1  0  0  0  0  0999 V2000
    7.4105  -16.6828   21.2171 N   0  0  0  0  0  0  0  0  0  0  0  0
    8.8137  -16.5695   21.4581 C   0  0  1  0  0  0  0  0  0  0  0  0
    9.4946  -15.5794   20.5506 C   0  0  0  0  0  0  0  0  0  0  0  0
    8.5675  -14.4422   20.3254 C   0  0  0  0  0  0  0  0  0  0  0  0
    7.6092  -14.5439   19.3443 C   0  0  0  0  0  0  0  0  0  0  0  0
    6.7530  -13.4825   19.1418 C   0  0  0  0  0  0  0  0  0  0  0  0
    6.8636  -12.3497   19.9110 C   0  0  0  0  0  0  0  0  0  0  0  0
    7.8411  -12.2606   20.9031 C   0  0  0  0  0  0  0  0  0  0  0  0
    8.6916  -13.3089   21.1077 C   0  0  0  0  0  0  0  0  0  0  0  0
    9.1286  -16.1744   22.8609 C   0  0  0  0  0  0  0  0  0  0  0  0
   10.3103  -16.0559   23.2056 O   0  0  0  0  0  0  0  0  0  0  0  0
    7.2425  -11.6731   27.3705 C   0  0  0  0  0  0  0  0  0  0  0  0
    6.1119  -12.3113   26.1101 S   0  0  0  0  0  0  0  0  0  0  0  0
    6.9749  -13.4713   24.9898 C   0  0  0  0  0  0  0  0  0  0  0  0
    7.2511  -14.7206   25.7894 C   0  0  0  0  0  0  0  0  0  0  0  0
    8.3440  -15.5707   25.1912 C   0  0  2  0  0  0  0  0  0  0  0  0
    8.1173  -15.9254   23.8295 N   0  0  0  0  0  0  0  0  0  0  0  0
    8.4477  -16.7986   26.0126 C   0  0  0  0  0  0  0  0  0  0  0  0
    7.3827  -17.3713   26.3398 O   0  0  0  0  0  0  0  0  0  0  0  0
   11.6430  -19.0851   25.9852 O   0  0  0  0  0  0  0  0  0  0  0  0
   10.4632  -19.6067   26.5104 C   0  0  0  0  0  0  0  0  0  0  0  0
    9.8025  -18.4844   27.3205 C   0  0  2  0  0  0  0  0  0  0  0  0
    9.6682  -17.3623   26.4485 N   0  0  0  0  0  0  0  0  0  0  0  0
   10.5281  -18.2097   28.5579 C   0  0  0  0  0  0  0  0  0  0  0  0
   10.7353  -19.1354   29.5720 O   0  0  0  0  0  0  0  0  0  0  0  0
   11.0053  -17.0587   28.7335 O   0  0  0  0  0  0  0  0  0  0  0  0
  2  1  1  1
  3  2  1  0
  4  3  1  0
  5  4  2  0
  6  5  1  0
  7  6  2  0
  7  8  1  0
  8  9  2  0
  9  4  1  0
 10  2  1  0
 10 11  2  0
 13 12  1  0
 14 13  1  0
 16 15  1  1
 15 14  1  0
 16 17  1  0
 17 10  1  0
 18 16  1  0
 19 18  2  0
 21 20  1  0
 22 21  1  6
 22 23  1  0
 23 18  1  0
 24 22  1  0
 25 24  1  0
 26 24  2  0
M  END
$$$$
