FMS.pdb
     RDKit          3D

 26 26  0  0  1  0  0  0  0  0999 V2000
    8.2451  -15.8567   21.4052 N   0  0  0  0  0  0  0  0  0  0  0  0
    9.1650  -14.9121   21.9543 C   0  0  1  0  0  0  0  0  0  0  0  0
    8.7214  -13.4831   21.7854 C   0  0  0  0  0  0  0  0  0  0  0  0
    8.2274  -13.3115   20.3961 C   0  0  0  0  0  0  0  0  0  0  0  0
    6.9857  -13.7989   20.0621 C   0  0  0  0  0  0  0  0  0  0  0  0
    6.5354  -13.6354   18.7693 C   0  0  0  0  0  0  0  0  0  0  0  0
    7.3202  -12.9964   17.8404 C   0  0  0  0  0  0  0  0  0  0  0  0
    8.5785  -12.5069   18.1938 C   0  0  0  0  0  0  0  0  0  0  0  0
    9.0292  -12.6661   19.4727 C   0  0  0  0  0  0  0  0  0  0  0  0
    9.4167  -15.1292   23.4079 C   0  0  0  0  0  0  0  0  0  0  0  0
   10.4716  -14.7204   23.9071 O   0  0  0  0  0  0  0  0  0  0  0  0
    7.9767  -11.9044   27.8400 C   0  0  0  0  0  0  0  0  0  0  0  0
    6.5254  -12.8184   27.2634 S   0  0  0  0  0  0  0  0  0  0  0  0
    6.9362  -13.8345   25.7992 C   0  0  0  0  0  0  0  0  0  0  0  0
    7.2690  -15.2148   26.3096 C   0  0  0  0  0  0  0  0  0  0  0  0
    8.5122  -15.7901   25.6783 C   0  0  2  0  0  0  0  0  0  0  0  0
    8.4856  -15.7933   24.2533 N   0  0  0  0  0  0  0  0  0  0  0  0
    8.6574  -17.1778   26.1745 C   0  0  0  0  0  0  0  0  0  0  0  0
    7.6245  -17.7645   26.5724 O   0  0  0  0  0  0  0  0  0  0  0  0
   11.9330  -19.3081   25.3257 O   0  0  0  0  0  0  0  0  0  0  0  0
   10.7851  -20.0139   25.6778 C   0  0  0  0  0  0  0  0  0  0  0  0
   10.0704  -19.1910   26.7567 C   0  0  2  0  0  0  0  0  0  0  0  0
    9.8836  -17.8787   26.2270 N   0  0  0  0  0  0  0  0  0  0  0  0
   10.7804  -19.2365   28.0322 C   0  0  0  0  0  0  0  0  0  0  0  0
   11.0409  -20.3976   28.7481 O   0  0  0  0  0  0  0  0  0  0  0  0
   11.1916  -18.1572   28.5316 O   0  0  0  0  0  0  0  0  0  0  0  0
  2  1  1  1
  3  2  1  0
  4  3  1  0
  5  4  2  0
  6  5  1  0
  7  6  2  0
  7  8  1  0
  8  9  2  0
  9  4  1  0
 10  2  1  0
 10 11  2  0
 13 12  1  0
 14 13  1  0
 16 15  1  1
 15 14  1  0
 16 17  1  0
 17 10  1  0
 18 16  1  0
 19 18  2  0
 21 20  1  0
 22 21  1  6
 22 23  1  0
 23 18  1  0
 24 22  1  0
 25 24  1  0
 26 24  2  0
M  END
$$$$
