FMS.pdb
     RDKit          3D

 26 26  0  0  1  0  0  0  0  0999 V2000
    6.5754  -17.3061   19.8722 N   0  0  0  0  0  0  0  0  0  0  0  0
    6.1622  -17.2710   21.2390 C   0  0  1  0  0  0  0  0  0  0  0  0
    5.9031  -18.6371   21.8169 C   0  0  0  0  0  0  0  0  0  0  0  0
    4.5639  -19.0874   21.3616 C   0  0  0  0  0  0  0  0  0  0  0  0
    4.4764  -19.9787   20.3181 C   0  0  0  0  0  0  0  0  0  0  0  0
    3.2283  -20.3909   19.9016 C   0  0  0  0  0  0  0  0  0  0  0  0
    2.1004  -19.9141   20.5241 C   0  0  0  0  0  0  0  0  0  0  0  0
    2.2046  -19.0098   21.5820 C   0  0  0  0  0  0  0  0  0  0  0  0
    3.4381  -18.5984   21.9983 C   0  0  0  0  0  0  0  0  0  0  0  0
    7.1536  -16.5958   22.1247 C   0  0  0  0  0  0  0  0  0  0  0  0
    8.3612  -16.7832   21.9347 O   0  0  0  0  0  0  0  0  0  0  0  0
    7.9563  -11.5873   28.3304 C   0  0  0  0  0  0  0  0  0  0  0  0
    6.9156  -12.4154   27.1034 S   0  0  0  0  0  0  0  0  0  0  0  0
    7.9051  -13.5638   26.0800 C   0  0  0  0  0  0  0  0  0  0  0  0
    6.9710  -14.1312   25.0399 C   0  0  0  0  0  0  0  0  0  0  0  0
    7.6535  -15.0944   24.1009 C   0  0  2  0  0  0  0  0  0  0  0  0
    6.7657  -15.7366   23.1896 N   0  0  0  0  0  0  0  0  0  0  0  0
    8.3336  -16.1140   24.9322 C   0  0  0  0  0  0  0  0  0  0  0  0
    7.6154  -16.9020   25.5898 O   0  0  0  0  0  0  0  0  0  0  0  0
   12.3448  -16.8093   24.4927 O   0  0  0  0  0  0  0  0  0  0  0  0
   11.4924  -17.8523   24.8468 C   0  0  0  0  0  0  0  0  0  0  0  0
   10.4242  -17.2586   25.7735 C   0  0  2  0  0  0  0  0  0  0  0  0
    9.7368  -16.2529   25.0294 N   0  0  0  0  0  0  0  0  0  0  0  0
   10.9971  -16.7966   27.0350 C   0  0  0  0  0  0  0  0  0  0  0  0
   11.7287  -17.5927   27.9065 O   0  0  0  0  0  0  0  0  0  0  0  0
   10.8252  -15.5963   27.3710 O   0  0  0  0  0  0  0  0  0  0  0  0
  2  1  1  6
  3  2  1  0
  4  3  1  0
  5  4  2  0
  6  5  1  0
  7  6  2  0
  7  8  1  0
  8  9  2  0
  9  4  1  0
 10  2  1  0
 10 11  2  0
 13 12  1  0
 14 13  1  0
 16 15  1  1
 15 14  1  0
 16 17  1  0
 17 10  1  0
 18 16  1  0
 19 18  2  0
 21 20  1  0
 22 21  1  6
 22 23  1  0
 23 18  1  0
 24 22  1  0
 25 24  1  0
 26 24  2  0
M  END
$$$$
