FMS.pdb
     RDKit          3D

 26 26  0  0  1  0  0  0  0  0999 V2000
    7.7210  -12.9887   42.8299 N   0  0  0  0  0  0  0  0  0  0  0  0
    8.6709  -12.5951   41.8386 C   0  0  1  0  0  0  0  0  0  0  0  0
    8.0351  -12.0135   40.6038 C   0  0  0  0  0  0  0  0  0  0  0  0
    7.2748  -13.0907   39.9217 C   0  0  0  0  0  0  0  0  0  0  0  0
    5.9345  -13.2381   40.1916 C   0  0  0  0  0  0  0  0  0  0  0  0
    5.2367  -14.2418   39.5539 C   0  0  0  0  0  0  0  0  0  0  0  0
    5.8777  -15.0729   38.6678 C   0  0  0  0  0  0  0  0  0  0  0  0
    7.2386  -14.9114   38.4037 C   0  0  0  0  0  0  0  0  0  0  0  0
    7.9344  -13.9191   39.0325 C   0  0  0  0  0  0  0  0  0  0  0  0
    9.6528  -11.5938   42.3452 C   0  0  0  0  0  0  0  0  0  0  0  0
    9.3382  -10.8631   43.2920 O   0  0  0  0  0  0  0  0  0  0  0  0
   15.0678  -12.1447   39.1518 C   0  0  0  0  0  0  0  0  0  0  0  0
   15.4616  -12.1441   40.9179 S   0  0  0  0  0  0  0  0  0  0  0  0
   13.9389  -12.0217   41.9237 C   0  0  0  0  0  0  0  0  0  0  0  0
   13.2859  -10.7104   41.5628 C   0  0  0  0  0  0  0  0  0  0  0  0
   11.9432  -10.5218   42.2236 C   0  0  2  0  0  0  0  0  0  0  0  0
   10.9490  -11.4416   41.7799 N   0  0  0  0  0  0  0  0  0  0  0  0
   11.5010   -9.1377   41.9375 C   0  0  0  0  0  0  0  0  0  0  0  0
   11.1169   -8.8785   40.7736 O   0  0  0  0  0  0  0  0  0  0  0  0
   10.7309   -6.4198   44.9444 O   0  0  0  0  0  0  0  0  0  0  0  0
   10.0681   -6.3696   43.7205 C   0  0  0  0  0  0  0  0  0  0  0  0
   11.0934   -6.7453   42.6436 C   0  0  2  0  0  0  0  0  0  0  0  0
   11.4852   -8.0953   42.8918 N   0  0  0  0  0  0  0  0  0  0  0  0
   12.1981   -5.7915   42.5907 C   0  0  0  0  0  0  0  0  0  0  0  0
   13.5223   -6.1031   42.8697 O   0  0  0  0  0  0  0  0  0  0  0  0
   11.9503   -4.5997   42.2718 O   0  0  0  0  0  0  0  0  0  0  0  0
  2  1  1  1
  3  2  1  0
  4  3  1  0
  5  4  2  0
  6  5  1  0
  7  6  2  0
  7  8  1  0
  8  9  2  0
  9  4  1  0
 10  2  1  0
 10 11  2  0
 13 12  1  0
 14 13  1  0
 16 15  1  6
 15 14  1  0
 16 17  1  0
 17 10  1  0
 18 16  1  0
 19 18  2  0
 21 20  1  0
 22 21  1  1
 22 23  1  0
 23 18  1  0
 24 22  1  0
 25 24  1  0
 26 24  2  0
M  END
$$$$
