FNT.pdb
     RDKit          3D

 27 27  0  0  1  0  0  0  0  0999 V2000
    6.3565  -16.4004   25.3409 N   0  0  0  0  0  0  0  0  0  0  0  0
    7.0509  -15.4299   24.5306 C   0  0  1  0  0  0  0  0  0  0  0  0
    8.0730  -14.6551   25.2955 C   0  0  0  0  0  0  0  0  0  0  0  0
    7.3967  -13.5470   26.0088 C   0  0  0  0  0  0  0  0  0  0  0  0
    6.1898  -13.0351   25.5933 C   0  0  0  0  0  0  0  0  0  0  0  0
    5.5938  -12.0042   26.2845 C   0  0  0  0  0  0  0  0  0  0  0  0
    6.1780  -11.4635   27.3936 C   0  0  0  0  0  0  0  0  0  0  0  0
    7.3890  -11.9699   27.8190 C   0  0  0  0  0  0  0  0  0  0  0  0
    7.9885  -13.0073   27.1235 C   0  0  0  0  0  0  0  0  0  0  0  0
    7.5465  -16.0645   23.3058 C   0  0  0  0  0  0  0  0  0  0  0  0
    7.3348  -17.3045   23.0842 O   0  0  0  0  0  0  0  0  0  0  0  0
    7.5540  -12.9333   19.8910 N   0  0  0  0  0  0  0  0  0  0  0  0
    7.6553  -14.3429   19.8170 C   0  0  0  0  0  0  0  0  0  0  0  0
    6.5942  -14.9862   19.5720 O   0  0  0  0  0  0  0  0  0  0  0  0
    8.9181  -15.0457   20.0115 C   0  0  0  0  0  0  0  0  0  0  0  0
    8.8652  -16.0427   21.1583 C   0  0  2  0  0  0  0  0  0  0  0  0
    8.2796  -15.3693   22.2999 N   0  0  0  0  0  0  0  0  0  0  0  0
   10.1873  -16.6173   21.4663 C   0  0  0  0  0  0  0  0  0  0  0  0
   10.8828  -17.1544   20.5418 O   0  0  0  0  0  0  0  0  0  0  0  0
   13.2344  -15.2336   22.8353 C   0  0  0  0  0  0  0  0  0  0  0  0
   12.8794  -16.3570   23.8072 C   0  0  1  0  0  0  0  0  0  0  0  0
   12.0774  -15.7460   24.7972 O   0  0  0  0  0  0  0  0  0  0  0  0
   11.9719  -17.3503   23.1102 C   0  0  2  0  0  0  0  0  0  0  0  0
   10.7661  -16.6189   22.7567 N   0  0  0  0  0  0  0  0  0  0  0  0
   11.6689  -18.4438   24.0750 C   0  0  0  0  0  0  0  0  0  0  0  0
   10.4918  -18.5596   24.5029 O   0  0  0  0  0  0  0  0  0  0  0  0
   12.6625  -19.3088   24.4874 O   0  0  0  0  0  0  0  0  0  0  0  0
  2  1  1  1
  3  2  1  0
  4  5  2  0
  4  3  1  0
  6  5  1  0
  7  6  2  0
  8  7  1  0
  8  9  2  0
  9  4  1  0
 10  2  1  0
 11 10  2  0
 13 12  1  0
 14 13  2  0
 15 13  1  0
 16 15  1  6
 16 17  1  0
 17 10  1  0
 18 19  2  0
 18 16  1  0
 21 20  1  6
 21 23  1  0
 22 21  1  0
 23 24  1  1
 24 18  1  0
 25 23  1  0
 26 25  2  0
 27 25  1  0
M  END
$$$$
