FNT.pdb
     RDKit          3D

 27 27  0  0  1  0  0  0  0  0999 V2000
   11.8763  -12.7427   19.7626 N   0  0  0  0  0  0  0  0  0  0  0  0
   11.5912  -14.1114   20.1177 C   0  0  1  0  0  0  0  0  0  0  0  0
   10.5782  -14.7474   19.2236 C   0  0  0  0  0  0  0  0  0  0  0  0
    9.2623  -14.1115   19.4648 C   0  0  0  0  0  0  0  0  0  0  0  0
    8.5177  -14.3700   20.5919 C   0  0  0  0  0  0  0  0  0  0  0  0
    7.2986  -13.7580   20.7785 C   0  0  0  0  0  0  0  0  0  0  0  0
    6.7961  -12.8838   19.8582 C   0  0  0  0  0  0  0  0  0  0  0  0
    7.5352  -12.6174   18.7239 C   0  0  0  0  0  0  0  0  0  0  0  0
    8.7620  -13.2331   18.5362 C   0  0  0  0  0  0  0  0  0  0  0  0
   12.8424  -14.8606   20.2643 C   0  0  0  0  0  0  0  0  0  0  0  0
   13.8726  -14.5470   19.5773 O   0  0  0  0  0  0  0  0  0  0  0  0
   15.3205  -14.6877   22.9594 N   0  0  0  0  0  0  0  0  0  0  0  0
   14.9438  -15.9195   23.5455 C   0  0  0  0  0  0  0  0  0  0  0  0
   15.0716  -16.0258   24.7993 O   0  0  0  0  0  0  0  0  0  0  0  0
   14.4278  -17.0328   22.7577 C   0  0  0  0  0  0  0  0  0  0  0  0
   14.2515  -16.6815   21.2888 C   0  0  2  0  0  0  0  0  0  0  0  0
   13.0010  -15.9618   21.1559 N   0  0  0  0  0  0  0  0  0  0  0  0
   14.3092  -17.8675   20.4153 C   0  0  0  0  0  0  0  0  0  0  0  0
   13.5752  -18.8809   20.6627 O   0  0  0  0  0  0  0  0  0  0  0  0
   13.1279  -18.5669   17.2813 C   0  0  0  0  0  0  0  0  0  0  0  0
   14.6310  -18.7738   17.1062 C   0  0  1  0  0  0  0  0  0  0  0  0
   15.1460  -17.4916   16.8109 O   0  0  0  0  0  0  0  0  0  0  0  0
   15.2400  -19.1550   18.4403 C   0  0  2  0  0  0  0  0  0  0  0  0
   15.1472  -17.9723   19.2809 N   0  0  0  0  0  0  0  0  0  0  0  0
   16.6616  -19.5290   18.2008 C   0  0  0  0  0  0  0  0  0  0  0  0
   17.5644  -18.7507   18.6027 O   0  0  0  0  0  0  0  0  0  0  0  0
   16.9761  -20.7057   17.5511 O   0  0  0  0  0  0  0  0  0  0  0  0
  2  1  1  6
  3  2  1  0
  4  5  2  0
  4  3  1  0
  6  5  1  0
  7  6  2  0
  8  7  1  0
  8  9  2  0
  9  4  1  0
 10  2  1  0
 11 10  2  0
 13 12  1  0
 14 13  2  0
 15 13  1  0
 16 15  1  1
 16 17  1  0
 17 10  1  0
 18 19  2  0
 18 16  1  0
 21 20  1  1
 21 23  1  0
 22 21  1  0
 23 24  1  1
 24 18  1  0
 25 23  1  0
 26 25  2  0
 27 25  1  0
M  END
$$$$
