FNT.pdb
     RDKit          3D

 27 27  0  0  1  0  0  0  0  0999 V2000
    8.8798  -14.3078   25.5907 N   0  0  0  0  0  0  0  0  0  0  0  0
    8.1520  -15.1627   24.6851 C   0  0  1  0  0  0  0  0  0  0  0  0
    7.1267  -14.4279   23.8858 C   0  0  0  0  0  0  0  0  0  0  0  0
    6.6466  -13.2696   24.6745 C   0  0  0  0  0  0  0  0  0  0  0  0
    7.1718  -12.0080   24.5198 C   0  0  0  0  0  0  0  0  0  0  0  0
    6.6976  -10.9574   25.2729 C   0  0  0  0  0  0  0  0  0  0  0  0
    5.7005  -11.1348   26.1883 C   0  0  0  0  0  0  0  0  0  0  0  0
    5.1666  -12.3967   26.3513 C   0  0  0  0  0  0  0  0  0  0  0  0
    5.6437  -13.4537   25.5935 C   0  0  0  0  0  0  0  0  0  0  0  0
    9.0890  -15.9679   23.8964 C   0  0  0  0  0  0  0  0  0  0  0  0
    8.6772  -16.9734   23.2250 O   0  0  0  0  0  0  0  0  0  0  0  0
   13.2938  -18.4080   21.8157 N   0  0  0  0  0  0  0  0  0  0  0  0
   13.6137  -17.2290   22.5300 C   0  0  0  0  0  0  0  0  0  0  0  0
   14.8162  -17.0822   22.8937 O   0  0  0  0  0  0  0  0  0  0  0  0
   12.6165  -16.2127   22.8448 C   0  0  0  0  0  0  0  0  0  0  0  0
   11.4754  -16.7519   23.6929 C   0  0  2  0  0  0  0  0  0  0  0  0
   10.4872  -15.6999   23.8205 N   0  0  0  0  0  0  0  0  0  0  0  0
   11.9336  -17.2500   25.0024 C   0  0  0  0  0  0  0  0  0  0  0  0
   12.8871  -18.0948   25.0679 O   0  0  0  0  0  0  0  0  0  0  0  0
   12.0110  -14.8084   28.0398 C   0  0  0  0  0  0  0  0  0  0  0  0
   11.4684  -16.1569   28.5085 C   0  0  1  0  0  0  0  0  0  0  0  0
   10.0667  -16.0609   28.3576 O   0  0  0  0  0  0  0  0  0  0  0  0
   11.9052  -17.2345   27.5368 C   0  0  2  0  0  0  0  0  0  0  0  0
   11.3767  -16.8481   26.2386 N   0  0  0  0  0  0  0  0  0  0  0  0
   11.3135  -18.5235   27.9915 C   0  0  0  0  0  0  0  0  0  0  0  0
   10.4568  -19.0834   27.2602 O   0  0  0  0  0  0  0  0  0  0  0  0
   11.7007  -19.0872   29.1907 O   0  0  0  0  0  0  0  0  0  0  0  0
  2  1  1  6
  3  2  1  0
  4  5  2  0
  4  3  1  0
  6  5  1  0
  7  6  2  0
  8  7  1  0
  8  9  2  0
  9  4  1  0
 10  2  1  0
 11 10  2  0
 13 12  1  0
 14 13  2  0
 15 13  1  0
 16 15  1  1
 16 17  1  0
 17 10  1  0
 18 19  2  0
 18 16  1  0
 21 20  1  6
 21 23  1  0
 22 21  1  0
 23 24  1  6
 24 18  1  0
 25 23  1  0
 26 25  2  0
 27 25  1  0
M  END
$$$$
