FNT.pdb
     RDKit          3D

 27 27  0  0  1  0  0  0  0  0999 V2000
    6.1758  -17.4892   21.4057 N   0  0  0  0  0  0  0  0  0  0  0  0
    7.4917  -17.0719   21.8239 C   0  0  1  0  0  0  0  0  0  0  0  0
    7.4936  -15.7428   22.5048 C   0  0  0  0  0  0  0  0  0  0  0  0
    7.5350  -14.6789   21.4750 C   0  0  0  0  0  0  0  0  0  0  0  0
    8.7161  -14.1281   21.0358 C   0  0  0  0  0  0  0  0  0  0  0  0
    8.7116  -13.1405   20.0765 C   0  0  0  0  0  0  0  0  0  0  0  0
    7.5444  -12.6818   19.5370 C   0  0  0  0  0  0  0  0  0  0  0  0
    6.3537  -13.2278   19.9707 C   0  0  0  0  0  0  0  0  0  0  0  0
    6.3584  -14.2216   20.9359 C   0  0  0  0  0  0  0  0  0  0  0  0
    8.1433  -18.1502   22.5728 C   0  0  0  0  0  0  0  0  0  0  0  0
    7.5981  -18.6359   23.6209 O   0  0  0  0  0  0  0  0  0  0  0  0
   10.5008  -22.9279   23.7370 N   0  0  0  0  0  0  0  0  0  0  0  0
   11.1141  -21.9291   22.9439 C   0  0  0  0  0  0  0  0  0  0  0  0
   12.3773  -21.9365   22.8806 O   0  0  0  0  0  0  0  0  0  0  0  0
   10.3433  -20.9239   22.2217 C   0  0  0  0  0  0  0  0  0  0  0  0
   10.0994  -19.6680   23.0433 C   0  0  2  0  0  0  0  0  0  0  0  0
    9.3957  -18.7215   22.2015 N   0  0  0  0  0  0  0  0  0  0  0  0
   11.3450  -19.1058   23.5959 C   0  0  0  0  0  0  0  0  0  0  0  0
   12.0120  -19.7596   24.4647 O   0  0  0  0  0  0  0  0  0  0  0  0
   13.1594  -16.2779   21.4404 C   0  0  0  0  0  0  0  0  0  0  0  0
   13.3881  -16.0410   22.9318 C   0  0  1  0  0  0  0  0  0  0  0  0
   12.3390  -15.1833   23.3323 O   0  0  0  0  0  0  0  0  0  0  0  0
   13.1580  -17.3367   23.6830 C   0  0  2  0  0  0  0  0  0  0  0  0
   11.8779  -17.8501   23.2228 N   0  0  0  0  0  0  0  0  0  0  0  0
   13.1131  -17.0173   25.1370 C   0  0  0  0  0  0  0  0  0  0  0  0
   12.0198  -17.1408   25.7467 O   0  0  0  0  0  0  0  0  0  0  0  0
   14.2500  -16.5952   25.7966 O   0  0  0  0  0  0  0  0  0  0  0  0
  2  1  1  1
  3  2  1  0
  4  5  2  0
  4  3  1  0
  6  5  1  0
  7  6  2  0
  8  7  1  0
  8  9  2  0
  9  4  1  0
 10  2  1  0
 11 10  2  0
 13 12  1  0
 14 13  2  0
 15 13  1  0
 16 15  1  6
 16 17  1  0
 17 10  1  0
 18 19  2  0
 18 16  1  0
 21 20  1  6
 21 23  1  0
 22 21  1  0
 23 24  1  6
 24 18  1  0
 25 23  1  0
 26 25  2  0
 27 25  1  0
M  END
$$$$
