FNT.pdb
     RDKit          3D

 27 27  0  0  1  0  0  0  0  0999 V2000
    8.1783  -17.0550   21.1129 N   0  0  0  0  0  0  0  0  0  0  0  0
    8.3632  -16.0741   22.1542 C   0  0  1  0  0  0  0  0  0  0  0  0
    7.2176  -15.1232   22.2705 C   0  0  0  0  0  0  0  0  0  0  0  0
    7.3510  -14.0847   21.2228 C   0  0  0  0  0  0  0  0  0  0  0  0
    8.0952  -12.9436   21.4110 C   0  0  0  0  0  0  0  0  0  0  0  0
    8.1939  -12.0018   20.4114 C   0  0  0  0  0  0  0  0  0  0  0  0
    7.5611  -12.1707   19.2136 C   0  0  0  0  0  0  0  0  0  0  0  0
    6.8119  -13.3122   19.0144 C   0  0  0  0  0  0  0  0  0  0  0  0
    6.7127  -14.2597   20.0202 C   0  0  0  0  0  0  0  0  0  0  0  0
    8.7438  -16.7381   23.4042 C   0  0  0  0  0  0  0  0  0  0  0  0
    8.4256  -17.9568   23.6164 O   0  0  0  0  0  0  0  0  0  0  0  0
   14.1313  -16.9182   24.2108 N   0  0  0  0  0  0  0  0  0  0  0  0
   12.8867  -17.5631   24.4048 C   0  0  0  0  0  0  0  0  0  0  0  0
   12.8976  -18.6657   25.0244 O   0  0  0  0  0  0  0  0  0  0  0  0
   11.6321  -16.9996   23.9200 C   0  0  0  0  0  0  0  0  0  0  0  0
   10.6574  -16.6824   25.0431 C   0  0  2  0  0  0  0  0  0  0  0  0
    9.4746  -16.0957   24.4462 N   0  0  0  0  0  0  0  0  0  0  0  0
   11.2515  -15.8143   26.0758 C   0  0  0  0  0  0  0  0  0  0  0  0
   12.3018  -16.1854   26.6972 O   0  0  0  0  0  0  0  0  0  0  0  0
    8.5745  -13.0858   26.3702 C   0  0  0  0  0  0  0  0  0  0  0  0
    8.7959  -13.8840   27.6533 C   0  0  1  0  0  0  0  0  0  0  0  0
    8.1467  -15.1197   27.4334 O   0  0  0  0  0  0  0  0  0  0  0  0
   10.2678  -14.2200   27.7831 C   0  0  2  0  0  0  0  0  0  0  0  0
   10.7269  -14.5538   26.4446 N   0  0  0  0  0  0  0  0  0  0  0  0
   10.3880  -15.3907   28.6958 C   0  0  0  0  0  0  0  0  0  0  0  0
   10.2035  -15.2148   29.9276 O   0  0  0  0  0  0  0  0  0  0  0  0
   10.6954  -16.6400   28.1953 O   0  0  0  0  0  0  0  0  0  0  0  0
  2  1  1  6
  3  2  1  0
  4  5  2  0
  4  3  1  0
  6  5  1  0
  7  6  2  0
  8  7  1  0
  8  9  2  0
  9  4  1  0
 10  2  1  0
 11 10  2  0
 13 12  1  0
 14 13  2  0
 15 13  1  0
 16 15  1  6
 16 17  1  0
 17 10  1  0
 18 19  2  0
 18 16  1  0
 21 20  1  6
 21 23  1  0
 22 21  1  0
 23 24  1  6
 24 18  1  0
 25 23  1  0
 26 25  2  0
 27 25  1  0
M  END
$$$$
