FNT.pdb
     RDKit          3D

 27 27  0  0  1  0  0  0  0  0999 V2000
    6.3941  -16.0049   23.4375 N   0  0  0  0  0  0  0  0  0  0  0  0
    7.7683  -15.7093   23.7615 C   0  0  1  0  0  0  0  0  0  0  0  0
    7.9351  -15.1373   25.1308 C   0  0  0  0  0  0  0  0  0  0  0  0
    7.1668  -13.8738   25.2173 C   0  0  0  0  0  0  0  0  0  0  0  0
    5.9637  -13.7901   25.8782 C   0  0  0  0  0  0  0  0  0  0  0  0
    5.2803  -12.5963   25.9355 C   0  0  0  0  0  0  0  0  0  0  0  0
    5.7721  -11.4691   25.3427 C   0  0  0  0  0  0  0  0  0  0  0  0
    6.9785  -11.5421   24.6770 C   0  0  0  0  0  0  0  0  0  0  0  0
    7.6660  -12.7435   24.6195 C   0  0  0  0  0  0  0  0  0  0  0  0
    8.6114  -16.8727   23.4714 C   0  0  0  0  0  0  0  0  0  0  0  0
    8.4659  -17.5264   22.3837 O   0  0  0  0  0  0  0  0  0  0  0  0
   12.5698  -15.9812   21.1016 N   0  0  0  0  0  0  0  0  0  0  0  0
   11.4684  -16.4613   21.8494 C   0  0  0  0  0  0  0  0  0  0  0  0
   10.8067  -17.4186   21.3537 O   0  0  0  0  0  0  0  0  0  0  0  0
   11.0932  -15.8925   23.1386 C   0  0  0  0  0  0  0  0  0  0  0  0
   11.0105  -16.9372   24.2402 C   0  0  2  0  0  0  0  0  0  0  0  0
    9.6259  -17.3492   24.3525 N   0  0  0  0  0  0  0  0  0  0  0  0
   11.5539  -16.4495   25.5208 C   0  0  0  0  0  0  0  0  0  0  0  0
   12.7362  -15.9737   25.5746 O   0  0  0  0  0  0  0  0  0  0  0  0
   10.3006  -13.9423   28.0276 C   0  0  0  0  0  0  0  0  0  0  0  0
   10.4114  -15.2821   28.7523 C   0  0  1  0  0  0  0  0  0  0  0  0
    9.1623  -15.9117   28.5526 O   0  0  0  0  0  0  0  0  0  0  0  0
   11.4215  -16.1544   28.0347 C   0  0  2  0  0  0  0  0  0  0  0  0
   10.8384  -16.4689   26.7404 N   0  0  0  0  0  0  0  0  0  0  0  0
   11.6148  -17.3880   28.8466 C   0  0  0  0  0  0  0  0  0  0  0  0
   11.2645  -18.4921   28.3563 O   0  0  0  0  0  0  0  0  0  0  0  0
   12.1672  -17.3154   30.1097 O   0  0  0  0  0  0  0  0  0  0  0  0
  2  1  1  1
  3  2  1  0
  4  5  2  0
  4  3  1  0
  6  5  1  0
  7  6  2  0
  8  7  1  0
  8  9  2  0
  9  4  1  0
 10  2  1  0
 11 10  2  0
 13 12  1  0
 14 13  2  0
 15 13  1  0
 16 15  1  6
 16 17  1  0
 17 10  1  0
 18 19  2  0
 18 16  1  0
 21 20  1  6
 21 23  1  0
 22 21  1  0
 23 24  1  6
 24 18  1  0
 25 23  1  0
 26 25  2  0
 27 25  1  0
M  END
$$$$
