FNT.pdb
     RDKit          3D

 27 27  0  0  1  0  0  0  0  0999 V2000
    8.6508  -16.7055   21.3182 N   0  0  0  0  0  0  0  0  0  0  0  0
    9.0438  -15.7478   22.3227 C   0  0  1  0  0  0  0  0  0  0  0  0
    7.9415  -14.8148   22.7027 C   0  0  0  0  0  0  0  0  0  0  0  0
    7.6326  -13.9441   21.5448 C   0  0  0  0  0  0  0  0  0  0  0  0
    6.5601  -14.1776   20.7163 C   0  0  0  0  0  0  0  0  0  0  0  0
    6.3074  -13.3441   19.6500 C   0  0  0  0  0  0  0  0  0  0  0  0
    7.1072  -12.2699   19.3849 C   0  0  0  0  0  0  0  0  0  0  0  0
    8.1859  -12.0266   20.2101 C   0  0  0  0  0  0  0  0  0  0  0  0
    8.4401  -12.8653   21.2831 C   0  0  0  0  0  0  0  0  0  0  0  0
    9.6843  -16.4369   23.4466 C   0  0  0  0  0  0  0  0  0  0  0  0
    8.9940  -16.8322   24.4460 O   0  0  0  0  0  0  0  0  0  0  0  0
   12.6405  -19.9255   23.1092 N   0  0  0  0  0  0  0  0  0  0  0  0
   13.0968  -18.5861   23.0880 C   0  0  0  0  0  0  0  0  0  0  0  0
   13.5069  -18.1328   21.9808 O   0  0  0  0  0  0  0  0  0  0  0  0
   13.1032  -17.7452   24.2794 C   0  0  0  0  0  0  0  0  0  0  0  0
   11.7110  -17.2849   24.6814 C   0  0  2  0  0  0  0  0  0  0  0  0
   11.0822  -16.7102   23.5093 N   0  0  0  0  0  0  0  0  0  0  0  0
   11.7343  -16.3479   25.8192 C   0  0  0  0  0  0  0  0  0  0  0  0
   12.5716  -15.3860   25.8390 O   0  0  0  0  0  0  0  0  0  0  0  0
   10.0213  -13.6711   27.1884 C   0  0  0  0  0  0  0  0  0  0  0  0
    9.8848  -14.7391   28.2717 C   0  0  1  0  0  0  0  0  0  0  0  0
    8.7463  -15.4911   27.9042 O   0  0  0  0  0  0  0  0  0  0  0  0
   11.0517  -15.7007   28.1728 C   0  0  2  0  0  0  0  0  0  0  0  0
   10.8667  -16.4364   26.9325 N   0  0  0  0  0  0  0  0  0  0  0  0
   10.9898  -16.6129   29.3485 C   0  0  0  0  0  0  0  0  0  0  0  0
   11.2302  -16.1411   30.4895 O   0  0  0  0  0  0  0  0  0  0  0  0
   10.6747  -17.9468   29.1839 O   0  0  0  0  0  0  0  0  0  0  0  0
  2  1  1  6
  3  2  1  0
  4  5  2  0
  4  3  1  0
  6  5  1  0
  7  6  2  0
  8  7  1  0
  8  9  2  0
  9  4  1  0
 10  2  1  0
 11 10  2  0
 13 12  1  0
 14 13  2  0
 15 13  1  0
 16 15  1  6
 16 17  1  0
 17 10  1  0
 18 19  2  0
 18 16  1  0
 21 20  1  6
 21 23  1  0
 22 21  1  0
 23 24  1  6
 24 18  1  0
 25 23  1  0
 26 25  2  0
 27 25  1  0
M  END
$$$$
