FNT.pdb
     RDKit          3D

 27 27  0  0  1  0  0  0  0  0999 V2000
    7.1019  -17.5156   26.1017 N   0  0  0  0  0  0  0  0  0  0  0  0
    6.5863  -16.9050   24.9009 C   0  0  1  0  0  0  0  0  0  0  0  0
    5.8311  -15.6441   25.1652 C   0  0  0  0  0  0  0  0  0  0  0  0
    6.6733  -14.7472   25.9901 C   0  0  0  0  0  0  0  0  0  0  0  0
    7.3586  -15.1950   27.0952 C   0  0  0  0  0  0  0  0  0  0  0  0
    8.1310  -14.3287   27.8358 C   0  0  0  0  0  0  0  0  0  0  0  0
    8.2387  -13.0102   27.4988 C   0  0  0  0  0  0  0  0  0  0  0  0
    7.5551  -12.5506   26.3918 C   0  0  0  0  0  0  0  0  0  0  0  0
    6.7781  -13.4224   25.6465 C   0  0  0  0  0  0  0  0  0  0  0  0
    7.6526  -16.7883   23.9021 C   0  0  0  0  0  0  0  0  0  0  0  0
    8.5452  -17.6956   23.7945 O   0  0  0  0  0  0  0  0  0  0  0  0
    6.1854  -13.7646   20.2969 N   0  0  0  0  0  0  0  0  0  0  0  0
    7.2412  -14.7064   20.3276 C   0  0  0  0  0  0  0  0  0  0  0  0
    7.0744  -15.7825   19.6842 O   0  0  0  0  0  0  0  0  0  0  0  0
    8.4777  -14.4685   21.0630 C   0  0  0  0  0  0  0  0  0  0  0  0
    8.8255  -15.6050   22.0113 C   0  0  2  0  0  0  0  0  0  0  0  0
    7.7722  -15.6885   23.0028 N   0  0  0  0  0  0  0  0  0  0  0  0
   10.1567  -15.4409   22.6228 C   0  0  0  0  0  0  0  0  0  0  0  0
   10.3086  -14.6708   23.6282 O   0  0  0  0  0  0  0  0  0  0  0  0
   11.2724  -16.0679   25.0298 C   0  0  0  0  0  0  0  0  0  0  0  0
   12.2338  -16.9143   24.1980 C   0  0  1  0  0  0  0  0  0  0  0  0
   11.4801  -18.0414   23.8000 O   0  0  0  0  0  0  0  0  0  0  0  0
   12.5642  -16.1776   22.9157 C   0  0  2  0  0  0  0  0  0  0  0  0
   11.3226  -16.0965   22.1635 N   0  0  0  0  0  0  0  0  0  0  0  0
   13.5819  -16.9788   22.1805 C   0  0  0  0  0  0  0  0  0  0  0  0
   13.2308  -17.5843   21.1354 O   0  0  0  0  0  0  0  0  0  0  0  0
   14.8814  -17.0518   22.6406 O   0  0  0  0  0  0  0  0  0  0  0  0
  2  1  1  1
  3  2  1  0
  4  5  2  0
  4  3  1  0
  6  5  1  0
  7  6  2  0
  8  7  1  0
  8  9  2  0
  9  4  1  0
 10  2  1  0
 11 10  2  0
 13 12  1  0
 14 13  2  0
 15 13  1  0
 16 15  1  6
 16 17  1  0
 17 10  1  0
 18 19  2  0
 18 16  1  0
 21 20  1  1
 21 23  1  0
 22 21  1  0
 23 24  1  6
 24 18  1  0
 25 23  1  0
 26 25  2  0
 27 25  1  0
M  END
$$$$
