FNT.pdb
     RDKit          3D

 27 27  0  0  1  0  0  0  0  0999 V2000
    7.6798  -16.1531   21.0316 N   0  0  0  0  0  0  0  0  0  0  0  0
    7.8318  -15.4103   22.2587 C   0  0  1  0  0  0  0  0  0  0  0  0
    6.5342  -14.9094   22.8023 C   0  0  0  0  0  0  0  0  0  0  0  0
    6.8133  -13.9422   23.8889 C   0  0  0  0  0  0  0  0  0  0  0  0
    7.3969  -12.7198   23.6515 C   0  0  0  0  0  0  0  0  0  0  0  0
    7.6398  -11.8488   24.6898 C   0  0  0  0  0  0  0  0  0  0  0  0
    7.3118  -12.1698   25.9755 C   0  0  0  0  0  0  0  0  0  0  0  0
    6.7257  -13.3939   26.2247 C   0  0  0  0  0  0  0  0  0  0  0  0
    6.4812  -14.2701   25.1798 C   0  0  0  0  0  0  0  0  0  0  0  0
    8.6449  -16.1753   23.2084 C   0  0  0  0  0  0  0  0  0  0  0  0
    8.1481  -17.1709   23.8356 O   0  0  0  0  0  0  0  0  0  0  0  0
   11.9692  -17.2308   20.9600 N   0  0  0  0  0  0  0  0  0  0  0  0
   11.7072  -17.7962   22.2306 C   0  0  0  0  0  0  0  0  0  0  0  0
   11.1467  -18.9297   22.2541 O   0  0  0  0  0  0  0  0  0  0  0  0
   12.0593  -17.1193   23.4733 C   0  0  0  0  0  0  0  0  0  0  0  0
   10.8419  -16.7448   24.3038 C   0  0  2  0  0  0  0  0  0  0  0  0
   10.0089  -15.8766   23.4964 N   0  0  0  0  0  0  0  0  0  0  0  0
   11.2071  -16.1287   25.5922 C   0  0  0  0  0  0  0  0  0  0  0  0
   12.0844  -15.2037   25.6336 O   0  0  0  0  0  0  0  0  0  0  0  0
   10.2292  -14.0259   28.2948 C   0  0  0  0  0  0  0  0  0  0  0  0
   10.3063  -15.4168   28.9211 C   0  0  1  0  0  0  0  0  0  0  0  0
    9.0320  -15.9878   28.7048 O   0  0  0  0  0  0  0  0  0  0  0  0
   11.2707  -16.2699   28.1222 C   0  0  2  0  0  0  0  0  0  0  0  0
   10.6380  -16.4980   26.8331 N   0  0  0  0  0  0  0  0  0  0  0  0
   11.4605  -17.5511   28.8574 C   0  0  0  0  0  0  0  0  0  0  0  0
   11.0972  -18.6213   28.3051 O   0  0  0  0  0  0  0  0  0  0  0  0
   12.0235  -17.5583   30.1178 O   0  0  0  0  0  0  0  0  0  0  0  0
  2  1  1  6
  3  2  1  0
  4  5  2  0
  4  3  1  0
  6  5  1  0
  7  6  2  0
  8  7  1  0
  8  9  2  0
  9  4  1  0
 10  2  1  0
 11 10  2  0
 13 12  1  0
 14 13  2  0
 15 13  1  0
 16 15  1  6
 16 17  1  0
 17 10  1  0
 18 19  2  0
 18 16  1  0
 21 20  1  6
 21 23  1  0
 22 21  1  0
 23 24  1  6
 24 18  1  0
 25 23  1  0
 26 25  2  0
 27 25  1  0
M  END
$$$$
