FNT.pdb
     RDKit          3D

 27 27  0  0  1  0  0  0  0  0999 V2000
    7.4342  -17.9087   18.9065 N   0  0  0  0  0  0  0  0  0  0  0  0
    7.7662  -16.7721   19.7302 C   0  0  1  0  0  0  0  0  0  0  0  0
    6.5843  -15.9163   20.0477 C   0  0  0  0  0  0  0  0  0  0  0  0
    7.0429  -14.7343   20.8137 C   0  0  0  0  0  0  0  0  0  0  0  0
    6.9607  -14.6714   22.1851 C   0  0  0  0  0  0  0  0  0  0  0  0
    7.3980  -13.5538   22.8599 C   0  0  0  0  0  0  0  0  0  0  0  0
    7.9217  -12.4834   22.1939 C   0  0  0  0  0  0  0  0  0  0  0  0
    8.0087  -12.5363   20.8178 C   0  0  0  0  0  0  0  0  0  0  0  0
    7.5687  -13.6609   20.1389 C   0  0  0  0  0  0  0  0  0  0  0  0
    8.5431  -17.2084   20.8940 C   0  0  0  0  0  0  0  0  0  0  0  0
    8.1307  -18.1686   21.6285 O   0  0  0  0  0  0  0  0  0  0  0  0
   12.6145  -18.6464   20.6856 N   0  0  0  0  0  0  0  0  0  0  0  0
   12.5564  -17.2535   20.9291 C   0  0  0  0  0  0  0  0  0  0  0  0
   13.0040  -16.4899   20.0257 O   0  0  0  0  0  0  0  0  0  0  0  0
   12.0084  -16.6992   22.1615 C   0  0  0  0  0  0  0  0  0  0  0  0
   10.5629  -17.1073   22.3977 C   0  0  2  0  0  0  0  0  0  0  0  0
    9.7789  -16.6137   21.2836 N   0  0  0  0  0  0  0  0  0  0  0  0
   10.0490  -16.6340   23.6958 C   0  0  0  0  0  0  0  0  0  0  0  0
   10.3154  -15.4530   24.0974 O   0  0  0  0  0  0  0  0  0  0  0  0
    6.9422  -15.7301   25.1623 C   0  0  0  0  0  0  0  0  0  0  0  0
    7.3959  -16.9472   25.9657 C   0  0  1  0  0  0  0  0  0  0  0  0
    6.9327  -18.0636   25.2337 O   0  0  0  0  0  0  0  0  0  0  0  0
    8.9079  -17.0368   25.9229 C   0  0  2  0  0  0  0  0  0  0  0  0
    9.2530  -17.4179   24.5629 N   0  0  0  0  0  0  0  0  0  0  0  0
    9.3288  -18.0849   26.8937 C   0  0  0  0  0  0  0  0  0  0  0  0
    9.9414  -19.0948   26.4609 O   0  0  0  0  0  0  0  0  0  0  0  0
    9.0502  -17.9461   28.2386 O   0  0  0  0  0  0  0  0  0  0  0  0
  2  1  1  1
  3  2  1  0
  4  5  2  0
  4  3  1  0
  6  5  1  0
  7  6  2  0
  8  7  1  0
  8  9  2  0
  9  4  1  0
 10  2  1  0
 11 10  2  0
 13 12  1  0
 14 13  2  0
 15 13  1  0
 16 15  1  6
 16 17  1  0
 17 10  1  0
 18 19  2  0
 18 16  1  0
 21 20  1  6
 21 23  1  0
 22 21  1  0
 23 24  1  6
 24 18  1  0
 25 23  1  0
 26 25  2  0
 27 25  1  0
M  END
$$$$
