FNT.pdb
     RDKit          3D

 27 27  0  0  1  0  0  0  0  0999 V2000
    6.5257  -13.5248   23.7958 N   0  0  0  0  0  0  0  0  0  0  0  0
    7.1509  -14.7775   23.4488 C   0  0  1  0  0  0  0  0  0  0  0  0
    8.3643  -14.6075   22.5950 C   0  0  0  0  0  0  0  0  0  0  0  0
    7.9494  -14.0763   21.2760 C   0  0  0  0  0  0  0  0  0  0  0  0
    8.8447  -13.8725   20.2522 C   0  0  0  0  0  0  0  0  0  0  0  0
    8.4185  -13.3766   19.0406 C   0  0  0  0  0  0  0  0  0  0  0  0
    7.1054  -13.0746   18.8208 C   0  0  0  0  0  0  0  0  0  0  0  0
    6.1988  -13.2754   19.8414 C   0  0  0  0  0  0  0  0  0  0  0  0
    6.6278  -13.7744   21.0605 C   0  0  0  0  0  0  0  0  0  0  0  0
    7.3527  -15.5862   24.6545 C   0  0  0  0  0  0  0  0  0  0  0  0
    7.6723  -15.0349   25.7615 O   0  0  0  0  0  0  0  0  0  0  0  0
    7.9072  -20.8762   24.5720 N   0  0  0  0  0  0  0  0  0  0  0  0
    6.9821  -19.8062   24.5273 C   0  0  0  0  0  0  0  0  0  0  0  0
    6.5056  -19.5012   23.3961 O   0  0  0  0  0  0  0  0  0  0  0  0
    6.5805  -19.0718   25.7213 C   0  0  0  0  0  0  0  0  0  0  0  0
    7.3547  -17.7757   25.9023 C   0  0  2  0  0  0  0  0  0  0  0  0
    7.2124  -17.0047   24.6838 N   0  0  0  0  0  0  0  0  0  0  0  0
    8.7670  -18.0078   26.2550 C   0  0  0  0  0  0  0  0  0  0  0  0
    9.6612  -18.0134   25.3454 O   0  0  0  0  0  0  0  0  0  0  0  0
   10.6832  -15.9660   27.1229 C   0  0  0  0  0  0  0  0  0  0  0  0
   11.0445  -16.8854   28.2878 C   0  0  1  0  0  0  0  0  0  0  0  0
   10.1986  -16.4856   29.3467 O   0  0  0  0  0  0  0  0  0  0  0  0
   10.6267  -18.3027   27.9518 C   0  0  2  0  0  0  0  0  0  0  0  0
    9.2244  -18.2332   27.5741 N   0  0  0  0  0  0  0  0  0  0  0  0
   10.8092  -19.1324   29.1750 C   0  0  0  0  0  0  0  0  0  0  0  0
    9.7867  -19.5456   29.7799 O   0  0  0  0  0  0  0  0  0  0  0  0
   12.0758  -19.4386   29.6308 O   0  0  0  0  0  0  0  0  0  0  0  0
  2  1  1  1
  3  2  1  0
  4  5  2  0
  4  3  1  0
  6  5  1  0
  7  6  2  0
  8  7  1  0
  8  9  2  0
  9  4  1  0
 10  2  1  0
 11 10  2  0
 13 12  1  0
 14 13  2  0
 15 13  1  0
 16 15  1  6
 16 17  1  0
 17 10  1  0
 18 19  2  0
 18 16  1  0
 21 20  1  6
 21 23  1  0
 22 21  1  0
 23 24  1  1
 24 18  1  0
 25 23  1  0
 26 25  2  0
 27 25  1  0
M  END
$$$$
