FNT.pdb
     RDKit          3D

 27 27  0  0  1  0  0  0  0  0999 V2000
    8.3890  -16.8167   16.3654 N   0  0  0  0  0  0  0  0  0  0  0  0
    8.5862  -15.7305   17.2937 C   0  0  1  0  0  0  0  0  0  0  0  0
    7.3257  -15.3076   17.9737 C   0  0  0  0  0  0  0  0  0  0  0  0
    7.6634  -14.3521   19.0540 C   0  0  0  0  0  0  0  0  0  0  0  0
    7.4302  -14.6313   20.3802 C   0  0  0  0  0  0  0  0  0  0  0  0
    7.7586  -13.7156   21.3545 C   0  0  0  0  0  0  0  0  0  0  0  0
    8.3207  -12.5129   21.0362 C   0  0  0  0  0  0  0  0  0  0  0  0
    8.5590  -12.2229   19.7084 C   0  0  0  0  0  0  0  0  0  0  0  0
    8.2285  -13.1444   18.7282 C   0  0  0  0  0  0  0  0  0  0  0  0
    9.7002  -16.0393   18.1948 C   0  0  0  0  0  0  0  0  0  0  0  0
    9.7552  -17.1630   18.7997 O   0  0  0  0  0  0  0  0  0  0  0  0
   15.0849  -16.2992   19.1201 N   0  0  0  0  0  0  0  0  0  0  0  0
   14.3613  -15.1195   19.4161 C   0  0  0  0  0  0  0  0  0  0  0  0
   14.8287  -14.3661   20.3181 O   0  0  0  0  0  0  0  0  0  0  0  0
   13.1272  -14.7670   18.7240 C   0  0  0  0  0  0  0  0  0  0  0  0
   11.9153  -15.5045   19.2710 C   0  0  2  0  0  0  0  0  0  0  0  0
   10.7735  -15.1384   18.4574 N   0  0  0  0  0  0  0  0  0  0  0  0
   11.6908  -15.2346   20.7027 C   0  0  0  0  0  0  0  0  0  0  0  0
   11.7366  -14.0385   21.1434 O   0  0  0  0  0  0  0  0  0  0  0  0
    8.9496  -15.3731   22.9871 C   0  0  0  0  0  0  0  0  0  0  0  0
    9.9479  -16.3990   23.5197 C   0  0  1  0  0  0  0  0  0  0  0  0
    9.6648  -17.5884   22.8113 O   0  0  0  0  0  0  0  0  0  0  0  0
   11.3466  -16.0002   23.0943 C   0  0  2  0  0  0  0  0  0  0  0  0
   11.4177  -16.2375   21.6616 N   0  0  0  0  0  0  0  0  0  0  0  0
   12.3095  -16.8683   23.8273 C   0  0  0  0  0  0  0  0  0  0  0  0
   12.9339  -17.7509   23.1843 O   0  0  0  0  0  0  0  0  0  0  0  0
   12.5085  -16.7037   25.1834 O   0  0  0  0  0  0  0  0  0  0  0  0
  2  1  1  1
  3  2  1  0
  4  5  2  0
  4  3  1  0
  6  5  1  0
  7  6  2  0
  8  7  1  0
  8  9  2  0
  9  4  1  0
 10  2  1  0
 11 10  2  0
 13 12  1  0
 14 13  2  0
 15 13  1  0
 16 15  1  6
 16 17  1  0
 17 10  1  0
 18 19  2  0
 18 16  1  0
 21 20  1  6
 21 23  1  0
 22 21  1  0
 23 24  1  6
 24 18  1  0
 25 23  1  0
 26 25  2  0
 27 25  1  0
M  END
$$$$
