FNT.pdb
     RDKit          3D

 27 27  0  0  1  0  0  0  0  0999 V2000
    7.4926  -16.9857   21.3090 N   0  0  0  0  0  0  0  0  0  0  0  0
    8.6069  -16.5480   22.1136 C   0  0  1  0  0  0  0  0  0  0  0  0
    8.4057  -15.1893   22.6996 C   0  0  0  0  0  0  0  0  0  0  0  0
    8.0404  -14.2504   21.6137 C   0  0  0  0  0  0  0  0  0  0  0  0
    8.2952  -14.5240   20.2902 C   0  0  0  0  0  0  0  0  0  0  0  0
    7.9398  -13.6243   19.3105 C   0  0  0  0  0  0  0  0  0  0  0  0
    7.3292  -12.4433   19.6206 C   0  0  0  0  0  0  0  0  0  0  0  0
    7.0690  -12.1590   20.9455 C   0  0  0  0  0  0  0  0  0  0  0  0
    7.4265  -13.0644   21.9312 C   0  0  0  0  0  0  0  0  0  0  0  0
    8.9655  -17.5902   23.0798 C   0  0  0  0  0  0  0  0  0  0  0  0
    8.7434  -18.8212   22.8212 O   0  0  0  0  0  0  0  0  0  0  0  0
   13.8530  -17.6627   23.1680 N   0  0  0  0  0  0  0  0  0  0  0  0
   13.0361  -16.5126   23.2807 C   0  0  0  0  0  0  0  0  0  0  0  0
   13.6213  -15.3979   23.4020 O   0  0  0  0  0  0  0  0  0  0  0  0
   11.5798  -16.5851   23.2604 C   0  0  0  0  0  0  0  0  0  0  0  0
   11.0058  -17.2268   24.5137 C   0  0  2  0  0  0  0  0  0  0  0  0
    9.5700  -17.3192   24.3423 N   0  0  0  0  0  0  0  0  0  0  0  0
   11.3764  -16.4975   25.7400 C   0  0  0  0  0  0  0  0  0  0  0  0
   12.5403  -16.6396   26.2421 O   0  0  0  0  0  0  0  0  0  0  0  0
    9.7666  -12.9760   27.1495 C   0  0  0  0  0  0  0  0  0  0  0  0
    9.6134  -14.1728   28.0859 C   0  0  1  0  0  0  0  0  0  0  0  0
    8.4153  -14.8038   27.6820 O   0  0  0  0  0  0  0  0  0  0  0  0
   10.7131  -15.1746   27.7978 C   0  0  2  0  0  0  0  0  0  0  0  0
   10.5081  -15.6189   26.4287 N   0  0  0  0  0  0  0  0  0  0  0  0
   10.5595  -16.3058   28.7544 C   0  0  0  0  0  0  0  0  0  0  0  0
   10.7981  -16.1005   29.9722 O   0  0  0  0  0  0  0  0  0  0  0  0
   10.1635  -17.5508   28.3086 O   0  0  0  0  0  0  0  0  0  0  0  0
  2  1  1  1
  3  2  1  0
  4  5  2  0
  4  3  1  0
  6  5  1  0
  7  6  2  0
  8  7  1  0
  8  9  2  0
  9  4  1  0
 10  2  1  0
 11 10  2  0
 13 12  1  0
 14 13  2  0
 15 13  1  0
 16 15  1  6
 16 17  1  0
 17 10  1  0
 18 19  2  0
 18 16  1  0
 21 20  1  6
 21 23  1  0
 22 21  1  0
 23 24  1  6
 24 18  1  0
 25 23  1  0
 26 25  2  0
 27 25  1  0
M  END
$$$$
