FSY.pdb
     RDKit          3D

 30 31  0  0  1  0  0  0  0  0999 V2000
   -6.4285  -23.9596   23.9867 N   0  0  0  0  0  0  0  0  0  0  0  0
   -6.6909  -23.6228   25.3733 C   0  0  1  0  0  0  0  0  0  0  0  0
   -7.2566  -22.2267   25.3672 C   0  0  0  0  0  0  0  0  0  0  0  0
   -6.3276  -21.1846   24.9297 C   0  0  0  0  0  0  0  0  0  0  0  0
   -6.2296  -20.7140   23.6462 C   0  0  0  0  0  0  0  0  0  0  0  0
   -5.3310  -19.7257   23.3159 C   0  0  0  0  0  0  0  0  0  0  0  0
   -4.4963  -19.1725   24.2640 C   0  0  0  0  0  0  0  0  0  0  0  0
   -4.5835  -19.6349   25.5556 C   0  0  0  0  0  0  0  0  0  0  0  0
   -5.4861  -20.6235   25.8734 C   0  0  0  0  0  0  0  0  0  0  0  0
   -7.6022  -24.6146   25.9906 C   0  0  0  0  0  0  0  0  0  0  0  0
   -8.2899  -25.3378   25.1975 O   0  0  0  0  0  0  0  0  0  0  0  0
   -6.7593  -27.1933   27.6888 O   0  0  0  0  0  0  0  0  0  0  0  0
   -8.1481  -27.0785   27.4905 C   0  0  0  0  0  0  0  0  0  0  0  0
   -8.5623  -25.7244   28.0026 C   0  0  2  0  0  0  0  0  0  0  0  0
   -7.6928  -24.7401   27.3872 N   0  0  0  0  0  0  0  0  0  0  0  0
   -8.5537  -25.6321   29.4749 C   0  0  0  0  0  0  0  0  0  0  0  0
   -7.4912  -25.9406   30.0742 O   0  0  0  0  0  0  0  0  0  0  0  0
   -4.8117  -21.0834   30.1599 O   0  0  0  0  0  0  0  0  0  0  0  0
   -5.9459  -21.7096   30.6707 C   0  0  0  0  0  0  0  0  0  0  0  0
   -5.9450  -22.4027   31.8500 C   0  0  0  0  0  0  0  0  0  0  0  0
   -7.0992  -22.9941   32.2918 C   0  0  0  0  0  0  0  0  0  0  0  0
   -8.2941  -22.9244   31.5893 C   0  0  0  0  0  0  0  0  0  0  0  0
   -9.5524  -23.5512   32.0379 C   0  0  0  0  0  0  0  0  0  0  0  0
   -9.5648  -24.9983   31.7178 C   0  0  2  0  0  0  0  0  0  0  0  0
   -9.6474  -25.2237   30.2637 N   0  0  0  0  0  0  0  0  0  0  0  0
  -10.5969  -25.7343   32.4289 C   0  0  0  0  0  0  0  0  0  0  0  0
  -11.4709  -26.3842   31.7537 O   0  0  0  0  0  0  0  0  0  0  0  0
   -8.2498  -22.2060   30.3892 C   0  0  0  0  0  0  0  0  0  0  0  0
   -7.0998  -21.6081   29.9341 C   0  0  0  0  0  0  0  0  0  0  0  0
  -10.6880  -25.7753   33.8041 O   0  0  0  0  0  0  0  0  0  0  0  0
  2  1  1  6
  2  3  1  0
  3  4  1  0
  4  9  1  0
  4  5  2  0
  5  6  1  0
  6  7  2  0
  8  7  1  0
  9  8  2  0
 10 11  2  0
 10  2  1  0
 13 12  1  0
 14 13  1  1
 14 15  1  0
 15 10  1  0
 16 17  2  0
 16 14  1  0
 18 19  1  0
 19 29  2  0
 19 20  1  0
 20 21  2  0
 21 22  1  0
 22 23  1  0
 24 23  1  6
 24 25  1  0
 24 26  1  0
 25 16  1  0
 26 30  1  0
 27 26  2  0
 28 22  2  0
 29 28  1  0
M  END
$$$$
