FSY.pdb
     RDKit          3D

 30 31  0  0  1  0  0  0  0  0999 V2000
    5.8669  -18.4055   24.4052 N   0  0  0  0  0  0  0  0  0  0  0  0
    6.6390  -17.1806   24.3131 C   0  0  1  0  0  0  0  0  0  0  0  0
    6.4269  -16.4511   25.6138 C   0  0  0  0  0  0  0  0  0  0  0  0
    6.9742  -15.0951   25.6591 C   0  0  0  0  0  0  0  0  0  0  0  0
    7.4302  -14.4742   26.7927 C   0  0  0  0  0  0  0  0  0  0  0  0
    7.9364  -13.1954   26.7505 C   0  0  0  0  0  0  0  0  0  0  0  0
    8.0037  -12.4918   25.5664 C   0  0  0  0  0  0  0  0  0  0  0  0
    7.5499  -13.1022   24.4213 C   0  0  0  0  0  0  0  0  0  0  0  0
    7.0459  -14.3812   24.4764 C   0  0  0  0  0  0  0  0  0  0  0  0
    8.0647  -17.4784   24.0414 C   0  0  0  0  0  0  0  0  0  0  0  0
    8.5741  -18.4708   24.6582 O   0  0  0  0  0  0  0  0  0  0  0  0
    9.8692  -15.6367   20.9445 O   0  0  0  0  0  0  0  0  0  0  0  0
   10.3313  -16.9115   21.3219 C   0  0  0  0  0  0  0  0  0  0  0  0
   10.1832  -17.0163   22.8167 C   0  0  2  0  0  0  0  0  0  0  0  0
    8.8073  -16.6938   23.1429 N   0  0  0  0  0  0  0  0  0  0  0  0
   11.1428  -16.1746   23.5565 C   0  0  0  0  0  0  0  0  0  0  0  0
   11.1754  -14.9467   23.2837 O   0  0  0  0  0  0  0  0  0  0  0  0
    8.2019  -14.0523   28.8375 O   0  0  0  0  0  0  0  0  0  0  0  0
    9.3710  -14.5697   28.2855 C   0  0  0  0  0  0  0  0  0  0  0  0
    9.4592  -15.8410   27.7883 C   0  0  0  0  0  0  0  0  0  0  0  0
   10.6431  -16.2835   27.2594 C   0  0  0  0  0  0  0  0  0  0  0  0
   11.7812  -15.4914   27.2013 C   0  0  0  0  0  0  0  0  0  0  0  0
   13.0701  -15.9392   26.6395 C   0  0  0  0  0  0  0  0  0  0  0  0
   13.0764  -15.8085   25.1631 C   0  0  2  0  0  0  0  0  0  0  0  0
   12.0281  -16.6419   24.5479 N   0  0  0  0  0  0  0  0  0  0  0  0
   14.3777  -16.0680   24.5699 C   0  0  0  0  0  0  0  0  0  0  0  0
   15.3884  -15.3914   24.9735 O   0  0  0  0  0  0  0  0  0  0  0  0
   11.6464  -14.1989   27.7207 C   0  0  0  0  0  0  0  0  0  0  0  0
   10.4657  -13.7420   28.2539 C   0  0  0  0  0  0  0  0  0  0  0  0
   14.5888  -17.0132   23.5885 O   0  0  0  0  0  0  0  0  0  0  0  0
  2  1  1  1
  2  3  1  0
  3  4  1  0
  4  9  1  0
  4  5  2  0
  5  6  1  0
  6  7  2  0
  8  7  1  0
  9  8  2  0
 10 11  2  0
 10  2  1  0
 13 12  1  0
 14 13  1  6
 14 15  1  0
 15 10  1  0
 16 17  2  0
 16 14  1  0
 18 19  1  0
 19 29  2  0
 19 20  1  0
 20 21  2  0
 21 22  1  0
 22 23  1  0
 24 23  1  1
 24 25  1  0
 24 26  1  0
 25 16  1  0
 26 30  1  0
 27 26  2  0
 28 22  2  0
 29 28  1  0
M  END
$$$$
