FSY.pdb
     RDKit          3D

 30 31  0  0  1  0  0  0  0  0999 V2000
    7.4675  -19.2108   27.3526 N   0  0  0  0  0  0  0  0  0  0  0  0
    7.0729  -18.0957   26.5124 C   0  0  1  0  0  0  0  0  0  0  0  0
    7.6781  -16.8650   27.1354 C   0  0  0  0  0  0  0  0  0  0  0  0
    7.2397  -15.5969   26.5523 C   0  0  0  0  0  0  0  0  0  0  0  0
    5.9326  -15.2500   26.3297 C   0  0  0  0  0  0  0  0  0  0  0  0
    5.6018  -14.0325   25.7805 C   0  0  0  0  0  0  0  0  0  0  0  0
    6.5730  -13.1169   25.4339 C   0  0  0  0  0  0  0  0  0  0  0  0
    7.8885  -13.4514   25.6516 C   0  0  0  0  0  0  0  0  0  0  0  0
    8.2065  -14.6719   26.2015 C   0  0  0  0  0  0  0  0  0  0  0  0
    7.5105  -18.3122   25.1136 C   0  0  0  0  0  0  0  0  0  0  0  0
    8.6418  -18.8746   24.9439 O   0  0  0  0  0  0  0  0  0  0  0  0
    5.4433  -16.6021   22.1051 O   0  0  0  0  0  0  0  0  0  0  0  0
    5.8941  -17.8983   21.7924 C   0  0  0  0  0  0  0  0  0  0  0  0
    7.0908  -18.1776   22.6626 C   0  0  2  0  0  0  0  0  0  0  0  0
    6.7046  -17.9106   24.0349 N   0  0  0  0  0  0  0  0  0  0  0  0
    8.2900  -17.4168   22.2635 C   0  0  0  0  0  0  0  0  0  0  0  0
    8.7752  -17.6444   21.1250 O   0  0  0  0  0  0  0  0  0  0  0  0
    6.7696  -12.9662   18.0435 O   0  0  0  0  0  0  0  0  0  0  0  0
    7.4899  -13.2855   19.1917 C   0  0  0  0  0  0  0  0  0  0  0  0
    6.9047  -13.4346   20.4191 C   0  0  0  0  0  0  0  0  0  0  0  0
    7.6763  -13.7496   21.5064 C   0  0  0  0  0  0  0  0  0  0  0  0
    9.0501  -13.9290   21.4246 C   0  0  0  0  0  0  0  0  0  0  0  0
    9.9079  -14.2672   22.5766 C   0  0  0  0  0  0  0  0  0  0  0  0
   10.1494  -15.7280   22.6441 C   0  0  2  0  0  0  0  0  0  0  0  0
    8.9357  -16.4520   23.0619 N   0  0  0  0  0  0  0  0  0  0  0  0
   11.2909  -16.0830   23.4708 C   0  0  0  0  0  0  0  0  0  0  0  0
   11.1000  -16.8016   24.5147 O   0  0  0  0  0  0  0  0  0  0  0  0
    9.6069  -13.7671   20.1509 C   0  0  0  0  0  0  0  0  0  0  0  0
    8.8454  -13.4513   19.0521 C   0  0  0  0  0  0  0  0  0  0  0  0
   12.5820  -15.6884   23.1909 O   0  0  0  0  0  0  0  0  0  0  0  0
  2  1  1  1
  2  3  1  0
  3  4  1  0
  4  9  1  0
  4  5  2  0
  5  6  1  0
  6  7  2  0
  8  7  1  0
  9  8  2  0
 10 11  2  0
 10  2  1  0
 13 12  1  0
 14 13  1  6
 14 15  1  0
 15 10  1  0
 16 17  2  0
 16 14  1  0
 18 19  1  0
 19 29  2  0
 19 20  1  0
 20 21  2  0
 21 22  1  0
 22 23  1  0
 24 23  1  1
 24 25  1  0
 24 26  1  0
 25 16  1  0
 26 30  1  0
 27 26  2  0
 28 22  2  0
 29 28  1  0
M  END
$$$$
