FSY.pdb
     RDKit          3D

 30 31  0  0  1  0  0  0  0  0999 V2000
    6.1392  -16.3189   24.8998 N   0  0  0  0  0  0  0  0  0  0  0  0
    7.1673  -15.5905   24.1805 C   0  0  1  0  0  0  0  0  0  0  0  0
    7.7807  -14.6382   25.1735 C   0  0  0  0  0  0  0  0  0  0  0  0
    6.9480  -13.4871   25.5226 C   0  0  0  0  0  0  0  0  0  0  0  0
    7.0465  -12.2479   24.9455 C   0  0  0  0  0  0  0  0  0  0  0  0
    6.2203  -11.2160   25.3273 C   0  0  0  0  0  0  0  0  0  0  0  0
    5.2630  -11.3906   26.3044 C   0  0  0  0  0  0  0  0  0  0  0  0
    5.1528  -12.6285   26.8921 C   0  0  0  0  0  0  0  0  0  0  0  0
    5.9848  -13.6524   26.5016 C   0  0  0  0  0  0  0  0  0  0  0  0
    8.1534  -16.5235   23.5870 C   0  0  0  0  0  0  0  0  0  0  0  0
    8.3794  -17.6048   24.2231 O   0  0  0  0  0  0  0  0  0  0  0  0
    9.6761  -15.1534   20.4055 O   0  0  0  0  0  0  0  0  0  0  0  0
   10.4800  -16.2741   20.6863 C   0  0  0  0  0  0  0  0  0  0  0  0
   10.1100  -16.7558   22.0641 C   0  0  2  0  0  0  0  0  0  0  0  0
    8.8009  -16.2164   22.3784 N   0  0  0  0  0  0  0  0  0  0  0  0
   11.1142  -16.4131   23.0890 C   0  0  0  0  0  0  0  0  0  0  0  0
   10.9913  -15.3105   23.6828 O   0  0  0  0  0  0  0  0  0  0  0  0
   11.1473  -14.5625   30.2809 O   0  0  0  0  0  0  0  0  0  0  0  0
   11.2339  -15.4156   29.1836 C   0  0  0  0  0  0  0  0  0  0  0  0
   11.7176  -16.6922   29.2707 C   0  0  0  0  0  0  0  0  0  0  0  0
   11.7738  -17.4759   28.1484 C   0  0  0  0  0  0  0  0  0  0  0  0
   11.3564  -17.0315   26.9016 C   0  0  0  0  0  0  0  0  0  0  0  0
   11.4055  -17.8505   25.6751 C   0  0  0  0  0  0  0  0  0  0  0  0
   12.5867  -17.4983   24.8521 C   0  0  2  0  0  0  0  0  0  0  0  0
   12.2037  -17.2281   23.4548 N   0  0  0  0  0  0  0  0  0  0  0  0
   13.6538  -18.4821   24.9297 C   0  0  0  0  0  0  0  0  0  0  0  0
   13.5322  -19.5803   24.2805 O   0  0  0  0  0  0  0  0  0  0  0  0
   10.8690  -15.7205   26.8582 C   0  0  0  0  0  0  0  0  0  0  0  0
   10.8069  -14.9235   27.9753 C   0  0  0  0  0  0  0  0  0  0  0  0
   14.8033  -18.2972   25.6683 O   0  0  0  0  0  0  0  0  0  0  0  0
  2  1  1  1
  2  3  1  0
  3  4  1  0
  4  9  1  0
  4  5  2  0
  5  6  1  0
  6  7  2  0
  8  7  1  0
  9  8  2  0
 10 11  2  0
 10  2  1  0
 13 12  1  0
 14 13  1  6
 14 15  1  0
 15 10  1  0
 16 17  2  0
 16 14  1  0
 18 19  1  0
 19 29  2  0
 19 20  1  0
 20 21  2  0
 21 22  1  0
 22 23  1  0
 24 23  1  1
 24 25  1  0
 24 26  1  0
 25 16  1  0
 26 30  1  0
 27 26  2  0
 28 22  2  0
 29 28  1  0
M  END
$$$$
