FSY.pdb
     RDKit          3D

 30 31  0  0  1  0  0  0  0  0999 V2000
    5.3911  -17.7675   18.5240 N   0  0  0  0  0  0  0  0  0  0  0  0
    6.4027  -16.8578   19.0279 C   0  0  1  0  0  0  0  0  0  0  0  0
    5.6597  -15.7334   19.7006 C   0  0  0  0  0  0  0  0  0  0  0  0
    6.4903  -14.8365   20.5044 C   0  0  0  0  0  0  0  0  0  0  0  0
    6.7363  -14.9905   21.8439 C   0  0  0  0  0  0  0  0  0  0  0  0
    7.5351  -14.1037   22.5285 C   0  0  0  0  0  0  0  0  0  0  0  0
    8.1173  -13.0277   21.8923 C   0  0  0  0  0  0  0  0  0  0  0  0
    7.8793  -12.8607   20.5487 C   0  0  0  0  0  0  0  0  0  0  0  0
    7.0787  -13.7543   19.8752 C   0  0  0  0  0  0  0  0  0  0  0  0
    7.3353  -17.5626   19.9383 C   0  0  0  0  0  0  0  0  0  0  0  0
    6.8979  -18.6142   20.5107 O   0  0  0  0  0  0  0  0  0  0  0  0
   10.8812  -18.3254   19.0491 O   0  0  0  0  0  0  0  0  0  0  0  0
   10.1447  -18.9289   20.0856 C   0  0  0  0  0  0  0  0  0  0  0  0
    9.5969  -17.8224   20.9476 C   0  0  2  0  0  0  0  0  0  0  0  0
    8.6384  -17.0816   20.1503 N   0  0  0  0  0  0  0  0  0  0  0  0
   10.6455  -16.9505   21.5103 C   0  0  0  0  0  0  0  0  0  0  0  0
   11.1040  -16.0378   20.7753 O   0  0  0  0  0  0  0  0  0  0  0  0
    9.9363  -19.3896   28.3356 O   0  0  0  0  0  0  0  0  0  0  0  0
   10.4357  -18.4513   27.4360 C   0  0  0  0  0  0  0  0  0  0  0  0
   11.7738  -18.2279   27.2610 C   0  0  0  0  0  0  0  0  0  0  0  0
   12.1936  -17.2878   26.3571 C   0  0  0  0  0  0  0  0  0  0  0  0
   11.3121  -16.5348   25.5940 C   0  0  0  0  0  0  0  0  0  0  0  0
   11.7329  -15.5150   24.6141 C   0  0  0  0  0  0  0  0  0  0  0  0
   12.1954  -16.1497   23.3571 C   0  0  2  0  0  0  0  0  0  0  0  0
   11.1745  -17.0617   22.8114 N   0  0  0  0  0  0  0  0  0  0  0  0
   13.4830  -16.8111   23.4886 C   0  0  0  0  0  0  0  0  0  0  0  0
   13.5488  -18.0789   23.3134 O   0  0  0  0  0  0  0  0  0  0  0  0
    9.9535  -16.7957   25.8050 C   0  0  0  0  0  0  0  0  0  0  0  0
    9.5184  -17.7352   26.7078 C   0  0  0  0  0  0  0  0  0  0  0  0
   14.6508  -16.1438   23.7917 O   0  0  0  0  0  0  0  0  0  0  0  0
  2  1  1  1
  2  3  1  0
  3  4  1  0
  4  9  1  0
  4  5  2  0
  5  6  1  0
  6  7  2  0
  8  7  1  0
  9  8  2  0
 10 11  2  0
 10  2  1  0
 13 12  1  0
 14 13  1  6
 14 15  1  0
 15 10  1  0
 16 17  2  0
 16 14  1  0
 18 19  1  0
 19 29  2  0
 19 20  1  0
 20 21  2  0
 21 22  1  0
 22 23  1  0
 24 23  1  1
 24 25  1  0
 24 26  1  0
 25 16  1  0
 26 30  1  0
 27 26  2  0
 28 22  2  0
 29 28  1  0
M  END
$$$$
