FSY.pdb
     RDKit          3D

 30 31  0  0  1  0  0  0  0  0999 V2000
    6.1225  -16.7634   25.4700 N   0  0  0  0  0  0  0  0  0  0  0  0
    7.0785  -15.8843   24.8233 C   0  0  1  0  0  0  0  0  0  0  0  0
    7.6592  -15.0207   25.9123 C   0  0  0  0  0  0  0  0  0  0  0  0
    6.8437  -13.8653   26.2869 C   0  0  0  0  0  0  0  0  0  0  0  0
    5.7508  -13.9152   27.1124 C   0  0  0  0  0  0  0  0  0  0  0  0
    5.0380  -12.7794   27.4209 C   0  0  0  0  0  0  0  0  0  0  0  0
    5.3969  -11.5495   26.9108 C   0  0  0  0  0  0  0  0  0  0  0  0
    6.4911  -11.4845   26.0813 C   0  0  0  0  0  0  0  0  0  0  0  0
    7.1957  -12.6272   25.7803 C   0  0  0  0  0  0  0  0  0  0  0  0
    8.1042  -16.6685   24.0966 C   0  0  0  0  0  0  0  0  0  0  0  0
    8.3980  -17.8142   24.5721 O   0  0  0  0  0  0  0  0  0  0  0  0
   10.0767  -14.8052   21.0652 O   0  0  0  0  0  0  0  0  0  0  0  0
   10.1460  -16.2105   21.0314 C   0  0  0  0  0  0  0  0  0  0  0  0
    9.9664  -16.7011   22.4436 C   0  0  2  0  0  0  0  0  0  0  0  0
    8.7155  -16.1592   22.9384 N   0  0  0  0  0  0  0  0  0  0  0  0
   11.1036  -16.3698   23.3231 C   0  0  0  0  0  0  0  0  0  0  0  0
   11.2325  -15.1720   23.6864 O   0  0  0  0  0  0  0  0  0  0  0  0
    9.8310  -14.4561   29.2094 O   0  0  0  0  0  0  0  0  0  0  0  0
   10.7268  -15.1328   28.3856 C   0  0  0  0  0  0  0  0  0  0  0  0
   11.8680  -14.5578   27.8974 C   0  0  0  0  0  0  0  0  0  0  0  0
   12.7042  -15.2844   27.0912 C   0  0  0  0  0  0  0  0  0  0  0  0
   12.4472  -16.6015   26.7372 C   0  0  0  0  0  0  0  0  0  0  0  0
   13.3269  -17.4093   25.8706 C   0  0  0  0  0  0  0  0  0  0  0  0
   13.3027  -16.9051   24.4771 C   0  0  2  0  0  0  0  0  0  0  0  0
   12.0591  -17.2946   23.7889 N   0  0  0  0  0  0  0  0  0  0  0  0
   14.4765  -17.2856   23.7089 C   0  0  0  0  0  0  0  0  0  0  0  0
   14.3158  -17.8987   22.5951 O   0  0  0  0  0  0  0  0  0  0  0  0
   11.2699  -17.1498   27.2584 C   0  0  0  0  0  0  0  0  0  0  0  0
   10.4224  -16.4331   28.0677 C   0  0  0  0  0  0  0  0  0  0  0  0
   15.7671  -17.0189   24.1141 O   0  0  0  0  0  0  0  0  0  0  0  0
  2  1  1  1
  2  3  1  0
  3  4  1  0
  4  9  1  0
  4  5  2  0
  5  6  1  0
  6  7  2  0
  8  7  1  0
  9  8  2  0
 10 11  2  0
 10  2  1  0
 13 12  1  0
 14 13  1  6
 14 15  1  0
 15 10  1  0
 16 17  2  0
 16 14  1  0
 18 19  1  0
 19 29  2  0
 19 20  1  0
 20 21  2  0
 21 22  1  0
 22 23  1  0
 24 23  1  1
 24 25  1  0
 24 26  1  0
 25 16  1  0
 26 30  1  0
 27 26  2  0
 28 22  2  0
 29 28  1  0
M  END
$$$$
