FSY.pdb
     RDKit          3D

 30 31  0  0  1  0  0  0  0  0999 V2000
    6.2154  -17.0576   25.6941 N   0  0  0  0  0  0  0  0  0  0  0  0
    6.5913  -16.6625   24.3496 C   0  0  1  0  0  0  0  0  0  0  0  0
    6.2927  -15.1898   24.2451 C   0  0  0  0  0  0  0  0  0  0  0  0
    6.9125  -14.3580   25.2767 C   0  0  0  0  0  0  0  0  0  0  0  0
    8.1580  -13.7941   25.1816 C   0  0  0  0  0  0  0  0  0  0  0  0
    8.6687  -13.0180   26.1966 C   0  0  0  0  0  0  0  0  0  0  0  0
    7.9461  -12.7792   27.3466 C   0  0  0  0  0  0  0  0  0  0  0  0
    6.6951  -13.3385   27.4559 C   0  0  0  0  0  0  0  0  0  0  0  0
    6.1955  -14.1127   26.4340 C   0  0  0  0  0  0  0  0  0  0  0  0
    8.0131  -16.9857   24.0861 C   0  0  0  0  0  0  0  0  0  0  0  0
    8.7180  -17.3432   25.0861 O   0  0  0  0  0  0  0  0  0  0  0  0
    9.6428  -16.1998   20.4352 O   0  0  0  0  0  0  0  0  0  0  0  0
   10.0546  -17.4137   21.0166 C   0  0  0  0  0  0  0  0  0  0  0  0
    9.9200  -17.2630   22.5088 C   0  0  2  0  0  0  0  0  0  0  0  0
    8.5447  -16.8974   22.7884 N   0  0  0  0  0  0  0  0  0  0  0  0
   10.8799  -16.3023   23.0850 C   0  0  0  0  0  0  0  0  0  0  0  0
   10.7333  -15.0858   22.7987 O   0  0  0  0  0  0  0  0  0  0  0  0
    9.6791  -16.3783   29.8903 O   0  0  0  0  0  0  0  0  0  0  0  0
   10.3588  -15.9355   28.7585 C   0  0  0  0  0  0  0  0  0  0  0  0
   11.7186  -15.7935   28.7160 C   0  0  0  0  0  0  0  0  0  0  0  0
   12.3205  -15.3522   27.5670 C   0  0  0  0  0  0  0  0  0  0  0  0
   11.6061  -15.0354   26.4201 C   0  0  0  0  0  0  0  0  0  0  0  0
   12.2247  -14.5570   25.1688 C   0  0  0  0  0  0  0  0  0  0  0  0
   12.9152  -15.6633   24.4646 C   0  0  2  0  0  0  0  0  0  0  0  0
   11.9513  -16.6437   23.9339 N   0  0  0  0  0  0  0  0  0  0  0  0
   13.9379  -16.3073   25.2721 C   0  0  0  0  0  0  0  0  0  0  0  0
   14.8794  -15.5915   25.7654 O   0  0  0  0  0  0  0  0  0  0  0  0
   10.2186  -15.1951   26.5077 C   0  0  0  0  0  0  0  0  0  0  0  0
    9.6018  -15.6366   27.6531 C   0  0  0  0  0  0  0  0  0  0  0  0
   13.9508  -17.6593   25.5424 O   0  0  0  0  0  0  0  0  0  0  0  0
  2  1  1  1
  2  3  1  0
  3  4  1  0
  4  9  1  0
  4  5  2  0
  5  6  1  0
  6  7  2  0
  8  7  1  0
  9  8  2  0
 10 11  2  0
 10  2  1  0
 13 12  1  0
 14 13  1  6
 14 15  1  0
 15 10  1  0
 16 17  2  0
 16 14  1  0
 18 19  1  0
 19 29  2  0
 19 20  1  0
 20 21  2  0
 21 22  1  0
 22 23  1  0
 24 23  1  1
 24 25  1  0
 24 26  1  0
 25 16  1  0
 26 30  1  0
 27 26  2  0
 28 22  2  0
 29 28  1  0
M  END
$$$$
