FSY.pdb
     RDKit          3D

 30 31  0  0  1  0  0  0  0  0999 V2000
    6.1312  -18.4311   24.4850 N   0  0  0  0  0  0  0  0  0  0  0  0
    6.5106  -17.0494   24.2574 C   0  0  1  0  0  0  0  0  0  0  0  0
    6.7825  -16.4587   25.6161 C   0  0  0  0  0  0  0  0  0  0  0  0
    6.4496  -15.0406   25.7522 C   0  0  0  0  0  0  0  0  0  0  0  0
    5.3816  -14.5532   26.4594 C   0  0  0  0  0  0  0  0  0  0  0  0
    5.1393  -13.2013   26.5435 C   0  0  0  0  0  0  0  0  0  0  0  0
    5.9620  -12.2874   25.9194 C   0  0  0  0  0  0  0  0  0  0  0  0
    7.0373  -12.7620   25.2064 C   0  0  0  0  0  0  0  0  0  0  0  0
    7.2690  -14.1161   25.1298 C   0  0  0  0  0  0  0  0  0  0  0  0
    7.6763  -16.9688   23.3465 C   0  0  0  0  0  0  0  0  0  0  0  0
    8.5393  -17.9032   23.4303 O   0  0  0  0  0  0  0  0  0  0  0  0
    8.4103  -13.6607   20.9288 O   0  0  0  0  0  0  0  0  0  0  0  0
    8.3966  -14.9384   20.3387 C   0  0  0  0  0  0  0  0  0  0  0  0
    8.8188  -15.9237   21.3961 C   0  0  2  0  0  0  0  0  0  0  0  0
    7.8101  -15.9052   22.4380 N   0  0  0  0  0  0  0  0  0  0  0  0
   10.1712  -15.6644   21.9256 C   0  0  0  0  0  0  0  0  0  0  0  0
   10.7525  -14.6117   21.5551 O   0  0  0  0  0  0  0  0  0  0  0  0
   11.6549  -14.9030   30.3762 O   0  0  0  0  0  0  0  0  0  0  0  0
   11.2854  -15.0876   29.0464 C   0  0  0  0  0  0  0  0  0  0  0  0
   10.6795  -16.2278   28.5945 C   0  0  0  0  0  0  0  0  0  0  0  0
   10.3434  -16.3404   27.2711 C   0  0  0  0  0  0  0  0  0  0  0  0
   10.5916  -15.3359   26.3462 C   0  0  0  0  0  0  0  0  0  0  0  0
   10.2430  -15.4277   24.9153 C   0  0  0  0  0  0  0  0  0  0  0  0
   11.3304  -16.0797   24.1478 C   0  0  2  0  0  0  0  0  0  0  0  0
   10.8636  -16.5076   22.8170 N   0  0  0  0  0  0  0  0  0  0  0  0
   11.9631  -17.1736   24.8659 C   0  0  0  0  0  0  0  0  0  0  0  0
   13.0937  -16.9698   25.4338 O   0  0  0  0  0  0  0  0  0  0  0  0
   11.2124  -14.1879   26.8512 C   0  0  0  0  0  0  0  0  0  0  0  0
   11.5548  -14.0613   28.1755 C   0  0  0  0  0  0  0  0  0  0  0  0
   11.4082  -18.4311   24.9741 O   0  0  0  0  0  0  0  0  0  0  0  0
  2  1  1  1
  2  3  1  0
  3  4  1  0
  4  9  1  0
  4  5  2  0
  5  6  1  0
  6  7  2  0
  8  7  1  0
  9  8  2  0
 10 11  2  0
 10  2  1  0
 13 12  1  0
 14 13  1  6
 14 15  1  0
 15 10  1  0
 16 17  2  0
 16 14  1  0
 18 19  1  0
 19 29  2  0
 19 20  1  0
 20 21  2  0
 21 22  1  0
 22 23  1  0
 24 23  1  1
 24 25  1  0
 24 26  1  0
 25 16  1  0
 26 30  1  0
 27 26  2  0
 28 22  2  0
 29 28  1  0
M  END
$$$$
