FSY.pdb
     RDKit          3D

 30 31  0  0  1  0  0  0  0  0999 V2000
    7.0701  -16.8747   17.3743 N   0  0  0  0  0  0  0  0  0  0  0  0
    7.6983  -16.0715   18.4063 C   0  0  1  0  0  0  0  0  0  0  0  0
    6.6559  -15.0853   18.8644 C   0  0  0  0  0  0  0  0  0  0  0  0
    6.9618  -14.4002   20.1204 C   0  0  0  0  0  0  0  0  0  0  0  0
    6.6749  -14.8905   21.3677 C   0  0  0  0  0  0  0  0  0  0  0  0
    7.0007  -14.1851   22.5033 C   0  0  0  0  0  0  0  0  0  0  0  0
    7.6278  -12.9593   22.4281 C   0  0  0  0  0  0  0  0  0  0  0  0
    7.9218  -12.4551   21.1835 C   0  0  0  0  0  0  0  0  0  0  0  0
    7.5909  -13.1700   20.0554 C   0  0  0  0  0  0  0  0  0  0  0  0
    8.2060  -16.9293   19.5025 C   0  0  0  0  0  0  0  0  0  0  0  0
    7.6581  -18.0719   19.6415 O   0  0  0  0  0  0  0  0  0  0  0  0
   11.7817  -17.7020   19.8871 O   0  0  0  0  0  0  0  0  0  0  0  0
   10.6843  -18.3871   20.4415 C   0  0  0  0  0  0  0  0  0  0  0  0
    9.9055  -17.3936   21.2625 C   0  0  2  0  0  0  0  0  0  0  0  0
    9.2438  -16.4895   20.3415 N   0  0  0  0  0  0  0  0  0  0  0  0
   10.7361  -16.6755   22.2477 C   0  0  0  0  0  0  0  0  0  0  0  0
   10.9700  -15.4570   22.0382 O   0  0  0  0  0  0  0  0  0  0  0  0
    9.8901  -13.7774   30.2329 O   0  0  0  0  0  0  0  0  0  0  0  0
    9.8921  -14.2996   28.9420 C   0  0  0  0  0  0  0  0  0  0  0  0
    9.8376  -13.5152   27.8226 C   0  0  0  0  0  0  0  0  0  0  0  0
    9.8432  -14.0984   26.5829 C   0  0  0  0  0  0  0  0  0  0  0  0
    9.9026  -15.4730   26.4010 C   0  0  0  0  0  0  0  0  0  0  0  0
    9.9090  -16.1307   25.0801 C   0  0  0  0  0  0  0  0  0  0  0  0
   11.2709  -16.5991   24.7301 C   0  0  2  0  0  0  0  0  0  0  0  0
   11.2892  -17.2512   23.4086 N   0  0  0  0  0  0  0  0  0  0  0  0
   11.8653  -17.4477   25.7495 C   0  0  0  0  0  0  0  0  0  0  0  0
   11.3666  -18.6101   25.9557 O   0  0  0  0  0  0  0  0  0  0  0  0
    9.9571  -16.2369   27.5723 C   0  0  0  0  0  0  0  0  0  0  0  0
    9.9522  -15.6657   28.8216 C   0  0  0  0  0  0  0  0  0  0  0  0
   12.9489  -17.0696   26.5137 O   0  0  0  0  0  0  0  0  0  0  0  0
  2  1  1  6
  2  3  1  0
  3  4  1  0
  4  9  1  0
  4  5  2  0
  5  6  1  0
  6  7  2  0
  8  7  1  0
  9  8  2  0
 10 11  2  0
 10  2  1  0
 13 12  1  0
 14 13  1  6
 14 15  1  0
 15 10  1  0
 16 17  2  0
 16 14  1  0
 18 19  1  0
 19 29  2  0
 19 20  1  0
 20 21  2  0
 21 22  1  0
 22 23  1  0
 24 23  1  1
 24 25  1  0
 24 26  1  0
 25 16  1  0
 26 30  1  0
 27 26  2  0
 28 22  2  0
 29 28  1  0
M  END
$$$$
