FSY.pdb
     RDKit          3D

 30 31  0  0  1  0  0  0  0  0999 V2000
    5.3693  -17.9612   24.0149 N   0  0  0  0  0  0  0  0  0  0  0  0
    6.2800  -16.8340   24.0849 C   0  0  1  0  0  0  0  0  0  0  0  0
    6.0507  -16.1908   25.4276 C   0  0  0  0  0  0  0  0  0  0  0  0
    6.8794  -15.0165   25.7007 C   0  0  0  0  0  0  0  0  0  0  0  0
    8.0402  -15.0318   26.4291 C   0  0  0  0  0  0  0  0  0  0  0  0
    8.7666  -13.8817   26.6371 C   0  0  0  0  0  0  0  0  0  0  0  0
    8.3532  -12.6719   26.1204 C   0  0  0  0  0  0  0  0  0  0  0  0
    7.1905  -12.6415   25.3876 C   0  0  0  0  0  0  0  0  0  0  0  0
    6.4731  -13.7982   25.1866 C   0  0  0  0  0  0  0  0  0  0  0  0
    7.6797  -17.2774   23.8862 C   0  0  0  0  0  0  0  0  0  0  0  0
    8.0041  -18.4043   24.3861 O   0  0  0  0  0  0  0  0  0  0  0  0
    9.9202  -15.9374   20.8473 O   0  0  0  0  0  0  0  0  0  0  0  0
   10.1696  -17.1505   21.5161 C   0  0  0  0  0  0  0  0  0  0  0  0
    9.9711  -16.8989   22.9874 C   0  0  2  0  0  0  0  0  0  0  0  0
    8.5951  -16.4814   23.1772 N   0  0  0  0  0  0  0  0  0  0  0  0
   10.9301  -15.9267   23.5456 C   0  0  0  0  0  0  0  0  0  0  0  0
   10.9549  -14.7740   23.0415 O   0  0  0  0  0  0  0  0  0  0  0  0
   10.5401  -18.2808   30.1508 O   0  0  0  0  0  0  0  0  0  0  0  0
   11.0508  -17.3711   29.2284 C   0  0  0  0  0  0  0  0  0  0  0  0
   12.3809  -17.0621   29.1470 C   0  0  0  0  0  0  0  0  0  0  0  0
   12.8127  -16.1568   28.2137 C   0  0  0  0  0  0  0  0  0  0  0  0
   11.9515  -15.5239   27.3283 C   0  0  0  0  0  0  0  0  0  0  0  0
   12.3854  -14.5443   26.3137 C   0  0  0  0  0  0  0  0  0  0  0  0
   12.8328  -15.2279   25.0771 C   0  0  2  0  0  0  0  0  0  0  0  0
   11.8229  -16.1909   24.6030 N   0  0  0  0  0  0  0  0  0  0  0  0
   14.1402  -15.8497   25.2064 C   0  0  0  0  0  0  0  0  0  0  0  0
   15.1310  -15.1342   25.5919 O   0  0  0  0  0  0  0  0  0  0  0  0
   10.6005  -15.8692   27.4465 C   0  0  0  0  0  0  0  0  0  0  0  0
   10.1536  -16.7752   28.3773 C   0  0  0  0  0  0  0  0  0  0  0  0
   14.3766  -17.1812   24.9374 O   0  0  0  0  0  0  0  0  0  0  0  0
  2  1  1  1
  2  3  1  0
  3  4  1  0
  4  9  1  0
  4  5  2  0
  5  6  1  0
  6  7  2  0
  8  7  1  0
  9  8  2  0
 10 11  2  0
 10  2  1  0
 13 12  1  0
 14 13  1  6
 14 15  1  0
 15 10  1  0
 16 17  2  0
 16 14  1  0
 18 19  1  0
 19 29  2  0
 19 20  1  0
 20 21  2  0
 21 22  1  0
 22 23  1  0
 24 23  1  1
 24 25  1  0
 24 26  1  0
 25 16  1  0
 26 30  1  0
 27 26  2  0
 28 22  2  0
 29 28  1  0
M  END
$$$$
