FSY.pdb
     RDKit          3D

 30 31  0  0  1  0  0  0  0  0999 V2000
    6.2027  -18.2621   20.4926 N   0  0  0  0  0  0  0  0  0  0  0  0
    7.0316  -17.0758   20.5952 C   0  0  1  0  0  0  0  0  0  0  0  0
    6.1145  -15.9570   21.0148 C   0  0  0  0  0  0  0  0  0  0  0  0
    6.7536  -14.6468   21.1394 C   0  0  0  0  0  0  0  0  0  0  0  0
    7.0476  -14.0310   22.3279 C   0  0  0  0  0  0  0  0  0  0  0  0
    7.6558  -12.7971   22.3602 C   0  0  0  0  0  0  0  0  0  0  0  0
    7.9917  -12.1350   21.1980 C   0  0  0  0  0  0  0  0  0  0  0  0
    7.7026  -12.7409   19.9984 C   0  0  0  0  0  0  0  0  0  0  0  0
    7.0944  -13.9749   19.9793 C   0  0  0  0  0  0  0  0  0  0  0  0
    8.1483  -17.2965   21.5436 C   0  0  0  0  0  0  0  0  0  0  0  0
    7.8553  -17.8241   22.6665 O   0  0  0  0  0  0  0  0  0  0  0  0
   11.8828  -15.6000   20.9643 O   0  0  0  0  0  0  0  0  0  0  0  0
   11.8439  -16.9535   21.3486 C   0  0  0  0  0  0  0  0  0  0  0  0
   10.5674  -17.1628   22.1194 C   0  0  2  0  0  0  0  0  0  0  0  0
    9.4637  -16.9356   21.2063 N   0  0  0  0  0  0  0  0  0  0  0  0
   10.4730  -16.3213   23.3274 C   0  0  0  0  0  0  0  0  0  0  0  0
   10.1463  -15.1156   23.1764 O   0  0  0  0  0  0  0  0  0  0  0  0
    6.2473  -11.3539   27.0760 O   0  0  0  0  0  0  0  0  0  0  0  0
    6.7525  -12.5964   26.7016 C   0  0  0  0  0  0  0  0  0  0  0  0
    5.9667  -13.5987   26.2023 C   0  0  0  0  0  0  0  0  0  0  0  0
    6.5327  -14.7969   25.8542 C   0  0  0  0  0  0  0  0  0  0  0  0
    7.8908  -15.0510   25.9852 C   0  0  0  0  0  0  0  0  0  0  0  0
    8.5294  -16.3303   25.6207 C   0  0  0  0  0  0  0  0  0  0  0  0
    9.9963  -16.2644   25.8222 C   0  0  2  0  0  0  0  0  0  0  0  0
   10.7215  -16.7656   24.6412 N   0  0  0  0  0  0  0  0  0  0  0  0
   10.4387  -16.9269   27.0379 C   0  0  0  0  0  0  0  0  0  0  0  0
   11.0623  -16.2429   27.9242 O   0  0  0  0  0  0  0  0  0  0  0  0
    8.6567  -13.9989   26.4996 C   0  0  0  0  0  0  0  0  0  0  0  0
    8.1027  -12.7924   26.8527 C   0  0  0  0  0  0  0  0  0  0  0  0
   10.2204  -18.2637   27.2954 O   0  0  0  0  0  0  0  0  0  0  0  0
  2  1  1  1
  2  3  1  0
  3  4  1  0
  4  9  1  0
  4  5  2  0
  5  6  1  0
  6  7  2  0
  8  7  1  0
  9  8  2  0
 10 11  2  0
 10  2  1  0
 13 12  1  0
 14 13  1  6
 14 15  1  0
 15 10  1  0
 16 17  2  0
 16 14  1  0
 18 19  1  0
 19 29  2  0
 19 20  1  0
 20 21  2  0
 21 22  1  0
 22 23  1  0
 24 23  1  6
 24 25  1  0
 24 26  1  0
 25 16  1  0
 26 30  1  0
 27 26  2  0
 28 22  2  0
 29 28  1  0
M  END
$$$$
