FSY.pdb
     RDKit          3D

 30 31  0  0  1  0  0  0  0  0999 V2000
    6.1900  -17.4090   20.1624 N   0  0  0  0  0  0  0  0  0  0  0  0
    7.1581  -16.4014   20.5527 C   0  0  1  0  0  0  0  0  0  0  0  0
    6.3772  -15.1336   20.7802 C   0  0  0  0  0  0  0  0  0  0  0  0
    7.1867  -13.9560   21.0937 C   0  0  0  0  0  0  0  0  0  0  0  0
    7.7864  -13.1497   20.1617 C   0  0  0  0  0  0  0  0  0  0  0  0
    8.5294  -12.0547   20.5388 C   0  0  0  0  0  0  0  0  0  0  0  0
    8.6979  -11.7284   21.8681 C   0  0  0  0  0  0  0  0  0  0  0  0
    8.1020  -12.5284   22.8139 C   0  0  0  0  0  0  0  0  0  0  0  0
    7.3615  -13.6206   22.4242 C   0  0  0  0  0  0  0  0  0  0  0  0
    7.9162  -16.8377   21.7486 C   0  0  0  0  0  0  0  0  0  0  0  0
    7.2546  -17.4189   22.6702 O   0  0  0  0  0  0  0  0  0  0  0  0
   11.2477  -18.2212   21.0336 O   0  0  0  0  0  0  0  0  0  0  0  0
   11.4573  -17.5458   22.2506 C   0  0  0  0  0  0  0  0  0  0  0  0
   10.1033  -17.2808   22.8538 C   0  0  2  0  0  0  0  0  0  0  0  0
    9.2999  -16.6139   21.8472 N   0  0  0  0  0  0  0  0  0  0  0  0
   10.1676  -16.5143   24.1127 C   0  0  0  0  0  0  0  0  0  0  0  0
   10.6279  -15.3443   24.0624 O   0  0  0  0  0  0  0  0  0  0  0  0
    5.7276  -11.8828   26.1022 O   0  0  0  0  0  0  0  0  0  0  0  0
    6.4901  -12.9975   26.4415 C   0  0  0  0  0  0  0  0  0  0  0  0
    6.0835  -14.2799   26.1937 C   0  0  0  0  0  0  0  0  0  0  0  0
    6.8863  -15.3296   26.5553 C   0  0  0  0  0  0  0  0  0  0  0  0
    8.1167  -15.1546   27.1731 C   0  0  0  0  0  0  0  0  0  0  0  0
    9.0028  -16.2638   27.5754 C   0  0  0  0  0  0  0  0  0  0  0  0
   10.1544  -16.3819   26.6497 C   0  0  2  0  0  0  0  0  0  0  0  0
    9.7519  -16.9935   25.3707 N   0  0  0  0  0  0  0  0  0  0  0  0
   11.2918  -17.0727   27.2343 C   0  0  0  0  0  0  0  0  0  0  0  0
   11.6279  -18.2178   26.7672 O   0  0  0  0  0  0  0  0  0  0  0  0
    8.4931  -13.8273   27.4075 C   0  0  0  0  0  0  0  0  0  0  0  0
    7.6984  -12.7653   27.0503 C   0  0  0  0  0  0  0  0  0  0  0  0
   12.0393  -16.5587   28.2726 O   0  0  0  0  0  0  0  0  0  0  0  0
  2  1  1  1
  2  3  1  0
  3  4  1  0
  4  9  1  0
  4  5  2  0
  5  6  1  0
  6  7  2  0
  8  7  1  0
  9  8  2  0
 10 11  2  0
 10  2  1  0
 13 12  1  0
 14 13  1  6
 14 15  1  0
 15 10  1  0
 16 17  2  0
 16 14  1  0
 18 19  1  0
 19 29  2  0
 19 20  1  0
 20 21  2  0
 21 22  1  0
 22 23  1  0
 24 23  1  1
 24 25  1  0
 24 26  1  0
 25 16  1  0
 26 30  1  0
 27 26  2  0
 28 22  2  0
 29 28  1  0
M  END
$$$$
