SWL.pdb
     RDKit          3D

 29 30  0  0  1  0  0  0  0  0999 V2000
   11.6287  -18.7678   20.3072 O   0  0  0  0  0  0  0  0  0  0  0  0
   10.4165  -18.4794   19.6838 C   0  0  0  0  0  0  0  0  0  0  0  0
   10.3416  -16.9950   19.4967 C   0  0  2  0  0  0  0  0  0  0  0  0
   11.4943  -16.5088   18.8054 N   0  0  0  0  0  0  0  0  0  0  0  0
   10.1554  -16.2744   20.7924 C   0  0  0  0  0  0  0  0  0  0  0  0
   11.0787  -15.5471   21.2752 O   0  0  0  0  0  0  0  0  0  0  0  0
    8.9580  -16.3655   21.5356 N   0  0  0  0  0  0  0  0  0  0  0  0
    8.8421  -15.6808   22.7950 C   0  0  1  0  0  0  0  0  0  0  0  0
    7.4084  -15.4170   23.1340 C   0  0  0  0  0  0  0  0  0  0  0  0
    7.1442  -14.9235   24.4812 C   0  0  0  0  0  0  0  0  0  0  0  0
    6.8126  -15.6796   25.6100 C   0  0  0  0  0  0  0  0  0  0  0  0
    6.6761  -14.8813   26.6679 N   0  0  0  0  0  0  0  0  0  0  0  0
    6.9073  -13.6265   26.2663 C   0  0  0  0  0  0  0  0  0  0  0  0
    6.8807  -12.4518   26.9786 C   0  0  0  0  0  0  0  0  0  0  0  0
    7.1423  -11.2262   26.3767 C   0  0  0  0  0  0  0  0  0  0  0  0
    7.4358  -11.1928   25.0293 C   0  0  0  0  0  0  0  0  0  0  0  0
    7.4547  -12.3971   24.3390 C   0  0  0  0  0  0  0  0  0  0  0  0
    7.2003  -13.6222   24.9120 C   0  0  0  0  0  0  0  0  0  0  0  0
    9.3922  -16.5592   23.8575 C   0  0  0  0  0  0  0  0  0  0  0  0
    9.1755  -17.7903   23.7963 O   0  0  0  0  0  0  0  0  0  0  0  0
   13.0429  -18.7208   24.2349 C   0  0  0  0  0  0  0  0  0  0  0  0
   12.9725  -17.2930   24.6070 C   0  0  2  0  0  0  0  0  0  0  0  0
   14.4430  -16.7985   24.7290 C   0  0  0  0  0  0  0  0  0  0  0  0
   12.2544  -16.8569   25.8020 C   0  0  0  0  0  0  0  0  0  0  0  0
   10.8029  -17.0450   25.8749 C   0  0  2  0  0  0  0  0  0  0  0  0
   10.1546  -16.0696   24.9429 N   0  0  0  0  0  0  0  0  0  0  0  0
   10.1778  -16.8472   27.1627 C   0  0  0  0  0  0  0  0  0  0  0  0
    9.1833  -15.8529   27.3094 O   0  0  0  0  0  0  0  0  0  0  0  0
   10.4260  -17.4805   28.2056 O   0  0  0  0  0  0  0  0  0  0  0  0
  1  2  1  0
  2  3  1  0
  3  4  1  1
  3  5  1  0
  5  6  2  0
  5  7  1  0
  7  8  1  0
  8 19  1  0
  8  9  1  1
 10  9  1  0
 10 11  2  0
 12 11  1  0
 13 12  1  0
 14 13  2  0
 15 14  1  0
 16 15  2  0
 16 17  1  0
 17 18  2  0
 18 13  1  0
 18 10  1  0
 19 20  2  0
 22 21  1  1
 22 24  1  0
 23 22  1  0
 25 24  1  1
 26 25  1  0
 26 19  1  0
 27 28  1  0
 27 25  1  0
 29 27  2  0
M  END
$$$$
