SWL.pdb
     RDKit          3D

 29 30  0  0  1  0  0  0  0  0999 V2000
    9.0105  -20.1826   24.6787 O   0  0  0  0  0  0  0  0  0  0  0  0
    7.6918  -20.0575   24.2466 C   0  0  0  0  0  0  0  0  0  0  0  0
    7.7198  -19.5519   22.8368 C   0  0  2  0  0  0  0  0  0  0  0  0
    8.1388  -20.5784   21.9346 N   0  0  0  0  0  0  0  0  0  0  0  0
    8.5761  -18.3358   22.6931 C   0  0  0  0  0  0  0  0  0  0  0  0
    9.6597  -18.3731   22.0306 O   0  0  0  0  0  0  0  0  0  0  0  0
    8.2273  -17.0997   23.2802 N   0  0  0  0  0  0  0  0  0  0  0  0
    9.0460  -15.9401   23.0495 C   0  0  1  0  0  0  0  0  0  0  0  0
    8.2234  -14.6898   23.0605 C   0  0  0  0  0  0  0  0  0  0  0  0
    7.3545  -14.4993   24.2168 C   0  0  0  0  0  0  0  0  0  0  0  0
    6.7436  -15.4921   24.9896 C   0  0  0  0  0  0  0  0  0  0  0  0
    6.0492  -14.9339   25.9802 N   0  0  0  0  0  0  0  0  0  0  0  0
    6.1861  -13.6072   25.8792 C   0  0  0  0  0  0  0  0  0  0  0  0
    5.6593  -12.6031   26.6553 C   0  0  0  0  0  0  0  0  0  0  0  0
    5.9093  -11.2627   26.3843 C   0  0  0  0  0  0  0  0  0  0  0  0
    6.7072  -10.9363   25.3075 C   0  0  0  0  0  0  0  0  0  0  0  0
    7.2236  -11.9744   24.5440 C   0  0  0  0  0  0  0  0  0  0  0  0
    6.9916  -13.3080   24.7923 C   0  0  0  0  0  0  0  0  0  0  0  0
   10.0274  -15.8322   24.1578 C   0  0  0  0  0  0  0  0  0  0  0  0
   10.9732  -15.0196   24.0507 O   0  0  0  0  0  0  0  0  0  0  0  0
   10.8886  -13.5656   27.4920 C   0  0  0  0  0  0  0  0  0  0  0  0
    9.9982  -14.7114   27.7681 C   0  0  2  0  0  0  0  0  0  0  0  0
    9.4945  -14.5331   29.2297 C   0  0  0  0  0  0  0  0  0  0  0  0
   10.4674  -16.0870   27.6226 C   0  0  0  0  0  0  0  0  0  0  0  0
   11.0466  -16.5156   26.3465 C   0  0  2  0  0  0  0  0  0  0  0  0
    9.9452  -16.6078   25.3371 N   0  0  0  0  0  0  0  0  0  0  0  0
   11.7191  -17.7947   26.3259 C   0  0  0  0  0  0  0  0  0  0  0  0
   11.1687  -18.8595   25.5758 O   0  0  0  0  0  0  0  0  0  0  0  0
   12.7753  -18.0797   26.9203 O   0  0  0  0  0  0  0  0  0  0  0  0
  1  2  1  0
  2  3  1  0
  3  4  1  6
  3  5  1  0
  5  6  2  0
  5  7  1  0
  7  8  1  0
  8 19  1  0
  8  9  1  1
 10  9  1  0
 10 11  2  0
 12 11  1  0
 13 12  1  0
 14 13  2  0
 15 14  1  0
 16 15  2  0
 16 17  1  0
 17 18  2  0
 18 13  1  0
 18 10  1  0
 19 20  2  0
 22 21  1  1
 22 24  1  0
 23 22  1  0
 25 24  1  1
 26 25  1  0
 26 19  1  0
 27 28  1  0
 27 25  1  0
 29 27  2  0
M  END
$$$$
