SWL.pdb
     RDKit          3D

 29 30  0  0  1  0  0  0  0  0999 V2000
   12.2762  -18.7639   21.3632 O   0  0  0  0  0  0  0  0  0  0  0  0
   11.0149  -18.9709   20.8086 C   0  0  0  0  0  0  0  0  0  0  0  0
   10.4588  -17.6331   20.4280 C   0  0  2  0  0  0  0  0  0  0  0  0
   11.3334  -16.9553   19.5231 N   0  0  0  0  0  0  0  0  0  0  0  0
   10.1691  -16.7846   21.6234 C   0  0  0  0  0  0  0  0  0  0  0  0
   10.8746  -15.7609   21.8856 O   0  0  0  0  0  0  0  0  0  0  0  0
    9.1095  -17.0757   22.5105 N   0  0  0  0  0  0  0  0  0  0  0  0
    8.8812  -16.2351   23.6548 C   0  0  1  0  0  0  0  0  0  0  0  0
    7.6050  -16.6016   24.3454 C   0  0  0  0  0  0  0  0  0  0  0  0
    6.9001  -15.5154   25.0176 C   0  0  0  0  0  0  0  0  0  0  0  0
    5.8365  -15.6262   25.9189 C   0  0  0  0  0  0  0  0  0  0  0  0
    5.4754  -14.4172   26.3466 N   0  0  0  0  0  0  0  0  0  0  0  0
    6.2690  -13.5190   25.7528 C   0  0  0  0  0  0  0  0  0  0  0  0
    6.2877  -12.1491   25.8596 C   0  0  0  0  0  0  0  0  0  0  0  0
    7.1933  -11.3729   25.1456 C   0  0  0  0  0  0  0  0  0  0  0  0
    8.0948  -11.9977   24.3091 C   0  0  0  0  0  0  0  0  0  0  0  0
    8.0495  -13.3826   24.2242 C   0  0  0  0  0  0  0  0  0  0  0  0
    7.1638  -14.1726   24.9209 C   0  0  0  0  0  0  0  0  0  0  0  0
    9.9849  -16.4529   24.6230 C   0  0  0  0  0  0  0  0  0  0  0  0
   11.1482  -16.1261   24.2970 O   0  0  0  0  0  0  0  0  0  0  0  0
   11.3254  -13.6815   27.5795 C   0  0  0  0  0  0  0  0  0  0  0  0
   10.1264  -14.5168   27.7953 C   0  0  2  0  0  0  0  0  0  0  0  0
    9.3813  -13.9070   29.0180 C   0  0  0  0  0  0  0  0  0  0  0  0
   10.2365  -15.9571   28.0128 C   0  0  0  0  0  0  0  0  0  0  0  0
   10.8199  -16.7979   26.9639 C   0  0  2  0  0  0  0  0  0  0  0  0
    9.7849  -17.0152   25.9048 N   0  0  0  0  0  0  0  0  0  0  0  0
   11.2788  -18.1118   27.3534 C   0  0  0  0  0  0  0  0  0  0  0  0
   10.6508  -19.2578   26.8136 O   0  0  0  0  0  0  0  0  0  0  0  0
   12.2056  -18.3619   28.1463 O   0  0  0  0  0  0  0  0  0  0  0  0
  1  2  1  0
  2  3  1  0
  3  4  1  6
  3  5  1  0
  5  6  2  0
  5  7  1  0
  7  8  1  0
  8 19  1  0
  8  9  1  1
 10  9  1  0
 10 11  2  0
 12 11  1  0
 13 12  1  0
 14 13  2  0
 15 14  1  0
 16 15  2  0
 16 17  1  0
 17 18  2  0
 18 13  1  0
 18 10  1  0
 19 20  2  0
 22 21  1  1
 22 24  1  0
 23 22  1  0
 25 24  1  1
 26 25  1  0
 26 19  1  0
 27 28  1  0
 27 25  1  0
 29 27  2  0
M  END
$$$$
