SWL.pdb
     RDKit          3D

 29 30  0  0  1  0  0  0  0  0999 V2000
   12.6239  -20.4205   21.3820 O   0  0  0  0  0  0  0  0  0  0  0  0
   11.2366  -20.3539   21.2707 C   0  0  0  0  0  0  0  0  0  0  0  0
   10.9017  -19.1373   20.4635 C   0  0  2  0  0  0  0  0  0  0  0  0
   11.8791  -18.9160   19.4442 N   0  0  0  0  0  0  0  0  0  0  0  0
   10.7409  -17.9226   21.3187 C   0  0  0  0  0  0  0  0  0  0  0  0
   11.6655  -17.0553   21.4039 O   0  0  0  0  0  0  0  0  0  0  0  0
    9.5670  -17.6818   22.0660 N   0  0  0  0  0  0  0  0  0  0  0  0
    9.4856  -16.5286   22.9213 C   0  0  1  0  0  0  0  0  0  0  0  0
    8.1058  -15.9491   22.9134 C   0  0  0  0  0  0  0  0  0  0  0  0
    7.9827  -14.5694   23.3711 C   0  0  0  0  0  0  0  0  0  0  0  0
    8.5236  -13.4272   22.7721 C   0  0  0  0  0  0  0  0  0  0  0  0
    8.1724  -12.3427   23.4616 N   0  0  0  0  0  0  0  0  0  0  0  0
    7.4193  -12.7397   24.4934 C   0  0  0  0  0  0  0  0  0  0  0  0
    6.8275  -12.0024   25.4905 C   0  0  0  0  0  0  0  0  0  0  0  0
    6.0799  -12.6025   26.4973 C   0  0  0  0  0  0  0  0  0  0  0  0
    5.9308  -13.9738   26.4916 C   0  0  0  0  0  0  0  0  0  0  0  0
    6.5412  -14.6890   25.4704 C   0  0  0  0  0  0  0  0  0  0  0  0
    7.2849  -14.1184   24.4628 C   0  0  0  0  0  0  0  0  0  0  0  0
    9.7763  -16.9566   24.3126 C   0  0  0  0  0  0  0  0  0  0  0  0
    9.7540  -18.1775   24.5865 O   0  0  0  0  0  0  0  0  0  0  0  0
    9.8541  -13.2122   27.1544 C   0  0  0  0  0  0  0  0  0  0  0  0
   10.1518  -14.4669   27.8749 C   0  0  2  0  0  0  0  0  0  0  0  0
   10.5349  -14.0586   29.3269 C   0  0  0  0  0  0  0  0  0  0  0  0
   11.1696  -15.3953   27.3892 C   0  0  0  0  0  0  0  0  0  0  0  0
   10.7613  -16.5498   26.5842 C   0  0  2  0  0  0  0  0  0  0  0  0
   10.0794  -16.0458   25.3507 N   0  0  0  0  0  0  0  0  0  0  0  0
    9.8465  -17.4871   27.1950 C   0  0  0  0  0  0  0  0  0  0  0  0
    8.5783  -17.7057   26.6092 O   0  0  0  0  0  0  0  0  0  0  0  0
   10.0563  -18.1544   28.2250 O   0  0  0  0  0  0  0  0  0  0  0  0
  1  2  1  0
  2  3  1  0
  3  4  1  6
  3  5  1  0
  5  6  2  0
  5  7  1  0
  7  8  1  0
  8 19  1  0
  8  9  1  1
 10  9  1  0
 10 11  2  0
 12 11  1  0
 13 12  1  0
 14 13  2  0
 15 14  1  0
 16 15  2  0
 16 17  1  0
 17 18  2  0
 18 13  1  0
 18 10  1  0
 19 20  2  0
 22 21  1  6
 22 24  1  0
 23 22  1  0
 25 24  1  1
 26 25  1  0
 26 19  1  0
 27 28  1  0
 27 25  1  0
 29 27  2  0
M  END
$$$$
