SWL.pdb
     RDKit          3D

 29 30  0  0  1  0  0  0  0  0999 V2000
   57.6464  -42.1913   45.7643 O   0  0  0  0  0  0  0  0  0  0  0  0
   57.9999  -41.2135   44.8367 C   0  0  0  0  0  0  0  0  0  0  0  0
   59.3734  -40.7286   45.1862 C   0  0  2  0  0  0  0  0  0  0  0  0
   60.2818  -40.9445   44.1038 N   0  0  0  0  0  0  0  0  0  0  0  0
   59.8864  -41.3526   46.4433 C   0  0  0  0  0  0  0  0  0  0  0  0
   59.9942  -42.6140   46.5509 O   0  0  0  0  0  0  0  0  0  0  0  0
   60.2718  -40.5798   47.5607 N   0  0  0  0  0  0  0  0  0  0  0  0
   59.6487  -40.8048   48.8372 C   0  0  1  0  0  0  0  0  0  0  0  0
   60.6292  -40.6254   49.9536 C   0  0  0  0  0  0  0  0  0  0  0  0
   60.0693  -40.5552   51.2990 C   0  0  0  0  0  0  0  0  0  0  0  0
   60.7151  -40.8594   52.5016 C   0  0  0  0  0  0  0  0  0  0  0  0
   59.8911  -40.6456   53.5266 N   0  0  0  0  0  0  0  0  0  0  0  0
   58.7265  -40.2119   53.0321 C   0  0  0  0  0  0  0  0  0  0  0  0
   57.5656  -39.8653   53.6804 C   0  0  0  0  0  0  0  0  0  0  0  0
   56.4392  -39.4408   52.9850 C   0  0  0  0  0  0  0  0  0  0  0  0
   56.4922  -39.3671   51.6086 C   0  0  0  0  0  0  0  0  0  0  0  0
   57.6798  -39.7242   50.9846 C   0  0  0  0  0  0  0  0  0  0  0  0
   58.8078  -40.1463   51.6504 C   0  0  0  0  0  0  0  0  0  0  0  0
   58.5802  -39.7911   49.0214 C   0  0  0  0  0  0  0  0  0  0  0  0
   57.3883  -40.1308   48.8475 O   0  0  0  0  0  0  0  0  0  0  0  0
   60.0977  -36.9762   45.7226 C   0  0  0  0  0  0  0  0  0  0  0  0
   59.7038  -37.3748   47.0893 C   0  0  2  0  0  0  0  0  0  0  0  0
   58.7141  -36.2858   47.5957 C   0  0  0  0  0  0  0  0  0  0  0  0
   60.7033  -37.5894   48.1328 C   0  0  0  0  0  0  0  0  0  0  0  0
   60.2658  -37.9882   49.4733 C   0  0  2  0  0  0  0  0  0  0  0  0
   58.8451  -38.4511   49.3865 N   0  0  0  0  0  0  0  0  0  0  0  0
   60.2965  -36.9753   50.5038 C   0  0  0  0  0  0  0  0  0  0  0  0
   60.2276  -37.3609   51.8624 O   0  0  0  0  0  0  0  0  0  0  0  0
   60.3801  -35.7461   50.3243 O   0  0  0  0  0  0  0  0  0  0  0  0
  1  2  1  0
  2  3  1  0
  3  4  1  6
  3  5  1  0
  5  6  2  0
  5  7  1  0
  7  8  1  0
  8 19  1  0
  8  9  1  1
 10  9  1  0
 10 11  2  0
 12 11  1  0
 13 12  1  0
 14 13  2  0
 15 14  1  0
 16 15  2  0
 16 17  1  0
 17 18  2  0
 18 13  1  0
 18 10  1  0
 19 20  2  0
 22 21  1  6
 22 24  1  0
 23 22  1  0
 25 24  1  6
 26 25  1  0
 26 19  1  0
 27 28  1  0
 27 25  1  0
 29 27  2  0
M  END
$$$$
