SWL.pdb
     RDKit          3D

 29 30  0  0  1  0  0  0  0  0999 V2000
   11.7958  -19.2906   18.4468 O   0  0  0  0  0  0  0  0  0  0  0  0
   11.3924  -18.1693   19.1687 C   0  0  0  0  0  0  0  0  0  0  0  0
   11.4380  -18.5227   20.6236 C   0  0  2  0  0  0  0  0  0  0  0  0
   10.5468  -19.6016   20.9150 N   0  0  0  0  0  0  0  0  0  0  0  0
   11.1504  -17.3449   21.4970 C   0  0  0  0  0  0  0  0  0  0  0  0
   11.8557  -16.2903   21.4266 O   0  0  0  0  0  0  0  0  0  0  0  0
   10.0930  -17.3461   22.4332 N   0  0  0  0  0  0  0  0  0  0  0  0
    9.8604  -16.1880   23.2533 C   0  0  1  0  0  0  0  0  0  0  0  0
    8.4324  -16.1204   23.6962 C   0  0  0  0  0  0  0  0  0  0  0  0
    7.8126  -14.7999   23.6768 C   0  0  0  0  0  0  0  0  0  0  0  0
    7.5268  -14.0151   22.5551 C   0  0  0  0  0  0  0  0  0  0  0  0
    6.9319  -12.8839   22.9313 N   0  0  0  0  0  0  0  0  0  0  0  0
    6.8203  -12.9038   24.2641 C   0  0  0  0  0  0  0  0  0  0  0  0
    6.2883  -11.9698   25.1202 C   0  0  0  0  0  0  0  0  0  0  0  0
    6.2705  -12.1663   26.4963 C   0  0  0  0  0  0  0  0  0  0  0  0
    6.8018  -13.3303   27.0118 C   0  0  0  0  0  0  0  0  0  0  0  0
    7.3310  -14.2531   26.1199 C   0  0  0  0  0  0  0  0  0  0  0  0
    7.3595  -14.0821   24.7547 C   0  0  0  0  0  0  0  0  0  0  0  0
   10.6959  -16.3040   24.4746 C   0  0  0  0  0  0  0  0  0  0  0  0
   11.8133  -15.7408   24.4983 O   0  0  0  0  0  0  0  0  0  0  0  0
    9.7061  -13.6155   28.0499 C   0  0  0  0  0  0  0  0  0  0  0  0
   10.0355  -15.0552   28.0756 C   0  0  2  0  0  0  0  0  0  0  0  0
   10.2336  -15.4332   29.5722 C   0  0  0  0  0  0  0  0  0  0  0  0
   11.1727  -15.5849   27.3272 C   0  0  0  0  0  0  0  0  0  0  0  0
   11.1359  -16.9710   26.8532 C   0  0  2  0  0  0  0  0  0  0  0  0
   10.2882  -17.0246   25.6207 N   0  0  0  0  0  0  0  0  0  0  0  0
   10.5952  -17.9611   27.7565 C   0  0  0  0  0  0  0  0  0  0  0  0
   11.3792  -18.4169   28.8413 O   0  0  0  0  0  0  0  0  0  0  0  0
    9.4669  -18.4828   27.6858 O   0  0  0  0  0  0  0  0  0  0  0  0
  1  2  1  0
  2  3  1  0
  3  4  1  6
  3  5  1  0
  5  6  2  0
  5  7  1  0
  7  8  1  0
  8 19  1  0
  8  9  1  1
 10  9  1  0
 10 11  2  0
 12 11  1  0
 13 12  1  0
 14 13  2  0
 15 14  1  0
 16 15  2  0
 16 17  1  0
 17 18  2  0
 18 13  1  0
 18 10  1  0
 19 20  2  0
 22 21  1  1
 22 24  1  0
 23 22  1  0
 25 24  1  1
 26 25  1  0
 26 19  1  0
 27 28  1  0
 27 25  1  0
 29 27  2  0
M  END
$$$$
