SWL.pdb
     RDKit          3D

 29 30  0  0  1  0  0  0  0  0999 V2000
    8.7403  -20.5283   24.9019 O   0  0  0  0  0  0  0  0  0  0  0  0
    7.4098  -20.1846   24.6724 C   0  0  0  0  0  0  0  0  0  0  0  0
    7.3108  -19.6507   23.2763 C   0  0  2  0  0  0  0  0  0  0  0  0
    7.5010  -20.6929   22.3166 N   0  0  0  0  0  0  0  0  0  0  0  0
    8.2650  -18.5262   23.0361 C   0  0  0  0  0  0  0  0  0  0  0  0
    9.1998  -18.6325   22.1820 O   0  0  0  0  0  0  0  0  0  0  0  0
    8.1761  -17.3044   23.7386 N   0  0  0  0  0  0  0  0  0  0  0  0
    9.1001  -16.2414   23.4480 C   0  0  1  0  0  0  0  0  0  0  0  0
    8.3960  -14.9231   23.3691 C   0  0  0  0  0  0  0  0  0  0  0  0
    7.4961  -14.6051   24.4724 C   0  0  0  0  0  0  0  0  0  0  0  0
    6.8889  -15.5036   25.3556 C   0  0  0  0  0  0  0  0  0  0  0  0
    6.1592  -14.8386   26.2502 N   0  0  0  0  0  0  0  0  0  0  0  0
    6.2695  -13.5333   25.9795 C   0  0  0  0  0  0  0  0  0  0  0  0
    5.7027  -12.4500   26.6066 C   0  0  0  0  0  0  0  0  0  0  0  0
    5.9297  -11.1505   26.1679 C   0  0  0  0  0  0  0  0  0  0  0  0
    6.7455  -10.9476   25.0743 C   0  0  0  0  0  0  0  0  0  0  0  0
    7.3024  -12.0631   24.4639 C   0  0  0  0  0  0  0  0  0  0  0  0
    7.0938  -13.3584   24.8796 C   0  0  0  0  0  0  0  0  0  0  0  0
   10.0775  -16.1535   24.5616 C   0  0  0  0  0  0  0  0  0  0  0  0
   11.1759  -15.5891   24.3587 O   0  0  0  0  0  0  0  0  0  0  0  0
   10.0074  -13.6870   27.1000 C   0  0  0  0  0  0  0  0  0  0  0  0
    9.7732  -14.9295   27.8638 C   0  0  2  0  0  0  0  0  0  0  0  0
    9.4381  -14.4930   29.3194 C   0  0  0  0  0  0  0  0  0  0  0  0
   10.7887  -15.9771   27.9347 C   0  0  0  0  0  0  0  0  0  0  0  0
   10.9730  -16.8754   26.7916 C   0  0  2  0  0  0  0  0  0  0  0  0
    9.8263  -16.6798   25.8497 N   0  0  0  0  0  0  0  0  0  0  0  0
   11.0270  -18.2924   27.0706 C   0  0  0  0  0  0  0  0  0  0  0  0
   10.1183  -19.1645   26.4279 O   0  0  0  0  0  0  0  0  0  0  0  0
   11.8176  -18.8592   27.8477 O   0  0  0  0  0  0  0  0  0  0  0  0
  1  2  1  0
  2  3  1  0
  3  4  1  6
  3  5  1  0
  5  6  2  0
  5  7  1  0
  7  8  1  0
  8 19  1  0
  8  9  1  1
 10  9  1  0
 10 11  2  0
 12 11  1  0
 13 12  1  0
 14 13  2  0
 15 14  1  0
 16 15  2  0
 16 17  1  0
 17 18  2  0
 18 13  1  0
 18 10  1  0
 19 20  2  0
 22 21  1  6
 22 24  1  0
 23 22  1  0
 25 24  1  1
 26 25  1  0
 26 19  1  0
 27 28  1  0
 27 25  1  0
 29 27  2  0
M  END
$$$$
