SWL.pdb
     RDKit          3D

 29 30  0  0  1  0  0  0  0  0999 V2000
   10.2090  -16.3794   18.9790 O   0  0  0  0  0  0  0  0  0  0  0  0
   11.5732  -16.5992   19.1580 C   0  0  0  0  0  0  0  0  0  0  0  0
   11.7505  -17.3398   20.4480 C   0  0  2  0  0  0  0  0  0  0  0  0
   11.1573  -18.6384   20.3767 N   0  0  0  0  0  0  0  0  0  0  0  0
   11.2145  -16.5738   21.6136 C   0  0  0  0  0  0  0  0  0  0  0  0
   11.6428  -15.4084   21.8835 O   0  0  0  0  0  0  0  0  0  0  0  0
   10.2174  -17.1016   22.4631 N   0  0  0  0  0  0  0  0  0  0  0  0
    9.7764  -16.3478   23.6057 C   0  0  1  0  0  0  0  0  0  0  0  0
    8.2909  -16.4339   23.7663 C   0  0  0  0  0  0  0  0  0  0  0  0
    7.5545  -15.1809   23.6394 C   0  0  0  0  0  0  0  0  0  0  0  0
    6.9197  -14.6840   22.4966 C   0  0  0  0  0  0  0  0  0  0  0  0
    6.3251  -13.5246   22.7748 N   0  0  0  0  0  0  0  0  0  0  0  0
    6.5519  -13.2471   24.0635 C   0  0  0  0  0  0  0  0  0  0  0  0
    6.1577  -12.1682   24.8176 C   0  0  0  0  0  0  0  0  0  0  0  0
    6.5037  -12.0486   26.1587 C   0  0  0  0  0  0  0  0  0  0  0  0
    7.2625  -13.0408   26.7439 C   0  0  0  0  0  0  0  0  0  0  0  0
    7.6440  -14.1171   25.9545 C   0  0  0  0  0  0  0  0  0  0  0  0
    7.3137  -14.2587   24.6261 C   0  0  0  0  0  0  0  0  0  0  0  0
   10.3867  -16.9413   24.8216 C   0  0  0  0  0  0  0  0  0  0  0  0
   11.0716  -17.9826   24.7075 O   0  0  0  0  0  0  0  0  0  0  0  0
   10.7784  -13.2844   28.1629 C   0  0  0  0  0  0  0  0  0  0  0  0
   10.5961  -14.7224   28.4472 C   0  0  2  0  0  0  0  0  0  0  0  0
   10.4751  -14.8521   29.9932 C   0  0  0  0  0  0  0  0  0  0  0  0
   11.5676  -15.7133   27.9909 C   0  0  0  0  0  0  0  0  0  0  0  0
   11.1029  -16.8733   27.2255 C   0  0  2  0  0  0  0  0  0  0  0  0
   10.2312  -16.3836   26.1115 N   0  0  0  0  0  0  0  0  0  0  0  0
   10.3274  -17.8635   27.9374 C   0  0  0  0  0  0  0  0  0  0  0  0
    8.9897  -18.1105   27.5517 O   0  0  0  0  0  0  0  0  0  0  0  0
   10.7198  -18.5552   28.8954 O   0  0  0  0  0  0  0  0  0  0  0  0
  1  2  1  0
  2  3  1  0
  3  4  1  6
  3  5  1  0
  5  6  2  0
  5  7  1  0
  7  8  1  0
  8 19  1  0
  8  9  1  1
 10  9  1  0
 10 11  2  0
 12 11  1  0
 13 12  1  0
 14 13  2  0
 15 14  1  0
 16 15  2  0
 16 17  1  0
 17 18  2  0
 18 13  1  0
 18 10  1  0
 19 20  2  0
 22 21  1  1
 22 24  1  0
 23 22  1  0
 25 24  1  1
 26 25  1  0
 26 19  1  0
 27 28  1  0
 27 25  1  0
 29 27  2  0
M  END
$$$$
