SWL.pdb
     RDKit          3D

 29 30  0  0  1  0  0  0  0  0999 V2000
   10.2796  -18.0876   18.4259 O   0  0  0  0  0  0  0  0  0  0  0  0
   11.3451  -18.7959   18.9777 C   0  0  0  0  0  0  0  0  0  0  0  0
   11.0086  -19.0845   20.4086 C   0  0  2  0  0  0  0  0  0  0  0  0
    9.8794  -19.9560   20.5017 N   0  0  0  0  0  0  0  0  0  0  0  0
   10.7818  -17.8345   21.1954 C   0  0  0  0  0  0  0  0  0  0  0  0
   11.6804  -16.9398   21.2756 O   0  0  0  0  0  0  0  0  0  0  0  0
    9.5717  -17.5893   21.8808 N   0  0  0  0  0  0  0  0  0  0  0  0
    9.4560  -16.4449   22.7441 C   0  0  1  0  0  0  0  0  0  0  0  0
    8.0371  -15.9766   22.8294 C   0  0  0  0  0  0  0  0  0  0  0  0
    7.8400  -14.5781   23.1952 C   0  0  0  0  0  0  0  0  0  0  0  0
    8.2755  -13.4498   22.4928 C   0  0  0  0  0  0  0  0  0  0  0  0
    7.8811  -12.3431   23.1212 N   0  0  0  0  0  0  0  0  0  0  0  0
    7.2021  -12.7121   24.2129 C   0  0  0  0  0  0  0  0  0  0  0  0
    6.6048  -11.9443   25.1835 C   0  0  0  0  0  0  0  0  0  0  0  0
    5.9440  -12.5169   26.2642 C   0  0  0  0  0  0  0  0  0  0  0  0
    5.8886  -13.8918   26.3613 C   0  0  0  0  0  0  0  0  0  0  0  0
    6.5018  -14.6382   25.3643 C   0  0  0  0  0  0  0  0  0  0  0  0
    7.1608  -14.0953   24.2850 C   0  0  0  0  0  0  0  0  0  0  0  0
    9.8709  -16.8465   24.1115 C   0  0  0  0  0  0  0  0  0  0  0  0
   10.6955  -17.7785   24.2437 O   0  0  0  0  0  0  0  0  0  0  0  0
    9.9133  -13.8659   29.5562 C   0  0  0  0  0  0  0  0  0  0  0  0
   10.5741  -14.6769   28.5134 C   0  0  2  0  0  0  0  0  0  0  0  0
   11.9428  -13.9935   28.2279 C   0  0  0  0  0  0  0  0  0  0  0  0
    9.9263  -14.9321   27.2293 C   0  0  0  0  0  0  0  0  0  0  0  0
   10.2491  -16.1584   26.4947 C   0  0  2  0  0  0  0  0  0  0  0  0
    9.3765  -16.2229   25.2802 N   0  0  0  0  0  0  0  0  0  0  0  0
   10.0624  -17.4109   27.1910 C   0  0  0  0  0  0  0  0  0  0  0  0
    8.7604  -17.9450   27.3279 O   0  0  0  0  0  0  0  0  0  0  0  0
   10.9573  -18.1051   27.7083 O   0  0  0  0  0  0  0  0  0  0  0  0
  1  2  1  0
  2  3  1  0
  3  4  1  6
  3  5  1  0
  5  6  2  0
  5  7  1  0
  7  8  1  0
  8 19  1  0
  8  9  1  1
 10  9  1  0
 10 11  2  0
 12 11  1  0
 13 12  1  0
 14 13  2  0
 15 14  1  0
 16 15  2  0
 16 17  1  0
 17 18  2  0
 18 13  1  0
 18 10  1  0
 19 20  2  0
 22 21  1  1
 22 24  1  0
 23 22  1  0
 25 24  1  1
 26 25  1  0
 26 19  1  0
 27 28  1  0
 27 25  1  0
 29 27  2  0
M  END
$$$$
