SWL.pdb
     RDKit          3D

 29 30  0  0  1  0  0  0  0  0999 V2000
   13.2757  -18.1419   21.1851 O   0  0  0  0  0  0  0  0  0  0  0  0
   12.1280  -18.4740   20.4682 C   0  0  0  0  0  0  0  0  0  0  0  0
   11.4524  -17.1972   20.0718 C   0  0  2  0  0  0  0  0  0  0  0  0
   12.3365  -16.3646   19.3178 N   0  0  0  0  0  0  0  0  0  0  0  0
   10.9058  -16.4611   21.2517 C   0  0  0  0  0  0  0  0  0  0  0  0
   11.5021  -15.4418   21.7206 O   0  0  0  0  0  0  0  0  0  0  0  0
    9.7137  -16.8579   21.8964 N   0  0  0  0  0  0  0  0  0  0  0  0
    9.2283  -16.1136   23.0271 C   0  0  1  0  0  0  0  0  0  0  0  0
    7.7486  -16.2756   23.1828 C   0  0  0  0  0  0  0  0  0  0  0  0
    7.1216  -15.4923   24.2420 C   0  0  0  0  0  0  0  0  0  0  0  0
    6.5489  -15.9724   25.4241 C   0  0  0  0  0  0  0  0  0  0  0  0
    6.1044  -14.9544   26.1598 N   0  0  0  0  0  0  0  0  0  0  0  0
    6.3677  -13.8236   25.4957 C   0  0  0  0  0  0  0  0  0  0  0  0
    6.0992  -12.5186   25.8317 C   0  0  0  0  0  0  0  0  0  0  0  0
    6.4449  -11.4629   24.9959 C   0  0  0  0  0  0  0  0  0  0  0  0
    7.0736  -11.7367   23.7990 C   0  0  0  0  0  0  0  0  0  0  0  0
    7.3305  -13.0654   23.4897 C   0  0  0  0  0  0  0  0  0  0  0  0
    6.9991  -14.1272   24.3002 C   0  0  0  0  0  0  0  0  0  0  0  0
    9.8630  -16.6583   24.2533 C   0  0  0  0  0  0  0  0  0  0  0  0
   10.3265  -17.8206   24.2287 O   0  0  0  0  0  0  0  0  0  0  0  0
    9.1752  -13.6364   27.5806 C   0  0  0  0  0  0  0  0  0  0  0  0
    9.8864  -14.7753   28.1963 C   0  0  2  0  0  0  0  0  0  0  0  0
   10.3411  -14.2982   29.6060 C   0  0  0  0  0  0  0  0  0  0  0  0
   11.0371  -15.3924   27.5414 C   0  0  0  0  0  0  0  0  0  0  0  0
   10.8174  -16.4635   26.5657 C   0  0  2  0  0  0  0  0  0  0  0  0
    9.9705  -15.9230   25.4562 N   0  0  0  0  0  0  0  0  0  0  0  0
   10.1502  -17.6558   27.0368 C   0  0  0  0  0  0  0  0  0  0  0  0
   10.8420  -18.5540   27.8817 O   0  0  0  0  0  0  0  0  0  0  0  0
    8.9830  -17.9986   26.7716 O   0  0  0  0  0  0  0  0  0  0  0  0
  1  2  1  0
  2  3  1  0
  3  4  1  1
  3  5  1  0
  5  6  2  0
  5  7  1  0
  7  8  1  0
  8 19  1  0
  8  9  1  1
 10  9  1  0
 10 11  2  0
 12 11  1  0
 13 12  1  0
 14 13  2  0
 15 14  1  0
 16 15  2  0
 16 17  1  0
 17 18  2  0
 18 13  1  0
 18 10  1  0
 19 20  2  0
 22 21  1  6
 22 24  1  0
 23 22  1  0
 25 24  1  1
 26 25  1  0
 26 19  1  0
 27 28  1  0
 27 25  1  0
 29 27  2  0
M  END
$$$$
