SWL.pdb
     RDKit          3D

 29 30  0  0  1  0  0  0  0  0999 V2000
   13.4370  -18.2217   21.2914 O   0  0  0  0  0  0  0  0  0  0  0  0
   12.2222  -18.4766   20.6584 C   0  0  0  0  0  0  0  0  0  0  0  0
   11.6130  -17.1579   20.2925 C   0  0  2  0  0  0  0  0  0  0  0  0
   12.5583  -16.3307   19.6103 N   0  0  0  0  0  0  0  0  0  0  0  0
   11.0483  -16.4508   21.4815 C   0  0  0  0  0  0  0  0  0  0  0  0
   11.6170  -15.4208   21.9613 O   0  0  0  0  0  0  0  0  0  0  0  0
    9.8687  -16.8878   22.1234 N   0  0  0  0  0  0  0  0  0  0  0  0
    9.3277  -16.1321   23.2208 C   0  0  1  0  0  0  0  0  0  0  0  0
    7.8571  -16.3703   23.3648 C   0  0  0  0  0  0  0  0  0  0  0  0
    7.1823  -15.6211   24.4192 C   0  0  0  0  0  0  0  0  0  0  0  0
    6.4237  -16.1395   25.4735 C   0  0  0  0  0  0  0  0  0  0  0  0
    5.9919  -15.1489   26.2528 N   0  0  0  0  0  0  0  0  0  0  0  0
    6.4437  -13.9987   25.7409 C   0  0  0  0  0  0  0  0  0  0  0  0
    6.2630  -12.7073   26.1744 C   0  0  0  0  0  0  0  0  0  0  0  0
    6.8102  -11.6251   25.4947 C   0  0  0  0  0  0  0  0  0  0  0  0
    7.5531  -11.8579   24.3559 C   0  0  0  0  0  0  0  0  0  0  0  0
    7.7166  -13.1738   23.9451 C   0  0  0  0  0  0  0  0  0  0  0  0
    7.1861  -14.2613   24.6008 C   0  0  0  0  0  0  0  0  0  0  0  0
    9.9745  -16.5973   24.4731 C   0  0  0  0  0  0  0  0  0  0  0  0
   10.9592  -17.3658   24.3955 O   0  0  0  0  0  0  0  0  0  0  0  0
   11.1151  -13.4865   27.4761 C   0  0  0  0  0  0  0  0  0  0  0  0
    9.9097  -14.2590   27.8398 C   0  0  2  0  0  0  0  0  0  0  0  0
    9.3415  -13.6030   29.1315 C   0  0  0  0  0  0  0  0  0  0  0  0
    9.9738  -15.7012   28.0628 C   0  0  0  0  0  0  0  0  0  0  0  0
   10.3507  -16.5821   26.9539 C   0  0  2  0  0  0  0  0  0  0  0  0
    9.5295  -16.2117   25.7586 N   0  0  0  0  0  0  0  0  0  0  0  0
   10.1614  -18.0016   27.1478 C   0  0  0  0  0  0  0  0  0  0  0  0
    9.0826  -18.6547   26.5082 O   0  0  0  0  0  0  0  0  0  0  0  0
   10.8712  -18.7496   27.8456 O   0  0  0  0  0  0  0  0  0  0  0  0
  1  2  1  0
  2  3  1  0
  3  4  1  1
  3  5  1  0
  5  6  2  0
  5  7  1  0
  7  8  1  0
  8 19  1  0
  8  9  1  1
 10  9  1  0
 10 11  2  0
 12 11  1  0
 13 12  1  0
 14 13  2  0
 15 14  1  0
 16 15  2  0
 16 17  1  0
 17 18  2  0
 18 13  1  0
 18 10  1  0
 19 20  2  0
 22 21  1  1
 22 24  1  0
 23 22  1  0
 25 24  1  1
 26 25  1  0
 26 19  1  0
 27 28  1  0
 27 25  1  0
 29 27  2  0
M  END
$$$$
