SWL.pdb
     RDKit          3D

 29 30  0  0  1  0  0  0  0  0999 V2000
   10.0519  -17.0230   17.5723 O   0  0  0  0  0  0  0  0  0  0  0  0
   10.0932  -16.1576   18.6635 C   0  0  0  0  0  0  0  0  0  0  0  0
   10.5662  -16.9410   19.8494 C   0  0  2  0  0  0  0  0  0  0  0  0
   10.0219  -18.2627   19.8382 N   0  0  0  0  0  0  0  0  0  0  0  0
   10.2583  -16.2502   21.1381 C   0  0  0  0  0  0  0  0  0  0  0  0
   10.6966  -15.0813   21.3749 O   0  0  0  0  0  0  0  0  0  0  0  0
    9.4743  -16.8556   22.1447 N   0  0  0  0  0  0  0  0  0  0  0  0
    9.0976  -16.1022   23.3102 C   0  0  1  0  0  0  0  0  0  0  0  0
    7.7803  -16.5661   23.8482 C   0  0  0  0  0  0  0  0  0  0  0  0
    7.0199  -15.5910   24.6223 C   0  0  0  0  0  0  0  0  0  0  0  0
    5.8877  -15.8306   25.4075 C   0  0  0  0  0  0  0  0  0  0  0  0
    5.4891  -14.6993   25.9876 N   0  0  0  0  0  0  0  0  0  0  0  0
    6.3247  -13.7271   25.6058 C   0  0  0  0  0  0  0  0  0  0  0  0
    6.3299  -12.3906   25.9252 C   0  0  0  0  0  0  0  0  0  0  0  0
    7.2873  -11.5213   25.4151 C   0  0  0  0  0  0  0  0  0  0  0  0
    8.2553  -12.0169   24.5665 C   0  0  0  0  0  0  0  0  0  0  0  0
    8.2218  -13.3714   24.2642 C   0  0  0  0  0  0  0  0  0  0  0  0
    7.2858  -14.2518   24.7568 C   0  0  0  0  0  0  0  0  0  0  0  0
   10.1129  -16.3366   24.3672 C   0  0  0  0  0  0  0  0  0  0  0  0
   11.2363  -16.7796   24.0387 O   0  0  0  0  0  0  0  0  0  0  0  0
   10.5070  -13.2670   27.5344 C   0  0  0  0  0  0  0  0  0  0  0  0
    9.8616  -14.5021   28.0242 C   0  0  2  0  0  0  0  0  0  0  0  0
    9.4182  -14.2145   29.4879 C   0  0  0  0  0  0  0  0  0  0  0  0
   10.5685  -15.7803   28.0151 C   0  0  0  0  0  0  0  0  0  0  0  0
   10.9475  -16.3809   26.7332 C   0  0  2  0  0  0  0  0  0  0  0  0
    9.8713  -16.0818   25.7369 N   0  0  0  0  0  0  0  0  0  0  0  0
   11.1326  -17.8139   26.7072 C   0  0  0  0  0  0  0  0  0  0  0  0
   12.3026  -18.3759   27.2682 O   0  0  0  0  0  0  0  0  0  0  0  0
   10.3444  -18.6485   26.2252 O   0  0  0  0  0  0  0  0  0  0  0  0
  1  2  1  0
  2  3  1  0
  3  4  1  1
  3  5  1  0
  5  6  2  0
  5  7  1  0
  7  8  1  0
  8 19  1  0
  8  9  1  1
 10  9  1  0
 10 11  2  0
 12 11  1  0
 13 12  1  0
 14 13  2  0
 15 14  1  0
 16 15  2  0
 16 17  1  0
 17 18  2  0
 18 13  1  0
 18 10  1  0
 19 20  2  0
 22 21  1  1
 22 24  1  0
 23 22  1  0
 25 24  1  1
 26 25  1  0
 26 19  1  0
 27 28  1  0
 27 25  1  0
 29 27  2  0
M  END
$$$$
