SWL.pdb
     RDKit          3D

 29 30  0  0  1  0  0  0  0  0999 V2000
    7.2191  -21.3640   24.1634 O   0  0  0  0  0  0  0  0  0  0  0  0
    8.0813  -20.2696   24.1511 C   0  0  0  0  0  0  0  0  0  0  0  0
    7.9926  -19.6343   22.7974 C   0  0  2  0  0  0  0  0  0  0  0  0
    8.3273  -20.5712   21.7709 N   0  0  0  0  0  0  0  0  0  0  0  0
    8.8409  -18.4085   22.6955 C   0  0  0  0  0  0  0  0  0  0  0  0
    9.9817  -18.4468   22.1373 O   0  0  0  0  0  0  0  0  0  0  0  0
    8.4215  -17.1617   23.2092 N   0  0  0  0  0  0  0  0  0  0  0  0
    9.2487  -15.9986   23.0325 C   0  0  1  0  0  0  0  0  0  0  0  0
    8.4347  -14.7444   23.0986 C   0  0  0  0  0  0  0  0  0  0  0  0
    7.6544  -14.5450   24.3151 C   0  0  0  0  0  0  0  0  0  0  0  0
    7.1320  -15.5318   25.1572 C   0  0  0  0  0  0  0  0  0  0  0  0
    6.5030  -14.9651   26.1859 N   0  0  0  0  0  0  0  0  0  0  0  0
    6.5969  -13.6385   26.0427 C   0  0  0  0  0  0  0  0  0  0  0  0
    6.1066  -12.6276   26.8337 C   0  0  0  0  0  0  0  0  0  0  0  0
    6.2995  -11.2890   26.5118 C   0  0  0  0  0  0  0  0  0  0  0  0
    7.0018  -10.9716   25.3678 C   0  0  0  0  0  0  0  0  0  0  0  0
    7.4837  -12.0163   24.5910 C   0  0  0  0  0  0  0  0  0  0  0  0
    7.3068  -13.3482   24.8887 C   0  0  0  0  0  0  0  0  0  0  0  0
   10.2285  -15.9478   24.1462 C   0  0  0  0  0  0  0  0  0  0  0  0
   11.0914  -15.0413   24.1513 O   0  0  0  0  0  0  0  0  0  0  0  0
    8.5017  -14.2774   28.0542 C   0  0  0  0  0  0  0  0  0  0  0  0
    9.2915  -15.4945   27.7772 C   0  0  2  0  0  0  0  0  0  0  0  0
    9.5284  -16.1858   29.1512 C   0  0  0  0  0  0  0  0  0  0  0  0
   10.5767  -15.4219   27.0867 C   0  0  0  0  0  0  0  0  0  0  0  0
   11.0930  -16.6125   26.4060 C   0  0  2  0  0  0  0  0  0  0  0  0
   10.2346  -16.8799   25.2094 N   0  0  0  0  0  0  0  0  0  0  0  0
   11.1214  -17.8429   27.1636 C   0  0  0  0  0  0  0  0  0  0  0  0
   12.0449  -17.9871   28.2246 O   0  0  0  0  0  0  0  0  0  0  0  0
   10.3932  -18.8361   26.9806 O   0  0  0  0  0  0  0  0  0  0  0  0
  1  2  1  0
  2  3  1  0
  3  4  1  6
  3  5  1  0
  5  6  2  0
  5  7  1  0
  7  8  1  0
  8 19  1  0
  8  9  1  1
 10  9  1  0
 10 11  2  0
 12 11  1  0
 13 12  1  0
 14 13  2  0
 15 14  1  0
 16 15  2  0
 16 17  1  0
 17 18  2  0
 18 13  1  0
 18 10  1  0
 19 20  2  0
 22 21  1  1
 22 24  1  0
 23 22  1  0
 25 24  1  1
 26 25  1  0
 26 19  1  0
 27 28  1  0
 27 25  1  0
 29 27  2  0
M  END
$$$$
