SWL.pdb
     RDKit          3D

 29 30  0  0  1  0  0  0  0  0999 V2000
   13.3762  -18.0419   22.0319 O   0  0  0  0  0  0  0  0  0  0  0  0
   12.3791  -18.3589   21.1117 C   0  0  0  0  0  0  0  0  0  0  0  0
   11.7729  -17.0745   20.6355 C   0  0  2  0  0  0  0  0  0  0  0  0
   12.7562  -16.2470   20.0097 N   0  0  0  0  0  0  0  0  0  0  0  0
   11.0808  -16.3380   21.7362 C   0  0  0  0  0  0  0  0  0  0  0  0
   11.5991  -15.3013   22.2567 O   0  0  0  0  0  0  0  0  0  0  0  0
    9.8313  -16.7536   22.2464 N   0  0  0  0  0  0  0  0  0  0  0  0
    9.2781  -16.1047   23.4044 C   0  0  1  0  0  0  0  0  0  0  0  0
    7.8010  -16.3292   23.4928 C   0  0  0  0  0  0  0  0  0  0  0  0
    7.1096  -15.6520   24.5844 C   0  0  0  0  0  0  0  0  0  0  0  0
    6.4263  -16.2449   25.6510 C   0  0  0  0  0  0  0  0  0  0  0  0
    5.9504  -15.3039   26.4652 N   0  0  0  0  0  0  0  0  0  0  0  0
    6.3002  -14.1140   25.9643 C   0  0  0  0  0  0  0  0  0  0  0  0
    6.0411  -12.8480   26.4315 C   0  0  0  0  0  0  0  0  0  0  0  0
    6.4854  -11.7156   25.7583 C   0  0  0  0  0  0  0  0  0  0  0  0
    7.2044  -11.8712   24.5915 C   0  0  0  0  0  0  0  0  0  0  0  0
    7.4489  -13.1634   24.1470 C   0  0  0  0  0  0  0  0  0  0  0  0
    7.0210  -14.2993   24.7955 C   0  0  0  0  0  0  0  0  0  0  0  0
    9.8891  -16.7076   24.6153 C   0  0  0  0  0  0  0  0  0  0  0  0
   10.5916  -17.7357   24.4897 O   0  0  0  0  0  0  0  0  0  0  0  0
   10.6527  -13.6583   27.6261 C   0  0  0  0  0  0  0  0  0  0  0  0
    9.7116  -14.6662   28.1555 C   0  0  2  0  0  0  0  0  0  0  0  0
    9.2776  -14.1644   29.5632 C   0  0  0  0  0  0  0  0  0  0  0  0
   10.0973  -16.0695   28.2814 C   0  0  0  0  0  0  0  0  0  0  0  0
   10.3822  -16.8460   27.0717 C   0  0  2  0  0  0  0  0  0  0  0  0
    9.7152  -16.1734   25.9128 N   0  0  0  0  0  0  0  0  0  0  0  0
    9.9346  -18.2200   27.0513 C   0  0  0  0  0  0  0  0  0  0  0  0
   10.6022  -19.1824   27.8433 O   0  0  0  0  0  0  0  0  0  0  0  0
    8.9855  -18.6743   26.3857 O   0  0  0  0  0  0  0  0  0  0  0  0
  1  2  1  0
  2  3  1  0
  3  4  1  1
  3  5  1  0
  5  6  2  0
  5  7  1  0
  7  8  1  0
  8 19  1  0
  8  9  1  1
 10  9  1  0
 10 11  2  0
 12 11  1  0
 13 12  1  0
 14 13  2  0
 15 14  1  0
 16 15  2  0
 16 17  1  0
 17 18  2  0
 18 13  1  0
 18 10  1  0
 19 20  2  0
 22 21  1  1
 22 24  1  0
 23 22  1  0
 25 24  1  1
 26 25  1  0
 26 19  1  0
 27 28  1  0
 27 25  1  0
 29 27  2  0
M  END
$$$$
