CGQ.pdb
     RDKit          3D

 20 19  0  0  1  0  0  0  0  0999 V2000
    6.9097  -16.2069   22.1655 N   0  0  0  0  0  0  0  0  0  0  0  0
    7.5419  -15.5504   21.0508 C   0  0  1  0  0  0  0  0  0  0  0  0
    6.9927  -14.1232   20.9472 C   0  0  0  0  0  0  0  0  0  0  0  0
    7.6178  -13.2829   19.4926 S   0  0  0  0  0  0  0  0  0  0  0  0
    9.0148  -15.5451   21.2472 C   0  0  0  0  0  0  0  0  0  0  0  0
    9.7867  -15.2951   20.2709 O   0  0  0  0  0  0  0  0  0  0  0  0
    9.5723  -15.8227   22.5424 N   0  0  0  0  0  0  0  0  0  0  0  0
   10.9988  -15.7403   22.6709 C   0  0  0  0  0  0  0  0  0  0  0  0
   11.5272  -16.1800   23.9646 C   0  0  0  0  0  0  0  0  0  0  0  0
   12.7863  -16.1169   24.2098 O   0  0  0  0  0  0  0  0  0  0  0  0
   10.2425  -12.8861   28.8488 N   0  0  0  0  0  0  0  0  0  0  0  0
    9.6835  -13.9664   28.0910 C   0  0  0  0  0  0  0  0  0  0  0  0
    8.4740  -14.2673   28.1986 O   0  0  0  0  0  0  0  0  0  0  0  0
   10.5848  -14.7124   27.1794 C   0  0  0  0  0  0  0  0  0  0  0  0
   10.5505  -16.1863   27.3486 C   0  0  0  0  0  0  0  0  0  0  0  0
   11.3579  -16.9781   26.3625 C   0  0  2  0  0  0  0  0  0  0  0  0
   10.7687  -16.6995   25.0469 N   0  0  0  0  0  0  0  0  0  0  0  0
   11.3230  -18.4280   26.6119 C   0  0  0  0  0  0  0  0  0  0  0  0
   10.7013  -19.1779   25.8388 O   0  0  0  0  0  0  0  0  0  0  0  0
   11.9741  -18.9627   27.6961 O   0  0  0  0  0  0  0  0  0  0  0  0
  2  3  1  0
  2  1  1  1
  4  3  1  0
  5  6  2  0
  5  2  1  0
  7  5  1  0
  8  9  1  0
  8  7  1  0
  9 10  2  0
 11 12  1  0
 12 14  1  0
 12 13  2  0
 14 15  1  0
 16 15  1  1
 17 16  1  0
 17  9  1  0
 18 20  1  0
 18 16  1  0
 19 18  2  0
M  END
$$$$
