CGQ.pdb
     RDKit          3D

 20 19  0  0  1  0  0  0  0  0999 V2000
    6.8921  -18.8075   19.9509 N   0  0  0  0  0  0  0  0  0  0  0  0
    6.4128  -17.5088   20.3468 C   0  0  1  0  0  0  0  0  0  0  0  0
    5.5234  -17.6713   21.5845 C   0  0  0  0  0  0  0  0  0  0  0  0
    4.8426  -19.3260   21.6913 S   0  0  0  0  0  0  0  0  0  0  0  0
    7.5678  -16.6177   20.6298 C   0  0  0  0  0  0  0  0  0  0  0  0
    7.3754  -15.3938   20.9061 O   0  0  0  0  0  0  0  0  0  0  0  0
    8.9074  -17.1369   20.5922 N   0  0  0  0  0  0  0  0  0  0  0  0
    9.9757  -16.2047   20.8112 C   0  0  0  0  0  0  0  0  0  0  0  0
   10.2556  -15.9080   22.2183 C   0  0  0  0  0  0  0  0  0  0  0  0
   11.3093  -15.2525   22.5490 O   0  0  0  0  0  0  0  0  0  0  0  0
    5.9942  -12.8936   25.8261 N   0  0  0  0  0  0  0  0  0  0  0  0
    6.4955  -14.2301   25.6998 C   0  0  0  0  0  0  0  0  0  0  0  0
    5.8374  -15.2053   26.1250 O   0  0  0  0  0  0  0  0  0  0  0  0
    7.8164  -14.4162   25.0511 C   0  0  0  0  0  0  0  0  0  0  0  0
    8.5102  -15.6763   25.4157 C   0  0  0  0  0  0  0  0  0  0  0  0
    9.8091  -15.9367   24.7113 C   0  0  2  0  0  0  0  0  0  0  0  0
    9.4533  -16.2807   23.3291 N   0  0  0  0  0  0  0  0  0  0  0  0
   10.5810  -17.0415   25.3023 C   0  0  0  0  0  0  0  0  0  0  0  0
   10.6037  -18.1530   24.7449 O   0  0  0  0  0  0  0  0  0  0  0  0
   11.2796  -16.8550   26.4695 O   0  0  0  0  0  0  0  0  0  0  0  0
  2  3  1  0
  2  1  1  1
  4  3  1  0
  5  6  2  0
  5  2  1  0
  7  5  1  0
  8  9  1  0
  8  7  1  0
  9 10  2  0
 11 12  1  0
 12 14  1  0
 12 13  2  0
 14 15  1  0
 16 15  1  1
 17 16  1  0
 17  9  1  0
 18 20  1  0
 18 16  1  0
 19 18  2  0
M  END
$$$$
