CGQ.pdb
     RDKit          3D

 20 19  0  0  1  0  0  0  0  0999 V2000
    8.3430  -14.7907   17.4277 N   0  0  0  0  0  0  0  0  0  0  0  0
    8.6623  -14.2591   18.7271 C   0  0  1  0  0  0  0  0  0  0  0  0
    7.8635  -12.9681   18.9380 C   0  0  0  0  0  0  0  0  0  0  0  0
    8.4569  -11.6484   17.8801 S   0  0  0  0  0  0  0  0  0  0  0  0
    8.3378  -15.2667   19.7699 C   0  0  0  0  0  0  0  0  0  0  0  0
    7.6590  -16.2969   19.4709 O   0  0  0  0  0  0  0  0  0  0  0  0
    8.7904  -15.0801   21.1211 N   0  0  0  0  0  0  0  0  0  0  0  0
    8.5297  -16.1420   22.0499 C   0  0  0  0  0  0  0  0  0  0  0  0
    9.0860  -15.9388   23.3898 C   0  0  0  0  0  0  0  0  0  0  0  0
   10.2982  -15.5417   23.5389 O   0  0  0  0  0  0  0  0  0  0  0  0
    5.8382  -13.0632   27.3430 N   0  0  0  0  0  0  0  0  0  0  0  0
    6.6476  -12.5485   26.2783 C   0  0  0  0  0  0  0  0  0  0  0  0
    6.4407  -11.4076   25.8088 O   0  0  0  0  0  0  0  0  0  0  0  0
    7.7340  -13.4119   25.7543 C   0  0  0  0  0  0  0  0  0  0  0  0
    7.8636  -14.7227   26.4378 C   0  0  0  0  0  0  0  0  0  0  0  0
    8.9215  -15.6405   25.8996 C   0  0  2  0  0  0  0  0  0  0  0  0
    8.4049  -16.1402   24.6195 N   0  0  0  0  0  0  0  0  0  0  0  0
    9.2085  -16.7807   26.7846 C   0  0  0  0  0  0  0  0  0  0  0  0
    8.6974  -17.8910   26.5552 O   0  0  0  0  0  0  0  0  0  0  0  0
   10.0398  -16.6287   27.8669 O   0  0  0  0  0  0  0  0  0  0  0  0
  2  3  1  0
  2  1  1  6
  4  3  1  0
  5  6  2  0
  5  2  1  0
  7  5  1  0
  8  9  1  0
  8  7  1  0
  9 10  2  0
 11 12  1  0
 12 14  1  0
 12 13  2  0
 14 15  1  0
 16 15  1  1
 17 16  1  0
 17  9  1  0
 18 20  1  0
 18 16  1  0
 19 18  2  0
M  END
$$$$
