CGQ.pdb
     RDKit          3D

 20 19  0  0  1  0  0  0  0  0999 V2000
    9.6454  -13.2261   20.0745 N   0  0  0  0  0  0  0  0  0  0  0  0
    8.3855  -13.9030   20.2408 C   0  0  1  0  0  0  0  0  0  0  0  0
    7.5587  -13.7197   18.9633 C   0  0  0  0  0  0  0  0  0  0  0  0
    8.1207  -12.3068   18.0143 S   0  0  0  0  0  0  0  0  0  0  0  0
    8.6275  -15.3421   20.5210 C   0  0  0  0  0  0  0  0  0  0  0  0
    7.6479  -16.1345   20.6757 O   0  0  0  0  0  0  0  0  0  0  0  0
    9.9709  -15.8436   20.6180 N   0  0  0  0  0  0  0  0  0  0  0  0
   10.1568  -17.0821   21.3178 C   0  0  0  0  0  0  0  0  0  0  0  0
   10.5672  -16.9432   22.7173 C   0  0  0  0  0  0  0  0  0  0  0  0
   11.4390  -16.0633   23.0566 O   0  0  0  0  0  0  0  0  0  0  0  0
    6.2027  -16.9646   24.5384 N   0  0  0  0  0  0  0  0  0  0  0  0
    6.8350  -15.6914   24.7191 C   0  0  0  0  0  0  0  0  0  0  0  0
    6.2613  -14.6350   24.3729 O   0  0  0  0  0  0  0  0  0  0  0  0
    8.1877  -15.6697   25.3274 C   0  0  0  0  0  0  0  0  0  0  0  0
    8.7476  -17.0095   25.6332 C   0  0  0  0  0  0  0  0  0  0  0  0
   10.1653  -17.2416   25.2001 C   0  0  2  0  0  0  0  0  0  0  0  0
   10.0881  -17.7114   23.8113 N   0  0  0  0  0  0  0  0  0  0  0  0
   10.8655  -18.2482   26.0139 C   0  0  0  0  0  0  0  0  0  0  0  0
   10.9697  -19.4175   25.6037 O   0  0  0  0  0  0  0  0  0  0  0  0
   11.4075  -17.9058   27.2281 O   0  0  0  0  0  0  0  0  0  0  0  0
  2  3  1  0
  2  1  1  6
  4  3  1  0
  5  6  2  0
  5  2  1  0
  7  5  1  0
  8  9  1  0
  8  7  1  0
  9 10  2  0
 11 12  1  0
 12 14  1  0
 12 13  2  0
 14 15  1  0
 16 15  1  1
 17 16  1  0
 17  9  1  0
 18 20  1  0
 18 16  1  0
 19 18  2  0
M  END
$$$$
