CGQ.pdb
     RDKit          3D

 20 19  0  0  1  0  0  0  0  0999 V2000
    9.7644  -14.4961   18.0446 N   0  0  0  0  0  0  0  0  0  0  0  0
    8.9039  -13.6395   18.8185 C   0  0  1  0  0  0  0  0  0  0  0  0
    7.7181  -13.2173   17.9438 C   0  0  0  0  0  0  0  0  0  0  0  0
    7.7797  -13.9991   16.3321 S   0  0  0  0  0  0  0  0  0  0  0  0
    8.4440  -14.3626   20.0324 C   0  0  0  0  0  0  0  0  0  0  0  0
    7.7022  -13.7771   20.8799 O   0  0  0  0  0  0  0  0  0  0  0  0
    8.8366  -15.7274   20.2529 N   0  0  0  0  0  0  0  0  0  0  0  0
    8.3722  -16.3544   21.4568 C   0  0  0  0  0  0  0  0  0  0  0  0
    8.8498  -15.7372   22.6966 C   0  0  0  0  0  0  0  0  0  0  0  0
   10.0875  -15.4226   22.8332 O   0  0  0  0  0  0  0  0  0  0  0  0
    5.2751  -12.4171   26.4925 N   0  0  0  0  0  0  0  0  0  0  0  0
    6.5401  -12.1894   27.1261 C   0  0  0  0  0  0  0  0  0  0  0  0
    6.6498  -11.3682   28.0635 O   0  0  0  0  0  0  0  0  0  0  0  0
    7.7098  -12.9572   26.6336 C   0  0  0  0  0  0  0  0  0  0  0  0
    7.4202  -13.8540   25.4873 C   0  0  0  0  0  0  0  0  0  0  0  0
    8.5814  -14.6499   24.9683 C   0  0  2  0  0  0  0  0  0  0  0  0
    8.0612  -15.4256   23.8356 N   0  0  0  0  0  0  0  0  0  0  0  0
    9.1490  -15.5706   25.9662 C   0  0  0  0  0  0  0  0  0  0  0  0
    9.9947  -15.1612   26.7809 O   0  0  0  0  0  0  0  0  0  0  0  0
    8.7510  -16.8841   26.0059 O   0  0  0  0  0  0  0  0  0  0  0  0
  2  3  1  0
  2  1  1  6
  4  3  1  0
  5  6  2  0
  5  2  1  0
  7  5  1  0
  8  9  1  0
  8  7  1  0
  9 10  2  0
 11 12  1  0
 12 14  1  0
 12 13  2  0
 14 15  1  0
 16 15  1  1
 17 16  1  0
 17  9  1  0
 18 20  1  0
 18 16  1  0
 19 18  2  0
M  END
$$$$
