CGQ.pdb
     RDKit          3D

 20 19  0  0  1  0  0  0  0  0999 V2000
   10.1730  -12.9693   19.1190 N   0  0  0  0  0  0  0  0  0  0  0  0
    8.8459  -12.9300   19.6764 C   0  0  1  0  0  0  0  0  0  0  0  0
    7.8314  -13.0654   18.5355 C   0  0  0  0  0  0  0  0  0  0  0  0
    8.0659  -14.5919   17.6258 S   0  0  0  0  0  0  0  0  0  0  0  0
    8.6896  -14.0275   20.6659 C   0  0  0  0  0  0  0  0  0  0  0  0
    7.6185  -14.1301   21.3394 O   0  0  0  0  0  0  0  0  0  0  0  0
    9.7495  -14.9774   20.8651 N   0  0  0  0  0  0  0  0  0  0  0  0
    9.5036  -16.0459   21.7903 C   0  0  0  0  0  0  0  0  0  0  0  0
    9.8837  -15.7605   23.1761 C   0  0  0  0  0  0  0  0  0  0  0  0
   10.9920  -15.1672   23.4389 O   0  0  0  0  0  0  0  0  0  0  0  0
    6.6206  -11.3925   27.1658 N   0  0  0  0  0  0  0  0  0  0  0  0
    6.5215  -12.7565   26.7379 C   0  0  0  0  0  0  0  0  0  0  0  0
    5.4298  -13.2305   26.3527 O   0  0  0  0  0  0  0  0  0  0  0  0
    7.7526  -13.5834   26.7682 C   0  0  0  0  0  0  0  0  0  0  0  0
    7.9303  -14.4679   25.5899 C   0  0  0  0  0  0  0  0  0  0  0  0
    9.1914  -15.2803   25.5647 C   0  0  2  0  0  0  0  0  0  0  0  0
    9.1282  -16.0801   24.3352 N   0  0  0  0  0  0  0  0  0  0  0  0
    9.3281  -16.1797   26.7214 C   0  0  0  0  0  0  0  0  0  0  0  0
    9.6219  -15.7176   27.8380 O   0  0  0  0  0  0  0  0  0  0  0  0
    9.1331  -17.5313   26.5779 O   0  0  0  0  0  0  0  0  0  0  0  0
  2  3  1  0
  2  1  1  6
  4  3  1  0
  5  6  2  0
  5  2  1  0
  7  5  1  0
  8  9  1  0
  8  7  1  0
  9 10  2  0
 11 12  1  0
 12 14  1  0
 12 13  2  0
 14 15  1  0
 16 15  1  1
 17 16  1  0
 17  9  1  0
 18 20  1  0
 18 16  1  0
 19 18  2  0
M  END
$$$$
