CGQ.pdb
     RDKit          3D

 20 19  0  0  1  0  0  0  0  0999 V2000
    9.1441  -14.8721   19.1638 N   0  0  0  0  0  0  0  0  0  0  0  0
    8.5841  -13.8364   19.9926 C   0  0  1  0  0  0  0  0  0  0  0  0
    7.3765  -13.2298   19.2695 C   0  0  0  0  0  0  0  0  0  0  0  0
    7.7729  -12.8015   17.5747 S   0  0  0  0  0  0  0  0  0  0  0  0
    8.1905  -14.4091   21.3060 C   0  0  0  0  0  0  0  0  0  0  0  0
    7.7125  -13.6581   22.2109 O   0  0  0  0  0  0  0  0  0  0  0  0
    8.3488  -15.8151   21.5580 N   0  0  0  0  0  0  0  0  0  0  0  0
    8.0852  -16.2735   22.8916 C   0  0  0  0  0  0  0  0  0  0  0  0
    8.9565  -15.7037   23.9224 C   0  0  0  0  0  0  0  0  0  0  0  0
    9.9374  -14.9409   23.5978 O   0  0  0  0  0  0  0  0  0  0  0  0
    6.1644  -11.6003   27.0642 N   0  0  0  0  0  0  0  0  0  0  0  0
    6.7309  -12.6580   26.2808 C   0  0  0  0  0  0  0  0  0  0  0  0
    6.4347  -12.7914   25.0727 O   0  0  0  0  0  0  0  0  0  0  0  0
    7.6760  -13.5855   26.9492 C   0  0  0  0  0  0  0  0  0  0  0  0
    8.9825  -13.7357   26.2615 C   0  0  0  0  0  0  0  0  0  0  0  0
    9.5899  -15.1070   26.3010 C   0  0  2  0  0  0  0  0  0  0  0  0
    8.8404  -15.9055   25.3232 N   0  0  0  0  0  0  0  0  0  0  0  0
    9.4970  -15.7474   27.6227 C   0  0  0  0  0  0  0  0  0  0  0  0
    8.7541  -16.7311   27.7871 O   0  0  0  0  0  0  0  0  0  0  0  0
   10.2270  -15.2659   28.6813 O   0  0  0  0  0  0  0  0  0  0  0  0
  2  3  1  0
  2  1  1  6
  4  3  1  0
  5  6  2  0
  5  2  1  0
  7  5  1  0
  8  9  1  0
  8  7  1  0
  9 10  2  0
 11 12  1  0
 12 14  1  0
 12 13  2  0
 14 15  1  0
 16 15  1  1
 17 16  1  0
 17  9  1  0
 18 20  1  0
 18 16  1  0
 19 18  2  0
M  END
$$$$
