CGQ.pdb
     RDKit          3D

 20 19  0  0  1  0  0  0  0  0999 V2000
    7.6364  -14.5867   18.5278 N   0  0  0  0  0  0  0  0  0  0  0  0
    8.5786  -14.2625   19.5672 C   0  0  1  0  0  0  0  0  0  0  0  0
    8.2132  -12.8926   20.1497 C   0  0  0  0  0  0  0  0  0  0  0  0
    8.4769  -11.5805   18.9573 S   0  0  0  0  0  0  0  0  0  0  0  0
    8.5458  -15.3163   20.6143 C   0  0  0  0  0  0  0  0  0  0  0  0
    7.4454  -15.6396   21.1584 O   0  0  0  0  0  0  0  0  0  0  0  0
    9.7587  -15.9743   21.0159 N   0  0  0  0  0  0  0  0  0  0  0  0
    9.6657  -16.9130   22.0968 C   0  0  0  0  0  0  0  0  0  0  0  0
   10.4451  -16.5618   23.2865 C   0  0  0  0  0  0  0  0  0  0  0  0
   11.5705  -15.9538   23.1722 O   0  0  0  0  0  0  0  0  0  0  0  0
    8.7903  -13.8053   28.2587 N   0  0  0  0  0  0  0  0  0  0  0  0
   10.0285  -14.3006   28.7833 C   0  0  0  0  0  0  0  0  0  0  0  0
   10.4076  -13.9906   29.9344 O   0  0  0  0  0  0  0  0  0  0  0  0
   10.8417  -15.1891   27.9175 C   0  0  0  0  0  0  0  0  0  0  0  0
   10.1584  -15.6362   26.6784 C   0  0  0  0  0  0  0  0  0  0  0  0
   10.9647  -16.5118   25.7649 C   0  0  2  0  0  0  0  0  0  0  0  0
   10.0843  -16.8289   24.6337 N   0  0  0  0  0  0  0  0  0  0  0  0
   11.4083  -17.7633   26.3995 C   0  0  0  0  0  0  0  0  0  0  0  0
   10.7211  -18.7941   26.2906 O   0  0  0  0  0  0  0  0  0  0  0  0
   12.5800  -17.8031   27.1142 O   0  0  0  0  0  0  0  0  0  0  0  0
  2  3  1  0
  2  1  1  6
  4  3  1  0
  5  6  2  0
  5  2  1  0
  7  5  1  0
  8  9  1  0
  8  7  1  0
  9 10  2  0
 11 12  1  0
 12 14  1  0
 12 13  2  0
 14 15  1  0
 16 15  1  1
 17 16  1  0
 17  9  1  0
 18 20  1  0
 18 16  1  0
 19 18  2  0
M  END
$$$$
