CGQ.pdb
     RDKit          3D

 20 19  0  0  1  0  0  0  0  0999 V2000
    9.0057  -18.7192   19.4364 N   0  0  0  0  0  0  0  0  0  0  0  0
    8.1541  -17.6091   19.0960 C   0  0  1  0  0  0  0  0  0  0  0  0
    6.9922  -18.1273   18.2413 C   0  0  0  0  0  0  0  0  0  0  0  0
    5.8677  -19.1374   19.2046 S   0  0  0  0  0  0  0  0  0  0  0  0
    7.6588  -16.9631   20.3391 C   0  0  0  0  0  0  0  0  0  0  0  0
    7.3452  -17.6723   21.3442 O   0  0  0  0  0  0  0  0  0  0  0  0
    7.5324  -15.5332   20.4097 N   0  0  0  0  0  0  0  0  0  0  0  0
    6.9551  -14.9866   21.6038 C   0  0  0  0  0  0  0  0  0  0  0  0
    7.8706  -14.8935   22.7438 C   0  0  0  0  0  0  0  0  0  0  0  0
    9.1384  -14.8115   22.5565 O   0  0  0  0  0  0  0  0  0  0  0  0
    6.5580  -12.0613   27.9921 N   0  0  0  0  0  0  0  0  0  0  0  0
    6.3151  -11.7885   26.6064 C   0  0  0  0  0  0  0  0  0  0  0  0
    5.5794  -10.8383   26.2588 O   0  0  0  0  0  0  0  0  0  0  0  0
    6.9626  -12.6685   25.6032 C   0  0  0  0  0  0  0  0  0  0  0  0
    7.7876  -13.7586   26.1805 C   0  0  0  0  0  0  0  0  0  0  0  0
    8.4745  -14.6543   25.1919 C   0  0  2  0  0  0  0  0  0  0  0  0
    7.5027  -14.8824   24.1153 N   0  0  0  0  0  0  0  0  0  0  0  0
    8.8788  -15.9492   25.7622 C   0  0  0  0  0  0  0  0  0  0  0  0
    9.8780  -16.0202   26.4992 O   0  0  0  0  0  0  0  0  0  0  0  0
    8.1590  -17.0855   25.4863 O   0  0  0  0  0  0  0  0  0  0  0  0
  2  3  1  0
  2  1  1  1
  4  3  1  0
  5  6  2  0
  5  2  1  0
  7  5  1  0
  8  9  1  0
  8  7  1  0
  9 10  2  0
 11 12  1  0
 12 14  1  0
 12 13  2  0
 14 15  1  0
 16 15  1  1
 17 16  1  0
 17  9  1  0
 18 20  1  0
 18 16  1  0
 19 18  2  0
M  END
$$$$
