CGQ.pdb
     RDKit          3D

 20 19  0  0  1  0  0  0  0  0999 V2000
    3.1210  -19.3355   18.7923 N   0  0  0  0  0  0  0  0  0  0  0  0
    3.3397  -18.6315   20.0292 C   0  0  1  0  0  0  0  0  0  0  0  0
    1.9792  -18.3181   20.6615 C   0  0  0  0  0  0  0  0  0  0  0  0
    1.0528  -19.8143   21.0018 S   0  0  0  0  0  0  0  0  0  0  0  0
    4.1726  -19.4648   20.9347 C   0  0  0  0  0  0  0  0  0  0  0  0
    4.3278  -20.7023   20.6985 O   0  0  0  0  0  0  0  0  0  0  0  0
    4.8061  -18.8741   22.0816 N   0  0  0  0  0  0  0  0  0  0  0  0
    5.5414  -19.7518   22.9460 C   0  0  0  0  0  0  0  0  0  0  0  0
    6.1806  -19.0966   24.0899 C   0  0  0  0  0  0  0  0  0  0  0  0
    5.9161  -17.8716   24.3707 O   0  0  0  0  0  0  0  0  0  0  0  0
    9.1675  -21.7873   28.9344 N   0  0  0  0  0  0  0  0  0  0  0  0
    8.5092  -20.6334   29.4717 C   0  0  0  0  0  0  0  0  0  0  0  0
    8.4015  -20.4735   30.7078 O   0  0  0  0  0  0  0  0  0  0  0  0
    7.9617  -19.6402   28.5158 C   0  0  0  0  0  0  0  0  0  0  0  0
    8.1561  -19.9882   27.0863 C   0  0  0  0  0  0  0  0  0  0  0  0
    7.7221  -18.9497   26.0942 C   0  0  2  0  0  0  0  0  0  0  0  0
    7.1147  -19.6887   24.9805 N   0  0  0  0  0  0  0  0  0  0  0  0
    8.8336  -18.1314   25.5838 C   0  0  0  0  0  0  0  0  0  0  0  0
    9.3259  -18.3762   24.4683 O   0  0  0  0  0  0  0  0  0  0  0  0
    9.3344  -17.0947   26.3320 O   0  0  0  0  0  0  0  0  0  0  0  0
  2  3  1  0
  2  1  1  6
  4  3  1  0
  5  6  2  0
  5  2  1  0
  7  5  1  0
  8  9  1  0
  8  7  1  0
  9 10  2  0
 11 12  1  0
 12 14  1  0
 12 13  2  0
 14 15  1  0
 16 15  1  1
 17 16  1  0
 17  9  1  0
 18 20  1  0
 18 16  1  0
 19 18  2  0
M  END
$$$$
