CGQ.pdb
     RDKit          3D

 20 19  0  0  1  0  0  0  0  0999 V2000
    7.5496  -13.5098   26.7944 N   0  0  0  0  0  0  0  0  0  0  0  0
    6.6400  -13.5686   25.6797 C   0  0  1  0  0  0  0  0  0  0  0  0
    6.1083  -12.1573   25.4065 C   0  0  0  0  0  0  0  0  0  0  0  0
    5.1934  -11.5173   26.8088 S   0  0  0  0  0  0  0  0  0  0  0  0
    7.3448  -14.1154   24.4913 C   0  0  0  0  0  0  0  0  0  0  0  0
    6.6997  -14.7622   23.6099 O   0  0  0  0  0  0  0  0  0  0  0  0
    8.7592  -13.9149   24.3341 N   0  0  0  0  0  0  0  0  0  0  0  0
    9.4174  -14.6769   23.3122 C   0  0  0  0  0  0  0  0  0  0  0  0
   10.1447  -15.8539   23.7936 C   0  0  0  0  0  0  0  0  0  0  0  0
   11.1554  -16.3065   23.1432 O   0  0  0  0  0  0  0  0  0  0  0  0
   10.2607  -13.6130   28.9289 N   0  0  0  0  0  0  0  0  0  0  0  0
   10.7043  -14.9594   28.7193 C   0  0  0  0  0  0  0  0  0  0  0  0
   10.9081  -15.7259   29.6867 O   0  0  0  0  0  0  0  0  0  0  0  0
   10.9130  -15.4105   27.3217 C   0  0  0  0  0  0  0  0  0  0  0  0
   10.7873  -16.8755   27.1215 C   0  0  0  0  0  0  0  0  0  0  0  0
   10.8724  -17.3525   25.7015 C   0  0  2  0  0  0  0  0  0  0  0  0
    9.8489  -16.6009   24.9645 N   0  0  0  0  0  0  0  0  0  0  0  0
   10.6146  -18.7939   25.5548 C   0  0  0  0  0  0  0  0  0  0  0  0
    9.5901  -19.1867   24.9695 O   0  0  0  0  0  0  0  0  0  0  0  0
   11.4998  -19.7134   26.0610 O   0  0  0  0  0  0  0  0  0  0  0  0
  2  3  1  0
  2  1  1  1
  4  3  1  0
  5  6  2  0
  5  2  1  0
  7  5  1  0
  8  9  1  0
  8  7  1  0
  9 10  2  0
 11 12  1  0
 12 14  1  0
 12 13  2  0
 14 15  1  0
 16 15  1  1
 17 16  1  0
 17  9  1  0
 18 20  1  0
 18 16  1  0
 19 18  2  0
M  END
$$$$
