CGQ.pdb
     RDKit          3D

 20 19  0  0  1  0  0  0  0  0999 V2000
    9.7203  -14.6268   17.2630 N   0  0  0  0  0  0  0  0  0  0  0  0
    9.5553  -13.9917   18.5447 C   0  0  1  0  0  0  0  0  0  0  0  0
    8.8791  -12.6324   18.3343 C   0  0  0  0  0  0  0  0  0  0  0  0
    7.1671  -12.8203   17.8377 S   0  0  0  0  0  0  0  0  0  0  0  0
    8.7413  -14.8640   19.4306 C   0  0  0  0  0  0  0  0  0  0  0  0
    8.3858  -16.0173   19.0368 O   0  0  0  0  0  0  0  0  0  0  0  0
    8.3529  -14.4067   20.7365 N   0  0  0  0  0  0  0  0  0  0  0  0
    7.7465  -15.3681   21.6117 C   0  0  0  0  0  0  0  0  0  0  0  0
    8.2252  -15.3293   22.9957 C   0  0  0  0  0  0  0  0  0  0  0  0
    9.4828  -15.3778   23.2520 O   0  0  0  0  0  0  0  0  0  0  0  0
    5.1484  -12.4743   27.3428 N   0  0  0  0  0  0  0  0  0  0  0  0
    6.3778  -11.8729   26.9182 C   0  0  0  0  0  0  0  0  0  0  0  0
    6.5899  -10.6527   27.0948 O   0  0  0  0  0  0  0  0  0  0  0  0
    7.3853  -12.7432   26.2642 C   0  0  0  0  0  0  0  0  0  0  0  0
    7.0355  -14.1852   26.2462 C   0  0  0  0  0  0  0  0  0  0  0  0
    7.9842  -15.0805   25.5047 C   0  0  2  0  0  0  0  0  0  0  0  0
    7.4171  -15.2390   24.1599 N   0  0  0  0  0  0  0  0  0  0  0  0
    8.1389  -16.4061   26.1247 C   0  0  0  0  0  0  0  0  0  0  0  0
    7.4298  -17.3560   25.7485 O   0  0  0  0  0  0  0  0  0  0  0  0
    9.0639  -16.6044   27.1199 O   0  0  0  0  0  0  0  0  0  0  0  0
  2  3  1  0
  2  1  1  6
  4  3  1  0
  5  6  2  0
  5  2  1  0
  7  5  1  0
  8  9  1  0
  8  7  1  0
  9 10  2  0
 11 12  1  0
 12 14  1  0
 12 13  2  0
 14 15  1  0
 16 15  1  1
 17 16  1  0
 17  9  1  0
 18 20  1  0
 18 16  1  0
 19 18  2  0
M  END
$$$$
