CGQ.pdb
     RDKit          3D

 20 19  0  0  1  0  0  0  0  0999 V2000
    7.1947  -15.3974   20.6538 N   0  0  0  0  0  0  0  0  0  0  0  0
    8.5193  -14.8470   20.7792 C   0  0  1  0  0  0  0  0  0  0  0  0
    8.4421  -13.5733   21.6282 C   0  0  0  0  0  0  0  0  0  0  0  0
    7.5884  -12.2570   20.7614 S   0  0  0  0  0  0  0  0  0  0  0  0
    9.4186  -15.8528   21.4020 C   0  0  0  0  0  0  0  0  0  0  0  0
    8.9299  -16.8472   22.0215 O   0  0  0  0  0  0  0  0  0  0  0  0
   10.8448  -15.7048   21.3062 N   0  0  0  0  0  0  0  0  0  0  0  0
   11.6480  -16.7967   21.7760 C   0  0  0  0  0  0  0  0  0  0  0  0
   11.7556  -16.8998   23.2334 C   0  0  0  0  0  0  0  0  0  0  0  0
   12.5641  -17.7415   23.7693 O   0  0  0  0  0  0  0  0  0  0  0  0
    8.9219  -13.1727   27.4464 N   0  0  0  0  0  0  0  0  0  0  0  0
    9.6260  -14.0453   28.3388 C   0  0  0  0  0  0  0  0  0  0  0  0
    9.5773  -13.8723   29.5768 O   0  0  0  0  0  0  0  0  0  0  0  0
   10.4115  -15.1553   27.7464 C   0  0  0  0  0  0  0  0  0  0  0  0
   10.4526  -15.1581   26.2629 C   0  0  0  0  0  0  0  0  0  0  0  0
   11.2306  -16.2747   25.6311 C   0  0  2  0  0  0  0  0  0  0  0  0
   11.0292  -16.1343   24.1837 N   0  0  0  0  0  0  0  0  0  0  0  0
   10.7817  -17.6103   26.0556 C   0  0  0  0  0  0  0  0  0  0  0  0
    9.9059  -18.2083   25.4060 O   0  0  0  0  0  0  0  0  0  0  0  0
   11.3240  -18.2050   27.1681 O   0  0  0  0  0  0  0  0  0  0  0  0
  2  3  1  0
  2  1  1  1
  4  3  1  0
  5  6  2  0
  5  2  1  0
  7  5  1  0
  8  9  1  0
  8  7  1  0
  9 10  2  0
 11 12  1  0
 12 14  1  0
 12 13  2  0
 14 15  1  0
 16 15  1  1
 17 16  1  0
 17  9  1  0
 18 20  1  0
 18 16  1  0
 19 18  2  0
M  END
$$$$
