CGQ.pdb
     RDKit          3D

 20 19  0  0  1  0  0  0  0  0999 V2000
    5.6105  -19.0701   24.1307 N   0  0  0  0  0  0  0  0  0  0  0  0
    5.5752  -18.4108   22.8511 C   0  0  1  0  0  0  0  0  0  0  0  0
    4.1142  -18.1207   22.4897 C   0  0  0  0  0  0  0  0  0  0  0  0
    3.2565  -19.6088   21.9773 S   0  0  0  0  0  0  0  0  0  0  0  0
    6.3706  -17.1573   22.9158 C   0  0  0  0  0  0  0  0  0  0  0  0
    6.2159  -16.3541   23.8865 O   0  0  0  0  0  0  0  0  0  0  0  0
    7.3182  -16.8484   21.8804 N   0  0  0  0  0  0  0  0  0  0  0  0
    8.0547  -15.6244   22.0129 C   0  0  0  0  0  0  0  0  0  0  0  0
    9.1919  -15.6865   22.9345 C   0  0  0  0  0  0  0  0  0  0  0  0
   10.3383  -15.2235   22.5870 O   0  0  0  0  0  0  0  0  0  0  0  0
    9.0596  -12.7468   28.1465 N   0  0  0  0  0  0  0  0  0  0  0  0
    9.6966  -14.0213   27.9933 C   0  0  0  0  0  0  0  0  0  0  0  0
    9.9431  -14.7392   28.9877 O   0  0  0  0  0  0  0  0  0  0  0  0
   10.0526  -14.4574   26.6210 C   0  0  0  0  0  0  0  0  0  0  0  0
   10.0594  -15.9282   26.4239 C   0  0  0  0  0  0  0  0  0  0  0  0
   10.4006  -16.4025   25.0419 C   0  0  2  0  0  0  0  0  0  0  0  0
    9.1789  -16.2301   24.2462 N   0  0  0  0  0  0  0  0  0  0  0  0
   10.8135  -17.8143   24.9961 C   0  0  0  0  0  0  0  0  0  0  0  0
    9.9659  -18.7051   24.8104 O   0  0  0  0  0  0  0  0  0  0  0  0
   12.1330  -18.1582   25.1574 O   0  0  0  0  0  0  0  0  0  0  0  0
  2  3  1  0
  2  1  1  1
  4  3  1  0
  5  6  2  0
  5  2  1  0
  7  5  1  0
  8  9  1  0
  8  7  1  0
  9 10  2  0
 11 12  1  0
 12 14  1  0
 12 13  2  0
 14 15  1  0
 16 15  1  1
 17 16  1  0
 17  9  1  0
 18 20  1  0
 18 16  1  0
 19 18  2  0
M  END
$$$$
