CGQ.pdb
     RDKit          3D

 20 19  0  0  1  0  0  0  0  0999 V2000
    3.0918  -19.0260   22.1407 N   0  0  0  0  0  0  0  0  0  0  0  0
    3.2156  -20.2617   21.4122 C   0  0  1  0  0  0  0  0  0  0  0  0
    2.1324  -20.3020   20.3285 C   0  0  0  0  0  0  0  0  0  0  0  0
    0.5115  -19.9473   21.0065 S   0  0  0  0  0  0  0  0  0  0  0  0
    4.5738  -20.3537   20.8164 C   0  0  0  0  0  0  0  0  0  0  0  0
    4.9219  -21.3969   20.1823 O   0  0  0  0  0  0  0  0  0  0  0  0
    5.4992  -19.2629   20.9549 N   0  0  0  0  0  0  0  0  0  0  0  0
    6.8395  -19.4805   20.4920 C   0  0  0  0  0  0  0  0  0  0  0  0
    7.8658  -19.4431   21.5368 C   0  0  0  0  0  0  0  0  0  0  0  0
    8.9795  -18.8362   21.3349 O   0  0  0  0  0  0  0  0  0  0  0  0
    7.3664  -17.6828   27.1005 N   0  0  0  0  0  0  0  0  0  0  0  0
    7.0377  -17.1991   25.7922 C   0  0  0  0  0  0  0  0  0  0  0  0
    6.3201  -16.1851   25.6444 O   0  0  0  0  0  0  0  0  0  0  0  0
    7.5749  -17.9396   24.6246 C   0  0  0  0  0  0  0  0  0  0  0  0
    8.3119  -19.1811   24.9679 C   0  0  0  0  0  0  0  0  0  0  0  0
    8.8599  -19.9597   23.8084 C   0  0  2  0  0  0  0  0  0  0  0  0
    7.7722  -20.0330   22.8251 N   0  0  0  0  0  0  0  0  0  0  0  0
    9.2800  -21.3232   24.1688 C   0  0  0  0  0  0  0  0  0  0  0  0
    8.5334  -22.2885   23.9292 O   0  0  0  0  0  0  0  0  0  0  0  0
   10.4950  -21.5401   24.7704 O   0  0  0  0  0  0  0  0  0  0  0  0
  2  3  1  0
  2  1  1  6
  4  3  1  0
  5  6  2  0
  5  2  1  0
  7  5  1  0
  8  9  1  0
  8  7  1  0
  9 10  2  0
 11 12  1  0
 12 14  1  0
 12 13  2  0
 14 15  1  0
 16 15  1  1
 17 16  1  0
 17  9  1  0
 18 20  1  0
 18 16  1  0
 19 18  2  0
M  END
$$$$
