PIT.pdb
     RDKit          3D

 23 23  0  0  1  0  0  0  0  0999 V2000
   28.8449  -20.6199  -15.6297 N   0  0  0  0  0  0  0  0  0  0  0  0
   28.7965  -20.0038  -16.9418 C   0  0  0  0  0  0  0  0  0  0  0  0
   28.5660  -18.5209  -16.6297 C   0  0  0  0  0  0  0  0  0  0  0  0
   27.5569  -18.6260  -15.5028 C   0  0  0  0  0  0  0  0  0  0  0  0
   28.0319  -19.8346  -14.7549 C   0  0  1  0  0  0  0  0  0  0  0  0
   26.8699  -20.6372  -14.2095 C   0  0  0  0  0  0  0  0  0  0  0  0
   26.5249  -21.5993  -14.9080 O   0  0  0  0  0  0  0  0  0  0  0  0
   26.3130  -20.4044   -8.7267 C   0  0  0  0  0  0  0  0  0  0  0  0
   26.3956  -20.9806  -10.1227 C   0  0  0  0  0  0  0  0  0  0  0  0
   25.1465  -20.5310  -10.8557 C   0  0  2  0  0  0  0  0  0  0  0  0
   24.0112  -21.3150  -10.1862 C   0  0  0  0  0  0  0  0  0  0  0  0
   25.1959  -20.9368  -12.3201 C   0  0  2  0  0  0  0  0  0  0  0  0
   26.2877  -20.2519  -13.0004 N   0  0  0  0  0  0  0  0  0  0  0  0
   23.9102  -20.6046  -12.9476 C   0  0  0  0  0  0  0  0  0  0  0  0
   23.5139  -19.3690  -12.8782 O   0  0  0  0  0  0  0  0  0  0  0  0
   20.1861  -21.2320  -16.1560 C   0  0  0  0  0  0  0  0  0  0  0  0
   21.4615  -21.7009  -15.5057 C   0  0  1  0  0  0  0  0  0  0  0  0
   22.5257  -21.6491  -16.4137 O   0  0  0  0  0  0  0  0  0  0  0  0
   21.8214  -20.8840  -14.2880 C   0  0  2  0  0  0  0  0  0  0  0  0
   23.0246  -21.4470  -13.6344 N   0  0  0  0  0  0  0  0  0  0  0  0
   20.6759  -20.9769  -13.3455 C   0  0  0  0  0  0  0  0  0  0  0  0
   20.6417  -21.9420  -12.3610 O   0  0  0  0  0  0  0  0  0  0  0  0
   19.6966  -20.1754  -13.4150 O   0  0  0  0  0  0  0  0  0  0  0  0
  1  5  1  0
  2  3  1  0
  2  1  1  0
  3  4  1  0
  5  4  1  0
  5  6  1  6
  6 13  1  0
  6  7  2  0
  8  9  1  0
  9 10  1  0
 10 12  1  0
 10 11  1  1
 12 14  1  0
 12 13  1  6
 14 15  2  0
 17 16  1  6
 17 18  1  0
 17 19  1  0
 19 21  1  0
 20 14  1  0
 19 20  1  1
 21 22  1  0
 23 21  2  0
M  END
$$$$
