PIT.pdb
     RDKit          3D

 23 23  0  0  1  0  0  0  0  0999 V2000
   20.0935  -12.5585  -19.8309 N   0  0  0  0  0  0  0  0  0  0  0  0
   18.9795  -12.2204  -20.6959 C   0  0  0  0  0  0  0  0  0  0  0  0
   19.5091  -11.0347  -21.5102 C   0  0  0  0  0  0  0  0  0  0  0  0
   20.2486  -10.2643  -20.4337 C   0  0  0  0  0  0  0  0  0  0  0  0
   20.8370  -11.3603  -19.5979 C   0  0  1  0  0  0  0  0  0  0  0  0
   20.8453  -10.9901  -18.1300 C   0  0  0  0  0  0  0  0  0  0  0  0
   19.7914  -11.2263  -17.5250 O   0  0  0  0  0  0  0  0  0  0  0  0
   24.6109  -12.9115  -15.2829 C   0  0  0  0  0  0  0  0  0  0  0  0
   23.2842  -12.3156  -15.6985 C   0  0  0  0  0  0  0  0  0  0  0  0
   23.4461  -10.8087  -15.6450 C   0  0  2  0  0  0  0  0  0  0  0  0
   23.5677  -10.4933  -14.1492 C   0  0  0  0  0  0  0  0  0  0  0  0
   22.2050  -10.1065  -16.1725 C   0  0  2  0  0  0  0  0  0  0  0  0
   21.9983  -10.4282  -17.5788 N   0  0  0  0  0  0  0  0  0  0  0  0
   22.3689   -8.6577  -15.9951 C   0  0  0  0  0  0  0  0  0  0  0  0
   23.4310   -8.1104  -16.5057 O   0  0  0  0  0  0  0  0  0  0  0  0
   20.5455   -5.7823  -17.4341 C   0  0  0  0  0  0  0  0  0  0  0  0
   20.6922   -5.5281  -15.9565 C   0  0  1  0  0  0  0  0  0  0  0  0
   19.5125   -5.8597  -15.2798 O   0  0  0  0  0  0  0  0  0  0  0  0
   21.8356   -6.3048  -15.3491 C   0  0  2  0  0  0  0  0  0  0  0  0
   21.5215   -7.7516  -15.3419 N   0  0  0  0  0  0  0  0  0  0  0  0
   21.9830   -5.8392  -13.9454 C   0  0  0  0  0  0  0  0  0  0  0  0
   22.5353   -4.6084  -13.6588 O   0  0  0  0  0  0  0  0  0  0  0  0
   21.6075   -6.5548  -12.9691 O   0  0  0  0  0  0  0  0  0  0  0  0
  1  5  1  0
  2  3  1  0
  2  1  1  0
  3  4  1  0
  5  4  1  0
  5  6  1  1
  6 13  1  0
  6  7  2  0
  8  9  1  0
  9 10  1  0
 10 12  1  0
 10 11  1  1
 12 14  1  0
 12 13  1  6
 14 15  2  0
 17 16  1  6
 17 18  1  0
 17 19  1  0
 19 21  1  0
 20 14  1  0
 19 20  1  1
 21 22  1  0
 23 21  2  0
M  END
$$$$
