PIT.pdb
     RDKit          3D

 23 23  0  0  1  0  0  0  0  0999 V2000
   29.5138  -20.7848  -13.5307 N   0  0  0  0  0  0  0  0  0  0  0  0
   29.1027  -20.6940  -14.9186 C   0  0  0  0  0  0  0  0  0  0  0  0
   28.5624  -19.2644  -15.0363 C   0  0  0  0  0  0  0  0  0  0  0  0
   27.8064  -19.1426  -13.7275 C   0  0  0  0  0  0  0  0  0  0  0  0
   28.6821  -19.9005  -12.7763 C   0  0  1  0  0  0  0  0  0  0  0  0
   27.8607  -20.6526  -11.7509 C   0  0  0  0  0  0  0  0  0  0  0  0
   27.6885  -21.8534  -11.9972 O   0  0  0  0  0  0  0  0  0  0  0  0
   28.2074  -19.1503   -6.4874 C   0  0  0  0  0  0  0  0  0  0  0  0
   28.0788  -20.0287   -7.7121 C   0  0  0  0  0  0  0  0  0  0  0  0
   26.7029  -19.7680   -8.2942 C   0  0  2  0  0  0  0  0  0  0  0  0
   25.7359  -20.3599   -7.2615 C   0  0  0  0  0  0  0  0  0  0  0  0
   26.5107  -20.5207   -9.6011 C   0  0  2  0  0  0  0  0  0  0  0  0
   27.3713  -19.9660  -10.6381 N   0  0  0  0  0  0  0  0  0  0  0  0
   25.1000  -20.4267   -9.9990 C   0  0  0  0  0  0  0  0  0  0  0  0
   24.5863  -19.2373  -10.0995 O   0  0  0  0  0  0  0  0  0  0  0  0
   22.4478  -23.6235  -11.0511 C   0  0  0  0  0  0  0  0  0  0  0  0
   22.5696  -22.3744  -11.8843 C   0  0  1  0  0  0  0  0  0  0  0  0
   21.3621  -22.0968  -12.5359 O   0  0  0  0  0  0  0  0  0  0  0  0
   22.9668  -21.1710  -11.0636 C   0  0  2  0  0  0  0  0  0  0  0  0
   24.2017  -21.4602  -10.3000 N   0  0  0  0  0  0  0  0  0  0  0  0
   21.8605  -20.9111  -10.1057 C   0  0  0  0  0  0  0  0  0  0  0  0
   20.6654  -20.3690  -10.5298 O   0  0  0  0  0  0  0  0  0  0  0  0
   21.9781  -21.1780   -8.8724 O   0  0  0  0  0  0  0  0  0  0  0  0
  1  5  1  0
  2  3  1  0
  2  1  1  0
  3  4  1  0
  5  4  1  0
  5  6  1  1
  6 13  1  0
  6  7  2  0
  8  9  1  0
  9 10  1  0
 10 12  1  0
 10 11  1  1
 12 14  1  0
 12 13  1  6
 14 15  2  0
 17 16  1  1
 17 18  1  0
 17 19  1  0
 19 21  1  0
 20 14  1  0
 19 20  1  1
 21 22  1  0
 23 21  2  0
M  END
$$$$
