PIT.pdb
     RDKit          3D

 23 23  0  0  1  0  0  0  0  0999 V2000
   28.8662  -20.4682  -15.1312 N   0  0  0  0  0  0  0  0  0  0  0  0
   28.6294  -19.8383  -16.4161 C   0  0  0  0  0  0  0  0  0  0  0  0
   28.4253  -18.3625  -16.0560 C   0  0  0  0  0  0  0  0  0  0  0  0
   27.5828  -18.4945  -14.8022 C   0  0  0  0  0  0  0  0  0  0  0  0
   28.1718  -19.7045  -14.1426 C   0  0  1  0  0  0  0  0  0  0  0  0
   27.1064  -20.5297  -13.4528 C   0  0  0  0  0  0  0  0  0  0  0  0
   26.7770  -21.5630  -14.0495 O   0  0  0  0  0  0  0  0  0  0  0  0
   26.7392  -20.0302   -7.9259 C   0  0  0  0  0  0  0  0  0  0  0  0
   26.7734  -20.6958   -9.2837 C   0  0  0  0  0  0  0  0  0  0  0  0
   25.5390  -20.2289  -10.0305 C   0  0  2  0  0  0  0  0  0  0  0  0
   24.3731  -20.8962   -9.2908 C   0  0  0  0  0  0  0  0  0  0  0  0
   25.5398  -20.7408  -11.4622 C   0  0  2  0  0  0  0  0  0  0  0  0
   26.5870  -20.0856  -12.2353 N   0  0  0  0  0  0  0  0  0  0  0  0
   24.2225  -20.4828  -12.0584 C   0  0  0  0  0  0  0  0  0  0  0  0
   23.8012  -19.2535  -12.0657 O   0  0  0  0  0  0  0  0  0  0  0  0
   23.1314  -21.1542  -15.6817 C   0  0  0  0  0  0  0  0  0  0  0  0
   22.0536  -21.5942  -14.7256 C   0  0  1  0  0  0  0  0  0  0  0  0
   22.1125  -22.9775  -14.5191 O   0  0  0  0  0  0  0  0  0  0  0  0
   22.1502  -20.8988  -13.3890 C   0  0  2  0  0  0  0  0  0  0  0  0
   23.3294  -21.3923  -12.6421 N   0  0  0  0  0  0  0  0  0  0  0  0
   20.9214  -21.2437  -12.6273 C   0  0  0  0  0  0  0  0  0  0  0  0
   19.6800  -20.8157  -13.0487 O   0  0  0  0  0  0  0  0  0  0  0  0
   20.9735  -21.9398  -11.5694 O   0  0  0  0  0  0  0  0  0  0  0  0
  1  5  1  0
  2  3  1  0
  2  1  1  0
  3  4  1  0
  5  4  1  0
  5  6  1  6
  6 13  1  0
  6  7  2  0
  8  9  1  0
  9 10  1  0
 10 12  1  0
 10 11  1  1
 12 14  1  0
 12 13  1  6
 14 15  2  0
 17 16  1  6
 17 18  1  0
 17 19  1  0
 19 21  1  0
 20 14  1  0
 19 20  1  1
 21 22  1  0
 23 21  2  0
M  END
$$$$
