PIT.pdb
     RDKit          3D

 23 23  0  0  1  0  0  0  0  0999 V2000
   28.6830  -20.5727  -15.5473 N   0  0  0  0  0  0  0  0  0  0  0  0
   28.4824  -19.9399  -16.8368 C   0  0  0  0  0  0  0  0  0  0  0  0
   28.2452  -18.4688  -16.4776 C   0  0  0  0  0  0  0  0  0  0  0  0
   27.3614  -18.6186  -15.2547 C   0  0  0  0  0  0  0  0  0  0  0  0
   27.9438  -19.8235  -14.5802 C   0  0  1  0  0  0  0  0  0  0  0  0
   26.8667  -20.6667  -13.9317 C   0  0  0  0  0  0  0  0  0  0  0  0
   26.5076  -21.6526  -14.5887 O   0  0  0  0  0  0  0  0  0  0  0  0
   26.5184  -20.3985   -8.4400 C   0  0  0  0  0  0  0  0  0  0  0  0
   26.5061  -21.0201   -9.8188 C   0  0  0  0  0  0  0  0  0  0  0  0
   25.2586  -20.5125  -10.5159 C   0  0  2  0  0  0  0  0  0  0  0  0
   24.1086  -21.2518   -9.8211 C   0  0  0  0  0  0  0  0  0  0  0  0
   25.2522  -20.9101  -11.9834 C   0  0  2  0  0  0  0  0  0  0  0  0
   26.3698  -20.2891  -12.6828 N   0  0  0  0  0  0  0  0  0  0  0  0
   23.9766  -20.4947  -12.5813 C   0  0  0  0  0  0  0  0  0  0  0  0
   23.6592  -19.2375  -12.4966 O   0  0  0  0  0  0  0  0  0  0  0  0
   23.0182  -20.6622  -16.2413 C   0  0  0  0  0  0  0  0  0  0  0  0
   21.8606  -21.1437  -15.4062 C   0  0  1  0  0  0  0  0  0  0  0  0
   21.8245  -22.5428  -15.3736 O   0  0  0  0  0  0  0  0  0  0  0  0
   21.9178  -20.6260  -13.9891 C   0  0  2  0  0  0  0  0  0  0  0  0
   23.0263  -21.2759  -13.2537 N   0  0  0  0  0  0  0  0  0  0  0  0
   20.6321  -20.9906  -13.3386 C   0  0  0  0  0  0  0  0  0  0  0  0
   19.4571  -20.3542  -13.6796 O   0  0  0  0  0  0  0  0  0  0  0  0
   20.5731  -21.8948  -12.4524 O   0  0  0  0  0  0  0  0  0  0  0  0
  1  5  1  0
  2  3  1  0
  2  1  1  0
  3  4  1  0
  5  4  1  0
  5  6  1  6
  6 13  1  0
  6  7  2  0
  8  9  1  0
  9 10  1  0
 10 12  1  0
 10 11  1  1
 12 14  1  0
 12 13  1  6
 14 15  2  0
 17 16  1  6
 17 18  1  0
 17 19  1  0
 19 21  1  0
 20 14  1  0
 19 20  1  1
 21 22  1  0
 23 21  2  0
M  END
$$$$
