PIT.pdb
     RDKit          3D

 23 23  0  0  1  0  0  0  0  0999 V2000
   24.5634  -13.3700  -17.4439 N   0  0  0  0  0  0  0  0  0  0  0  0
   25.9896  -13.4051  -17.7054 C   0  0  0  0  0  0  0  0  0  0  0  0
   26.6080  -13.0348  -16.3527 C   0  0  0  0  0  0  0  0  0  0  0  0
   25.6686  -11.9304  -15.9087 C   0  0  0  0  0  0  0  0  0  0  0  0
   24.3400  -12.4185  -16.4011 C   0  0  1  0  0  0  0  0  0  0  0  0
   23.4724  -11.2717  -16.8742 C   0  0  0  0  0  0  0  0  0  0  0  0
   23.6020  -10.9761  -18.0693 O   0  0  0  0  0  0  0  0  0  0  0  0
   18.0828   -9.7873  -17.0787 C   0  0  0  0  0  0  0  0  0  0  0  0
   19.1499   -9.1436  -16.2216 C   0  0  0  0  0  0  0  0  0  0  0  0
   20.2130  -10.1982  -15.9821 C   0  0  2  0  0  0  0  0  0  0  0  0
   20.1366  -10.4785  -14.4763 C   0  0  0  0  0  0  0  0  0  0  0  0
   21.6000   -9.6556  -16.2877 C   0  0  2  0  0  0  0  0  0  0  0  0
   22.6166  -10.6483  -15.9641 N   0  0  0  0  0  0  0  0  0  0  0  0
   21.8118   -8.4294  -15.5073 C   0  0  0  0  0  0  0  0  0  0  0  0
   22.0947   -8.5661  -14.2465 O   0  0  0  0  0  0  0  0  0  0  0  0
   24.3434   -5.4795  -16.2758 C   0  0  0  0  0  0  0  0  0  0  0  0
   22.9914   -4.9797  -15.8381 C   0  0  1  0  0  0  0  0  0  0  0  0
   22.2230   -4.6023  -16.9457 O   0  0  0  0  0  0  0  0  0  0  0  0
   22.2256   -6.0104  -15.0439 C   0  0  2  0  0  0  0  0  0  0  0  0
   21.7573   -7.0955  -15.9355 N   0  0  0  0  0  0  0  0  0  0  0  0
   21.0427   -5.3234  -14.4625 C   0  0  0  0  0  0  0  0  0  0  0  0
   21.1752   -4.4602  -13.3952 O   0  0  0  0  0  0  0  0  0  0  0  0
   19.8777   -5.5075  -14.9264 O   0  0  0  0  0  0  0  0  0  0  0  0
  1  5  1  0
  2  3  1  0
  2  1  1  0
  3  4  1  0
  5  4  1  0
  5  6  1  6
  6 13  1  0
  6  7  2  0
  8  9  1  0
  9 10  1  0
 10 12  1  0
 10 11  1  1
 12 14  1  0
 12 13  1  1
 14 15  2  0
 17 16  1  6
 17 18  1  0
 17 19  1  0
 19 21  1  0
 20 14  1  0
 19 20  1  6
 21 22  1  0
 23 21  2  0
M  END
$$$$
