PIT.pdb
     RDKit          3D

 23 23  0  0  1  0  0  0  0  0999 V2000
   23.6746  -22.2063  -14.1311 N   0  0  0  0  0  0  0  0  0  0  0  0
   24.4149  -23.2320  -13.4216 C   0  0  0  0  0  0  0  0  0  0  0  0
   23.8097  -23.1976  -12.0138 C   0  0  0  0  0  0  0  0  0  0  0  0
   23.6656  -21.7022  -11.8080 C   0  0  0  0  0  0  0  0  0  0  0  0
   23.2739  -21.2240  -13.1732 C   0  0  1  0  0  0  0  0  0  0  0  0
   23.8820  -19.8718  -13.4791 C   0  0  0  0  0  0  0  0  0  0  0  0
   23.5238  -18.9551  -12.7282 O   0  0  0  0  0  0  0  0  0  0  0  0
   28.9943  -19.9701  -13.8848 C   0  0  0  0  0  0  0  0  0  0  0  0
   27.5544  -19.5670  -13.6568 C   0  0  0  0  0  0  0  0  0  0  0  0
   27.0540  -18.9770  -14.9611 C   0  0  2  0  0  0  0  0  0  0  0  0
   27.8732  -17.6924  -15.1353 C   0  0  0  0  0  0  0  0  0  0  0  0
   25.5880  -18.5874  -14.8581 C   0  0  2  0  0  0  0  0  0  0  0  0
   24.7726  -19.7548  -14.5479 N   0  0  0  0  0  0  0  0  0  0  0  0
   25.1661  -17.9891  -16.1314 C   0  0  0  0  0  0  0  0  0  0  0  0
   25.5293  -18.5923  -17.2235 O   0  0  0  0  0  0  0  0  0  0  0  0
   21.9197  -18.0442  -17.6833 C   0  0  0  0  0  0  0  0  0  0  0  0
   22.4008  -16.6181  -17.7463 C   0  0  1  0  0  0  0  0  0  0  0  0
   21.8705  -15.8717  -16.6874 O   0  0  0  0  0  0  0  0  0  0  0  0
   23.9066  -16.5158  -17.7066 C   0  0  2  0  0  0  0  0  0  0  0  0
   24.4031  -16.8330  -16.3484 N   0  0  0  0  0  0  0  0  0  0  0  0
   24.2575  -15.1079  -18.0286 C   0  0  0  0  0  0  0  0  0  0  0  0
   24.1118  -14.6136  -19.3079 O   0  0  0  0  0  0  0  0  0  0  0  0
   24.7004  -14.3180  -17.1419 O   0  0  0  0  0  0  0  0  0  0  0  0
  1  5  1  0
  2  3  1  0
  2  1  1  0
  3  4  1  0
  5  4  1  0
  5  6  1  6
  6 13  1  0
  6  7  2  0
  8  9  1  0
  9 10  1  0
 10 12  1  0
 10 11  1  1
 12 14  1  0
 12 13  1  6
 14 15  2  0
 17 16  1  1
 17 18  1  0
 17 19  1  0
 19 21  1  0
 20 14  1  0
 19 20  1  1
 21 22  1  0
 23 21  2  0
M  END
$$$$
