PIT.pdb
     RDKit          3D

 23 23  0  0  1  0  0  0  0  0999 V2000
   15.7344  -21.2327    0.7071 N   0  0  0  0  0  0  0  0  0  0  0  0
   15.0161  -22.4517    1.0259 C   0  0  0  0  0  0  0  0  0  0  0  0
   13.6315  -21.9480    1.4483 C   0  0  0  0  0  0  0  0  0  0  0  0
   14.0148  -20.7329    2.2703 C   0  0  0  0  0  0  0  0  0  0  0  0
   15.1874  -20.1870    1.5134 C   0  0  1  0  0  0  0  0  0  0  0  0
   16.2267  -19.6081    2.4496 C   0  0  0  0  0  0  0  0  0  0  0  0
   17.1313  -20.3885    2.7739 O   0  0  0  0  0  0  0  0  0  0  0  0
   18.3295  -14.6417    1.5475 C   0  0  0  0  0  0  0  0  0  0  0  0
   18.2203  -16.0868    1.9803 C   0  0  0  0  0  0  0  0  0  0  0  0
   17.2249  -16.1265    3.1237 C   0  0  2  0  0  0  0  0  0  0  0  0
   17.8720  -15.2711    4.2197 C   0  0  0  0  0  0  0  0  0  0  0  0
   17.0682  -17.5393    3.6634 C   0  0  2  0  0  0  0  0  0  0  0  0
   16.0990  -18.2823    2.8681 N   0  0  0  0  0  0  0  0  0  0  0  0
   16.6351  -17.4658    5.0649 C   0  0  0  0  0  0  0  0  0  0  0  0
   15.4543  -16.9767    5.2997 O   0  0  0  0  0  0  0  0  0  0  0  0
   16.5608  -18.8856    9.7870 C   0  0  0  0  0  0  0  0  0  0  0  0
   17.3652  -18.6786    8.5302 C   0  0  1  0  0  0  0  0  0  0  0  0
   17.6306  -19.9039    7.9073 O   0  0  0  0  0  0  0  0  0  0  0  0
   16.6690  -17.7726    7.5433 C   0  0  2  0  0  0  0  0  0  0  0  0
   17.3254  -17.8615    6.2193 N   0  0  0  0  0  0  0  0  0  0  0  0
   16.8057  -16.3834    8.0539 C   0  0  0  0  0  0  0  0  0  0  0  0
   15.7821  -15.7788    8.7528 O   0  0  0  0  0  0  0  0  0  0  0  0
   17.8634  -15.7112    7.8646 O   0  0  0  0  0  0  0  0  0  0  0  0
  1  5  1  0
  2  3  1  0
  2  1  1  0
  3  4  1  0
  5  4  1  0
  5  6  1  1
  6 13  1  0
  6  7  2  0
  8  9  1  0
  9 10  1  0
 10 12  1  0
 10 11  1  1
 12 14  1  0
 12 13  1  6
 14 15  2  0
 17 16  1  1
 17 18  1  0
 17 19  1  0
 19 21  1  0
 20 14  1  0
 19 20  1  6
 21 22  1  0
 23 21  2  0
M  END
$$$$
