PIT.pdb
     RDKit          3D

 23 23  0  0  1  0  0  0  0  0999 V2000
   28.9946  -20.8997  -16.1069 N   0  0  0  0  0  0  0  0  0  0  0  0
   28.7794  -20.3001  -17.4098 C   0  0  0  0  0  0  0  0  0  0  0  0
   28.6077  -18.8106  -17.0915 C   0  0  0  0  0  0  0  0  0  0  0  0
   27.7556  -18.8887  -15.8397 C   0  0  0  0  0  0  0  0  0  0  0  0
   28.3128  -20.0933  -15.1437 C   0  0  1  0  0  0  0  0  0  0  0  0
   27.2248  -20.8745  -14.4380 C   0  0  0  0  0  0  0  0  0  0  0  0
   26.7641  -21.8271  -15.0804 O   0  0  0  0  0  0  0  0  0  0  0  0
   25.1882  -20.9687   -8.5932 C   0  0  0  0  0  0  0  0  0  0  0  0
   24.8964  -21.3672  -10.0229 C   0  0  0  0  0  0  0  0  0  0  0  0
   26.0061  -20.7820  -10.8748 C   0  0  2  0  0  0  0  0  0  0  0  0
   25.8432  -19.2650  -10.7199 C   0  0  0  0  0  0  0  0  0  0  0  0
   25.8084  -21.1268  -12.3424 C   0  0  2  0  0  0  0  0  0  0  0  0
   26.8297  -20.4819  -13.1578 N   0  0  0  0  0  0  0  0  0  0  0  0
   24.4685  -20.6897  -12.7556 C   0  0  0  0  0  0  0  0  0  0  0  0
   24.2545  -19.4100  -12.8286 O   0  0  0  0  0  0  0  0  0  0  0  0
   22.7232  -21.3353  -16.0579 C   0  0  0  0  0  0  0  0  0  0  0  0
   21.7378  -21.5435  -14.9375 C   0  0  1  0  0  0  0  0  0  0  0  0
   21.5861  -22.9075  -14.6616 O   0  0  0  0  0  0  0  0  0  0  0  0
   22.1487  -20.8340  -13.6698 C   0  0  2  0  0  0  0  0  0  0  0  0
   23.3562  -21.4716  -13.0977 N   0  0  0  0  0  0  0  0  0  0  0  0
   21.0274  -20.9788  -12.7050 C   0  0  0  0  0  0  0  0  0  0  0  0
   19.8350  -20.3126  -12.8956 O   0  0  0  0  0  0  0  0  0  0  0  0
   21.1293  -21.7164  -11.6794 O   0  0  0  0  0  0  0  0  0  0  0  0
  1  5  1  0
  2  3  1  0
  2  1  1  0
  3  4  1  0
  5  4  1  0
  5  6  1  6
  6 13  1  0
  6  7  2  0
  8  9  1  0
  9 10  1  0
 10 12  1  0
 10 11  1  6
 12 14  1  0
 12 13  1  6
 14 15  2  0
 17 16  1  6
 17 18  1  0
 17 19  1  0
 19 21  1  0
 20 14  1  0
 19 20  1  1
 21 22  1  0
 23 21  2  0
M  END
$$$$
