PIT.pdb
     RDKit          3D

 23 23  0  0  1  0  0  0  0  0999 V2000
   23.4076  -12.6185  -16.8950 N   0  0  0  0  0  0  0  0  0  0  0  0
   24.8103  -12.2501  -16.8785 C   0  0  0  0  0  0  0  0  0  0  0  0
   25.0897  -11.9816  -15.3955 C   0  0  0  0  0  0  0  0  0  0  0  0
   23.8255  -11.2425  -15.0022 C   0  0  0  0  0  0  0  0  0  0  0  0
   22.7743  -11.9519  -15.8008 C   0  0  1  0  0  0  0  0  0  0  0  0
   21.7055  -10.9928  -16.2802 C   0  0  0  0  0  0  0  0  0  0  0  0
   21.8251  -10.6210  -17.4549 O   0  0  0  0  0  0  0  0  0  0  0  0
   16.6785  -12.1538  -15.1806 C   0  0  0  0  0  0  0  0  0  0  0  0
   17.8487  -11.5535  -15.9276 C   0  0  0  0  0  0  0  0  0  0  0  0
   18.2785  -10.3239  -15.1511 C   0  0  2  0  0  0  0  0  0  0  0  0
   17.1550   -9.3091  -15.3956 C   0  0  0  0  0  0  0  0  0  0  0  0
   19.5653   -9.7430  -15.7153 C   0  0  2  0  0  0  0  0  0  0  0  0
   20.6949  -10.6072  -15.3975 N   0  0  0  0  0  0  0  0  0  0  0  0
   19.7682   -8.4028  -15.1498 C   0  0  0  0  0  0  0  0  0  0  0  0
   19.7811   -8.2972  -13.8547 O   0  0  0  0  0  0  0  0  0  0  0  0
   22.7078   -5.8124  -15.5210 C   0  0  0  0  0  0  0  0  0  0  0  0
   21.3575   -5.1747  -15.7192 C   0  0  1  0  0  0  0  0  0  0  0  0
   21.0655   -5.0523  -17.0829 O   0  0  0  0  0  0  0  0  0  0  0  0
   20.2491   -5.9538  -15.0530 C   0  0  2  0  0  0  0  0  0  0  0  0
   19.9606   -7.1866  -15.8204 N   0  0  0  0  0  0  0  0  0  0  0  0
   19.0403   -5.0891  -15.0628 C   0  0  0  0  0  0  0  0  0  0  0  0
   18.9217   -4.0229  -14.1961 O   0  0  0  0  0  0  0  0  0  0  0  0
   18.0822   -5.3019  -15.8647 O   0  0  0  0  0  0  0  0  0  0  0  0
  1  5  1  0
  2  3  1  0
  2  1  1  0
  3  4  1  0
  5  4  1  0
  5  6  1  6
  6 13  1  0
  6  7  2  0
  8  9  1  0
  9 10  1  0
 10 12  1  0
 10 11  1  6
 12 14  1  0
 12 13  1  1
 14 15  2  0
 17 16  1  6
 17 18  1  0
 17 19  1  0
 19 21  1  0
 20 14  1  0
 19 20  1  6
 21 22  1  0
 23 21  2  0
M  END
$$$$
