PIT.pdb
     RDKit          3D

 23 23  0  0  1  0  0  0  0  0999 V2000
   28.6448  -19.6999  -15.7050 N   0  0  0  0  0  0  0  0  0  0  0  0
   28.4651  -19.2663  -17.0773 C   0  0  0  0  0  0  0  0  0  0  0  0
   27.8881  -17.8538  -16.9310 C   0  0  0  0  0  0  0  0  0  0  0  0
   26.9215  -18.0644  -15.7818 C   0  0  0  0  0  0  0  0  0  0  0  0
   27.6610  -19.0338  -14.9105 C   0  0  1  0  0  0  0  0  0  0  0  0
   26.7161  -20.0199  -14.2575 C   0  0  0  0  0  0  0  0  0  0  0  0
   26.6224  -21.1130  -14.8309 O   0  0  0  0  0  0  0  0  0  0  0  0
   26.7766  -21.6306  -10.2871 C   0  0  0  0  0  0  0  0  0  0  0  0
   26.4083  -20.1680  -10.1725 C   0  0  0  0  0  0  0  0  0  0  0  0
   25.0759  -19.9964  -10.8760 C   0  0  2  0  0  0  0  0  0  0  0  0
   24.1201  -20.9174  -10.1079 C   0  0  0  0  0  0  0  0  0  0  0  0
   25.1485  -20.4897  -12.3123 C   0  0  2  0  0  0  0  0  0  0  0  0
   26.0394  -19.6434  -13.0957 N   0  0  0  0  0  0  0  0  0  0  0  0
   23.7960  -20.4817  -12.8850 C   0  0  0  0  0  0  0  0  0  0  0  0
   23.1724  -19.3424  -12.9267 O   0  0  0  0  0  0  0  0  0  0  0  0
   20.0057  -22.2628  -15.5639 C   0  0  0  0  0  0  0  0  0  0  0  0
   21.4019  -22.3902  -15.0126 C   0  0  1  0  0  0  0  0  0  0  0  0
   22.3460  -22.3398  -16.0450 O   0  0  0  0  0  0  0  0  0  0  0  0
   21.7244  -21.3119  -14.0062 C   0  0  2  0  0  0  0  0  0  0  0  0
   23.0597  -21.5515  -13.4133 N   0  0  0  0  0  0  0  0  0  0  0  0
   20.7006  -21.3965  -12.9321 C   0  0  0  0  0  0  0  0  0  0  0  0
   19.6224  -20.5370  -12.9083 O   0  0  0  0  0  0  0  0  0  0  0  0
   20.7842  -22.2579  -12.0062 O   0  0  0  0  0  0  0  0  0  0  0  0
  1  5  1  0
  2  3  1  0
  2  1  1  0
  3  4  1  0
  5  4  1  0
  5  6  1  6
  6 13  1  0
  6  7  2  0
  8  9  1  0
  9 10  1  0
 10 12  1  0
 10 11  1  1
 12 14  1  0
 12 13  1  6
 14 15  2  0
 17 16  1  6
 17 18  1  0
 17 19  1  0
 19 21  1  0
 20 14  1  0
 19 20  1  1
 21 22  1  0
 23 21  2  0
M  END
$$$$
