PIT.pdb
     RDKit          3D

 23 23  0  0  1  0  0  0  0  0999 V2000
   21.3285  -14.1778  -18.9565 N   0  0  0  0  0  0  0  0  0  0  0  0
   20.1141  -14.2363  -19.7473 C   0  0  0  0  0  0  0  0  0  0  0  0
   20.3797  -13.2390  -20.8806 C   0  0  0  0  0  0  0  0  0  0  0  0
   21.0577  -12.1197  -20.1147 C   0  0  0  0  0  0  0  0  0  0  0  0
   21.8785  -12.8673  -19.1081 C   0  0  1  0  0  0  0  0  0  0  0  0
   21.9320  -12.1327  -17.7855 C   0  0  0  0  0  0  0  0  0  0  0  0
   21.0361  -12.4307  -16.9849 O   0  0  0  0  0  0  0  0  0  0  0  0
   26.7607  -11.4877  -15.6541 C   0  0  0  0  0  0  0  0  0  0  0  0
   25.2702  -11.6991  -15.8001 C   0  0  0  0  0  0  0  0  0  0  0  0
   24.6572  -10.3340  -16.0462 C   0  0  2  0  0  0  0  0  0  0  0  0
   24.8201   -9.5988  -14.7102 C   0  0  0  0  0  0  0  0  0  0  0  0
   23.1698  -10.4474  -16.3401 C   0  0  2  0  0  0  0  0  0  0  0  0
   22.9506  -11.2033  -17.5666 N   0  0  0  0  0  0  0  0  0  0  0  0
   22.6063   -9.0965  -16.4610 C   0  0  0  0  0  0  0  0  0  0  0  0
   23.1923   -8.2767  -17.2814 O   0  0  0  0  0  0  0  0  0  0  0  0
   19.3863   -7.8757  -17.9429 C   0  0  0  0  0  0  0  0  0  0  0  0
   19.5682   -7.2465  -16.5862 C   0  0  1  0  0  0  0  0  0  0  0  0
   18.8437   -7.9489  -15.6160 O   0  0  0  0  0  0  0  0  0  0  0  0
   21.0173   -7.1923  -16.1660 C   0  0  2  0  0  0  0  0  0  0  0  0
   21.4946   -8.5470  -15.8069 N   0  0  0  0  0  0  0  0  0  0  0  0
   21.0908   -6.3234  -14.9623 C   0  0  0  0  0  0  0  0  0  0  0  0
   20.9597   -4.9544  -15.0646 O   0  0  0  0  0  0  0  0  0  0  0  0
   21.2758   -6.8099  -13.8067 O   0  0  0  0  0  0  0  0  0  0  0  0
  1  5  1  0
  2  3  1  0
  2  1  1  0
  3  4  1  0
  5  4  1  0
  5  6  1  1
  6 13  1  0
  6  7  2  0
  8  9  1  0
  9 10  1  0
 10 12  1  0
 10 11  1  1
 12 14  1  0
 12 13  1  6
 14 15  2  0
 17 16  1  6
 17 18  1  0
 17 19  1  0
 19 21  1  0
 20 14  1  0
 19 20  1  1
 21 22  1  0
 23 21  2  0
M  END
$$$$
