PIT.pdb
     RDKit          3D

 23 23  0  0  1  0  0  0  0  0999 V2000
   28.8966  -20.4706  -16.2580 N   0  0  0  0  0  0  0  0  0  0  0  0
   28.6588  -19.7486  -17.4932 C   0  0  0  0  0  0  0  0  0  0  0  0
   28.5411  -18.2905  -17.0354 C   0  0  0  0  0  0  0  0  0  0  0  0
   27.7264  -18.4604  -15.7679 C   0  0  0  0  0  0  0  0  0  0  0  0
   28.2691  -19.7381  -15.2033 C   0  0  1  0  0  0  0  0  0  0  0  0
   27.1810  -20.5515  -14.5352 C   0  0  0  0  0  0  0  0  0  0  0  0
   26.7554  -21.5036  -15.2020 O   0  0  0  0  0  0  0  0  0  0  0  0
   25.3550  -21.0638   -8.6708 C   0  0  0  0  0  0  0  0  0  0  0  0
   24.9821  -21.3346  -10.1115 C   0  0  0  0  0  0  0  0  0  0  0  0
   26.0517  -20.6862  -10.9690 C   0  0  2  0  0  0  0  0  0  0  0  0
   25.9124  -19.1867  -10.6795 C   0  0  0  0  0  0  0  0  0  0  0  0
   25.7743  -20.9056  -12.4477 C   0  0  2  0  0  0  0  0  0  0  0  0
   26.7475  -20.1859  -13.2594 N   0  0  0  0  0  0  0  0  0  0  0  0
   24.4126  -20.4442  -12.7480 C   0  0  0  0  0  0  0  0  0  0  0  0
   24.1780  -19.1702  -12.6451 O   0  0  0  0  0  0  0  0  0  0  0  0
   22.5384  -20.2632  -15.9772 C   0  0  0  0  0  0  0  0  0  0  0  0
   21.6531  -20.9017  -14.9390 C   0  0  1  0  0  0  0  0  0  0  0  0
   21.6916  -22.2968  -15.0489 O   0  0  0  0  0  0  0  0  0  0  0  0
   22.0425  -20.5141  -13.5327 C   0  0  2  0  0  0  0  0  0  0  0  0
   23.2982  -21.1963  -13.1456 N   0  0  0  0  0  0  0  0  0  0  0  0
   20.9508  -20.9735  -12.6348 C   0  0  0  0  0  0  0  0  0  0  0  0
   19.7244  -20.3430  -12.6265 O   0  0  0  0  0  0  0  0  0  0  0  0
   21.1102  -21.9560  -11.8502 O   0  0  0  0  0  0  0  0  0  0  0  0
  1  5  1  0
  2  3  1  0
  2  1  1  0
  3  4  1  0
  5  4  1  0
  5  6  1  6
  6 13  1  0
  6  7  2  0
  8  9  1  0
  9 10  1  0
 10 12  1  0
 10 11  1  6
 12 14  1  0
 12 13  1  6
 14 15  2  0
 17 16  1  6
 17 18  1  0
 17 19  1  0
 19 21  1  0
 20 14  1  0
 19 20  1  1
 21 22  1  0
 23 21  2  0
M  END
$$$$
