PIT.pdb
     RDKit          3D

 23 23  0  0  1  0  0  0  0  0999 V2000
   28.8511  -21.0397  -14.5282 N   0  0  0  0  0  0  0  0  0  0  0  0
   28.6099  -20.4603  -15.8358 C   0  0  0  0  0  0  0  0  0  0  0  0
   28.5406  -18.9559  -15.5505 C   0  0  0  0  0  0  0  0  0  0  0  0
   27.7455  -18.9526  -14.2593 C   0  0  0  0  0  0  0  0  0  0  0  0
   28.2637  -20.1709  -13.5571 C   0  0  1  0  0  0  0  0  0  0  0  0
   27.1666  -20.8685  -12.7815 C   0  0  0  0  0  0  0  0  0  0  0  0
   26.7547  -21.9199  -13.2886 O   0  0  0  0  0  0  0  0  0  0  0  0
   27.1255  -19.8412   -7.3962 C   0  0  0  0  0  0  0  0  0  0  0  0
   27.0166  -20.6583   -8.6644 C   0  0  0  0  0  0  0  0  0  0  0  0
   25.7332  -20.2315   -9.3503 C   0  0  2  0  0  0  0  0  0  0  0  0
   24.6219  -20.8587   -8.4998 C   0  0  0  0  0  0  0  0  0  0  0  0
   25.6399  -20.8185  -10.7497 C   0  0  2  0  0  0  0  0  0  0  0  0
   26.7108  -20.2995  -11.5908 N   0  0  0  0  0  0  0  0  0  0  0  0
   24.3289  -20.4801  -11.3191 C   0  0  0  0  0  0  0  0  0  0  0  0
   24.0504  -19.2196  -11.4679 O   0  0  0  0  0  0  0  0  0  0  0  0
   23.1642  -21.0941  -14.7670 C   0  0  0  0  0  0  0  0  0  0  0  0
   22.0431  -21.4822  -13.8386 C   0  0  1  0  0  0  0  0  0  0  0  0
   22.0212  -22.8684  -13.6447 O   0  0  0  0  0  0  0  0  0  0  0  0
   22.1487  -20.8050  -12.4933 C   0  0  2  0  0  0  0  0  0  0  0  0
   23.3067  -21.3411  -11.7426 N   0  0  0  0  0  0  0  0  0  0  0  0
   20.9041  -21.1226  -11.7455 C   0  0  0  0  0  0  0  0  0  0  0  0
   19.6821  -20.6350  -12.1591 O   0  0  0  0  0  0  0  0  0  0  0  0
   20.9243  -21.8490  -10.7072 O   0  0  0  0  0  0  0  0  0  0  0  0
  1  5  1  0
  2  3  1  0
  2  1  1  0
  3  4  1  0
  5  4  1  0
  5  6  1  6
  6 13  1  0
  6  7  2  0
  8  9  1  0
  9 10  1  0
 10 12  1  0
 10 11  1  1
 12 14  1  0
 12 13  1  6
 14 15  2  0
 17 16  1  6
 17 18  1  0
 17 19  1  0
 19 21  1  0
 20 14  1  0
 19 20  1  1
 21 22  1  0
 23 21  2  0
M  END
$$$$
