WWG.pdb
     RDKit          3D

 33 36  0  0  1  0  0  0  0  0999 V2000
   22.9649  -22.0325  -12.3545 N   0  0  0  0  0  0  0  0  0  0  0  0
   22.8217  -20.6805  -12.8148 C   0  0  1  0  0  0  0  0  0  0  0  0
   22.1240  -19.8595  -11.7599 C   0  0  0  0  0  0  0  0  0  0  0  0
   20.9126  -20.5349  -11.2560 C   0  0  0  0  0  0  0  0  0  0  0  0
   20.5631  -20.8709   -9.9875 C   0  0  0  0  0  0  0  0  0  0  0  0
   19.3705  -21.4931   -9.9900 N   0  0  0  0  0  0  0  0  0  0  0  0
   18.9523  -21.5566  -11.2632 C   0  0  0  0  0  0  0  0  0  0  0  0
   17.7827  -22.1066  -11.7985 C   0  0  0  0  0  0  0  0  0  0  0  0
   17.6013  -22.0402  -13.1560 C   0  0  0  0  0  0  0  0  0  0  0  0
   18.5377  -21.4507  -13.9813 C   0  0  0  0  0  0  0  0  0  0  0  0
   19.6829  -20.9126  -13.4537 C   0  0  0  0  0  0  0  0  0  0  0  0
   19.8746  -20.9749  -12.0847 C   0  0  0  0  0  0  0  0  0  0  0  0
   24.1350  -20.0610  -13.0734 C   0  0  0  0  0  0  0  0  0  0  0  0
   24.7252  -19.3724  -12.1658 O   0  0  0  0  0  0  0  0  0  0  0  0
   24.8647  -20.1506  -14.3158 N   0  0  0  0  0  0  0  0  0  0  0  0
   26.2044  -19.6291  -14.4115 C   0  0  1  0  0  0  0  0  0  0  0  0
   27.2869  -20.6164  -14.2950 C   0  0  0  0  0  0  0  0  0  0  0  0
   27.6117  -21.1254  -12.9728 C   0  0  0  0  0  0  0  0  0  0  0  0
   26.7347  -21.8958  -12.2014 C   0  0  0  0  0  0  0  0  0  0  0  0
   27.3201  -22.1733  -11.0332 N   0  0  0  0  0  0  0  0  0  0  0  0
   28.5601  -21.6198  -10.9865 C   0  0  0  0  0  0  0  0  0  0  0  0
   29.5329  -21.6407  -10.0148 C   0  0  0  0  0  0  0  0  0  0  0  0
   30.7161  -20.9993  -10.2494 C   0  0  0  0  0  0  0  0  0  0  0  0
   30.9160  -20.3482  -11.4411 C   0  0  0  0  0  0  0  0  0  0  0  0
   29.9322  -20.3407  -12.3909 C   0  0  0  0  0  0  0  0  0  0  0  0
   28.7301  -20.9663  -12.2082 C   0  0  0  0  0  0  0  0  0  0  0  0
   26.3383  -18.8294  -15.7024 C   0  0  0  0  0  0  0  0  0  0  0  0
   25.8010  -19.2960  -16.7204 O   0  0  0  0  0  0  0  0  0  0  0  0
   27.0450  -17.6102  -15.7360 N   0  0  0  0  0  0  0  0  0  0  0  0
   27.1492  -16.7647  -16.8969 C   0  0  0  0  0  0  0  0  0  0  0  0
   28.1853  -17.2215  -17.8449 C   0  0  0  0  0  0  0  0  0  0  0  0
   29.1336  -17.9051  -17.4501 O   0  0  0  0  0  0  0  0  0  0  0  0
   28.0815  -16.8748  -19.1748 O   0  0  0  0  0  0  0  0  0  0  0  0
  2 13  1  0
  2  1  1  1
  3  2  1  0
  4  3  1  0
  5  4  2  0
  6  5  1  0
  7  6  1  0
  7 12  2  0
  8  7  1  0
  9  8  2  0
  9 10  1  0
 10 11  2  0
 11 12  1  0
 12  4  1  0
 13 14  2  0
 15 16  1  0
 15 13  1  0
 16 17  1  6
 18 17  1  0
 19 18  2  0
 20 19  1  0
 21 20  1  0
 21 26  2  0
 22 21  1  0
 23 22  2  0
 23 24  1  0
 24 25  2  0
 25 26  1  0
 26 18  1  0
 27 28  2  0
 27 16  1  0
 29 27  1  0
 30 29  1  0
 31 30  1  0
 32 31  2  0
 33 31  1  0
M  END
$$$$
