WWG.pdb
     RDKit          3D

 33 36  0  0  1  0  0  0  0  0999 V2000
   29.1227  -19.7288  -15.7480 N   0  0  0  0  0  0  0  0  0  0  0  0
   27.9360  -19.5591  -14.9587 C   0  0  1  0  0  0  0  0  0  0  0  0
   26.7567  -19.3159  -15.8663 C   0  0  0  0  0  0  0  0  0  0  0  0
   26.8792  -18.0346  -16.5881 C   0  0  0  0  0  0  0  0  0  0  0  0
   26.9911  -17.7885  -17.9188 C   0  0  0  0  0  0  0  0  0  0  0  0
   27.0961  -16.4647  -18.1331 N   0  0  0  0  0  0  0  0  0  0  0  0
   27.0510  -15.8585  -16.9371 C   0  0  0  0  0  0  0  0  0  0  0  0
   27.1240  -14.4990  -16.6154 C   0  0  0  0  0  0  0  0  0  0  0  0
   27.0562  -14.1448  -15.2925 C   0  0  0  0  0  0  0  0  0  0  0  0
   26.9201  -15.0920  -14.2977 C   0  0  0  0  0  0  0  0  0  0  0  0
   26.8490  -16.4234  -14.6162 C   0  0  0  0  0  0  0  0  0  0  0  0
   26.9165  -16.7906  -15.9487 C   0  0  0  0  0  0  0  0  0  0  0  0
   27.6484  -20.7642  -14.1583 C   0  0  0  0  0  0  0  0  0  0  0  0
   28.0190  -21.9239  -14.5633 O   0  0  0  0  0  0  0  0  0  0  0  0
   26.9485  -20.7745  -12.8958 N   0  0  0  0  0  0  0  0  0  0  0  0
   26.4430  -22.0104  -12.3547 C   0  0  1  0  0  0  0  0  0  0  0  0
   26.8526  -22.3231  -10.9782 C   0  0  0  0  0  0  0  0  0  0  0  0
   26.7647  -21.2699   -9.9804 C   0  0  0  0  0  0  0  0  0  0  0  0
   25.6502  -20.4379   -9.8270 C   0  0  0  0  0  0  0  0  0  0  0  0
   25.8995  -19.5608   -8.8509 N   0  0  0  0  0  0  0  0  0  0  0  0
   27.1406  -19.7692   -8.3385 C   0  0  0  0  0  0  0  0  0  0  0  0
   27.8281  -19.1397   -7.3275 C   0  0  0  0  0  0  0  0  0  0  0  0
   29.0809  -19.5795   -7.0059 C   0  0  0  0  0  0  0  0  0  0  0  0
   29.6316  -20.6342   -7.6902 C   0  0  0  0  0  0  0  0  0  0  0  0
   28.9281  -21.2424   -8.6927 C   0  0  0  0  0  0  0  0  0  0  0  0
   27.6715  -20.8430   -9.0551 C   0  0  0  0  0  0  0  0  0  0  0  0
   24.9242  -22.0286  -12.4844 C   0  0  0  0  0  0  0  0  0  0  0  0
   24.3502  -20.9352  -12.6169 O   0  0  0  0  0  0  0  0  0  0  0  0
   24.2033  -23.2396  -12.4542 N   0  0  0  0  0  0  0  0  0  0  0  0
   23.0658  -23.5276  -13.2889 C   0  0  0  0  0  0  0  0  0  0  0  0
   21.8157  -22.9319  -12.7759 C   0  0  0  0  0  0  0  0  0  0  0  0
   21.8301  -22.2304  -11.7610 O   0  0  0  0  0  0  0  0  0  0  0  0
   20.6331  -23.1694  -13.4427 O   0  0  0  0  0  0  0  0  0  0  0  0
  2 13  1  0
  2  1  1  6
  3  2  1  0
  4  3  1  0
  5  4  2  0
  6  5  1  0
  7  6  1  0
  7 12  2  0
  8  7  1  0
  9  8  2  0
  9 10  1  0
 10 11  2  0
 11 12  1  0
 12  4  1  0
 13 14  2  0
 15 16  1  0
 15 13  1  0
 16 17  1  1
 18 17  1  0
 19 18  2  0
 20 19  1  0
 21 20  1  0
 21 26  2  0
 22 21  1  0
 23 22  2  0
 23 24  1  0
 24 25  2  0
 25 26  1  0
 26 18  1  0
 27 28  2  0
 27 16  1  0
 29 27  1  0
 30 29  1  0
 31 30  1  0
 32 31  2  0
 33 31  1  0
M  END
$$$$
