WWG.pdb
     RDKit          3D

 33 36  0  0  1  0  0  0  0  0999 V2000
   33.6522  -22.9175    6.9839 N   0  0  0  0  0  0  0  0  0  0  0  0
   34.7275  -23.5319    6.2582 C   0  0  1  0  0  0  0  0  0  0  0  0
   34.9037  -22.8360    4.9321 C   0  0  0  0  0  0  0  0  0  0  0  0
   33.7426  -23.0481    4.0464 C   0  0  0  0  0  0  0  0  0  0  0  0
   33.3461  -24.1609    3.3767 C   0  0  0  0  0  0  0  0  0  0  0  0
   32.2326  -23.8981    2.6694 N   0  0  0  0  0  0  0  0  0  0  0  0
   31.9123  -22.6133    2.8855 C   0  0  0  0  0  0  0  0  0  0  0  0
   30.8502  -21.8550    2.3817 C   0  0  0  0  0  0  0  0  0  0  0  0
   30.7562  -20.5419    2.7655 C   0  0  0  0  0  0  0  0  0  0  0  0
   31.6761  -19.9729    3.6230 C   0  0  0  0  0  0  0  0  0  0  0  0
   32.7159  -20.7187    4.1149 C   0  0  0  0  0  0  0  0  0  0  0  0
   32.8189  -22.0448    3.7333 C   0  0  0  0  0  0  0  0  0  0  0  0
   36.0003  -23.4265    6.9958 C   0  0  0  0  0  0  0  0  0  0  0  0
   36.3740  -22.3083    7.5022 O   0  0  0  0  0  0  0  0  0  0  0  0
   36.9248  -24.5133    7.2153 N   0  0  0  0  0  0  0  0  0  0  0  0
   38.1768  -24.2783    7.8884 C   0  0  1  0  0  0  0  0  0  0  0  0
   38.2987  -24.8530    9.2357 C   0  0  0  0  0  0  0  0  0  0  0  0
   37.3369  -24.4436   10.2456 C   0  0  0  0  0  0  0  0  0  0  0  0
   36.1503  -25.1354   10.5123 C   0  0  0  0  0  0  0  0  0  0  0  0
   35.4789  -24.4854   11.4667 N   0  0  0  0  0  0  0  0  0  0  0  0
   36.1675  -23.3805   11.8555 C   0  0  0  0  0  0  0  0  0  0  0  0
   35.8935  -22.4197   12.8004 C   0  0  0  0  0  0  0  0  0  0  0  0
   36.7919  -21.4093   12.9963 C   0  0  0  0  0  0  0  0  0  0  0  0
   37.9454  -21.3670   12.2537 C   0  0  0  0  0  0  0  0  0  0  0  0
   38.1942  -22.3335   11.3189 C   0  0  0  0  0  0  0  0  0  0  0  0
   37.3298  -23.3664   11.0825 C   0  0  0  0  0  0  0  0  0  0  0  0
   39.3200  -24.7465    6.9952 C   0  0  0  0  0  0  0  0  0  0  0  0
   39.1715  -25.8252    6.3977 O   0  0  0  0  0  0  0  0  0  0  0  0
   40.4972  -23.9837    6.8558 N   0  0  0  0  0  0  0  0  0  0  0  0
   41.6110  -24.3558    6.0225 C   0  0  0  0  0  0  0  0  0  0  0  0
   42.2426  -25.6219    6.4453 C   0  0  0  0  0  0  0  0  0  0  0  0
   43.2240  -26.0614    5.8402 O   0  0  0  0  0  0  0  0  0  0  0  0
   41.7229  -26.3073    7.5222 O   0  0  0  0  0  0  0  0  0  0  0  0
  2 13  1  0
  2  1  1  1
  3  2  1  0
  4  3  1  0
  5  4  2  0
  6  5  1  0
  7  6  1  0
  7 12  2  0
  8  7  1  0
  9  8  2  0
  9 10  1  0
 10 11  2  0
 11 12  1  0
 12  4  1  0
 13 14  2  0
 15 16  1  0
 15 13  1  0
 16 17  1  1
 18 17  1  0
 19 18  2  0
 20 19  1  0
 21 20  1  0
 21 26  2  0
 22 21  1  0
 23 22  2  0
 23 24  1  0
 24 25  2  0
 25 26  1  0
 26 18  1  0
 27 28  2  0
 27 16  1  0
 29 27  1  0
 30 29  1  0
 31 30  1  0
 32 31  2  0
 33 31  1  0
M  END
$$$$
