WWG.pdb
     RDKit          3D

 33 36  0  0  1  0  0  0  0  0999 V2000
   26.7516  -22.4688  -16.8165 N   0  0  0  0  0  0  0  0  0  0  0  0
   25.7487  -21.5609  -16.3368 C   0  0  1  0  0  0  0  0  0  0  0  0
   24.4772  -21.7515  -17.1245 C   0  0  0  0  0  0  0  0  0  0  0  0
   24.4926  -20.9772  -18.3807 C   0  0  0  0  0  0  0  0  0  0  0  0
   24.7829  -21.3722  -19.6471 C   0  0  0  0  0  0  0  0  0  0  0  0
   24.6881  -20.3256  -20.4869 N   0  0  0  0  0  0  0  0  0  0  0  0
   24.3354  -19.2556  -19.7584 C   0  0  0  0  0  0  0  0  0  0  0  0
   24.1125  -17.9326  -20.1547 C   0  0  0  0  0  0  0  0  0  0  0  0
   23.7608  -17.0216  -19.1921 C   0  0  0  0  0  0  0  0  0  0  0  0
   23.6272  -17.3863  -17.8675 C   0  0  0  0  0  0  0  0  0  0  0  0
   23.8464  -18.6836  -17.4823 C   0  0  0  0  0  0  0  0  0  0  0  0
   24.2017  -19.6101  -18.4468 C   0  0  0  0  0  0  0  0  0  0  0  0
   25.4402  -21.8061  -14.9155 C   0  0  0  0  0  0  0  0  0  0  0  0
   25.6189  -22.9658  -14.3965 O   0  0  0  0  0  0  0  0  0  0  0  0
   24.9234  -20.8202  -13.9963 N   0  0  0  0  0  0  0  0  0  0  0  0
   24.7661  -21.1395  -12.6002 C   0  0  1  0  0  0  0  0  0  0  0  0
   25.4901  -20.2738  -11.6586 C   0  0  0  0  0  0  0  0  0  0  0  0
   26.9300  -20.1477  -11.8111 C   0  0  0  0  0  0  0  0  0  0  0  0
   27.5424  -19.5183  -12.9003 C   0  0  0  0  0  0  0  0  0  0  0  0
   28.8678  -19.6006  -12.7551 N   0  0  0  0  0  0  0  0  0  0  0  0
   29.1740  -20.2615  -11.6081 C   0  0  0  0  0  0  0  0  0  0  0  0
   30.3817  -20.5777  -11.0315 C   0  0  0  0  0  0  0  0  0  0  0  0
   30.3911  -21.2470   -9.8405 C   0  0  0  0  0  0  0  0  0  0  0  0
   29.2055  -21.5919   -9.2411 C   0  0  0  0  0  0  0  0  0  0  0  0
   28.0176  -21.2675   -9.8355 C   0  0  0  0  0  0  0  0  0  0  0  0
   27.9506  -20.5985  -11.0263 C   0  0  0  0  0  0  0  0  0  0  0  0
   23.2803  -21.1832  -12.2619 C   0  0  0  0  0  0  0  0  0  0  0  0
   22.9716  -21.3604  -11.0720 O   0  0  0  0  0  0  0  0  0  0  0  0
   22.2990  -21.0291  -13.2620 N   0  0  0  0  0  0  0  0  0  0  0  0
   20.8826  -21.1549  -13.0349 C   0  0  0  0  0  0  0  0  0  0  0  0
   20.3297  -20.0377  -12.2432 C   0  0  0  0  0  0  0  0  0  0  0  0
   20.4769  -18.8727  -12.6219 O   0  0  0  0  0  0  0  0  0  0  0  0
   19.6487  -20.3110  -11.0765 O   0  0  0  0  0  0  0  0  0  0  0  0
  2 13  1  0
  2  1  1  6
  3  2  1  0
  4  3  1  0
  5  4  2  0
  6  5  1  0
  7  6  1  0
  7 12  2  0
  8  7  1  0
  9  8  2  0
  9 10  1  0
 10 11  2  0
 11 12  1  0
 12  4  1  0
 13 14  2  0
 15 16  1  0
 15 13  1  0
 16 17  1  1
 18 17  1  0
 19 18  2  0
 20 19  1  0
 21 20  1  0
 21 26  2  0
 22 21  1  0
 23 22  2  0
 23 24  1  0
 24 25  2  0
 25 26  1  0
 26 18  1  0
 27 28  2  0
 27 16  1  0
 29 27  1  0
 30 29  1  0
 31 30  1  0
 32 31  2  0
 33 31  1  0
M  END
$$$$
