WWG.pdb
     RDKit          3D

 33 36  0  0  1  0  0  0  0  0999 V2000
   27.3198  -19.4695  -10.7288 N   0  0  0  0  0  0  0  0  0  0  0  0
   26.6581  -20.7417  -10.6664 C   0  0  1  0  0  0  0  0  0  0  0  0
   25.9065  -20.8562   -9.3642 C   0  0  0  0  0  0  0  0  0  0  0  0
   26.7301  -20.4223   -8.2192 C   0  0  0  0  0  0  0  0  0  0  0  0
   26.4214  -19.6024   -7.1817 C   0  0  0  0  0  0  0  0  0  0  0  0
   27.4864  -19.4677   -6.3711 N   0  0  0  0  0  0  0  0  0  0  0  0
   28.4818  -20.2033   -6.8888 C   0  0  0  0  0  0  0  0  0  0  0  0
   29.7895  -20.3953   -6.4303 C   0  0  0  0  0  0  0  0  0  0  0  0
   30.6172  -21.2067   -7.1629 C   0  0  0  0  0  0  0  0  0  0  0  0
   30.1852  -21.8219   -8.3206 C   0  0  0  0  0  0  0  0  0  0  0  0
   28.9032  -21.6316   -8.7674 C   0  0  0  0  0  0  0  0  0  0  0  0
   28.0605  -20.8144   -8.0345 C   0  0  0  0  0  0  0  0  0  0  0  0
   25.6847  -20.8934  -11.7641 C   0  0  0  0  0  0  0  0  0  0  0  0
   24.8389  -19.9640  -12.0234 O   0  0  0  0  0  0  0  0  0  0  0  0
   25.5761  -22.0483  -12.6234 N   0  0  0  0  0  0  0  0  0  0  0  0
   24.6907  -22.0285  -13.7598 C   0  0  1  0  0  0  0  0  0  0  0  0
   24.9479  -23.0436  -14.7911 C   0  0  0  0  0  0  0  0  0  0  0  0
   24.1701  -22.9877  -16.0177 C   0  0  0  0  0  0  0  0  0  0  0  0
   24.1394  -21.8757  -16.8665 C   0  0  0  0  0  0  0  0  0  0  0  0
   23.3099  -22.1325  -17.8816 N   0  0  0  0  0  0  0  0  0  0  0  0
   22.7795  -23.3766  -17.7510 C   0  0  0  0  0  0  0  0  0  0  0  0
   21.9004  -24.0814  -18.5393 C   0  0  0  0  0  0  0  0  0  0  0  0
   21.5461  -25.3471  -18.1667 C   0  0  0  0  0  0  0  0  0  0  0  0
   22.0676  -25.8932  -17.0205 C   0  0  0  0  0  0  0  0  0  0  0  0
   22.9389  -25.1713  -16.2527 C   0  0  0  0  0  0  0  0  0  0  0  0
   23.3271  -23.9014  -16.5791 C   0  0  0  0  0  0  0  0  0  0  0  0
   23.2488  -22.1068  -13.2714 C   0  0  0  0  0  0  0  0  0  0  0  0
   23.0307  -22.7657  -12.2413 O   0  0  0  0  0  0  0  0  0  0  0  0
   22.2070  -21.4570  -13.9639 N   0  0  0  0  0  0  0  0  0  0  0  0
   20.8711  -21.2934  -13.4520 C   0  0  0  0  0  0  0  0  0  0  0  0
   20.0419  -22.5033  -13.6231 C   0  0  0  0  0  0  0  0  0  0  0  0
   18.9146  -22.5619  -13.1248 O   0  0  0  0  0  0  0  0  0  0  0  0
   20.5417  -23.5662  -14.3443 O   0  0  0  0  0  0  0  0  0  0  0  0
  2 13  1  0
  2  1  1  6
  3  2  1  0
  4  3  1  0
  5  4  2  0
  6  5  1  0
  7  6  1  0
  7 12  2  0
  8  7  1  0
  9  8  2  0
  9 10  1  0
 10 11  2  0
 11 12  1  0
 12  4  1  0
 13 14  2  0
 15 16  1  0
 15 13  1  0
 16 17  1  6
 18 17  1  0
 19 18  2  0
 20 19  1  0
 21 20  1  0
 21 26  2  0
 22 21  1  0
 23 22  2  0
 23 24  1  0
 24 25  2  0
 25 26  1  0
 26 18  1  0
 27 28  2  0
 27 16  1  0
 29 27  1  0
 30 29  1  0
 31 30  1  0
 32 31  2  0
 33 31  1  0
M  END
$$$$
