WWG.pdb
     RDKit          3D

 33 36  0  0  1  0  0  0  0  0999 V2000
   27.7893  -20.8616  -16.3791 N   0  0  0  0  0  0  0  0  0  0  0  0
   27.9437  -20.0717  -15.1906 C   0  0  1  0  0  0  0  0  0  0  0  0
   27.1885  -18.7756  -15.3444 C   0  0  0  0  0  0  0  0  0  0  0  0
   27.6979  -17.9788  -16.4772 C   0  0  0  0  0  0  0  0  0  0  0  0
   27.0418  -17.4659  -17.5498 C   0  0  0  0  0  0  0  0  0  0  0  0
   27.9072  -16.8171  -18.3495 N   0  0  0  0  0  0  0  0  0  0  0  0
   29.1224  -16.9130  -17.7892 C   0  0  0  0  0  0  0  0  0  0  0  0
   30.3547  -16.4144  -18.2250 C   0  0  0  0  0  0  0  0  0  0  0  0
   31.4604  -16.6626  -17.4529 C   0  0  0  0  0  0  0  0  0  0  0  0
   31.3736  -17.3819  -16.2780 C   0  0  0  0  0  0  0  0  0  0  0  0
   30.1646  -17.8692  -15.8536 C   0  0  0  0  0  0  0  0  0  0  0  0
   29.0431  -17.6237  -16.6263 C   0  0  0  0  0  0  0  0  0  0  0  0
   27.4043  -20.7708  -14.0093 C   0  0  0  0  0  0  0  0  0  0  0  0
   26.4885  -21.6606  -14.1355 O   0  0  0  0  0  0  0  0  0  0  0  0
   27.8211  -20.5405  -12.6465 N   0  0  0  0  0  0  0  0  0  0  0  0
   27.2212  -21.2830  -11.5672 C   0  0  1  0  0  0  0  0  0  0  0  0
   27.9641  -21.2845  -10.2990 C   0  0  0  0  0  0  0  0  0  0  0  0
   27.2877  -20.8000   -9.1073 C   0  0  0  0  0  0  0  0  0  0  0  0
   25.9490  -20.3936   -9.0865 C   0  0  0  0  0  0  0  0  0  0  0  0
   25.6454  -19.9761   -7.8544 N   0  0  0  0  0  0  0  0  0  0  0  0
   26.7287  -20.0858   -7.0416 C   0  0  0  0  0  0  0  0  0  0  0  0
   26.9020  -19.7984   -5.7081 C   0  0  0  0  0  0  0  0  0  0  0  0
   28.1206  -20.0282   -5.1347 C   0  0  0  0  0  0  0  0  0  0  0  0
   29.1463  -20.5381   -5.8909 C   0  0  0  0  0  0  0  0  0  0  0  0
   28.9492  -20.8141   -7.2156 C   0  0  0  0  0  0  0  0  0  0  0  0
   27.7506  -20.6035   -7.8393 C   0  0  0  0  0  0  0  0  0  0  0  0
   25.7930  -20.7933  -11.3569 C   0  0  0  0  0  0  0  0  0  0  0  0
   25.6313  -19.5795  -11.1491 O   0  0  0  0  0  0  0  0  0  0  0  0
   24.7021  -21.6851  -11.3966 N   0  0  0  0  0  0  0  0  0  0  0  0
   23.4215  -21.3749  -11.9775 C   0  0  0  0  0  0  0  0  0  0  0  0
   22.4803  -20.7862  -11.0038 C   0  0  0  0  0  0  0  0  0  0  0  0
   22.8391  -20.5680   -9.8436 O   0  0  0  0  0  0  0  0  0  0  0  0
   21.1967  -20.4844  -11.4052 O   0  0  0  0  0  0  0  0  0  0  0  0
  2 13  1  0
  2  1  1  6
  3  2  1  0
  4  3  1  0
  5  4  2  0
  6  5  1  0
  7  6  1  0
  7 12  2  0
  8  7  1  0
  9  8  2  0
  9 10  1  0
 10 11  2  0
 11 12  1  0
 12  4  1  0
 13 14  2  0
 15 16  1  0
 15 13  1  0
 16 17  1  1
 18 17  1  0
 19 18  2  0
 20 19  1  0
 21 20  1  0
 21 26  2  0
 22 21  1  0
 23 22  2  0
 23 24  1  0
 24 25  2  0
 25 26  1  0
 26 18  1  0
 27 28  2  0
 27 16  1  0
 29 27  1  0
 30 29  1  0
 31 30  1  0
 32 31  2  0
 33 31  1  0
M  END
$$$$
