WWG.pdb
     RDKit          3D

 33 36  0  0  1  0  0  0  0  0999 V2000
   24.3655  -18.7271  -11.7426 N   0  0  0  0  0  0  0  0  0  0  0  0
   24.1033  -20.1383  -11.7276 C   0  0  1  0  0  0  0  0  0  0  0  0
   24.4020  -20.7215  -13.0856 C   0  0  0  0  0  0  0  0  0  0  0  0
   23.7352  -19.9647  -14.1628 C   0  0  0  0  0  0  0  0  0  0  0  0
   24.2610  -19.1467  -15.1107 C   0  0  0  0  0  0  0  0  0  0  0  0
   23.2787  -18.6498  -15.8837 N   0  0  0  0  0  0  0  0  0  0  0  0
   22.1188  -19.1502  -15.4318 C   0  0  0  0  0  0  0  0  0  0  0  0
   20.8122  -18.9412  -15.8860 C   0  0  0  0  0  0  0  0  0  0  0  0
   19.7917  -19.5817  -15.2315 C   0  0  0  0  0  0  0  0  0  0  0  0
   20.0328  -20.4108  -14.1546 C   0  0  0  0  0  0  0  0  0  0  0  0
   21.3143  -20.6135  -13.7118 C   0  0  0  0  0  0  0  0  0  0  0  0
   22.3509  -19.9714  -14.3661 C   0  0  0  0  0  0  0  0  0  0  0  0
   24.9546  -20.8305  -10.7420 C   0  0  0  0  0  0  0  0  0  0  0  0
   25.3893  -22.0162  -10.9691 O   0  0  0  0  0  0  0  0  0  0  0  0
   25.3692  -20.2818   -9.4727 N   0  0  0  0  0  0  0  0  0  0  0  0
   25.0878  -20.9876   -8.2486 C   0  0  1  0  0  0  0  0  0  0  0  0
   25.6376  -20.3908   -7.0231 C   0  0  0  0  0  0  0  0  0  0  0  0
   27.0772  -20.2117   -6.9335 C   0  0  0  0  0  0  0  0  0  0  0  0
   27.9439  -20.3389   -8.0245 C   0  0  0  0  0  0  0  0  0  0  0  0
   29.1968  -20.1465   -7.6031 N   0  0  0  0  0  0  0  0  0  0  0  0
   29.2092  -19.8934   -6.2682 C   0  0  0  0  0  0  0  0  0  0  0  0
   30.2408  -19.6233   -5.3999 C   0  0  0  0  0  0  0  0  0  0  0  0
   29.9541  -19.3857   -4.0854 C   0  0  0  0  0  0  0  0  0  0  0  0
   28.6519  -19.4197   -3.6530 C   0  0  0  0  0  0  0  0  0  0  0  0
   27.6439  -19.6922   -4.5359 C   0  0  0  0  0  0  0  0  0  0  0  0
   27.8746  -19.9370   -5.8614 C   0  0  0  0  0  0  0  0  0  0  0  0
   23.5821  -21.1901   -8.1232 C   0  0  0  0  0  0  0  0  0  0  0  0
   22.8491  -20.2544   -8.4838 O   0  0  0  0  0  0  0  0  0  0  0  0
   23.0466  -22.3919   -7.6173 N   0  0  0  0  0  0  0  0  0  0  0  0
   21.6382  -22.6780   -7.5276 C   0  0  0  0  0  0  0  0  0  0  0  0
   21.0718  -22.3491   -6.2041 C   0  0  0  0  0  0  0  0  0  0  0  0
   21.7931  -21.8920   -5.3135 O   0  0  0  0  0  0  0  0  0  0  0  0
   19.7291  -22.5595   -5.9747 O   0  0  0  0  0  0  0  0  0  0  0  0
  2 13  1  0
  2  1  1  6
  3  2  1  0
  4  3  1  0
  5  4  2  0
  6  5  1  0
  7  6  1  0
  7 12  2  0
  8  7  1  0
  9  8  2  0
  9 10  1  0
 10 11  2  0
 11 12  1  0
 12  4  1  0
 13 14  2  0
 15 16  1  0
 15 13  1  0
 16 17  1  1
 18 17  1  0
 19 18  2  0
 20 19  1  0
 21 20  1  0
 21 26  2  0
 22 21  1  0
 23 22  2  0
 23 24  1  0
 24 25  2  0
 25 26  1  0
 26 18  1  0
 27 28  2  0
 27 16  1  0
 29 27  1  0
 30 29  1  0
 31 30  1  0
 32 31  2  0
 33 31  1  0
M  END
$$$$
