WWG.pdb
     RDKit          3D

 33 36  0  0  1  0  0  0  0  0999 V2000
   22.9068  -20.4524  -10.7636 N   0  0  0  0  0  0  0  0  0  0  0  0
   24.0523  -20.4202  -11.6279 C   0  0  1  0  0  0  0  0  0  0  0  0
   23.7838  -19.4940  -12.7871 C   0  0  0  0  0  0  0  0  0  0  0  0
   22.4598  -19.7435  -13.3891 C   0  0  0  0  0  0  0  0  0  0  0  0
   21.2433  -19.2332  -13.0670 C   0  0  0  0  0  0  0  0  0  0  0  0
   20.3000  -19.7530  -13.8729 N   0  0  0  0  0  0  0  0  0  0  0  0
   20.9120  -20.5989  -14.7154 C   0  0  0  0  0  0  0  0  0  0  0  0
   20.3794  -21.3902  -15.7387 C   0  0  0  0  0  0  0  0  0  0  0  0
   21.2394  -22.1803  -16.4572 C   0  0  0  0  0  0  0  0  0  0  0  0
   22.5932  -22.2034  -16.1887 C   0  0  0  0  0  0  0  0  0  0  0  0
   23.1122  -21.4269  -15.1852 C   0  0  0  0  0  0  0  0  0  0  0  0
   22.2518  -20.6262  -14.4547 C   0  0  0  0  0  0  0  0  0  0  0  0
   25.2448  -19.9207  -10.9181 C   0  0  0  0  0  0  0  0  0  0  0  0
   25.6754  -18.7287  -11.1180 O   0  0  0  0  0  0  0  0  0  0  0  0
   26.0254  -20.6803   -9.9705 N   0  0  0  0  0  0  0  0  0  0  0  0
   27.4580  -20.7561  -10.1035 C   0  0  1  0  0  0  0  0  0  0  0  0
   28.2030  -21.0369   -8.8680 C   0  0  0  0  0  0  0  0  0  0  0  0
   27.9362  -20.2096   -7.7032 C   0  0  0  0  0  0  0  0  0  0  0  0
   27.0272  -19.1458   -7.6991 C   0  0  0  0  0  0  0  0  0  0  0  0
   27.0401  -18.5738   -6.4920 N   0  0  0  0  0  0  0  0  0  0  0  0
   27.9233  -19.2115   -5.6800 C   0  0  0  0  0  0  0  0  0  0  0  0
   28.2717  -19.0011   -4.3665 C   0  0  0  0  0  0  0  0  0  0  0  0
   29.1957  -19.8239   -3.7872 C   0  0  0  0  0  0  0  0  0  0  0  0
   29.7589  -20.8403   -4.5176 C   0  0  0  0  0  0  0  0  0  0  0  0
   29.3968  -21.0280   -5.8227 C   0  0  0  0  0  0  0  0  0  0  0  0
   28.4775  -20.2345   -6.4513 C   0  0  0  0  0  0  0  0  0  0  0  0
   27.8064  -21.7698  -11.1874 C   0  0  0  0  0  0  0  0  0  0  0  0
   28.1712  -22.8978  -10.8170 O   0  0  0  0  0  0  0  0  0  0  0  0
   27.7176  -21.4368  -12.5543 N   0  0  0  0  0  0  0  0  0  0  0  0
   28.2339  -22.2521  -13.6230 C   0  0  0  0  0  0  0  0  0  0  0  0
   27.9948  -21.6642  -14.9564 C   0  0  0  0  0  0  0  0  0  0  0  0
   27.4269  -20.5741  -15.0643 O   0  0  0  0  0  0  0  0  0  0  0  0
   28.4118  -22.3473  -16.0785 O   0  0  0  0  0  0  0  0  0  0  0  0
  2 13  1  0
  2  1  1  1
  3  2  1  0
  4  3  1  0
  5  4  2  0
  6  5  1  0
  7  6  1  0
  7 12  2  0
  8  7  1  0
  9  8  2  0
  9 10  1  0
 10 11  2  0
 11 12  1  0
 12  4  1  0
 13 14  2  0
 15 16  1  0
 15 13  1  0
 16 17  1  1
 18 17  1  0
 19 18  2  0
 20 19  1  0
 21 20  1  0
 21 26  2  0
 22 21  1  0
 23 22  2  0
 23 24  1  0
 24 25  2  0
 25 26  1  0
 26 18  1  0
 27 28  2  0
 27 16  1  0
 29 27  1  0
 30 29  1  0
 31 30  1  0
 32 31  2  0
 33 31  1  0
M  END
$$$$
