WWG.pdb
     RDKit          3D

 33 36  0  0  1  0  0  0  0  0999 V2000
   21.1961  -19.8793  -14.0981 N   0  0  0  0  0  0  0  0  0  0  0  0
   22.1778  -19.5172  -15.0807 C   0  0  1  0  0  0  0  0  0  0  0  0
   21.8382  -18.1670  -15.6596 C   0  0  0  0  0  0  0  0  0  0  0  0
   20.6887  -18.2425  -16.5818 C   0  0  0  0  0  0  0  0  0  0  0  0
   19.3563  -18.2000  -16.3227 C   0  0  0  0  0  0  0  0  0  0  0  0
   18.6623  -18.3212  -17.4687 N   0  0  0  0  0  0  0  0  0  0  0  0
   19.5508  -18.4413  -18.4666 C   0  0  0  0  0  0  0  0  0  0  0  0
   19.3427  -18.5968  -19.8412 C   0  0  0  0  0  0  0  0  0  0  0  0
   20.4432  -18.7016  -20.6524 C   0  0  0  0  0  0  0  0  0  0  0  0
   21.7243  -18.6566  -20.1402 C   0  0  0  0  0  0  0  0  0  0  0  0
   21.9250  -18.5042  -18.7927 C   0  0  0  0  0  0  0  0  0  0  0  0
   20.8203  -18.3975  -17.9662 C   0  0  0  0  0  0  0  0  0  0  0  0
   23.5239  -19.4271  -14.4847 C   0  0  0  0  0  0  0  0  0  0  0  0
   23.7618  -18.6121  -13.5227 O   0  0  0  0  0  0  0  0  0  0  0  0
   24.6688  -20.2027  -14.8993 N   0  0  0  0  0  0  0  0  0  0  0  0
   25.9739  -19.9183  -14.3594 C   0  0  1  0  0  0  0  0  0  0  0  0
   26.5955  -20.9991  -13.5810 C   0  0  0  0  0  0  0  0  0  0  0  0
   26.9978  -20.7156  -12.2134 C   0  0  0  0  0  0  0  0  0  0  0  0
   28.3210  -20.4726  -11.8288 C   0  0  0  0  0  0  0  0  0  0  0  0
   28.3562  -20.2801  -10.5074 N   0  0  0  0  0  0  0  0  0  0  0  0
   27.1062  -20.3832   -9.9847 C   0  0  0  0  0  0  0  0  0  0  0  0
   26.6418  -20.2531   -8.6969 C   0  0  0  0  0  0  0  0  0  0  0  0
   25.3040  -20.3939   -8.4587 C   0  0  0  0  0  0  0  0  0  0  0  0
   24.4491  -20.6611   -9.4987 C   0  0  0  0  0  0  0  0  0  0  0  0
   24.9358  -20.7874  -10.7703 C   0  0  0  0  0  0  0  0  0  0  0  0
   26.2648  -20.6560  -11.0646 C   0  0  0  0  0  0  0  0  0  0  0  0
   26.8939  -19.4662  -15.4876 C   0  0  0  0  0  0  0  0  0  0  0  0
   26.8276  -20.0877  -16.5610 O   0  0  0  0  0  0  0  0  0  0  0  0
   27.7835  -18.3863  -15.3160 N   0  0  0  0  0  0  0  0  0  0  0  0
   27.8570  -17.2483  -16.1953 C   0  0  0  0  0  0  0  0  0  0  0  0
   28.1756  -17.6223  -17.5879 C   0  0  0  0  0  0  0  0  0  0  0  0
   27.3497  -18.2293  -18.2748 O   0  0  0  0  0  0  0  0  0  0  0  0
   29.4058  -17.2866  -18.1110 O   0  0  0  0  0  0  0  0  0  0  0  0
  2 13  1  0
  2  1  1  1
  3  2  1  0
  4  3  1  0
  5  4  2  0
  6  5  1  0
  7  6  1  0
  7 12  2  0
  8  7  1  0
  9  8  2  0
  9 10  1  0
 10 11  2  0
 11 12  1  0
 12  4  1  0
 13 14  2  0
 15 16  1  0
 15 13  1  0
 16 17  1  6
 18 17  1  0
 19 18  2  0
 20 19  1  0
 21 20  1  0
 21 26  2  0
 22 21  1  0
 23 22  2  0
 23 24  1  0
 24 25  2  0
 25 26  1  0
 26 18  1  0
 27 28  2  0
 27 16  1  0
 29 27  1  0
 30 29  1  0
 31 30  1  0
 32 31  2  0
 33 31  1  0
M  END
$$$$
