WWG.pdb
     RDKit          3D

 33 36  0  0  1  0  0  0  0  0999 V2000
   26.3547  -21.5547  -12.9741 N   0  0  0  0  0  0  0  0  0  0  0  0
   25.3895  -20.8976  -12.1394 C   0  0  1  0  0  0  0  0  0  0  0  0
   23.9999  -21.3135  -12.5511 C   0  0  0  0  0  0  0  0  0  0  0  0
   23.7175  -20.9571  -13.9550 C   0  0  0  0  0  0  0  0  0  0  0  0
   23.6425  -21.7450  -15.0584 C   0  0  0  0  0  0  0  0  0  0  0  0
   23.3771  -20.9930  -16.1417 N   0  0  0  0  0  0  0  0  0  0  0  0
   23.2807  -19.7187  -15.7333 C   0  0  0  0  0  0  0  0  0  0  0  0
   23.0225  -18.5567  -16.4681 C   0  0  0  0  0  0  0  0  0  0  0  0
   22.9816  -17.3632  -15.7942 C   0  0  0  0  0  0  0  0  0  0  0  0
   23.1875  -17.2966  -14.4309 C   0  0  0  0  0  0  0  0  0  0  0  0
   23.4403  -18.4372  -13.7136 C   0  0  0  0  0  0  0  0  0  0  0  0
   23.4835  -19.6464  -14.3852 C   0  0  0  0  0  0  0  0  0  0  0  0
   25.5691  -21.2645  -10.7222 C   0  0  0  0  0  0  0  0  0  0  0  0
   25.7499  -22.4877  -10.3795 O   0  0  0  0  0  0  0  0  0  0  0  0
   25.5568  -20.3363   -9.6165 N   0  0  0  0  0  0  0  0  0  0  0  0
   25.3457  -20.8095   -8.2722 C   0  0  1  0  0  0  0  0  0  0  0  0
   25.6696  -19.8586   -7.1992 C   0  0  0  0  0  0  0  0  0  0  0  0
   27.0699  -19.5688   -6.9392 C   0  0  0  0  0  0  0  0  0  0  0  0
   27.9248  -18.9726   -7.8727 C   0  0  0  0  0  0  0  0  0  0  0  0
   29.1449  -18.8751   -7.3376 N   0  0  0  0  0  0  0  0  0  0  0  0
   29.1464  -19.3825   -6.0771 C   0  0  0  0  0  0  0  0  0  0  0  0
   30.1449  -19.4902   -5.1377 C   0  0  0  0  0  0  0  0  0  0  0  0
   29.8523  -20.0388   -3.9212 C   0  0  0  0  0  0  0  0  0  0  0  0
   28.5770  -20.4713   -3.6555 C   0  0  0  0  0  0  0  0  0  0  0  0
   27.6019  -20.3545   -4.6070 C   0  0  0  0  0  0  0  0  0  0  0  0
   27.8399  -19.8134   -5.8401 C   0  0  0  0  0  0  0  0  0  0  0  0
   23.9117  -21.3090   -8.1375 C   0  0  0  0  0  0  0  0  0  0  0  0
   23.0282  -20.6739   -8.7365 O   0  0  0  0  0  0  0  0  0  0  0  0
   23.6043  -22.4459   -7.3630 N   0  0  0  0  0  0  0  0  0  0  0  0
   22.5809  -22.4855   -6.3509 C   0  0  0  0  0  0  0  0  0  0  0  0
   21.2384  -22.7504   -6.9063 C   0  0  0  0  0  0  0  0  0  0  0  0
   21.0892  -22.9287   -8.1180 O   0  0  0  0  0  0  0  0  0  0  0  0
   20.1545  -22.7952   -6.0562 O   0  0  0  0  0  0  0  0  0  0  0  0
  2 13  1  0
  2  1  1  6
  3  2  1  0
  4  3  1  0
  5  4  2  0
  6  5  1  0
  7  6  1  0
  7 12  2  0
  8  7  1  0
  9  8  2  0
  9 10  1  0
 10 11  2  0
 11 12  1  0
 12  4  1  0
 13 14  2  0
 15 16  1  0
 15 13  1  0
 16 17  1  1
 18 17  1  0
 19 18  2  0
 20 19  1  0
 21 20  1  0
 21 26  2  0
 22 21  1  0
 23 22  2  0
 23 24  1  0
 24 25  2  0
 25 26  1  0
 26 18  1  0
 27 28  2  0
 27 16  1  0
 29 27  1  0
 30 29  1  0
 31 30  1  0
 32 31  2  0
 33 31  1  0
M  END
$$$$
