WWG.pdb
     RDKit          3D

 33 36  0  0  1  0  0  0  0  0999 V2000
   26.6948  -22.6063  -15.4296 N   0  0  0  0  0  0  0  0  0  0  0  0
   25.7435  -21.6491  -14.9408 C   0  0  1  0  0  0  0  0  0  0  0  0
   24.4133  -21.8696  -15.6157 C   0  0  0  0  0  0  0  0  0  0  0  0
   24.3642  -21.2320  -16.9456 C   0  0  0  0  0  0  0  0  0  0  0  0
   24.5935  -21.7587  -18.1761 C   0  0  0  0  0  0  0  0  0  0  0  0
   24.4537  -20.8063  -19.1158 N   0  0  0  0  0  0  0  0  0  0  0  0
   24.1333  -19.6650  -18.4876 C   0  0  0  0  0  0  0  0  0  0  0  0
   23.8863  -18.3908  -19.0095 C   0  0  0  0  0  0  0  0  0  0  0  0
   23.5788  -17.3830  -18.1321 C   0  0  0  0  0  0  0  0  0  0  0  0
   23.5118  -17.6058  -16.7715 C   0  0  0  0  0  0  0  0  0  0  0  0
   23.7543  -18.8556  -16.2631 C   0  0  0  0  0  0  0  0  0  0  0  0
   24.0654  -19.8791  -17.1410 C   0  0  0  0  0  0  0  0  0  0  0  0
   25.5407  -21.7904  -13.4867 C   0  0  0  0  0  0  0  0  0  0  0  0
   25.5842  -22.9445  -12.9278 O   0  0  0  0  0  0  0  0  0  0  0  0
   25.2785  -20.7017  -12.5756 N   0  0  0  0  0  0  0  0  0  0  0  0
   25.0825  -20.9596  -11.1717 C   0  0  1  0  0  0  0  0  0  0  0  0
   25.8584  -20.1173  -10.2504 C   0  0  0  0  0  0  0  0  0  0  0  0
   27.1621  -20.5934   -9.8188 C   0  0  0  0  0  0  0  0  0  0  0  0
   28.0342  -21.3169  -10.6395 C   0  0  0  0  0  0  0  0  0  0  0  0
   29.1261  -21.6297   -9.9365 N   0  0  0  0  0  0  0  0  0  0  0  0
   29.0248  -21.1442   -8.6715 C   0  0  0  0  0  0  0  0  0  0  0  0
   29.8864  -21.1988   -7.6011 C   0  0  0  0  0  0  0  0  0  0  0  0
   29.5251  -20.5959   -6.4296 C   0  0  0  0  0  0  0  0  0  0  0  0
   28.3177  -19.9497   -6.3376 C   0  0  0  0  0  0  0  0  0  0  0  0
   27.4778  -19.9108   -7.4159 C   0  0  0  0  0  0  0  0  0  0  0  0
   27.7895  -20.4969   -8.6114 C   0  0  0  0  0  0  0  0  0  0  0  0
   23.5940  -20.8816  -10.8523 C   0  0  0  0  0  0  0  0  0  0  0  0
   23.2619  -20.9659   -9.6584 O   0  0  0  0  0  0  0  0  0  0  0  0
   22.6356  -20.7208  -11.8734 N   0  0  0  0  0  0  0  0  0  0  0  0
   21.2217  -20.5741  -11.6431 C   0  0  0  0  0  0  0  0  0  0  0  0
   20.4484  -21.7592  -12.0654 C   0  0  0  0  0  0  0  0  0  0  0  0
   19.2257  -21.7955  -11.9039 O   0  0  0  0  0  0  0  0  0  0  0  0
   21.1078  -22.8240  -12.6406 O   0  0  0  0  0  0  0  0  0  0  0  0
  2 13  1  0
  2  1  1  6
  3  2  1  0
  4  3  1  0
  5  4  2  0
  6  5  1  0
  7  6  1  0
  7 12  2  0
  8  7  1  0
  9  8  2  0
  9 10  1  0
 10 11  2  0
 11 12  1  0
 12  4  1  0
 13 14  2  0
 15 16  1  0
 15 13  1  0
 16 17  1  1
 18 17  1  0
 19 18  2  0
 20 19  1  0
 21 20  1  0
 21 26  2  0
 22 21  1  0
 23 22  2  0
 23 24  1  0
 24 25  2  0
 25 26  1  0
 26 18  1  0
 27 28  2  0
 27 16  1  0
 29 27  1  0
 30 29  1  0
 31 30  1  0
 32 31  2  0
 33 31  1  0
M  END
$$$$
