WWG.pdb
     RDKit          3D

 33 36  0  0  1  0  0  0  0  0999 V2000
   26.0431  -18.2854  -13.4389 N   0  0  0  0  0  0  0  0  0  0  0  0
   27.0729  -19.1481  -13.9444 C   0  0  1  0  0  0  0  0  0  0  0  0
   28.2244  -18.3166  -14.4506 C   0  0  0  0  0  0  0  0  0  0  0  0
   27.7641  -17.2292  -15.3356 C   0  0  0  0  0  0  0  0  0  0  0  0
   27.3036  -15.9890  -15.0293 C   0  0  0  0  0  0  0  0  0  0  0  0
   26.9767  -15.3301  -16.1556 N   0  0  0  0  0  0  0  0  0  0  0  0
   27.2285  -16.1487  -17.1882 C   0  0  0  0  0  0  0  0  0  0  0  0
   27.0570  -15.9421  -18.5612 C   0  0  0  0  0  0  0  0  0  0  0  0
   27.3942  -16.9616  -19.4139 C   0  0  0  0  0  0  0  0  0  0  0  0
   27.8894  -18.1615  -18.9442 C   0  0  0  0  0  0  0  0  0  0  0  0
   28.0563  -18.3608  -17.5982 C   0  0  0  0  0  0  0  0  0  0  0  0
   27.7186  -17.3376  -16.7299 C   0  0  0  0  0  0  0  0  0  0  0  0
   27.5898  -20.0401  -12.8896 C   0  0  0  0  0  0  0  0  0  0  0  0
   28.5355  -20.8707  -13.1386 O   0  0  0  0  0  0  0  0  0  0  0  0
   27.1104  -20.0806  -11.5285 N   0  0  0  0  0  0  0  0  0  0  0  0
   26.3896  -21.2307  -11.0453 C   0  0  1  0  0  0  0  0  0  0  0  0
   26.8016  -21.7397   -9.7294 C   0  0  0  0  0  0  0  0  0  0  0  0
   26.8431  -20.8070   -8.6155 C   0  0  0  0  0  0  0  0  0  0  0  0
   25.9661  -19.7257   -8.4762 C   0  0  0  0  0  0  0  0  0  0  0  0
   26.2887  -19.0502   -7.3699 N   0  0  0  0  0  0  0  0  0  0  0  0
   27.3505  -19.6347   -6.7559 C   0  0  0  0  0  0  0  0  0  0  0  0
   28.0246  -19.3178   -5.6000 C   0  0  0  0  0  0  0  0  0  0  0  0
   29.0661  -20.1081   -5.2037 C   0  0  0  0  0  0  0  0  0  0  0  0
   29.4225  -21.1980   -5.9580 C   0  0  0  0  0  0  0  0  0  0  0  0
   28.7374  -21.4912   -7.1045 C   0  0  0  0  0  0  0  0  0  0  0  0
   27.6878  -20.7345   -7.5468 C   0  0  0  0  0  0  0  0  0  0  0  0
   24.8956  -20.9286  -11.0647 C   0  0  0  0  0  0  0  0  0  0  0  0
   24.5145  -19.8993  -10.4833 O   0  0  0  0  0  0  0  0  0  0  0  0
   23.9858  -21.7855  -11.7167 N   0  0  0  0  0  0  0  0  0  0  0  0
   22.9130  -22.4831  -11.0566 C   0  0  0  0  0  0  0  0  0  0  0  0
   21.6758  -21.6811  -10.9738 C   0  0  0  0  0  0  0  0  0  0  0  0
   21.6416  -20.5383  -11.4378 O   0  0  0  0  0  0  0  0  0  0  0  0
   20.5607  -22.2229  -10.3717 O   0  0  0  0  0  0  0  0  0  0  0  0
  2 13  1  0
  2  1  1  1
  3  2  1  0
  4  3  1  0
  5  4  2  0
  6  5  1  0
  7  6  1  0
  7 12  2  0
  8  7  1  0
  9  8  2  0
  9 10  1  0
 10 11  2  0
 11 12  1  0
 12  4  1  0
 13 14  2  0
 15 16  1  0
 15 13  1  0
 16 17  1  1
 18 17  1  0
 19 18  2  0
 20 19  1  0
 21 20  1  0
 21 26  2  0
 22 21  1  0
 23 22  2  0
 23 24  1  0
 24 25  2  0
 25 26  1  0
 26 18  1  0
 27 28  2  0
 27 16  1  0
 29 27  1  0
 30 29  1  0
 31 30  1  0
 32 31  2  0
 33 31  1  0
M  END
$$$$
