WWG.pdb
     RDKit          3D

 33 36  0  0  1  0  0  0  0  0999 V2000
   26.3647  -21.3460  -14.2201 N   0  0  0  0  0  0  0  0  0  0  0  0
   25.4385  -20.6866  -13.3440 C   0  0  1  0  0  0  0  0  0  0  0  0
   24.0323  -21.1121  -13.6836 C   0  0  0  0  0  0  0  0  0  0  0  0
   23.4407  -20.2551  -14.7290 C   0  0  0  0  0  0  0  0  0  0  0  0
   23.8636  -20.0024  -15.9945 C   0  0  0  0  0  0  0  0  0  0  0  0
   23.0226  -19.1416  -16.5957 N   0  0  0  0  0  0  0  0  0  0  0  0
   22.0566  -18.8410  -15.7146 C   0  0  0  0  0  0  0  0  0  0  0  0
   20.9519  -17.9929  -15.8468 C   0  0  0  0  0  0  0  0  0  0  0  0
   20.1092  -17.8594  -14.7735 C   0  0  0  0  0  0  0  0  0  0  0  0
   20.3329  -18.5363  -13.5915 C   0  0  0  0  0  0  0  0  0  0  0  0
   21.4164  -19.3666  -13.4649 C   0  0  0  0  0  0  0  0  0  0  0  0
   22.2725  -19.5077  -14.5429 C   0  0  0  0  0  0  0  0  0  0  0  0
   25.6894  -21.0414  -11.9345 C   0  0  0  0  0  0  0  0  0  0  0  0
   25.5423  -22.2489  -11.5262 O   0  0  0  0  0  0  0  0  0  0  0  0
   26.1025  -20.1158  -10.9065 N   0  0  0  0  0  0  0  0  0  0  0  0
   26.2345  -20.5569   -9.5413 C   0  0  1  0  0  0  0  0  0  0  0  0
   27.3375  -19.9569   -8.7772 C   0  0  0  0  0  0  0  0  0  0  0  0
   27.4422  -20.2713   -7.3620 C   0  0  0  0  0  0  0  0  0  0  0  0
   27.0790  -21.5060   -6.8130 C   0  0  0  0  0  0  0  0  0  0  0  0
   27.2647  -21.4600   -5.4909 N   0  0  0  0  0  0  0  0  0  0  0  0
   27.7403  -20.2406   -5.1261 C   0  0  0  0  0  0  0  0  0  0  0  0
   28.0918  -19.7277   -3.8995 C   0  0  0  0  0  0  0  0  0  0  0  0
   28.5667  -18.4486   -3.8288 C   0  0  0  0  0  0  0  0  0  0  0  0
   28.6853  -17.6995   -4.9728 C   0  0  0  0  0  0  0  0  0  0  0  0
   28.3276  -18.2319   -6.1804 C   0  0  0  0  0  0  0  0  0  0  0  0
   27.8470  -19.5058   -6.3081 C   0  0  0  0  0  0  0  0  0  0  0  0
   24.9060  -20.3571   -8.8209 C   0  0  0  0  0  0  0  0  0  0  0  0
   24.3490  -19.2542   -8.9475 O   0  0  0  0  0  0  0  0  0  0  0  0
   24.3358  -21.3847   -8.0425 N   0  0  0  0  0  0  0  0  0  0  0  0
   23.0835  -21.2711   -7.3409 C   0  0  0  0  0  0  0  0  0  0  0  0
   22.7337  -22.4966   -6.5948 C   0  0  0  0  0  0  0  0  0  0  0  0
   21.6340  -22.5989   -6.0447 O   0  0  0  0  0  0  0  0  0  0  0  0
   23.6495  -23.5238   -6.5191 O   0  0  0  0  0  0  0  0  0  0  0  0
  2 13  1  0
  2  1  1  6
  3  2  1  0
  4  3  1  0
  5  4  2  0
  6  5  1  0
  7  6  1  0
  7 12  2  0
  8  7  1  0
  9  8  2  0
  9 10  1  0
 10 11  2  0
 11 12  1  0
 12  4  1  0
 13 14  2  0
 15 16  1  0
 15 13  1  0
 16 17  1  1
 18 17  1  0
 19 18  2  0
 20 19  1  0
 21 20  1  0
 21 26  2  0
 22 21  1  0
 23 22  2  0
 23 24  1  0
 24 25  2  0
 25 26  1  0
 26 18  1  0
 27 28  2  0
 27 16  1  0
 29 27  1  0
 30 29  1  0
 31 30  1  0
 32 31  2  0
 33 31  1  0
M  END
$$$$
