HHI.pdb
     RDKit          3D

 29 30  0  0  1  0  0  0  0  0999 V2000
    8.4260  -17.4279   18.6386 N   0  0  0  0  0  0  0  0  0  0  0  0
    9.0743  -16.8111   19.7640 C   0  0  1  0  0  0  0  0  0  0  0  0
    9.6722  -15.4995   19.3665 C   0  0  0  0  0  0  0  0  0  0  0  0
    8.9031  -14.7420   18.3684 C   0  0  0  0  0  0  0  0  0  0  0  0
    8.1163  -13.6259   18.5454 C   0  0  0  0  0  0  0  0  0  0  0  0
    7.5960  -13.2829   17.3557 N   0  0  0  0  0  0  0  0  0  0  0  0
    8.0445  -14.1596   16.4594 C   0  0  0  0  0  0  0  0  0  0  0  0
    8.8436  -15.0560   17.0638 N   0  0  0  0  0  0  0  0  0  0  0  0
    8.2430  -16.7371   20.9850 C   0  0  0  0  0  0  0  0  0  0  0  0
    7.0591  -16.2741   20.8448 O   0  0  0  0  0  0  0  0  0  0  0  0
    8.6133  -17.1168   22.2769 N   0  0  0  0  0  0  0  0  0  0  0  0
    7.8301  -17.0545   23.4724 C   0  0  1  0  0  0  0  0  0  0  0  0
    7.3997  -18.3531   24.0473 C   0  0  0  0  0  0  0  0  0  0  0  0
    6.4638  -19.0637   23.1519 C   0  0  0  0  0  0  0  0  0  0  0  0
    6.7429  -20.0634   22.2617 C   0  0  0  0  0  0  0  0  0  0  0  0
    5.5792  -20.3923   21.6783 N   0  0  0  0  0  0  0  0  0  0  0  0
    4.5855  -19.6518   22.1556 C   0  0  0  0  0  0  0  0  0  0  0  0
    5.1491  -18.8220   23.0786 N   0  0  0  0  0  0  0  0  0  0  0  0
    8.5380  -16.2312   24.4916 C   0  0  0  0  0  0  0  0  0  0  0  0
    9.7937  -16.1499   24.5436 O   0  0  0  0  0  0  0  0  0  0  0  0
    5.6679  -12.0208   26.6380 C   0  0  0  0  0  0  0  0  0  0  0  0
    6.7757  -12.8211   25.9983 C   0  0  0  0  0  0  0  0  0  0  0  0
    7.4121  -13.6831   27.0505 C   0  0  2  0  0  0  0  0  0  0  0  0
    8.1580  -12.8530   28.0803 C   0  0  0  0  0  0  0  0  0  0  0  0
    8.3980  -14.6709   26.4615 C   0  0  2  0  0  0  0  0  0  0  0  0
    7.7900  -15.5013   25.4507 N   0  0  0  0  0  0  0  0  0  0  0  0
    8.8704  -15.5345   27.5640 C   0  0  0  0  0  0  0  0  0  0  0  0
    8.4180  -16.6820   27.8098 O   0  0  0  0  0  0  0  0  0  0  0  0
    9.8757  -15.0702   28.3931 O   0  0  0  0  0  0  0  0  0  0  0  0
  2  9  1  0
  2  1  1  6
  3  2  1  0
  4  3  1  0
  4  8  1  0
  5  4  2  0
  6  5  1  0
  6  7  1  0
  7  8  2  0
  9 10  2  0
 11 12  1  0
 11  9  1  0
 13 14  1  0
 12 13  1  1
 14 18  1  0
 15 14  2  0
 15 16  1  0
 16 17  1  0
 18 17  2  0
 19 20  2  0
 19 12  1  0
 22 21  1  0
 22 23  1  0
 23 25  1  0
 23 24  1  1
 25 26  1  6
 25 27  1  0
 26 19  1  0
 27 29  1  0
 28 27  2  0
M  END
$$$$
