HHI.pdb
     RDKit          3D

 29 30  0  0  1  0  0  0  0  0999 V2000
    7.7864  -17.4156   19.1409 N   0  0  0  0  0  0  0  0  0  0  0  0
    8.1313  -16.4038   20.1025 C   0  0  1  0  0  0  0  0  0  0  0  0
    7.3993  -15.1337   19.8079 C   0  0  0  0  0  0  0  0  0  0  0  0
    7.8396  -14.4287   18.5952 C   0  0  0  0  0  0  0  0  0  0  0  0
    8.8717  -14.7402   17.7385 C   0  0  0  0  0  0  0  0  0  0  0  0
    8.9145  -13.8084   16.7722 N   0  0  0  0  0  0  0  0  0  0  0  0
    7.9367  -12.9382   17.0173 C   0  0  0  0  0  0  0  0  0  0  0  0
    7.2725  -13.3047   18.1272 N   0  0  0  0  0  0  0  0  0  0  0  0
    8.0225  -16.8363   21.5127 C   0  0  0  0  0  0  0  0  0  0  0  0
    6.9252  -17.3959   21.8572 O   0  0  0  0  0  0  0  0  0  0  0  0
    8.9896  -16.6970   22.5104 N   0  0  0  0  0  0  0  0  0  0  0  0
    8.8898  -17.0579   23.8911 C   0  0  1  0  0  0  0  0  0  0  0  0
    9.4975  -18.3547   24.2795 C   0  0  0  0  0  0  0  0  0  0  0  0
   10.8108  -18.5580   23.6340 C   0  0  0  0  0  0  0  0  0  0  0  0
   11.4766  -17.7115   22.7916 C   0  0  0  0  0  0  0  0  0  0  0  0
   12.6253  -18.3241   22.4628 N   0  0  0  0  0  0  0  0  0  0  0  0
   12.7147  -19.5096   23.0544 C   0  0  0  0  0  0  0  0  0  0  0  0
   11.5731  -19.6479   23.7864 N   0  0  0  0  0  0  0  0  0  0  0  0
    9.4160  -15.9505   24.7366 C   0  0  0  0  0  0  0  0  0  0  0  0
   10.3525  -15.1973   24.3604 O   0  0  0  0  0  0  0  0  0  0  0  0
    6.2561  -12.3719   26.5900 C   0  0  0  0  0  0  0  0  0  0  0  0
    7.4539  -13.1506   26.1041 C   0  0  0  0  0  0  0  0  0  0  0  0
    8.1532  -13.7438   27.2933 C   0  0  2  0  0  0  0  0  0  0  0  0
    8.7246  -12.6696   28.2019 C   0  0  0  0  0  0  0  0  0  0  0  0
    9.2952  -14.6538   26.8903 C   0  0  2  0  0  0  0  0  0  0  0  0
    8.8559  -15.7159   26.0185 N   0  0  0  0  0  0  0  0  0  0  0  0
    9.8421  -15.2506   28.1269 C   0  0  0  0  0  0  0  0  0  0  0  0
    9.5361  -16.3913   28.5595 O   0  0  0  0  0  0  0  0  0  0  0  0
   10.7523  -14.5244   28.8738 O   0  0  0  0  0  0  0  0  0  0  0  0
  2  9  1  0
  2  1  1  6
  3  2  1  0
  4  3  1  0
  4  8  1  0
  5  4  2  0
  6  5  1  0
  6  7  1  0
  7  8  2  0
  9 10  2  0
 11 12  1  0
 11  9  1  0
 13 14  1  0
 12 13  1  6
 14 18  1  0
 15 14  2  0
 15 16  1  0
 16 17  1  0
 18 17  2  0
 19 20  2  0
 19 12  1  0
 22 21  1  0
 22 23  1  0
 23 25  1  0
 23 24  1  1
 25 26  1  6
 25 27  1  0
 26 19  1  0
 27 29  1  0
 28 27  2  0
M  END
$$$$
