HHI.pdb
     RDKit          3D

 29 30  0  0  1  0  0  0  0  0999 V2000
    7.9132  -17.2015   19.2749 N   0  0  0  0  0  0  0  0  0  0  0  0
    8.3013  -16.1786   20.2079 C   0  0  1  0  0  0  0  0  0  0  0  0
    7.4838  -14.9443   19.9980 C   0  0  0  0  0  0  0  0  0  0  0  0
    7.8007  -14.1882   18.7776 C   0  0  0  0  0  0  0  0  0  0  0  0
    8.7453  -14.4572   17.8124 C   0  0  0  0  0  0  0  0  0  0  0  0
    8.6897  -13.4874   16.8851 N   0  0  0  0  0  0  0  0  0  0  0  0
    7.7372  -12.6353   17.2593 C   0  0  0  0  0  0  0  0  0  0  0  0
    7.1862  -13.0509   18.4129 N   0  0  0  0  0  0  0  0  0  0  0  0
    8.3517  -16.6226   21.6178 C   0  0  0  0  0  0  0  0  0  0  0  0
    7.2293  -16.8509   22.1870 O   0  0  0  0  0  0  0  0  0  0  0  0
    9.4947  -16.8173   22.3962 N   0  0  0  0  0  0  0  0  0  0  0  0
    9.5696  -17.2246   23.7655 C   0  0  1  0  0  0  0  0  0  0  0  0
   10.4295  -18.3978   24.0586 C   0  0  0  0  0  0  0  0  0  0  0  0
    9.8799  -19.6380   23.4734 C   0  0  0  0  0  0  0  0  0  0  0  0
    8.9985  -20.5183   24.0371 C   0  0  0  0  0  0  0  0  0  0  0  0
    8.7938  -21.4879   23.1311 N   0  0  0  0  0  0  0  0  0  0  0  0
    9.5001  -21.2620   22.0295 C   0  0  0  0  0  0  0  0  0  0  0  0
   10.1778  -20.1006   22.2529 N   0  0  0  0  0  0  0  0  0  0  0  0
    9.9518  -16.0611   24.6129 C   0  0  0  0  0  0  0  0  0  0  0  0
   10.9908  -15.3815   24.4017 O   0  0  0  0  0  0  0  0  0  0  0  0
    6.0573  -12.8407   26.4470 C   0  0  0  0  0  0  0  0  0  0  0  0
    7.3379  -13.4205   25.8982 C   0  0  0  0  0  0  0  0  0  0  0  0
    8.1960  -13.8599   27.0496 C   0  0  2  0  0  0  0  0  0  0  0  0
    8.6433  -12.6823   27.8976 C   0  0  0  0  0  0  0  0  0  0  0  0
    9.4417  -14.5885   26.5893 C   0  0  2  0  0  0  0  0  0  0  0  0
    9.1290  -15.6849   25.7054 N   0  0  0  0  0  0  0  0  0  0  0  0
   10.1099  -15.1255   27.7933 C   0  0  0  0  0  0  0  0  0  0  0  0
    9.9643  -16.2992   28.2213 O   0  0  0  0  0  0  0  0  0  0  0  0
   10.9556  -14.3002   28.5126 O   0  0  0  0  0  0  0  0  0  0  0  0
  2  9  1  0
  2  1  1  6
  3  2  1  0
  4  3  1  0
  4  8  1  0
  5  4  2  0
  6  5  1  0
  6  7  1  0
  7  8  2  0
  9 10  2  0
 11 12  1  0
 11  9  1  0
 13 14  1  0
 12 13  1  6
 14 18  1  0
 15 14  2  0
 15 16  1  0
 16 17  1  0
 18 17  2  0
 19 20  2  0
 19 12  1  0
 22 21  1  0
 22 23  1  0
 23 25  1  0
 23 24  1  6
 25 26  1  6
 25 27  1  0
 26 19  1  0
 27 29  1  0
 28 27  2  0
M  END
$$$$
