HHI.pdb
     RDKit          3D

 29 30  0  0  1  0  0  0  0  0999 V2000
    9.6096  -16.8370   18.7357 N   0  0  0  0  0  0  0  0  0  0  0  0
    8.9427  -15.8237   19.5076 C   0  0  1  0  0  0  0  0  0  0  0  0
    7.7092  -15.3585   18.8019 C   0  0  0  0  0  0  0  0  0  0  0  0
    7.9485  -14.5950   17.5685 C   0  0  0  0  0  0  0  0  0  0  0  0
    9.1445  -14.2774   16.9644 C   0  0  0  0  0  0  0  0  0  0  0  0
    8.8825  -13.5549   15.8630 N   0  0  0  0  0  0  0  0  0  0  0  0
    7.5600  -13.4240   15.7802 C   0  0  0  0  0  0  0  0  0  0  0  0
    6.9772  -14.0541   16.8149 N   0  0  0  0  0  0  0  0  0  0  0  0
    8.7144  -16.1836   20.9239 C   0  0  0  0  0  0  0  0  0  0  0  0
    7.5134  -16.0877   21.3529 O   0  0  0  0  0  0  0  0  0  0  0  0
    9.6712  -16.6152   21.8450 N   0  0  0  0  0  0  0  0  0  0  0  0
    9.4848  -16.9270   23.2287 C   0  0  1  0  0  0  0  0  0  0  0  0
   10.3485  -17.9973   23.7858 C   0  0  0  0  0  0  0  0  0  0  0  0
    9.9888  -19.3253   23.2477 C   0  0  0  0  0  0  0  0  0  0  0  0
    8.9553  -19.6450   22.4115 C   0  0  0  0  0  0  0  0  0  0  0  0
    9.0305  -20.9686   22.1988 N   0  0  0  0  0  0  0  0  0  0  0  0
   10.0563  -21.4954   22.8573 C   0  0  0  0  0  0  0  0  0  0  0  0
   10.6512  -20.4583   23.5119 N   0  0  0  0  0  0  0  0  0  0  0  0
    9.5908  -15.6828   24.0403 C   0  0  0  0  0  0  0  0  0  0  0  0
   10.4913  -14.8237   23.8486 O   0  0  0  0  0  0  0  0  0  0  0  0
    6.3544  -11.2495   26.1564 C   0  0  0  0  0  0  0  0  0  0  0  0
    7.4840  -12.1614   26.5681 C   0  0  0  0  0  0  0  0  0  0  0  0
    7.4988  -13.3493   25.6495 C   0  0  2  0  0  0  0  0  0  0  0  0
    6.2427  -14.1895   25.7984 C   0  0  0  0  0  0  0  0  0  0  0  0
    8.6854  -14.2555   25.9051 C   0  0  2  0  0  0  0  0  0  0  0  0
    8.6520  -15.4343   25.0742 N   0  0  0  0  0  0  0  0  0  0  0  0
    8.6263  -14.6719   27.3220 C   0  0  0  0  0  0  0  0  0  0  0  0
    8.7845  -13.8935   28.2973 O   0  0  0  0  0  0  0  0  0  0  0  0
    8.3820  -16.0008   27.6185 O   0  0  0  0  0  0  0  0  0  0  0  0
  2  9  1  0
  2  1  1  6
  3  2  1  0
  4  3  1  0
  4  8  1  0
  5  4  2  0
  6  5  1  0
  6  7  1  0
  7  8  2  0
  9 10  2  0
 11 12  1  0
 11  9  1  0
 13 14  1  0
 12 13  1  1
 14 18  1  0
 15 14  2  0
 15 16  1  0
 16 17  1  0
 18 17  2  0
 19 20  2  0
 19 12  1  0
 22 21  1  0
 22 23  1  0
 23 25  1  0
 23 24  1  1
 25 26  1  6
 25 27  1  0
 26 19  1  0
 27 29  1  0
 28 27  2  0
M  END
$$$$
