HHI.pdb
     RDKit          3D

 29 30  0  0  1  0  0  0  0  0999 V2000
    9.3673  -16.0068   19.2412 N   0  0  0  0  0  0  0  0  0  0  0  0
    8.3565  -15.1448   19.7913 C   0  0  1  0  0  0  0  0  0  0  0  0
    7.2509  -14.9425   18.8050 C   0  0  0  0  0  0  0  0  0  0  0  0
    7.6824  -14.5200   17.4646 C   0  0  0  0  0  0  0  0  0  0  0  0
    8.4625  -13.4438   17.1047 C   0  0  0  0  0  0  0  0  0  0  0  0
    8.5875  -13.4411   15.7675 N   0  0  0  0  0  0  0  0  0  0  0  0
    7.9049  -14.4862   15.3036 C   0  0  0  0  0  0  0  0  0  0  0  0
    7.3473  -15.1535   16.3287 N   0  0  0  0  0  0  0  0  0  0  0  0
    7.8847  -15.5352   21.1375 C   0  0  0  0  0  0  0  0  0  0  0  0
    6.7215  -15.1268   21.4777 O   0  0  0  0  0  0  0  0  0  0  0  0
    8.5750  -16.3011   22.0794 N   0  0  0  0  0  0  0  0  0  0  0  0
    8.1614  -16.6533   23.4029 C   0  0  1  0  0  0  0  0  0  0  0  0
    8.3141  -18.0792   23.7841 C   0  0  0  0  0  0  0  0  0  0  0  0
    7.3028  -18.9321   23.1263 C   0  0  0  0  0  0  0  0  0  0  0  0
    7.4394  -19.6772   21.9880 C   0  0  0  0  0  0  0  0  0  0  0  0
    6.2576  -20.2801   21.7811 N   0  0  0  0  0  0  0  0  0  0  0  0
    5.3877  -19.9523   22.7294 C   0  0  0  0  0  0  0  0  0  0  0  0
    6.0513  -19.1072   23.5681 N   0  0  0  0  0  0  0  0  0  0  0  0
    8.8347  -15.7647   24.3902 C   0  0  0  0  0  0  0  0  0  0  0  0
   10.0748  -15.5462   24.3696 O   0  0  0  0  0  0  0  0  0  0  0  0
    5.5767  -12.2629   27.5634 C   0  0  0  0  0  0  0  0  0  0  0  0
    6.3916  -13.4832   27.2114 C   0  0  0  0  0  0  0  0  0  0  0  0
    7.6946  -13.0328   26.6159 C   0  0  2  0  0  0  0  0  0  0  0  0
    7.4874  -12.2974   25.3036 C   0  0  0  0  0  0  0  0  0  0  0  0
    8.6309  -14.1924   26.3449 C   0  0  2  0  0  0  0  0  0  0  0  0
    8.0700  -15.1287   25.4016 N   0  0  0  0  0  0  0  0  0  0  0  0
    8.8545  -14.8891   27.6290 C   0  0  0  0  0  0  0  0  0  0  0  0
    8.4420  -16.0487   27.8881 O   0  0  0  0  0  0  0  0  0  0  0  0
    9.5618  -14.2419   28.6264 O   0  0  0  0  0  0  0  0  0  0  0  0
  2  9  1  0
  2  1  1  6
  3  2  1  0
  4  3  1  0
  4  8  1  0
  5  4  2  0
  6  5  1  0
  6  7  1  0
  7  8  2  0
  9 10  2  0
 11 12  1  0
 11  9  1  0
 13 14  1  0
 12 13  1  1
 14 18  1  0
 15 14  2  0
 15 16  1  0
 16 17  1  0
 18 17  2  0
 19 20  2  0
 19 12  1  0
 22 21  1  0
 22 23  1  0
 23 25  1  0
 23 24  1  6
 25 26  1  6
 25 27  1  0
 26 19  1  0
 27 29  1  0
 28 27  2  0
M  END
$$$$
