HHI.pdb
     RDKit          3D

 29 30  0  0  1  0  0  0  0  0999 V2000
    9.3310  -16.6338   18.2789 N   0  0  0  0  0  0  0  0  0  0  0  0
    8.7673  -15.6935   19.2092 C   0  0  1  0  0  0  0  0  0  0  0  0
    7.4861  -15.1370   18.6757 C   0  0  0  0  0  0  0  0  0  0  0  0
    7.5898  -14.4862   17.3615 C   0  0  0  0  0  0  0  0  0  0  0  0
    8.4042  -13.4465   16.9714 C   0  0  0  0  0  0  0  0  0  0  0  0
    8.1499  -13.1719   15.6816 N   0  0  0  0  0  0  0  0  0  0  0  0
    7.2032  -14.0158   15.2758 C   0  0  0  0  0  0  0  0  0  0  0  0
    6.8520  -14.8238   16.2912 N   0  0  0  0  0  0  0  0  0  0  0  0
    8.6633  -16.1927   20.5975 C   0  0  0  0  0  0  0  0  0  0  0  0
    7.5713  -16.7777   20.9157 O   0  0  0  0  0  0  0  0  0  0  0  0
    9.6298  -16.0916   21.6005 N   0  0  0  0  0  0  0  0  0  0  0  0
    9.5669  -16.5931   22.9387 C   0  0  1  0  0  0  0  0  0  0  0  0
   10.5855  -17.6054   23.3123 C   0  0  0  0  0  0  0  0  0  0  0  0
   10.4868  -18.8161   22.4715 C   0  0  0  0  0  0  0  0  0  0  0  0
    9.3722  -19.5532   22.1816 C   0  0  0  0  0  0  0  0  0  0  0  0
    9.7733  -20.5558   21.3837 N   0  0  0  0  0  0  0  0  0  0  0  0
   11.0801  -20.4862   21.1580 C   0  0  0  0  0  0  0  0  0  0  0  0
   11.5190  -19.3929   21.8437 N   0  0  0  0  0  0  0  0  0  0  0  0
    9.5715  -15.4554   23.8998 C   0  0  0  0  0  0  0  0  0  0  0  0
    9.8943  -14.2857   23.5631 O   0  0  0  0  0  0  0  0  0  0  0  0
    6.8029  -11.5726   26.4213 C   0  0  0  0  0  0  0  0  0  0  0  0
    7.8952  -12.5130   26.8680 C   0  0  0  0  0  0  0  0  0  0  0  0
    7.9650  -13.6592   25.9001 C   0  0  2  0  0  0  0  0  0  0  0  0
    6.6779  -14.4649   25.8908 C   0  0  0  0  0  0  0  0  0  0  0  0
    9.0966  -14.6128   26.2233 C   0  0  2  0  0  0  0  0  0  0  0  0
    9.2013  -15.6738   25.2515 N   0  0  0  0  0  0  0  0  0  0  0  0
    8.8095  -15.2073   27.5457 C   0  0  0  0  0  0  0  0  0  0  0  0
    8.7900  -14.5612   28.6247 O   0  0  0  0  0  0  0  0  0  0  0  0
    8.5417  -16.5621   27.6256 O   0  0  0  0  0  0  0  0  0  0  0  0
  2  9  1  0
  2  1  1  6
  3  2  1  0
  4  3  1  0
  4  8  1  0
  5  4  2  0
  6  5  1  0
  6  7  1  0
  7  8  2  0
  9 10  2  0
 11 12  1  0
 11  9  1  0
 13 14  1  0
 12 13  1  1
 14 18  1  0
 15 14  2  0
 15 16  1  0
 16 17  1  0
 18 17  2  0
 19 20  2  0
 19 12  1  0
 22 21  1  0
 22 23  1  0
 23 25  1  0
 23 24  1  1
 25 26  1  6
 25 27  1  0
 26 19  1  0
 27 29  1  0
 28 27  2  0
M  END
$$$$
