HHI.pdb
     RDKit          3D

 29 30  0  0  1  0  0  0  0  0999 V2000
    8.9088  -16.8748   18.7394 N   0  0  0  0  0  0  0  0  0  0  0  0
    8.7257  -15.7523   19.6191 C   0  0  1  0  0  0  0  0  0  0  0  0
    7.7035  -14.8143   19.0613 C   0  0  0  0  0  0  0  0  0  0  0  0
    7.9755  -14.3369   17.6976 C   0  0  0  0  0  0  0  0  0  0  0  0
    8.6360  -13.1980   17.2940 C   0  0  0  0  0  0  0  0  0  0  0  0
    8.6355  -13.1628   15.9514 N   0  0  0  0  0  0  0  0  0  0  0  0
    7.9927  -14.2490   15.5268 C   0  0  0  0  0  0  0  0  0  0  0  0
    7.5844  -14.9747   16.5822 N   0  0  0  0  0  0  0  0  0  0  0  0
    8.4876  -16.1146   21.0331 C   0  0  0  0  0  0  0  0  0  0  0  0
    7.2729  -16.3246   21.3740 O   0  0  0  0  0  0  0  0  0  0  0  0
    9.4478  -16.2499   22.0381 N   0  0  0  0  0  0  0  0  0  0  0  0
    9.2673  -16.7430   23.3688 C   0  0  1  0  0  0  0  0  0  0  0  0
    9.9918  -17.9912   23.7137 C   0  0  0  0  0  0  0  0  0  0  0  0
    9.5636  -19.1234   22.8667 C   0  0  0  0  0  0  0  0  0  0  0  0
    8.3113  -19.6582   22.7435 C   0  0  0  0  0  0  0  0  0  0  0  0
    8.4108  -20.6665   21.8624 N   0  0  0  0  0  0  0  0  0  0  0  0
    9.6590  -20.7920   21.4269 C   0  0  0  0  0  0  0  0  0  0  0  0
   10.3746  -19.8208   22.0617 N   0  0  0  0  0  0  0  0  0  0  0  0
    9.5738  -15.6634   24.3479 C   0  0  0  0  0  0  0  0  0  0  0  0
   10.5331  -14.8621   24.1944 O   0  0  0  0  0  0  0  0  0  0  0  0
    6.0495  -12.2028   25.9098 C   0  0  0  0  0  0  0  0  0  0  0  0
    7.3198  -12.9425   25.5686 C   0  0  0  0  0  0  0  0  0  0  0  0
    7.7944  -13.6687   26.7944 C   0  0  2  0  0  0  0  0  0  0  0  0
    8.1488  -12.7066   27.9146 C   0  0  0  0  0  0  0  0  0  0  0  0
    9.0187  -14.5170   26.5186 C   0  0  2  0  0  0  0  0  0  0  0  0
    8.7674  -15.5122   25.5050 N   0  0  0  0  0  0  0  0  0  0  0  0
    9.3741  -15.2026   27.7788 C   0  0  0  0  0  0  0  0  0  0  0  0
    9.0439  -16.3828   28.0618 O   0  0  0  0  0  0  0  0  0  0  0  0
   10.1188  -14.5202   28.7240 O   0  0  0  0  0  0  0  0  0  0  0  0
  2  9  1  0
  2  1  1  6
  3  2  1  0
  4  3  1  0
  4  8  1  0
  5  4  2  0
  6  5  1  0
  6  7  1  0
  7  8  2  0
  9 10  2  0
 11 12  1  0
 11  9  1  0
 13 14  1  0
 12 13  1  1
 14 18  1  0
 15 14  2  0
 15 16  1  0
 16 17  1  0
 18 17  2  0
 19 20  2  0
 19 12  1  0
 22 21  1  0
 22 23  1  0
 23 25  1  0
 23 24  1  1
 25 26  1  6
 25 27  1  0
 26 19  1  0
 27 29  1  0
 28 27  2  0
M  END
$$$$
