HHI.pdb
     RDKit          3D

 29 30  0  0  1  0  0  0  0  0999 V2000
    9.5898  -16.9180   19.7641 N   0  0  0  0  0  0  0  0  0  0  0  0
    8.5537  -16.0087   20.1728 C   0  0  1  0  0  0  0  0  0  0  0  0
    7.4630  -15.9680   19.1508 C   0  0  0  0  0  0  0  0  0  0  0  0
    7.9146  -15.7633   17.7667 C   0  0  0  0  0  0  0  0  0  0  0  0
    8.3629  -14.6096   17.1632 C   0  0  0  0  0  0  0  0  0  0  0  0
    8.6557  -14.8890   15.8827 N   0  0  0  0  0  0  0  0  0  0  0  0
    8.3979  -16.1812   15.6901 C   0  0  0  0  0  0  0  0  0  0  0  0
    7.9449  -16.7273   16.8319 N   0  0  0  0  0  0  0  0  0  0  0  0
    8.0644  -16.2178   21.5528 C   0  0  0  0  0  0  0  0  0  0  0  0
    7.0829  -15.4893   21.9292 O   0  0  0  0  0  0  0  0  0  0  0  0
    8.5611  -17.1250   22.4911 N   0  0  0  0  0  0  0  0  0  0  0  0
    8.1690  -17.2828   23.8578 C   0  0  1  0  0  0  0  0  0  0  0  0
    8.2346  -18.6594   24.4081 C   0  0  0  0  0  0  0  0  0  0  0  0
    7.3080  -19.5725   23.7080 C   0  0  0  0  0  0  0  0  0  0  0  0
    5.9439  -19.5029   23.6426 C   0  0  0  0  0  0  0  0  0  0  0  0
    5.5429  -20.5455   22.8976 N   0  0  0  0  0  0  0  0  0  0  0  0
    6.5831  -21.2648   22.4926 C   0  0  0  0  0  0  0  0  0  0  0  0
    7.6852  -20.6476   23.0052 N   0  0  0  0  0  0  0  0  0  0  0  0
    8.9358  -16.3329   24.7108 C   0  0  0  0  0  0  0  0  0  0  0  0
   10.1650  -16.1148   24.5456 O   0  0  0  0  0  0  0  0  0  0  0  0
    6.1860  -12.0039   26.2293 C   0  0  0  0  0  0  0  0  0  0  0  0
    7.3184  -12.8804   25.7535 C   0  0  0  0  0  0  0  0  0  0  0  0
    7.9653  -13.5174   26.9496 C   0  0  2  0  0  0  0  0  0  0  0  0
    8.7481  -12.5067   27.7691 C   0  0  0  0  0  0  0  0  0  0  0  0
    8.9213  -14.6261   26.5604 C   0  0  2  0  0  0  0  0  0  0  0  0
    8.2771  -15.6351   25.7555 N   0  0  0  0  0  0  0  0  0  0  0  0
    9.4038  -15.2522   27.8093 C   0  0  0  0  0  0  0  0  0  0  0  0
    8.9281  -16.3061   28.3042 O   0  0  0  0  0  0  0  0  0  0  0  0
   10.4466  -14.6567   28.4960 O   0  0  0  0  0  0  0  0  0  0  0  0
  2  9  1  0
  2  1  1  6
  3  2  1  0
  4  3  1  0
  4  8  1  0
  5  4  2  0
  6  5  1  0
  6  7  1  0
  7  8  2  0
  9 10  2  0
 11 12  1  0
 11  9  1  0
 13 14  1  0
 12 13  1  1
 14 18  1  0
 15 14  2  0
 15 16  1  0
 16 17  1  0
 18 17  2  0
 19 20  2  0
 19 12  1  0
 22 21  1  0
 22 23  1  0
 23 25  1  0
 23 24  1  6
 25 26  1  6
 25 27  1  0
 26 19  1  0
 27 29  1  0
 28 27  2  0
M  END
$$$$
