HHI.pdb
     RDKit          3D

 29 30  0  0  1  0  0  0  0  0999 V2000
    9.4330  -15.5165   19.0867 N   0  0  0  0  0  0  0  0  0  0  0  0
    8.3205  -14.8569   19.7150 C   0  0  1  0  0  0  0  0  0  0  0  0
    7.1570  -14.7910   18.7782 C   0  0  0  0  0  0  0  0  0  0  0  0
    7.4841  -14.3686   17.4085 C   0  0  0  0  0  0  0  0  0  0  0  0
    7.9338  -13.1457   16.9630 C   0  0  0  0  0  0  0  0  0  0  0  0
    8.0869  -13.2119   15.6304 N   0  0  0  0  0  0  0  0  0  0  0  0
    7.7428  -14.4416   15.2525 C   0  0  0  0  0  0  0  0  0  0  0  0
    7.3726  -15.1584   16.3278 N   0  0  0  0  0  0  0  0  0  0  0  0
    7.9738  -15.3815   21.0537 C   0  0  0  0  0  0  0  0  0  0  0  0
    6.8543  -15.0048   21.5442 O   0  0  0  0  0  0  0  0  0  0  0  0
    8.7396  -16.2433   21.8418 N   0  0  0  0  0  0  0  0  0  0  0  0
    8.4665  -16.6997   23.1698 C   0  0  1  0  0  0  0  0  0  0  0  0
    8.8612  -18.0957   23.4817 C   0  0  0  0  0  0  0  0  0  0  0  0
    8.0785  -19.0730   22.6975 C   0  0  0  0  0  0  0  0  0  0  0  0
    8.3380  -19.5487   21.4421 C   0  0  0  0  0  0  0  0  0  0  0  0
    7.3529  -20.4127   21.1490 N   0  0  0  0  0  0  0  0  0  0  0  0
    6.4898  -20.5037   22.1541 C   0  0  0  0  0  0  0  0  0  0  0  0
    6.9524  -19.6607   23.1203 N   0  0  0  0  0  0  0  0  0  0  0  0
    9.0525  -15.7494   24.1554 C   0  0  0  0  0  0  0  0  0  0  0  0
   10.2490  -15.3613   24.0935 O   0  0  0  0  0  0  0  0  0  0  0  0
    6.9674  -10.9198   27.0993 C   0  0  0  0  0  0  0  0  0  0  0  0
    8.0145  -12.0053   27.1472 C   0  0  0  0  0  0  0  0  0  0  0  0
    7.5940  -13.1164   26.2285 C   0  0  2  0  0  0  0  0  0  0  0  0
    6.3374  -13.8097   26.7248 C   0  0  0  0  0  0  0  0  0  0  0  0
    8.6686  -14.1736   26.0800 C   0  0  2  0  0  0  0  0  0  0  0  0
    8.2510  -15.2483   25.2130 N   0  0  0  0  0  0  0  0  0  0  0  0
    8.9347  -14.7252   27.4251 C   0  0  0  0  0  0  0  0  0  0  0  0
    9.4517  -14.0744   28.3691 O   0  0  0  0  0  0  0  0  0  0  0  0
    8.6011  -16.0423   27.6854 O   0  0  0  0  0  0  0  0  0  0  0  0
  2  9  1  0
  2  1  1  6
  3  2  1  0
  4  3  1  0
  4  8  1  0
  5  4  2  0
  6  5  1  0
  6  7  1  0
  7  8  2  0
  9 10  2  0
 11 12  1  0
 11  9  1  0
 13 14  1  0
 12 13  1  6
 14 18  1  0
 15 14  2  0
 15 16  1  0
 16 17  1  0
 18 17  2  0
 19 20  2  0
 19 12  1  0
 22 21  1  0
 22 23  1  0
 23 25  1  0
 23 24  1  1
 25 26  1  6
 25 27  1  0
 26 19  1  0
 27 29  1  0
 28 27  2  0
M  END
$$$$
