HHI.pdb
     RDKit          3D

 29 30  0  0  1  0  0  0  0  0999 V2000
    9.0334  -16.8488   18.8068 N   0  0  0  0  0  0  0  0  0  0  0  0
    8.8091  -15.8348   19.8012 C   0  0  1  0  0  0  0  0  0  0  0  0
    7.6663  -14.9571   19.4020 C   0  0  0  0  0  0  0  0  0  0  0  0
    7.8278  -14.2744   18.1099 C   0  0  0  0  0  0  0  0  0  0  0  0
    8.5606  -13.1475   17.8111 C   0  0  0  0  0  0  0  0  0  0  0  0
    8.4057  -12.8771   16.5047 N   0  0  0  0  0  0  0  0  0  0  0  0
    7.5988  -13.8086   16.0002 C   0  0  0  0  0  0  0  0  0  0  0  0
    7.2385  -14.6680   16.9690 N   0  0  0  0  0  0  0  0  0  0  0  0
    8.7075  -16.3460   21.1853 C   0  0  0  0  0  0  0  0  0  0  0  0
    7.6255  -16.9544   21.4934 O   0  0  0  0  0  0  0  0  0  0  0  0
    9.6666  -16.2336   22.1942 N   0  0  0  0  0  0  0  0  0  0  0  0
    9.5937  -16.7197   23.5377 C   0  0  1  0  0  0  0  0  0  0  0  0
   10.4489  -17.8876   23.8638 C   0  0  0  0  0  0  0  0  0  0  0  0
   10.0381  -19.0923   23.1137 C   0  0  0  0  0  0  0  0  0  0  0  0
    9.0518  -19.2049   22.1734 C   0  0  0  0  0  0  0  0  0  0  0  0
    9.0487  -20.4867   21.7737 N   0  0  0  0  0  0  0  0  0  0  0  0
    9.9806  -21.1834   22.4136 C   0  0  0  0  0  0  0  0  0  0  0  0
   10.5958  -20.3015   23.2514 N   0  0  0  0  0  0  0  0  0  0  0  0
    9.8389  -15.6000   24.4885 C   0  0  0  0  0  0  0  0  0  0  0  0
   10.8062  -14.8035   24.3621 O   0  0  0  0  0  0  0  0  0  0  0  0
    6.1187  -12.2405   25.9272 C   0  0  0  0  0  0  0  0  0  0  0  0
    7.3999  -12.9665   25.5977 C   0  0  0  0  0  0  0  0  0  0  0  0
    7.9443  -13.5726   26.8592 C   0  0  2  0  0  0  0  0  0  0  0  0
    8.3111  -12.5097   27.8797 C   0  0  0  0  0  0  0  0  0  0  0  0
    9.1832  -14.4063   26.6050 C   0  0  2  0  0  0  0  0  0  0  0  0
    8.9621  -15.4032   25.5860 N   0  0  0  0  0  0  0  0  0  0  0  0
    9.5236  -15.0892   27.8708 C   0  0  0  0  0  0  0  0  0  0  0  0
    9.1589  -16.2557   28.1678 O   0  0  0  0  0  0  0  0  0  0  0  0
   10.2933  -14.4199   28.8054 O   0  0  0  0  0  0  0  0  0  0  0  0
  2  9  1  0
  2  1  1  6
  3  2  1  0
  4  3  1  0
  4  8  1  0
  5  4  2  0
  6  5  1  0
  6  7  1  0
  7  8  2  0
  9 10  2  0
 11 12  1  0
 11  9  1  0
 13 14  1  0
 12 13  1  6
 14 18  1  0
 15 14  2  0
 15 16  1  0
 16 17  1  0
 18 17  2  0
 19 20  2  0
 19 12  1  0
 22 21  1  0
 22 23  1  0
 23 25  1  0
 23 24  1  1
 25 26  1  6
 25 27  1  0
 26 19  1  0
 27 29  1  0
 28 27  2  0
M  END
$$$$
