YWG.pdb
     RDKit          3D

 31 33  0  0  1  0  0  0  0  0999 V2000
    7.4503  -19.3821   15.6839 O   0  0  0  0  0  0  0  0  0  0  0  0
    7.9760  -18.9127   16.8998 C   0  0  0  0  0  0  0  0  0  0  0  0
    9.1071  -18.1170   16.9011 C   0  0  0  0  0  0  0  0  0  0  0  0
    9.6758  -17.6218   18.0739 C   0  0  0  0  0  0  0  0  0  0  0  0
    9.0968  -17.9308   19.2821 C   0  0  0  0  0  0  0  0  0  0  0  0
    9.7033  -17.3983   20.5383 C   0  0  0  0  0  0  0  0  0  0  0  0
    8.8288  -16.3205   21.1423 C   0  0  2  0  0  0  0  0  0  0  0  0
    8.4992  -15.2930   20.2037 N   0  0  0  0  0  0  0  0  0  0  0  0
    9.4294  -15.7123   22.3698 C   0  0  0  0  0  0  0  0  0  0  0  0
   10.0873  -14.6466   22.3189 O   0  0  0  0  0  0  0  0  0  0  0  0
    7.9654  -18.7255   19.2908 C   0  0  0  0  0  0  0  0  0  0  0  0
    7.4024  -19.2162   18.1236 C   0  0  0  0  0  0  0  0  0  0  0  0
    9.2674  -16.3322   23.6605 N   0  0  0  0  0  0  0  0  0  0  0  0
   10.0066  -16.0121   24.8283 C   0  0  1  0  0  0  0  0  0  0  0  0
    9.2692  -15.7738   26.0740 C   0  0  0  0  0  0  0  0  0  0  0  0
    7.9456  -15.1524   25.9008 C   0  0  0  0  0  0  0  0  0  0  0  0
    6.7207  -15.6673   25.5549 C   0  0  0  0  0  0  0  0  0  0  0  0
    5.7808  -14.6791   25.5065 N   0  0  0  0  0  0  0  0  0  0  0  0
    6.3703  -13.5290   25.8144 C   0  0  0  0  0  0  0  0  0  0  0  0
    5.8265  -12.2598   25.8924 C   0  0  0  0  0  0  0  0  0  0  0  0
    6.6332  -11.1845   26.2326 C   0  0  0  0  0  0  0  0  0  0  0  0
    7.9578  -11.4374   26.4804 C   0  0  0  0  0  0  0  0  0  0  0  0
    8.5037  -12.7129   26.4022 C   0  0  0  0  0  0  0  0  0  0  0  0
    7.6999  -13.7774   26.0635 C   0  0  0  0  0  0  0  0  0  0  0  0
   11.1945  -16.8913   24.9719 C   0  0  0  0  0  0  0  0  0  0  0  0
   11.2326  -17.7044   25.9144 O   0  0  0  0  0  0  0  0  0  0  0  0
   12.3103  -16.8680   24.0955 N   0  0  0  0  0  0  0  0  0  0  0  0
   13.6496  -16.5185   24.6083 C   0  0  0  0  0  0  0  0  0  0  0  0
   14.6072  -16.3614   23.5143 C   0  0  0  0  0  0  0  0  0  0  0  0
   15.9412  -16.1463   23.7838 O   0  0  0  0  0  0  0  0  0  0  0  0
   14.2269  -16.4209   22.3285 O   0  0  0  0  0  0  0  0  0  0  0  0
  2  1  1  0
  3  2  2  0
  4  3  1  0
  5  4  2  0
  5 11  1  0
  6  5  1  0
  7  6  1  0
  7  8  1  6
  9 10  2  0
  9  7  1  0
 11 12  2  0
 12  2  1  0
 13  9  1  0
 14 13  1  0
 14 15  1  1
 16 15  1  0
 16 17  2  0
 18 17  1  0
 19 18  1  0
 20 19  2  0
 21 20  1  0
 22 21  2  0
 22 23  1  0
 23 24  2  0
 24 19  1  0
 24 16  1  0
 25 14  1  0
 26 25  2  0
 27 25  1  0
 28 27  1  0
 29 28  1  0
 29 30  1  0
 31 29  2  0
M  END
$$$$
