YWG.pdb
     RDKit          3D

 31 33  0  0  1  0  0  0  0  0999 V2000
    7.0013  -13.7437   15.8903 O   0  0  0  0  0  0  0  0  0  0  0  0
    7.4356  -14.2865   17.1118 C   0  0  0  0  0  0  0  0  0  0  0  0
    6.8738  -13.8519   18.2984 C   0  0  0  0  0  0  0  0  0  0  0  0
    7.2628  -14.3513   19.5407 C   0  0  0  0  0  0  0  0  0  0  0  0
    8.2425  -15.3142   19.5994 C   0  0  0  0  0  0  0  0  0  0  0  0
    8.6574  -15.8518   20.9291 C   0  0  0  0  0  0  0  0  0  0  0  0
    9.3591  -14.7867   21.7443 C   0  0  2  0  0  0  0  0  0  0  0  0
   10.3848  -14.1185   21.0048 N   0  0  0  0  0  0  0  0  0  0  0  0
    9.9213  -15.3183   23.0244 C   0  0  0  0  0  0  0  0  0  0  0  0
   11.1243  -15.1487   23.3326 O   0  0  0  0  0  0  0  0  0  0  0  0
    8.8098  -15.7552   18.4181 C   0  0  0  0  0  0  0  0  0  0  0  0
    8.4213  -15.2570   17.1848 C   0  0  0  0  0  0  0  0  0  0  0  0
    9.0931  -16.0440   23.9538 N   0  0  0  0  0  0  0  0  0  0  0  0
    9.4472  -16.3809   25.2856 C   0  0  1  0  0  0  0  0  0  0  0  0
    8.3964  -16.3654   26.3092 C   0  0  0  0  0  0  0  0  0  0  0  0
    7.3570  -15.3407   26.1141 C   0  0  0  0  0  0  0  0  0  0  0  0
    6.0649  -15.4103   25.6550 C   0  0  0  0  0  0  0  0  0  0  0  0
    5.4942  -14.1708   25.6378 N   0  0  0  0  0  0  0  0  0  0  0  0
    6.3904  -13.2941   26.0773 C   0  0  0  0  0  0  0  0  0  0  0  0
    6.2725  -11.9249   26.2329 C   0  0  0  0  0  0  0  0  0  0  0  0
    7.3476  -11.1909   26.7106 C   0  0  0  0  0  0  0  0  0  0  0  0
    8.4986  -11.8726   27.0118 C   0  0  0  0  0  0  0  0  0  0  0  0
    8.6164  -13.2483   26.8554 C   0  0  0  0  0  0  0  0  0  0  0  0
    7.5474  -13.9731   26.3804 C   0  0  0  0  0  0  0  0  0  0  0  0
   10.3287  -17.5752   25.3231 C   0  0  0  0  0  0  0  0  0  0  0  0
   10.6603  -18.0455   26.4275 O   0  0  0  0  0  0  0  0  0  0  0  0
   10.8301  -18.2286   24.1676 N   0  0  0  0  0  0  0  0  0  0  0  0
   11.6598  -19.4420   24.3025 C   0  0  0  0  0  0  0  0  0  0  0  0
   13.0637  -19.0975   24.5230 C   0  0  0  0  0  0  0  0  0  0  0  0
   13.4194  -18.2576   25.5557 O   0  0  0  0  0  0  0  0  0  0  0  0
   13.9518  -19.5600   23.7802 O   0  0  0  0  0  0  0  0  0  0  0  0
  2  1  1  0
  3  2  2  0
  4  3  1  0
  5  4  2  0
  5 11  1  0
  6  5  1  0
  7  6  1  0
  7  8  1  6
  9 10  2  0
  9  7  1  0
 11 12  2  0
 12  2  1  0
 13  9  1  0
 14 13  1  0
 14 15  1  1
 16 15  1  0
 16 17  2  0
 18 17  1  0
 19 18  1  0
 20 19  2  0
 21 20  1  0
 22 21  2  0
 22 23  1  0
 23 24  2  0
 24 19  1  0
 24 16  1  0
 25 14  1  0
 26 25  2  0
 27 25  1  0
 28 27  1  0
 29 28  1  0
 29 30  1  0
 31 29  2  0
M  END
$$$$
