YWG.pdb
     RDKit          3D

 31 33  0  0  1  0  0  0  0  0999 V2000
    8.5767  -21.9648   17.2436 O   0  0  0  0  0  0  0  0  0  0  0  0
    8.9456  -20.8762   18.0523 C   0  0  0  0  0  0  0  0  0  0  0  0
    9.2202  -21.0747   19.3931 C   0  0  0  0  0  0  0  0  0  0  0  0
    9.5902  -20.0354   20.2459 C   0  0  0  0  0  0  0  0  0  0  0  0
    9.6890  -18.7592   19.7439 C   0  0  0  0  0  0  0  0  0  0  0  0
   10.0882  -17.6462   20.6557 C   0  0  0  0  0  0  0  0  0  0  0  0
    8.9130  -17.1906   21.4940 C   0  0  2  0  0  0  0  0  0  0  0  0
    7.8524  -16.6497   20.7016 N   0  0  0  0  0  0  0  0  0  0  0  0
    9.3066  -16.2094   22.5522 C   0  0  0  0  0  0  0  0  0  0  0  0
    9.4193  -14.9862   22.3029 O   0  0  0  0  0  0  0  0  0  0  0  0
    9.4167  -18.5511   18.4043 C   0  0  0  0  0  0  0  0  0  0  0  0
    9.0492  -19.5859   17.5593 C   0  0  0  0  0  0  0  0  0  0  0  0
    9.5668  -16.6391   23.9027 N   0  0  0  0  0  0  0  0  0  0  0  0
   10.0055  -15.8058   24.9637 C   0  0  1  0  0  0  0  0  0  0  0  0
    9.2049  -15.7657   26.1924 C   0  0  0  0  0  0  0  0  0  0  0  0
    7.8597  -15.1874   26.0363 C   0  0  0  0  0  0  0  0  0  0  0  0
    6.6535  -15.7364   25.6774 C   0  0  0  0  0  0  0  0  0  0  0  0
    5.6789  -14.7813   25.6557 N   0  0  0  0  0  0  0  0  0  0  0  0
    6.2274  -13.6195   25.9938 C   0  0  0  0  0  0  0  0  0  0  0  0
    5.6389  -12.3730   26.1057 C   0  0  0  0  0  0  0  0  0  0  0  0
    6.4072  -11.2791   26.4740 C   0  0  0  0  0  0  0  0  0  0  0  0
    7.7404  -11.4911   26.7145 C   0  0  0  0  0  0  0  0  0  0  0  0
    8.3312  -12.7438   26.6021 C   0  0  0  0  0  0  0  0  0  0  0  0
    7.5654  -13.8268   26.2356 C   0  0  0  0  0  0  0  0  0  0  0  0
   11.4681  -15.9380   25.1833 C   0  0  0  0  0  0  0  0  0  0  0  0
   11.8981  -16.0170   26.3493 O   0  0  0  0  0  0  0  0  0  0  0  0
   12.4272  -15.9797   24.1384 N   0  0  0  0  0  0  0  0  0  0  0  0
   13.8665  -16.0646   24.4552 C   0  0  0  0  0  0  0  0  0  0  0  0
   14.6716  -16.1132   23.2354 C   0  0  0  0  0  0  0  0  0  0  0  0
   14.0705  -16.0006   22.0009 O   0  0  0  0  0  0  0  0  0  0  0  0
   15.9085  -16.2564   23.3003 O   0  0  0  0  0  0  0  0  0  0  0  0
  2  1  1  0
  3  2  2  0
  4  3  1  0
  5  4  2  0
  5 11  1  0
  6  5  1  0
  7  6  1  0
  7  8  1  6
  9 10  2  0
  9  7  1  0
 11 12  2  0
 12  2  1  0
 13  9  1  0
 14 13  1  0
 14 15  1  1
 16 15  1  0
 16 17  2  0
 18 17  1  0
 19 18  1  0
 20 19  2  0
 21 20  1  0
 22 21  2  0
 22 23  1  0
 23 24  2  0
 24 19  1  0
 24 16  1  0
 25 14  1  0
 26 25  2  0
 27 25  1  0
 28 27  1  0
 29 28  1  0
 29 30  1  0
 31 29  2  0
M  END
$$$$
