YWG.pdb
     RDKit          3D

 31 33  0  0  1  0  0  0  0  0999 V2000
    7.2901  -13.3253   14.9903 O   0  0  0  0  0  0  0  0  0  0  0  0
    7.6003  -13.9311   16.2199 C   0  0  0  0  0  0  0  0  0  0  0  0
    7.7084  -13.1585   17.3619 C   0  0  0  0  0  0  0  0  0  0  0  0
    8.0141  -13.7009   18.6094 C   0  0  0  0  0  0  0  0  0  0  0  0
    8.2178  -15.0561   18.7197 C   0  0  0  0  0  0  0  0  0  0  0  0
    8.5421  -15.6382   20.0559 C   0  0  0  0  0  0  0  0  0  0  0  0
    9.8380  -15.0672   20.5906 C   0  0  2  0  0  0  0  0  0  0  0  0
   10.9265  -15.2314   19.6775 N   0  0  0  0  0  0  0  0  0  0  0  0
   10.2074  -15.6298   21.9263 C   0  0  0  0  0  0  0  0  0  0  0  0
   11.2211  -16.3516   22.0762 O   0  0  0  0  0  0  0  0  0  0  0  0
    8.1114  -15.8368   17.5834 C   0  0  0  0  0  0  0  0  0  0  0  0
    7.8075  -15.2950   16.3448 C   0  0  0  0  0  0  0  0  0  0  0  0
    9.4081  -15.3561   23.0937 N   0  0  0  0  0  0  0  0  0  0  0  0
    9.6851  -15.8108   24.4086 C   0  0  1  0  0  0  0  0  0  0  0  0
    9.4993  -14.8733   25.5216 C   0  0  0  0  0  0  0  0  0  0  0  0
    8.1061  -14.4575   25.7550 C   0  0  0  0  0  0  0  0  0  0  0  0
    6.9133  -15.1321   25.6689 C   0  0  0  0  0  0  0  0  0  0  0  0
    5.8708  -14.3038   25.9683 N   0  0  0  0  0  0  0  0  0  0  0  0
    6.3618  -13.1015   26.2479 C   0  0  0  0  0  0  0  0  0  0  0  0
    5.6936  -11.9435   26.6020 C   0  0  0  0  0  0  0  0  0  0  0  0
    6.4106  -10.7830   26.8501 C   0  0  0  0  0  0  0  0  0  0  0  0
    7.7753  -10.8413   26.7300 C   0  0  0  0  0  0  0  0  0  0  0  0
    8.4462  -12.0051   26.3744 C   0  0  0  0  0  0  0  0  0  0  0  0
    7.7309  -13.1547   26.1283 C   0  0  0  0  0  0  0  0  0  0  0  0
    9.1214  -17.1648   24.6405 C   0  0  0  0  0  0  0  0  0  0  0  0
    7.9397  -17.3894   24.3180 O   0  0  0  0  0  0  0  0  0  0  0  0
    9.8479  -18.2394   25.2159 N   0  0  0  0  0  0  0  0  0  0  0  0
    9.8343  -18.4458   26.6775 C   0  0  0  0  0  0  0  0  0  0  0  0
   10.6769  -19.5794   27.0564 C   0  0  0  0  0  0  0  0  0  0  0  0
   11.3730  -20.2798   26.0956 O   0  0  0  0  0  0  0  0  0  0  0  0
   10.7741  -19.9226   28.2511 O   0  0  0  0  0  0  0  0  0  0  0  0
  2  1  1  0
  3  2  2  0
  4  3  1  0
  5  4  2  0
  5 11  1  0
  6  5  1  0
  7  6  1  0
  7  8  1  6
  9 10  2  0
  9  7  1  0
 11 12  2  0
 12  2  1  0
 13  9  1  0
 14 13  1  0
 14 15  1  1
 16 15  1  0
 16 17  2  0
 18 17  1  0
 19 18  1  0
 20 19  2  0
 21 20  1  0
 22 21  2  0
 22 23  1  0
 23 24  2  0
 24 19  1  0
 24 16  1  0
 25 14  1  0
 26 25  2  0
 27 25  1  0
 28 27  1  0
 29 28  1  0
 29 30  1  0
 31 29  2  0
M  END
$$$$
