YWG.pdb
     RDKit          3D

 31 33  0  0  1  0  0  0  0  0999 V2000
    8.5539  -22.3158   17.6321 O   0  0  0  0  0  0  0  0  0  0  0  0
    8.9463  -21.3724   18.5970 C   0  0  0  0  0  0  0  0  0  0  0  0
    8.2112  -21.2279   19.7594 C   0  0  0  0  0  0  0  0  0  0  0  0
    8.5495  -20.3096   20.7527 C   0  0  0  0  0  0  0  0  0  0  0  0
    9.6557  -19.5117   20.5795 C   0  0  0  0  0  0  0  0  0  0  0  0
   10.0204  -18.5304   21.6441 C   0  0  0  0  0  0  0  0  0  0  0  0
    9.0964  -17.3319   21.6097 C   0  0  2  0  0  0  0  0  0  0  0  0
    8.9585  -16.7845   20.2956 N   0  0  0  0  0  0  0  0  0  0  0  0
    9.5099  -16.2582   22.5654 C   0  0  0  0  0  0  0  0  0  0  0  0
   10.0066  -15.1794   22.1647 O   0  0  0  0  0  0  0  0  0  0  0  0
   10.3971  -19.6494   19.4206 C   0  0  0  0  0  0  0  0  0  0  0  0
   10.0585  -20.5627   18.4351 C   0  0  0  0  0  0  0  0  0  0  0  0
    9.3466  -16.4270   23.9871 N   0  0  0  0  0  0  0  0  0  0  0  0
    9.9893  -15.6552   24.9889 C   0  0  1  0  0  0  0  0  0  0  0  0
    9.2917  -15.4511   26.2633 C   0  0  0  0  0  0  0  0  0  0  0  0
    7.8905  -15.0160   26.1394 C   0  0  0  0  0  0  0  0  0  0  0  0
    6.7338  -15.6958   25.8473 C   0  0  0  0  0  0  0  0  0  0  0  0
    5.6678  -14.8440   25.8298 N   0  0  0  0  0  0  0  0  0  0  0  0
    6.1079  -13.6211   26.1052 C   0  0  0  0  0  0  0  0  0  0  0  0
    5.4010  -12.4359   26.1959 C   0  0  0  0  0  0  0  0  0  0  0  0
    6.0675  -11.2575   26.4953 C   0  0  0  0  0  0  0  0  0  0  0  0
    7.4229  -11.3263   26.6910 C   0  0  0  0  0  0  0  0  0  0  0  0
    8.1328  -12.5175   26.6000 C   0  0  0  0  0  0  0  0  0  0  0  0
    7.4677  -13.6848   26.3019 C   0  0  0  0  0  0  0  0  0  0  0  0
   11.4206  -16.0278   25.1208 C   0  0  0  0  0  0  0  0  0  0  0  0
   12.1188  -15.4475   25.9732 O   0  0  0  0  0  0  0  0  0  0  0  0
   12.0602  -17.0155   24.3277 N   0  0  0  0  0  0  0  0  0  0  0  0
   13.4615  -17.3920   24.5990 C   0  0  0  0  0  0  0  0  0  0  0  0
   14.3842  -16.6170   23.7704 C   0  0  0  0  0  0  0  0  0  0  0  0
   13.9006  -15.7030   22.8600 O   0  0  0  0  0  0  0  0  0  0  0  0
   15.6161  -16.7751   23.8797 O   0  0  0  0  0  0  0  0  0  0  0  0
  2  1  1  0
  3  2  2  0
  4  3  1  0
  5  4  2  0
  5 11  1  0
  6  5  1  0
  7  6  1  0
  7  8  1  6
  9 10  2  0
  9  7  1  0
 11 12  2  0
 12  2  1  0
 13  9  1  0
 14 13  1  0
 14 15  1  1
 16 15  1  0
 16 17  2  0
 18 17  1  0
 19 18  1  0
 20 19  2  0
 21 20  1  0
 22 21  2  0
 22 23  1  0
 23 24  2  0
 24 19  1  0
 24 16  1  0
 25 14  1  0
 26 25  2  0
 27 25  1  0
 28 27  1  0
 29 28  1  0
 29 30  1  0
 31 29  2  0
M  END
$$$$
