YWG.pdb
     RDKit          3D

 31 33  0  0  1  0  0  0  0  0999 V2000
    7.1552  -14.0212   15.6710 O   0  0  0  0  0  0  0  0  0  0  0  0
    7.4751  -13.9691   17.0385 C   0  0  0  0  0  0  0  0  0  0  0  0
    7.9791  -15.0902   17.6723 C   0  0  0  0  0  0  0  0  0  0  0  0
    8.3142  -15.1008   19.0257 C   0  0  0  0  0  0  0  0  0  0  0  0
    8.1409  -13.9567   19.7684 C   0  0  0  0  0  0  0  0  0  0  0  0
    8.5025  -13.9663   21.2170 C   0  0  0  0  0  0  0  0  0  0  0  0
    9.1754  -15.2687   21.5943 C   0  0  2  0  0  0  0  0  0  0  0  0
    8.2874  -16.3869   21.5144 N   0  0  0  0  0  0  0  0  0  0  0  0
    9.8075  -15.2190   22.9490 C   0  0  0  0  0  0  0  0  0  0  0  0
   10.6680  -14.3552   23.2398 O   0  0  0  0  0  0  0  0  0  0  0  0
    7.6379  -12.8307   19.1431 C   0  0  0  0  0  0  0  0  0  0  0  0
    7.3056  -12.8231   17.7980 C   0  0  0  0  0  0  0  0  0  0  0  0
    9.4434  -16.1652   23.9730 N   0  0  0  0  0  0  0  0  0  0  0  0
    9.9692  -16.1989   25.2901 C   0  0  1  0  0  0  0  0  0  0  0  0
    9.0276  -16.1834   26.4150 C   0  0  0  0  0  0  0  0  0  0  0  0
    7.7663  -15.4685   26.1569 C   0  0  0  0  0  0  0  0  0  0  0  0
    6.4991  -15.9068   25.8614 C   0  0  0  0  0  0  0  0  0  0  0  0
    5.6538  -14.8495   25.6882 N   0  0  0  0  0  0  0  0  0  0  0  0
    6.3464  -13.7298   25.8652 C   0  0  0  0  0  0  0  0  0  0  0  0
    5.9214  -12.4160   25.7886 C   0  0  0  0  0  0  0  0  0  0  0  0
    6.8235  -11.3862   26.0086 C   0  0  0  0  0  0  0  0  0  0  0  0
    8.1196  -11.7279   26.2977 C   0  0  0  0  0  0  0  0  0  0  0  0
    8.5461  -13.0482   26.3748 C   0  0  0  0  0  0  0  0  0  0  0  0
    7.6479  -14.0673   26.1550 C   0  0  0  0  0  0  0  0  0  0  0  0
   11.0586  -17.2007   25.4100 C   0  0  0  0  0  0  0  0  0  0  0  0
   11.5205  -17.4573   26.5377 O   0  0  0  0  0  0  0  0  0  0  0  0
   11.6213  -17.8973   24.3093 N   0  0  0  0  0  0  0  0  0  0  0  0
   12.6800  -18.9021   24.5298 C   0  0  0  0  0  0  0  0  0  0  0  0
   14.0071  -18.2916   24.4615 C   0  0  0  0  0  0  0  0  0  0  0  0
   14.9366  -18.5368   25.4484 O   0  0  0  0  0  0  0  0  0  0  0  0
   14.3105  -17.5444   23.5105 O   0  0  0  0  0  0  0  0  0  0  0  0
  2  1  1  0
  3  2  2  0
  4  3  1  0
  5  4  2  0
  5 11  1  0
  6  5  1  0
  7  6  1  0
  7  8  1  1
  9 10  2  0
  9  7  1  0
 11 12  2  0
 12  2  1  0
 13  9  1  0
 14 13  1  0
 14 15  1  1
 16 15  1  0
 16 17  2  0
 18 17  1  0
 19 18  1  0
 20 19  2  0
 21 20  1  0
 22 21  2  0
 22 23  1  0
 23 24  2  0
 24 19  1  0
 24 16  1  0
 25 14  1  0
 26 25  2  0
 27 25  1  0
 28 27  1  0
 29 28  1  0
 29 30  1  0
 31 29  2  0
M  END
$$$$
