YWG.pdb
     RDKit          3D

 31 33  0  0  1  0  0  0  0  0999 V2000
    7.1871  -13.9324   16.0506 O   0  0  0  0  0  0  0  0  0  0  0  0
    7.4054  -13.9546   17.4388 C   0  0  0  0  0  0  0  0  0  0  0  0
    6.7361  -14.8722   18.2278 C   0  0  0  0  0  0  0  0  0  0  0  0
    6.9099  -14.9428   19.6094 C   0  0  0  0  0  0  0  0  0  0  0  0
    7.7788  -14.0705   20.2213 C   0  0  0  0  0  0  0  0  0  0  0  0
    7.9679  -14.1476   21.7004 C   0  0  0  0  0  0  0  0  0  0  0  0
    9.0823  -15.1105   22.0502 C   0  0  2  0  0  0  0  0  0  0  0  0
    8.7695  -16.4609   21.6981 N   0  0  0  0  0  0  0  0  0  0  0  0
    9.4728  -15.0399   23.4924 C   0  0  0  0  0  0  0  0  0  0  0  0
    9.8411  -13.9643   24.0201 O   0  0  0  0  0  0  0  0  0  0  0  0
    8.4529  -13.1498   19.4405 C   0  0  0  0  0  0  0  0  0  0  0  0
    8.2781  -13.0818   18.0676 C   0  0  0  0  0  0  0  0  0  0  0  0
    9.4345  -16.2120   24.3298 N   0  0  0  0  0  0  0  0  0  0  0  0
    9.9026  -16.2865   25.6669 C   0  0  1  0  0  0  0  0  0  0  0  0
    8.9196  -16.2049   26.7528 C   0  0  0  0  0  0  0  0  0  0  0  0
    7.7028  -15.4409   26.4305 C   0  0  0  0  0  0  0  0  0  0  0  0
    6.4548  -15.8257   26.0064 C   0  0  0  0  0  0  0  0  0  0  0  0
    5.6535  -14.7366   25.8221 N   0  0  0  0  0  0  0  0  0  0  0  0
    6.3558  -13.6485   26.1182 C   0  0  0  0  0  0  0  0  0  0  0  0
    5.9712  -12.3206   26.0795 C   0  0  0  0  0  0  0  0  0  0  0  0
    6.8763  -11.3308   26.4309 C   0  0  0  0  0  0  0  0  0  0  0  0
    8.1344  -11.7250   26.8076 C   0  0  0  0  0  0  0  0  0  0  0  0
    8.5204  -13.0593   26.8467 C   0  0  0  0  0  0  0  0  0  0  0  0
    7.6193  -14.0387   26.4965 C   0  0  0  0  0  0  0  0  0  0  0  0
   10.9106  -17.3652   25.8256 C   0  0  0  0  0  0  0  0  0  0  0  0
   11.5454  -17.4448   26.8940 O   0  0  0  0  0  0  0  0  0  0  0  0
   11.2076  -18.3277   24.8262 N   0  0  0  0  0  0  0  0  0  0  0  0
   12.4931  -18.2738   24.1027 C   0  0  0  0  0  0  0  0  0  0  0  0
   13.5612  -18.9002   24.8807 C   0  0  0  0  0  0  0  0  0  0  0  0
   13.3182  -19.3468   26.1613 O   0  0  0  0  0  0  0  0  0  0  0  0
   14.7008  -19.0367   24.3936 O   0  0  0  0  0  0  0  0  0  0  0  0
  2  1  1  0
  3  2  2  0
  4  3  1  0
  5  4  2  0
  5 11  1  0
  6  5  1  0
  7  6  1  0
  7  8  1  1
  9 10  2  0
  9  7  1  0
 11 12  2  0
 12  2  1  0
 13  9  1  0
 14 13  1  0
 14 15  1  1
 16 15  1  0
 16 17  2  0
 18 17  1  0
 19 18  1  0
 20 19  2  0
 21 20  1  0
 22 21  2  0
 22 23  1  0
 23 24  2  0
 24 19  1  0
 24 16  1  0
 25 14  1  0
 26 25  2  0
 27 25  1  0
 28 27  1  0
 29 28  1  0
 29 30  1  0
 31 29  2  0
M  END
$$$$
