YWG.pdb
     RDKit          3D

 31 33  0  0  1  0  0  0  0  0999 V2000
   12.8675  -20.7354   17.4265 O   0  0  0  0  0  0  0  0  0  0  0  0
   12.7834  -19.9594   18.5952 C   0  0  0  0  0  0  0  0  0  0  0  0
   11.9685  -20.3658   19.6361 C   0  0  0  0  0  0  0  0  0  0  0  0
   11.8427  -19.6389   20.8193 C   0  0  0  0  0  0  0  0  0  0  0  0
   12.5527  -18.4708   20.9673 C   0  0  0  0  0  0  0  0  0  0  0  0
   12.4210  -17.6936   22.2353 C   0  0  0  0  0  0  0  0  0  0  0  0
   10.9826  -17.2832   22.4672 C   0  0  2  0  0  0  0  0  0  0  0  0
   10.4632  -16.4826   21.4020 N   0  0  0  0  0  0  0  0  0  0  0  0
   10.7879  -16.5788   23.7723 C   0  0  0  0  0  0  0  0  0  0  0  0
   11.4238  -15.5367   24.0561 O   0  0  0  0  0  0  0  0  0  0  0  0
   13.3704  -18.0567   19.9321 C   0  0  0  0  0  0  0  0  0  0  0  0
   13.4934  -18.7811   18.7573 C   0  0  0  0  0  0  0  0  0  0  0  0
    9.8542  -17.0750   24.7513 N   0  0  0  0  0  0  0  0  0  0  0  0
    9.6378  -16.5221   26.0397 C   0  0  1  0  0  0  0  0  0  0  0  0
    8.2557  -16.2874   26.4721 C   0  0  0  0  0  0  0  0  0  0  0  0
    7.4999  -15.3360   25.6403 C   0  0  0  0  0  0  0  0  0  0  0  0
    6.9422  -15.4413   24.3900 C   0  0  0  0  0  0  0  0  0  0  0  0
    6.3482  -14.2670   24.0289 N   0  0  0  0  0  0  0  0  0  0  0  0
    6.5082  -13.3977   25.0206 C   0  0  0  0  0  0  0  0  0  0  0  0
    6.0833  -12.0846   25.1111 C   0  0  0  0  0  0  0  0  0  0  0  0
    6.3644  -11.3467   26.2509 C   0  0  0  0  0  0  0  0  0  0  0  0
    7.0642  -11.9677   27.2533 C   0  0  0  0  0  0  0  0  0  0  0  0
    7.4907  -13.2871   27.1620 C   0  0  0  0  0  0  0  0  0  0  0  0
    7.2103  -14.0159   26.0289 C   0  0  0  0  0  0  0  0  0  0  0  0
   10.5015  -17.1728   27.0573 C   0  0  0  0  0  0  0  0  0  0  0  0
   10.5694  -16.6761   28.1973 O   0  0  0  0  0  0  0  0  0  0  0  0
   11.2701  -18.3410   26.8165 N   0  0  0  0  0  0  0  0  0  0  0  0
   12.1152  -18.9068   27.8864 C   0  0  0  0  0  0  0  0  0  0  0  0
   12.6950  -20.1857   27.4779 C   0  0  0  0  0  0  0  0  0  0  0  0
   13.9393  -20.2279   26.8880 O   0  0  0  0  0  0  0  0  0  0  0  0
   12.0701  -21.2492   27.6595 O   0  0  0  0  0  0  0  0  0  0  0  0
  2  1  1  0
  3  2  2  0
  4  3  1  0
  5  4  2  0
  5 11  1  0
  6  5  1  0
  7  6  1  0
  7  8  1  6
  9 10  2  0
  9  7  1  0
 11 12  2  0
 12  2  1  0
 13  9  1  0
 14 13  1  0
 14 15  1  1
 16 15  1  0
 16 17  2  0
 18 17  1  0
 19 18  1  0
 20 19  2  0
 21 20  1  0
 22 21  2  0
 22 23  1  0
 23 24  2  0
 24 19  1  0
 24 16  1  0
 25 14  1  0
 26 25  2  0
 27 25  1  0
 28 27  1  0
 29 28  1  0
 29 30  1  0
 31 29  2  0
M  END
$$$$
