YWG.pdb
     RDKit          3D

 31 33  0  0  1  0  0  0  0  0999 V2000
    7.1723  -13.6030   15.8768 O   0  0  0  0  0  0  0  0  0  0  0  0
    7.3945  -13.6800   17.2623 C   0  0  0  0  0  0  0  0  0  0  0  0
    8.5402  -13.1311   17.8089 C   0  0  0  0  0  0  0  0  0  0  0  0
    8.8168  -13.1763   19.1748 C   0  0  0  0  0  0  0  0  0  0  0  0
    7.9218  -13.7883   20.0202 C   0  0  0  0  0  0  0  0  0  0  0  0
    8.2157  -13.8343   21.4834 C   0  0  0  0  0  0  0  0  0  0  0  0
    9.2219  -14.9213   21.7954 C   0  0  2  0  0  0  0  0  0  0  0  0
    8.7430  -16.2250   21.4541 N   0  0  0  0  0  0  0  0  0  0  0  0
    9.6661  -14.9022   23.2236 C   0  0  0  0  0  0  0  0  0  0  0  0
   10.1746  -13.8787   23.7384 O   0  0  0  0  0  0  0  0  0  0  0  0
    6.7733  -14.3396   19.4829 C   0  0  0  0  0  0  0  0  0  0  0  0
    6.5010  -14.2932   18.1251 C   0  0  0  0  0  0  0  0  0  0  0  0
    9.5197  -16.0650   24.0619 N   0  0  0  0  0  0  0  0  0  0  0  0
    9.9526  -16.1711   25.4087 C   0  0  1  0  0  0  0  0  0  0  0  0
    8.9345  -16.2816   26.4593 C   0  0  0  0  0  0  0  0  0  0  0  0
    7.6968  -15.5258   26.2041 C   0  0  0  0  0  0  0  0  0  0  0  0
    6.4400  -15.9153   25.8117 C   0  0  0  0  0  0  0  0  0  0  0  0
    5.6180  -14.8328   25.6904 N   0  0  0  0  0  0  0  0  0  0  0  0
    6.3156  -13.7444   25.9964 C   0  0  0  0  0  0  0  0  0  0  0  0
    5.9118  -12.4217   26.0135 C   0  0  0  0  0  0  0  0  0  0  0  0
    6.8153  -11.4302   26.3646 C   0  0  0  0  0  0  0  0  0  0  0  0
    8.0912  -11.8176   26.6845 C   0  0  0  0  0  0  0  0  0  0  0  0
    8.4963  -13.1467   26.6674 C   0  0  0  0  0  0  0  0  0  0  0  0
    7.5968  -14.1278   26.3177 C   0  0  0  0  0  0  0  0  0  0  0  0
   11.0807  -17.1278   25.5384 C   0  0  0  0  0  0  0  0  0  0  0  0
   11.4579  -17.4648   26.6763 O   0  0  0  0  0  0  0  0  0  0  0  0
   11.7724  -17.6938   24.4362 N   0  0  0  0  0  0  0  0  0  0  0  0
   12.9090  -18.6079   24.6636 C   0  0  0  0  0  0  0  0  0  0  0  0
   14.1847  -17.9125   24.4974 C   0  0  0  0  0  0  0  0  0  0  0  0
   15.3726  -18.5901   24.6649 O   0  0  0  0  0  0  0  0  0  0  0  0
   14.2102  -16.7014   24.2025 O   0  0  0  0  0  0  0  0  0  0  0  0
  2  1  1  0
  3  2  2  0
  4  3  1  0
  5  4  2  0
  5 11  1  0
  6  5  1  0
  7  6  1  0
  7  8  1  1
  9 10  2  0
  9  7  1  0
 11 12  2  0
 12  2  1  0
 13  9  1  0
 14 13  1  0
 14 15  1  1
 16 15  1  0
 16 17  2  0
 18 17  1  0
 19 18  1  0
 20 19  2  0
 21 20  1  0
 22 21  2  0
 22 23  1  0
 23 24  2  0
 24 19  1  0
 24 16  1  0
 25 14  1  0
 26 25  2  0
 27 25  1  0
 28 27  1  0
 29 28  1  0
 29 30  1  0
 31 29  2  0
M  END
$$$$
