YWG.pdb
     RDKit          3D

 31 33  0  0  1  0  0  0  0  0999 V2000
   13.2465  -20.9285   15.9141 O   0  0  0  0  0  0  0  0  0  0  0  0
   12.9215  -20.2210   17.0841 C   0  0  0  0  0  0  0  0  0  0  0  0
   11.6300  -20.2593   17.5772 C   0  0  0  0  0  0  0  0  0  0  0  0
   11.2465  -19.5784   18.7319 C   0  0  0  0  0  0  0  0  0  0  0  0
   12.1815  -18.8370   19.4148 C   0  0  0  0  0  0  0  0  0  0  0  0
   11.7724  -18.1101   20.6533 C   0  0  0  0  0  0  0  0  0  0  0  0
   11.0974  -16.7997   20.3091 C   0  0  2  0  0  0  0  0  0  0  0  0
   11.9165  -15.9604   19.4904 N   0  0  0  0  0  0  0  0  0  0  0  0
   10.6513  -16.0458   21.5215 C   0  0  0  0  0  0  0  0  0  0  0  0
   11.3584  -15.1445   22.0301 O   0  0  0  0  0  0  0  0  0  0  0  0
   13.4755  -18.7931   18.9295 C   0  0  0  0  0  0  0  0  0  0  0  0
   13.8538  -19.4707   17.7817 C   0  0  0  0  0  0  0  0  0  0  0  0
    9.3843  -16.3289   22.1469 N   0  0  0  0  0  0  0  0  0  0  0  0
    8.8543  -15.6573   23.2785 C   0  0  1  0  0  0  0  0  0  0  0  0
    7.4115  -15.3947   23.3180 C   0  0  0  0  0  0  0  0  0  0  0  0
    6.9145  -14.8586   24.5963 C   0  0  0  0  0  0  0  0  0  0  0  0
    6.1581  -15.4125   25.5994 C   0  0  0  0  0  0  0  0  0  0  0  0
    5.9365  -14.5024   26.5918 N   0  0  0  0  0  0  0  0  0  0  0  0
    6.5345  -13.3651   26.2544 C   0  0  0  0  0  0  0  0  0  0  0  0
    6.5840  -12.1649   26.9399 C   0  0  0  0  0  0  0  0  0  0  0  0
    7.2703  -11.0893   26.3969 C   0  0  0  0  0  0  0  0  0  0  0  0
    7.8790  -11.2720   25.1819 C   0  0  0  0  0  0  0  0  0  0  0  0
    7.8291  -12.4781   24.4937 C   0  0  0  0  0  0  0  0  0  0  0  0
    7.1465  -13.5431   25.0356 C   0  0  0  0  0  0  0  0  0  0  0  0
    9.4184  -16.1998   24.5403 C   0  0  0  0  0  0  0  0  0  0  0  0
    9.0784  -15.6864   25.6227 O   0  0  0  0  0  0  0  0  0  0  0  0
   10.3357  -17.2808   24.5998 N   0  0  0  0  0  0  0  0  0  0  0  0
   10.7715  -17.8133   25.9057 C   0  0  0  0  0  0  0  0  0  0  0  0
   11.8437  -18.7942   25.7426 C   0  0  0  0  0  0  0  0  0  0  0  0
   12.4710  -19.3284   26.8469 O   0  0  0  0  0  0  0  0  0  0  0  0
   12.2003  -19.1568   24.6042 O   0  0  0  0  0  0  0  0  0  0  0  0
  2  1  1  0
  3  2  2  0
  4  3  1  0
  5  4  2  0
  5 11  1  0
  6  5  1  0
  7  6  1  0
  7  8  1  1
  9 10  2  0
  9  7  1  0
 11 12  2  0
 12  2  1  0
 13  9  1  0
 14 13  1  0
 14 15  1  1
 16 15  1  0
 16 17  2  0
 18 17  1  0
 19 18  1  0
 20 19  2  0
 21 20  1  0
 22 21  2  0
 22 23  1  0
 23 24  2  0
 24 19  1  0
 24 16  1  0
 25 14  1  0
 26 25  2  0
 27 25  1  0
 28 27  1  0
 29 28  1  0
 29 30  1  0
 31 29  2  0
M  END
$$$$
