YWG.pdb
     RDKit          3D

 31 33  0  0  1  0  0  0  0  0999 V2000
    8.2955  -14.6517   14.9185 O   0  0  0  0  0  0  0  0  0  0  0  0
    8.3801  -14.4884   16.3118 C   0  0  0  0  0  0  0  0  0  0  0  0
    7.6421  -13.4997   16.9366 C   0  0  0  0  0  0  0  0  0  0  0  0
    7.6843  -13.2882   18.3142 C   0  0  0  0  0  0  0  0  0  0  0  0
    8.4880  -14.0887   19.0911 C   0  0  0  0  0  0  0  0  0  0  0  0
    8.5314  -13.8650   20.5667 C   0  0  0  0  0  0  0  0  0  0  0  0
    7.8492  -14.9985   21.3023 C   0  0  2  0  0  0  0  0  0  0  0  0
    6.4395  -15.0359   21.0640 N   0  0  0  0  0  0  0  0  0  0  0  0
    8.1141  -14.9717   22.7742 C   0  0  0  0  0  0  0  0  0  0  0  0
    7.6704  -14.0539   23.5036 O   0  0  0  0  0  0  0  0  0  0  0  0
    9.2293  -15.0802   18.4753 C   0  0  0  0  0  0  0  0  0  0  0  0
    9.1854  -15.2881   17.1060 C   0  0  0  0  0  0  0  0  0  0  0  0
    8.8891  -16.0081   23.4078 N   0  0  0  0  0  0  0  0  0  0  0  0
    9.6190  -15.8708   24.6165 C   0  0  1  0  0  0  0  0  0  0  0  0
    8.9110  -16.0827   25.8838 C   0  0  0  0  0  0  0  0  0  0  0  0
    7.6338  -15.3604   26.0078 C   0  0  0  0  0  0  0  0  0  0  0  0
    6.3348  -15.7304   25.7608 C   0  0  0  0  0  0  0  0  0  0  0  0
    5.4843  -14.6932   26.0123 N   0  0  0  0  0  0  0  0  0  0  0  0
    6.2047  -13.6537   26.4189 C   0  0  0  0  0  0  0  0  0  0  0  0
    5.7858  -12.3871   26.7835 C   0  0  0  0  0  0  0  0  0  0  0  0
    6.7187  -11.4400   27.1779 C   0  0  0  0  0  0  0  0  0  0  0  0
    8.0380  -11.8134   27.1876 C   0  0  0  0  0  0  0  0  0  0  0  0
    8.4583  -13.0863   26.8214 C   0  0  0  0  0  0  0  0  0  0  0  0
    7.5295  -14.0231   26.4299 C   0  0  0  0  0  0  0  0  0  0  0  0
   10.9405  -16.5419   24.5272 C   0  0  0  0  0  0  0  0  0  0  0  0
   11.1526  -17.5512   25.2252 O   0  0  0  0  0  0  0  0  0  0  0  0
   11.9981  -16.1046   23.6883 N   0  0  0  0  0  0  0  0  0  0  0  0
   13.2766  -16.8419   23.6606 C   0  0  0  0  0  0  0  0  0  0  0  0
   14.2610  -16.1566   22.8241 C   0  0  0  0  0  0  0  0  0  0  0  0
   15.4868  -15.8008   23.3430 O   0  0  0  0  0  0  0  0  0  0  0  0
   14.0016  -15.8882   21.6345 O   0  0  0  0  0  0  0  0  0  0  0  0
  2  1  1  0
  3  2  2  0
  4  3  1  0
  5  4  2  0
  5 11  1  0
  6  5  1  0
  7  6  1  0
  7  8  1  1
  9 10  2  0
  9  7  1  0
 11 12  2  0
 12  2  1  0
 13  9  1  0
 14 13  1  0
 14 15  1  1
 16 15  1  0
 16 17  2  0
 18 17  1  0
 19 18  1  0
 20 19  2  0
 21 20  1  0
 22 21  2  0
 22 23  1  0
 23 24  2  0
 24 19  1  0
 24 16  1  0
 25 14  1  0
 26 25  2  0
 27 25  1  0
 28 27  1  0
 29 28  1  0
 29 30  1  0
 31 29  2  0
M  END
$$$$
