YWG.pdb
     RDKit          3D

 31 33  0  0  1  0  0  0  0  0999 V2000
   11.4834  -19.6782   15.6027 O   0  0  0  0  0  0  0  0  0  0  0  0
   11.5450  -19.0991   16.8817 C   0  0  0  0  0  0  0  0  0  0  0  0
   11.0474  -19.7854   17.9744 C   0  0  0  0  0  0  0  0  0  0  0  0
   11.0793  -19.2637   19.2671 C   0  0  0  0  0  0  0  0  0  0  0  0
   11.6250  -18.0189   19.4745 C   0  0  0  0  0  0  0  0  0  0  0  0
   11.6624  -17.4609   20.8589 C   0  0  0  0  0  0  0  0  0  0  0  0
   10.3401  -16.8154   21.2140 C   0  0  2  0  0  0  0  0  0  0  0  0
   10.0123  -15.7262   20.3470 N   0  0  0  0  0  0  0  0  0  0  0  0
   10.2840  -16.3638   22.6389 C   0  0  0  0  0  0  0  0  0  0  0  0
   10.8422  -15.3060   23.0139 O   0  0  0  0  0  0  0  0  0  0  0  0
   12.1255  -17.3254   18.3880 C   0  0  0  0  0  0  0  0  0  0  0  0
   12.0924  -17.8463   17.1044 C   0  0  0  0  0  0  0  0  0  0  0  0
    9.5788  -17.1317   23.6335 N   0  0  0  0  0  0  0  0  0  0  0  0
    9.4642  -16.7959   25.0071 C   0  0  1  0  0  0  0  0  0  0  0  0
    8.1331  -16.4795   25.5365 C   0  0  0  0  0  0  0  0  0  0  0  0
    7.5100  -15.2738   24.9651 C   0  0  0  0  0  0  0  0  0  0  0  0
    6.8733  -15.0396   23.7714 C   0  0  0  0  0  0  0  0  0  0  0  0
    6.4747  -13.7371   23.6875 N   0  0  0  0  0  0  0  0  0  0  0  0
    6.8397  -13.1176   24.8046 C   0  0  0  0  0  0  0  0  0  0  0  0
    6.6569  -11.7973   25.1734 C   0  0  0  0  0  0  0  0  0  0  0  0
    7.1262  -11.3535   26.4004 C   0  0  0  0  0  0  0  0  0  0  0  0
    7.7616  -12.2642   27.2047 C   0  0  0  0  0  0  0  0  0  0  0  0
    7.9448  -13.5908   26.8338 C   0  0  0  0  0  0  0  0  0  0  0  0
    7.4782  -14.0272   25.6150 C   0  0  0  0  0  0  0  0  0  0  0  0
   10.2639  -17.7156   25.8552 C   0  0  0  0  0  0  0  0  0  0  0  0
   10.0334  -18.9383   25.8025 O   0  0  0  0  0  0  0  0  0  0  0  0
   11.2898  -17.2908   26.7388 N   0  0  0  0  0  0  0  0  0  0  0  0
   12.0862  -18.2853   27.4841 C   0  0  0  0  0  0  0  0  0  0  0  0
   11.4886  -18.5669   28.7887 C   0  0  0  0  0  0  0  0  0  0  0  0
   12.1521  -19.3581   29.7009 O   0  0  0  0  0  0  0  0  0  0  0  0
   10.3746  -18.0941   29.0885 O   0  0  0  0  0  0  0  0  0  0  0  0
  2  1  1  0
  3  2  2  0
  4  3  1  0
  5  4  2  0
  5 11  1  0
  6  5  1  0
  7  6  1  0
  7  8  1  6
  9 10  2  0
  9  7  1  0
 11 12  2  0
 12  2  1  0
 13  9  1  0
 14 13  1  0
 14 15  1  1
 16 15  1  0
 16 17  2  0
 18 17  1  0
 19 18  1  0
 20 19  2  0
 21 20  1  0
 22 21  2  0
 22 23  1  0
 23 24  2  0
 24 19  1  0
 24 16  1  0
 25 14  1  0
 26 25  2  0
 27 25  1  0
 28 27  1  0
 29 28  1  0
 29 30  1  0
 31 29  2  0
M  END
$$$$
