DHE.pdb
     RDKit          3D

 28 28  0  0  1  0  0  0  0  0999 V2000
   22.8252  -32.3764   -3.4054 N   0  0  0  0  0  0  0  0  0  0  0  0
   22.9195  -33.7641   -3.0380 C   0  0  1  0  0  0  0  0  0  0  0  0
   21.8596  -34.5172   -3.8506 C   0  0  0  0  0  0  0  0  0  0  0  0
   20.5273  -34.2340   -3.2762 C   0  0  0  0  0  0  0  0  0  0  0  0
   20.4252  -33.4024   -2.3508 O   0  0  0  0  0  0  0  0  0  0  0  0
   24.2825  -34.3079   -3.3993 C   0  0  0  0  0  0  0  0  0  0  0  0
   24.5691  -35.5018   -3.1807 O   0  0  0  0  0  0  0  0  0  0  0  0
   19.3701  -34.8725   -3.7396 O   0  0  0  0  0  0  0  0  0  0  0  0
   25.2313  -33.4366   -3.9916 N   0  0  0  0  0  0  0  0  0  0  0  0
   26.5730  -33.7620   -4.3294 C   0  0  1  0  0  0  0  0  0  0  0  0
   27.2456  -32.8225   -5.3215 C   0  0  0  0  0  0  0  0  0  0  0  0
   26.5999  -32.8878   -6.6554 C   0  0  0  0  0  0  0  0  0  0  0  0
   25.5882  -33.6457   -7.1655 C   0  0  0  0  0  0  0  0  0  0  0  0
   25.3361  -33.3299   -8.4674 N   0  0  0  0  0  0  0  0  0  0  0  0
   26.2065  -32.3581   -8.7721 C   0  0  0  0  0  0  0  0  0  0  0  0
   26.9695  -32.0785   -7.7077 N   0  0  0  0  0  0  0  0  0  0  0  0
   27.4208  -34.1128   -3.1788 C   0  0  0  0  0  0  0  0  0  0  0  0
   27.5200  -33.3081   -2.1899 O   0  0  0  0  0  0  0  0  0  0  0  0
   28.1539  -35.3317   -3.1076 N   0  0  0  0  0  0  0  0  0  0  0  0
   28.8803  -35.7552   -1.9582 C   0  0  1  0  0  0  0  0  0  0  0  0
   28.1901  -36.7494   -1.1039 C   0  0  0  0  0  0  0  0  0  0  0  0
   28.9656  -37.1731    0.1107 C   0  0  0  0  0  0  0  0  0  0  0  0
   28.2623  -38.1070    0.9898 C   0  0  0  0  0  0  0  0  0  0  0  0
   26.9984  -38.0089    1.0528 O   0  0  0  0  0  0  0  0  0  0  0  0
   30.2429  -36.1873   -2.3719 C   0  0  0  0  0  0  0  0  0  0  0  0
   31.3453  -36.0916   -1.5360 O   0  0  0  0  0  0  0  0  0  0  0  0
   28.8442  -39.0942    1.7640 O   0  0  0  0  0  0  0  0  0  0  0  0
   30.4019  -36.6549   -3.5173 O   0  0  0  0  0  0  0  0  0  0  0  0
  2  1  1  6
  2  3  1  0
  2  6  1  0
  3  4  1  0
  4  8  1  0
  4  5  2  0
  6  7  2  0
  9  6  1  0
  9 10  1  0
 10 11  1  1
 11 12  1  0
 12 16  1  0
 13 14  1  0
 13 12  2  0
 14 15  1  0
 15 16  2  0
 17 10  1  0
 17 18  2  0
 19 17  1  0
 20 19  1  0
 20 21  1  6
 22 23  1  0
 22 21  1  0
 23 24  2  0
 25 20  1  0
 26 25  1  0
 27 23  1  0
 28 25  2  0
M  END
$$$$
