DHE.pdb
     RDKit          3D

 28 28  0  0  1  0  0  0  0  0999 V2000
   13.9009   -9.9234  -11.6603 N   0  0  0  0  0  0  0  0  0  0  0  0
   15.3238   -9.9486  -11.4503 C   0  0  1  0  0  0  0  0  0  0  0  0
   15.9447  -10.6525  -12.6627 C   0  0  0  0  0  0  0  0  0  0  0  0
   15.5604  -12.0796  -12.6349 C   0  0  0  0  0  0  0  0  0  0  0  0
   15.4015  -12.6906  -13.7118 O   0  0  0  0  0  0  0  0  0  0  0  0
   15.8657   -8.5396  -11.3791 C   0  0  0  0  0  0  0  0  0  0  0  0
   15.5386   -7.6888  -12.2302 O   0  0  0  0  0  0  0  0  0  0  0  0
   15.3679  -12.7715  -11.4324 O   0  0  0  0  0  0  0  0  0  0  0  0
   16.7536   -8.2009  -10.3270 N   0  0  0  0  0  0  0  0  0  0  0  0
   17.3515   -6.9298  -10.1101 C   0  0  1  0  0  0  0  0  0  0  0  0
   17.1099   -6.3173   -8.7368 C   0  0  0  0  0  0  0  0  0  0  0  0
   15.6641   -6.1004   -8.4853 C   0  0  0  0  0  0  0  0  0  0  0  0
   14.8416   -5.0246   -8.6412 C   0  0  0  0  0  0  0  0  0  0  0  0
   13.5611   -5.3191   -8.2783 N   0  0  0  0  0  0  0  0  0  0  0  0
   13.5879   -6.6011   -7.8900 C   0  0  0  0  0  0  0  0  0  0  0  0
   14.8305   -7.0869   -8.0049 N   0  0  0  0  0  0  0  0  0  0  0  0
   18.7474   -6.8298  -10.5651 C   0  0  0  0  0  0  0  0  0  0  0  0
   19.6847   -7.3523   -9.8695 O   0  0  0  0  0  0  0  0  0  0  0  0
   19.1176   -6.1656  -11.7694 N   0  0  0  0  0  0  0  0  0  0  0  0
   20.4257   -6.2099  -12.3304 C   0  0  1  0  0  0  0  0  0  0  0  0
   20.6020   -7.1624  -13.4512 C   0  0  0  0  0  0  0  0  0  0  0  0
   21.9699   -7.1488  -14.0717 C   0  0  0  0  0  0  0  0  0  0  0  0
   22.1221   -8.0224  -15.2349 C   0  0  0  0  0  0  0  0  0  0  0  0
   22.2979   -9.2601  -15.0154 O   0  0  0  0  0  0  0  0  0  0  0  0
   20.8616   -4.8271  -12.6659 C   0  0  0  0  0  0  0  0  0  0  0  0
   22.1957   -4.4505  -12.7041 O   0  0  0  0  0  0  0  0  0  0  0  0
   22.0919   -7.6288  -16.5604 O   0  0  0  0  0  0  0  0  0  0  0  0
   19.9925   -3.9702  -12.9237 O   0  0  0  0  0  0  0  0  0  0  0  0
  2  1  1  6
  2  3  1  0
  2  6  1  0
  3  4  1  0
  4  8  1  0
  4  5  2  0
  6  7  2  0
  9  6  1  0
  9 10  1  0
 10 11  1  1
 11 12  1  0
 12 16  1  0
 13 14  1  0
 13 12  2  0
 14 15  1  0
 15 16  2  0
 17 10  1  0
 17 18  2  0
 19 17  1  0
 20 19  1  0
 20 21  1  6
 22 23  1  0
 22 21  1  0
 23 24  2  0
 25 20  1  0
 26 25  1  0
 27 23  1  0
 28 25  2  0
M  END
$$$$
