DHE.pdb
     RDKit          3D

 28 28  0  0  1  0  0  0  0  0999 V2000
   21.4012  -19.5213  -21.4588 N   0  0  0  0  0  0  0  0  0  0  0  0
   21.5006  -18.2081  -20.8800 C   0  0  1  0  0  0  0  0  0  0  0  0
   20.3041  -17.3986  -21.3937 C   0  0  0  0  0  0  0  0  0  0  0  0
   20.5000  -17.1168  -22.8314 C   0  0  0  0  0  0  0  0  0  0  0  0
   21.5214  -16.5006  -23.1995 O   0  0  0  0  0  0  0  0  0  0  0  0
   21.4156  -18.2940  -19.3735 C   0  0  0  0  0  0  0  0  0  0  0  0
   22.2404  -18.9706  -18.7277 O   0  0  0  0  0  0  0  0  0  0  0  0
   19.5714  -17.5213  -23.7987 O   0  0  0  0  0  0  0  0  0  0  0  0
   20.3807  -17.5916  -18.7060 N   0  0  0  0  0  0  0  0  0  0  0  0
   20.1994  -17.5022  -17.2991 C   0  0  1  0  0  0  0  0  0  0  0  0
   20.9282  -16.3527  -16.6158 C   0  0  0  0  0  0  0  0  0  0  0  0
   22.3808  -16.6273  -16.4919 C   0  0  0  0  0  0  0  0  0  0  0  0
   23.1676  -17.6738  -16.8710 C   0  0  0  0  0  0  0  0  0  0  0  0
   24.4735  -17.4600  -16.5441 N   0  0  0  0  0  0  0  0  0  0  0  0
   24.4992  -16.2588  -15.9513 C   0  0  0  0  0  0  0  0  0  0  0  0
   23.2636  -15.7440  -15.9093 N   0  0  0  0  0  0  0  0  0  0  0  0
   18.8062  -17.6666  -16.8548 C   0  0  0  0  0  0  0  0  0  0  0  0
   17.9033  -16.8637  -17.2737 O   0  0  0  0  0  0  0  0  0  0  0  0
   18.4013  -18.6989  -15.9610 N   0  0  0  0  0  0  0  0  0  0  0  0
   17.0661  -18.8669  -15.4950 C   0  0  1  0  0  0  0  0  0  0  0  0
   16.7506  -20.2066  -14.9470 C   0  0  0  0  0  0  0  0  0  0  0  0
   15.3406  -20.3619  -14.4530 C   0  0  0  0  0  0  0  0  0  0  0  0
   14.6038  -21.4767  -15.0479 C   0  0  0  0  0  0  0  0  0  0  0  0
   15.2602  -22.2925  -15.7653 O   0  0  0  0  0  0  0  0  0  0  0  0
   16.7314  -17.7599  -14.5584 C   0  0  0  0  0  0  0  0  0  0  0  0
   15.4591  -17.2163  -14.4650 O   0  0  0  0  0  0  0  0  0  0  0  0
   13.2522  -21.7311  -14.9032 O   0  0  0  0  0  0  0  0  0  0  0  0
   17.6312  -17.3008  -13.8266 O   0  0  0  0  0  0  0  0  0  0  0  0
  2  1  1  6
  2  3  1  0
  2  6  1  0
  3  4  1  0
  4  8  1  0
  4  5  2  0
  6  7  2  0
  9  6  1  0
  9 10  1  0
 10 11  1  6
 11 12  1  0
 12 16  1  0
 13 14  1  0
 13 12  2  0
 14 15  1  0
 15 16  2  0
 17 10  1  0
 17 18  2  0
 19 17  1  0
 20 19  1  0
 20 21  1  1
 22 23  1  0
 22 21  1  0
 23 24  2  0
 25 20  1  0
 26 25  1  0
 27 23  1  0
 28 25  2  0
M  END
$$$$
