DHE.pdb
     RDKit          3D

 28 28  0  0  1  0  0  0  0  0999 V2000
   27.4673  -20.1656  -18.5451 N   0  0  0  0  0  0  0  0  0  0  0  0
   27.1636  -19.1621  -17.5602 C   0  0  1  0  0  0  0  0  0  0  0  0
   26.3861  -18.0509  -18.2755 C   0  0  0  0  0  0  0  0  0  0  0  0
   27.3082  -17.3260  -19.1751 C   0  0  0  0  0  0  0  0  0  0  0  0
   26.9329  -17.0360  -20.3298 O   0  0  0  0  0  0  0  0  0  0  0  0
   26.2872  -19.7442  -16.4752 C   0  0  0  0  0  0  0  0  0  0  0  0
   25.2524  -20.3769  -16.7649 O   0  0  0  0  0  0  0  0  0  0  0  0
   28.5961  -16.9523  -18.7709 O   0  0  0  0  0  0  0  0  0  0  0  0
   26.6620  -19.5586  -15.1205 N   0  0  0  0  0  0  0  0  0  0  0  0
   25.9269  -19.9837  -13.9808 C   0  0  1  0  0  0  0  0  0  0  0  0
   26.6085  -19.7550  -12.6381 C   0  0  0  0  0  0  0  0  0  0  0  0
   25.7812  -20.2608  -11.5155 C   0  0  0  0  0  0  0  0  0  0  0  0
   24.6181  -20.9693  -11.4597 C   0  0  0  0  0  0  0  0  0  0  0  0
   24.2440  -21.2133  -10.1718 N   0  0  0  0  0  0  0  0  0  0  0  0
   25.1918  -20.6465   -9.4133 C   0  0  0  0  0  0  0  0  0  0  0  0
   26.1178  -20.0732  -10.1925 N   0  0  0  0  0  0  0  0  0  0  0  0
   24.5066  -19.5991  -13.9962 C   0  0  0  0  0  0  0  0  0  0  0  0
   24.1798  -18.3670  -14.0983 O   0  0  0  0  0  0  0  0  0  0  0  0
   23.4514  -20.5510  -13.9014 N   0  0  0  0  0  0  0  0  0  0  0  0
   22.0693  -20.2121  -13.9556 C   0  0  1  0  0  0  0  0  0  0  0  0
   21.2722  -20.9620  -14.9540 C   0  0  0  0  0  0  0  0  0  0  0  0
   19.8356  -20.5344  -15.0534 C   0  0  0  0  0  0  0  0  0  0  0  0
   19.0329  -21.3050  -16.0027 C   0  0  0  0  0  0  0  0  0  0  0  0
   19.6323  -22.1852  -16.6933 O   0  0  0  0  0  0  0  0  0  0  0  0
   21.4954  -20.2756  -12.5840 C   0  0  0  0  0  0  0  0  0  0  0  0
   20.3999  -19.5200  -12.1944 O   0  0  0  0  0  0  0  0  0  0  0  0
   17.6743  -21.1679  -16.2222 O   0  0  0  0  0  0  0  0  0  0  0  0
   22.0203  -21.0395  -11.7492 O   0  0  0  0  0  0  0  0  0  0  0  0
  2  1  1  6
  2  3  1  0
  2  6  1  0
  3  4  1  0
  4  8  1  0
  4  5  2  0
  6  7  2  0
  9  6  1  0
  9 10  1  0
 10 11  1  1
 11 12  1  0
 12 16  1  0
 13 14  1  0
 13 12  2  0
 14 15  1  0
 15 16  2  0
 17 10  1  0
 17 18  2  0
 19 17  1  0
 20 19  1  0
 20 21  1  6
 22 23  1  0
 22 21  1  0
 23 24  2  0
 25 20  1  0
 26 25  1  0
 27 23  1  0
 28 25  2  0
M  END
$$$$
