DHE.pdb
     RDKit          3D

 28 28  0  0  1  0  0  0  0  0999 V2000
   14.4273   -5.5322   -8.3633 N   0  0  0  0  0  0  0  0  0  0  0  0
   15.3749   -6.5589   -8.7057 C   0  0  1  0  0  0  0  0  0  0  0  0
   14.5728   -7.7495   -9.2443 C   0  0  0  0  0  0  0  0  0  0  0  0
   13.8809   -8.4085   -8.1165 C   0  0  0  0  0  0  0  0  0  0  0  0
   12.6415   -8.3005   -8.0130 O   0  0  0  0  0  0  0  0  0  0  0  0
   16.3038   -6.0700   -9.7930 C   0  0  0  0  0  0  0  0  0  0  0  0
   15.8780   -5.3468  -10.7153 O   0  0  0  0  0  0  0  0  0  0  0  0
   14.5752   -9.1539   -7.1553 O   0  0  0  0  0  0  0  0  0  0  0  0
   17.6695   -6.4480   -9.7466 N   0  0  0  0  0  0  0  0  0  0  0  0
   18.5790   -6.4434  -10.8388 C   0  0  1  0  0  0  0  0  0  0  0  0
   20.0088   -6.0431  -10.4998 C   0  0  0  0  0  0  0  0  0  0  0  0
   20.8352   -5.8917  -11.7224 C   0  0  0  0  0  0  0  0  0  0  0  0
   21.2108   -4.8130  -12.4664 C   0  0  0  0  0  0  0  0  0  0  0  0
   21.9989   -5.1811  -13.5159 N   0  0  0  0  0  0  0  0  0  0  0  0
   22.1155   -6.5125  -13.4227 C   0  0  0  0  0  0  0  0  0  0  0  0
   21.4305   -6.9575  -12.3616 N   0  0  0  0  0  0  0  0  0  0  0  0
   18.4865   -7.6251  -11.7109 C   0  0  0  0  0  0  0  0  0  0  0  0
   18.5558   -8.7981  -11.2063 O   0  0  0  0  0  0  0  0  0  0  0  0
   18.3193   -7.5278  -13.1220 N   0  0  0  0  0  0  0  0  0  0  0  0
   18.2482   -8.6527  -13.9924 C   0  0  1  0  0  0  0  0  0  0  0  0
   16.9397   -9.3465  -14.0247 C   0  0  0  0  0  0  0  0  0  0  0  0
   16.8773  -10.5163  -14.9648 C   0  0  0  0  0  0  0  0  0  0  0  0
   15.5829  -11.1960  -15.0096 C   0  0  0  0  0  0  0  0  0  0  0  0
   14.9734  -11.2164  -16.1228 O   0  0  0  0  0  0  0  0  0  0  0  0
   18.7330   -8.2582  -15.3430 C   0  0  0  0  0  0  0  0  0  0  0  0
   18.6110   -6.9677  -15.8354 O   0  0  0  0  0  0  0  0  0  0  0  0
   14.9541  -11.8241  -13.9500 O   0  0  0  0  0  0  0  0  0  0  0  0
   19.2714   -9.1228  -16.0630 O   0  0  0  0  0  0  0  0  0  0  0  0
  2  1  1  6
  2  3  1  0
  2  6  1  0
  3  4  1  0
  4  8  1  0
  4  5  2  0
  6  7  2  0
  9  6  1  0
  9 10  1  0
 10 11  1  1
 11 12  1  0
 12 16  1  0
 13 14  1  0
 13 12  2  0
 14 15  1  0
 15 16  2  0
 17 10  1  0
 17 18  2  0
 19 17  1  0
 20 19  1  0
 20 21  1  6
 22 23  1  0
 22 21  1  0
 23 24  2  0
 25 20  1  0
 26 25  1  0
 27 23  1  0
 28 25  2  0
M  END
$$$$
