DHE.pdb
     RDKit          3D

 28 28  0  0  1  0  0  0  0  0999 V2000
   19.8393  -13.6554  -16.8330 N   0  0  0  0  0  0  0  0  0  0  0  0
   19.3648  -12.3095  -17.0139 C   0  0  1  0  0  0  0  0  0  0  0  0
   17.9107  -12.2764  -16.5288 C   0  0  0  0  0  0  0  0  0  0  0  0
   17.0818  -13.0834  -17.4489 C   0  0  0  0  0  0  0  0  0  0  0  0
   16.0805  -13.6814  -17.0038 O   0  0  0  0  0  0  0  0  0  0  0  0
   20.1773  -11.3523  -16.1727 C   0  0  0  0  0  0  0  0  0  0  0  0
   20.0178  -11.2989  -14.9371 O   0  0  0  0  0  0  0  0  0  0  0  0
   17.3858  -13.1988  -18.8112 O   0  0  0  0  0  0  0  0  0  0  0  0
   21.1253  -10.5148  -16.8130 N   0  0  0  0  0  0  0  0  0  0  0  0
   22.0164   -9.6124  -16.1712 C   0  0  1  0  0  0  0  0  0  0  0  0
   23.4984   -9.8981  -16.3750 C   0  0  0  0  0  0  0  0  0  0  0  0
   23.8584  -11.2597  -15.9090 C   0  0  0  0  0  0  0  0  0  0  0  0
   24.1173  -12.4296  -16.5589 C   0  0  0  0  0  0  0  0  0  0  0  0
   24.4197  -13.4300  -15.6837 N   0  0  0  0  0  0  0  0  0  0  0  0
   24.3477  -12.8719  -14.4679 C   0  0  0  0  0  0  0  0  0  0  0  0
   24.0149  -11.5794  -14.5778 N   0  0  0  0  0  0  0  0  0  0  0  0
   21.6606   -8.1931  -16.3281 C   0  0  0  0  0  0  0  0  0  0  0  0
   21.6799   -7.6544  -17.4878 O   0  0  0  0  0  0  0  0  0  0  0  0
   21.2864   -7.3685  -15.2288 N   0  0  0  0  0  0  0  0  0  0  0  0
   20.9445   -5.9913  -15.3499 C   0  0  1  0  0  0  0  0  0  0  0  0
   19.5162   -5.6712  -15.1219 C   0  0  0  0  0  0  0  0  0  0  0  0
   18.5807   -6.2195  -16.1614 C   0  0  0  0  0  0  0  0  0  0  0  0
   17.1732   -5.8772  -15.9584 C   0  0  0  0  0  0  0  0  0  0  0  0
   16.6750   -6.1129  -14.8151 O   0  0  0  0  0  0  0  0  0  0  0  0
   21.8656   -5.1822  -14.5063 C   0  0  0  0  0  0  0  0  0  0  0  0
   21.9573   -3.8023  -14.6082 O   0  0  0  0  0  0  0  0  0  0  0  0
   16.3262   -5.3170  -16.8972 O   0  0  0  0  0  0  0  0  0  0  0  0
   22.5855   -5.7678  -13.6728 O   0  0  0  0  0  0  0  0  0  0  0  0
  2  1  1  1
  2  3  1  0
  2  6  1  0
  3  4  1  0
  4  8  1  0
  4  5  2  0
  6  7  2  0
  9  6  1  0
  9 10  1  0
 10 11  1  6
 11 12  1  0
 12 16  1  0
 13 14  1  0
 13 12  2  0
 14 15  1  0
 15 16  2  0
 17 10  1  0
 17 18  2  0
 19 17  1  0
 20 19  1  0
 20 21  1  1
 22 23  1  0
 22 21  1  0
 23 24  2  0
 25 20  1  0
 26 25  1  0
 27 23  1  0
 28 25  2  0
M  END
$$$$
