DHE.pdb
     RDKit          3D

 28 28  0  0  1  0  0  0  0  0999 V2000
   21.2788  -21.3111  -13.7979 N   0  0  0  0  0  0  0  0  0  0  0  0
   20.4626  -20.1752  -14.1343 C   0  0  1  0  0  0  0  0  0  0  0  0
   19.4418  -20.0044  -13.0031 C   0  0  0  0  0  0  0  0  0  0  0  0
   18.7239  -21.2822  -12.8107 C   0  0  0  0  0  0  0  0  0  0  0  0
   18.5752  -22.0516  -13.7824 O   0  0  0  0  0  0  0  0  0  0  0  0
   21.3117  -18.9274  -14.2121 C   0  0  0  0  0  0  0  0  0  0  0  0
   20.9371  -17.8687  -13.6699 O   0  0  0  0  0  0  0  0  0  0  0  0
   18.2028  -21.6588  -11.5665 O   0  0  0  0  0  0  0  0  0  0  0  0
   22.5430  -18.9808  -14.9130 N   0  0  0  0  0  0  0  0  0  0  0  0
   23.4046  -17.8825  -15.1803 C   0  0  1  0  0  0  0  0  0  0  0  0
   24.8817  -18.2267  -15.3194 C   0  0  0  0  0  0  0  0  0  0  0  0
   25.6965  -17.0200  -15.6032 C   0  0  0  0  0  0  0  0  0  0  0  0
   26.0658  -15.9458  -14.8497 C   0  0  0  0  0  0  0  0  0  0  0  0
   26.8436  -15.0814  -15.5610 N   0  0  0  0  0  0  0  0  0  0  0  0
   26.9601  -15.6281  -16.7786 C   0  0  0  0  0  0  0  0  0  0  0  0
   26.2848  -16.7835  -16.8267 N   0  0  0  0  0  0  0  0  0  0  0  0
   22.9115  -16.9622  -16.2172 C   0  0  0  0  0  0  0  0  0  0  0  0
   22.5926  -17.4121  -17.3710 O   0  0  0  0  0  0  0  0  0  0  0  0
   22.7670  -15.5625  -15.9970 N   0  0  0  0  0  0  0  0  0  0  0  0
   22.4371  -14.6279  -17.0197 C   0  0  1  0  0  0  0  0  0  0  0  0
   21.1177  -13.9701  -16.8746 C   0  0  0  0  0  0  0  0  0  0  0  0
   20.2728  -14.5076  -15.7550 C   0  0  0  0  0  0  0  0  0  0  0  0
   18.9776  -13.8470  -15.5952 C   0  0  0  0  0  0  0  0  0  0  0  0
   18.9760  -12.6807  -15.0943 O   0  0  0  0  0  0  0  0  0  0  0  0
   23.5569  -13.6607  -17.1788 C   0  0  0  0  0  0  0  0  0  0  0  0
   24.6186  -13.5908  -16.2896 O   0  0  0  0  0  0  0  0  0  0  0  0
   17.7457  -14.3723  -15.9401 O   0  0  0  0  0  0  0  0  0  0  0  0
   23.5414  -12.8801  -18.1516 O   0  0  0  0  0  0  0  0  0  0  0  0
  2  1  1  1
  2  3  1  0
  2  6  1  0
  3  4  1  0
  4  8  1  0
  4  5  2  0
  6  7  2  0
  9  6  1  0
  9 10  1  0
 10 11  1  6
 11 12  1  0
 12 16  1  0
 13 14  1  0
 13 12  2  0
 14 15  1  0
 15 16  2  0
 17 10  1  0
 17 18  2  0
 19 17  1  0
 20 19  1  0
 20 21  1  1
 22 23  1  0
 22 21  1  0
 23 24  2  0
 25 20  1  0
 26 25  1  0
 27 23  1  0
 28 25  2  0
M  END
$$$$
