DHE.pdb
     RDKit          3D

 28 28  0  0  1  0  0  0  0  0999 V2000
   18.3330   -9.2669  -16.3588 N   0  0  0  0  0  0  0  0  0  0  0  0
   19.4204   -8.3346  -16.4926 C   0  0  1  0  0  0  0  0  0  0  0  0
   19.2034   -7.5766  -17.8076 C   0  0  0  0  0  0  0  0  0  0  0  0
   19.4129   -8.5082  -18.9360 C   0  0  0  0  0  0  0  0  0  0  0  0
   19.9144   -9.6301  -18.7169 O   0  0  0  0  0  0  0  0  0  0  0  0
   19.4000   -7.3421  -15.3531 C   0  0  0  0  0  0  0  0  0  0  0  0
   18.3264   -6.8375  -14.9685 O   0  0  0  0  0  0  0  0  0  0  0  0
   19.0648   -8.1702  -20.2498 O   0  0  0  0  0  0  0  0  0  0  0  0
   20.6238   -6.9938  -14.7277 N   0  0  0  0  0  0  0  0  0  0  0  0
   20.7794   -6.1249  -13.6138 C   0  0  1  0  0  0  0  0  0  0  0  0
   21.1885   -6.7972  -12.3099 C   0  0  0  0  0  0  0  0  0  0  0  0
   20.1397   -7.7278  -11.8258 C   0  0  0  0  0  0  0  0  0  0  0  0
   19.9435   -9.0688  -11.9715 C   0  0  0  0  0  0  0  0  0  0  0  0
   18.8196   -9.4821  -11.3203 N   0  0  0  0  0  0  0  0  0  0  0  0
   18.3079   -8.3782  -10.7595 C   0  0  0  0  0  0  0  0  0  0  0  0
   19.0779   -7.3210  -11.0474 N   0  0  0  0  0  0  0  0  0  0  0  0
   21.5295   -4.8928  -13.9049 C   0  0  0  0  0  0  0  0  0  0  0  0
   22.6771   -4.9612  -14.4651 O   0  0  0  0  0  0  0  0  0  0  0  0
   21.0316   -3.5967  -13.5877 N   0  0  0  0  0  0  0  0  0  0  0  0
   21.5239   -2.3932  -14.1686 C   0  0  1  0  0  0  0  0  0  0  0  0
   21.6777   -2.4180  -15.6418 C   0  0  0  0  0  0  0  0  0  0  0  0
   22.1506   -1.1244  -16.2412 C   0  0  0  0  0  0  0  0  0  0  0  0
   21.5650   -0.8036  -17.5425 C   0  0  0  0  0  0  0  0  0  0  0  0
   21.5479   -1.7235  -18.4169 O   0  0  0  0  0  0  0  0  0  0  0  0
   20.7064   -1.2468  -13.6866 C   0  0  0  0  0  0  0  0  0  0  0  0
   21.2639   -0.0319  -13.3174 O   0  0  0  0  0  0  0  0  0  0  0  0
   21.0231    0.4129  -17.9158 O   0  0  0  0  0  0  0  0  0  0  0  0
   19.4688   -1.3826  -13.6109 O   0  0  0  0  0  0  0  0  0  0  0  0
  2  1  1  1
  2  3  1  0
  2  6  1  0
  3  4  1  0
  4  8  1  0
  4  5  2  0
  6  7  2  0
  9  6  1  0
  9 10  1  0
 10 11  1  1
 11 12  1  0
 12 16  1  0
 13 14  1  0
 13 12  2  0
 14 15  1  0
 15 16  2  0
 17 10  1  0
 17 18  2  0
 19 17  1  0
 20 19  1  0
 20 21  1  6
 22 23  1  0
 22 21  1  0
 23 24  2  0
 25 20  1  0
 26 25  1  0
 27 23  1  0
 28 25  2  0
M  END
$$$$
