DHE.pdb
     RDKit          3D

 28 28  0  0  1  0  0  0  0  0999 V2000
   24.7471  -18.4315  -20.2284 N   0  0  0  0  0  0  0  0  0  0  0  0
   25.6192  -19.2536  -19.4328 C   0  0  1  0  0  0  0  0  0  0  0  0
   27.0227  -18.6439  -19.5283 C   0  0  0  0  0  0  0  0  0  0  0  0
   27.4935  -18.7459  -20.9258 C   0  0  0  0  0  0  0  0  0  0  0  0
   26.7485  -19.2599  -21.7855 O   0  0  0  0  0  0  0  0  0  0  0  0
   25.1801  -19.2328  -17.9868 C   0  0  0  0  0  0  0  0  0  0  0  0
   25.8393  -19.8312  -17.1135 O   0  0  0  0  0  0  0  0  0  0  0  0
   28.7554  -18.2816  -21.3179 O   0  0  0  0  0  0  0  0  0  0  0  0
   24.0046  -18.5204  -17.6393 N   0  0  0  0  0  0  0  0  0  0  0  0
   23.4885  -18.3422  -16.3271 C   0  0  1  0  0  0  0  0  0  0  0  0
   23.7880  -16.9954  -15.6821 C   0  0  0  0  0  0  0  0  0  0  0  0
   25.2483  -16.7606  -15.5671 C   0  0  0  0  0  0  0  0  0  0  0  0
   26.1830  -17.1328  -14.6474 C   0  0  0  0  0  0  0  0  0  0  0  0
   27.4232  -16.6788  -14.9850 N   0  0  0  0  0  0  0  0  0  0  0  0
   27.2566  -16.0127  -16.1353 C   0  0  0  0  0  0  0  0  0  0  0  0
   25.9688  -16.0483  -16.5011 N   0  0  0  0  0  0  0  0  0  0  0  0
   22.0945  -18.7821  -16.1579 C   0  0  0  0  0  0  0  0  0  0  0  0
   21.1729  -18.2780  -16.8872 O   0  0  0  0  0  0  0  0  0  0  0  0
   21.7092  -19.7642  -15.2011 N   0  0  0  0  0  0  0  0  0  0  0  0
   20.3606  -20.1556  -14.9643 C   0  0  1  0  0  0  0  0  0  0  0  0
   20.1908  -21.3830  -14.1525 C   0  0  0  0  0  0  0  0  0  0  0  0
   18.7618  -21.7802  -13.9140 C   0  0  0  0  0  0  0  0  0  0  0  0
   18.3527  -23.0180  -14.5773 C   0  0  0  0  0  0  0  0  0  0  0  0
   18.8838  -24.0981  -14.1746 O   0  0  0  0  0  0  0  0  0  0  0  0
   19.5999  -18.9932  -14.4305 C   0  0  0  0  0  0  0  0  0  0  0  0
   18.2943  -18.7157  -14.8063 O   0  0  0  0  0  0  0  0  0  0  0  0
   17.4362  -23.1272  -15.6072 O   0  0  0  0  0  0  0  0  0  0  0  0
   20.1583  -18.2362  -13.6113 O   0  0  0  0  0  0  0  0  0  0  0  0
  2  1  1  6
  2  3  1  0
  2  6  1  0
  3  4  1  0
  4  8  1  0
  4  5  2  0
  6  7  2  0
  9  6  1  0
  9 10  1  0
 10 11  1  6
 11 12  1  0
 12 16  1  0
 13 14  1  0
 13 12  2  0
 14 15  1  0
 15 16  2  0
 17 10  1  0
 17 18  2  0
 19 17  1  0
 20 19  1  0
 20 21  1  1
 22 23  1  0
 22 21  1  0
 23 24  2  0
 25 20  1  0
 26 25  1  0
 27 23  1  0
 28 25  2  0
M  END
$$$$
