DHE.pdb
     RDKit          3D

 28 28  0  0  1  0  0  0  0  0999 V2000
   25.4770  -18.9674  -18.2264 N   0  0  0  0  0  0  0  0  0  0  0  0
   25.9183  -18.3317  -17.0137 C   0  0  1  0  0  0  0  0  0  0  0  0
   27.0716  -17.3946  -17.3913 C   0  0  0  0  0  0  0  0  0  0  0  0
   28.1713  -18.1981  -17.9658 C   0  0  0  0  0  0  0  0  0  0  0  0
   28.7773  -17.7737  -18.9713 O   0  0  0  0  0  0  0  0  0  0  0  0
   24.7996  -17.5070  -16.4199 C   0  0  0  0  0  0  0  0  0  0  0  0
   24.9929  -16.8119  -15.4028 O   0  0  0  0  0  0  0  0  0  0  0  0
   28.5568  -19.4267  -17.4150 O   0  0  0  0  0  0  0  0  0  0  0  0
   23.5248  -17.5371  -17.0398 N   0  0  0  0  0  0  0  0  0  0  0  0
   22.3665  -16.8341  -16.6107 C   0  0  1  0  0  0  0  0  0  0  0  0
   21.8626  -15.7575  -17.5628 C   0  0  0  0  0  0  0  0  0  0  0  0
   22.7604  -14.5766  -17.5720 C   0  0  0  0  0  0  0  0  0  0  0  0
   23.8840  -14.2540  -16.8709 C   0  0  0  0  0  0  0  0  0  0  0  0
   24.3737  -13.0382  -17.2454 N   0  0  0  0  0  0  0  0  0  0  0  0
   23.5397  -12.5971  -18.1966 C   0  0  0  0  0  0  0  0  0  0  0  0
   22.5710  -13.4974  -18.4076 N   0  0  0  0  0  0  0  0  0  0  0  0
   21.3001  -17.6927  -16.0712 C   0  0  0  0  0  0  0  0  0  0  0  0
   21.2082  -18.9108  -16.4498 O   0  0  0  0  0  0  0  0  0  0  0  0
   20.3422  -17.2265  -15.1260 N   0  0  0  0  0  0  0  0  0  0  0  0
   19.2261  -17.9923  -14.6833 C   0  0  1  0  0  0  0  0  0  0  0  0
   18.4494  -17.3952  -13.5721 C   0  0  0  0  0  0  0  0  0  0  0  0
   17.2170  -18.1640  -13.1892 C   0  0  0  0  0  0  0  0  0  0  0  0
   16.4674  -17.5982  -12.0679 C   0  0  0  0  0  0  0  0  0  0  0  0
   16.9339  -16.5503  -11.5244 O   0  0  0  0  0  0  0  0  0  0  0  0
   18.3838  -18.3531  -15.8559 C   0  0  0  0  0  0  0  0  0  0  0  0
   17.7737  -19.5914  -15.9876 O   0  0  0  0  0  0  0  0  0  0  0  0
   15.2908  -18.0965  -11.5388 O   0  0  0  0  0  0  0  0  0  0  0  0
   18.2187  -17.5080  -16.7585 O   0  0  0  0  0  0  0  0  0  0  0  0
  2  1  1  6
  2  3  1  0
  2  6  1  0
  3  4  1  0
  4  8  1  0
  4  5  2  0
  6  7  2  0
  9  6  1  0
  9 10  1  0
 10 11  1  6
 11 12  1  0
 12 16  1  0
 13 14  1  0
 13 12  2  0
 14 15  1  0
 15 16  2  0
 17 10  1  0
 17 18  2  0
 19 17  1  0
 20 19  1  0
 20 21  1  1
 22 23  1  0
 22 21  1  0
 23 24  2  0
 25 20  1  0
 26 25  1  0
 27 23  1  0
 28 25  2  0
M  END
$$$$
