DHE.pdb
     RDKit          3D

 28 28  0  0  1  0  0  0  0  0999 V2000
   23.4720   -9.6284  -18.9899 N   0  0  0  0  0  0  0  0  0  0  0  0
   23.9310   -9.1857  -17.7004 C   0  0  1  0  0  0  0  0  0  0  0  0
   25.0817   -8.2026  -17.9460 C   0  0  0  0  0  0  0  0  0  0  0  0
   26.2525   -8.9534  -18.4468 C   0  0  0  0  0  0  0  0  0  0  0  0
   26.1918  -10.1977  -18.5265 O   0  0  0  0  0  0  0  0  0  0  0  0
   22.8225   -8.4607  -16.9727 C   0  0  0  0  0  0  0  0  0  0  0  0
   22.0745   -7.6691  -17.5803 O   0  0  0  0  0  0  0  0  0  0  0  0
   27.4337   -8.3096  -18.8367 O   0  0  0  0  0  0  0  0  0  0  0  0
   22.6470   -8.6960  -15.5856 N   0  0  0  0  0  0  0  0  0  0  0  0
   21.6608   -8.1022  -14.7520 C   0  0  1  0  0  0  0  0  0  0  0  0
   21.3145   -8.8804  -13.4895 C   0  0  0  0  0  0  0  0  0  0  0  0
   20.1599   -8.2779  -12.7792 C   0  0  0  0  0  0  0  0  0  0  0  0
   19.3718   -7.1948  -13.0317 C   0  0  0  0  0  0  0  0  0  0  0  0
   18.4102   -7.0444  -12.0772 N   0  0  0  0  0  0  0  0  0  0  0  0
   18.6039   -8.0522  -11.2160 C   0  0  0  0  0  0  0  0  0  0  0  0
   19.6410   -8.8000  -11.6143 N   0  0  0  0  0  0  0  0  0  0  0  0
   21.8452   -6.6598  -14.5260 C   0  0  0  0  0  0  0  0  0  0  0  0
   23.0066   -6.1997  -14.2526 O   0  0  0  0  0  0  0  0  0  0  0  0
   20.7713   -5.7271  -14.5981 N   0  0  0  0  0  0  0  0  0  0  0  0
   20.9489   -4.3222  -14.7491 C   0  0  1  0  0  0  0  0  0  0  0  0
   21.5813   -3.8969  -16.0195 C   0  0  0  0  0  0  0  0  0  0  0  0
   21.7161   -2.4097  -16.1816 C   0  0  0  0  0  0  0  0  0  0  0  0
   22.3703   -1.9866  -17.4195 C   0  0  0  0  0  0  0  0  0  0  0  0
   21.6573   -1.3830  -18.2788 O   0  0  0  0  0  0  0  0  0  0  0  0
   19.6570   -3.6337  -14.4814 C   0  0  0  0  0  0  0  0  0  0  0  0
   19.5737   -2.4484  -13.7665 O   0  0  0  0  0  0  0  0  0  0  0  0
   23.6999   -2.1806  -17.7472 O   0  0  0  0  0  0  0  0  0  0  0  0
   18.6048   -4.1425  -14.9172 O   0  0  0  0  0  0  0  0  0  0  0  0
  2  1  1  6
  2  3  1  0
  2  6  1  0
  3  4  1  0
  4  8  1  0
  4  5  2  0
  6  7  2  0
  9  6  1  0
  9 10  1  0
 10 11  1  1
 11 12  1  0
 12 16  1  0
 13 14  1  0
 13 12  2  0
 14 15  1  0
 15 16  2  0
 17 10  1  0
 17 18  2  0
 19 17  1  0
 20 19  1  0
 20 21  1  6
 22 23  1  0
 22 21  1  0
 23 24  2  0
 25 20  1  0
 26 25  1  0
 27 23  1  0
 28 25  2  0
M  END
$$$$
