DHE.pdb
     RDKit          3D

 28 28  0  0  1  0  0  0  0  0999 V2000
   16.6508  -12.9359  -16.7683 N   0  0  0  0  0  0  0  0  0  0  0  0
   17.2507  -12.9579  -15.4610 C   0  0  1  0  0  0  0  0  0  0  0  0
   17.7145  -14.3965  -15.2034 C   0  0  0  0  0  0  0  0  0  0  0  0
   16.5282  -15.2451  -14.9640 C   0  0  0  0  0  0  0  0  0  0  0  0
   15.4360  -14.7055  -14.6914 O   0  0  0  0  0  0  0  0  0  0  0  0
   18.4562  -12.0472  -15.4247 C   0  0  0  0  0  0  0  0  0  0  0  0
   19.3838  -12.2521  -14.6168 O   0  0  0  0  0  0  0  0  0  0  0  0
   16.5910  -16.6426  -15.0336 O   0  0  0  0  0  0  0  0  0  0  0  0
   18.5148  -10.9542  -16.3259 N   0  0  0  0  0  0  0  0  0  0  0  0
   19.5974  -10.0452  -16.4731 C   0  0  1  0  0  0  0  0  0  0  0  0
   20.3589  -10.1399  -17.7887 C   0  0  0  0  0  0  0  0  0  0  0  0
   21.1400  -11.3981  -17.8751 C   0  0  0  0  0  0  0  0  0  0  0  0
   22.4565  -11.6936  -17.6813 C   0  0  0  0  0  0  0  0  0  0  0  0
   22.7027  -13.0210  -17.8694 N   0  0  0  0  0  0  0  0  0  0  0  0
   21.5179  -13.5606  -18.1856 C   0  0  0  0  0  0  0  0  0  0  0  0
   20.5723  -12.6123  -18.1950 N   0  0  0  0  0  0  0  0  0  0  0  0
   19.2911   -8.6649  -16.0650 C   0  0  0  0  0  0  0  0  0  0  0  0
   18.1090   -8.2014  -16.2176 O   0  0  0  0  0  0  0  0  0  0  0  0
   20.2663   -7.7977  -15.4947 N   0  0  0  0  0  0  0  0  0  0  0  0
   20.0088   -6.4460  -15.1276 C   0  0  1  0  0  0  0  0  0  0  0  0
   21.1082   -5.7661  -14.4039 C   0  0  0  0  0  0  0  0  0  0  0  0
   20.8265   -4.3352  -14.0440 C   0  0  0  0  0  0  0  0  0  0  0  0
   21.8672   -3.6900  -13.2438 C   0  0  0  0  0  0  0  0  0  0  0  0
   23.0272   -4.2044  -13.2722 O   0  0  0  0  0  0  0  0  0  0  0  0
   19.5452   -5.6933  -16.3248 C   0  0  0  0  0  0  0  0  0  0  0  0
   18.5377   -4.7422  -16.2680 O   0  0  0  0  0  0  0  0  0  0  0  0
   21.7097   -2.5654  -12.4545 O   0  0  0  0  0  0  0  0  0  0  0  0
   20.0840   -5.9262  -17.4254 O   0  0  0  0  0  0  0  0  0  0  0  0
  2  1  1  6
  2  3  1  0
  2  6  1  0
  3  4  1  0
  4  8  1  0
  4  5  2  0
  6  7  2  0
  9  6  1  0
  9 10  1  0
 10 11  1  6
 11 12  1  0
 12 16  1  0
 13 14  1  0
 13 12  2  0
 14 15  1  0
 15 16  2  0
 17 10  1  0
 17 18  2  0
 19 17  1  0
 20 19  1  0
 20 21  1  6
 22 23  1  0
 22 21  1  0
 23 24  2  0
 25 20  1  0
 26 25  1  0
 27 23  1  0
 28 25  2  0
M  END
$$$$
