DHE.pdb
     RDKit          3D

 28 28  0  0  1  0  0  0  0  0999 V2000
   17.5991   -9.8296  -17.1918 N   0  0  0  0  0  0  0  0  0  0  0  0
   17.1260   -9.1941  -15.9911 C   0  0  1  0  0  0  0  0  0  0  0  0
   17.1524  -10.2524  -14.8820 C   0  0  0  0  0  0  0  0  0  0  0  0
   16.0507  -11.2111  -15.1103 C   0  0  0  0  0  0  0  0  0  0  0  0
   16.2438  -12.1993  -15.8482 O   0  0  0  0  0  0  0  0  0  0  0  0
   18.0485   -8.0621  -15.6016 C   0  0  0  0  0  0  0  0  0  0  0  0
   17.8807   -7.4448  -14.5311 O   0  0  0  0  0  0  0  0  0  0  0  0
   14.7905  -11.0449  -14.5220 O   0  0  0  0  0  0  0  0  0  0  0  0
   19.1094   -7.7133  -16.4751 N   0  0  0  0  0  0  0  0  0  0  0  0
   20.0758   -6.6944  -16.2562 C   0  0  1  0  0  0  0  0  0  0  0  0
   21.5294   -7.1442  -16.3227 C   0  0  0  0  0  0  0  0  0  0  0  0
   21.8230   -8.1856  -15.3079 C   0  0  0  0  0  0  0  0  0  0  0  0
   21.0963   -8.7258  -14.2890 C   0  0  0  0  0  0  0  0  0  0  0  0
   21.8048   -9.6812  -13.6230 N   0  0  0  0  0  0  0  0  0  0  0  0
   22.9932   -9.7361  -14.2391 C   0  0  0  0  0  0  0  0  0  0  0  0
   23.0265   -8.8538  -15.2460 N   0  0  0  0  0  0  0  0  0  0  0  0
   19.8109   -5.4407  -16.9798 C   0  0  0  0  0  0  0  0  0  0  0  0
   19.6340   -5.4596  -18.2462 O   0  0  0  0  0  0  0  0  0  0  0  0
   19.7392   -4.1769  -16.3270 N   0  0  0  0  0  0  0  0  0  0  0  0
   19.4161   -2.9585  -16.9897 C   0  0  1  0  0  0  0  0  0  0  0  0
   18.4941   -2.0627  -16.2535 C   0  0  0  0  0  0  0  0  0  0  0  0
   17.1268   -2.6364  -16.0130 C   0  0  0  0  0  0  0  0  0  0  0  0
   16.5047   -2.2264  -14.7543 C   0  0  0  0  0  0  0  0  0  0  0  0
   17.0181   -1.2385  -14.1449 O   0  0  0  0  0  0  0  0  0  0  0  0
   20.6729   -2.2826  -17.4120 C   0  0  0  0  0  0  0  0  0  0  0  0
   21.9290   -2.7330  -17.0349 O   0  0  0  0  0  0  0  0  0  0  0  0
   15.4030   -2.8138  -14.1595 O   0  0  0  0  0  0  0  0  0  0  0  0
   20.5950   -1.2691  -18.1350 O   0  0  0  0  0  0  0  0  0  0  0  0
  2  1  1  6
  2  3  1  0
  2  6  1  0
  3  4  1  0
  4  8  1  0
  4  5  2  0
  6  7  2  0
  9  6  1  0
  9 10  1  0
 10 11  1  6
 11 12  1  0
 12 16  1  0
 13 14  1  0
 13 12  2  0
 14 15  1  0
 15 16  2  0
 17 10  1  0
 17 18  2  0
 19 17  1  0
 20 19  1  0
 20 21  1  1
 22 23  1  0
 22 21  1  0
 23 24  2  0
 25 20  1  0
 26 25  1  0
 27 23  1  0
 28 25  2  0
M  END
$$$$
