AQY.pdb
     RDKit          3D

 27 27  0  0  1  0  0  0  0  0999 V2000
   26.8582  -16.1774  -16.0794 C   0  0  0  0  0  0  0  0  0  0  0  0
   27.7667  -17.3846  -16.1219 C   0  0  2  0  0  0  0  0  0  0  0  0
   28.1888  -17.5802  -17.4668 N   0  0  0  0  0  0  0  0  0  0  0  0
   27.1043  -18.5790  -15.5361 C   0  0  0  0  0  0  0  0  0  0  0  0
   26.6531  -19.5030  -16.2602 O   0  0  0  0  0  0  0  0  0  0  0  0
   25.0661  -19.5563  -10.2763 N   0  0  0  0  0  0  0  0  0  0  0  0
   25.5590  -20.8627  -10.3740 C   0  0  0  0  0  0  0  0  0  0  0  0
   25.1564  -21.7614   -9.6236 O   0  0  0  0  0  0  0  0  0  0  0  0
   26.6000  -21.2251  -11.3981 C   0  0  0  0  0  0  0  0  0  0  0  0
   27.1075  -20.0012  -12.1012 C   0  0  0  0  0  0  0  0  0  0  0  0
   26.4688  -19.8488  -13.4333 C   0  0  2  0  0  0  0  0  0  0  0  0
   26.9785  -18.6799  -14.1466 N   0  0  0  0  0  0  0  0  0  0  0  0
   25.0099  -19.6427  -13.3079 C   0  0  0  0  0  0  0  0  0  0  0  0
   24.4767  -18.6201  -12.7833 O   0  0  0  0  0  0  0  0  0  0  0  0
   21.5930  -14.6352  -15.8621 O   0  0  0  0  0  0  0  0  0  0  0  0
   21.7130  -16.0110  -15.6562 C   0  0  0  0  0  0  0  0  0  0  0  0
   20.7636  -16.7063  -14.9383 C   0  0  0  0  0  0  0  0  0  0  0  0
   20.8922  -18.0627  -14.7417 C   0  0  0  0  0  0  0  0  0  0  0  0
   21.9716  -18.7930  -15.2499 C   0  0  0  0  0  0  0  0  0  0  0  0
   22.0509  -20.2432  -14.9902 C   0  0  0  0  0  0  0  0  0  0  0  0
   22.6498  -20.5173  -13.6336 C   0  0  2  0  0  0  0  0  0  0  0  0
   24.0858  -20.6281  -13.7922 N   0  0  0  0  0  0  0  0  0  0  0  0
   22.1841  -21.7962  -13.0580 C   0  0  0  0  0  0  0  0  0  0  0  0
   21.1130  -21.8868  -12.1709 O   0  0  0  0  0  0  0  0  0  0  0  0
   22.9124  -18.0851  -15.9648 C   0  0  0  0  0  0  0  0  0  0  0  0
   22.7813  -16.7170  -16.1624 C   0  0  0  0  0  0  0  0  0  0  0  0
   22.7544  -22.8683  -13.3587 O   0  0  0  0  0  0  0  0  0  0  0  0
  2  1  1  6
  2  3  1  0
  4  5  2  0
  4  2  1  0
  7  6  1  0
  7  9  1  0
  8  7  2  0
 11 10  1  1
 10  9  1  0
 11 12  1  0
 12  4  1  0
 13 11  1  0
 13 14  2  0
 15 16  1  0
 16 17  2  0
 16 26  1  0
 17 18  1  0
 18 19  2  0
 19 20  1  0
 21 20  1  6
 21 22  1  0
 22 13  1  0
 23 21  1  0
 23 24  1  0
 25 19  1  0
 26 25  2  0
 27 23  2  0
M  END
$$$$
