AQY.pdb
     RDKit          3D

 27 27  0  0  1  0  0  0  0  0999 V2000
   14.0813   -6.2262  -15.7164 C   0  0  0  0  0  0  0  0  0  0  0  0
   15.0230   -7.1713  -16.4268 C   0  0  2  0  0  0  0  0  0  0  0  0
   14.2831   -8.3149  -16.8389 N   0  0  0  0  0  0  0  0  0  0  0  0
   16.1942   -7.5066  -15.5756 C   0  0  0  0  0  0  0  0  0  0  0  0
   16.0546   -7.8982  -14.3887 O   0  0  0  0  0  0  0  0  0  0  0  0
   20.5326  -11.2503  -17.0167 N   0  0  0  0  0  0  0  0  0  0  0  0
   19.3402  -11.3942  -16.2979 C   0  0  0  0  0  0  0  0  0  0  0  0
   18.8122  -12.5029  -16.1405 O   0  0  0  0  0  0  0  0  0  0  0  0
   18.6531  -10.2029  -15.6875 C   0  0  0  0  0  0  0  0  0  0  0  0
   19.3659   -8.9327  -16.0457 C   0  0  0  0  0  0  0  0  0  0  0  0
   18.7136   -7.7587  -15.4118 C   0  0  2  0  0  0  0  0  0  0  0  0
   17.4831   -7.3843  -16.1051 N   0  0  0  0  0  0  0  0  0  0  0  0
   19.5872   -6.5668  -15.4644 C   0  0  0  0  0  0  0  0  0  0  0  0
   19.8080   -5.8903  -16.5126 O   0  0  0  0  0  0  0  0  0  0  0  0
   16.6413   -1.3294  -16.9791 O   0  0  0  0  0  0  0  0  0  0  0  0
   17.5928   -1.9356  -16.1564 C   0  0  0  0  0  0  0  0  0  0  0  0
   17.2216   -2.8641  -15.2076 C   0  0  0  0  0  0  0  0  0  0  0  0
   18.1684   -3.4556  -14.4020 C   0  0  0  0  0  0  0  0  0  0  0  0
   19.5301   -3.1519  -14.5016 C   0  0  0  0  0  0  0  0  0  0  0  0
   20.4881   -3.8161  -13.5970 C   0  0  0  0  0  0  0  0  0  0  0  0
   21.1703   -4.9711  -14.2861 C   0  0  2  0  0  0  0  0  0  0  0  0
   20.2565   -6.0956  -14.2856 N   0  0  0  0  0  0  0  0  0  0  0  0
   22.3897   -5.4118  -13.5771 C   0  0  0  0  0  0  0  0  0  0  0  0
   22.5389   -6.6893  -13.0405 O   0  0  0  0  0  0  0  0  0  0  0  0
   19.8861   -2.2224  -15.4537 C   0  0  0  0  0  0  0  0  0  0  0  0
   18.9301   -1.6267  -16.2656 C   0  0  0  0  0  0  0  0  0  0  0  0
   23.3539   -4.6277  -13.4331 O   0  0  0  0  0  0  0  0  0  0  0  0
  2  1  1  1
  2  3  1  0
  4  5  2  0
  4  2  1  0
  7  6  1  0
  7  9  1  0
  8  7  2  0
 11 10  1  6
 10  9  1  0
 11 12  1  0
 12  4  1  0
 13 11  1  0
 13 14  2  0
 15 16  1  0
 16 17  2  0
 16 26  1  0
 17 18  1  0
 18 19  2  0
 19 20  1  0
 21 20  1  1
 21 22  1  0
 22 13  1  0
 23 21  1  0
 23 24  1  0
 25 19  1  0
 26 25  2  0
 27 23  2  0
M  END
$$$$
