AQY.pdb
     RDKit          3D

 27 27  0  0  1  0  0  0  0  0999 V2000
   23.5059  -11.8179  -21.3544 C   0  0  0  0  0  0  0  0  0  0  0  0
   22.4791  -12.6504  -20.6213 C   0  0  2  0  0  0  0  0  0  0  0  0
   21.9180  -13.5808  -21.5404 N   0  0  0  0  0  0  0  0  0  0  0  0
   21.4611  -11.7924  -19.9610 C   0  0  0  0  0  0  0  0  0  0  0  0
   20.8491  -10.8929  -20.5919 O   0  0  0  0  0  0  0  0  0  0  0  0
   18.0523  -13.5739  -14.9892 N   0  0  0  0  0  0  0  0  0  0  0  0
   17.6862  -12.2334  -15.1562 C   0  0  0  0  0  0  0  0  0  0  0  0
   16.7522  -11.7354  -14.5141 O   0  0  0  0  0  0  0  0  0  0  0  0
   18.4165  -11.3441  -16.1257 C   0  0  0  0  0  0  0  0  0  0  0  0
   19.4254  -12.1263  -16.9133 C   0  0  0  0  0  0  0  0  0  0  0  0
   20.1750  -11.2443  -17.8437 C   0  0  2  0  0  0  0  0  0  0  0  0
   21.1753  -11.9881  -18.6057 N   0  0  0  0  0  0  0  0  0  0  0  0
   20.9199  -10.1994  -17.1086 C   0  0  0  0  0  0  0  0  0  0  0  0
   22.0535  -10.3764  -16.5714 O   0  0  0  0  0  0  0  0  0  0  0  0
   23.0603   -1.8896  -14.9136 O   0  0  0  0  0  0  0  0  0  0  0  0
   22.7098   -3.1131  -15.4878 C   0  0  0  0  0  0  0  0  0  0  0  0
   23.5944   -4.1701  -15.5001 C   0  0  0  0  0  0  0  0  0  0  0  0
   23.2380   -5.3721  -16.0689 C   0  0  0  0  0  0  0  0  0  0  0  0
   21.9842   -5.5803  -16.6530 C   0  0  0  0  0  0  0  0  0  0  0  0
   21.6746   -6.8914  -17.2549 C   0  0  0  0  0  0  0  0  0  0  0  0
   21.0528   -7.8183  -16.2408 C   0  0  2  0  0  0  0  0  0  0  0  0
   20.3768   -8.8794  -16.9593 N   0  0  0  0  0  0  0  0  0  0  0  0
   20.0308   -7.1456  -15.4121 C   0  0  0  0  0  0  0  0  0  0  0  0
   20.3147   -6.5592  -14.1801 O   0  0  0  0  0  0  0  0  0  0  0  0
   21.1109   -4.5153  -16.6337 C   0  0  0  0  0  0  0  0  0  0  0  0
   21.4718   -3.3036  -16.0595 C   0  0  0  0  0  0  0  0  0  0  0  0
   18.8443   -7.0804  -15.8033 O   0  0  0  0  0  0  0  0  0  0  0  0
  2  1  1  6
  2  3  1  0
  4  5  2  0
  4  2  1  0
  7  6  1  0
  7  9  1  0
  8  7  2  0
 11 10  1  1
 10  9  1  0
 11 12  1  0
 12  4  1  0
 13 11  1  0
 13 14  2  0
 15 16  1  0
 16 17  2  0
 16 26  1  0
 17 18  1  0
 18 19  2  0
 19 20  1  0
 21 20  1  6
 21 22  1  0
 22 13  1  0
 23 21  1  0
 23 24  1  0
 25 19  1  0
 26 25  2  0
 27 23  2  0
M  END
$$$$
