AQY.pdb
     RDKit          3D

 27 27  0  0  1  0  0  0  0  0999 V2000
   28.4401  -17.4256  -15.0030 C   0  0  0  0  0  0  0  0  0  0  0  0
   27.8071  -18.5869  -15.7345 C   0  0  2  0  0  0  0  0  0  0  0  0
   27.3751  -18.1301  -17.0112 N   0  0  0  0  0  0  0  0  0  0  0  0
   26.7171  -19.2003  -14.9319 C   0  0  0  0  0  0  0  0  0  0  0  0
   25.7185  -18.5328  -14.5592 O   0  0  0  0  0  0  0  0  0  0  0  0
   25.0060  -25.2267  -15.0819 N   0  0  0  0  0  0  0  0  0  0  0  0
   24.3492  -24.7589  -13.9379 C   0  0  0  0  0  0  0  0  0  0  0  0
   23.5705  -25.4806  -13.3011 O   0  0  0  0  0  0  0  0  0  0  0  0
   24.5655  -23.3565  -13.4372 C   0  0  0  0  0  0  0  0  0  0  0  0
   25.5556  -22.6284  -14.2971 C   0  0  0  0  0  0  0  0  0  0  0  0
   25.8261  -21.2690  -13.7639 C   0  0  2  0  0  0  0  0  0  0  0  0
   26.8018  -20.5519  -14.5815 N   0  0  0  0  0  0  0  0  0  0  0  0
   26.4046  -21.3318  -12.4044 C   0  0  0  0  0  0  0  0  0  0  0  0
   27.6278  -21.5528  -12.1595 O   0  0  0  0  0  0  0  0  0  0  0  0
   28.8453  -19.1914   -4.4580 O   0  0  0  0  0  0  0  0  0  0  0  0
   28.4418  -19.4040   -5.7777 C   0  0  0  0  0  0  0  0  0  0  0  0
   27.4000  -18.6863   -6.3252 C   0  0  0  0  0  0  0  0  0  0  0  0
   27.0108  -18.9041   -7.6276 C   0  0  0  0  0  0  0  0  0  0  0  0
   27.6395  -19.8464   -8.4482 C   0  0  0  0  0  0  0  0  0  0  0  0
   27.1617  -20.0354   -9.8314 C   0  0  0  0  0  0  0  0  0  0  0  0
   26.1003  -21.1048   -9.8951 C   0  0  2  0  0  0  0  0  0  0  0  0
   25.5790  -21.1383  -11.2466 N   0  0  0  0  0  0  0  0  0  0  0  0
   24.9567  -20.8201   -9.0035 C   0  0  0  0  0  0  0  0  0  0  0  0
   24.9367  -21.1713   -7.6550 O   0  0  0  0  0  0  0  0  0  0  0  0
   28.6784  -20.5561   -7.8877 C   0  0  0  0  0  0  0  0  0  0  0  0
   29.0700  -20.3352   -6.5740 C   0  0  0  0  0  0  0  0  0  0  0  0
   23.9417  -20.2376   -9.4457 O   0  0  0  0  0  0  0  0  0  0  0  0
  2  1  1  1
  2  3  1  0
  4  5  2  0
  4  2  1  0
  7  6  1  0
  7  9  1  0
  8  7  2  0
 11 10  1  6
 10  9  1  0
 11 12  1  0
 12  4  1  0
 13 11  1  0
 13 14  2  0
 15 16  1  0
 16 17  2  0
 16 26  1  0
 17 18  1  0
 18 19  2  0
 19 20  1  0
 21 20  1  6
 21 22  1  0
 22 13  1  0
 23 21  1  0
 23 24  1  0
 25 19  1  0
 26 25  2  0
 27 23  2  0
M  END
$$$$
