AQY.pdb
     RDKit          3D

 27 27  0  0  1  0  0  0  0  0999 V2000
   25.5776  -32.7339  -10.4391 C   0  0  0  0  0  0  0  0  0  0  0  0
   26.2927  -33.7948   -9.6342 C   0  0  2  0  0  0  0  0  0  0  0  0
   25.4713  -34.9562   -9.5944 N   0  0  0  0  0  0  0  0  0  0  0  0
   26.6614  -33.2912   -8.2855 C   0  0  0  0  0  0  0  0  0  0  0  0
   27.4482  -32.3213   -8.1375 O   0  0  0  0  0  0  0  0  0  0  0  0
   23.2536  -33.0694   -3.1608 N   0  0  0  0  0  0  0  0  0  0  0  0
   24.5451  -33.0566   -2.6216 C   0  0  0  0  0  0  0  0  0  0  0  0
   24.7574  -32.6666   -1.4659 O   0  0  0  0  0  0  0  0  0  0  0  0
   25.7281  -33.5179   -3.4290 C   0  0  0  0  0  0  0  0  0  0  0  0
   25.3312  -33.7952   -4.8487 C   0  0  0  0  0  0  0  0  0  0  0  0
   26.4751  -33.5854   -5.7723 C   0  0  2  0  0  0  0  0  0  0  0  0
   26.1219  -33.9092   -7.1525 N   0  0  0  0  0  0  0  0  0  0  0  0
   27.6113  -34.4667   -5.4272 C   0  0  0  0  0  0  0  0  0  0  0  0
   27.6952  -35.6858   -5.7615 O   0  0  0  0  0  0  0  0  0  0  0  0
   35.8123  -36.8183   -3.1042 O   0  0  0  0  0  0  0  0  0  0  0  0
   34.6571  -36.1115   -3.4442 C   0  0  0  0  0  0  0  0  0  0  0  0
   34.1216  -36.1952   -4.7117 C   0  0  0  0  0  0  0  0  0  0  0  0
   32.9821  -35.4941   -5.0357 C   0  0  0  0  0  0  0  0  0  0  0  0
   32.3203  -34.6758   -4.1144 C   0  0  0  0  0  0  0  0  0  0  0  0
   31.1100  -33.9438   -4.5346 C   0  0  0  0  0  0  0  0  0  0  0  0
   29.8717  -34.7762   -4.3156 C   0  0  2  0  0  0  0  0  0  0  0  0
   28.7213  -33.9682   -4.6662 N   0  0  0  0  0  0  0  0  0  0  0  0
   29.7000  -35.1730   -2.9025 C   0  0  0  0  0  0  0  0  0  0  0  0
   30.1948  -36.3670   -2.3813 O   0  0  0  0  0  0  0  0  0  0  0  0
   32.8668  -34.6015   -2.8522 C   0  0  0  0  0  0  0  0  0  0  0  0
   34.0161  -35.3094   -2.5268 C   0  0  0  0  0  0  0  0  0  0  0  0
   29.0867  -34.4265   -2.1077 O   0  0  0  0  0  0  0  0  0  0  0  0
  2  1  1  1
  2  3  1  0
  4  5  2  0
  4  2  1  0
  7  6  1  0
  7  9  1  0
  8  7  2  0
 11 10  1  1
 10  9  1  0
 11 12  1  0
 12  4  1  0
 13 11  1  0
 13 14  2  0
 15 16  1  0
 16 17  2  0
 16 26  1  0
 17 18  1  0
 18 19  2  0
 19 20  1  0
 21 20  1  1
 21 22  1  0
 22 13  1  0
 23 21  1  0
 23 24  1  0
 25 19  1  0
 26 25  2  0
 27 23  2  0
M  END
$$$$
