AQY.pdb
     RDKit          3D

 27 27  0  0  1  0  0  0  0  0999 V2000
   18.0058  -21.8965  -11.7224 C   0  0  0  0  0  0  0  0  0  0  0  0
   18.3634  -23.2432  -12.3079 C   0  0  2  0  0  0  0  0  0  0  0  0
   17.7846  -23.3357  -13.6047 N   0  0  0  0  0  0  0  0  0  0  0  0
   17.9554  -24.3499  -11.4038 C   0  0  0  0  0  0  0  0  0  0  0  0
   16.7449  -24.5893  -11.1612 O   0  0  0  0  0  0  0  0  0  0  0  0
   22.0851  -28.7930   -9.6507 N   0  0  0  0  0  0  0  0  0  0  0  0
   21.2609  -28.8964  -10.7772 C   0  0  0  0  0  0  0  0  0  0  0  0
   21.5229  -29.6816  -11.6977 O   0  0  0  0  0  0  0  0  0  0  0  0
   20.0212  -28.0543  -10.9120 C   0  0  0  0  0  0  0  0  0  0  0  0
   19.8729  -27.1293   -9.7405 C   0  0  0  0  0  0  0  0  0  0  0  0
   18.6803  -26.2583   -9.8971 C   0  0  2  0  0  0  0  0  0  0  0  0
   18.9395  -25.1454  -10.8076 N   0  0  0  0  0  0  0  0  0  0  0  0
   18.2910  -25.6458   -8.6087 C   0  0  0  0  0  0  0  0  0  0  0  0
   18.6192  -24.4768   -8.2469 O   0  0  0  0  0  0  0  0  0  0  0  0
   13.0551  -23.4472   -1.9870 O   0  0  0  0  0  0  0  0  0  0  0  0
   13.7181  -23.8206   -3.1578 C   0  0  0  0  0  0  0  0  0  0  0  0
   13.4211  -25.0073   -3.7933 C   0  0  0  0  0  0  0  0  0  0  0  0
   14.0810  -25.3653   -4.9473 C   0  0  0  0  0  0  0  0  0  0  0  0
   15.0682  -24.5599   -5.5246 C   0  0  0  0  0  0  0  0  0  0  0  0
   15.7428  -25.0124   -6.7564 C   0  0  0  0  0  0  0  0  0  0  0  0
   16.9928  -25.7915   -6.4329 C   0  0  2  0  0  0  0  0  0  0  0  0
   17.4903  -26.3711   -7.6641 N   0  0  0  0  0  0  0  0  0  0  0  0
   16.7355  -26.9136   -5.5063 C   0  0  0  0  0  0  0  0  0  0  0  0
   16.8511  -26.8000   -4.1221 O   0  0  0  0  0  0  0  0  0  0  0  0
   15.3545  -23.3775   -4.8786 C   0  0  0  0  0  0  0  0  0  0  0  0
   14.6880  -23.0177   -3.7149 C   0  0  0  0  0  0  0  0  0  0  0  0
   16.3961  -28.0330   -5.9500 O   0  0  0  0  0  0  0  0  0  0  0  0
  2  1  1  1
  2  3  1  0
  4  5  2  0
  4  2  1  0
  7  6  1  0
  7  9  1  0
  8  7  2  0
 11 10  1  1
 10  9  1  0
 11 12  1  0
 12  4  1  0
 13 11  1  0
 13 14  2  0
 15 16  1  0
 16 17  2  0
 16 26  1  0
 17 18  1  0
 18 19  2  0
 19 20  1  0
 21 20  1  6
 21 22  1  0
 22 13  1  0
 23 21  1  0
 23 24  1  0
 25 19  1  0
 26 25  2  0
 27 23  2  0
M  END
$$$$
