AQY.pdb
     RDKit          3D

 27 27  0  0  1  0  0  0  0  0999 V2000
   19.2523  -15.4896  -18.8041 C   0  0  0  0  0  0  0  0  0  0  0  0
   20.2160  -14.6671  -17.9799 C   0  0  2  0  0  0  0  0  0  0  0  0
   20.3285  -15.2652  -16.6935 N   0  0  0  0  0  0  0  0  0  0  0  0
   19.8010  -13.2410  -17.9288 C   0  0  0  0  0  0  0  0  0  0  0  0
   20.2131  -12.4050  -18.7732 O   0  0  0  0  0  0  0  0  0  0  0  0
   14.2829  -11.6355  -15.6816 N   0  0  0  0  0  0  0  0  0  0  0  0
   14.6418  -12.0841  -16.9579 C   0  0  0  0  0  0  0  0  0  0  0  0
   13.7965  -12.5252  -17.7475 O   0  0  0  0  0  0  0  0  0  0  0  0
   16.0734  -12.0471  -17.4196 C   0  0  0  0  0  0  0  0  0  0  0  0
   16.9660  -11.4900  -16.3506 C   0  0  0  0  0  0  0  0  0  0  0  0
   18.3822  -11.4680  -16.7971 C   0  0  2  0  0  0  0  0  0  0  0  0
   18.9317  -12.8163  -16.9186 N   0  0  0  0  0  0  0  0  0  0  0  0
   19.2417  -10.7667  -15.8192 C   0  0  0  0  0  0  0  0  0  0  0  0
   19.6900  -11.2930  -14.7575 O   0  0  0  0  0  0  0  0  0  0  0  0
   22.2250   -2.5743  -14.1615 O   0  0  0  0  0  0  0  0  0  0  0  0
   22.0645   -3.9040  -14.5561 C   0  0  0  0  0  0  0  0  0  0  0  0
   21.4917   -4.2195  -15.7696 C   0  0  0  0  0  0  0  0  0  0  0  0
   21.3386   -5.5341  -16.1486 C   0  0  0  0  0  0  0  0  0  0  0  0
   21.7481   -6.5983  -15.3384 C   0  0  0  0  0  0  0  0  0  0  0  0
   21.5420   -7.9833  -15.8036 C   0  0  0  0  0  0  0  0  0  0  0  0
   20.3974   -8.6353  -15.0695 C   0  0  2  0  0  0  0  0  0  0  0  0
   19.6277   -9.4006  -16.0293 N   0  0  0  0  0  0  0  0  0  0  0  0
   19.4740   -7.6484  -14.4716 C   0  0  0  0  0  0  0  0  0  0  0  0
   18.4339   -7.0513  -15.1815 O   0  0  0  0  0  0  0  0  0  0  0  0
   22.3183   -6.2680  -14.1289 C   0  0  0  0  0  0  0  0  0  0  0  0
   22.4722   -4.9417  -13.7481 C   0  0  0  0  0  0  0  0  0  0  0  0
   19.6021   -7.3092  -13.2743 O   0  0  0  0  0  0  0  0  0  0  0  0
  2  1  1  6
  2  3  1  0
  4  5  2  0
  4  2  1  0
  7  6  1  0
  7  9  1  0
  8  7  2  0
 11 10  1  1
 10  9  1  0
 11 12  1  0
 12  4  1  0
 13 11  1  0
 13 14  2  0
 15 16  1  0
 16 17  2  0
 16 26  1  0
 17 18  1  0
 18 19  2  0
 19 20  1  0
 21 20  1  6
 21 22  1  0
 22 13  1  0
 23 21  1  0
 23 24  1  0
 25 19  1  0
 26 25  2  0
 27 23  2  0
M  END
$$$$
