AQY.pdb
     RDKit          3D

 27 27  0  0  1  0  0  0  0  0999 V2000
   20.5914  -13.7461  -20.9059 C   0  0  0  0  0  0  0  0  0  0  0  0
   21.1173  -13.2072  -19.5953 C   0  0  2  0  0  0  0  0  0  0  0  0
   21.2668  -14.2959  -18.6911 N   0  0  0  0  0  0  0  0  0  0  0  0
   20.2465  -12.1239  -19.0693 C   0  0  0  0  0  0  0  0  0  0  0  0
   20.0721  -11.0526  -19.7047 O   0  0  0  0  0  0  0  0  0  0  0  0
   15.7407  -13.0050  -14.6796 N   0  0  0  0  0  0  0  0  0  0  0  0
   15.7837  -11.6138  -14.8272 C   0  0  0  0  0  0  0  0  0  0  0  0
   14.9314  -10.8835  -14.3049 O   0  0  0  0  0  0  0  0  0  0  0  0
   16.8711  -10.9515  -15.6290 C   0  0  0  0  0  0  0  0  0  0  0  0
   17.7061  -11.9723  -16.3435 C   0  0  0  0  0  0  0  0  0  0  0  0
   18.7223  -11.3191  -17.2074 C   0  0  2  0  0  0  0  0  0  0  0  0
   19.6047  -12.2977  -17.8387 N   0  0  0  0  0  0  0  0  0  0  0  0
   19.6021  -10.4284  -16.4204 C   0  0  0  0  0  0  0  0  0  0  0  0
   20.4203  -10.8301  -15.5405 O   0  0  0  0  0  0  0  0  0  0  0  0
   21.7830   -2.0676  -14.1409 O   0  0  0  0  0  0  0  0  0  0  0  0
   21.5742   -3.2930  -14.7770 C   0  0  0  0  0  0  0  0  0  0  0  0
   22.5680   -4.2472  -14.8221 C   0  0  0  0  0  0  0  0  0  0  0  0
   22.3509   -5.4520  -15.4518 C   0  0  0  0  0  0  0  0  0  0  0  0
   21.1345   -5.7655  -16.0671 C   0  0  0  0  0  0  0  0  0  0  0  0
   20.9762   -7.0721  -16.7341 C   0  0  0  0  0  0  0  0  0  0  0  0
   20.3339   -8.0761  -15.8102 C   0  0  2  0  0  0  0  0  0  0  0  0
   19.5742   -9.0074  -16.6196 N   0  0  0  0  0  0  0  0  0  0  0  0
   19.3800   -7.4505  -14.8708 C   0  0  0  0  0  0  0  0  0  0  0  0
   19.7568   -6.9413  -13.6294 O   0  0  0  0  0  0  0  0  0  0  0  0
   20.1510   -4.8026  -16.0145 C   0  0  0  0  0  0  0  0  0  0  0  0
   20.3714   -3.5879  -15.3788 C   0  0  0  0  0  0  0  0  0  0  0  0
   18.1691   -7.3562  -15.1707 O   0  0  0  0  0  0  0  0  0  0  0  0
  2  1  1  6
  2  3  1  0
  4  5  2  0
  4  2  1  0
  7  6  1  0
  7  9  1  0
  8  7  2  0
 11 10  1  1
 10  9  1  0
 11 12  1  0
 12  4  1  0
 13 11  1  0
 13 14  2  0
 15 16  1  0
 16 17  2  0
 16 26  1  0
 17 18  1  0
 18 19  2  0
 19 20  1  0
 21 20  1  6
 21 22  1  0
 22 13  1  0
 23 21  1  0
 23 24  1  0
 25 19  1  0
 26 25  2  0
 27 23  2  0
M  END
$$$$
