AQY.pdb
     RDKit          3D

 27 27  0  0  1  0  0  0  0  0999 V2000
   23.2033  -17.6035  -19.1389 C   0  0  0  0  0  0  0  0  0  0  0  0
   22.9930  -18.0528  -17.7112 C   0  0  2  0  0  0  0  0  0  0  0  0
   23.7066  -17.1691  -16.8539 N   0  0  0  0  0  0  0  0  0  0  0  0
   23.3746  -19.4780  -17.5326 C   0  0  0  0  0  0  0  0  0  0  0  0
   22.7422  -20.4049  -18.1005 O   0  0  0  0  0  0  0  0  0  0  0  0
   29.1164  -21.6985  -17.0462 N   0  0  0  0  0  0  0  0  0  0  0  0
   28.3872  -22.7432  -16.4666 C   0  0  0  0  0  0  0  0  0  0  0  0
   28.9373  -23.7942  -16.1122 O   0  0  0  0  0  0  0  0  0  0  0  0
   26.9024  -22.6278  -16.2517 C   0  0  0  0  0  0  0  0  0  0  0  0
   26.4190  -21.2482  -16.5877 C   0  0  0  0  0  0  0  0  0  0  0  0
   24.9435  -21.1525  -16.4498 C   0  0  2  0  0  0  0  0  0  0  0  0
   24.4626  -19.7983  -16.7138 N   0  0  0  0  0  0  0  0  0  0  0  0
   24.5118  -21.4745  -15.0725 C   0  0  0  0  0  0  0  0  0  0  0  0
   24.6173  -22.6200  -14.5417 O   0  0  0  0  0  0  0  0  0  0  0  0
   29.7237  -21.2578  -11.3922 O   0  0  0  0  0  0  0  0  0  0  0  0
   28.3815  -20.8982  -11.5288 C   0  0  0  0  0  0  0  0  0  0  0  0
   27.9902  -19.9575  -12.4573 C   0  0  0  0  0  0  0  0  0  0  0  0
   26.6639  -19.6107  -12.5835 C   0  0  0  0  0  0  0  0  0  0  0  0
   25.6629  -20.1832  -11.7918 C   0  0  0  0  0  0  0  0  0  0  0  0
   24.2626  -19.7549  -11.9735 C   0  0  0  0  0  0  0  0  0  0  0  0
   23.5156  -20.7140  -12.8657 C   0  0  2  0  0  0  0  0  0  0  0  0
   23.9282  -20.4677  -14.2327 N   0  0  0  0  0  0  0  0  0  0  0  0
   22.0530  -20.5081  -12.8177 C   0  0  0  0  0  0  0  0  0  0  0  0
   21.2776  -20.8108  -11.6999 O   0  0  0  0  0  0  0  0  0  0  0  0
   26.0686  -21.1212  -10.8684 C   0  0  0  0  0  0  0  0  0  0  0  0
   27.4066  -21.4701  -10.7424 C   0  0  0  0  0  0  0  0  0  0  0  0
   21.4486  -20.0419  -13.8089 O   0  0  0  0  0  0  0  0  0  0  0  0
  2  1  1  6
  2  3  1  0
  4  5  2  0
  4  2  1  0
  7  6  1  0
  7  9  1  0
  8  7  2  0
 11 10  1  1
 10  9  1  0
 11 12  1  0
 12  4  1  0
 13 11  1  0
 13 14  2  0
 15 16  1  0
 16 17  2  0
 16 26  1  0
 17 18  1  0
 18 19  2  0
 19 20  1  0
 21 20  1  1
 21 22  1  0
 22 13  1  0
 23 21  1  0
 23 24  1  0
 25 19  1  0
 26 25  2  0
 27 23  2  0
M  END
$$$$
