AQY.pdb
     RDKit          3D

 27 27  0  0  1  0  0  0  0  0999 V2000
   19.4016  -14.8145  -17.9089 C   0  0  0  0  0  0  0  0  0  0  0  0
   18.9943  -13.9991  -16.7032 C   0  0  2  0  0  0  0  0  0  0  0  0
   17.5845  -14.1098  -16.5432 N   0  0  0  0  0  0  0  0  0  0  0  0
   19.4623  -12.5935  -16.8197 C   0  0  0  0  0  0  0  0  0  0  0  0
   20.6811  -12.2962  -16.7324 O   0  0  0  0  0  0  0  0  0  0  0  0
   17.6318   -8.1989  -20.4419 N   0  0  0  0  0  0  0  0  0  0  0  0
   18.0138   -7.3856  -19.3688 C   0  0  0  0  0  0  0  0  0  0  0  0
   18.2372   -6.1777  -19.5230 O   0  0  0  0  0  0  0  0  0  0  0  0
   18.1679   -7.9507  -17.9828 C   0  0  0  0  0  0  0  0  0  0  0  0
   17.8731   -9.4214  -17.9691 C   0  0  0  0  0  0  0  0  0  0  0  0
   18.8410  -10.1507  -17.1108 C   0  0  2  0  0  0  0  0  0  0  0  0
   18.5267  -11.5753  -17.0315 N   0  0  0  0  0  0  0  0  0  0  0  0
   18.8071   -9.6501  -15.7197 C   0  0  0  0  0  0  0  0  0  0  0  0
   17.9716  -10.0288  -14.8458 O   0  0  0  0  0  0  0  0  0  0  0  0
   24.0607   -4.1776  -16.4904 O   0  0  0  0  0  0  0  0  0  0  0  0
   23.3820   -5.1604  -15.7672 C   0  0  0  0  0  0  0  0  0  0  0  0
   22.6642   -4.8393  -14.6351 C   0  0  0  0  0  0  0  0  0  0  0  0
   21.9987   -5.8166  -13.9299 C   0  0  0  0  0  0  0  0  0  0  0  0
   22.0153   -7.1606  -14.3171 C   0  0  0  0  0  0  0  0  0  0  0  0
   21.2887   -8.1566  -13.5065 C   0  0  0  0  0  0  0  0  0  0  0  0
   19.8332   -8.2130  -13.8969 C   0  0  2  0  0  0  0  0  0  0  0  0
   19.7551   -8.6714  -15.2692 N   0  0  0  0  0  0  0  0  0  0  0  0
   19.1843   -6.8860  -13.8527 C   0  0  0  0  0  0  0  0  0  0  0  0
   18.8414   -6.2453  -12.6635 O   0  0  0  0  0  0  0  0  0  0  0  0
   22.7368   -7.4666  -15.4499 C   0  0  0  0  0  0  0  0  0  0  0  0
   23.4073   -6.4798  -16.1602 C   0  0  0  0  0  0  0  0  0  0  0  0
   18.9151   -6.2796  -14.9133 O   0  0  0  0  0  0  0  0  0  0  0  0
  2  1  1  6
  2  3  1  0
  4  5  2  0
  4  2  1  0
  7  6  1  0
  7  9  1  0
  8  7  2  0
 11 10  1  6
 10  9  1  0
 11 12  1  0
 12  4  1  0
 13 11  1  0
 13 14  2  0
 15 16  1  0
 16 17  2  0
 16 26  1  0
 17 18  1  0
 18 19  2  0
 19 20  1  0
 21 20  1  6
 21 22  1  0
 22 13  1  0
 23 21  1  0
 23 24  1  0
 25 19  1  0
 26 25  2  0
 27 23  2  0
M  END
$$$$
