AQY.pdb
     RDKit          3D

 27 27  0  0  1  0  0  0  0  0999 V2000
   29.5228  -18.5304  -14.3073 C   0  0  0  0  0  0  0  0  0  0  0  0
   28.2346  -18.7505  -15.0666 C   0  0  2  0  0  0  0  0  0  0  0  0
   27.9121  -17.5498  -15.7590 N   0  0  0  0  0  0  0  0  0  0  0  0
   27.1495  -19.2160  -14.1641 C   0  0  0  0  0  0  0  0  0  0  0  0
   26.4483  -18.4059  -13.5055 O   0  0  0  0  0  0  0  0  0  0  0  0
   24.6494  -25.0764  -14.4193 N   0  0  0  0  0  0  0  0  0  0  0  0
   23.9225  -24.4420  -13.4052 C   0  0  0  0  0  0  0  0  0  0  0  0
   22.9735  -25.0048  -12.8437 O   0  0  0  0  0  0  0  0  0  0  0  0
   24.2683  -23.0476  -12.9581 C   0  0  0  0  0  0  0  0  0  0  0  0
   25.4395  -22.5139  -13.7284 C   0  0  0  0  0  0  0  0  0  0  0  0
   25.8466  -21.1786  -13.2216 C   0  0  2  0  0  0  0  0  0  0  0  0
   26.9005  -20.5871  -14.0427 N   0  0  0  0  0  0  0  0  0  0  0  0
   26.4019  -21.2707  -11.8542 C   0  0  0  0  0  0  0  0  0  0  0  0
   27.6226  -21.4873  -11.5934 O   0  0  0  0  0  0  0  0  0  0  0  0
   28.8201  -19.5293   -3.8112 O   0  0  0  0  0  0  0  0  0  0  0  0
   28.4039  -19.6641   -5.1372 C   0  0  0  0  0  0  0  0  0  0  0  0
   27.5071  -18.7768   -5.6928 C   0  0  0  0  0  0  0  0  0  0  0  0
   27.1039  -18.9192   -7.0013 C   0  0  0  0  0  0  0  0  0  0  0  0
   27.5734  -19.9513   -7.8203 C   0  0  0  0  0  0  0  0  0  0  0  0
   27.0888  -20.0499   -9.2105 C   0  0  0  0  0  0  0  0  0  0  0  0
   26.0489  -21.1338   -9.3447 C   0  0  2  0  0  0  0  0  0  0  0  0
   25.5546  -21.1138  -10.7066 N   0  0  0  0  0  0  0  0  0  0  0  0
   24.8832  -20.9109   -8.4642 C   0  0  0  0  0  0  0  0  0  0  0  0
   24.8054  -21.4060   -7.1638 O   0  0  0  0  0  0  0  0  0  0  0  0
   28.4686  -20.8303   -7.2517 C   0  0  0  0  0  0  0  0  0  0  0  0
   28.8745  -20.6853   -5.9318 C   0  0  0  0  0  0  0  0  0  0  0  0
   23.9016  -20.2512   -8.8720 O   0  0  0  0  0  0  0  0  0  0  0  0
  2  1  1  1
  2  3  1  0
  4  5  2  0
  4  2  1  0
  7  6  1  0
  7  9  1  0
  8  7  2  0
 11 10  1  6
 10  9  1  0
 11 12  1  0
 12  4  1  0
 13 11  1  0
 13 14  2  0
 15 16  1  0
 16 17  2  0
 16 26  1  0
 17 18  1  0
 18 19  2  0
 19 20  1  0
 21 20  1  6
 21 22  1  0
 22 13  1  0
 23 21  1  0
 23 24  1  0
 25 19  1  0
 26 25  2  0
 27 23  2  0
M  END
$$$$
