AQY.pdb
     RDKit          3D

 27 27  0  0  1  0  0  0  0  0999 V2000
   19.4011  -13.0122  -18.8812 C   0  0  0  0  0  0  0  0  0  0  0  0
   20.3060  -12.4049  -17.8339 C   0  0  2  0  0  0  0  0  0  0  0  0
   20.0949  -13.0930  -16.6062 N   0  0  0  0  0  0  0  0  0  0  0  0
   20.0976  -10.9374  -17.7264 C   0  0  0  0  0  0  0  0  0  0  0  0
   20.3614  -10.1635  -18.6820 O   0  0  0  0  0  0  0  0  0  0  0  0
   15.3289   -8.0155  -16.0542 N   0  0  0  0  0  0  0  0  0  0  0  0
   16.2259   -7.0474  -15.5881 C   0  0  0  0  0  0  0  0  0  0  0  0
   15.8528   -5.8969  -15.3239 O   0  0  0  0  0  0  0  0  0  0  0  0
   17.6823   -7.3697  -15.3901 C   0  0  0  0  0  0  0  0  0  0  0  0
   17.9540   -8.8164  -15.6787 C   0  0  0  0  0  0  0  0  0  0  0  0
   19.2840   -8.9918  -16.3156 C   0  0  2  0  0  0  0  0  0  0  0  0
   19.5964  -10.4021  -16.5352 N   0  0  0  0  0  0  0  0  0  0  0  0
   20.3647   -8.4669  -15.4533 C   0  0  0  0  0  0  0  0  0  0  0  0
   20.7456   -9.0130  -14.3754 O   0  0  0  0  0  0  0  0  0  0  0  0
   25.6591  -10.8925  -18.3365 O   0  0  0  0  0  0  0  0  0  0  0  0
   25.0659   -9.7633  -17.7684 C   0  0  0  0  0  0  0  0  0  0  0  0
   25.2633   -9.4506  -16.4405 C   0  0  0  0  0  0  0  0  0  0  0  0
   24.6736   -8.3346  -15.8910 C   0  0  0  0  0  0  0  0  0  0  0  0
   23.8589   -7.4758  -16.6363 C   0  0  0  0  0  0  0  0  0  0  0  0
   23.2496   -6.3040  -15.9786 C   0  0  0  0  0  0  0  0  0  0  0  0
   22.1602   -6.7253  -15.0248 C   0  0  2  0  0  0  0  0  0  0  0  0
   21.0655   -7.2652  -15.8056 N   0  0  0  0  0  0  0  0  0  0  0  0
   21.6143   -5.5895  -14.2529 C   0  0  0  0  0  0  0  0  0  0  0  0
   20.3114   -5.1196  -14.4078 O   0  0  0  0  0  0  0  0  0  0  0  0
   23.6704   -7.8010  -17.9614 C   0  0  0  0  0  0  0  0  0  0  0  0
   24.2660   -8.9268  -18.5143 C   0  0  0  0  0  0  0  0  0  0  0  0
   22.3267   -4.9978  -13.4118 O   0  0  0  0  0  0  0  0  0  0  0  0
  2  1  1  6
  2  3  1  0
  4  5  2  0
  4  2  1  0
  7  6  1  0
  7  9  1  0
  8  7  2  0
 11 10  1  1
 10  9  1  0
 11 12  1  0
 12  4  1  0
 13 11  1  0
 13 14  2  0
 15 16  1  0
 16 17  2  0
 16 26  1  0
 17 18  1  0
 18 19  2  0
 19 20  1  0
 21 20  1  6
 21 22  1  0
 22 13  1  0
 23 21  1  0
 23 24  1  0
 25 19  1  0
 26 25  2  0
 27 23  2  0
M  END
$$$$
