SKE.pdb
     RDKit          3D

 25 24  0  0  1  0  0  0  0  0999 V2000
   28.4945  -21.3184  -17.9008 O   0  0  0  0  0  0  0  0  0  0  0  0
   27.3263  -20.7019  -17.4528 C   0  0  0  0  0  0  0  0  0  0  0  0
   27.2027  -20.7711  -15.9473 C   0  0  2  0  0  0  0  0  0  0  0  0
   27.1884  -22.1286  -15.4401 N   0  0  0  0  0  0  0  0  0  0  0  0
   25.9503  -20.0762  -15.5537 C   0  0  0  0  0  0  0  0  0  0  0  0
   25.6040  -20.1561  -14.3257 O   0  0  0  0  0  0  0  0  0  0  0  0
   25.1547  -19.3513  -16.4666 N   0  0  0  0  0  0  0  0  0  0  0  0
   24.0327  -18.6014  -16.0020 C   0  0  1  0  0  0  0  0  0  0  0  0
   23.8800  -17.2741  -16.7231 C   0  0  0  0  0  0  0  0  0  0  0  0
   22.7317  -16.4746  -16.1460 C   0  0  0  0  0  0  0  0  0  0  0  0
   22.6608  -15.1641  -16.8995 C   0  0  0  0  0  0  0  0  0  0  0  0
   21.6321  -14.2923  -16.1796 C   0  0  0  0  0  0  0  0  0  0  0  0
   21.4843  -13.0509  -16.8811 N   0  0  0  0  0  0  0  0  0  0  0  0
   22.7800  -19.3911  -16.1568 C   0  0  0  0  0  0  0  0  0  0  0  0
   22.6130  -20.0495  -17.1989 O   0  0  0  0  0  0  0  0  0  0  0  0
   21.8062  -19.3976  -15.1560 N   0  0  0  0  0  0  0  0  0  0  0  0
   20.6177  -20.2705  -15.3345 C   0  0  1  0  0  0  0  0  0  0  0  0
   20.3651  -20.8774  -13.9980 C   0  0  0  0  0  0  0  0  0  0  0  0
   19.1498  -21.6800  -13.7992 C   0  0  0  0  0  0  0  0  0  0  0  0
   18.9235  -22.3059  -12.5150 C   0  0  0  0  0  0  0  0  0  0  0  0
   19.7498  -22.1623  -11.5460 O   0  0  0  0  0  0  0  0  0  0  0  0
   19.5652  -19.3471  -15.7967 C   0  0  0  0  0  0  0  0  0  0  0  0
   19.4484  -18.1708  -15.3994 O   0  0  0  0  0  0  0  0  0  0  0  0
   17.8146  -23.0999  -12.2171 O   0  0  0  0  0  0  0  0  0  0  0  0
   18.6067  -19.7501  -16.7374 O   0  0  0  0  0  0  0  0  0  0  0  0
  1  2  1  0
  3  5  1  0
  3  2  1  0
  3  4  1  6
  5  6  2  0
  7  5  1  0
  8  7  1  0
  8  9  1  6
 10  9  1  0
 11 10  1  0
 12 11  1  0
 13 12  1  0
 14  8  1  0
 15 14  2  0
 16 14  1  0
 17 16  1  0
 17 22  1  0
 17 18  1  1
 19 18  1  0
 20 19  1  0
 20 24  1  0
 21 20  2  0
 22 25  1  0
 23 22  2  0
M  END
$$$$
