SKE.pdb
     RDKit          3D

 25 24  0  0  1  0  0  0  0  0999 V2000
   19.1522   -8.8176  -13.5046 O   0  0  0  0  0  0  0  0  0  0  0  0
   19.1489   -9.7792  -12.4943 C   0  0  0  0  0  0  0  0  0  0  0  0
   17.8178  -10.4916  -12.4084 C   0  0  2  0  0  0  0  0  0  0  0  0
   17.4045  -11.0776  -13.6677 N   0  0  0  0  0  0  0  0  0  0  0  0
   16.7979   -9.5125  -11.9529 C   0  0  0  0  0  0  0  0  0  0  0  0
   16.1474   -8.8884  -12.8594 O   0  0  0  0  0  0  0  0  0  0  0  0
   16.5323   -9.2578  -10.5904 N   0  0  0  0  0  0  0  0  0  0  0  0
   15.4517   -8.4030  -10.2180 C   0  0  1  0  0  0  0  0  0  0  0  0
   14.6316   -8.9663   -9.0712 C   0  0  0  0  0  0  0  0  0  0  0  0
   13.4150   -8.1066   -8.8035 C   0  0  0  0  0  0  0  0  0  0  0  0
   12.5750   -8.8123   -7.7612 C   0  0  0  0  0  0  0  0  0  0  0  0
   11.2752   -8.0194   -7.6262 C   0  0  0  0  0  0  0  0  0  0  0  0
   10.3908   -8.7022   -6.7280 N   0  0  0  0  0  0  0  0  0  0  0  0
   15.9613   -7.0556   -9.8414 C   0  0  0  0  0  0  0  0  0  0  0  0
   16.8944   -6.9765   -9.0226 O   0  0  0  0  0  0  0  0  0  0  0  0
   15.4076   -5.8981  -10.3924 N   0  0  0  0  0  0  0  0  0  0  0  0
   15.9658   -4.5846   -9.9804 C   0  0  1  0  0  0  0  0  0  0  0  0
   16.4046   -3.9253  -11.2417 C   0  0  0  0  0  0  0  0  0  0  0  0
   16.9136   -2.5474  -11.1845 C   0  0  0  0  0  0  0  0  0  0  0  0
   17.4159   -1.9333  -12.3940 C   0  0  0  0  0  0  0  0  0  0  0  0
   17.4120   -2.5581  -13.5128 O   0  0  0  0  0  0  0  0  0  0  0  0
   14.8400   -3.9180   -9.3004 C   0  0  0  0  0  0  0  0  0  0  0  0
   13.6453   -4.2411   -9.4535 O   0  0  0  0  0  0  0  0  0  0  0  0
   17.9346   -0.6387  -12.4558 O   0  0  0  0  0  0  0  0  0  0  0  0
   15.0541   -2.8511   -8.4162 O   0  0  0  0  0  0  0  0  0  0  0  0
  1  2  1  0
  3  5  1  0
  3  2  1  0
  3  4  1  6
  5  6  2  0
  7  5  1  0
  8  7  1  0
  8  9  1  1
 10  9  1  0
 11 10  1  0
 12 11  1  0
 13 12  1  0
 14  8  1  0
 15 14  2  0
 16 14  1  0
 17 16  1  0
 17 22  1  0
 17 18  1  6
 19 18  1  0
 20 19  1  0
 20 24  1  0
 21 20  2  0
 22 25  1  0
 23 22  2  0
M  END
$$$$
