SKE.pdb
     RDKit          3D

 25 24  0  0  1  0  0  0  0  0999 V2000
   11.7532   -8.7224   -9.5594 O   0  0  0  0  0  0  0  0  0  0  0  0
   13.0487   -8.9992   -9.9958 C   0  0  0  0  0  0  0  0  0  0  0  0
   13.0499   -9.9710  -11.1543 C   0  0  2  0  0  0  0  0  0  0  0  0
   12.8652  -11.3478  -10.7415 N   0  0  0  0  0  0  0  0  0  0  0  0
   14.3426   -9.8327  -11.8727 C   0  0  0  0  0  0  0  0  0  0  0  0
   15.4002  -10.1556  -11.2311 O   0  0  0  0  0  0  0  0  0  0  0  0
   14.4365   -9.3698  -13.2027 N   0  0  0  0  0  0  0  0  0  0  0  0
   15.7052   -9.3118  -13.8539 C   0  0  1  0  0  0  0  0  0  0  0  0
   15.6149   -9.6313  -15.3354 C   0  0  0  0  0  0  0  0  0  0  0  0
   16.9891   -9.6472  -15.9695 C   0  0  0  0  0  0  0  0  0  0  0  0
   17.3548  -11.0914  -16.2356 C   0  0  0  0  0  0  0  0  0  0  0  0
   18.7600  -11.0907  -16.8372 C   0  0  0  0  0  0  0  0  0  0  0  0
   19.0957  -12.4166  -17.2669 N   0  0  0  0  0  0  0  0  0  0  0  0
   16.3181   -7.9662  -13.6785 C   0  0  0  0  0  0  0  0  0  0  0  0
   15.5801   -6.9651  -13.7033 O   0  0  0  0  0  0  0  0  0  0  0  0
   17.6941   -7.8224  -13.4895 N   0  0  0  0  0  0  0  0  0  0  0  0
   18.2452   -6.4515  -13.3364 C   0  0  1  0  0  0  0  0  0  0  0  0
   19.6953   -6.6349  -13.0508 C   0  0  0  0  0  0  0  0  0  0  0  0
   20.5597   -5.4488  -12.9674 C   0  0  0  0  0  0  0  0  0  0  0  0
   21.9380   -5.6113  -12.5599 C   0  0  0  0  0  0  0  0  0  0  0  0
   22.7344   -4.6105  -12.4800 O   0  0  0  0  0  0  0  0  0  0  0  0
   17.9524   -5.8049  -14.6288 C   0  0  0  0  0  0  0  0  0  0  0  0
   17.6839   -4.5936  -14.7555 O   0  0  0  0  0  0  0  0  0  0  0  0
   22.5136   -6.8374  -12.2221 O   0  0  0  0  0  0  0  0  0  0  0  0
   17.9593   -6.5360  -15.8252 O   0  0  0  0  0  0  0  0  0  0  0  0
  1  2  1  0
  3  5  1  0
  3  2  1  0
  3  4  1  1
  5  6  2  0
  7  5  1  0
  8  7  1  0
  8  9  1  6
 10  9  1  0
 11 10  1  0
 12 11  1  0
 13 12  1  0
 14  8  1  0
 15 14  2  0
 16 14  1  0
 17 16  1  0
 17 22  1  0
 17 18  1  6
 19 18  1  0
 20 19  1  0
 20 24  1  0
 21 20  2  0
 22 25  1  0
 23 22  2  0
M  END
$$$$
