SKE.pdb
     RDKit          3D

 25 24  0  0  1  0  0  0  0  0999 V2000
   17.2745  -12.1380  -10.9942 O   0  0  0  0  0  0  0  0  0  0  0  0
   17.1035  -10.7557  -11.0666 C   0  0  0  0  0  0  0  0  0  0  0  0
   15.7788  -10.3272  -10.4765 C   0  0  2  0  0  0  0  0  0  0  0  0
   14.6382  -10.8777  -11.1809 N   0  0  0  0  0  0  0  0  0  0  0  0
   15.7174   -8.8434  -10.5064 C   0  0  0  0  0  0  0  0  0  0  0  0
   15.4247   -8.2974  -11.6247 O   0  0  0  0  0  0  0  0  0  0  0  0
   15.9645   -8.0415   -9.3717 N   0  0  0  0  0  0  0  0  0  0  0  0
   15.8425   -6.6220   -9.4564 C   0  0  1  0  0  0  0  0  0  0  0  0
   15.1984   -6.0178   -8.2214 C   0  0  0  0  0  0  0  0  0  0  0  0
   13.7030   -6.2518   -8.2226 C   0  0  0  0  0  0  0  0  0  0  0  0
   13.1210   -5.5054   -7.0418 C   0  0  0  0  0  0  0  0  0  0  0  0
   11.6007   -5.6281   -7.1437 C   0  0  0  0  0  0  0  0  0  0  0  0
   10.9911   -4.9225   -6.0548 N   0  0  0  0  0  0  0  0  0  0  0  0
   17.1774   -5.9976   -9.6689 C   0  0  0  0  0  0  0  0  0  0  0  0
   18.0101   -6.0375   -8.7458 O   0  0  0  0  0  0  0  0  0  0  0  0
   17.4960   -5.3770  -10.8786 N   0  0  0  0  0  0  0  0  0  0  0  0
   18.8836   -4.8844  -11.0741 C   0  0  1  0  0  0  0  0  0  0  0  0
   19.5841   -5.9579  -11.8325 C   0  0  0  0  0  0  0  0  0  0  0  0
   20.9266   -5.6907  -12.3682 C   0  0  0  0  0  0  0  0  0  0  0  0
   21.5905   -6.7156  -13.1434 C   0  0  0  0  0  0  0  0  0  0  0  0
   22.2683   -6.4275  -14.1921 O   0  0  0  0  0  0  0  0  0  0  0  0
   18.7110   -3.6224  -11.8170 C   0  0  0  0  0  0  0  0  0  0  0  0
   19.5820   -2.7327  -11.8884 O   0  0  0  0  0  0  0  0  0  0  0  0
   21.5591   -8.0757  -12.8300 O   0  0  0  0  0  0  0  0  0  0  0  0
   17.5228   -3.3417  -12.5063 O   0  0  0  0  0  0  0  0  0  0  0  0
  1  2  1  0
  3  5  1  0
  3  2  1  0
  3  4  1  6
  5  6  2  0
  7  5  1  0
  8  7  1  0
  8  9  1  1
 10  9  1  0
 11 10  1  0
 12 11  1  0
 13 12  1  0
 14  8  1  0
 15 14  2  0
 16 14  1  0
 17 16  1  0
 17 22  1  0
 17 18  1  6
 19 18  1  0
 20 19  1  0
 20 24  1  0
 21 20  2  0
 22 25  1  0
 23 22  2  0
M  END
$$$$
