SKE.pdb
     RDKit          3D

 25 24  0  0  1  0  0  0  0  0999 V2000
   17.4622  -11.5896  -12.5690 O   0  0  0  0  0  0  0  0  0  0  0  0
   17.3028  -11.8545  -11.2089 C   0  0  0  0  0  0  0  0  0  0  0  0
   15.8676  -11.6690  -10.7703 C   0  0  2  0  0  0  0  0  0  0  0  0
   14.9208  -12.3737  -11.6112 N   0  0  0  0  0  0  0  0  0  0  0  0
   15.5641  -10.2150  -10.7838 C   0  0  0  0  0  0  0  0  0  0  0  0
   14.7729   -9.7961  -11.6965 O   0  0  0  0  0  0  0  0  0  0  0  0
   16.1058   -9.3086   -9.8475 N   0  0  0  0  0  0  0  0  0  0  0  0
   15.7668   -7.9236   -9.9112 C   0  0  1  0  0  0  0  0  0  0  0  0
   15.1272   -7.4207   -8.6295 C   0  0  0  0  0  0  0  0  0  0  0  0
   14.6586   -5.9899   -8.7846 C   0  0  0  0  0  0  0  0  0  0  0  0
   14.0285   -5.5690   -7.4747 C   0  0  0  0  0  0  0  0  0  0  0  0
   13.5468   -4.1295   -7.6552 C   0  0  0  0  0  0  0  0  0  0  0  0
   12.9241   -3.6795   -6.4448 N   0  0  0  0  0  0  0  0  0  0  0  0
   16.9749   -7.1064  -10.2104 C   0  0  0  0  0  0  0  0  0  0  0  0
   17.8660   -7.0180   -9.3469 O   0  0  0  0  0  0  0  0  0  0  0  0
   17.1125   -6.4485  -11.4344 N   0  0  0  0  0  0  0  0  0  0  0  0
   18.3281   -5.6249  -11.6593 C   0  0  1  0  0  0  0  0  0  0  0  0
   19.0852   -6.3189  -12.7379 C   0  0  0  0  0  0  0  0  0  0  0  0
   20.2158   -7.1835  -12.3704 C   0  0  0  0  0  0  0  0  0  0  0  0
   20.9333   -7.8828  -13.4136 C   0  0  0  0  0  0  0  0  0  0  0  0
   20.5374   -9.0205  -13.8508 O   0  0  0  0  0  0  0  0  0  0  0  0
   17.7961   -4.3027  -12.0376 C   0  0  0  0  0  0  0  0  0  0  0  0
   18.4912   -3.2704  -12.1177 O   0  0  0  0  0  0  0  0  0  0  0  0
   22.0895   -7.3975  -14.0273 O   0  0  0  0  0  0  0  0  0  0  0  0
   16.4382   -4.1246  -12.3380 O   0  0  0  0  0  0  0  0  0  0  0  0
  1  2  1  0
  3  5  1  0
  3  2  1  0
  3  4  1  6
  5  6  2  0
  7  5  1  0
  8  7  1  0
  8  9  1  1
 10  9  1  0
 11 10  1  0
 12 11  1  0
 13 12  1  0
 14  8  1  0
 15 14  2  0
 16 14  1  0
 17 16  1  0
 17 22  1  0
 17 18  1  6
 19 18  1  0
 20 19  1  0
 20 24  1  0
 21 20  2  0
 22 25  1  0
 23 22  2  0
M  END
$$$$
