SKE.pdb
     RDKit          3D

 25 24  0  0  1  0  0  0  0  0999 V2000
   21.5600  -27.4908  -13.6891 O   0  0  0  0  0  0  0  0  0  0  0  0
   21.4449  -27.1001  -12.3551 C   0  0  0  0  0  0  0  0  0  0  0  0
   20.3828  -27.8970  -11.6315 C   0  0  2  0  0  0  0  0  0  0  0  0
   19.8580  -28.9929  -12.4212 N   0  0  0  0  0  0  0  0  0  0  0  0
   19.2806  -26.9717  -11.2639 C   0  0  0  0  0  0  0  0  0  0  0  0
   18.3059  -26.8751  -12.0856 O   0  0  0  0  0  0  0  0  0  0  0  0
   19.2759  -26.2183  -10.0705 N   0  0  0  0  0  0  0  0  0  0  0  0
   18.2112  -25.3064   -9.8022 C   0  0  1  0  0  0  0  0  0  0  0  0
   18.1867  -24.8490   -8.3547 C   0  0  0  0  0  0  0  0  0  0  0  0
   17.7661  -25.9779   -7.4384 C   0  0  0  0  0  0  0  0  0  0  0  0
   17.7354  -25.4350   -6.0261 C   0  0  0  0  0  0  0  0  0  0  0  0
   17.2117  -26.5570   -5.1297 C   0  0  0  0  0  0  0  0  0  0  0  0
   17.1068  -26.0810   -3.7815 N   0  0  0  0  0  0  0  0  0  0  0  0
   18.3102  -24.1163  -10.6914 C   0  0  0  0  0  0  0  0  0  0  0  0
   19.4368  -23.6627  -10.9604 O   0  0  0  0  0  0  0  0  0  0  0  0
   17.1648  -23.5148  -11.2172 N   0  0  0  0  0  0  0  0  0  0  0  0
   17.3319  -22.3333  -12.1017 C   0  0  1  0  0  0  0  0  0  0  0  0
   16.8738  -22.7759  -13.4480 C   0  0  0  0  0  0  0  0  0  0  0  0
   16.8273  -21.7950  -14.5418 C   0  0  0  0  0  0  0  0  0  0  0  0
   16.3685  -22.2189  -15.8464 C   0  0  0  0  0  0  0  0  0  0  0  0
   15.1467  -22.5465  -16.0519 O   0  0  0  0  0  0  0  0  0  0  0  0
   16.4868  -21.2994  -11.4765 C   0  0  0  0  0  0  0  0  0  0  0  0
   15.4295  -21.5434  -10.8618 O   0  0  0  0  0  0  0  0  0  0  0  0
   17.1883  -22.3057  -16.9730 O   0  0  0  0  0  0  0  0  0  0  0  0
   16.8335  -19.9422  -11.5386 O   0  0  0  0  0  0  0  0  0  0  0  0
  1  2  1  0
  3  5  1  0
  3  2  1  0
  3  4  1  6
  5  6  2  0
  7  5  1  0
  8  7  1  0
  8  9  1  1
 10  9  1  0
 11 10  1  0
 12 11  1  0
 13 12  1  0
 14  8  1  0
 15 14  2  0
 16 14  1  0
 17 16  1  0
 17 22  1  0
 17 18  1  6
 19 18  1  0
 20 19  1  0
 20 24  1  0
 21 20  2  0
 22 25  1  0
 23 22  2  0
M  END
$$$$
