SKE.pdb
     RDKit          3D

 25 24  0  0  1  0  0  0  0  0999 V2000
   24.1126   -9.3356  -14.1674 O   0  0  0  0  0  0  0  0  0  0  0  0
   23.2412  -10.4079  -13.9766 C   0  0  0  0  0  0  0  0  0  0  0  0
   22.7655  -10.9794  -15.2933 C   0  0  2  0  0  0  0  0  0  0  0  0
   23.8446  -11.2279  -16.2281 N   0  0  0  0  0  0  0  0  0  0  0  0
   21.7968  -10.0239  -15.8892 C   0  0  0  0  0  0  0  0  0  0  0  0
   22.1886   -9.3615  -16.9100 O   0  0  0  0  0  0  0  0  0  0  0  0
   20.4954   -9.8308  -15.3784 N   0  0  0  0  0  0  0  0  0  0  0  0
   19.5808   -8.9677  -16.0535 C   0  0  1  0  0  0  0  0  0  0  0  0
   18.1356   -9.2414  -15.6774 C   0  0  0  0  0  0  0  0  0  0  0  0
   17.6391  -10.5136  -16.3299 C   0  0  0  0  0  0  0  0  0  0  0  0
   16.1941  -10.7042  -15.9227 C   0  0  0  0  0  0  0  0  0  0  0  0
   15.6841  -11.9426  -16.6595 C   0  0  0  0  0  0  0  0  0  0  0  0
   14.2946  -12.1352  -16.3638 N   0  0  0  0  0  0  0  0  0  0  0  0
   19.9017   -7.5428  -15.7647 C   0  0  0  0  0  0  0  0  0  0  0  0
   20.3567   -7.2472  -14.6454 O   0  0  0  0  0  0  0  0  0  0  0  0
   19.6986   -6.5511  -16.7267 N   0  0  0  0  0  0  0  0  0  0  0  0
   20.0244   -5.1463  -16.3707 C   0  0  1  0  0  0  0  0  0  0  0  0
   20.2814   -4.4569  -17.6656 C   0  0  0  0  0  0  0  0  0  0  0  0
   20.6840   -3.0431  -17.6513 C   0  0  0  0  0  0  0  0  0  0  0  0
   20.9824   -2.3851  -18.9043 C   0  0  0  0  0  0  0  0  0  0  0  0
   21.4102   -3.0406  -19.9189 O   0  0  0  0  0  0  0  0  0  0  0  0
   18.8258   -4.6748  -15.6530 C   0  0  0  0  0  0  0  0  0  0  0  0
   18.8480   -3.8081  -14.7565 O   0  0  0  0  0  0  0  0  0  0  0  0
   20.8341   -1.0141  -19.1217 O   0  0  0  0  0  0  0  0  0  0  0  0
   17.5545   -5.1886  -15.9457 O   0  0  0  0  0  0  0  0  0  0  0  0
  1  2  1  0
  3  5  1  0
  3  2  1  0
  3  4  1  6
  5  6  2  0
  7  5  1  0
  8  7  1  0
  8  9  1  1
 10  9  1  0
 11 10  1  0
 12 11  1  0
 13 12  1  0
 14  8  1  0
 15 14  2  0
 16 14  1  0
 17 16  1  0
 17 22  1  0
 17 18  1  6
 19 18  1  0
 20 19  1  0
 20 24  1  0
 21 20  2  0
 22 25  1  0
 23 22  2  0
M  END
$$$$
