RPA.pdb
     RDKit          3D

 24 24  0  0  1  0  0  0  0  0999 V2000
   19.7548  -12.1635  -21.8119 N   0  0  0  0  0  0  0  0  0  0  0  0
   18.7862  -11.1428  -21.9265 C   0  0  0  0  0  0  0  0  0  0  0  0
   17.8891  -11.1608  -22.8432 N   0  0  0  0  0  0  0  0  0  0  0  0
   18.7868  -10.0371  -20.9958 N   0  0  0  0  0  0  0  0  0  0  0  0
   19.8139  -10.0316  -20.0025 C   0  0  0  0  0  0  0  0  0  0  0  0
   19.4721  -10.5138  -18.6472 C   0  0  0  0  0  0  0  0  0  0  0  0
   20.3247  -11.5491  -18.0144 C   0  0  0  0  0  0  0  0  0  0  0  0
   19.9814  -12.0416  -16.6624 C   0  0  2  0  0  0  0  0  0  0  0  0
   18.6618  -12.5385  -16.6571 N   0  0  0  0  0  0  0  0  0  0  0  0
   20.1959  -10.9297  -15.6849 C   0  0  0  0  0  0  0  0  0  0  0  0
   19.1045  -10.4190  -15.2381 O   0  0  0  0  0  0  0  0  0  0  0  0
   17.1857  -10.4022  -22.9246 N   0  0  0  0  0  0  0  0  0  0  0  0
   21.4190  -10.4267  -15.2402 C   0  0  0  0  0  0  0  0  0  0  0  0
   22.7825  -10.6575  -15.6149 C   0  0  0  0  0  0  0  0  0  0  0  0
   23.4100  -10.9365  -14.2549 C   0  0  0  0  0  0  0  0  0  0  0  0
   22.7977   -9.8362  -13.4142 C   0  0  2  0  0  0  0  0  0  0  0  0
   21.5399   -9.4325  -14.1582 C   0  0  0  0  0  0  0  0  0  0  0  0
   21.7199   -8.0703  -14.7384 O   0  0  0  0  0  0  0  0  0  0  0  0
   22.3185   -7.8342  -15.8098 C   0  0  0  0  0  0  0  0  0  0  0  0
   19.9159   -4.8614  -14.2175 C   0  0  2  0  0  0  0  0  0  0  0  0
   21.1860   -5.6029  -14.5637 N   0  0  0  0  0  0  0  0  0  0  0  0
   21.1808   -6.9548  -14.0388 C   0  0  0  0  0  0  0  0  0  0  0  0
   22.3552   -4.8982  -13.9953 O   0  0  0  0  0  0  0  0  0  0  0  0
   22.8677   -5.3309  -12.9156 O   0  0  0  0  0  0  0  0  0  0  0  0
  2  1  1  0
  2  3  2  0
  4  2  1  0
  5  4  1  0
  6  5  1  0
  7  6  1  0
  8 10  1  0
  8  7  1  0
  8  9  1  6
 10 12  1  0
 11 10  2  0
 12 13  1  0
 12 16  1  0
 13 14  1  0
 15 14  1  0
 16 15  1  0
 17 21  1  0
 16 17  1  6
 18 17  2  0
 20 19  1  6
 20 21  1  0
 22 20  1  0
 22 24  1  0
 23 22  2  0
M  END
$$$$
