RPA.pdb
     RDKit          3D

 24 24  0  0  1  0  0  0  0  0999 V2000
   23.4574  -22.1353  -13.0457 N   0  0  0  0  0  0  0  0  0  0  0  0
   24.3901  -23.1880  -12.9239 C   0  0  0  0  0  0  0  0  0  0  0  0
   24.2335  -24.3051  -13.5347 N   0  0  0  0  0  0  0  0  0  0  0  0
   25.5612  -23.0245  -12.0929 N   0  0  0  0  0  0  0  0  0  0  0  0
   25.7374  -21.7499  -11.4716 C   0  0  0  0  0  0  0  0  0  0  0  0
   26.9028  -20.9350  -11.8764 C   0  0  0  0  0  0  0  0  0  0  0  0
   26.7312  -19.9055  -12.9301 C   0  0  0  0  0  0  0  0  0  0  0  0
   26.8112  -20.3055  -14.3520 C   0  0  2  0  0  0  0  0  0  0  0  0
   28.1397  -20.6491  -14.6763 N   0  0  0  0  0  0  0  0  0  0  0  0
   26.2704  -19.1897  -15.1889 C   0  0  0  0  0  0  0  0  0  0  0  0
   27.1601  -18.3318  -15.5407 O   0  0  0  0  0  0  0  0  0  0  0  0
   24.8380  -25.1228  -13.3272 N   0  0  0  0  0  0  0  0  0  0  0  0
   24.9486  -19.0119  -15.5988 C   0  0  0  0  0  0  0  0  0  0  0  0
   23.7275  -19.7177  -15.3463 C   0  0  0  0  0  0  0  0  0  0  0  0
   23.2097  -19.9110  -16.7660 C   0  0  0  0  0  0  0  0  0  0  0  0
   23.4428  -18.5366  -17.3567 C   0  0  1  0  0  0  0  0  0  0  0  0
   24.5166  -17.9156  -16.4850 C   0  0  0  0  0  0  0  0  0  0  0  0
   23.9244  -16.8118  -15.6754 O   0  0  0  0  0  0  0  0  0  0  0  0
   23.2178  -16.9843  -14.6591 C   0  0  0  0  0  0  0  0  0  0  0  0
   24.5006  -13.0750  -15.6484 C   0  0  2  0  0  0  0  0  0  0  0  0
   23.6989  -14.3153  -15.3289 N   0  0  0  0  0  0  0  0  0  0  0  0
   24.1701  -15.4678  -16.0724 C   0  0  0  0  0  0  0  0  0  0  0  0
   22.2766  -14.1019  -15.6727 O   0  0  0  0  0  0  0  0  0  0  0  0
   21.8204  -14.6126  -16.7437 O   0  0  0  0  0  0  0  0  0  0  0  0
  2  1  1  0
  2  3  2  0
  4  2  1  0
  5  4  1  0
  6  5  1  0
  7  6  1  0
  8 10  1  0
  8  7  1  0
  8  9  1  6
 10 12  1  0
 11 10  2  0
 12 13  1  0
 12 16  1  0
 13 14  1  0
 15 14  1  0
 16 15  1  0
 17 21  1  0
 16 17  1  1
 18 17  2  0
 20 19  1  1
 20 21  1  0
 22 20  1  0
 22 24  1  0
 23 22  2  0
M  END
$$$$
