RPA.pdb
     RDKit          3D

 24 24  0  0  1  0  0  0  0  0999 V2000
   19.8197  -22.8423   -9.7271 N   0  0  0  0  0  0  0  0  0  0  0  0
   20.3692  -22.5695   -8.4555 C   0  0  0  0  0  0  0  0  0  0  0  0
   20.0297  -23.2372   -7.4141 N   0  0  0  0  0  0  0  0  0  0  0  0
   21.3427  -21.5129   -8.2997 N   0  0  0  0  0  0  0  0  0  0  0  0
   21.6106  -20.7089   -9.4501 C   0  0  0  0  0  0  0  0  0  0  0  0
   22.3719  -21.3183  -10.5616 C   0  0  0  0  0  0  0  0  0  0  0  0
   23.4129  -20.5151  -11.2475 C   0  0  0  0  0  0  0  0  0  0  0  0
   24.8386  -20.8500  -11.0396 C   0  0  2  0  0  0  0  0  0  0  0  0
   25.1965  -20.5993   -9.6989 N   0  0  0  0  0  0  0  0  0  0  0  0
   25.6559  -20.0726  -12.0223 C   0  0  0  0  0  0  0  0  0  0  0  0
   26.1773  -19.0065  -11.5294 O   0  0  0  0  0  0  0  0  0  0  0  0
   20.5045  -23.0932   -6.5026 N   0  0  0  0  0  0  0  0  0  0  0  0
   25.8875  -20.3920  -13.3606 C   0  0  0  0  0  0  0  0  0  0  0  0
   25.3538  -21.3781  -14.2526 C   0  0  0  0  0  0  0  0  0  0  0  0
   26.6358  -21.9877  -14.8057 C   0  0  0  0  0  0  0  0  0  0  0  0
   27.4544  -20.7470  -15.0934 C   0  0  1  0  0  0  0  0  0  0  0  0
   26.8547  -19.6716  -14.2088 C   0  0  0  0  0  0  0  0  0  0  0  0
   26.1417  -18.6713  -15.0547 O   0  0  0  0  0  0  0  0  0  0  0  0
   24.9873  -18.8265  -15.5076 C   0  0  0  0  0  0  0  0  0  0  0  0
   26.8524  -15.0308  -15.7483 C   0  0  2  0  0  0  0  0  0  0  0  0
   26.1546  -16.3394  -16.0374 N   0  0  0  0  0  0  0  0  0  0  0  0
   26.8051  -17.4544  -15.3767 C   0  0  0  0  0  0  0  0  0  0  0  0
   26.1598  -16.6059  -17.4919 O   0  0  0  0  0  0  0  0  0  0  0  0
   26.9867  -17.4512  -17.9583 O   0  0  0  0  0  0  0  0  0  0  0  0
  2  1  1  0
  2  3  2  0
  4  2  1  0
  5  4  1  0
  6  5  1  0
  7  6  1  0
  8 10  1  0
  8  7  1  0
  8  9  1  1
 10 12  1  0
 11 10  2  0
 12 13  1  0
 12 16  1  0
 13 14  1  0
 15 14  1  0
 16 15  1  0
 17 21  1  0
 16 17  1  6
 18 17  2  0
 20 19  1  1
 20 21  1  0
 22 20  1  0
 22 24  1  0
 23 22  2  0
M  END
$$$$
