RPA.pdb
     RDKit          3D

 24 24  0  0  1  0  0  0  0  0999 V2000
   22.6085  -17.0902  -20.6373 N   0  0  0  0  0  0  0  0  0  0  0  0
   23.7077  -16.3234  -21.0811 C   0  0  0  0  0  0  0  0  0  0  0  0
   23.5664  -15.1225  -21.5092 N   0  0  0  0  0  0  0  0  0  0  0  0
   25.0382  -16.8873  -21.0615 N   0  0  0  0  0  0  0  0  0  0  0  0
   25.1693  -18.2108  -20.5392 C   0  0  0  0  0  0  0  0  0  0  0  0
   25.1570  -18.3826  -19.0707 C   0  0  0  0  0  0  0  0  0  0  0  0
   25.4212  -19.7257  -18.5000 C   0  0  0  0  0  0  0  0  0  0  0  0
   26.8074  -20.1010  -18.1456 C   0  0  2  0  0  0  0  0  0  0  0  0
   27.2945  -21.0506  -19.0672 N   0  0  0  0  0  0  0  0  0  0  0  0
   26.8184  -20.5924  -16.7326 C   0  0  0  0  0  0  0  0  0  0  0  0
   26.7825  -21.8730  -16.6324 O   0  0  0  0  0  0  0  0  0  0  0  0
   24.3787  -14.5700  -21.8440 N   0  0  0  0  0  0  0  0  0  0  0  0
   26.8622  -19.8162  -15.5740 C   0  0  0  0  0  0  0  0  0  0  0  0
   26.8064  -18.4072  -15.3203 C   0  0  0  0  0  0  0  0  0  0  0  0
   28.0242  -18.2294  -14.4222 C   0  0  0  0  0  0  0  0  0  0  0  0
   27.8695  -19.4020  -13.4770 C   0  0  2  0  0  0  0  0  0  0  0  0
   26.9908  -20.3882  -14.2212 C   0  0  0  0  0  0  0  0  0  0  0  0
   25.6515  -20.4534  -13.5682 O   0  0  0  0  0  0  0  0  0  0  0  0
   24.7140  -19.6609  -13.8026 C   0  0  0  0  0  0  0  0  0  0  0  0
   24.0901  -22.9518  -11.1607 C   0  0  2  0  0  0  0  0  0  0  0  0
   24.1401  -21.6528  -11.9308 N   0  0  0  0  0  0  0  0  0  0  0  0
   25.4082  -21.4793  -12.6128 C   0  0  0  0  0  0  0  0  0  0  0  0
   23.9582  -20.5103  -11.0099 O   0  0  0  0  0  0  0  0  0  0  0  0
   24.9716  -19.8136  -10.6880 O   0  0  0  0  0  0  0  0  0  0  0  0
  2  1  1  0
  2  3  2  0
  4  2  1  0
  5  4  1  0
  6  5  1  0
  7  6  1  0
  8 10  1  0
  8  7  1  0
  8  9  1  6
 10 12  1  0
 11 10  2  0
 12 13  1  0
 12 16  1  0
 13 14  1  0
 15 14  1  0
 16 15  1  0
 17 21  1  0
 16 17  1  1
 18 17  2  0
 20 19  1  6
 20 21  1  0
 22 20  1  0
 22 24  1  0
 23 22  2  0
M  END
$$$$
