RPA.pdb
     RDKit          3D

 24 24  0  0  1  0  0  0  0  0999 V2000
   29.3888  -17.8618  -18.3689 N   0  0  0  0  0  0  0  0  0  0  0  0
   28.0061  -17.7422  -18.6278 C   0  0  0  0  0  0  0  0  0  0  0  0
   27.5220  -17.8971  -19.8056 N   0  0  0  0  0  0  0  0  0  0  0  0
   27.0922  -17.4368  -17.5507 N   0  0  0  0  0  0  0  0  0  0  0  0
   27.6421  -17.3915  -16.2326 C   0  0  0  0  0  0  0  0  0  0  0  0
   28.0310  -18.6691  -15.5979 C   0  0  0  0  0  0  0  0  0  0  0  0
   26.9717  -19.5667  -15.0768 C   0  0  0  0  0  0  0  0  0  0  0  0
   27.3580  -20.7931  -14.3455 C   0  0  2  0  0  0  0  0  0  0  0  0
   27.9508  -21.7121  -15.2356 N   0  0  0  0  0  0  0  0  0  0  0  0
   26.1452  -21.3368  -13.6589 C   0  0  0  0  0  0  0  0  0  0  0  0
   25.6288  -22.3524  -14.2534 O   0  0  0  0  0  0  0  0  0  0  0  0
   26.5037  -17.8114  -19.9859 N   0  0  0  0  0  0  0  0  0  0  0  0
   25.5581  -20.8583  -12.4872 C   0  0  0  0  0  0  0  0  0  0  0  0
   25.8662  -19.7853  -11.5890 C   0  0  0  0  0  0  0  0  0  0  0  0
   25.8417  -20.5150  -10.2519 C   0  0  0  0  0  0  0  0  0  0  0  0
   24.5838  -21.3463  -10.3905 C   0  0  2  0  0  0  0  0  0  0  0  0
   24.3515  -21.4541  -11.8848 C   0  0  0  0  0  0  0  0  0  0  0  0
   23.1492  -20.6556  -12.2608 O   0  0  0  0  0  0  0  0  0  0  0  0
   23.1263  -19.4083  -12.3339 C   0  0  0  0  0  0  0  0  0  0  0  0
   20.4989  -21.5793  -14.5295 C   0  0  2  0  0  0  0  0  0  0  0  0
   20.8498  -20.7550  -13.3128 N   0  0  0  0  0  0  0  0  0  0  0  0
   21.9401  -21.3438  -12.5592 C   0  0  0  0  0  0  0  0  0  0  0  0
   19.6791  -20.6526  -12.4152 O   0  0  0  0  0  0  0  0  0  0  0  0
   19.6946  -21.2826  -11.3113 O   0  0  0  0  0  0  0  0  0  0  0  0
  2  1  1  0
  2  3  2  0
  4  2  1  0
  5  4  1  0
  6  5  1  0
  7  6  1  0
  8 10  1  0
  8  7  1  0
  8  9  1  6
 10 12  1  0
 11 10  2  0
 12 13  1  0
 12 16  1  0
 13 14  1  0
 15 14  1  0
 16 15  1  0
 17 21  1  0
 16 17  1  1
 18 17  2  0
 20 19  1  6
 20 21  1  0
 22 20  1  0
 22 24  1  0
 23 22  2  0
M  END
$$$$
