RPA.pdb
     RDKit          3D

 24 24  0  0  1  0  0  0  0  0999 V2000
   25.5441  -20.8890   -8.4911 N   0  0  0  0  0  0  0  0  0  0  0  0
   24.3903  -20.8106   -9.3009 C   0  0  0  0  0  0  0  0  0  0  0  0
   23.2313  -20.5704   -8.8063 N   0  0  0  0  0  0  0  0  0  0  0  0
   24.4946  -21.0033  -10.7294 N   0  0  0  0  0  0  0  0  0  0  0  0
   25.6411  -21.7133  -11.2017 C   0  0  0  0  0  0  0  0  0  0  0  0
   26.6526  -20.9627  -11.9762 C   0  0  0  0  0  0  0  0  0  0  0  0
   26.5271  -20.8975  -13.4525 C   0  0  0  0  0  0  0  0  0  0  0  0
   25.2258  -20.5303  -14.0523 C   0  0  2  0  0  0  0  0  0  0  0  0
   24.4226  -21.6811  -14.1895 N   0  0  0  0  0  0  0  0  0  0  0  0
   25.4827  -19.8333  -15.3507 C   0  0  0  0  0  0  0  0  0  0  0  0
   24.7978  -20.3027  -16.3316 O   0  0  0  0  0  0  0  0  0  0  0  0
   22.4002  -20.4458   -9.4152 N   0  0  0  0  0  0  0  0  0  0  0  0
   26.3586  -18.7706  -15.5744 C   0  0  0  0  0  0  0  0  0  0  0  0
   27.3037  -18.0735  -14.7536 C   0  0  0  0  0  0  0  0  0  0  0  0
   26.8924  -16.6286  -15.0072 C   0  0  0  0  0  0  0  0  0  0  0  0
   26.7141  -16.6304  -16.5108 C   0  0  1  0  0  0  0  0  0  0  0  0
   26.4832  -18.0842  -16.8734 C   0  0  0  0  0  0  0  0  0  0  0  0
   27.6683  -18.6075  -17.6124 O   0  0  0  0  0  0  0  0  0  0  0  0
   28.7055  -19.0396  -17.0652 C   0  0  0  0  0  0  0  0  0  0  0  0
   27.8815  -19.9616  -21.0743 C   0  0  2  0  0  0  0  0  0  0  0  0
   28.5559  -19.3880  -19.8500 N   0  0  0  0  0  0  0  0  0  0  0  0
   27.6324  -18.6228  -19.0347 C   0  0  0  0  0  0  0  0  0  0  0  0
   29.6593  -18.4899  -20.2531 O   0  0  0  0  0  0  0  0  0  0  0  0
   29.5190  -17.2363  -20.0966 O   0  0  0  0  0  0  0  0  0  0  0  0
  2  1  1  0
  2  3  2  0
  4  2  1  0
  5  4  1  0
  6  5  1  0
  7  6  1  0
  8 10  1  0
  8  7  1  0
  8  9  1  6
 10 12  1  0
 11 10  2  0
 12 13  1  0
 12 16  1  0
 13 14  1  0
 15 14  1  0
 16 15  1  0
 17 21  1  0
 16 17  1  6
 18 17  2  0
 20 19  1  1
 20 21  1  0
 22 20  1  0
 22 24  1  0
 23 22  2  0
M  END
$$$$
