RPA.pdb
     RDKit          3D

 24 24  0  0  1  0  0  0  0  0999 V2000
   12.2090   -9.5847   -7.6150 N   0  0  0  0  0  0  0  0  0  0  0  0
   11.4799  -10.4668   -8.4417 C   0  0  0  0  0  0  0  0  0  0  0  0
   10.3486  -10.9526   -8.0814 N   0  0  0  0  0  0  0  0  0  0  0  0
   12.0038  -10.8467   -9.7339 N   0  0  0  0  0  0  0  0  0  0  0  0
   12.9182   -9.9384  -10.3507 C   0  0  0  0  0  0  0  0  0  0  0  0
   13.4815  -10.3068  -11.6672 C   0  0  0  0  0  0  0  0  0  0  0  0
   14.5028   -9.4270  -12.2857 C   0  0  0  0  0  0  0  0  0  0  0  0
   14.2233   -7.9811  -12.4250 C   0  0  2  0  0  0  0  0  0  0  0  0
   13.3749   -7.7640  -13.5302 N   0  0  0  0  0  0  0  0  0  0  0  0
   15.5268   -7.2549  -12.5316 C   0  0  0  0  0  0  0  0  0  0  0  0
   15.7456   -6.7576  -13.6962 O   0  0  0  0  0  0  0  0  0  0  0  0
    9.7749  -11.5230   -8.7314 N   0  0  0  0  0  0  0  0  0  0  0  0
   16.4761   -7.0811  -11.5240 C   0  0  0  0  0  0  0  0  0  0  0  0
   16.5885   -7.5493  -10.1745 C   0  0  0  0  0  0  0  0  0  0  0  0
   16.8684   -6.2437   -9.4408 C   0  0  0  0  0  0  0  0  0  0  0  0
   17.9023   -5.6097  -10.3472 C   0  0  1  0  0  0  0  0  0  0  0  0
   17.6987   -6.2749  -11.6943 C   0  0  0  0  0  0  0  0  0  0  0  0
   18.8575   -7.1662  -11.9899 O   0  0  0  0  0  0  0  0  0  0  0  0
   18.9116   -8.3765  -11.6833 C   0  0  0  0  0  0  0  0  0  0  0  0
   21.2525   -8.7171  -12.6415 C   0  0  1  0  0  0  0  0  0  0  0  0
   20.9649   -7.4234  -13.3670 N   0  0  0  0  0  0  0  0  0  0  0  0
   19.9839   -6.6185  -12.6649 C   0  0  0  0  0  0  0  0  0  0  0  0
   20.4377   -7.7070  -14.7191 O   0  0  0  0  0  0  0  0  0  0  0  0
   19.3071   -8.2771  -14.8303 O   0  0  0  0  0  0  0  0  0  0  0  0
  2  1  1  0
  2  3  2  0
  4  2  1  0
  5  4  1  0
  6  5  1  0
  7  6  1  0
  8 10  1  0
  8  7  1  0
  8  9  1  6
 10 12  1  0
 11 10  2  0
 12 13  1  0
 12 16  1  0
 13 14  1  0
 15 14  1  0
 16 15  1  0
 17 21  1  0
 16 17  1  1
 18 17  2  0
 20 19  1  1
 20 21  1  0
 22 20  1  0
 22 24  1  0
 23 22  2  0
M  END
$$$$
