RPA.pdb
     RDKit          3D

 24 24  0  0  1  0  0  0  0  0999 V2000
   24.5604  -16.3567  -19.4751 N   0  0  0  0  0  0  0  0  0  0  0  0
   25.8612  -16.8396  -19.7357 C   0  0  0  0  0  0  0  0  0  0  0  0
   26.2829  -17.0379  -20.9308 N   0  0  0  0  0  0  0  0  0  0  0  0
   26.7596  -17.1255  -18.6403 N   0  0  0  0  0  0  0  0  0  0  0  0
   26.3046  -16.7869  -17.3288 C   0  0  0  0  0  0  0  0  0  0  0  0
   25.1509  -17.5312  -16.7801 C   0  0  0  0  0  0  0  0  0  0  0  0
   25.3588  -18.4277  -15.6171 C   0  0  0  0  0  0  0  0  0  0  0  0
   25.9664  -19.7594  -15.8300 C   0  0  2  0  0  0  0  0  0  0  0  0
   25.1638  -20.5144  -16.7097 N   0  0  0  0  0  0  0  0  0  0  0  0
   26.1545  -20.4126  -14.4973 C   0  0  0  0  0  0  0  0  0  0  0  0
   25.2358  -21.2627  -14.2061 O   0  0  0  0  0  0  0  0  0  0  0  0
   27.2319  -17.4166  -21.1122 N   0  0  0  0  0  0  0  0  0  0  0  0
   27.1910  -20.1877  -13.5907 C   0  0  0  0  0  0  0  0  0  0  0  0
   28.2853  -19.2641  -13.5431 C   0  0  0  0  0  0  0  0  0  0  0  0
   29.4486  -20.2118  -13.2791 C   0  0  0  0  0  0  0  0  0  0  0  0
   28.8685  -21.1000  -12.1988 C   0  0  1  0  0  0  0  0  0  0  0  0
   27.3659  -20.9676  -12.3518 C   0  0  0  0  0  0  0  0  0  0  0  0
   26.8121  -20.2101  -11.1925 O   0  0  0  0  0  0  0  0  0  0  0  0
   26.7974  -18.9633  -11.1077 C   0  0  0  0  0  0  0  0  0  0  0  0
   24.7990  -21.2295   -8.1545 C   0  0  2  0  0  0  0  0  0  0  0  0
   25.7382  -20.3130   -8.9034 N   0  0  0  0  0  0  0  0  0  0  0  0
   26.2600  -20.9396  -10.1028 C   0  0  0  0  0  0  0  0  0  0  0  0
   26.8851  -19.9500   -8.0434 O   0  0  0  0  0  0  0  0  0  0  0  0
   28.0033  -20.5225   -8.2371 O   0  0  0  0  0  0  0  0  0  0  0  0
  2  1  1  0
  2  3  2  0
  4  2  1  0
  5  4  1  0
  6  5  1  0
  7  6  1  0
  8 10  1  0
  8  7  1  0
  8  9  1  6
 10 12  1  0
 11 10  2  0
 12 13  1  0
 12 16  1  0
 13 14  1  0
 15 14  1  0
 16 15  1  0
 17 21  1  0
 16 17  1  1
 18 17  2  0
 20 19  1  6
 20 21  1  0
 22 20  1  0
 22 24  1  0
 23 22  2  0
M  END
$$$$
