RPA.pdb
     RDKit          3D

 24 24  0  0  1  0  0  0  0  0999 V2000
   29.7824  -22.4622  -15.8682 N   0  0  0  0  0  0  0  0  0  0  0  0
   29.9256  -23.8106  -16.2614 C   0  0  0  0  0  0  0  0  0  0  0  0
   30.9133  -24.5289  -15.8690 N   0  0  0  0  0  0  0  0  0  0  0  0
   28.9437  -24.4190  -17.1299 N   0  0  0  0  0  0  0  0  0  0  0  0
   27.5833  -24.0253  -16.9398 C   0  0  0  0  0  0  0  0  0  0  0  0
   27.3212  -22.6973  -16.3448 C   0  0  0  0  0  0  0  0  0  0  0  0
   26.0938  -22.4997  -15.5361 C   0  0  0  0  0  0  0  0  0  0  0  0
   25.6877  -23.5442  -14.5707 C   0  0  2  0  0  0  0  0  0  0  0  0
   25.3147  -24.7144  -15.2636 N   0  0  0  0  0  0  0  0  0  0  0  0
   24.5936  -22.9949  -13.7110 C   0  0  0  0  0  0  0  0  0  0  0  0
   23.4791  -23.6232  -13.8317 O   0  0  0  0  0  0  0  0  0  0  0  0
   31.0297  -25.5083  -16.1916 N   0  0  0  0  0  0  0  0  0  0  0  0
   24.6777  -21.9130  -12.8340 C   0  0  0  0  0  0  0  0  0  0  0  0
   25.6916  -20.9410  -12.5510 C   0  0  0  0  0  0  0  0  0  0  0  0
   25.7666  -21.0391  -11.0325 C   0  0  0  0  0  0  0  0  0  0  0  0
   24.2983  -21.0592  -10.6636 C   0  0  1  0  0  0  0  0  0  0  0  0
   23.5882  -21.5264  -11.9190 C   0  0  0  0  0  0  0  0  0  0  0  0
   22.8124  -20.3943  -12.5030 O   0  0  0  0  0  0  0  0  0  0  0  0
   23.2467  -19.6241  -13.3862 C   0  0  0  0  0  0  0  0  0  0  0  0
   21.2270  -18.0960  -13.3305 C   0  0  1  0  0  0  0  0  0  0  0  0
   20.5441  -19.2914  -12.7078 N   0  0  0  0  0  0  0  0  0  0  0  0
   21.4890  -20.1618  -12.0350 C   0  0  0  0  0  0  0  0  0  0  0  0
   19.8583  -20.0836  -13.7512 O   0  0  0  0  0  0  0  0  0  0  0  0
   20.2142  -19.9418  -14.9632 O   0  0  0  0  0  0  0  0  0  0  0  0
  2  1  1  0
  2  3  2  0
  4  2  1  0
  5  4  1  0
  6  5  1  0
  7  6  1  0
  8 10  1  0
  8  7  1  0
  8  9  1  6
 10 12  1  0
 11 10  2  0
 12 13  1  0
 12 16  1  0
 13 14  1  0
 15 14  1  0
 16 15  1  0
 17 21  1  0
 16 17  1  6
 18 17  2  0
 20 19  1  1
 20 21  1  0
 22 20  1  0
 22 24  1  0
 23 22  2  0
M  END
$$$$
