RPA.pdb
     RDKit          3D

 24 24  0  0  1  0  0  0  0  0999 V2000
   25.0733  -20.3635  -10.0423 N   0  0  0  0  0  0  0  0  0  0  0  0
   26.0825  -20.9916  -10.8040 C   0  0  0  0  0  0  0  0  0  0  0  0
   27.3094  -20.6230  -10.7371 N   0  0  0  0  0  0  0  0  0  0  0  0
   25.7465  -22.0824  -11.6906 N   0  0  0  0  0  0  0  0  0  0  0  0
   24.9098  -21.7713  -12.8063 C   0  0  0  0  0  0  0  0  0  0  0  0
   25.5597  -21.4790  -14.1018 C   0  0  0  0  0  0  0  0  0  0  0  0
   24.7254  -21.0220  -15.2396 C   0  0  0  0  0  0  0  0  0  0  0  0
   23.7941  -19.8895  -15.0446 C   0  0  2  0  0  0  0  0  0  0  0  0
   22.4673  -20.3240  -15.2427 N   0  0  0  0  0  0  0  0  0  0  0  0
   24.1951  -18.7824  -15.9674 C   0  0  0  0  0  0  0  0  0  0  0  0
   23.4159  -18.6486  -16.9805 O   0  0  0  0  0  0  0  0  0  0  0  0
   28.0445  -21.0902  -11.3012 N   0  0  0  0  0  0  0  0  0  0  0  0
   25.2882  -17.9267  -15.8271 C   0  0  0  0  0  0  0  0  0  0  0  0
   26.3644  -17.8372  -14.8855 C   0  0  0  0  0  0  0  0  0  0  0  0
   26.2893  -16.3641  -14.5039 C   0  0  0  0  0  0  0  0  0  0  0  0
   26.1180  -15.7144  -15.8607 C   0  0  2  0  0  0  0  0  0  0  0  0
   25.5665  -16.8113  -16.7503 C   0  0  0  0  0  0  0  0  0  0  0  0
   26.6048  -17.2188  -17.7404 O   0  0  0  0  0  0  0  0  0  0  0  0
   27.5972  -17.9283  -17.4691 C   0  0  0  0  0  0  0  0  0  0  0  0
   26.7433  -16.9060  -21.5213 C   0  0  2  0  0  0  0  0  0  0  0  0
   27.3229  -17.2414  -20.1668 N   0  0  0  0  0  0  0  0  0  0  0  0
   26.4720  -16.7794  -19.0872 C   0  0  0  0  0  0  0  0  0  0  0  0
   28.6465  -16.6011  -20.0093 O   0  0  0  0  0  0  0  0  0  0  0  0
   29.6370  -17.0725  -20.6515 O   0  0  0  0  0  0  0  0  0  0  0  0
  2  1  1  0
  2  3  2  0
  4  2  1  0
  5  4  1  0
  6  5  1  0
  7  6  1  0
  8 10  1  0
  8  7  1  0
  8  9  1  6
 10 12  1  0
 11 10  2  0
 12 13  1  0
 12 16  1  0
 13 14  1  0
 15 14  1  0
 16 15  1  0
 17 21  1  0
 16 17  1  1
 18 17  2  0
 20 19  1  6
 20 21  1  0
 22 20  1  0
 22 24  1  0
 23 22  2  0
M  END
$$$$
