RPA.pdb
     RDKit          3D

 24 24  0  0  1  0  0  0  0  0999 V2000
   21.4283  -17.1728  -17.7025 N   0  0  0  0  0  0  0  0  0  0  0  0
   22.4178  -18.1338  -18.0035 C   0  0  0  0  0  0  0  0  0  0  0  0
   23.3094  -17.9285  -18.9027 N   0  0  0  0  0  0  0  0  0  0  0  0
   22.4457  -19.3909  -17.2911 N   0  0  0  0  0  0  0  0  0  0  0  0
   21.2754  -19.7362  -16.5476 C   0  0  0  0  0  0  0  0  0  0  0  0
   21.0773  -19.0984  -15.2283 C   0  0  0  0  0  0  0  0  0  0  0  0
   20.8932  -19.9571  -14.0333 C   0  0  0  0  0  0  0  0  0  0  0  0
   22.0668  -20.2983  -13.2001 C   0  0  2  0  0  0  0  0  0  0  0  0
   23.1216  -20.7448  -14.0225 N   0  0  0  0  0  0  0  0  0  0  0  0
   21.6462  -21.3095  -12.1810 C   0  0  0  0  0  0  0  0  0  0  0  0
   21.9653  -22.5155  -12.4899 O   0  0  0  0  0  0  0  0  0  0  0  0
   24.0183  -18.6503  -19.1340 N   0  0  0  0  0  0  0  0  0  0  0  0
   20.9713  -21.0654  -10.9845 C   0  0  0  0  0  0  0  0  0  0  0  0
   20.3460  -19.9085  -10.4157 C   0  0  0  0  0  0  0  0  0  0  0  0
   20.9815  -19.8911   -9.0312 C   0  0  0  0  0  0  0  0  0  0  0  0
   20.8818  -21.3505   -8.6406 C   0  0  1  0  0  0  0  0  0  0  0  0
   20.7523  -22.0967   -9.9539 C   0  0  0  0  0  0  0  0  0  0  0  0
   19.3738  -22.6527  -10.0770 O   0  0  0  0  0  0  0  0  0  0  0  0
   18.4002  -22.0251  -10.5460 C   0  0  0  0  0  0  0  0  0  0  0  0
   17.9846  -26.1433   -9.4601 C   0  0  2  0  0  0  0  0  0  0  0  0
   17.8898  -24.6919   -9.8689 N   0  0  0  0  0  0  0  0  0  0  0  0
   19.1340  -23.9841   -9.6362 C   0  0  0  0  0  0  0  0  0  0  0  0
   16.8288  -24.0150   -9.0925 O   0  0  0  0  0  0  0  0  0  0  0  0
   17.1406  -23.4264   -8.0099 O   0  0  0  0  0  0  0  0  0  0  0  0
  2  1  1  0
  2  3  2  0
  4  2  1  0
  5  4  1  0
  6  5  1  0
  7  6  1  0
  8 10  1  0
  8  7  1  0
  8  9  1  6
 10 12  1  0
 11 10  2  0
 12 13  1  0
 12 16  1  0
 13 14  1  0
 15 14  1  0
 16 15  1  0
 17 21  1  0
 16 17  1  6
 18 17  2  0
 20 19  1  6
 20 21  1  0
 22 20  1  0
 22 24  1  0
 23 22  2  0
M  END
$$$$
