RPA.pdb
     RDKit          3D

 24 24  0  0  1  0  0  0  0  0999 V2000
   19.7764  -23.2584  -14.0426 N   0  0  0  0  0  0  0  0  0  0  0  0
   20.2195  -24.3997  -13.3396 C   0  0  0  0  0  0  0  0  0  0  0  0
   19.4874  -25.4460  -13.2176 N   0  0  0  0  0  0  0  0  0  0  0  0
   21.5309  -24.4115  -12.7324 N   0  0  0  0  0  0  0  0  0  0  0  0
   22.6271  -24.7751  -13.5737 C   0  0  0  0  0  0  0  0  0  0  0  0
   23.4230  -23.6896  -14.1857 C   0  0  0  0  0  0  0  0  0  0  0  0
   24.1630  -22.7539  -13.3046 C   0  0  0  0  0  0  0  0  0  0  0  0
   23.7826  -21.3246  -13.2856 C   0  0  2  0  0  0  0  0  0  0  0  0
   22.4072  -21.1937  -13.5678 N   0  0  0  0  0  0  0  0  0  0  0  0
   24.6548  -20.5895  -14.2535 C   0  0  0  0  0  0  0  0  0  0  0  0
   24.0091  -20.0643  -15.2327 O   0  0  0  0  0  0  0  0  0  0  0  0
   19.8374  -26.2960  -12.7359 N   0  0  0  0  0  0  0  0  0  0  0  0
   26.0397  -20.4342  -14.1854 C   0  0  0  0  0  0  0  0  0  0  0  0
   27.0456  -20.8864  -13.2707 C   0  0  0  0  0  0  0  0  0  0  0  0
   27.7743  -19.5809  -12.9780 C   0  0  0  0  0  0  0  0  0  0  0  0
   27.9058  -18.9962  -14.3684 C   0  0  1  0  0  0  0  0  0  0  0  0
   26.8186  -19.6733  -15.1795 C   0  0  0  0  0  0  0  0  0  0  0  0
   27.4392  -20.6084  -16.1618 O   0  0  0  0  0  0  0  0  0  0  0  0
   27.7250  -21.8001  -15.9167 C   0  0  0  0  0  0  0  0  0  0  0  0
   29.1130  -22.0386  -18.1450 C   0  0  1  0  0  0  0  0  0  0  0  0
   28.1115  -20.9906  -18.5713 N   0  0  0  0  0  0  0  0  0  0  0  0
   27.7317  -20.1283  -17.4689 C   0  0  0  0  0  0  0  0  0  0  0  0
   26.8862  -21.6398  -19.0848 O   0  0  0  0  0  0  0  0  0  0  0  0
   26.1015  -22.2083  -18.2621 O   0  0  0  0  0  0  0  0  0  0  0  0
  2  1  1  0
  2  3  2  0
  4  2  1  0
  5  4  1  0
  6  5  1  0
  7  6  1  0
  8 10  1  0
  8  7  1  0
  8  9  1  6
 10 12  1  0
 11 10  2  0
 12 13  1  0
 12 16  1  0
 13 14  1  0
 15 14  1  0
 16 15  1  0
 17 21  1  0
 16 17  1  6
 18 17  2  0
 20 19  1  6
 20 21  1  0
 22 20  1  0
 22 24  1  0
 23 22  2  0
M  END
$$$$
