RPA.pdb
     RDKit          3D

 24 24  0  0  1  0  0  0  0  0999 V2000
   30.4841  -22.3438  -17.7727 N   0  0  0  0  0  0  0  0  0  0  0  0
   30.3935  -21.0914  -18.4181 C   0  0  0  0  0  0  0  0  0  0  0  0
   30.9143  -20.8855  -19.5722 N   0  0  0  0  0  0  0  0  0  0  0  0
   29.6994  -19.9967  -17.7790 N   0  0  0  0  0  0  0  0  0  0  0  0
   28.8195  -20.3317  -16.7042 C   0  0  0  0  0  0  0  0  0  0  0  0
   27.3653  -20.1779  -16.9233 C   0  0  0  0  0  0  0  0  0  0  0  0
   26.4313  -20.5110  -15.8205 C   0  0  0  0  0  0  0  0  0  0  0  0
   26.6412  -21.7531  -15.0452 C   0  0  2  0  0  0  0  0  0  0  0  0
   26.8564  -22.8336  -15.9253 N   0  0  0  0  0  0  0  0  0  0  0  0
   25.4643  -21.9532  -14.1438 C   0  0  0  0  0  0  0  0  0  0  0  0
   24.6611  -22.8740  -14.5421 O   0  0  0  0  0  0  0  0  0  0  0  0
   30.9013  -19.9445  -20.0097 N   0  0  0  0  0  0  0  0  0  0  0  0
   25.1803  -21.2596  -12.9669 C   0  0  0  0  0  0  0  0  0  0  0  0
   25.7933  -20.1529  -12.2943 C   0  0  0  0  0  0  0  0  0  0  0  0
   25.9284  -20.7139  -10.8843 C   0  0  0  0  0  0  0  0  0  0  0  0
   24.5686  -21.3495  -10.6863 C   0  0  1  0  0  0  0  0  0  0  0  0
   24.0430  -21.5883  -12.0881 C   0  0  0  0  0  0  0  0  0  0  0  0
   22.9073  -20.6602  -12.3591 O   0  0  0  0  0  0  0  0  0  0  0  0
   23.0265  -19.4248  -12.5056 C   0  0  0  0  0  0  0  0  0  0  0  0
   19.5546  -21.3688  -13.8108 C   0  0  2  0  0  0  0  0  0  0  0  0
   20.4699  -20.4703  -13.0122 N   0  0  0  0  0  0  0  0  0  0  0  0
   21.5949  -21.2004  -12.4607 C   0  0  0  0  0  0  0  0  0  0  0  0
   19.7273  -19.8609  -11.8880 O   0  0  0  0  0  0  0  0  0  0  0  0
   18.7918  -19.0391  -12.1436 O   0  0  0  0  0  0  0  0  0  0  0  0
  2  1  1  0
  2  3  2  0
  4  2  1  0
  5  4  1  0
  6  5  1  0
  7  6  1  0
  8 10  1  0
  8  7  1  0
  8  9  1  6
 10 12  1  0
 11 10  2  0
 12 13  1  0
 12 16  1  0
 13 14  1  0
 15 14  1  0
 16 15  1  0
 17 21  1  0
 16 17  1  6
 18 17  2  0
 20 19  1  6
 20 21  1  0
 22 20  1  0
 22 24  1  0
 23 22  2  0
M  END
$$$$
