RPA.pdb
     RDKit          3D

 24 24  0  0  1  0  0  0  0  0999 V2000
   46.4527  -13.7853   -8.4042 N   0  0  0  0  0  0  0  0  0  0  0  0
   45.7474  -13.3243   -7.2714 C   0  0  0  0  0  0  0  0  0  0  0  0
   46.3347  -13.1008   -6.1531 N   0  0  0  0  0  0  0  0  0  0  0  0
   44.3233  -13.0911   -7.3513 N   0  0  0  0  0  0  0  0  0  0  0  0
   43.9060  -11.7888   -7.7656 C   0  0  0  0  0  0  0  0  0  0  0  0
   43.5812  -10.7974   -6.7179 C   0  0  0  0  0  0  0  0  0  0  0  0
   43.0648   -9.4666   -7.1203 C   0  0  0  0  0  0  0  0  0  0  0  0
   43.4316   -8.9186   -8.4444 C   0  0  2  0  0  0  0  0  0  0  0  0
   44.8345   -8.8213   -8.5479 N   0  0  0  0  0  0  0  0  0  0  0  0
   42.7356   -7.6066   -8.6232 C   0  0  0  0  0  0  0  0  0  0  0  0
   43.5270   -6.5947   -8.5884 O   0  0  0  0  0  0  0  0  0  0  0  0
   45.8074  -12.7660   -5.3243 N   0  0  0  0  0  0  0  0  0  0  0  0
   41.3690   -7.4003   -8.8150 C   0  0  0  0  0  0  0  0  0  0  0  0
   40.2259   -8.2640   -8.8214 C   0  0  0  0  0  0  0  0  0  0  0  0
   39.5697   -7.8610  -10.1360 C   0  0  0  0  0  0  0  0  0  0  0  0
   39.6566   -6.3513  -10.0604 C   0  0  1  0  0  0  0  0  0  0  0  0
   40.7802   -6.0750   -9.0807 C   0  0  0  0  0  0  0  0  0  0  0  0
   40.2153   -5.5088   -7.8218 O   0  0  0  0  0  0  0  0  0  0  0  0
   39.6952   -6.1915   -6.9133 C   0  0  0  0  0  0  0  0  0  0  0  0
   40.4075   -2.0475   -6.2921 C   0  0  2  0  0  0  0  0  0  0  0  0
   39.8529   -3.4490   -6.3971 N   0  0  0  0  0  0  0  0  0  0  0  0
   40.2636   -4.1003   -7.6261 C   0  0  0  0  0  0  0  0  0  0  0  0
   38.3748   -3.4123   -6.3731 O   0  0  0  0  0  0  0  0  0  0  0  0
   37.7370   -3.6556   -7.4454 O   0  0  0  0  0  0  0  0  0  0  0  0
  2  1  1  0
  2  3  2  0
  4  2  1  0
  5  4  1  0
  6  5  1  0
  7  6  1  0
  8 10  1  0
  8  7  1  0
  8  9  1  1
 10 12  1  0
 11 10  2  0
 12 13  1  0
 12 16  1  0
 13 14  1  0
 15 14  1  0
 16 15  1  0
 17 21  1  0
 16 17  1  1
 18 17  2  0
 20 19  1  1
 20 21  1  0
 22 20  1  0
 22 24  1  0
 23 22  2  0
M  END
$$$$
