RPA.pdb
     RDKit          3D

 24 24  0  0  1  0  0  0  0  0999 V2000
   22.3083  -20.2361  -10.7328 N   0  0  0  0  0  0  0  0  0  0  0  0
   22.7967  -20.8495   -9.5588 C   0  0  0  0  0  0  0  0  0  0  0  0
   22.0179  -21.1850   -8.5961 N   0  0  0  0  0  0  0  0  0  0  0  0
   24.2099  -21.1161   -9.4160 N   0  0  0  0  0  0  0  0  0  0  0  0
   25.0754  -20.5477  -10.4006 C   0  0  0  0  0  0  0  0  0  0  0  0
   24.7665  -20.7979  -11.8247 C   0  0  0  0  0  0  0  0  0  0  0  0
   25.7412  -21.5492  -12.6523 C   0  0  0  0  0  0  0  0  0  0  0  0
   27.1510  -21.1033  -12.6926 C   0  0  2  0  0  0  0  0  0  0  0  0
   27.6324  -20.9255  -11.3792 N   0  0  0  0  0  0  0  0  0  0  0  0
   27.2313  -19.8611  -13.5224 C   0  0  0  0  0  0  0  0  0  0  0  0
   27.4556  -18.7975  -12.8369 O   0  0  0  0  0  0  0  0  0  0  0  0
   22.3938  -21.5525   -7.7013 N   0  0  0  0  0  0  0  0  0  0  0  0
   27.0905  -19.7658  -14.9072 C   0  0  0  0  0  0  0  0  0  0  0  0
   26.6434  -20.6706  -15.9242 C   0  0  0  0  0  0  0  0  0  0  0  0
   27.7891  -20.5673  -16.9232 C   0  0  0  0  0  0  0  0  0  0  0  0
   28.0071  -19.0698  -16.9710 C   0  0  2  0  0  0  0  0  0  0  0  0
   27.4221  -18.5500  -15.6725 C   0  0  0  0  0  0  0  0  0  0  0  0
   26.1795  -17.7767  -15.9604 O   0  0  0  0  0  0  0  0  0  0  0  0
   25.0711  -18.2941  -16.2163 C   0  0  0  0  0  0  0  0  0  0  0  0
   25.3895  -14.0671  -15.7229 C   0  0  2  0  0  0  0  0  0  0  0  0
   25.0782  -15.5016  -16.0811 N   0  0  0  0  0  0  0  0  0  0  0  0
   26.2428  -16.3554  -15.9468 C   0  0  0  0  0  0  0  0  0  0  0  0
   24.6119  -15.5844  -17.4819 O   0  0  0  0  0  0  0  0  0  0  0  0
   23.4361  -15.1911  -17.7620 O   0  0  0  0  0  0  0  0  0  0  0  0
  2  1  1  0
  2  3  2  0
  4  2  1  0
  5  4  1  0
  6  5  1  0
  7  6  1  0
  8 10  1  0
  8  7  1  0
  8  9  1  1
 10 12  1  0
 11 10  2  0
 12 13  1  0
 12 16  1  0
 13 14  1  0
 15 14  1  0
 16 15  1  0
 17 21  1  0
 16 17  1  6
 18 17  2  0
 20 19  1  1
 20 21  1  0
 22 20  1  0
 22 24  1  0
 23 22  2  0
M  END
$$$$
