KAC.pdb
     RDKit          3D

 21 20  0  0  1  0  0  0  0  0999 V2000
    6.1734  -15.5243   20.2702 N   0  0  0  0  0  0  0  0  0  0  0  0
    7.4047  -15.1205   20.8892 C   0  0  1  0  0  0  0  0  0  0  0  0
    7.6275  -13.6289   20.7462 C   0  0  0  0  0  0  0  0  0  0  0  0
    7.6383  -13.3315   19.2615 C   0  0  0  0  0  0  0  0  0  0  0  0
    8.9071  -13.8488   18.6078 C   0  0  0  0  0  0  0  0  0  0  0  0
    8.9200  -13.5494   17.1109 C   0  0  0  0  0  0  0  0  0  0  0  0
   10.2032  -14.0454   16.6030 N   0  0  0  0  0  0  0  0  0  0  0  0
    7.4871  -15.5637   22.3061 C   0  0  0  0  0  0  0  0  0  0  0  0
    6.5734  -15.2521   23.1118 O   0  0  0  0  0  0  0  0  0  0  0  0
    9.4420  -17.9086   24.3894 C   0  0  0  0  0  0  0  0  0  0  0  0
    8.6274  -16.6468   24.2033 C   0  0  2  0  0  0  0  0  0  0  0  0
    8.5690  -16.3376   22.8052 N   0  0  0  0  0  0  0  0  0  0  0  0
    9.1661  -15.5239   25.0134 C   0  0  0  0  0  0  0  0  0  0  0  0
   10.2856  -15.0604   24.6976 O   0  0  0  0  0  0  0  0  0  0  0  0
    8.4816  -14.9607   26.1116 N   0  0  0  0  0  0  0  0  0  0  0  0
    9.0468  -13.9531   26.9858 C   0  0  1  0  0  0  0  0  0  0  0  0
    7.8733  -13.1668   27.5718 C   0  0  0  0  0  0  0  0  0  0  0  0
    6.9121  -12.3770   26.2484 S   0  0  0  0  0  0  0  0  0  0  0  0
    9.7743  -14.5406   28.1262 C   0  0  0  0  0  0  0  0  0  0  0  0
    9.7437  -15.7753   28.2956 O   0  0  0  0  0  0  0  0  0  0  0  0
   10.4841  -13.7533   29.0040 O   0  0  0  0  0  0  0  0  0  0  0  0
  2  1  1  1
  2  8  1  0
  3  2  1  0
  4  3  1  0
  4  5  1  0
  6  5  1  0
  7  6  1  0
  8  9  2  0
 11 10  1  6
 12  8  1  0
 12 11  1  0
 13 11  1  0
 13 15  1  0
 14 13  2  0
 16 19  1  0
 16 15  1  0
 16 17  1  1
 18 17  1  0
 19 21  1  0
 20 19  2  0
M  END
$$$$
