KAC.pdb
     RDKit          3D

 21 20  0  0  1  0  0  0  0  0999 V2000
    9.4094  -17.7188   20.5078 N   0  0  0  0  0  0  0  0  0  0  0  0
   10.4567  -17.4982   21.4652 C   0  0  1  0  0  0  0  0  0  0  0  0
   11.4153  -16.4246   20.9923 C   0  0  0  0  0  0  0  0  0  0  0  0
   12.1264  -16.9816   19.7769 C   0  0  0  0  0  0  0  0  0  0  0  0
   13.4648  -17.5898   20.1555 C   0  0  0  0  0  0  0  0  0  0  0  0
   14.2406  -18.0337   18.9179 C   0  0  0  0  0  0  0  0  0  0  0  0
   15.5067  -18.5917   19.4040 N   0  0  0  0  0  0  0  0  0  0  0  0
    9.9197  -17.2089   22.8212 C   0  0  0  0  0  0  0  0  0  0  0  0
    9.0463  -16.3165   22.9694 O   0  0  0  0  0  0  0  0  0  0  0  0
    9.9687  -18.7798   26.1784 C   0  0  0  0  0  0  0  0  0  0  0  0
    9.7506  -17.6069   25.2471 C   0  0  2  0  0  0  0  0  0  0  0  0
   10.3531  -17.9048   23.9815 N   0  0  0  0  0  0  0  0  0  0  0  0
   10.2571  -16.3401   25.8355 C   0  0  0  0  0  0  0  0  0  0  0  0
   11.4542  -16.0376   25.6283 O   0  0  0  0  0  0  0  0  0  0  0  0
    9.4595  -15.4704   26.6096 N   0  0  0  0  0  0  0  0  0  0  0  0
    9.9687  -14.2961   27.2883 C   0  0  1  0  0  0  0  0  0  0  0  0
    8.7658  -13.3991   27.5837 C   0  0  0  0  0  0  0  0  0  0  0  0
    7.8980  -12.9713   26.0466 S   0  0  0  0  0  0  0  0  0  0  0  0
   10.5849  -14.6196   28.5885 C   0  0  0  0  0  0  0  0  0  0  0  0
   10.4944  -15.7814   29.0317 O   0  0  0  0  0  0  0  0  0  0  0  0
   11.2558  -13.6657   29.3193 O   0  0  0  0  0  0  0  0  0  0  0  0
  2  1  1  6
  2  8  1  0
  3  2  1  0
  4  3  1  0
  4  5  1  0
  6  5  1  0
  7  6  1  0
  8  9  2  0
 11 10  1  1
 12  8  1  0
 12 11  1  0
 13 11  1  0
 13 15  1  0
 14 13  2  0
 16 19  1  0
 16 15  1  0
 16 17  1  1
 18 17  1  0
 19 21  1  0
 20 19  2  0
M  END
$$$$
