KAC.pdb
     RDKit          3D

 21 20  0  0  1  0  0  0  0  0999 V2000
    8.9618  -17.9799   15.2360 N   0  0  0  0  0  0  0  0  0  0  0  0
    9.0188  -19.1169   16.1113 C   0  0  1  0  0  0  0  0  0  0  0  0
   10.2149  -19.9920   15.7974 C   0  0  0  0  0  0  0  0  0  0  0  0
    9.9873  -20.5582   14.4115 C   0  0  0  0  0  0  0  0  0  0  0  0
   11.0928  -21.5246   14.0258 C   0  0  0  0  0  0  0  0  0  0  0  0
   11.0415  -22.7917   14.8757 C   0  0  0  0  0  0  0  0  0  0  0  0
   12.1021  -23.6694   14.3706 N   0  0  0  0  0  0  0  0  0  0  0  0
    8.9787  -18.7195   17.5436 C   0  0  0  0  0  0  0  0  0  0  0  0
    9.6164  -17.7063   17.9283 O   0  0  0  0  0  0  0  0  0  0  0  0
    7.1199  -19.7190   20.6183 C   0  0  0  0  0  0  0  0  0  0  0  0
    8.1869  -18.9542   19.8653 C   0  0  2  0  0  0  0  0  0  0  0  0
    8.2407  -19.4423   18.5190 N   0  0  0  0  0  0  0  0  0  0  0  0
    9.5021  -19.0308   20.5524 C   0  0  0  0  0  0  0  0  0  0  0  0
   10.3373  -19.8594   20.1240 O   0  0  0  0  0  0  0  0  0  0  0  0
    9.8503  -18.2211   21.6546 N   0  0  0  0  0  0  0  0  0  0  0  0
   11.1036  -18.3299   22.3733 C   0  0  1  0  0  0  0  0  0  0  0  0
   11.5831  -16.9034   22.6453 C   0  0  0  0  0  0  0  0  0  0  0  0
   10.3234  -15.9729   23.5651 S   0  0  0  0  0  0  0  0  0  0  0  0
   10.9449  -18.9808   23.6871 C   0  0  0  0  0  0  0  0  0  0  0  0
   11.9607  -19.2609   24.3532 O   0  0  0  0  0  0  0  0  0  0  0  0
    9.7000  -19.2838   24.1895 O   0  0  0  0  0  0  0  0  0  0  0  0
  2  1  1  6
  2  8  1  0
  3  2  1  0
  4  3  1  0
  4  5  1  0
  6  5  1  0
  7  6  1  0
  8  9  2  0
 11 10  1  1
 12  8  1  0
 12 11  1  0
 13 11  1  0
 13 15  1  0
 14 13  2  0
 16 19  1  0
 16 15  1  0
 16 17  1  1
 18 17  1  0
 19 21  1  0
 20 19  2  0
M  END
$$$$
