KAC.pdb
     RDKit          3D

 21 20  0  0  1  0  0  0  0  0999 V2000
    8.3969  -16.1491   20.2558 N   0  0  0  0  0  0  0  0  0  0  0  0
    7.9166  -14.9280   20.8392 C   0  0  1  0  0  0  0  0  0  0  0  0
    6.7288  -14.3835   20.0727 C   0  0  0  0  0  0  0  0  0  0  0  0
    7.2879  -13.6087   18.8978 C   0  0  0  0  0  0  0  0  0  0  0  0
    7.9613  -14.5346   17.9009 C   0  0  0  0  0  0  0  0  0  0  0  0
    8.5951  -13.7482   16.7562 C   0  0  0  0  0  0  0  0  0  0  0  0
    9.2525  -14.7350   15.8933 N   0  0  0  0  0  0  0  0  0  0  0  0
    7.6227  -15.0813   22.2887 C   0  0  0  0  0  0  0  0  0  0  0  0
    7.1554  -14.1105   22.9369 O   0  0  0  0  0  0  0  0  0  0  0  0
    7.6961  -17.8006   24.8494 C   0  0  0  0  0  0  0  0  0  0  0  0
    7.5333  -16.3684   24.3881 C   0  0  2  0  0  0  0  0  0  0  0  0
    7.8481  -16.2950   22.9920 N   0  0  0  0  0  0  0  0  0  0  0  0
    8.3494  -15.4345   25.2063 C   0  0  0  0  0  0  0  0  0  0  0  0
    9.5905  -15.4456   25.0417 O   0  0  0  0  0  0  0  0  0  0  0  0
    7.7962  -14.5440   26.1512 N   0  0  0  0  0  0  0  0  0  0  0  0
    8.5842  -13.7559   27.0769 C   0  0  1  0  0  0  0  0  0  0  0  0
    7.6932  -12.6061   27.5492 C   0  0  0  0  0  0  0  0  0  0  0  0
    6.5826  -12.0720   26.2150 S   0  0  0  0  0  0  0  0  0  0  0  0
    8.9669  -14.5169   28.2808 C   0  0  0  0  0  0  0  0  0  0  0  0
    8.5018  -15.6611   28.4498 O   0  0  0  0  0  0  0  0  0  0  0  0
    9.8251  -13.9887   29.2181 O   0  0  0  0  0  0  0  0  0  0  0  0
  2  1  1  6
  2  8  1  0
  3  2  1  0
  4  3  1  0
  4  5  1  0
  6  5  1  0
  7  6  1  0
  8  9  2  0
 11 10  1  1
 12  8  1  0
 12 11  1  0
 13 11  1  0
 13 15  1  0
 14 13  2  0
 16 19  1  0
 16 15  1  0
 16 17  1  1
 18 17  1  0
 19 21  1  0
 20 19  2  0
M  END
$$$$
