KAC.pdb
     RDKit          3D

 21 20  0  0  1  0  0  0  0  0999 V2000
    4.9901  -18.1261   23.0859 N   0  0  0  0  0  0  0  0  0  0  0  0
    6.3751  -18.4850   22.9623 C   0  0  1  0  0  0  0  0  0  0  0  0
    6.5481  -19.7148   22.0948 C   0  0  0  0  0  0  0  0  0  0  0  0
    5.3692  -20.6201   22.3840 C   0  0  0  0  0  0  0  0  0  0  0  0
    5.6964  -21.6109   23.4867 C   0  0  0  0  0  0  0  0  0  0  0  0
    4.5388  -22.5776   23.7232 C   0  0  0  0  0  0  0  0  0  0  0  0
    4.9025  -23.3756   24.8986 N   0  0  0  0  0  0  0  0  0  0  0  0
    7.2052  -17.3462   22.4881 C   0  0  0  0  0  0  0  0  0  0  0  0
    8.4532  -17.4756   22.4048 O   0  0  0  0  0  0  0  0  0  0  0  0
    6.7384  -13.9881   20.9773 C   0  0  0  0  0  0  0  0  0  0  0  0
    7.5184  -15.0068   21.7798 C   0  0  2  0  0  0  0  0  0  0  0  0
    6.6471  -16.0936   22.1168 N   0  0  0  0  0  0  0  0  0  0  0  0
    8.1517  -14.3923   22.9752 C   0  0  0  0  0  0  0  0  0  0  0  0
    9.0020  -13.4925   22.7880 O   0  0  0  0  0  0  0  0  0  0  0  0
    7.8425  -14.7718   24.2989 N   0  0  0  0  0  0  0  0  0  0  0  0
    8.5220  -14.2521   25.4682 C   0  0  1  0  0  0  0  0  0  0  0  0
    7.4417  -13.6982   26.3982 C   0  0  0  0  0  0  0  0  0  0  0  0
    8.1810  -13.0907   27.9420 S   0  0  0  0  0  0  0  0  0  0  0  0
    9.2307  -15.3033   26.2216 C   0  0  0  0  0  0  0  0  0  0  0  0
   10.0508  -14.9732   27.1005 O   0  0  0  0  0  0  0  0  0  0  0  0
    9.0040  -16.6378   25.9729 O   0  0  0  0  0  0  0  0  0  0  0  0
  2  1  1  6
  2  8  1  0
  3  2  1  0
  4  3  1  0
  4  5  1  0
  6  5  1  0
  7  6  1  0
  8  9  2  0
 11 10  1  1
 12  8  1  0
 12 11  1  0
 13 11  1  0
 13 15  1  0
 14 13  2  0
 16 19  1  0
 16 15  1  0
 16 17  1  1
 18 17  1  0
 19 21  1  0
 20 19  2  0
M  END
$$$$
