KAC.pdb
     RDKit          3D

 21 20  0  0  1  0  0  0  0  0999 V2000
    7.4078  -16.8547   20.1450 N   0  0  0  0  0  0  0  0  0  0  0  0
    8.2925  -15.9194   20.7814 C   0  0  1  0  0  0  0  0  0  0  0  0
    8.3188  -14.5979   20.0411 C   0  0  0  0  0  0  0  0  0  0  0  0
    7.5743  -14.8136   18.7402 C   0  0  0  0  0  0  0  0  0  0  0  0
    7.2073  -13.4905   18.0926 C   0  0  0  0  0  0  0  0  0  0  0  0
    8.3759  -12.9243   17.2900 C   0  0  0  0  0  0  0  0  0  0  0  0
    8.3985  -13.6596   16.0214 N   0  0  0  0  0  0  0  0  0  0  0  0
    7.9746  -15.7449   22.2234 C   0  0  0  0  0  0  0  0  0  0  0  0
    7.3978  -14.6977   22.6132 O   0  0  0  0  0  0  0  0  0  0  0  0
    7.3302  -17.6522   25.1880 C   0  0  0  0  0  0  0  0  0  0  0  0
    8.0255  -16.4515   24.5836 C   0  0  2  0  0  0  0  0  0  0  0  0
    8.2968  -16.7224   23.2027 N   0  0  0  0  0  0  0  0  0  0  0  0
    9.2490  -16.0881   25.3442 C   0  0  0  0  0  0  0  0  0  0  0  0
   10.3300  -16.6171   24.9988 O   0  0  0  0  0  0  0  0  0  0  0  0
    9.2495  -15.1833   26.4273 N   0  0  0  0  0  0  0  0  0  0  0  0
   10.4259  -14.8577   27.2078 C   0  0  1  0  0  0  0  0  0  0  0  0
   10.1799  -13.4806   27.8256 C   0  0  0  0  0  0  0  0  0  0  0  0
    8.3996  -13.1820   28.0269 S   0  0  0  0  0  0  0  0  0  0  0  0
   10.6351  -15.7931   28.3285 C   0  0  0  0  0  0  0  0  0  0  0  0
    9.7645  -16.6507   28.5750 O   0  0  0  0  0  0  0  0  0  0  0  0
   11.7703  -15.7370   29.1046 O   0  0  0  0  0  0  0  0  0  0  0  0
  2  1  1  6
  2  8  1  0
  3  2  1  0
  4  3  1  0
  4  5  1  0
  6  5  1  0
  7  6  1  0
  8  9  2  0
 11 10  1  1
 12  8  1  0
 12 11  1  0
 13 11  1  0
 13 15  1  0
 14 13  2  0
 16 19  1  0
 16 15  1  0
 16 17  1  1
 18 17  1  0
 19 21  1  0
 20 19  2  0
M  END
$$$$
