KAC.pdb
     RDKit          3D

 21 20  0  0  1  0  0  0  0  0999 V2000
    7.8131  -18.7236   20.8426 N   0  0  0  0  0  0  0  0  0  0  0  0
    7.3313  -17.8363   21.8638 C   0  0  1  0  0  0  0  0  0  0  0  0
    7.4502  -18.4643   23.2373 C   0  0  0  0  0  0  0  0  0  0  0  0
    6.5423  -19.6762   23.2412 C   0  0  0  0  0  0  0  0  0  0  0  0
    6.5697  -20.3774   24.5874 C   0  0  0  0  0  0  0  0  0  0  0  0
    5.6855  -21.6219   24.5811 C   0  0  0  0  0  0  0  0  0  0  0  0
    5.8893  -22.2782   25.8765 N   0  0  0  0  0  0  0  0  0  0  0  0
    7.9894  -16.5045   21.8002 C   0  0  0  0  0  0  0  0  0  0  0  0
    9.2440  -16.4261   21.8309 O   0  0  0  0  0  0  0  0  0  0  0  0
    7.0753  -12.9687   21.1456 C   0  0  0  0  0  0  0  0  0  0  0  0
    7.9550  -14.0410   21.7512 C   0  0  2  0  0  0  0  0  0  0  0  0
    7.2562  -15.2914   21.7045 N   0  0  0  0  0  0  0  0  0  0  0  0
    8.3878  -13.6810   23.1262 C   0  0  0  0  0  0  0  0  0  0  0  0
    9.2544  -12.7858   23.2500 O   0  0  0  0  0  0  0  0  0  0  0  0
    7.8727  -14.2949   24.2879 N   0  0  0  0  0  0  0  0  0  0  0  0
    8.3585  -14.0276   25.6263 C   0  0  1  0  0  0  0  0  0  0  0  0
    7.4534  -12.9463   26.2181 C   0  0  0  0  0  0  0  0  0  0  0  0
    5.7110  -13.4491   26.1168 S   0  0  0  0  0  0  0  0  0  0  0  0
    8.2483  -15.2026   26.5108 C   0  0  0  0  0  0  0  0  0  0  0  0
    7.6930  -16.2341   26.0845 O   0  0  0  0  0  0  0  0  0  0  0  0
    8.7455  -15.1812   27.7939 O   0  0  0  0  0  0  0  0  0  0  0  0
  2  1  1  6
  2  8  1  0
  3  2  1  0
  4  3  1  0
  4  5  1  0
  6  5  1  0
  7  6  1  0
  8  9  2  0
 11 10  1  1
 12  8  1  0
 12 11  1  0
 13 11  1  0
 13 15  1  0
 14 13  2  0
 16 19  1  0
 16 15  1  0
 16 17  1  1
 18 17  1  0
 19 21  1  0
 20 19  2  0
M  END
$$$$
