KAC.pdb
     RDKit          3D

 21 20  0  0  1  0  0  0  0  0999 V2000
    7.7774  -13.1357   19.5371 N   0  0  0  0  0  0  0  0  0  0  0  0
    7.9969  -14.1853   20.4923 C   0  0  1  0  0  0  0  0  0  0  0  0
    9.2224  -15.0024   20.1380 C   0  0  0  0  0  0  0  0  0  0  0  0
    8.8906  -15.7541   18.8660 C   0  0  0  0  0  0  0  0  0  0  0  0
    8.5819  -17.2121   19.1555 C   0  0  0  0  0  0  0  0  0  0  0  0
    8.4334  -18.0131   17.8644 C   0  0  0  0  0  0  0  0  0  0  0  0
    8.0873  -19.3804   18.2657 N   0  0  0  0  0  0  0  0  0  0  0  0
    8.0550  -13.6675   21.8850 C   0  0  0  0  0  0  0  0  0  0  0  0
    8.8481  -12.7348   22.1716 O   0  0  0  0  0  0  0  0  0  0  0  0
    6.0994  -13.7808   24.9957 C   0  0  0  0  0  0  0  0  0  0  0  0
    7.4232  -13.7026   24.2666 C   0  0  2  0  0  0  0  0  0  0  0  0
    7.2423  -14.1848   22.9292 N   0  0  0  0  0  0  0  0  0  0  0  0
    8.4928  -14.4319   24.9957 C   0  0  0  0  0  0  0  0  0  0  0  0
    8.7465  -15.6053   24.6398 O   0  0  0  0  0  0  0  0  0  0  0  0
    9.2290  -13.8694   26.0603 N   0  0  0  0  0  0  0  0  0  0  0  0
   10.0150  -14.6452   26.9980 C   0  0  1  0  0  0  0  0  0  0  0  0
    9.9483  -13.9163   28.3408 C   0  0  0  0  0  0  0  0  0  0  0  0
   10.9775  -14.7617   29.5758 S   0  0  0  0  0  0  0  0  0  0  0  0
    9.4588  -15.9929   27.2198 C   0  0  0  0  0  0  0  0  0  0  0  0
    8.2450  -16.1147   27.4767 O   0  0  0  0  0  0  0  0  0  0  0  0
   10.2525  -17.1149   27.1486 O   0  0  0  0  0  0  0  0  0  0  0  0
  2  1  1  6
  2  8  1  0
  3  2  1  0
  4  3  1  0
  4  5  1  0
  6  5  1  0
  7  6  1  0
  8  9  2  0
 11 10  1  1
 12  8  1  0
 12 11  1  0
 13 11  1  0
 13 15  1  0
 14 13  2  0
 16 19  1  0
 16 15  1  0
 16 17  1  1
 18 17  1  0
 19 21  1  0
 20 19  2  0
M  END
$$$$
