KAC.pdb
     RDKit          3D

 21 20  0  0  1  0  0  0  0  0999 V2000
    9.1938  -15.8090   19.8023 N   0  0  0  0  0  0  0  0  0  0  0  0
    8.5306  -14.6143   20.2441 C   0  0  1  0  0  0  0  0  0  0  0  0
    7.5528  -14.1118   19.2018 C   0  0  0  0  0  0  0  0  0  0  0  0
    7.8925  -14.8228   17.9087 C   0  0  0  0  0  0  0  0  0  0  0  0
    8.1031  -13.8325   16.7775 C   0  0  0  0  0  0  0  0  0  0  0  0
    8.2657  -14.5482   15.4388 C   0  0  0  0  0  0  0  0  0  0  0  0
    8.3819  -13.4978   14.4221 N   0  0  0  0  0  0  0  0  0  0  0  0
    7.8871  -14.7935   21.5725 C   0  0  0  0  0  0  0  0  0  0  0  0
    7.2480  -13.8422   22.0899 O   0  0  0  0  0  0  0  0  0  0  0  0
    7.6323  -17.4624   24.1789 C   0  0  0  0  0  0  0  0  0  0  0  0
    7.5050  -16.0466   23.6597 C   0  0  2  0  0  0  0  0  0  0  0  0
    7.9599  -16.0110   22.3012 N   0  0  0  0  0  0  0  0  0  0  0  0
    8.2254  -15.0793   24.5275 C   0  0  0  0  0  0  0  0  0  0  0  0
    9.4618  -14.9612   24.3693 O   0  0  0  0  0  0  0  0  0  0  0  0
    7.5872  -14.2952   25.5121 N   0  0  0  0  0  0  0  0  0  0  0  0
    8.2847  -13.3850   26.3977 C   0  0  1  0  0  0  0  0  0  0  0  0
    7.3406  -12.2105   26.6583 C   0  0  0  0  0  0  0  0  0  0  0  0
    5.7032  -12.8104   27.1661 S   0  0  0  0  0  0  0  0  0  0  0  0
    8.5792  -13.9905   27.7098 C   0  0  0  0  0  0  0  0  0  0  0  0
    8.0789  -15.0963   27.9949 O   0  0  0  0  0  0  0  0  0  0  0  0
    9.3935  -13.3594   28.6222 O   0  0  0  0  0  0  0  0  0  0  0  0
  2  1  1  6
  2  8  1  0
  3  2  1  0
  4  3  1  0
  4  5  1  0
  6  5  1  0
  7  6  1  0
  8  9  2  0
 11 10  1  1
 12  8  1  0
 12 11  1  0
 13 11  1  0
 13 15  1  0
 14 13  2  0
 16 19  1  0
 16 15  1  0
 16 17  1  1
 18 17  1  0
 19 21  1  0
 20 19  2  0
M  END
$$$$
