AWQ.pdb
     RDKit          3D

 29 30  0  0  1  0  0  0  0  0999 V2000
    7.8981  -17.7234   20.0940 C   0  0  0  0  0  0  0  0  0  0  0  0
    7.4550  -16.4381   20.7657 C   0  0  2  0  0  0  0  0  0  0  0  0
    7.2987  -15.3692   19.7975 N   0  0  0  0  0  0  0  0  0  0  0  0
    8.4802  -16.0221   21.7601 C   0  0  0  0  0  0  0  0  0  0  0  0
    9.4136  -15.2773   21.3760 O   0  0  0  0  0  0  0  0  0  0  0  0
    8.4497  -16.4299   23.1217 N   0  0  0  0  0  0  0  0  0  0  0  0
    9.3864  -15.8954   24.0910 C   0  0  1  0  0  0  0  0  0  0  0  0
    8.8603  -16.0404   25.5004 C   0  0  0  0  0  0  0  0  0  0  0  0
    7.6437  -15.2226   25.7108 C   0  0  0  0  0  0  0  0  0  0  0  0
    6.3416  -15.6553   25.7316 C   0  0  0  0  0  0  0  0  0  0  0  0
    5.5274  -14.5935   25.9501 N   0  0  0  0  0  0  0  0  0  0  0  0
    6.2877  -13.4878   26.0695 C   0  0  0  0  0  0  0  0  0  0  0  0
    5.9294  -12.1747   26.2963 C   0  0  0  0  0  0  0  0  0  0  0  0
    6.9300  -11.2072   26.3786 C   0  0  0  0  0  0  0  0  0  0  0  0
    8.2457  -11.5478   26.2377 C   0  0  0  0  0  0  0  0  0  0  0  0
    8.5781  -12.8668   26.0117 C   0  0  0  0  0  0  0  0  0  0  0  0
    7.6114  -13.8614   25.9229 C   0  0  0  0  0  0  0  0  0  0  0  0
   10.6531  -16.7022   24.0092 C   0  0  0  0  0  0  0  0  0  0  0  0
   10.5975  -17.9380   23.7620 O   0  0  0  0  0  0  0  0  0  0  0  0
   17.8491  -15.7920   23.3140 N   0  0  0  0  0  0  0  0  0  0  0  0
   16.5555  -15.9301   22.7737 C   0  0  0  0  0  0  0  0  0  0  0  0
   16.2415  -15.3171   21.7215 O   0  0  0  0  0  0  0  0  0  0  0  0
   15.5494  -16.7937   23.4177 C   0  0  0  0  0  0  0  0  0  0  0  0
   14.2132  -16.1471   23.4461 C   0  0  0  0  0  0  0  0  0  0  0  0
   13.1474  -16.9575   24.0781 C   0  0  2  0  0  0  0  0  0  0  0  0
   11.9216  -16.1151   24.2025 N   0  0  0  0  0  0  0  0  0  0  0  0
   13.3393  -17.5890   25.3594 C   0  0  0  0  0  0  0  0  0  0  0  0
   12.7446  -17.2047   26.3911 O   0  0  0  0  0  0  0  0  0  0  0  0
   14.2039  -18.6703   25.5193 O   0  0  0  0  0  0  0  0  0  0  0  0
  2  1  1  6
  2  4  1  0
  3  2  1  0
  4  5  2  0
  6  4  1  0
  6  7  1  0
  7  8  1  1
  9  8  1  0
 10  9  2  0
 11 12  1  0
 11 10  1  0
 12 17  2  0
 13 14  2  0
 13 12  1  0
 14 15  1  0
 15 16  2  0
 17 16  1  0
 17  9  1  0
 18  7  1  0
 18 19  2  0
 20 21  1  0
 21 22  2  0
 23 24  1  0
 23 21  1  0
 25 24  1  1
 25 26  1  0
 26 18  1  0
 27 29  1  0
 27 25  1  0
 28 27  2  0
M  END
$$$$
