AWQ.pdb
     RDKit          3D

 29 30  0  0  1  0  0  0  0  0999 V2000
    7.6616  -17.3464   19.9553 C   0  0  0  0  0  0  0  0  0  0  0  0
    7.1755  -16.1354   20.7279 C   0  0  2  0  0  0  0  0  0  0  0  0
    6.9716  -15.0008   19.8472 N   0  0  0  0  0  0  0  0  0  0  0  0
    8.1919  -15.7597   21.7470 C   0  0  0  0  0  0  0  0  0  0  0  0
    9.1437  -15.0228   21.3942 O   0  0  0  0  0  0  0  0  0  0  0  0
    8.1330  -16.1972   23.0984 N   0  0  0  0  0  0  0  0  0  0  0  0
    9.1682  -15.8462   24.0513 C   0  0  1  0  0  0  0  0  0  0  0  0
    8.6566  -15.9255   25.4713 C   0  0  0  0  0  0  0  0  0  0  0  0
    7.4797  -15.0492   25.6723 C   0  0  0  0  0  0  0  0  0  0  0  0
    6.1556  -15.3995   25.5881 C   0  0  0  0  0  0  0  0  0  0  0  0
    5.3935  -14.3063   25.8377 N   0  0  0  0  0  0  0  0  0  0  0  0
    6.2090  -13.2617   26.0803 C   0  0  0  0  0  0  0  0  0  0  0  0
    5.9154  -11.9477   26.3822 C   0  0  0  0  0  0  0  0  0  0  0  0
    6.9644  -11.0533   26.5913 C   0  0  0  0  0  0  0  0  0  0  0  0
    8.2638  -11.4654   26.5000 C   0  0  0  0  0  0  0  0  0  0  0  0
    8.5312  -12.7838   26.1970 C   0  0  0  0  0  0  0  0  0  0  0  0
    7.5147  -13.7069   25.9814 C   0  0  0  0  0  0  0  0  0  0  0  0
   10.2777  -16.8539   23.9266 C   0  0  0  0  0  0  0  0  0  0  0  0
   10.1175  -17.8816   23.2130 O   0  0  0  0  0  0  0  0  0  0  0  0
   13.5415  -16.9606   19.3400 N   0  0  0  0  0  0  0  0  0  0  0  0
   13.7705  -16.0104   20.3544 C   0  0  0  0  0  0  0  0  0  0  0  0
   13.7856  -14.7834   20.0791 O   0  0  0  0  0  0  0  0  0  0  0  0
   13.9888  -16.4258   21.7517 C   0  0  0  0  0  0  0  0  0  0  0  0
   12.7563  -16.2732   22.5652 C   0  0  0  0  0  0  0  0  0  0  0  0
   12.7820  -16.9808   23.8656 C   0  0  2  0  0  0  0  0  0  0  0  0
   11.5113  -16.6865   24.5911 N   0  0  0  0  0  0  0  0  0  0  0  0
   13.8485  -16.7783   24.8136 C   0  0  0  0  0  0  0  0  0  0  0  0
   15.0224  -17.1500   24.5905 O   0  0  0  0  0  0  0  0  0  0  0  0
   13.6282  -16.1524   26.0392 O   0  0  0  0  0  0  0  0  0  0  0  0
  2  1  1  6
  2  4  1  0
  3  2  1  0
  4  5  2  0
  6  4  1  0
  6  7  1  0
  7  8  1  1
  9  8  1  0
 10  9  2  0
 11 12  1  0
 11 10  1  0
 12 17  2  0
 13 14  2  0
 13 12  1  0
 14 15  1  0
 15 16  2  0
 17 16  1  0
 17  9  1  0
 18  7  1  0
 18 19  2  0
 20 21  1  0
 21 22  2  0
 23 24  1  0
 23 21  1  0
 25 24  1  6
 25 26  1  0
 26 18  1  0
 27 29  1  0
 27 25  1  0
 28 27  2  0
M  END
$$$$
