AWQ.pdb
     RDKit          3D

 29 30  0  0  1  0  0  0  0  0999 V2000
    8.4495  -15.0596   17.8194 C   0  0  0  0  0  0  0  0  0  0  0  0
    7.8695  -13.9315   18.6504 C   0  0  2  0  0  0  0  0  0  0  0  0
    8.3284  -12.6410   18.1727 N   0  0  0  0  0  0  0  0  0  0  0  0
    8.3025  -14.0876   20.0650 C   0  0  0  0  0  0  0  0  0  0  0  0
    9.4389  -13.6668   20.3890 O   0  0  0  0  0  0  0  0  0  0  0  0
    7.4888  -14.6906   21.0627 N   0  0  0  0  0  0  0  0  0  0  0  0
    7.8805  -14.6890   22.4589 C   0  0  1  0  0  0  0  0  0  0  0  0
    6.7623  -15.1912   23.3431 C   0  0  0  0  0  0  0  0  0  0  0  0
    7.0532  -14.9472   24.7746 C   0  0  0  0  0  0  0  0  0  0  0  0
    7.5438  -15.8439   25.6902 C   0  0  0  0  0  0  0  0  0  0  0  0
    7.6654  -15.2263   26.8909 N   0  0  0  0  0  0  0  0  0  0  0  0
    7.2603  -13.9482   26.7585 C   0  0  0  0  0  0  0  0  0  0  0  0
    7.1964  -12.9284   27.6857 C   0  0  0  0  0  0  0  0  0  0  0  0
    6.7314  -11.6776   27.2814 C   0  0  0  0  0  0  0  0  0  0  0  0
    6.3438  -11.4594   25.9895 C   0  0  0  0  0  0  0  0  0  0  0  0
    6.4170  -12.4948   25.0817 C   0  0  0  0  0  0  0  0  0  0  0  0
    6.8746  -13.7562   25.4442 C   0  0  0  0  0  0  0  0  0  0  0  0
    9.0318  -15.6430   22.6211 C   0  0  0  0  0  0  0  0  0  0  0  0
    8.9478  -16.8150   22.1621 O   0  0  0  0  0  0  0  0  0  0  0  0
   14.7383  -16.1261   20.6680 N   0  0  0  0  0  0  0  0  0  0  0  0
   13.4375  -15.7160   20.3154 C   0  0  0  0  0  0  0  0  0  0  0  0
   13.2562  -14.9881   19.3061 O   0  0  0  0  0  0  0  0  0  0  0  0
   12.2668  -16.1317   21.1088 C   0  0  0  0  0  0  0  0  0  0  0  0
   12.4515  -15.8336   22.5514 C   0  0  0  0  0  0  0  0  0  0  0  0
   11.3291  -16.2570   23.4192 C   0  0  2  0  0  0  0  0  0  0  0  0
   10.2216  -15.2662   23.2797 N   0  0  0  0  0  0  0  0  0  0  0  0
   11.5080  -16.4714   24.8332 C   0  0  0  0  0  0  0  0  0  0  0  0
   10.8698  -15.8256   25.6944 O   0  0  0  0  0  0  0  0  0  0  0  0
   12.4081  -17.4169   25.3211 O   0  0  0  0  0  0  0  0  0  0  0  0
  2  1  1  6
  2  4  1  0
  3  2  1  0
  4  5  2  0
  6  4  1  0
  6  7  1  0
  7  8  1  1
  9  8  1  0
 10  9  2  0
 11 12  1  0
 11 10  1  0
 12 17  2  0
 13 14  2  0
 13 12  1  0
 14 15  1  0
 15 16  2  0
 17 16  1  0
 17  9  1  0
 18  7  1  0
 18 19  2  0
 20 21  1  0
 21 22  2  0
 23 24  1  0
 23 21  1  0
 25 24  1  1
 25 26  1  0
 26 18  1  0
 27 29  1  0
 27 25  1  0
 28 27  2  0
M  END
$$$$
