AWQ.pdb
     RDKit          3D

 29 30  0  0  1  0  0  0  0  0999 V2000
    7.6843  -17.2366   19.7159 C   0  0  0  0  0  0  0  0  0  0  0  0
    6.9799  -16.2239   20.5979 C   0  0  2  0  0  0  0  0  0  0  0  0
    6.4201  -15.1432   19.8087 N   0  0  0  0  0  0  0  0  0  0  0  0
    7.9554  -15.6441   21.5597 C   0  0  0  0  0  0  0  0  0  0  0  0
    8.6720  -14.6884   21.1766 O   0  0  0  0  0  0  0  0  0  0  0  0
    8.1116  -16.1232   22.8890 N   0  0  0  0  0  0  0  0  0  0  0  0
    9.1403  -15.5970   23.7652 C   0  0  1  0  0  0  0  0  0  0  0  0
    8.7946  -15.8282   25.2182 C   0  0  0  0  0  0  0  0  0  0  0  0
    7.6315  -15.0114   25.6345 C   0  0  0  0  0  0  0  0  0  0  0  0
    6.3283  -15.4215   25.7638 C   0  0  0  0  0  0  0  0  0  0  0  0
    5.5727  -14.3694   26.1641 N   0  0  0  0  0  0  0  0  0  0  0  0
    6.3715  -13.2922   26.2930 C   0  0  0  0  0  0  0  0  0  0  0  0
    6.0764  -11.9988   26.6721 C   0  0  0  0  0  0  0  0  0  0  0  0
    7.1061  -11.0601   26.7252 C   0  0  0  0  0  0  0  0  0  0  0  0
    8.3883  -11.4096   26.4081 C   0  0  0  0  0  0  0  0  0  0  0  0
    8.6576  -12.7087   26.0322 C   0  0  0  0  0  0  0  0  0  0  0  0
    7.6601  -13.6743   25.9665 C   0  0  0  0  0  0  0  0  0  0  0  0
   10.4146  -16.3476   23.4914 C   0  0  0  0  0  0  0  0  0  0  0  0
   10.3704  -17.5660   23.1677 O   0  0  0  0  0  0  0  0  0  0  0  0
   16.7910  -14.2915   21.3922 N   0  0  0  0  0  0  0  0  0  0  0  0
   15.6663  -14.9952   20.9190 C   0  0  0  0  0  0  0  0  0  0  0  0
   15.2385  -14.7929   19.7539 O   0  0  0  0  0  0  0  0  0  0  0  0
   14.9734  -15.9822   21.7668 C   0  0  0  0  0  0  0  0  0  0  0  0
   13.6488  -15.4828   22.2143 C   0  0  0  0  0  0  0  0  0  0  0  0
   12.8837  -16.4291   23.0577 C   0  0  2  0  0  0  0  0  0  0  0  0
   11.6778  -15.7258   23.5858 N   0  0  0  0  0  0  0  0  0  0  0  0
   13.4899  -17.0980   24.1813 C   0  0  0  0  0  0  0  0  0  0  0  0
   14.3642  -17.9823   24.0422 O   0  0  0  0  0  0  0  0  0  0  0  0
   13.1323  -16.7931   25.4934 O   0  0  0  0  0  0  0  0  0  0  0  0
  2  1  1  6
  2  4  1  0
  3  2  1  0
  4  5  2  0
  6  4  1  0
  6  7  1  0
  7  8  1  1
  9  8  1  0
 10  9  2  0
 11 12  1  0
 11 10  1  0
 12 17  2  0
 13 14  2  0
 13 12  1  0
 14 15  1  0
 15 16  2  0
 17 16  1  0
 17  9  1  0
 18  7  1  0
 18 19  2  0
 20 21  1  0
 21 22  2  0
 23 24  1  0
 23 21  1  0
 25 24  1  1
 25 26  1  0
 26 18  1  0
 27 29  1  0
 27 25  1  0
 28 27  2  0
M  END
$$$$
