AWQ.pdb
     RDKit          3D

 29 30  0  0  1  0  0  0  0  0999 V2000
    7.7083  -16.9473   19.6911 C   0  0  0  0  0  0  0  0  0  0  0  0
    6.9978  -16.0503   20.6861 C   0  0  2  0  0  0  0  0  0  0  0  0
    6.4133  -14.8980   20.0266 N   0  0  0  0  0  0  0  0  0  0  0  0
    7.9744  -15.5648   21.6977 C   0  0  0  0  0  0  0  0  0  0  0  0
    8.6824  -14.5697   21.4112 O   0  0  0  0  0  0  0  0  0  0  0  0
    8.1407  -16.1761   22.9704 N   0  0  0  0  0  0  0  0  0  0  0  0
    9.1203  -15.6865   23.9209 C   0  0  1  0  0  0  0  0  0  0  0  0
    8.6503  -15.8833   25.3438 C   0  0  0  0  0  0  0  0  0  0  0  0
    7.4512  -15.0648   25.6360 C   0  0  0  0  0  0  0  0  0  0  0  0
    6.1447  -15.4831   25.6714 C   0  0  0  0  0  0  0  0  0  0  0  0
    5.3513  -14.4260   25.9732 N   0  0  0  0  0  0  0  0  0  0  0  0
    6.1292  -13.3375   26.1316 C   0  0  0  0  0  0  0  0  0  0  0  0
    5.7949  -12.0353   26.4422 C   0  0  0  0  0  0  0  0  0  0  0  0
    6.8101  -11.0855   26.5485 C   0  0  0  0  0  0  0  0  0  0  0  0
    8.1165  -11.4327   26.3495 C   0  0  0  0  0  0  0  0  0  0  0  0
    8.4249  -12.7406   26.0402 C   0  0  0  0  0  0  0  0  0  0  0  0
    7.4430  -13.7174   25.9248 C   0  0  0  0  0  0  0  0  0  0  0  0
   10.3758  -16.4980   23.7561 C   0  0  0  0  0  0  0  0  0  0  0  0
   10.3288  -17.7555   23.8442 O   0  0  0  0  0  0  0  0  0  0  0  0
   15.4545  -15.5928   19.8183 N   0  0  0  0  0  0  0  0  0  0  0  0
   14.3232  -14.9558   20.3645 C   0  0  0  0  0  0  0  0  0  0  0  0
   14.1479  -13.7224   20.1927 O   0  0  0  0  0  0  0  0  0  0  0  0
   13.3221  -15.7127   21.1378 C   0  0  0  0  0  0  0  0  0  0  0  0
   13.8152  -16.0354   22.5004 C   0  0  0  0  0  0  0  0  0  0  0  0
   12.8401  -16.7453   23.3590 C   0  0  2  0  0  0  0  0  0  0  0  0
   11.6244  -15.8913   23.5025 N   0  0  0  0  0  0  0  0  0  0  0  0
   13.1857  -17.1881   24.6864 C   0  0  0  0  0  0  0  0  0  0  0  0
   13.8191  -18.2469   24.8953 O   0  0  0  0  0  0  0  0  0  0  0  0
   12.8308  -16.4549   25.8172 O   0  0  0  0  0  0  0  0  0  0  0  0
  2  1  1  6
  2  4  1  0
  3  2  1  0
  4  5  2  0
  6  4  1  0
  6  7  1  0
  7  8  1  1
  9  8  1  0
 10  9  2  0
 11 12  1  0
 11 10  1  0
 12 17  2  0
 13 14  2  0
 13 12  1  0
 14 15  1  0
 15 16  2  0
 17 16  1  0
 17  9  1  0
 18  7  1  0
 18 19  2  0
 20 21  1  0
 21 22  2  0
 23 24  1  0
 23 21  1  0
 25 24  1  1
 25 26  1  0
 26 18  1  0
 27 29  1  0
 27 25  1  0
 28 27  2  0
M  END
$$$$
