AWQ.pdb
     RDKit          3D

 29 30  0  0  1  0  0  0  0  0999 V2000
   10.5773  -19.1947   20.2588 C   0  0  0  0  0  0  0  0  0  0  0  0
    9.5504  -18.0807   20.3234 C   0  0  2  0  0  0  0  0  0  0  0  0
    9.8194  -17.0634   19.3248 N   0  0  0  0  0  0  0  0  0  0  0  0
    9.5987  -17.4424   21.6661 C   0  0  0  0  0  0  0  0  0  0  0  0
   10.6327  -16.8086   21.9866 O   0  0  0  0  0  0  0  0  0  0  0  0
    8.5290  -17.5185   22.5995 N   0  0  0  0  0  0  0  0  0  0  0  0
    8.6052  -16.8622   23.8903 C   0  0  1  0  0  0  0  0  0  0  0  0
    7.2578  -16.3230   24.3122 C   0  0  0  0  0  0  0  0  0  0  0  0
    7.1797  -14.8558   24.1265 C   0  0  0  0  0  0  0  0  0  0  0  0
    7.2400  -14.1607   22.9448 C   0  0  0  0  0  0  0  0  0  0  0  0
    7.1338  -12.8348   23.2073 N   0  0  0  0  0  0  0  0  0  0  0  0
    7.0066  -12.6701   24.5383 C   0  0  0  0  0  0  0  0  0  0  0  0
    6.8684  -11.5208   25.2893 C   0  0  0  0  0  0  0  0  0  0  0  0
    6.7532  -11.6303   26.6745 C   0  0  0  0  0  0  0  0  0  0  0  0
    6.7762  -12.8529   27.2840 C   0  0  0  0  0  0  0  0  0  0  0  0
    6.9154  -13.9866   26.5115 C   0  0  0  0  0  0  0  0  0  0  0  0
    7.0331  -13.9209   25.1282 C   0  0  0  0  0  0  0  0  0  0  0  0
    9.0075  -17.8895   24.9125 C   0  0  0  0  0  0  0  0  0  0  0  0
    8.6187  -19.0835   24.7919 O   0  0  0  0  0  0  0  0  0  0  0  0
   12.7448  -21.2036   24.4078 N   0  0  0  0  0  0  0  0  0  0  0  0
   13.1709  -19.8686   24.5510 C   0  0  0  0  0  0  0  0  0  0  0  0
   14.2090  -19.4701   23.9635 O   0  0  0  0  0  0  0  0  0  0  0  0
   12.4143  -18.9124   25.3794 C   0  0  0  0  0  0  0  0  0  0  0  0
   11.1993  -19.5365   25.9610 C   0  0  0  0  0  0  0  0  0  0  0  0
   10.4119  -18.6492   26.8469 C   0  0  2  0  0  0  0  0  0  0  0  0
    9.8178  -17.5584   26.0194 N   0  0  0  0  0  0  0  0  0  0  0  0
   11.0044  -18.0120   27.9959 C   0  0  0  0  0  0  0  0  0  0  0  0
   11.1290  -16.7699   28.0828 O   0  0  0  0  0  0  0  0  0  0  0  0
   11.4737  -18.7506   29.0806 O   0  0  0  0  0  0  0  0  0  0  0  0
  2  1  1  1
  2  4  1  0
  3  2  1  0
  4  5  2  0
  6  4  1  0
  6  7  1  0
  7  8  1  1
  9  8  1  0
 10  9  2  0
 11 12  1  0
 11 10  1  0
 12 17  2  0
 13 14  2  0
 13 12  1  0
 14 15  1  0
 15 16  2  0
 17 16  1  0
 17  9  1  0
 18  7  1  0
 18 19  2  0
 20 21  1  0
 21 22  2  0
 23 24  1  0
 23 21  1  0
 25 24  1  6
 25 26  1  0
 26 18  1  0
 27 29  1  0
 27 25  1  0
 28 27  2  0
M  END
$$$$
