AWQ.pdb
     RDKit          3D

 29 30  0  0  1  0  0  0  0  0999 V2000
    7.8561  -15.5290   19.3584 C   0  0  0  0  0  0  0  0  0  0  0  0
    7.3515  -14.4997   20.3512 C   0  0  2  0  0  0  0  0  0  0  0  0
    7.3023  -13.1783   19.7546 N   0  0  0  0  0  0  0  0  0  0  0  0
    8.2693  -14.4509   21.5208 C   0  0  0  0  0  0  0  0  0  0  0  0
    9.1920  -13.6011   21.5178 O   0  0  0  0  0  0  0  0  0  0  0  0
    8.1481  -15.3215   22.6381 N   0  0  0  0  0  0  0  0  0  0  0  0
    9.0974  -15.2807   23.7335 C   0  0  1  0  0  0  0  0  0  0  0  0
    8.4924  -15.8307   25.0047 C   0  0  0  0  0  0  0  0  0  0  0  0
    7.3064  -15.0482   25.4224 C   0  0  0  0  0  0  0  0  0  0  0  0
    5.9918  -15.4395   25.3784 C   0  0  0  0  0  0  0  0  0  0  0  0
    5.2159  -14.4320   25.8483 N   0  0  0  0  0  0  0  0  0  0  0  0
    6.0130  -13.4018   26.1925 C   0  0  0  0  0  0  0  0  0  0  0  0
    5.7007  -12.1636   26.7152 C   0  0  0  0  0  0  0  0  0  0  0  0
    6.7329  -11.2663   26.9864 C   0  0  0  0  0  0  0  0  0  0  0  0
    8.0343  -11.6020   26.7405 C   0  0  0  0  0  0  0  0  0  0  0  0
    8.3205  -12.8455   26.2178 C   0  0  0  0  0  0  0  0  0  0  0  0
    7.3212  -13.7686   25.9335 C   0  0  0  0  0  0  0  0  0  0  0  0
   10.2576  -16.1694   23.3782 C   0  0  0  0  0  0  0  0  0  0  0  0
   10.0558  -17.3771   23.0747 O   0  0  0  0  0  0  0  0  0  0  0  0
   13.5025  -15.4089   18.8623 N   0  0  0  0  0  0  0  0  0  0  0  0
   13.9828  -14.9220   20.0938 C   0  0  0  0  0  0  0  0  0  0  0  0
   15.1257  -14.4021   20.1652 O   0  0  0  0  0  0  0  0  0  0  0  0
   13.1632  -15.0022   21.3163 C   0  0  0  0  0  0  0  0  0  0  0  0
   13.7178  -15.9844   22.2816 C   0  0  0  0  0  0  0  0  0  0  0  0
   12.7086  -16.6458   23.1397 C   0  0  2  0  0  0  0  0  0  0  0  0
   11.5852  -15.6912   23.3728 N   0  0  0  0  0  0  0  0  0  0  0  0
   13.0546  -17.1901   24.4286 C   0  0  0  0  0  0  0  0  0  0  0  0
   12.5490  -16.7664   25.4920 O   0  0  0  0  0  0  0  0  0  0  0  0
   13.9777  -18.2258   24.5610 O   0  0  0  0  0  0  0  0  0  0  0  0
  2  1  1  6
  2  4  1  0
  3  2  1  0
  4  5  2  0
  6  4  1  0
  6  7  1  0
  7  8  1  1
  9  8  1  0
 10  9  2  0
 11 12  1  0
 11 10  1  0
 12 17  2  0
 13 14  2  0
 13 12  1  0
 14 15  1  0
 15 16  2  0
 17 16  1  0
 17  9  1  0
 18  7  1  0
 18 19  2  0
 20 21  1  0
 21 22  2  0
 23 24  1  0
 23 21  1  0
 25 24  1  1
 25 26  1  0
 26 18  1  0
 27 29  1  0
 27 25  1  0
 28 27  2  0
M  END
$$$$
