AWQ.pdb
     RDKit          3D

 29 30  0  0  1  0  0  0  0  0999 V2000
    6.9034  -13.6984   20.1125 C   0  0  0  0  0  0  0  0  0  0  0  0
    7.5365  -15.0470   20.3955 C   0  0  2  0  0  0  0  0  0  0  0  0
    6.5358  -16.0235   20.7821 N   0  0  0  0  0  0  0  0  0  0  0  0
    8.5115  -14.9100   21.5106 C   0  0  0  0  0  0  0  0  0  0  0  0
    9.4807  -14.1279   21.3606 O   0  0  0  0  0  0  0  0  0  0  0  0
    8.3946  -15.6237   22.7346 N   0  0  0  0  0  0  0  0  0  0  0  0
    9.3809  -15.4824   23.7881 C   0  0  1  0  0  0  0  0  0  0  0  0
    8.8350  -15.9507   25.1174 C   0  0  0  0  0  0  0  0  0  0  0  0
    7.6672  -15.1427   25.5378 C   0  0  0  0  0  0  0  0  0  0  0  0
    6.3571  -15.5449   25.6084 C   0  0  0  0  0  0  0  0  0  0  0  0
    5.5992  -14.5055   26.0363 N   0  0  0  0  0  0  0  0  0  0  0  0
    6.4034  -13.4441   26.2409 C   0  0  0  0  0  0  0  0  0  0  0  0
    6.1086  -12.1673   26.6731 C   0  0  0  0  0  0  0  0  0  0  0  0
    7.1447  -11.2431   26.8021 C   0  0  0  0  0  0  0  0  0  0  0  0
    8.4327  -11.5904   26.5068 C   0  0  0  0  0  0  0  0  0  0  0  0
    8.7015  -12.8727   26.0767 C   0  0  0  0  0  0  0  0  0  0  0  0
    7.6978  -13.8235   25.9348 C   0  0  0  0  0  0  0  0  0  0  0  0
   10.5490  -16.3695   23.4552 C   0  0  0  0  0  0  0  0  0  0  0  0
   10.3658  -17.4326   22.8013 O   0  0  0  0  0  0  0  0  0  0  0  0
   13.7132  -13.7645   19.8853 N   0  0  0  0  0  0  0  0  0  0  0  0
   14.7067  -14.7281   20.1475 C   0  0  0  0  0  0  0  0  0  0  0  0
   15.7877  -14.7122   19.5050 O   0  0  0  0  0  0  0  0  0  0  0  0
   14.5093  -15.7649   21.1765 C   0  0  0  0  0  0  0  0  0  0  0  0
   13.3107  -15.4877   22.0075 C   0  0  0  0  0  0  0  0  0  0  0  0
   13.0168  -16.5157   23.0317 C   0  0  2  0  0  0  0  0  0  0  0  0
   11.8634  -16.0485   23.8556 N   0  0  0  0  0  0  0  0  0  0  0  0
   14.0240  -16.9660   23.9591 C   0  0  0  0  0  0  0  0  0  0  0  0
   14.9540  -17.7309   23.6185 O   0  0  0  0  0  0  0  0  0  0  0  0
   14.0166  -16.5703   25.2955 O   0  0  0  0  0  0  0  0  0  0  0  0
  2  1  1  1
  2  4  1  0
  3  2  1  0
  4  5  2  0
  6  4  1  0
  6  7  1  0
  7  8  1  1
  9  8  1  0
 10  9  2  0
 11 12  1  0
 11 10  1  0
 12 17  2  0
 13 14  2  0
 13 12  1  0
 14 15  1  0
 15 16  2  0
 17 16  1  0
 17  9  1  0
 18  7  1  0
 18 19  2  0
 20 21  1  0
 21 22  2  0
 23 24  1  0
 23 21  1  0
 25 24  1  1
 25 26  1  0
 26 18  1  0
 27 29  1  0
 27 25  1  0
 28 27  2  0
M  END
$$$$
