AWQ.pdb
     RDKit          3D

 29 30  0  0  1  0  0  0  0  0999 V2000
    6.2609  -14.4551   20.7324 C   0  0  0  0  0  0  0  0  0  0  0  0
    7.2227  -15.6201   20.8647 C   0  0  2  0  0  0  0  0  0  0  0  0
    6.5207  -16.8402   21.2153 N   0  0  0  0  0  0  0  0  0  0  0  0
    8.2111  -15.3246   21.9364 C   0  0  0  0  0  0  0  0  0  0  0  0
    8.9152  -14.2921   21.8280 O   0  0  0  0  0  0  0  0  0  0  0  0
    8.3928  -16.1574   23.0742 N   0  0  0  0  0  0  0  0  0  0  0  0
    9.3139  -15.7965   24.1345 C   0  0  1  0  0  0  0  0  0  0  0  0
    8.7123  -16.0570   25.4963 C   0  0  0  0  0  0  0  0  0  0  0  0
    7.4943  -15.2434   25.7146 C   0  0  0  0  0  0  0  0  0  0  0  0
    6.1890  -15.6405   25.5668 C   0  0  0  0  0  0  0  0  0  0  0  0
    5.3748  -14.5969   25.8603 N   0  0  0  0  0  0  0  0  0  0  0  0
    6.1382  -13.5380   26.1935 C   0  0  0  0  0  0  0  0  0  0  0  0
    5.7809  -12.2589   26.5678 C   0  0  0  0  0  0  0  0  0  0  0  0
    6.7849  -11.3383   26.8655 C   0  0  0  0  0  0  0  0  0  0  0  0
    8.1026  -11.6912   26.7896 C   0  0  0  0  0  0  0  0  0  0  0  0
    8.4339  -12.9758   26.4132 C   0  0  0  0  0  0  0  0  0  0  0  0
    7.4639  -13.9232   26.1082 C   0  0  0  0  0  0  0  0  0  0  0  0
   10.5292  -16.6746   24.0152 C   0  0  0  0  0  0  0  0  0  0  0  0
   10.4373  -17.9114   24.2455 O   0  0  0  0  0  0  0  0  0  0  0  0
   15.8712  -16.2677   20.3796 N   0  0  0  0  0  0  0  0  0  0  0  0
   14.6552  -15.5885   20.5904 C   0  0  0  0  0  0  0  0  0  0  0  0
   14.4695  -14.4529   20.0832 O   0  0  0  0  0  0  0  0  0  0  0  0
   13.5775  -16.1891   21.3971 C   0  0  0  0  0  0  0  0  0  0  0  0
   14.0224  -16.4592   22.7875 C   0  0  0  0  0  0  0  0  0  0  0  0
   12.9850  -17.0463   23.6657 C   0  0  2  0  0  0  0  0  0  0  0  0
   11.7886  -16.1541   23.6488 N   0  0  0  0  0  0  0  0  0  0  0  0
   13.2501  -17.3457   25.0505 C   0  0  0  0  0  0  0  0  0  0  0  0
   13.6220  -18.4782   25.4313 O   0  0  0  0  0  0  0  0  0  0  0  0
   13.1059  -16.3825   26.0473 O   0  0  0  0  0  0  0  0  0  0  0  0
  2  1  1  1
  2  4  1  0
  3  2  1  0
  4  5  2  0
  6  4  1  0
  6  7  1  0
  7  8  1  1
  9  8  1  0
 10  9  2  0
 11 12  1  0
 11 10  1  0
 12 17  2  0
 13 14  2  0
 13 12  1  0
 14 15  1  0
 15 16  2  0
 17 16  1  0
 17  9  1  0
 18  7  1  0
 18 19  2  0
 20 21  1  0
 21 22  2  0
 23 24  1  0
 23 21  1  0
 25 24  1  1
 25 26  1  0
 26 18  1  0
 27 29  1  0
 27 25  1  0
 28 27  2  0
M  END
$$$$
