AWQ.pdb
     RDKit          3D

 29 30  0  0  1  0  0  0  0  0999 V2000
    9.3433  -19.9225   20.5332 C   0  0  0  0  0  0  0  0  0  0  0  0
    9.0752  -18.5687   19.9048 C   0  0  2  0  0  0  0  0  0  0  0  0
    9.9159  -18.3567   18.7417 N   0  0  0  0  0  0  0  0  0  0  0  0
    9.3683  -17.4982   20.8952 C   0  0  0  0  0  0  0  0  0  0  0  0
   10.5430  -17.0649   20.9726 O   0  0  0  0  0  0  0  0  0  0  0  0
    8.3800  -16.9462   21.7553 N   0  0  0  0  0  0  0  0  0  0  0  0
    8.7081  -15.9096   22.7148 C   0  0  1  0  0  0  0  0  0  0  0  0
    7.4707  -15.1687   23.1667 C   0  0  0  0  0  0  0  0  0  0  0  0
    7.8098  -14.0608   24.0892 C   0  0  0  0  0  0  0  0  0  0  0  0
    8.9308  -13.2697   24.0653 C   0  0  0  0  0  0  0  0  0  0  0  0
    8.8609  -12.3752   25.0817 N   0  0  0  0  0  0  0  0  0  0  0  0
    7.7128  -12.5811   25.7558 C   0  0  0  0  0  0  0  0  0  0  0  0
    7.1927  -11.9334   26.8576 C   0  0  0  0  0  0  0  0  0  0  0  0
    5.9638  -12.3506   27.3672 C   0  0  0  0  0  0  0  0  0  0  0  0
    5.2810  -13.3834   26.7893 C   0  0  0  0  0  0  0  0  0  0  0  0
    5.8219  -14.0146   25.6890 C   0  0  0  0  0  0  0  0  0  0  0  0
    7.0439  -13.6295   25.1504 C   0  0  0  0  0  0  0  0  0  0  0  0
    9.2945  -16.5700   23.9322 C   0  0  0  0  0  0  0  0  0  0  0  0
    8.7920  -17.6405   24.3713 O   0  0  0  0  0  0  0  0  0  0  0  0
   15.1454  -16.2493   24.8736 N   0  0  0  0  0  0  0  0  0  0  0  0
   14.3692  -16.8977   23.8930 C   0  0  0  0  0  0  0  0  0  0  0  0
   14.8976  -17.2738   22.8156 O   0  0  0  0  0  0  0  0  0  0  0  0
   12.9335  -17.1554   24.1060 C   0  0  0  0  0  0  0  0  0  0  0  0
   12.5148  -16.8036   25.4862 C   0  0  0  0  0  0  0  0  0  0  0  0
   11.0508  -16.8042   25.7075 C   0  0  2  0  0  0  0  0  0  0  0  0
   10.4049  -16.0245   24.6109 N   0  0  0  0  0  0  0  0  0  0  0  0
   10.4740  -16.3285   26.9398 C   0  0  0  0  0  0  0  0  0  0  0  0
    9.6974  -15.3482   26.9810 O   0  0  0  0  0  0  0  0  0  0  0  0
   10.7521  -16.9398   28.1610 O   0  0  0  0  0  0  0  0  0  0  0  0
  2  1  1  1
  2  4  1  0
  3  2  1  0
  4  5  2  0
  6  4  1  0
  6  7  1  0
  7  8  1  1
  9  8  1  0
 10  9  2  0
 11 12  1  0
 11 10  1  0
 12 17  2  0
 13 14  2  0
 13 12  1  0
 14 15  1  0
 15 16  2  0
 17 16  1  0
 17  9  1  0
 18  7  1  0
 18 19  2  0
 20 21  1  0
 21 22  2  0
 23 24  1  0
 23 21  1  0
 25 24  1  1
 25 26  1  0
 26 18  1  0
 27 29  1  0
 27 25  1  0
 28 27  2  0
M  END
$$$$
