AWQ.pdb
     RDKit          3D

 29 30  0  0  1  0  0  0  0  0999 V2000
    8.3122  -14.9941   17.6545 C   0  0  0  0  0  0  0  0  0  0  0  0
    7.6022  -13.9072   18.4382 C   0  0  2  0  0  0  0  0  0  0  0  0
    7.8960  -12.5944   17.8952 N   0  0  0  0  0  0  0  0  0  0  0  0
    8.0591  -13.9409   19.8535 C   0  0  0  0  0  0  0  0  0  0  0  0
    9.1497  -13.3911   20.1397 O   0  0  0  0  0  0  0  0  0  0  0  0
    7.3176  -14.5664   20.8927 N   0  0  0  0  0  0  0  0  0  0  0  0
    7.8013  -14.5847   22.2596 C   0  0  1  0  0  0  0  0  0  0  0  0
    6.7201  -15.0270   23.2185 C   0  0  0  0  0  0  0  0  0  0  0  0
    7.1675  -14.9187   24.6261 C   0  0  0  0  0  0  0  0  0  0  0  0
    7.6733  -15.9177   25.4193 C   0  0  0  0  0  0  0  0  0  0  0  0
    7.9595  -15.4075   26.6423 N   0  0  0  0  0  0  0  0  0  0  0  0
    7.6449  -14.0975   26.6446 C   0  0  0  0  0  0  0  0  0  0  0  0
    7.7520  -13.1525   27.6444 C   0  0  0  0  0  0  0  0  0  0  0  0
    7.3493  -11.8439   27.3812 C   0  0  0  0  0  0  0  0  0  0  0  0
    6.8558  -11.4969   26.1553 C   0  0  0  0  0  0  0  0  0  0  0  0
    6.7586  -12.4595   25.1728 C   0  0  0  0  0  0  0  0  0  0  0  0
    7.1491  -13.7749   25.3944 C   0  0  0  0  0  0  0  0  0  0  0  0
    8.9094  -15.5978   22.3485 C   0  0  0  0  0  0  0  0  0  0  0  0
    8.8726  -16.6355   21.6322 O   0  0  0  0  0  0  0  0  0  0  0  0
   13.2480  -14.0182   20.1361 N   0  0  0  0  0  0  0  0  0  0  0  0
   14.0449  -14.9446   20.8369 C   0  0  0  0  0  0  0  0  0  0  0  0
   15.1340  -15.3389   20.3473 O   0  0  0  0  0  0  0  0  0  0  0  0
   13.6297  -15.4646   22.1523 C   0  0  0  0  0  0  0  0  0  0  0  0
   12.2755  -14.9845   22.5261 C   0  0  0  0  0  0  0  0  0  0  0  0
   11.3169  -16.0547   22.8838 C   0  0  2  0  0  0  0  0  0  0  0  0
   10.0061  -15.4247   23.2194 N   0  0  0  0  0  0  0  0  0  0  0  0
   11.5973  -16.9973   23.9375 C   0  0  0  0  0  0  0  0  0  0  0  0
   11.7625  -18.2181   23.7173 O   0  0  0  0  0  0  0  0  0  0  0  0
   11.7006  -16.5968   25.2684 O   0  0  0  0  0  0  0  0  0  0  0  0
  2  1  1  6
  2  4  1  0
  3  2  1  0
  4  5  2  0
  6  4  1  0
  6  7  1  0
  7  8  1  1
  9  8  1  0
 10  9  2  0
 11 12  1  0
 11 10  1  0
 12 17  2  0
 13 14  2  0
 13 12  1  0
 14 15  1  0
 15 16  2  0
 17 16  1  0
 17  9  1  0
 18  7  1  0
 18 19  2  0
 20 21  1  0
 21 22  2  0
 23 24  1  0
 23 21  1  0
 25 24  1  1
 25 26  1  0
 26 18  1  0
 27 29  1  0
 27 25  1  0
 28 27  2  0
M  END
$$$$
