AWQ.pdb
     RDKit          3D

 29 30  0  0  1  0  0  0  0  0999 V2000
    6.8357  -14.6602   19.8353 C   0  0  0  0  0  0  0  0  0  0  0  0
    7.2743  -15.8296   20.6955 C   0  0  2  0  0  0  0  0  0  0  0  0
    6.1318  -16.5047   21.2815 N   0  0  0  0  0  0  0  0  0  0  0  0
    8.1406  -15.3334   21.7982 C   0  0  0  0  0  0  0  0  0  0  0  0
    8.5689  -14.1561   21.7344 O   0  0  0  0  0  0  0  0  0  0  0  0
    8.5039  -16.1313   22.9174 N   0  0  0  0  0  0  0  0  0  0  0  0
    9.4254  -15.6433   23.9251 C   0  0  1  0  0  0  0  0  0  0  0  0
    8.9498  -15.9896   25.3174 C   0  0  0  0  0  0  0  0  0  0  0  0
    7.7220  -15.2413   25.6717 C   0  0  0  0  0  0  0  0  0  0  0  0
    6.4309  -15.7064   25.6644 C   0  0  0  0  0  0  0  0  0  0  0  0
    5.6001  -14.7072   26.0509 N   0  0  0  0  0  0  0  0  0  0  0  0
    6.3389  -13.6097   26.3056 C   0  0  0  0  0  0  0  0  0  0  0  0
    5.9582  -12.3513   26.7242 C   0  0  0  0  0  0  0  0  0  0  0  0
    6.9391  -11.3792   26.9165 C   0  0  0  0  0  0  0  0  0  0  0  0
    8.2574  -11.6623   26.6957 C   0  0  0  0  0  0  0  0  0  0  0  0
    8.6123  -12.9275   26.2777 C   0  0  0  0  0  0  0  0  0  0  0  0
    7.6657  -13.9246   26.0743 C   0  0  0  0  0  0  0  0  0  0  0  0
   10.7447  -16.3373   23.7256 C   0  0  0  0  0  0  0  0  0  0  0  0
   10.7857  -17.5939   23.6223 O   0  0  0  0  0  0  0  0  0  0  0  0
   14.2799  -13.7681   19.7217 N   0  0  0  0  0  0  0  0  0  0  0  0
   15.0715  -14.9014   19.9929 C   0  0  0  0  0  0  0  0  0  0  0  0
   16.0899  -15.1424   19.2956 O   0  0  0  0  0  0  0  0  0  0  0  0
   14.7334  -15.8205   21.0946 C   0  0  0  0  0  0  0  0  0  0  0  0
   13.5535  -15.3445   21.8597 C   0  0  0  0  0  0  0  0  0  0  0  0
   13.1326  -16.2352   22.9650 C   0  0  2  0  0  0  0  0  0  0  0  0
   11.9573  -15.6198   23.6489 N   0  0  0  0  0  0  0  0  0  0  0  0
   14.0483  -16.6305   24.0055 C   0  0  0  0  0  0  0  0  0  0  0  0
   15.0198  -17.3891   23.7899 O   0  0  0  0  0  0  0  0  0  0  0  0
   13.9000  -16.1853   25.3179 O   0  0  0  0  0  0  0  0  0  0  0  0
  2  1  1  1
  2  4  1  0
  3  2  1  0
  4  5  2  0
  6  4  1  0
  6  7  1  0
  7  8  1  1
  9  8  1  0
 10  9  2  0
 11 12  1  0
 11 10  1  0
 12 17  2  0
 13 14  2  0
 13 12  1  0
 14 15  1  0
 15 16  2  0
 17 16  1  0
 17  9  1  0
 18  7  1  0
 18 19  2  0
 20 21  1  0
 21 22  2  0
 23 24  1  0
 23 21  1  0
 25 24  1  6
 25 26  1  0
 26 18  1  0
 27 29  1  0
 27 25  1  0
 28 27  2  0
M  END
$$$$
