AWQ.pdb
     RDKit          3D

 29 30  0  0  1  0  0  0  0  0999 V2000
    7.7995  -18.2879   19.3400 C   0  0  0  0  0  0  0  0  0  0  0  0
    8.2515  -16.8410   19.2970 C   0  0  2  0  0  0  0  0  0  0  0  0
    9.3808  -16.6726   18.4021 N   0  0  0  0  0  0  0  0  0  0  0  0
    8.6667  -16.4130   20.6598 C   0  0  0  0  0  0  0  0  0  0  0  0
    9.8146  -16.7259   21.0575 O   0  0  0  0  0  0  0  0  0  0  0  0
    7.8236  -15.6680   21.5288 N   0  0  0  0  0  0  0  0  0  0  0  0
    8.2809  -15.2326   22.8342 C   0  0  1  0  0  0  0  0  0  0  0  0
    7.2212  -14.4223   23.5447 C   0  0  0  0  0  0  0  0  0  0  0  0
    7.6331  -14.0862   24.9270 C   0  0  0  0  0  0  0  0  0  0  0  0
    8.6065  -14.6954   25.6783 C   0  0  0  0  0  0  0  0  0  0  0  0
    8.6708  -14.0913   26.8903 N   0  0  0  0  0  0  0  0  0  0  0  0
    7.7539  -13.1049   26.9268 C   0  0  0  0  0  0  0  0  0  0  0  0
    7.4368  -12.2137   27.9314 C   0  0  0  0  0  0  0  0  0  0  0  0
    6.4295  -11.2759   27.7077 C   0  0  0  0  0  0  0  0  0  0  0  0
    5.7638  -11.2353   26.5152 C   0  0  0  0  0  0  0  0  0  0  0  0
    6.0991  -12.1367   25.5271 C   0  0  0  0  0  0  0  0  0  0  0  0
    7.0967  -13.0871   25.7099 C   0  0  0  0  0  0  0  0  0  0  0  0
    8.5339  -16.4562   23.6715 C   0  0  0  0  0  0  0  0  0  0  0  0
    7.8179  -17.4833   23.5176 O   0  0  0  0  0  0  0  0  0  0  0  0
   11.8535  -21.2171   22.1217 N   0  0  0  0  0  0  0  0  0  0  0  0
   12.2917  -20.0649   22.8035 C   0  0  0  0  0  0  0  0  0  0  0  0
   13.2691  -19.4053   22.3663 O   0  0  0  0  0  0  0  0  0  0  0  0
   11.6177  -19.6036   24.0306 C   0  0  0  0  0  0  0  0  0  0  0  0
   10.8705  -18.3414   23.8012 C   0  0  0  0  0  0  0  0  0  0  0  0
   10.1825  -17.8039   24.9970 C   0  0  2  0  0  0  0  0  0  0  0  0
    9.5608  -16.4952   24.6385 N   0  0  0  0  0  0  0  0  0  0  0  0
   10.8820  -17.5956   26.2399 C   0  0  0  0  0  0  0  0  0  0  0  0
   10.7185  -18.3392   27.2330 O   0  0  0  0  0  0  0  0  0  0  0  0
   11.7853  -16.5470   26.4036 O   0  0  0  0  0  0  0  0  0  0  0  0
  2  1  1  1
  2  4  1  0
  3  2  1  0
  4  5  2  0
  6  4  1  0
  6  7  1  0
  7  8  1  1
  9  8  1  0
 10  9  2  0
 11 12  1  0
 11 10  1  0
 12 17  2  0
 13 14  2  0
 13 12  1  0
 14 15  1  0
 15 16  2  0
 17 16  1  0
 17  9  1  0
 18  7  1  0
 18 19  2  0
 20 21  1  0
 21 22  2  0
 23 24  1  0
 23 21  1  0
 25 24  1  6
 25 26  1  0
 26 18  1  0
 27 29  1  0
 27 25  1  0
 28 27  2  0
M  END
$$$$
