AWQ.pdb
     RDKit          3D

 29 30  0  0  1  0  0  0  0  0999 V2000
    7.7613  -16.0147   19.4858 C   0  0  0  0  0  0  0  0  0  0  0  0
    7.2628  -15.0084   20.5048 C   0  0  2  0  0  0  0  0  0  0  0  0
    7.0559  -13.7076   19.8968 N   0  0  0  0  0  0  0  0  0  0  0  0
    8.2710  -14.8630   21.5888 C   0  0  0  0  0  0  0  0  0  0  0  0
    9.2663  -14.1284   21.3808 O   0  0  0  0  0  0  0  0  0  0  0  0
    8.1575  -15.5174   22.8458 N   0  0  0  0  0  0  0  0  0  0  0  0
    9.1937  -15.4015   23.8536 C   0  0  1  0  0  0  0  0  0  0  0  0
    8.6907  -15.8372   25.2106 C   0  0  0  0  0  0  0  0  0  0  0  0
    7.4680  -15.0968   25.5979 C   0  0  0  0  0  0  0  0  0  0  0  0
    6.1790  -15.5673   25.6159 C   0  0  0  0  0  0  0  0  0  0  0  0
    5.3530  -14.5746   26.0285 N   0  0  0  0  0  0  0  0  0  0  0  0
    6.0928  -13.4759   26.2749 C   0  0  0  0  0  0  0  0  0  0  0  0
    5.7164  -12.2222   26.7113 C   0  0  0  0  0  0  0  0  0  0  0  0
    6.6974  -11.2475   26.8890 C   0  0  0  0  0  0  0  0  0  0  0  0
    8.0116  -11.5233   26.6366 C   0  0  0  0  0  0  0  0  0  0  0  0
    8.3623  -12.7839   26.2013 C   0  0  0  0  0  0  0  0  0  0  0  0
    7.4153  -13.7834   26.0115 C   0  0  0  0  0  0  0  0  0  0  0  0
   10.3137  -16.3331   23.4797 C   0  0  0  0  0  0  0  0  0  0  0  0
   10.0641  -17.3964   22.8486 O   0  0  0  0  0  0  0  0  0  0  0  0
   15.4868  -16.4035   20.5385 N   0  0  0  0  0  0  0  0  0  0  0  0
   14.4410  -15.4597   20.5354 C   0  0  0  0  0  0  0  0  0  0  0  0
   14.3605  -14.6088   19.6129 O   0  0  0  0  0  0  0  0  0  0  0  0
   13.4205  -15.4504   21.5990 C   0  0  0  0  0  0  0  0  0  0  0  0
   13.0140  -16.8273   21.9773 C   0  0  0  0  0  0  0  0  0  0  0  0
   12.7271  -17.0136   23.4178 C   0  0  2  0  0  0  0  0  0  0  0  0
   11.6555  -16.0541   23.8162 N   0  0  0  0  0  0  0  0  0  0  0  0
   13.7631  -16.9035   24.4138 C   0  0  0  0  0  0  0  0  0  0  0  0
   14.8087  -17.5896   24.3710 O   0  0  0  0  0  0  0  0  0  0  0  0
   13.6555  -16.0198   25.4861 O   0  0  0  0  0  0  0  0  0  0  0  0
  2  1  1  6
  2  4  1  0
  3  2  1  0
  4  5  2  0
  6  4  1  0
  6  7  1  0
  7  8  1  1
  9  8  1  0
 10  9  2  0
 11 12  1  0
 11 10  1  0
 12 17  2  0
 13 14  2  0
 13 12  1  0
 14 15  1  0
 15 16  2  0
 17 16  1  0
 17  9  1  0
 18  7  1  0
 18 19  2  0
 20 21  1  0
 21 22  2  0
 23 24  1  0
 23 21  1  0
 25 24  1  6
 25 26  1  0
 26 18  1  0
 27 29  1  0
 27 25  1  0
 28 27  2  0
M  END
$$$$
