RSE.pdb
     RDKit          3D

 27 26  0  0  1  0  0  0  0  0999 V2000
    7.8325  -11.6824   20.3050 N   0  0  0  0  0  0  0  0  0  0  0  0
    8.5191  -12.4275   19.3116 C   0  0  0  0  0  0  0  0  0  0  0  0
    9.5242  -11.9128   18.6584 N   0  0  0  0  0  0  0  0  0  0  0  0
    8.1511  -13.7576   18.9819 N   0  0  0  0  0  0  0  0  0  0  0  0
    7.0244  -14.3782   19.5962 C   0  0  0  0  0  0  0  0  0  0  0  0
    7.4738  -15.3067   20.7290 C   0  0  0  0  0  0  0  0  0  0  0  0
    8.5095  -16.3010   20.2647 C   0  0  0  0  0  0  0  0  0  0  0  0
    8.9865  -17.2196   21.3133 C   0  0  2  0  0  0  0  0  0  0  0  0
    8.1326  -18.3711   21.5156 N   0  0  0  0  0  0  0  0  0  0  0  0
    9.4203  -16.6652   22.5913 C   0  0  0  0  0  0  0  0  0  0  0  0
   10.6249  -16.2271   22.7113 O   0  0  0  0  0  0  0  0  0  0  0  0
    9.9429  -12.4750   17.8853 O   0  0  0  0  0  0  0  0  0  0  0  0
    6.9928  -16.3373   25.8546 C   0  0  0  0  0  0  0  0  0  0  0  0
    8.1249  -15.5342   25.8761 C   0  0  1  0  0  0  0  0  0  0  0  0
    9.2385  -16.1351   25.0481 N   0  0  0  0  0  0  0  0  0  0  0  0
    8.6570  -16.5421   23.7800 C   0  0  0  0  0  0  0  0  0  0  0  0
    9.7751  -17.3097   25.7946 O   0  0  0  0  0  0  0  0  0  0  0  0
    9.2561  -18.4448   25.6404 N   0  0  0  0  0  0  0  0  0  0  0  0
   10.8731  -17.1679   26.6854 C   0  0  1  0  0  0  0  0  0  0  0  0
   11.4405  -18.3005   27.4080 C   0  0  0  0  0  0  0  0  0  0  0  0
   12.9004  -18.3687   27.0627 C   0  0  0  0  0  0  0  0  0  0  0  0
   13.5335  -19.7035   27.2291 C   0  0  0  0  0  0  0  0  0  0  0  0
   14.5519  -20.0405   26.2198 O   0  0  0  0  0  0  0  0  0  0  0  0
   14.3586  -20.8617   25.2894 C   0  0  0  0  0  0  0  0  0  0  0  0
   11.1887  -18.1919   28.8627 O   0  0  0  0  0  0  0  0  0  0  0  0
   11.4942  -19.1444   29.6213 O   0  0  0  0  0  0  0  0  0  0  0  0
   15.7943  -19.4410   26.2710 O   0  0  0  0  0  0  0  0  0  0  0  0
  2  3  2  0
  2  1  1  0
  4  2  1  0
  5  4  1  0
  6  5  1  0
  7  6  1  0
  8  7  1  0
  8 10  1  0
  8  9  1  1
 10 11  2  0
 13 12  1  0
 14 13  1  6
 15 10  1  0
 15 14  1  0
 16 14  1  0
 16 17  2  0
 18 16  1  0
 19 24  1  0
 19 18  1  0
 19 20  1  1
 21 20  1  0
 22 21  1  0
 23 22  2  0
 24 27  1  0
 25 24  2  0
 26 22  1  0
M  END
$$$$
