RSE.pdb
     RDKit          3D

 27 26  0  0  1  0  0  0  0  0999 V2000
    8.5040  -13.4848   16.0095 N   0  0  0  0  0  0  0  0  0  0  0  0
    8.8170  -13.1498   17.3525 C   0  0  0  0  0  0  0  0  0  0  0  0
   10.0545  -13.0942   17.7617 N   0  0  0  0  0  0  0  0  0  0  0  0
    7.8097  -12.8605   18.3088 N   0  0  0  0  0  0  0  0  0  0  0  0
    7.2964  -13.8809   19.1618 C   0  0  0  0  0  0  0  0  0  0  0  0
    8.2339  -14.1081   20.3520 C   0  0  0  0  0  0  0  0  0  0  0  0
    7.6810  -15.1272   21.3177 C   0  0  0  0  0  0  0  0  0  0  0  0
    8.5590  -16.2877   21.5490 C   0  0  2  0  0  0  0  0  0  0  0  0
    8.4339  -17.3254   20.5473 N   0  0  0  0  0  0  0  0  0  0  0  0
    8.6257  -16.8647   22.8874 C   0  0  0  0  0  0  0  0  0  0  0  0
    8.4827  -16.0978   23.9116 O   0  0  0  0  0  0  0  0  0  0  0  0
   10.2285  -12.8189   18.7531 O   0  0  0  0  0  0  0  0  0  0  0  0
    9.8329  -20.7338   23.8690 C   0  0  0  0  0  0  0  0  0  0  0  0
    8.7296  -20.2176   24.5348 C   0  0  1  0  0  0  0  0  0  0  0  0
    8.7852  -18.7078   24.5984 N   0  0  0  0  0  0  0  0  0  0  0  0
    8.8423  -18.2237   23.2294 C   0  0  0  0  0  0  0  0  0  0  0  0
   10.0153  -18.3310   25.3532 O   0  0  0  0  0  0  0  0  0  0  0  0
   11.1220  -18.2617   24.7600 N   0  0  0  0  0  0  0  0  0  0  0  0
    9.9586  -18.0459   26.7442 C   0  0  1  0  0  0  0  0  0  0  0  0
   11.1401  -17.6646   27.5094 C   0  0  0  0  0  0  0  0  0  0  0  0
   11.0945  -16.1751   27.6951 C   0  0  0  0  0  0  0  0  0  0  0  0
    9.7602  -15.6153   28.0362 C   0  0  0  0  0  0  0  0  0  0  0  0
    9.7436  -14.1689   28.3138 O   0  0  0  0  0  0  0  0  0  0  0  0
   10.7804  -13.4941   28.5312 C   0  0  0  0  0  0  0  0  0  0  0  0
   11.2187  -18.4103   28.7858 O   0  0  0  0  0  0  0  0  0  0  0  0
   10.2799  -19.1732   29.1213 O   0  0  0  0  0  0  0  0  0  0  0  0
    8.5424  -13.4893   28.3449 O   0  0  0  0  0  0  0  0  0  0  0  0
  2  3  2  0
  2  1  1  0
  4  2  1  0
  5  4  1  0
  6  5  1  0
  7  6  1  0
  8  7  1  0
  8 10  1  0
  8  9  1  6
 10 11  2  0
 13 12  1  0
 14 13  1  6
 15 10  1  0
 15 14  1  0
 16 14  1  0
 16 17  2  0
 18 16  1  0
 19 24  1  0
 19 18  1  0
 19 20  1  1
 21 20  1  0
 22 21  1  0
 23 22  2  0
 24 27  1  0
 25 24  2  0
 26 22  1  0
M  END
$$$$
