RSE.pdb
     RDKit          3D

 27 26  0  0  1  0  0  0  0  0999 V2000
    8.5142  -14.2748   13.8954 N   0  0  0  0  0  0  0  0  0  0  0  0
    7.6244  -14.2097   14.9988 C   0  0  0  0  0  0  0  0  0  0  0  0
    7.5052  -13.1187   15.7043 N   0  0  0  0  0  0  0  0  0  0  0  0
    6.8264  -15.3169   15.3868 N   0  0  0  0  0  0  0  0  0  0  0  0
    7.0036  -15.9361   16.6585 C   0  0  0  0  0  0  0  0  0  0  0  0
    8.4135  -16.5236   16.7782 C   0  0  0  0  0  0  0  0  0  0  0  0
    8.9329  -16.4569   18.1933 C   0  0  0  0  0  0  0  0  0  0  0  0
    9.0712  -15.0912   18.7287 C   0  0  2  0  0  0  0  0  0  0  0  0
    9.8854  -14.2201   17.9076 N   0  0  0  0  0  0  0  0  0  0  0  0
    9.3894  -14.9176   20.1420 C   0  0  0  0  0  0  0  0  0  0  0  0
   10.6226  -14.8619   20.5076 O   0  0  0  0  0  0  0  0  0  0  0  0
    6.8233  -13.1206   16.4941 O   0  0  0  0  0  0  0  0  0  0  0  0
    7.9982  -14.2758   24.7796 C   0  0  0  0  0  0  0  0  0  0  0  0
    7.6763  -14.4254   23.4375 C   0  0  2  0  0  0  0  0  0  0  0  0
    8.9085  -14.7035   22.6064 N   0  0  0  0  0  0  0  0  0  0  0  0
    8.4778  -14.8010   21.2218 C   0  0  0  0  0  0  0  0  0  0  0  0
    9.4928  -15.9920   23.0791 O   0  0  0  0  0  0  0  0  0  0  0  0
    8.9899  -17.0843   22.7112 N   0  0  0  0  0  0  0  0  0  0  0  0
   10.6186  -16.0075   23.9461 C   0  0  1  0  0  0  0  0  0  0  0  0
   11.2018  -17.2486   24.4425 C   0  0  0  0  0  0  0  0  0  0  0  0
   12.6943  -17.1154   24.3440 C   0  0  0  0  0  0  0  0  0  0  0  0
   13.4716  -18.2993   24.7960 C   0  0  0  0  0  0  0  0  0  0  0  0
   14.9329  -18.1744   24.6601 O   0  0  0  0  0  0  0  0  0  0  0  0
   15.7386  -19.0778   24.9951 C   0  0  0  0  0  0  0  0  0  0  0  0
   10.7317  -17.5544   25.8125 O   0  0  0  0  0  0  0  0  0  0  0  0
   10.4258  -16.6178   26.5904 O   0  0  0  0  0  0  0  0  0  0  0  0
   15.4780  -17.0169   24.1420 O   0  0  0  0  0  0  0  0  0  0  0  0
  2  3  2  0
  2  1  1  0
  4  2  1  0
  5  4  1  0
  6  5  1  0
  7  6  1  0
  8  7  1  0
  8 10  1  0
  8  9  1  6
 10 11  2  0
 13 12  1  0
 14 13  1  6
 15 10  1  0
 15 14  1  0
 16 14  1  0
 16 17  2  0
 18 16  1  0
 19 24  1  0
 19 18  1  0
 19 20  1  1
 21 20  1  0
 22 21  1  0
 23 22  2  0
 24 27  1  0
 25 24  2  0
 26 22  1  0
M  END
$$$$
