RSE.pdb
     RDKit          3D

 27 26  0  0  1  0  0  0  0  0999 V2000
    8.0601  -11.7489   20.6060 N   0  0  0  0  0  0  0  0  0  0  0  0
    8.5594  -12.6051   19.5904 C   0  0  0  0  0  0  0  0  0  0  0  0
    9.6963  -12.3581   19.0003 N   0  0  0  0  0  0  0  0  0  0  0  0
    7.8544  -13.7623   19.1697 N   0  0  0  0  0  0  0  0  0  0  0  0
    8.3387  -14.5631   18.0945 C   0  0  0  0  0  0  0  0  0  0  0  0
    8.0384  -16.0436   18.3495 C   0  0  0  0  0  0  0  0  0  0  0  0
    9.2984  -16.8438   18.5705 C   0  0  0  0  0  0  0  0  0  0  0  0
    9.3151  -17.6225   19.8213 C   0  0  2  0  0  0  0  0  0  0  0  0
    8.2245  -18.5675   19.9372 N   0  0  0  0  0  0  0  0  0  0  0  0
    9.5312  -16.9232   21.0834 C   0  0  0  0  0  0  0  0  0  0  0  0
   10.5860  -16.1997   21.2299 O   0  0  0  0  0  0  0  0  0  0  0  0
   10.0022  -13.0048   18.2405 O   0  0  0  0  0  0  0  0  0  0  0  0
    7.0850  -17.2912   24.4210 C   0  0  0  0  0  0  0  0  0  0  0  0
    7.8692  -16.1498   24.3243 C   0  0  1  0  0  0  0  0  0  0  0  0
    9.1204  -16.4117   23.5165 N   0  0  0  0  0  0  0  0  0  0  0  0
    8.6966  -16.9377   22.2297 C   0  0  0  0  0  0  0  0  0  0  0  0
    9.9400  -17.4108   24.2615 O   0  0  0  0  0  0  0  0  0  0  0  0
    9.8476  -18.6339   23.9843 N   0  0  0  0  0  0  0  0  0  0  0  0
   10.8323  -17.0012   25.2888 C   0  0  1  0  0  0  0  0  0  0  0  0
   11.7880  -17.9173   25.9006 C   0  0  0  0  0  0  0  0  0  0  0  0
   13.1371  -17.6189   25.3124 C   0  0  0  0  0  0  0  0  0  0  0  0
   14.2461  -18.4881   25.7864 C   0  0  0  0  0  0  0  0  0  0  0  0
   15.5706  -18.1696   25.2264 O   0  0  0  0  0  0  0  0  0  0  0  0
   16.5915  -18.8752   25.4201 C   0  0  0  0  0  0  0  0  0  0  0  0
   11.7596  -17.8180   27.3773 O   0  0  0  0  0  0  0  0  0  0  0  0
   12.4467  -18.6090   28.0689 O   0  0  0  0  0  0  0  0  0  0  0  0
   15.7330  -17.0437   24.4444 O   0  0  0  0  0  0  0  0  0  0  0  0
  2  3  2  0
  2  1  1  0
  4  2  1  0
  5  4  1  0
  6  5  1  0
  7  6  1  0
  8  7  1  0
  8 10  1  0
  8  9  1  1
 10 11  2  0
 13 12  1  0
 14 13  1  6
 15 10  1  0
 15 14  1  0
 16 14  1  0
 16 17  2  0
 18 16  1  0
 19 24  1  0
 19 18  1  0
 19 20  1  1
 21 20  1  0
 22 21  1  0
 23 22  2  0
 24 27  1  0
 25 24  2  0
 26 22  1  0
M  END
$$$$
