RSE.pdb
     RDKit          3D

 27 26  0  0  1  0  0  0  0  0999 V2000
   16.2894  -21.5309   15.3446 N   0  0  0  0  0  0  0  0  0  0  0  0
   14.8995  -21.7908   15.4640 C   0  0  0  0  0  0  0  0  0  0  0  0
   14.0591  -21.3931   14.5488 N   0  0  0  0  0  0  0  0  0  0  0  0
   14.3586  -22.4901   16.5737 N   0  0  0  0  0  0  0  0  0  0  0  0
   12.9658  -22.7855   16.6436 C   0  0  0  0  0  0  0  0  0  0  0  0
   12.2053  -21.6349   17.3106 C   0  0  0  0  0  0  0  0  0  0  0  0
   10.7444  -21.9611   17.5010 C   0  0  0  0  0  0  0  0  0  0  0  0
    9.9490  -20.8733   18.0967 C   0  0  2  0  0  0  0  0  0  0  0  0
    9.7158  -19.7602   17.2007 N   0  0  0  0  0  0  0  0  0  0  0  0
   10.2930  -20.3995   19.4331 C   0  0  0  0  0  0  0  0  0  0  0  0
   11.3585  -19.6956   19.5968 O   0  0  0  0  0  0  0  0  0  0  0  0
   13.0460  -21.5954   14.6958 O   0  0  0  0  0  0  0  0  0  0  0  0
    9.1414  -19.3937   24.0218 C   0  0  0  0  0  0  0  0  0  0  0  0
    8.8030  -19.8876   22.7694 C   0  0  2  0  0  0  0  0  0  0  0  0
   10.0340  -20.1298   21.9251 N   0  0  0  0  0  0  0  0  0  0  0  0
    9.5787  -20.6253   20.6370 C   0  0  0  0  0  0  0  0  0  0  0  0
   10.8715  -21.1458   22.6260 O   0  0  0  0  0  0  0  0  0  0  0  0
   10.6082  -22.3697   22.5073 N   0  0  0  0  0  0  0  0  0  0  0  0
   11.9727  -20.7517   23.4332 C   0  0  1  0  0  0  0  0  0  0  0  0
   12.7480  -21.7093   24.2133 C   0  0  0  0  0  0  0  0  0  0  0  0
   14.1834  -21.5745   23.7933 C   0  0  0  0  0  0  0  0  0  0  0  0
   15.1423  -22.4601   24.5050 C   0  0  0  0  0  0  0  0  0  0  0  0
   16.5555  -22.2750   24.1335 O   0  0  0  0  0  0  0  0  0  0  0  0
   17.2772  -21.3560   24.5940 C   0  0  0  0  0  0  0  0  0  0  0  0
   12.5434  -21.5115   25.6660 O   0  0  0  0  0  0  0  0  0  0  0  0
   11.9430  -20.4888   26.0777 O   0  0  0  0  0  0  0  0  0  0  0  0
   17.1479  -23.1386   23.2342 O   0  0  0  0  0  0  0  0  0  0  0  0
  2  3  2  0
  2  1  1  0
  4  2  1  0
  5  4  1  0
  6  5  1  0
  7  6  1  0
  8  7  1  0
  8 10  1  0
  8  9  1  6
 10 11  2  0
 13 12  1  0
 14 13  1  6
 15 10  1  0
 15 14  1  0
 16 14  1  0
 16 17  2  0
 18 16  1  0
 19 24  1  0
 19 18  1  0
 19 20  1  1
 21 20  1  0
 22 21  1  0
 23 22  2  0
 24 27  1  0
 25 24  2  0
 26 22  1  0
M  END
$$$$
