RSE.pdb
     RDKit          3D

 27 26  0  0  1  0  0  0  0  0999 V2000
   14.2060  -14.4740   19.4491 N   0  0  0  0  0  0  0  0  0  0  0  0
   13.7192  -14.9012   18.1865 C   0  0  0  0  0  0  0  0  0  0  0  0
   14.4346  -14.7570   17.1052 N   0  0  0  0  0  0  0  0  0  0  0  0
   12.4423  -15.5016   18.0377 N   0  0  0  0  0  0  0  0  0  0  0  0
   11.9190  -15.7965   16.7449 C   0  0  0  0  0  0  0  0  0  0  0  0
   10.4709  -15.3102   16.6276 C   0  0  0  0  0  0  0  0  0  0  0  0
   10.2471  -14.0215   17.3798 C   0  0  0  0  0  0  0  0  0  0  0  0
    8.9935  -13.9763   18.1530 C   0  0  2  0  0  0  0  0  0  0  0  0
    7.9730  -13.1345   17.5648 N   0  0  0  0  0  0  0  0  0  0  0  0
    9.0632  -13.7746   19.5963 C   0  0  0  0  0  0  0  0  0  0  0  0
    9.7695  -12.8049   20.0633 O   0  0  0  0  0  0  0  0  0  0  0  0
   14.0360  -15.1067   16.2064 O   0  0  0  0  0  0  0  0  0  0  0  0
    6.9124  -15.8451   22.4806 C   0  0  0  0  0  0  0  0  0  0  0  0
    7.5714  -14.6735   22.8272 C   0  0  1  0  0  0  0  0  0  0  0  0
    8.8246  -14.4854   22.0022 N   0  0  0  0  0  0  0  0  0  0  0  0
    8.4298  -14.5444   20.6048 C   0  0  0  0  0  0  0  0  0  0  0  0
    9.7622  -15.5944   22.3428 O   0  0  0  0  0  0  0  0  0  0  0  0
    9.8412  -16.6040   21.5972 N   0  0  0  0  0  0  0  0  0  0  0  0
   10.5760  -15.5298   23.5060 C   0  0  1  0  0  0  0  0  0  0  0  0
   11.5707  -16.5497   23.8176 C   0  0  0  0  0  0  0  0  0  0  0  0
   12.9217  -15.8982   23.7430 C   0  0  0  0  0  0  0  0  0  0  0  0
   14.0767  -16.7906   24.0251 C   0  0  0  0  0  0  0  0  0  0  0  0
   15.3933  -16.1305   24.0070 O   0  0  0  0  0  0  0  0  0  0  0  0
   15.5905  -14.9936   23.5112 C   0  0  0  0  0  0  0  0  0  0  0  0
   11.2996  -17.1841   25.1273 O   0  0  0  0  0  0  0  0  0  0  0  0
   10.5012  -16.6412   25.9298 O   0  0  0  0  0  0  0  0  0  0  0  0
   16.4886  -16.7679   24.5544 O   0  0  0  0  0  0  0  0  0  0  0  0
  2  3  2  0
  2  1  1  0
  4  2  1  0
  5  4  1  0
  6  5  1  0
  7  6  1  0
  8  7  1  0
  8 10  1  0
  8  9  1  6
 10 11  2  0
 13 12  1  0
 14 13  1  1
 15 10  1  0
 15 14  1  0
 16 14  1  0
 16 17  2  0
 18 16  1  0
 19 24  1  0
 19 18  1  0
 19 20  1  1
 21 20  1  0
 22 21  1  0
 23 22  2  0
 24 27  1  0
 25 24  2  0
 26 22  1  0
M  END
$$$$
