RSE.pdb
     RDKit          3D

 27 26  0  0  1  0  0  0  0  0999 V2000
    9.1206  -16.6519   14.0801 N   0  0  0  0  0  0  0  0  0  0  0  0
    9.2068  -17.3923   15.2876 C   0  0  0  0  0  0  0  0  0  0  0  0
    9.8391  -18.5324   15.3347 N   0  0  0  0  0  0  0  0  0  0  0  0
    8.6156  -16.9343   16.4934 N   0  0  0  0  0  0  0  0  0  0  0  0
    7.7454  -15.8053   16.4984 C   0  0  0  0  0  0  0  0  0  0  0  0
    8.5458  -14.5107   16.6726 C   0  0  0  0  0  0  0  0  0  0  0  0
    9.0925  -14.3707   18.0720 C   0  0  0  0  0  0  0  0  0  0  0  0
    8.1749  -13.7191   19.0231 C   0  0  2  0  0  0  0  0  0  0  0  0
    7.7898  -12.3774   18.6393 N   0  0  0  0  0  0  0  0  0  0  0  0
    8.4762  -13.7839   20.4492 C   0  0  0  0  0  0  0  0  0  0  0  0
    9.2142  -12.8717   20.9790 O   0  0  0  0  0  0  0  0  0  0  0  0
    9.8488  -19.0477   16.2421 O   0  0  0  0  0  0  0  0  0  0  0  0
    6.5242  -15.8611   23.3664 C   0  0  0  0  0  0  0  0  0  0  0  0
    7.4553  -14.8817   23.6841 C   0  0  1  0  0  0  0  0  0  0  0  0
    8.6118  -14.8889   22.7099 N   0  0  0  0  0  0  0  0  0  0  0  0
    8.0481  -14.7682   21.3758 C   0  0  0  0  0  0  0  0  0  0  0  0
    9.3336  -16.1841   22.8728 O   0  0  0  0  0  0  0  0  0  0  0  0
    9.5471  -16.9165   21.8731 N   0  0  0  0  0  0  0  0  0  0  0  0
    9.7891  -16.6093   24.1500 C   0  0  1  0  0  0  0  0  0  0  0  0
   11.0325  -17.3506   24.3258 C   0  0  0  0  0  0  0  0  0  0  0  0
   12.1330  -16.5365   23.7084 C   0  0  0  0  0  0  0  0  0  0  0  0
   13.5117  -17.0321   23.9605 C   0  0  0  0  0  0  0  0  0  0  0  0
   14.5872  -16.1909   23.4082 O   0  0  0  0  0  0  0  0  0  0  0  0
   14.7357  -15.9758   22.1798 C   0  0  0  0  0  0  0  0  0  0  0  0
   11.2718  -17.6706   25.7512 O   0  0  0  0  0  0  0  0  0  0  0  0
   11.9480  -18.6828   26.0581 O   0  0  0  0  0  0  0  0  0  0  0  0
   15.4968  -15.5937   24.2577 O   0  0  0  0  0  0  0  0  0  0  0  0
  2  3  2  0
  2  1  1  0
  4  2  1  0
  5  4  1  0
  6  5  1  0
  7  6  1  0
  8  7  1  0
  8 10  1  0
  8  9  1  6
 10 11  2  0
 13 12  1  0
 14 13  1  1
 15 10  1  0
 15 14  1  0
 16 14  1  0
 16 17  2  0
 18 16  1  0
 19 24  1  0
 19 18  1  0
 19 20  1  1
 21 20  1  0
 22 21  1  0
 23 22  2  0
 24 27  1  0
 25 24  2  0
 26 22  1  0
M  END
$$$$
