RSE.pdb
     RDKit          3D

 27 26  0  0  1  0  0  0  0  0999 V2000
   10.4470  -17.5098   14.8120 N   0  0  0  0  0  0  0  0  0  0  0  0
    9.1635  -17.2547   14.2630 C   0  0  0  0  0  0  0  0  0  0  0  0
    8.9230  -17.4472   12.9954 N   0  0  0  0  0  0  0  0  0  0  0  0
    8.0871  -16.7824   15.0575 N   0  0  0  0  0  0  0  0  0  0  0  0
    8.2249  -15.6063   15.8511 C   0  0  0  0  0  0  0  0  0  0  0  0
    9.4313  -15.7284   16.7876 C   0  0  0  0  0  0  0  0  0  0  0  0
    9.6537  -14.4679   17.5865 C   0  0  0  0  0  0  0  0  0  0  0  0
    8.5424  -14.1116   18.4860 C   0  0  2  0  0  0  0  0  0  0  0  0
    7.7956  -12.9465   18.0609 N   0  0  0  0  0  0  0  0  0  0  0  0
    8.7844  -14.0757   19.9244 C   0  0  0  0  0  0  0  0  0  0  0  0
    9.6750  -13.2729   20.3932 O   0  0  0  0  0  0  0  0  0  0  0  0
    7.9553  -17.2660   12.6495 O   0  0  0  0  0  0  0  0  0  0  0  0
    6.4297  -15.5498   23.0465 C   0  0  0  0  0  0  0  0  0  0  0  0
    7.4224  -14.5895   23.1853 C   0  0  1  0  0  0  0  0  0  0  0  0
    8.6094  -14.8969   22.3003 N   0  0  0  0  0  0  0  0  0  0  0  0
    8.1419  -14.8479   20.9252 C   0  0  0  0  0  0  0  0  0  0  0  0
    9.0968  -16.2617   22.6537 O   0  0  0  0  0  0  0  0  0  0  0  0
    8.9817  -17.2047   21.8297 N   0  0  0  0  0  0  0  0  0  0  0  0
    9.6949  -16.5179   23.9170 C   0  0  1  0  0  0  0  0  0  0  0  0
   10.8020  -17.4533   24.0787 C   0  0  0  0  0  0  0  0  0  0  0  0
   11.9015  -17.0130   23.1555 C   0  0  0  0  0  0  0  0  0  0  0  0
   13.1226  -17.8609   23.1677 C   0  0  0  0  0  0  0  0  0  0  0  0
   14.2178  -17.3891   22.3032 O   0  0  0  0  0  0  0  0  0  0  0  0
   14.0900  -16.4568   21.4715 C   0  0  0  0  0  0  0  0  0  0  0  0
   11.2282  -17.5439   25.4934 O   0  0  0  0  0  0  0  0  0  0  0  0
   10.9108  -16.6356   26.2997 O   0  0  0  0  0  0  0  0  0  0  0  0
   15.4618  -17.9817   22.3857 O   0  0  0  0  0  0  0  0  0  0  0  0
  2  3  2  0
  2  1  1  0
  4  2  1  0
  5  4  1  0
  6  5  1  0
  7  6  1  0
  8  7  1  0
  8 10  1  0
  8  9  1  6
 10 11  2  0
 13 12  1  0
 14 13  1  6
 15 10  1  0
 15 14  1  0
 16 14  1  0
 16 17  2  0
 18 16  1  0
 19 24  1  0
 19 18  1  0
 19 20  1  1
 21 20  1  0
 22 21  1  0
 23 22  2  0
 24 27  1  0
 25 24  2  0
 26 22  1  0
M  END
$$$$
