RSE.pdb
     RDKit          3D

 27 26  0  0  1  0  0  0  0  0999 V2000
   10.4453  -24.9017   22.5531 N   0  0  0  0  0  0  0  0  0  0  0  0
   11.7406  -24.8053   21.9816 C   0  0  0  0  0  0  0  0  0  0  0  0
   11.9257  -24.9732   20.7011 N   0  0  0  0  0  0  0  0  0  0  0  0
   12.8888  -24.5238   22.7660 N   0  0  0  0  0  0  0  0  0  0  0  0
   12.7893  -23.7416   23.9535 C   0  0  0  0  0  0  0  0  0  0  0  0
   13.6152  -22.4579   23.8222 C   0  0  0  0  0  0  0  0  0  0  0  0
   13.5200  -21.5982   25.0585 C   0  0  0  0  0  0  0  0  0  0  0  0
   12.2204  -21.6652   25.7496 C   0  0  2  0  0  0  0  0  0  0  0  0
   11.1268  -21.0873   24.9973 N   0  0  0  0  0  0  0  0  0  0  0  0
   12.1480  -21.2731   27.1531 C   0  0  0  0  0  0  0  0  0  0  0  0
   12.4348  -20.0626   27.4844 O   0  0  0  0  0  0  0  0  0  0  0  0
   12.8968  -24.8757   20.3317 O   0  0  0  0  0  0  0  0  0  0  0  0
    9.8741  -23.0837   29.8881 C   0  0  0  0  0  0  0  0  0  0  0  0
   10.2950  -21.7763   30.0896 C   0  0  1  0  0  0  0  0  0  0  0  0
   11.7180  -21.5801   29.6171 N   0  0  0  0  0  0  0  0  0  0  0  0
   11.7912  -22.0880   28.2574 C   0  0  0  0  0  0  0  0  0  0  0  0
   12.6091  -22.3547   30.5285 O   0  0  0  0  0  0  0  0  0  0  0  0
   12.8541  -23.5651   30.2913 N   0  0  0  0  0  0  0  0  0  0  0  0
   13.1922  -21.7434   31.6712 C   0  0  1  0  0  0  0  0  0  0  0  0
   14.0943  -22.4623   32.5635 C   0  0  0  0  0  0  0  0  0  0  0  0
   15.3124  -22.8340   31.7679 C   0  0  0  0  0  0  0  0  0  0  0  0
   16.2515  -21.7180   31.4803 C   0  0  0  0  0  0  0  0  0  0  0  0
   17.4245  -22.0840   30.6681 O   0  0  0  0  0  0  0  0  0  0  0  0
   17.5264  -21.8242   29.4435 C   0  0  0  0  0  0  0  0  0  0  0  0
   14.4061  -21.6647   33.7710 O   0  0  0  0  0  0  0  0  0  0  0  0
   14.0607  -20.4592   33.8284 O   0  0  0  0  0  0  0  0  0  0  0  0
   18.4839  -22.7486   31.2523 O   0  0  0  0  0  0  0  0  0  0  0  0
  2  3  2  0
  2  1  1  0
  4  2  1  0
  5  4  1  0
  6  5  1  0
  7  6  1  0
  8  7  1  0
  8 10  1  0
  8  9  1  6
 10 11  2  0
 13 12  1  0
 14 13  1  6
 15 10  1  0
 15 14  1  0
 16 14  1  0
 16 17  2  0
 18 16  1  0
 19 24  1  0
 19 18  1  0
 19 20  1  1
 21 20  1  0
 22 21  1  0
 23 22  2  0
 24 27  1  0
 25 24  2  0
 26 22  1  0
M  END
$$$$
