RSE.pdb
     RDKit          3D

 27 26  0  0  1  0  0  0  0  0999 V2000
   12.2506  -20.0262   15.6757 N   0  0  0  0  0  0  0  0  0  0  0  0
   11.0021  -20.2906   15.0552 C   0  0  0  0  0  0  0  0  0  0  0  0
   10.8459  -20.1464   13.7681 N   0  0  0  0  0  0  0  0  0  0  0  0
    9.8713  -20.7213   15.7961 N   0  0  0  0  0  0  0  0  0  0  0  0
    9.6521  -20.2636   17.1282 C   0  0  0  0  0  0  0  0  0  0  0  0
    9.3432  -18.7630   17.1367 C   0  0  0  0  0  0  0  0  0  0  0  0
    9.0878  -18.2487   18.5321 C   0  0  0  0  0  0  0  0  0  0  0  0
    8.7277  -16.8216   18.5998 C   0  0  2  0  0  0  0  0  0  0  0  0
    9.0727  -16.0736   17.4093 N   0  0  0  0  0  0  0  0  0  0  0  0
    9.0645  -16.0665   19.8020 C   0  0  0  0  0  0  0  0  0  0  0  0
   10.2943  -15.7612   20.0299 O   0  0  0  0  0  0  0  0  0  0  0  0
    9.8984  -20.3245   13.3686 O   0  0  0  0  0  0  0  0  0  0  0  0
    6.4549  -15.7128   23.0274 C   0  0  0  0  0  0  0  0  0  0  0  0
    7.4106  -14.7162   22.8838 C   0  0  1  0  0  0  0  0  0  0  0  0
    8.6227  -15.2234   22.1353 N   0  0  0  0  0  0  0  0  0  0  0  0
    8.1759  -15.6048   20.8060 C   0  0  0  0  0  0  0  0  0  0  0  0
    9.1562  -16.4000   22.8808 O   0  0  0  0  0  0  0  0  0  0  0  0
    9.1698  -17.5352   22.3399 N   0  0  0  0  0  0  0  0  0  0  0  0
    9.6544  -16.2598   24.2042 C   0  0  1  0  0  0  0  0  0  0  0  0
   10.8703  -16.9283   24.6531 C   0  0  0  0  0  0  0  0  0  0  0  0
   11.9918  -16.4634   23.7693 C   0  0  0  0  0  0  0  0  0  0  0  0
   13.3288  -17.0335   24.0820 C   0  0  0  0  0  0  0  0  0  0  0  0
   14.4385  -16.4999   23.2738 O   0  0  0  0  0  0  0  0  0  0  0  0
   15.2527  -15.6424   23.6970 C   0  0  0  0  0  0  0  0  0  0  0  0
   11.1200  -16.6832   26.0915 O   0  0  0  0  0  0  0  0  0  0  0  0
   10.8277  -15.5707   26.5944 O   0  0  0  0  0  0  0  0  0  0  0  0
   14.6206  -16.9436   21.9794 O   0  0  0  0  0  0  0  0  0  0  0  0
  2  3  2  0
  2  1  1  0
  4  2  1  0
  5  4  1  0
  6  5  1  0
  7  6  1  0
  8  7  1  0
  8 10  1  0
  8  9  1  6
 10 11  2  0
 13 12  1  0
 14 13  1  6
 15 10  1  0
 15 14  1  0
 16 14  1  0
 16 17  2  0
 18 16  1  0
 19 24  1  0
 19 18  1  0
 19 20  1  1
 21 20  1  0
 22 21  1  0
 23 22  2  0
 24 27  1  0
 25 24  2  0
 26 22  1  0
M  END
$$$$
