RSE.pdb
     RDKit          3D

 27 26  0  0  1  0  0  0  0  0999 V2000
    9.0667  -12.4172   20.7580 N   0  0  0  0  0  0  0  0  0  0  0  0
    8.5470  -13.0983   19.6268 C   0  0  0  0  0  0  0  0  0  0  0  0
    7.6262  -12.5560   18.8786 N   0  0  0  0  0  0  0  0  0  0  0  0
    8.9987  -14.3911   19.2553 N   0  0  0  0  0  0  0  0  0  0  0  0
    8.1579  -15.5318   19.4100 C   0  0  0  0  0  0  0  0  0  0  0  0
    7.5407  -15.5583   20.8119 C   0  0  0  0  0  0  0  0  0  0  0  0
    8.5952  -15.5738   21.8911 C   0  0  0  0  0  0  0  0  0  0  0  0
    8.6903  -16.8433   22.6330 C   0  0  2  0  0  0  0  0  0  0  0  0
    7.9221  -16.8633   23.8599 N   0  0  0  0  0  0  0  0  0  0  0  0
   10.0043  -17.4445   22.8345 C   0  0  0  0  0  0  0  0  0  0  0  0
   10.6068  -17.2788   23.9601 O   0  0  0  0  0  0  0  0  0  0  0  0
    7.2478  -13.1190   18.0856 O   0  0  0  0  0  0  0  0  0  0  0  0
   13.3745  -20.7232   21.8738 C   0  0  0  0  0  0  0  0  0  0  0  0
   12.1321  -20.1466   21.6482 C   0  0  1  0  0  0  0  0  0  0  0  0
   12.0709  -18.7420   22.2052 N   0  0  0  0  0  0  0  0  0  0  0  0
   10.7465  -18.2218   21.9094 C   0  0  0  0  0  0  0  0  0  0  0  0
   13.1278  -17.9385   21.5253 O   0  0  0  0  0  0  0  0  0  0  0  0
   12.8880  -17.3887   20.4201 N   0  0  0  0  0  0  0  0  0  0  0  0
   14.4134  -17.7813   22.1100 C   0  0  1  0  0  0  0  0  0  0  0  0
   15.4865  -17.0505   21.4458 C   0  0  0  0  0  0  0  0  0  0  0  0
   16.4692  -16.6350   22.5026 C   0  0  0  0  0  0  0  0  0  0  0  0
   17.6515  -15.8787   22.0124 C   0  0  0  0  0  0  0  0  0  0  0  0
   18.6407  -15.5297   23.0464 O   0  0  0  0  0  0  0  0  0  0  0  0
   19.8019  -16.0070   23.0820 C   0  0  0  0  0  0  0  0  0  0  0  0
   16.0974  -17.8559   20.3643 O   0  0  0  0  0  0  0  0  0  0  0  0
   16.5607  -17.2847   19.3470 O   0  0  0  0  0  0  0  0  0  0  0  0
   18.3059  -14.6353   24.0430 O   0  0  0  0  0  0  0  0  0  0  0  0
  2  3  2  0
  2  1  1  0
  4  2  1  0
  5  4  1  0
  6  5  1  0
  7  6  1  0
  8  7  1  0
  8 10  1  0
  8  9  1  1
 10 11  2  0
 13 12  1  0
 14 13  1  1
 15 10  1  0
 15 14  1  0
 16 14  1  0
 16 17  2  0
 18 16  1  0
 19 24  1  0
 19 18  1  0
 19 20  1  6
 21 20  1  0
 22 21  1  0
 23 22  2  0
 24 27  1  0
 25 24  2  0
 26 22  1  0
M  END
$$$$
