HPS.pdb
     RDKit          3D

 24 25  0  0  1  0  0  0  0  0999 V2000
    9.6507  -13.5289   21.5437 N   0  0  0  0  0  0  0  0  0  0  0  0
    8.6299  -13.5273   22.5132 C   0  0  1  0  0  0  0  0  0  0  0  0
    7.5218  -14.4424   21.9869 C   0  0  0  0  0  0  0  0  0  0  0  0
    7.2622  -14.1593   20.5498 C   0  0  0  0  0  0  0  0  0  0  0  0
    7.7455  -13.1106   19.7911 C   0  0  0  0  0  0  0  0  0  0  0  0
    7.2762  -13.2108   18.5271 N   0  0  0  0  0  0  0  0  0  0  0  0
    6.5098  -14.2998   18.4793 C   0  0  0  0  0  0  0  0  0  0  0  0
    6.4968  -14.8751   19.6920 N   0  0  0  0  0  0  0  0  0  0  0  0
    8.9990  -13.9551   23.8804 C   0  0  0  0  0  0  0  0  0  0  0  0
   10.2055  -14.4357   23.9892 O   0  0  0  0  0  0  0  0  0  0  0  0
    8.1856  -13.8866   25.0193 N   0  0  0  0  0  0  0  0  0  0  0  0
    6.7771  -13.7438   25.1502 C   0  0  0  0  0  0  0  0  0  0  0  0
    6.7026  -12.6129   26.1884 C   0  0  0  0  0  0  0  0  0  0  0  0
    7.8600  -12.8915   27.0801 C   0  0  0  0  0  0  0  0  0  0  0  0
    8.6760  -13.9530   26.3829 C   0  0  1  0  0  0  0  0  0  0  0  0
    8.4547  -15.2928   26.9836 C   0  0  0  0  0  0  0  0  0  0  0  0
    7.2953  -15.7762   26.9523 O   0  0  0  0  0  0  0  0  0  0  0  0
   11.3589  -17.7054   26.9766 O   0  0  0  0  0  0  0  0  0  0  0  0
   10.1146  -18.3070   27.1699 C   0  0  0  0  0  0  0  0  0  0  0  0
    9.2943  -17.4003   28.0954 C   0  0  2  0  0  0  0  0  0  0  0  0
    9.4697  -16.0537   27.5867 N   0  0  0  0  0  0  0  0  0  0  0  0
    9.8196  -17.4665   29.4832 C   0  0  0  0  0  0  0  0  0  0  0  0
   10.3090  -16.4702   30.0667 O   0  0  0  0  0  0  0  0  0  0  0  0
    9.7841  -18.6576   30.1907 O   0  0  0  0  0  0  0  0  0  0  0  0
  2  1  1  6
  3  2  1  0
  4  3  1  0
  4  5  2  0
  6  5  1  0
  7  6  1  0
  8  7  2  0
  8  4  1  0
  9  2  1  0
 10  9  2  0
 11 15  1  0
 11  9  1  0
 12 11  1  0
 13 12  1  0
 13 14  1  0
 14 15  1  0
 16 17  2  0
 15 16  1  1
 18 19  1  0
 20 19  1  6
 20 22  1  0
 20 21  1  0
 21 16  1  0
 22 24  1  0
 23 22  2  0
M  END
$$$$
