HPS.pdb
     RDKit          3D

 24 25  0  0  1  0  0  0  0  0999 V2000
    9.5009  -16.9251   16.4304 N   0  0  0  0  0  0  0  0  0  0  0  0
    8.6303  -16.2321   17.2929 C   0  0  1  0  0  0  0  0  0  0  0  0
    7.5345  -17.2204   17.6990 C   0  0  0  0  0  0  0  0  0  0  0  0
    6.8310  -17.7306   16.4917 C   0  0  0  0  0  0  0  0  0  0  0  0
    7.0490  -17.3827   15.1724 C   0  0  0  0  0  0  0  0  0  0  0  0
    6.2013  -18.0712   14.3754 N   0  0  0  0  0  0  0  0  0  0  0  0
    5.4580  -18.8423   15.1681 C   0  0  0  0  0  0  0  0  0  0  0  0
    5.8311  -18.6427   16.4419 N   0  0  0  0  0  0  0  0  0  0  0  0
    9.2213  -15.6402   18.5130 C   0  0  0  0  0  0  0  0  0  0  0  0
   10.4818  -15.9183   18.6929 O   0  0  0  0  0  0  0  0  0  0  0  0
    8.5582  -14.8377   19.4510 N   0  0  0  0  0  0  0  0  0  0  0  0
    7.1960  -14.4400   19.5386 C   0  0  0  0  0  0  0  0  0  0  0  0
    7.3566  -12.9286   19.7667 C   0  0  0  0  0  0  0  0  0  0  0  0
    8.5774  -12.8389   20.6118 C   0  0  0  0  0  0  0  0  0  0  0  0
    9.1964  -14.2156   20.5955 C   0  0  1  0  0  0  0  0  0  0  0  0
    8.9153  -14.9545   21.8525 C   0  0  0  0  0  0  0  0  0  0  0  0
    7.7355  -15.3250   22.0753 O   0  0  0  0  0  0  0  0  0  0  0  0
   11.8859  -16.9259   23.5539 O   0  0  0  0  0  0  0  0  0  0  0  0
   10.5700  -17.3697   23.6926 C   0  0  0  0  0  0  0  0  0  0  0  0
    9.6856  -16.1426   23.9448 C   0  0  2  0  0  0  0  0  0  0  0  0
    9.8951  -15.2643   22.8100 N   0  0  0  0  0  0  0  0  0  0  0  0
   10.1119  -15.4434   25.1840 C   0  0  0  0  0  0  0  0  0  0  0  0
   10.6422  -14.3072   25.1682 O   0  0  0  0  0  0  0  0  0  0  0  0
    9.9324  -16.0389   26.4225 O   0  0  0  0  0  0  0  0  0  0  0  0
  2  1  1  1
  3  2  1  0
  4  3  1  0
  4  5  2  0
  6  5  1  0
  7  6  1  0
  8  7  2  0
  8  4  1  0
  9  2  1  0
 10  9  2  0
 11 15  1  0
 11  9  1  0
 12 11  1  0
 13 12  1  0
 13 14  1  0
 14 15  1  0
 16 17  2  0
 15 16  1  1
 18 19  1  0
 20 19  1  6
 20 22  1  0
 20 21  1  0
 21 16  1  0
 22 24  1  0
 23 22  2  0
M  END
$$$$
