HPS.pdb
     RDKit          3D

 24 25  0  0  1  0  0  0  0  0999 V2000
    8.3424  -18.0145   19.8849 N   0  0  0  0  0  0  0  0  0  0  0  0
    8.6325  -17.1221   20.9343 C   0  0  1  0  0  0  0  0  0  0  0  0
    7.4011  -16.2297   21.1061 C   0  0  0  0  0  0  0  0  0  0  0  0
    7.6045  -14.9343   20.4036 C   0  0  0  0  0  0  0  0  0  0  0  0
    8.7400  -14.4914   19.7529 C   0  0  0  0  0  0  0  0  0  0  0  0
    8.5195  -13.2585   19.2437 N   0  0  0  0  0  0  0  0  0  0  0  0
    7.2704  -12.9211   19.5621 C   0  0  0  0  0  0  0  0  0  0  0  0
    6.7142  -13.9240   20.2595 N   0  0  0  0  0  0  0  0  0  0  0  0
    8.9849  -17.7138   22.2435 C   0  0  0  0  0  0  0  0  0  0  0  0
    8.9142  -19.0144   22.2855 O   0  0  0  0  0  0  0  0  0  0  0  0
    9.3721  -17.0131   23.3936 N   0  0  0  0  0  0  0  0  0  0  0  0
    9.3180  -15.6261   23.7012 C   0  0  0  0  0  0  0  0  0  0  0  0
   10.7427  -15.3980   24.2306 C   0  0  0  0  0  0  0  0  0  0  0  0
   11.0472  -16.6649   24.9479 C   0  0  0  0  0  0  0  0  0  0  0  0
    9.9470  -17.6287   24.5746 C   0  0  1  0  0  0  0  0  0  0  0  0
    8.9492  -17.7660   25.6658 C   0  0  0  0  0  0  0  0  0  0  0  0
    8.1626  -16.8096   25.8783 O   0  0  0  0  0  0  0  0  0  0  0  0
    7.1215  -20.9590   26.4418 O   0  0  0  0  0  0  0  0  0  0  0  0
    6.6800  -19.7663   27.0167 C   0  0  0  0  0  0  0  0  0  0  0  0
    7.9046  -19.0374   27.5828 C   0  0  2  0  0  0  0  0  0  0  0  0
    8.8334  -18.9070   26.4768 N   0  0  0  0  0  0  0  0  0  0  0  0
    8.5384  -19.8466   28.6551 C   0  0  0  0  0  0  0  0  0  0  0  0
    9.6636  -20.3832   28.5186 O   0  0  0  0  0  0  0  0  0  0  0  0
    7.8911  -20.0372   29.8656 O   0  0  0  0  0  0  0  0  0  0  0  0
  2  1  1  6
  3  2  1  0
  4  3  1  0
  4  5  2  0
  6  5  1  0
  7  6  1  0
  8  7  2  0
  8  4  1  0
  9  2  1  0
 10  9  2  0
 11 15  1  0
 11  9  1  0
 12 11  1  0
 13 12  1  0
 13 14  1  0
 14 15  1  0
 16 17  2  0
 15 16  1  1
 18 19  1  0
 20 19  1  6
 20 22  1  0
 20 21  1  0
 21 16  1  0
 22 24  1  0
 23 22  2  0
M  END
$$$$
