HPS.pdb
     RDKit          3D

 24 25  0  0  1  0  0  0  0  0999 V2000
    9.3056  -14.9432   14.7773 N   0  0  0  0  0  0  0  0  0  0  0  0
    8.7087  -15.3495   15.9858 C   0  0  1  0  0  0  0  0  0  0  0  0
    8.6763  -16.8795   15.9679 C   0  0  0  0  0  0  0  0  0  0  0  0
    7.9218  -17.3627   14.7805 C   0  0  0  0  0  0  0  0  0  0  0  0
    6.5531  -17.4886   14.6387 C   0  0  0  0  0  0  0  0  0  0  0  0
    6.2663  -17.9637   13.4058 N   0  0  0  0  0  0  0  0  0  0  0  0
    7.4264  -18.1375   12.7737 C   0  0  0  0  0  0  0  0  0  0  0  0
    8.4260  -17.7782   13.5942 N   0  0  0  0  0  0  0  0  0  0  0  0
    9.3498  -14.8960   17.2395 C   0  0  0  0  0  0  0  0  0  0  0  0
   10.6467  -14.7848   17.1739 O   0  0  0  0  0  0  0  0  0  0  0  0
    8.6978  -14.5900   18.4415 N   0  0  0  0  0  0  0  0  0  0  0  0
    7.3213  -14.6424   18.7935 C   0  0  0  0  0  0  0  0  0  0  0  0
    7.1428  -13.2613   19.4436 C   0  0  0  0  0  0  0  0  0  0  0  0
    8.4400  -13.0401   20.1369 C   0  0  0  0  0  0  0  0  0  0  0  0
    9.3660  -14.1246   19.6419 C   0  0  1  0  0  0  0  0  0  0  0  0
    9.5189  -15.2100   20.6437 C   0  0  0  0  0  0  0  0  0  0  0  0
    8.6468  -16.1138   20.6814 O   0  0  0  0  0  0  0  0  0  0  0  0
   13.0694  -16.5154   21.6122 O   0  0  0  0  0  0  0  0  0  0  0  0
   12.3339  -16.3330   22.7842 C   0  0  0  0  0  0  0  0  0  0  0  0
   10.8462  -16.4177   22.4220 C   0  0  2  0  0  0  0  0  0  0  0  0
   10.5855  -15.2852   21.5546 N   0  0  0  0  0  0  0  0  0  0  0  0
   10.0088  -16.2963   23.6427 C   0  0  0  0  0  0  0  0  0  0  0  0
    9.3333  -15.2708   23.8972 O   0  0  0  0  0  0  0  0  0  0  0  0
    9.9472  -17.3355   24.5575 O   0  0  0  0  0  0  0  0  0  0  0  0
  2  1  1  6
  3  2  1  0
  4  3  1  0
  4  5  2  0
  6  5  1  0
  7  6  1  0
  8  7  2  0
  8  4  1  0
  9  2  1  0
 10  9  2  0
 11 15  1  0
 11  9  1  0
 12 11  1  0
 13 12  1  0
 13 14  1  0
 14 15  1  0
 16 17  2  0
 15 16  1  1
 18 19  1  0
 20 19  1  1
 20 22  1  0
 20 21  1  0
 21 16  1  0
 22 24  1  0
 23 22  2  0
M  END
$$$$
