HPS.pdb
     RDKit          3D

 24 25  0  0  1  0  0  0  0  0999 V2000
   10.2642  -15.5311   15.1749 N   0  0  0  0  0  0  0  0  0  0  0  0
    9.2783  -15.1489   16.1043 C   0  0  1  0  0  0  0  0  0  0  0  0
    8.2307  -16.2646   16.1183 C   0  0  0  0  0  0  0  0  0  0  0  0
    7.6946  -16.4819   14.7478 C   0  0  0  0  0  0  0  0  0  0  0  0
    6.9758  -15.5964   13.9679 C   0  0  0  0  0  0  0  0  0  0  0  0
    6.6736  -16.1760   12.7844 N   0  0  0  0  0  0  0  0  0  0  0  0
    7.1881  -17.4049   12.8076 C   0  0  0  0  0  0  0  0  0  0  0  0
    7.8035  -17.5957   13.9851 N   0  0  0  0  0  0  0  0  0  0  0  0
    9.7241  -14.8895   17.4907 C   0  0  0  0  0  0  0  0  0  0  0  0
   10.9841  -15.1407   17.7093 O   0  0  0  0  0  0  0  0  0  0  0  0
    8.9296  -14.4150   18.5429 N   0  0  0  0  0  0  0  0  0  0  0  0
    7.5308  -14.1718   18.6168 C   0  0  0  0  0  0  0  0  0  0  0  0
    7.5206  -12.7617   19.2281 C   0  0  0  0  0  0  0  0  0  0  0  0
    8.6759  -12.7874   20.1645 C   0  0  0  0  0  0  0  0  0  0  0  0
    9.4344  -14.0551   19.8544 C   0  0  1  0  0  0  0  0  0  0  0  0
    9.1612  -15.1135   20.8595 C   0  0  0  0  0  0  0  0  0  0  0  0
    8.0409  -15.6819   20.8375 O   0  0  0  0  0  0  0  0  0  0  0  0
   12.2447  -17.1159   22.3310 O   0  0  0  0  0  0  0  0  0  0  0  0
   10.9862  -17.6963   22.1657 C   0  0  0  0  0  0  0  0  0  0  0  0
    9.9388  -16.6957   22.6691 C   0  0  2  0  0  0  0  0  0  0  0  0
   10.0857  -15.5173   21.8368 N   0  0  0  0  0  0  0  0  0  0  0  0
   10.2114  -16.3282   24.0821 C   0  0  0  0  0  0  0  0  0  0  0  0
   10.5983  -15.1836   24.4182 O   0  0  0  0  0  0  0  0  0  0  0  0
   10.0428  -17.2597   25.0943 O   0  0  0  0  0  0  0  0  0  0  0  0
  2  1  1  6
  3  2  1  0
  4  3  1  0
  4  5  2  0
  6  5  1  0
  7  6  1  0
  8  7  2  0
  8  4  1  0
  9  2  1  0
 10  9  2  0
 11 15  1  0
 11  9  1  0
 12 11  1  0
 13 12  1  0
 13 14  1  0
 14 15  1  0
 16 17  2  0
 15 16  1  1
 18 19  1  0
 20 19  1  6
 20 22  1  0
 20 21  1  0
 21 16  1  0
 22 24  1  0
 23 22  2  0
M  END
$$$$
