HPS.pdb
     RDKit          3D

 24 25  0  0  1  0  0  0  0  0999 V2000
   10.2321  -14.3741   20.5733 N   0  0  0  0  0  0  0  0  0  0  0  0
    9.1262  -14.2055   21.4279 C   0  0  1  0  0  0  0  0  0  0  0  0
    7.9608  -14.9699   20.7955 C   0  0  0  0  0  0  0  0  0  0  0  0
    7.8128  -14.5880   19.3654 C   0  0  0  0  0  0  0  0  0  0  0  0
    7.5273  -13.3399   18.8459 C   0  0  0  0  0  0  0  0  0  0  0  0
    7.4778  -13.4105   17.4966 N   0  0  0  0  0  0  0  0  0  0  0  0
    7.7262  -14.6759   17.1614 C   0  0  0  0  0  0  0  0  0  0  0  0
    7.9287  -15.3896   18.2800 N   0  0  0  0  0  0  0  0  0  0  0  0
    9.2860  -14.6459   22.8310 C   0  0  0  0  0  0  0  0  0  0  0  0
   10.4818  -15.0676   23.1324 O   0  0  0  0  0  0  0  0  0  0  0  0
    8.2927  -14.6450   23.8194 N   0  0  0  0  0  0  0  0  0  0  0  0
    6.8809  -14.5095   23.7203 C   0  0  0  0  0  0  0  0  0  0  0  0
    6.6228  -13.4426   24.7960 C   0  0  0  0  0  0  0  0  0  0  0  0
    7.6171  -13.7745   25.8513 C   0  0  0  0  0  0  0  0  0  0  0  0
    8.5483  -14.7929   25.2396 C   0  0  1  0  0  0  0  0  0  0  0  0
    8.2422  -16.1661   25.7147 C   0  0  0  0  0  0  0  0  0  0  0  0
    7.2372  -16.7514   25.2392 O   0  0  0  0  0  0  0  0  0  0  0  0
   10.8712  -17.5589   28.3054 O   0  0  0  0  0  0  0  0  0  0  0  0
   10.8654  -18.2800   27.1105 C   0  0  0  0  0  0  0  0  0  0  0  0
    9.4430  -18.2301   26.5397 C   0  0  2  0  0  0  0  0  0  0  0  0
    9.0137  -16.8509   26.6680 N   0  0  0  0  0  0  0  0  0  0  0  0
    8.5356  -19.0962   27.3352 C   0  0  0  0  0  0  0  0  0  0  0  0
    8.6494  -20.3447   27.3640 O   0  0  0  0  0  0  0  0  0  0  0  0
    7.5133  -18.5383   28.0863 O   0  0  0  0  0  0  0  0  0  0  0  0
  2  1  1  6
  3  2  1  0
  4  3  1  0
  4  5  2  0
  6  5  1  0
  7  6  1  0
  8  7  2  0
  8  4  1  0
  9  2  1  0
 10  9  2  0
 11 15  1  0
 11  9  1  0
 12 11  1  0
 13 12  1  0
 13 14  1  0
 14 15  1  0
 16 17  2  0
 15 16  1  1
 18 19  1  0
 20 19  1  1
 20 22  1  0
 20 21  1  0
 21 16  1  0
 22 24  1  0
 23 22  2  0
M  END
$$$$
