HPS.pdb
     RDKit          3D

 24 25  0  0  1  0  0  0  0  0999 V2000
    9.5675  -16.8745   16.0004 N   0  0  0  0  0  0  0  0  0  0  0  0
    8.6758  -16.2618   16.9011 C   0  0  1  0  0  0  0  0  0  0  0  0
    7.6557  -17.3289   17.3048 C   0  0  0  0  0  0  0  0  0  0  0  0
    6.9325  -17.8273   16.1041 C   0  0  0  0  0  0  0  0  0  0  0  0
    7.0813  -17.4169   14.7932 C   0  0  0  0  0  0  0  0  0  0  0  0
    6.2392  -18.1169   14.0002 N   0  0  0  0  0  0  0  0  0  0  0  0
    5.5671  -18.9561   14.7872 C   0  0  0  0  0  0  0  0  0  0  0  0
    5.9788  -18.7875   16.0536 N   0  0  0  0  0  0  0  0  0  0  0  0
    9.2573  -15.6647   18.1233 C   0  0  0  0  0  0  0  0  0  0  0  0
   10.5030  -15.9808   18.3393 O   0  0  0  0  0  0  0  0  0  0  0  0
    8.5996  -14.8214   19.0287 N   0  0  0  0  0  0  0  0  0  0  0  0
    7.2783  -14.2966   19.0209 C   0  0  0  0  0  0  0  0  0  0  0  0
    7.5616  -12.8125   19.3027 C   0  0  0  0  0  0  0  0  0  0  0  0
    8.7137  -12.8575   20.2425 C   0  0  0  0  0  0  0  0  0  0  0  0
    9.1996  -14.2866   20.2362 C   0  0  1  0  0  0  0  0  0  0  0  0
    8.7504  -15.0204   21.4465 C   0  0  0  0  0  0  0  0  0  0  0  0
    7.6141  -15.5565   21.4313 O   0  0  0  0  0  0  0  0  0  0  0  0
   10.7808  -18.4935   23.0374 O   0  0  0  0  0  0  0  0  0  0  0  0
   10.4107  -17.3431   22.3393 C   0  0  0  0  0  0  0  0  0  0  0  0
    9.7250  -16.3940   23.3296 C   0  0  2  0  0  0  0  0  0  0  0  0
    9.5247  -15.1504   22.6112 N   0  0  0  0  0  0  0  0  0  0  0  0
   10.6055  -16.1420   24.4989 C   0  0  0  0  0  0  0  0  0  0  0  0
   11.4321  -15.1995   24.5293 O   0  0  0  0  0  0  0  0  0  0  0  0
   10.5386  -16.9589   25.6164 O   0  0  0  0  0  0  0  0  0  0  0  0
  2  1  1  6
  3  2  1  0
  4  3  1  0
  4  5  2  0
  6  5  1  0
  7  6  1  0
  8  7  2  0
  8  4  1  0
  9  2  1  0
 10  9  2  0
 11 15  1  0
 11  9  1  0
 12 11  1  0
 13 12  1  0
 13 14  1  0
 14 15  1  0
 16 17  2  0
 15 16  1  1
 18 19  1  0
 20 19  1  6
 20 22  1  0
 20 21  1  0
 21 16  1  0
 22 24  1  0
 23 22  2  0
M  END
$$$$
