HPS.pdb
     RDKit          3D

 24 25  0  0  1  0  0  0  0  0999 V2000
    8.8306  -14.7722   20.9395 N   0  0  0  0  0  0  0  0  0  0  0  0
    8.0991  -15.0136   22.1179 C   0  0  1  0  0  0  0  0  0  0  0  0
    7.8883  -16.5271   22.2027 C   0  0  0  0  0  0  0  0  0  0  0  0
    7.2625  -17.0287   20.9499 C   0  0  0  0  0  0  0  0  0  0  0  0
    6.0611  -16.6414   20.3878 C   0  0  0  0  0  0  0  0  0  0  0  0
    5.8489  -17.3359   19.2473 N   0  0  0  0  0  0  0  0  0  0  0  0
    6.8919  -18.1490   19.0843 C   0  0  0  0  0  0  0  0  0  0  0  0
    7.7458  -17.9696   20.1042 N   0  0  0  0  0  0  0  0  0  0  0  0
    8.6911  -14.5379   23.3874 C   0  0  0  0  0  0  0  0  0  0  0  0
    9.9849  -14.3845   23.3565 O   0  0  0  0  0  0  0  0  0  0  0  0
    7.9973  -14.2520   24.5708 N   0  0  0  0  0  0  0  0  0  0  0  0
    6.6166  -14.3643   24.8908 C   0  0  0  0  0  0  0  0  0  0  0  0
    6.3599  -12.9874   25.5235 C   0  0  0  0  0  0  0  0  0  0  0  0
    7.6288  -12.7014   26.2450 C   0  0  0  0  0  0  0  0  0  0  0  0
    8.6148  -13.7465   25.7822 C   0  0  1  0  0  0  0  0  0  0  0  0
    8.7929  -14.8154   26.7974 C   0  0  0  0  0  0  0  0  0  0  0  0
    8.0593  -15.8330   26.7270 O   0  0  0  0  0  0  0  0  0  0  0  0
   10.8810  -14.4887   30.0926 O   0  0  0  0  0  0  0  0  0  0  0  0
   11.6560  -15.1971   29.1732 C   0  0  0  0  0  0  0  0  0  0  0  0
   10.7104  -15.7908   28.1220 C   0  0  2  0  0  0  0  0  0  0  0  0
    9.7372  -14.7546   27.8355 N   0  0  0  0  0  0  0  0  0  0  0  0
   10.0068  -16.9783   28.6708 C   0  0  0  0  0  0  0  0  0  0  0  0
    8.7738  -16.9851   28.8991 O   0  0  0  0  0  0  0  0  0  0  0  0
   10.7073  -18.1402   28.9533 O   0  0  0  0  0  0  0  0  0  0  0  0
  2  1  1  6
  3  2  1  0
  4  3  1  0
  4  5  2  0
  6  5  1  0
  7  6  1  0
  8  7  2  0
  8  4  1  0
  9  2  1  0
 10  9  2  0
 11 15  1  0
 11  9  1  0
 12 11  1  0
 13 12  1  0
 13 14  1  0
 14 15  1  0
 16 17  2  0
 15 16  1  1
 18 19  1  0
 20 19  1  1
 20 22  1  0
 20 21  1  0
 21 16  1  0
 22 24  1  0
 23 22  2  0
M  END
$$$$
