HPS.pdb
     RDKit          3D

 24 25  0  0  1  0  0  0  0  0999 V2000
    7.0839  -17.1178   19.7998 N   0  0  0  0  0  0  0  0  0  0  0  0
    8.3536  -17.0944   20.4074 C   0  0  1  0  0  0  0  0  0  0  0  0
    9.1660  -16.0155   19.6876 C   0  0  0  0  0  0  0  0  0  0  0  0
    8.4712  -14.7034   19.7796 C   0  0  0  0  0  0  0  0  0  0  0  0
    7.2242  -14.4395   20.3130 C   0  0  0  0  0  0  0  0  0  0  0  0
    6.9548  -13.1189   20.2055 N   0  0  0  0  0  0  0  0  0  0  0  0
    8.0067  -12.5515   19.6164 C   0  0  0  0  0  0  0  0  0  0  0  0
    8.9223  -13.4982   19.3574 N   0  0  0  0  0  0  0  0  0  0  0  0
    8.3985  -16.8396   21.8640 C   0  0  0  0  0  0  0  0  0  0  0  0
    7.2355  -16.6241   22.4112 O   0  0  0  0  0  0  0  0  0  0  0  0
    9.5467  -16.8128   22.6667 N   0  0  0  0  0  0  0  0  0  0  0  0
   10.9244  -16.7612   22.3195 C   0  0  0  0  0  0  0  0  0  0  0  0
   11.4818  -17.8872   23.2048 C   0  0  0  0  0  0  0  0  0  0  0  0
   10.6624  -17.7857   24.4420 C   0  0  0  0  0  0  0  0  0  0  0  0
    9.5345  -16.8365   24.1171 C   0  0  1  0  0  0  0  0  0  0  0  0
    9.7735  -15.4886   24.6924 C   0  0  0  0  0  0  0  0  0  0  0  0
   10.6508  -14.7614   24.1631 O   0  0  0  0  0  0  0  0  0  0  0  0
    7.0363  -13.7835   27.0288 O   0  0  0  0  0  0  0  0  0  0  0  0
    7.9616  -12.9575   26.3889 C   0  0  0  0  0  0  0  0  0  0  0  0
    9.3152  -13.6781   26.3938 C   0  0  2  0  0  0  0  0  0  0  0  0
    9.0733  -14.9778   25.7977 N   0  0  0  0  0  0  0  0  0  0  0  0
    9.7966  -13.8656   27.7864 C   0  0  0  0  0  0  0  0  0  0  0  0
    9.8425  -14.9909   28.3378 O   0  0  0  0  0  0  0  0  0  0  0  0
   10.2189  -12.7784   28.5349 O   0  0  0  0  0  0  0  0  0  0  0  0
  2  1  1  6
  3  2  1  0
  4  3  1  0
  4  5  2  0
  6  5  1  0
  7  6  1  0
  8  7  2  0
  8  4  1  0
  9  2  1  0
 10  9  2  0
 11 15  1  0
 11  9  1  0
 12 11  1  0
 13 12  1  0
 13 14  1  0
 14 15  1  0
 16 17  2  0
 15 16  1  1
 18 19  1  0
 20 19  1  1
 20 22  1  0
 20 21  1  0
 21 16  1  0
 22 24  1  0
 23 22  2  0
M  END
$$$$
