HPS.pdb
     RDKit          3D

 24 25  0  0  1  0  0  0  0  0999 V2000
    7.8628  -14.5764   21.1189 N   0  0  0  0  0  0  0  0  0  0  0  0
    7.3098  -14.0895   22.3185 C   0  0  1  0  0  0  0  0  0  0  0  0
    6.0433  -14.9070   22.5828 C   0  0  0  0  0  0  0  0  0  0  0  0
    6.3911  -16.3382   22.7921 C   0  0  0  0  0  0  0  0  0  0  0  0
    6.9975  -17.2027   21.9012 C   0  0  0  0  0  0  0  0  0  0  0  0
    7.1392  -18.4191   22.4742 N   0  0  0  0  0  0  0  0  0  0  0  0
    6.6342  -18.3335   23.7043 C   0  0  0  0  0  0  0  0  0  0  0  0
    6.1826  -17.0852   23.9023 N   0  0  0  0  0  0  0  0  0  0  0  0
    8.1694  -14.1306   23.5217 C   0  0  0  0  0  0  0  0  0  0  0  0
    9.4123  -14.4451   23.2877 O   0  0  0  0  0  0  0  0  0  0  0  0
    7.7672  -13.8688   24.8383 N   0  0  0  0  0  0  0  0  0  0  0  0
    6.4740  -13.6702   25.3946 C   0  0  0  0  0  0  0  0  0  0  0  0
    6.7126  -12.3937   26.2167 C   0  0  0  0  0  0  0  0  0  0  0  0
    8.1027  -12.5652   26.7174 C   0  0  0  0  0  0  0  0  0  0  0  0
    8.6741  -13.7414   25.9632 C   0  0  1  0  0  0  0  0  0  0  0  0
    8.6913  -14.9685   26.7991 C   0  0  0  0  0  0  0  0  0  0  0  0
    7.5949  -15.5147   27.0791 O   0  0  0  0  0  0  0  0  0  0  0  0
   12.1880  -16.8923   27.1318 O   0  0  0  0  0  0  0  0  0  0  0  0
   11.0068  -17.6328   27.0662 C   0  0  0  0  0  0  0  0  0  0  0  0
    9.9391  -16.8846   27.8735 C   0  0  2  0  0  0  0  0  0  0  0  0
    9.8661  -15.5561   27.2966 N   0  0  0  0  0  0  0  0  0  0  0  0
   10.3500  -16.7732   29.2965 C   0  0  0  0  0  0  0  0  0  0  0  0
   10.5372  -15.6683   29.8594 O   0  0  0  0  0  0  0  0  0  0  0  0
   10.5431  -17.9121   30.0622 O   0  0  0  0  0  0  0  0  0  0  0  0
  2  1  1  6
  3  2  1  0
  4  3  1  0
  4  5  2  0
  6  5  1  0
  7  6  1  0
  8  7  2  0
  8  4  1  0
  9  2  1  0
 10  9  2  0
 11 15  1  0
 11  9  1  0
 12 11  1  0
 13 12  1  0
 13 14  1  0
 14 15  1  0
 16 17  2  0
 15 16  1  1
 18 19  1  0
 20 19  1  6
 20 22  1  0
 20 21  1  0
 21 16  1  0
 22 24  1  0
 23 22  2  0
M  END
$$$$
