HPS.pdb
     RDKit          3D

 24 25  0  0  1  0  0  0  0  0999 V2000
    9.2490  -15.1964   14.5441 N   0  0  0  0  0  0  0  0  0  0  0  0
    8.5100  -15.0963   15.7381 C   0  0  1  0  0  0  0  0  0  0  0  0
    7.8766  -16.4684   15.9800 C   0  0  0  0  0  0  0  0  0  0  0  0
    8.9284  -17.5198   16.0143 C   0  0  0  0  0  0  0  0  0  0  0  0
   10.2856  -17.3691   15.8040 C   0  0  0  0  0  0  0  0  0  0  0  0
   10.8992  -18.5680   15.9229 N   0  0  0  0  0  0  0  0  0  0  0  0
    9.9546  -19.4651   16.2029 C   0  0  0  0  0  0  0  0  0  0  0  0
    8.7671  -18.8420   16.2593 N   0  0  0  0  0  0  0  0  0  0  0  0
    9.2463  -14.6848   16.9534 C   0  0  0  0  0  0  0  0  0  0  0  0
   10.5354  -14.5776   16.7941 O   0  0  0  0  0  0  0  0  0  0  0  0
    8.6883  -14.4133   18.2097 N   0  0  0  0  0  0  0  0  0  0  0  0
    7.3524  -14.5342   18.6808 C   0  0  0  0  0  0  0  0  0  0  0  0
    7.1640  -13.1645   19.3522 C   0  0  0  0  0  0  0  0  0  0  0  0
    8.5048  -12.8805   19.9302 C   0  0  0  0  0  0  0  0  0  0  0  0
    9.4359  -13.9172   19.3496 C   0  0  1  0  0  0  0  0  0  0  0  0
    9.7294  -14.9952   20.3277 C   0  0  0  0  0  0  0  0  0  0  0  0
    9.0150  -16.0286   20.3083 O   0  0  0  0  0  0  0  0  0  0  0  0
   13.4947  -16.8047   22.6827 O   0  0  0  0  0  0  0  0  0  0  0  0
   12.8574  -15.7150   22.0874 C   0  0  0  0  0  0  0  0  0  0  0  0
   11.3790  -16.0790   21.9046 C   0  0  2  0  0  0  0  0  0  0  0  0
   10.7628  -14.9263   21.2765 N   0  0  0  0  0  0  0  0  0  0  0  0
   10.7370  -16.3136   23.2233 C   0  0  0  0  0  0  0  0  0  0  0  0
   10.9270  -17.3592   23.8889 O   0  0  0  0  0  0  0  0  0  0  0  0
    9.8897  -15.3628   23.7700 O   0  0  0  0  0  0  0  0  0  0  0  0
  2  1  1  6
  3  2  1  0
  4  3  1  0
  4  5  2  0
  6  5  1  0
  7  6  1  0
  8  7  2  0
  8  4  1  0
  9  2  1  0
 10  9  2  0
 11 15  1  0
 11  9  1  0
 12 11  1  0
 13 12  1  0
 13 14  1  0
 14 15  1  0
 16 17  2  0
 15 16  1  1
 18 19  1  0
 20 19  1  1
 20 22  1  0
 20 21  1  0
 21 16  1  0
 22 24  1  0
 23 22  2  0
M  END
$$$$
