HPS.pdb
     RDKit          3D

 24 25  0  0  1  0  0  0  0  0999 V2000
    9.6564  -14.0937   21.4777 N   0  0  0  0  0  0  0  0  0  0  0  0
    8.5735  -13.8879   22.3534 C   0  0  1  0  0  0  0  0  0  0  0  0
    7.3407  -14.4939   21.6788 C   0  0  0  0  0  0  0  0  0  0  0  0
    7.3096  -14.1225   20.2386 C   0  0  0  0  0  0  0  0  0  0  0  0
    7.3231  -12.8549   19.6890 C   0  0  0  0  0  0  0  0  0  0  0  0
    7.2841  -12.9445   18.3405 N   0  0  0  0  0  0  0  0  0  0  0  0
    7.2465  -14.2410   18.0353 C   0  0  0  0  0  0  0  0  0  0  0  0
    7.2615  -14.9552   19.1716 N   0  0  0  0  0  0  0  0  0  0  0  0
    8.6969  -14.4430   23.7191 C   0  0  0  0  0  0  0  0  0  0  0  0
    9.7619  -15.1686   23.9134 O   0  0  0  0  0  0  0  0  0  0  0  0
    7.7949  -14.2569   24.7751 N   0  0  0  0  0  0  0  0  0  0  0  0
    6.4239  -13.8804   24.7731 C   0  0  0  0  0  0  0  0  0  0  0  0
    6.4337  -12.7706   25.8363 C   0  0  0  0  0  0  0  0  0  0  0  0
    7.4320  -13.2556   26.8266 C   0  0  0  0  0  0  0  0  0  0  0  0
    8.1264  -14.4279   26.1769 C   0  0  1  0  0  0  0  0  0  0  0  0
    7.6252  -15.7209   26.7081 C   0  0  0  0  0  0  0  0  0  0  0  0
    6.3912  -15.9507   26.6516 O   0  0  0  0  0  0  0  0  0  0  0  0
    9.6851  -18.7929   26.2979 O   0  0  0  0  0  0  0  0  0  0  0  0
    8.3491  -18.9994   26.6450 C   0  0  0  0  0  0  0  0  0  0  0  0
    7.9903  -17.9948   27.7466 C   0  0  2  0  0  0  0  0  0  0  0  0
    8.4535  -16.7053   27.2719 N   0  0  0  0  0  0  0  0  0  0  0  0
    8.7020  -18.3319   29.0060 C   0  0  0  0  0  0  0  0  0  0  0  0
    9.5955  -17.5985   29.4922 O   0  0  0  0  0  0  0  0  0  0  0  0
    8.3933  -19.4929   29.6971 O   0  0  0  0  0  0  0  0  0  0  0  0
  2  1  1  6
  3  2  1  0
  4  3  1  0
  4  5  2  0
  6  5  1  0
  7  6  1  0
  8  7  2  0
  8  4  1  0
  9  2  1  0
 10  9  2  0
 11 15  1  0
 11  9  1  0
 12 11  1  0
 13 12  1  0
 13 14  1  0
 14 15  1  0
 16 17  2  0
 15 16  1  1
 18 19  1  0
 20 19  1  6
 20 22  1  0
 20 21  1  0
 21 16  1  0
 22 24  1  0
 23 22  2  0
M  END
$$$$
