HPS.pdb
     RDKit          3D

 24 25  0  0  1  0  0  0  0  0999 V2000
    9.6135  -15.2209   14.3582 N   0  0  0  0  0  0  0  0  0  0  0  0
    8.9576  -15.3068   15.6008 C   0  0  1  0  0  0  0  0  0  0  0  0
    8.7329  -16.7951   15.8778 C   0  0  0  0  0  0  0  0  0  0  0  0
    7.8953  -17.3956   14.8051 C   0  0  0  0  0  0  0  0  0  0  0  0
    6.6928  -16.9311   14.3078 C   0  0  0  0  0  0  0  0  0  0  0  0
    6.2514  -17.7628   13.3376 N   0  0  0  0  0  0  0  0  0  0  0  0
    7.1522  -18.7373   13.2176 C   0  0  0  0  0  0  0  0  0  0  0  0
    8.1433  -18.5230   14.0969 N   0  0  0  0  0  0  0  0  0  0  0  0
    9.6377  -14.6977   16.7648 C   0  0  0  0  0  0  0  0  0  0  0  0
   10.9291  -14.5795   16.6355 O   0  0  0  0  0  0  0  0  0  0  0  0
    9.0262  -14.2568   17.9461 N   0  0  0  0  0  0  0  0  0  0  0  0
    7.6609  -14.2537   18.3425 C   0  0  0  0  0  0  0  0  0  0  0  0
    7.5157  -12.8089   18.8461 C   0  0  0  0  0  0  0  0  0  0  0  0
    8.8359  -12.5317   19.4728 C   0  0  0  0  0  0  0  0  0  0  0  0
    9.7357  -13.6746   19.0694 C   0  0  1  0  0  0  0  0  0  0  0  0
    9.9092  -14.6488   20.1765 C   0  0  0  0  0  0  0  0  0  0  0  0
    9.0574  -15.5636   20.3048 O   0  0  0  0  0  0  0  0  0  0  0  0
   14.2041  -16.1963   21.0994 O   0  0  0  0  0  0  0  0  0  0  0  0
   13.2614  -15.2062   20.8184 C   0  0  0  0  0  0  0  0  0  0  0  0
   11.9000  -15.6981   21.3247 C   0  0  2  0  0  0  0  0  0  0  0  0
   10.9738  -14.6068   21.0918 N   0  0  0  0  0  0  0  0  0  0  0  0
   11.9608  -15.9796   22.7819 C   0  0  0  0  0  0  0  0  0  0  0  0
   12.6581  -16.9052   23.2609 O   0  0  0  0  0  0  0  0  0  0  0  0
   11.2326  -15.2108   23.6759 O   0  0  0  0  0  0  0  0  0  0  0  0
  2  1  1  6
  3  2  1  0
  4  3  1  0
  4  5  2  0
  6  5  1  0
  7  6  1  0
  8  7  2  0
  8  4  1  0
  9  2  1  0
 10  9  2  0
 11 15  1  0
 11  9  1  0
 12 11  1  0
 13 12  1  0
 13 14  1  0
 14 15  1  0
 16 17  2  0
 15 16  1  1
 18 19  1  0
 20 19  1  1
 20 22  1  0
 20 21  1  0
 21 16  1  0
 22 24  1  0
 23 22  2  0
M  END
$$$$
