NGQ.pdb
     RDKit          3D

 22 21  0  0  1  0  0  0  0  0999 V2000
   19.9850  -11.3929  -18.3402 N   0  0  0  0  0  0  0  0  0  0  0  0
   19.6829  -12.4226  -17.3836 C   0  0  0  0  0  0  0  0  0  0  0  0
   19.9187  -13.5883  -17.7493 O   0  0  0  0  0  0  0  0  0  0  0  0
   19.1361  -12.1004  -16.0743 C   0  0  0  0  0  0  0  0  0  0  0  0
   18.8223  -10.6430  -15.8402 C   0  0  2  0  0  0  0  0  0  0  0  0
   20.1107   -9.9865  -15.4705 N   0  0  0  0  0  0  0  0  0  0  0  0
   17.9197  -10.4433  -14.6873 C   0  0  0  0  0  0  0  0  0  0  0  0
   16.7104  -10.8014  -14.8247 O   0  0  0  0  0  0  0  0  0  0  0  0
   18.3247   -9.8852  -13.4494 N   0  0  0  0  0  0  0  0  0  0  0  0
   18.1679   -8.4668  -13.2587 C   0  0  0  0  0  0  0  0  0  0  0  0
   16.9178   -8.0379  -12.6455 C   0  0  0  0  0  0  0  0  0  0  0  0
   16.2040   -8.9612  -12.1195 O   0  0  0  0  0  0  0  0  0  0  0  0
   15.4943   -7.2568   -7.9046 N   0  0  0  0  0  0  0  0  0  0  0  0
   14.2282   -6.7822   -8.3078 C   0  0  0  0  0  0  0  0  0  0  0  0
   13.2836   -6.6047   -7.5317 O   0  0  0  0  0  0  0  0  0  0  0  0
   14.0310   -6.4780   -9.7749 C   0  0  0  0  0  0  0  0  0  0  0  0
   15.2805   -6.7754  -10.5204 C   0  0  0  0  0  0  0  0  0  0  0  0
   15.1320   -6.4328  -11.9774 C   0  0  2  0  0  0  0  0  0  0  0  0
   16.4412   -6.7153  -12.5864 N   0  0  0  0  0  0  0  0  0  0  0  0
   14.8354   -5.0109  -12.1936 C   0  0  0  0  0  0  0  0  0  0  0  0
   13.6685   -4.5925  -12.3622 O   0  0  0  0  0  0  0  0  0  0  0  0
   15.8626   -4.0417  -12.2216 O   0  0  0  0  0  0  0  0  0  0  0  0
  2  1  1  0
  3  2  2  0
  4  2  1  0
  5  4  1  0
  5  6  1  1
  7  5  1  0
  7  8  2  0
  9  7  1  0
 10  9  1  0
 10 11  1  0
 11 12  2  0
 11 19  1  0
 14 15  2  0
 14 13  1  0
 16 14  1  0
 17 16  1  0
 18 17  1  1
 19 18  1  0
 20 18  1  0
 20 22  1  0
 21 20  2  0
M  END
$$$$
