NGQ.pdb
     RDKit          3D

 22 21  0  0  1  0  0  0  0  0999 V2000
   12.5126  -13.8969  -14.1592 N   0  0  0  0  0  0  0  0  0  0  0  0
   12.0529  -12.6696  -14.7496 C   0  0  0  0  0  0  0  0  0  0  0  0
   10.8331  -12.6059  -14.9873 O   0  0  0  0  0  0  0  0  0  0  0  0
   12.9731  -11.5813  -15.0430 C   0  0  0  0  0  0  0  0  0  0  0  0
   14.4098  -11.8187  -14.6471 C   0  0  2  0  0  0  0  0  0  0  0  0
   14.5482  -11.3317  -13.2431 N   0  0  0  0  0  0  0  0  0  0  0  0
   15.3520  -11.0125  -15.4509 C   0  0  0  0  0  0  0  0  0  0  0  0
   15.5558  -11.3766  -16.6491 O   0  0  0  0  0  0  0  0  0  0  0  0
   16.0296   -9.8662  -14.9664 N   0  0  0  0  0  0  0  0  0  0  0  0
   16.8704   -9.1363  -15.8790 C   0  0  0  0  0  0  0  0  0  0  0  0
   18.2573   -8.9594  -15.4693 C   0  0  0  0  0  0  0  0  0  0  0  0
   18.5118   -9.1844  -14.2350 O   0  0  0  0  0  0  0  0  0  0  0  0
   24.8797   -7.2028  -17.8034 N   0  0  0  0  0  0  0  0  0  0  0  0
   23.8852   -8.2036  -17.7925 C   0  0  0  0  0  0  0  0  0  0  0  0
   23.6948   -8.9909  -18.7252 O   0  0  0  0  0  0  0  0  0  0  0  0
   23.0111   -8.3065  -16.5640 C   0  0  0  0  0  0  0  0  0  0  0  0
   21.5921   -8.4681  -16.9712 C   0  0  0  0  0  0  0  0  0  0  0  0
   20.6876   -8.4955  -15.7698 C   0  0  2  0  0  0  0  0  0  0  0  0
   19.3192   -8.5682  -16.3055 N   0  0  0  0  0  0  0  0  0  0  0  0
   20.7876   -7.2731  -14.9623 C   0  0  0  0  0  0  0  0  0  0  0  0
   20.0471   -6.2838  -15.1576 O   0  0  0  0  0  0  0  0  0  0  0  0
   21.7326   -7.1565  -13.9189 O   0  0  0  0  0  0  0  0  0  0  0  0
  2  1  1  0
  3  2  2  0
  4  2  1  0
  5  4  1  0
  5  6  1  1
  7  5  1  0
  7  8  2  0
  9  7  1  0
 10  9  1  0
 10 11  1  0
 11 12  2  0
 11 19  1  0
 14 15  2  0
 14 13  1  0
 16 14  1  0
 17 16  1  0
 18 17  1  6
 19 18  1  0
 20 18  1  0
 20 22  1  0
 21 20  2  0
M  END
$$$$
