NGQ.pdb
     RDKit          3D

 22 21  0  0  1  0  0  0  0  0999 V2000
   28.4801  -14.5969  -19.6368 N   0  0  0  0  0  0  0  0  0  0  0  0
   29.6634  -14.4338  -20.4365 C   0  0  0  0  0  0  0  0  0  0  0  0
   29.8590  -15.3084  -21.2998 O   0  0  0  0  0  0  0  0  0  0  0  0
   30.5634  -13.3087  -20.2333 C   0  0  0  0  0  0  0  0  0  0  0  0
   30.1794  -12.3596  -19.1247 C   0  0  2  0  0  0  0  0  0  0  0  0
   29.5326  -11.1842  -19.7787 N   0  0  0  0  0  0  0  0  0  0  0  0
   31.3586  -11.8282  -18.4099 C   0  0  0  0  0  0  0  0  0  0  0  0
   31.9975  -12.6300  -17.6626 O   0  0  0  0  0  0  0  0  0  0  0  0
   31.8137  -10.4903  -18.5141 N   0  0  0  0  0  0  0  0  0  0  0  0
   32.9800  -10.1077  -17.7617 C   0  0  0  0  0  0  0  0  0  0  0  0
   32.8367   -8.9325  -16.9125 C   0  0  0  0  0  0  0  0  0  0  0  0
   31.6387   -8.6098  -16.5971 O   0  0  0  0  0  0  0  0  0  0  0  0
   37.1867   -5.8422  -13.7591 N   0  0  0  0  0  0  0  0  0  0  0  0
   36.8245   -7.1901  -13.5529 C   0  0  0  0  0  0  0  0  0  0  0  0
   37.4931   -7.9850  -12.8842 O   0  0  0  0  0  0  0  0  0  0  0  0
   35.5438   -7.6750  -14.1921 C   0  0  0  0  0  0  0  0  0  0  0  0
   34.9260   -6.5736  -14.9736 C   0  0  0  0  0  0  0  0  0  0  0  0
   33.5987   -6.9958  -15.5414 C   0  0  2  0  0  0  0  0  0  0  0  0
   33.8894   -8.1389  -16.4209 N   0  0  0  0  0  0  0  0  0  0  0  0
   32.9783   -5.9471  -16.3610 C   0  0  0  0  0  0  0  0  0  0  0  0
   33.1559   -5.8762  -17.5974 O   0  0  0  0  0  0  0  0  0  0  0  0
   32.1453   -4.9616  -15.7865 O   0  0  0  0  0  0  0  0  0  0  0  0
  2  1  1  0
  3  2  2  0
  4  2  1  0
  5  4  1  0
  5  6  1  6
  7  5  1  0
  7  8  2  0
  9  7  1  0
 10  9  1  0
 10 11  1  0
 11 12  2  0
 11 19  1  0
 14 15  2  0
 14 13  1  0
 16 14  1  0
 17 16  1  0
 18 17  1  6
 19 18  1  0
 20 18  1  0
 20 22  1  0
 21 20  2  0
M  END
$$$$
