NGQ.pdb
     RDKit          3D

 22 21  0  0  1  0  0  0  0  0999 V2000
   16.2576  -22.3714  -13.7881 N   0  0  0  0  0  0  0  0  0  0  0  0
   17.0806  -22.8373  -12.7055 C   0  0  0  0  0  0  0  0  0  0  0  0
   16.4926  -23.4747  -11.8131 O   0  0  0  0  0  0  0  0  0  0  0  0
   18.5104  -22.5698  -12.6743 C   0  0  0  0  0  0  0  0  0  0  0  0
   19.0561  -21.8063  -13.8561 C   0  0  2  0  0  0  0  0  0  0  0  0
   19.3940  -22.8215  -14.8967 N   0  0  0  0  0  0  0  0  0  0  0  0
   20.3224  -21.1140  -13.5384 C   0  0  0  0  0  0  0  0  0  0  0  0
   20.2426  -19.9989  -12.9386 O   0  0  0  0  0  0  0  0  0  0  0  0
   21.6063  -21.6212  -13.8579 N   0  0  0  0  0  0  0  0  0  0  0  0
   22.7486  -20.7758  -13.6278 C   0  0  0  0  0  0  0  0  0  0  0  0
   23.1759  -19.9565  -14.7542 C   0  0  0  0  0  0  0  0  0  0  0  0
   22.3820  -19.0119  -15.0952 O   0  0  0  0  0  0  0  0  0  0  0  0
   28.7913  -19.5017  -17.2690 N   0  0  0  0  0  0  0  0  0  0  0  0
   28.0977  -18.6537  -18.1580 C   0  0  0  0  0  0  0  0  0  0  0  0
   28.6329  -18.0678  -19.1047 O   0  0  0  0  0  0  0  0  0  0  0  0
   26.6167  -18.4607  -17.9269 C   0  0  0  0  0  0  0  0  0  0  0  0
   26.1724  -19.3080  -16.7911 C   0  0  0  0  0  0  0  0  0  0  0  0
   24.6872  -19.1932  -16.5832 C   0  0  2  0  0  0  0  0  0  0  0  0
   24.3683  -20.1174  -15.4836 N   0  0  0  0  0  0  0  0  0  0  0  0
   23.9198  -19.6175  -17.7610 C   0  0  0  0  0  0  0  0  0  0  0  0
   23.8727  -18.9326  -18.8070 O   0  0  0  0  0  0  0  0  0  0  0  0
   23.1930  -20.8286  -17.7678 O   0  0  0  0  0  0  0  0  0  0  0  0
  2  1  1  0
  3  2  2  0
  4  2  1  0
  5  4  1  0
  5  6  1  6
  7  5  1  0
  7  8  2  0
  9  7  1  0
 10  9  1  0
 10 11  1  0
 11 12  2  0
 11 19  1  0
 14 15  2  0
 14 13  1  0
 16 14  1  0
 17 16  1  0
 18 17  1  6
 19 18  1  0
 20 18  1  0
 20 22  1  0
 21 20  2  0
M  END
$$$$
