NGQ.pdb
     RDKit          3D

 22 21  0  0  1  0  0  0  0  0999 V2000
   17.4999  -14.3548  -17.2239 N   0  0  0  0  0  0  0  0  0  0  0  0
   18.9269  -14.1874  -17.2674 C   0  0  0  0  0  0  0  0  0  0  0  0
   19.5418  -14.9685  -18.0159 O   0  0  0  0  0  0  0  0  0  0  0  0
   19.5916  -13.1619  -16.4777 C   0  0  0  0  0  0  0  0  0  0  0  0
   18.6802  -12.2592  -15.6828 C   0  0  2  0  0  0  0  0  0  0  0  0
   17.3123  -12.8485  -15.7782 N   0  0  0  0  0  0  0  0  0  0  0  0
   18.5813  -10.9068  -16.2701 C   0  0  0  0  0  0  0  0  0  0  0  0
   19.6420  -10.2123  -16.3165 O   0  0  0  0  0  0  0  0  0  0  0  0
   17.3835  -10.3496  -16.7825 N   0  0  0  0  0  0  0  0  0  0  0  0
   17.3931   -8.9668  -17.1830 C   0  0  0  0  0  0  0  0  0  0  0  0
   17.7126   -8.0007  -16.1403 C   0  0  0  0  0  0  0  0  0  0  0  0
   17.2159   -8.2367  -14.9843 O   0  0  0  0  0  0  0  0  0  0  0  0
   22.8398   -5.7553  -14.5226 N   0  0  0  0  0  0  0  0  0  0  0  0
   22.0636   -4.9526  -13.6603 C   0  0  0  0  0  0  0  0  0  0  0  0
   22.5437   -4.2120  -12.7960 O   0  0  0  0  0  0  0  0  0  0  0  0
   20.5614   -5.0122  -13.8140 C   0  0  0  0  0  0  0  0  0  0  0  0
   20.2082   -5.9238  -14.9319 C   0  0  0  0  0  0  0  0  0  0  0  0
   18.7218   -5.9428  -15.1614 C   0  0  2  0  0  0  0  0  0  0  0  0
   18.5079   -6.8509  -16.2991 N   0  0  0  0  0  0  0  0  0  0  0  0
   18.1934   -4.6248  -15.5355 C   0  0  0  0  0  0  0  0  0  0  0  0
   17.9616   -3.7352  -14.6868 O   0  0  0  0  0  0  0  0  0  0  0  0
   17.9199   -4.2976  -16.8820 O   0  0  0  0  0  0  0  0  0  0  0  0
  2  1  1  0
  3  2  2  0
  4  2  1  0
  5  4  1  0
  5  6  1  6
  7  5  1  0
  7  8  2  0
  9  7  1  0
 10  9  1  0
 10 11  1  0
 11 12  2  0
 11 19  1  0
 14 15  2  0
 14 13  1  0
 16 14  1  0
 17 16  1  0
 18 17  1  6
 19 18  1  0
 20 18  1  0
 20 22  1  0
 21 20  2  0
M  END
$$$$
