NGQ.pdb
     RDKit          3D

 22 21  0  0  1  0  0  0  0  0999 V2000
   16.9568  -14.4162  -15.7176 N   0  0  0  0  0  0  0  0  0  0  0  0
   17.7778  -13.6912  -14.7866 C   0  0  0  0  0  0  0  0  0  0  0  0
   18.3098  -14.3703  -13.8898 O   0  0  0  0  0  0  0  0  0  0  0  0
   17.9625  -12.2527  -14.9033 C   0  0  0  0  0  0  0  0  0  0  0  0
   17.2466  -11.5957  -16.0580 C   0  0  2  0  0  0  0  0  0  0  0  0
   17.9370  -12.0530  -17.2997 N   0  0  0  0  0  0  0  0  0  0  0  0
   17.3829  -10.1244  -16.0363 C   0  0  0  0  0  0  0  0  0  0  0  0
   16.3486   -9.4391  -16.3013 O   0  0  0  0  0  0  0  0  0  0  0  0
   18.5884   -9.4432  -15.7355 N   0  0  0  0  0  0  0  0  0  0  0  0
   18.5534   -8.0070  -15.6423 C   0  0  0  0  0  0  0  0  0  0  0  0
   19.8196   -7.3544  -15.3366 C   0  0  0  0  0  0  0  0  0  0  0  0
   20.7928   -8.1294  -15.0348 O   0  0  0  0  0  0  0  0  0  0  0  0
   21.3676   -1.4220  -16.2045 N   0  0  0  0  0  0  0  0  0  0  0  0
   22.6030   -1.8955  -15.7142 C   0  0  0  0  0  0  0  0  0  0  0  0
   23.6036   -1.1844  -15.5760 O   0  0  0  0  0  0  0  0  0  0  0  0
   22.6924   -3.3572  -15.3409 C   0  0  0  0  0  0  0  0  0  0  0  0
   21.3749   -4.0093  -15.5513 C   0  0  0  0  0  0  0  0  0  0  0  0
   21.4131   -5.4502  -15.1214 C   0  0  2  0  0  0  0  0  0  0  0  0
   20.0541   -5.9670  -15.3460 N   0  0  0  0  0  0  0  0  0  0  0  0
   21.7197   -5.6032  -13.6935 C   0  0  0  0  0  0  0  0  0  0  0  0
   22.8819   -5.4841  -13.2457 O   0  0  0  0  0  0  0  0  0  0  0  0
   20.7083   -5.8945  -12.7515 O   0  0  0  0  0  0  0  0  0  0  0  0
  2  1  1  0
  3  2  2  0
  4  2  1  0
  5  4  1  0
  5  6  1  6
  7  5  1  0
  7  8  2  0
  9  7  1  0
 10  9  1  0
 10 11  1  0
 11 12  2  0
 11 19  1  0
 14 15  2  0
 14 13  1  0
 16 14  1  0
 17 16  1  0
 18 17  1  1
 19 18  1  0
 20 18  1  0
 20 22  1  0
 21 20  2  0
M  END
$$$$
