NGQ.pdb
     RDKit          3D

 22 21  0  0  1  0  0  0  0  0999 V2000
   27.9439  -15.8794  -20.3762 N   0  0  0  0  0  0  0  0  0  0  0  0
   27.9930  -17.2244  -19.8713 C   0  0  0  0  0  0  0  0  0  0  0  0
   28.7040  -18.0188  -20.5131 O   0  0  0  0  0  0  0  0  0  0  0  0
   27.2503  -17.6123  -18.6818 C   0  0  0  0  0  0  0  0  0  0  0  0
   26.3145  -16.5659  -18.1282 C   0  0  2  0  0  0  0  0  0  0  0  0
   27.1723  -15.4460  -17.6407 N   0  0  0  0  0  0  0  0  0  0  0  0
   25.5696  -17.0501  -16.9473 C   0  0  0  0  0  0  0  0  0  0  0  0
   26.2011  -17.1234  -15.8494 O   0  0  0  0  0  0  0  0  0  0  0  0
   24.2043  -17.4287  -16.9704 N   0  0  0  0  0  0  0  0  0  0  0  0
   23.5962  -17.8577  -15.7379 C   0  0  0  0  0  0  0  0  0  0  0  0
   22.2138  -18.3084  -15.8293 C   0  0  0  0  0  0  0  0  0  0  0  0
   21.6352  -18.1221  -16.9559 O   0  0  0  0  0  0  0  0  0  0  0  0
   19.4815  -22.7773  -12.7323 N   0  0  0  0  0  0  0  0  0  0  0  0
   18.3891  -22.3989  -13.5410 C   0  0  0  0  0  0  0  0  0  0  0  0
   17.3208  -23.0178  -13.5835 O   0  0  0  0  0  0  0  0  0  0  0  0
   18.5490  -21.1647  -14.3983 C   0  0  0  0  0  0  0  0  0  0  0  0
   19.9174  -20.6125  -14.2308 C   0  0  0  0  0  0  0  0  0  0  0  0
   20.0949  -19.3593  -15.0434 C   0  0  2  0  0  0  0  0  0  0  0  0
   21.4776  -18.9203  -14.7981 N   0  0  0  0  0  0  0  0  0  0  0  0
   19.1992  -18.2782  -14.6129 C   0  0  0  0  0  0  0  0  0  0  0  0
   18.0783  -18.0939  -15.1371 O   0  0  0  0  0  0  0  0  0  0  0  0
   19.5649  -17.3886  -13.5784 O   0  0  0  0  0  0  0  0  0  0  0  0
  2  1  1  0
  3  2  2  0
  4  2  1  0
  5  4  1  0
  5  6  1  1
  7  5  1  0
  7  8  2  0
  9  7  1  0
 10  9  1  0
 10 11  1  0
 11 12  2  0
 11 19  1  0
 14 15  2  0
 14 13  1  0
 16 14  1  0
 17 16  1  0
 18 17  1  1
 19 18  1  0
 20 18  1  0
 20 22  1  0
 21 20  2  0
M  END
$$$$
