NGQ.pdb
     RDKit          3D

 22 21  0  0  1  0  0  0  0  0999 V2000
   11.7546   -9.4841   -9.7848 N   0  0  0  0  0  0  0  0  0  0  0  0
   12.1518   -8.8508   -8.5569 C   0  0  0  0  0  0  0  0  0  0  0  0
   11.3662   -8.9812   -7.6008 O   0  0  0  0  0  0  0  0  0  0  0  0
   13.3993   -8.1083   -8.4591 C   0  0  0  0  0  0  0  0  0  0  0  0
   14.2700   -8.1325   -9.6915 C   0  0  2  0  0  0  0  0  0  0  0  0
   14.8559   -9.5030   -9.7691 N   0  0  0  0  0  0  0  0  0  0  0  0
   15.4166   -7.2065   -9.5844 C   0  0  0  0  0  0  0  0  0  0  0  0
   15.1643   -5.9631   -9.5901 O   0  0  0  0  0  0  0  0  0  0  0  0
   16.7662   -7.6236   -9.4725 N   0  0  0  0  0  0  0  0  0  0  0  0
   17.7913   -6.6130   -9.4511 C   0  0  0  0  0  0  0  0  0  0  0  0
   18.9404   -6.8486  -10.3152 C   0  0  0  0  0  0  0  0  0  0  0  0
   19.4553   -8.0193  -10.2589 O   0  0  0  0  0  0  0  0  0  0  0  0
   18.3261   -7.0926  -15.6982 N   0  0  0  0  0  0  0  0  0  0  0  0
   19.7145   -7.3253  -15.7917 C   0  0  0  0  0  0  0  0  0  0  0  0
   20.2695   -7.7636  -16.8046 O   0  0  0  0  0  0  0  0  0  0  0  0
   20.5580   -7.0164  -14.5764 C   0  0  0  0  0  0  0  0  0  0  0  0
   19.6831   -6.5885  -13.4553 C   0  0  0  0  0  0  0  0  0  0  0  0
   20.4866   -6.3525  -12.2059 C   0  0  2  0  0  0  0  0  0  0  0  0
   19.5188   -5.9103  -11.1898 N   0  0  0  0  0  0  0  0  0  0  0  0
   21.4818   -5.2853  -12.3702 C   0  0  0  0  0  0  0  0  0  0  0  0
   22.6260   -5.5064  -12.8255 O   0  0  0  0  0  0  0  0  0  0  0  0
   21.1910   -3.9484  -12.0189 O   0  0  0  0  0  0  0  0  0  0  0  0
  2  1  1  0
  3  2  2  0
  4  2  1  0
  5  4  1  0
  5  6  1  1
  7  5  1  0
  7  8  2  0
  9  7  1  0
 10  9  1  0
 10 11  1  0
 11 12  2  0
 11 19  1  0
 14 15  2  0
 14 13  1  0
 16 14  1  0
 17 16  1  0
 18 17  1  6
 19 18  1  0
 20 18  1  0
 20 22  1  0
 21 20  2  0
M  END
$$$$
