NGQ.pdb
     RDKit          3D

 22 21  0  0  1  0  0  0  0  0999 V2000
   12.7952  -13.2839  -13.1436 N   0  0  0  0  0  0  0  0  0  0  0  0
   12.8734  -13.0499  -14.5598 C   0  0  0  0  0  0  0  0  0  0  0  0
   12.0280  -13.6423  -15.2546 O   0  0  0  0  0  0  0  0  0  0  0  0
   13.8858  -12.1711  -15.1255 C   0  0  0  0  0  0  0  0  0  0  0  0
   14.8319  -11.5430  -14.1318 C   0  0  2  0  0  0  0  0  0  0  0  0
   14.0816  -10.4310  -13.4773 N   0  0  0  0  0  0  0  0  0  0  0  0
   15.9969  -10.9147  -14.7888 C   0  0  0  0  0  0  0  0  0  0  0  0
   16.8490  -11.6858  -15.3264 O   0  0  0  0  0  0  0  0  0  0  0  0
   16.2119   -9.5157  -14.8555 N   0  0  0  0  0  0  0  0  0  0  0  0
   17.3272   -9.0347  -15.6283 C   0  0  0  0  0  0  0  0  0  0  0  0
   18.4156   -8.4290  -14.8727 C   0  0  0  0  0  0  0  0  0  0  0  0
   18.2151   -8.2836  -13.6167 O   0  0  0  0  0  0  0  0  0  0  0  0
   24.1610   -9.5383  -15.5876 N   0  0  0  0  0  0  0  0  0  0  0  0
   23.2043  -10.3052  -14.8896 C   0  0  0  0  0  0  0  0  0  0  0  0
   23.3699  -11.4889  -14.5774 O   0  0  0  0  0  0  0  0  0  0  0  0
   21.9085   -9.6272  -14.5089 C   0  0  0  0  0  0  0  0  0  0  0  0
   21.9557   -8.1972  -14.9067 C   0  0  0  0  0  0  0  0  0  0  0  0
   20.6930   -7.4853  -14.5054 C   0  0  2  0  0  0  0  0  0  0  0  0
   19.6461   -7.9989  -15.4026 N   0  0  0  0  0  0  0  0  0  0  0  0
   20.7789   -6.0328  -14.7034 C   0  0  0  0  0  0  0  0  0  0  0  0
   21.5154   -5.3073  -13.9988 O   0  0  0  0  0  0  0  0  0  0  0  0
   20.0276   -5.3819  -15.7069 O   0  0  0  0  0  0  0  0  0  0  0  0
  2  1  1  0
  3  2  2  0
  4  2  1  0
  5  4  1  0
  5  6  1  6
  7  5  1  0
  7  8  2  0
  9  7  1  0
 10  9  1  0
 10 11  1  0
 11 12  2  0
 11 19  1  0
 14 15  2  0
 14 13  1  0
 16 14  1  0
 17 16  1  0
 18 17  1  6
 19 18  1  0
 20 18  1  0
 20 22  1  0
 21 20  2  0
M  END
$$$$
