NGQ.pdb
     RDKit          3D

 22 21  0  0  1  0  0  0  0  0999 V2000
   21.6856  -10.1239  -15.4315 N   0  0  0  0  0  0  0  0  0  0  0  0
   22.4159   -9.9593  -14.2043 C   0  0  0  0  0  0  0  0  0  0  0  0
   23.4289  -10.6704  -14.0767 O   0  0  0  0  0  0  0  0  0  0  0  0
   21.9807   -9.0140  -13.1873 C   0  0  0  0  0  0  0  0  0  0  0  0
   20.6405   -8.3649  -13.4322 C   0  0  2  0  0  0  0  0  0  0  0  0
   20.8518   -7.3490  -14.5050 N   0  0  0  0  0  0  0  0  0  0  0  0
   20.1581   -7.6159  -12.2533 C   0  0  0  0  0  0  0  0  0  0  0  0
   20.6245   -6.4500  -12.0724 O   0  0  0  0  0  0  0  0  0  0  0  0
   19.2115   -8.1184  -11.3263 N   0  0  0  0  0  0  0  0  0  0  0  0
   18.7406   -7.2375  -10.2894 C   0  0  0  0  0  0  0  0  0  0  0  0
   17.3122   -6.9506  -10.2932 C   0  0  0  0  0  0  0  0  0  0  0  0
   16.6995   -7.1615  -11.3972 O   0  0  0  0  0  0  0  0  0  0  0  0
   11.0778   -8.9751   -8.6923 N   0  0  0  0  0  0  0  0  0  0  0  0
   12.4799   -8.8273   -8.6402 C   0  0  0  0  0  0  0  0  0  0  0  0
   13.2697   -9.7771   -8.6366 O   0  0  0  0  0  0  0  0  0  0  0  0
   13.0327   -7.4218   -8.5862 C   0  0  0  0  0  0  0  0  0  0  0  0
   14.5166   -7.4682   -8.5535 C   0  0  0  0  0  0  0  0  0  0  0  0
   15.1078   -6.3161   -9.3186 C   0  0  2  0  0  0  0  0  0  0  0  0
   16.5664   -6.4693   -9.2014 N   0  0  0  0  0  0  0  0  0  0  0  0
   14.7470   -5.0143   -8.7431 C   0  0  0  0  0  0  0  0  0  0  0  0
   15.5256   -4.3758   -8.0006 O   0  0  0  0  0  0  0  0  0  0  0  0
   13.4934   -4.4176   -9.0032 O   0  0  0  0  0  0  0  0  0  0  0  0
  2  1  1  0
  3  2  2  0
  4  2  1  0
  5  4  1  0
  5  6  1  6
  7  5  1  0
  7  8  2  0
  9  7  1  0
 10  9  1  0
 10 11  1  0
 11 12  2  0
 11 19  1  0
 14 15  2  0
 14 13  1  0
 16 14  1  0
 17 16  1  0
 18 17  1  1
 19 18  1  0
 20 18  1  0
 20 22  1  0
 21 20  2  0
M  END
$$$$
