NGQ.pdb
     RDKit          3D

 22 21  0  0  1  0  0  0  0  0999 V2000
   23.8652  -21.0357   -9.1581 N   0  0  0  0  0  0  0  0  0  0  0  0
   25.2514  -20.9351   -8.7910 C   0  0  0  0  0  0  0  0  0  0  0  0
   25.4987  -21.0326   -7.5755 O   0  0  0  0  0  0  0  0  0  0  0  0
   26.2856  -20.7320   -9.7941 C   0  0  0  0  0  0  0  0  0  0  0  0
   25.7945  -20.5638  -11.2112 C   0  0  2  0  0  0  0  0  0  0  0  0
   25.2802  -21.8970  -11.6421 N   0  0  0  0  0  0  0  0  0  0  0  0
   26.8887  -20.2294  -12.1463 C   0  0  0  0  0  0  0  0  0  0  0  0
   27.3610  -19.0530  -12.0943 O   0  0  0  0  0  0  0  0  0  0  0  0
   27.4373  -21.1390  -13.0842 N   0  0  0  0  0  0  0  0  0  0  0  0
   28.4267  -20.6495  -14.0084 C   0  0  0  0  0  0  0  0  0  0  0  0
   27.9487  -19.7238  -15.0268 C   0  0  0  0  0  0  0  0  0  0  0  0
   26.7146  -19.3923  -14.9503 O   0  0  0  0  0  0  0  0  0  0  0  0
   31.2532  -16.0560  -18.7117 N   0  0  0  0  0  0  0  0  0  0  0  0
   29.9637  -15.6818  -19.1450 C   0  0  0  0  0  0  0  0  0  0  0  0
   29.7487  -14.7680  -19.9480 O   0  0  0  0  0  0  0  0  0  0  0  0
   28.7886  -16.4510  -18.5871 C   0  0  0  0  0  0  0  0  0  0  0  0
   29.2686  -17.4547  -17.6034 C   0  0  0  0  0  0  0  0  0  0  0  0
   28.1164  -18.2094  -16.9992 C   0  0  2  0  0  0  0  0  0  0  0  0
   28.7201  -19.1755  -16.0681 N   0  0  0  0  0  0  0  0  0  0  0  0
   27.3545  -18.9680  -17.9993 C   0  0  0  0  0  0  0  0  0  0  0  0
   27.6453  -20.1459  -18.3048 O   0  0  0  0  0  0  0  0  0  0  0  0
   26.2487  -18.3982  -18.6685 O   0  0  0  0  0  0  0  0  0  0  0  0
  2  1  1  0
  3  2  2  0
  4  2  1  0
  5  4  1  0
  5  6  1  6
  7  5  1  0
  7  8  2  0
  9  7  1  0
 10  9  1  0
 10 11  1  0
 11 12  2  0
 11 19  1  0
 14 15  2  0
 14 13  1  0
 16 14  1  0
 17 16  1  0
 18 17  1  6
 19 18  1  0
 20 18  1  0
 20 22  1  0
 21 20  2  0
M  END
$$$$
