NGQ.pdb
     RDKit          3D

 22 21  0  0  1  0  0  0  0  0999 V2000
   27.6359  -17.8094  -18.4611 N   0  0  0  0  0  0  0  0  0  0  0  0
   27.0084  -18.7524  -19.3463 C   0  0  0  0  0  0  0  0  0  0  0  0
   27.0496  -18.4694  -20.5573 O   0  0  0  0  0  0  0  0  0  0  0  0
   26.3705  -19.9571  -18.8374 C   0  0  0  0  0  0  0  0  0  0  0  0
   26.2842  -20.0632  -17.3345 C   0  0  2  0  0  0  0  0  0  0  0  0
   27.6809  -20.2493  -16.8423 N   0  0  0  0  0  0  0  0  0  0  0  0
   25.5379  -21.2624  -16.9004 C   0  0  0  0  0  0  0  0  0  0  0  0
   24.2709  -21.2002  -16.9222 O   0  0  0  0  0  0  0  0  0  0  0  0
   26.1499  -22.4658  -16.4702 N   0  0  0  0  0  0  0  0  0  0  0  0
   25.3046  -23.5174  -15.9679 C   0  0  0  0  0  0  0  0  0  0  0  0
   24.6378  -23.2519  -14.7000 C   0  0  0  0  0  0  0  0  0  0  0  0
   23.6842  -24.0474  -14.3892 O   0  0  0  0  0  0  0  0  0  0  0  0
   26.7462  -20.2804   -9.7875 N   0  0  0  0  0  0  0  0  0  0  0  0
   25.4633  -20.6023   -9.2964 C   0  0  0  0  0  0  0  0  0  0  0  0
   25.1092  -20.4133   -8.1282 O   0  0  0  0  0  0  0  0  0  0  0  0
   24.4771  -21.2122  -10.2656 C   0  0  0  0  0  0  0  0  0  0  0  0
   25.1570  -21.5077  -11.5524 C   0  0  0  0  0  0  0  0  0  0  0  0
   24.1850  -22.0558  -12.5608 C   0  0  2  0  0  0  0  0  0  0  0  0
   24.9519  -22.2111  -13.8068 N   0  0  0  0  0  0  0  0  0  0  0  0
   23.0746  -21.1336  -12.8308 C   0  0  0  0  0  0  0  0  0  0  0  0
   23.1296  -20.2728  -13.7371 O   0  0  0  0  0  0  0  0  0  0  0  0
   21.8831  -21.1759  -12.0734 O   0  0  0  0  0  0  0  0  0  0  0  0
  2  1  1  0
  3  2  2  0
  4  2  1  0
  5  4  1  0
  5  6  1  1
  7  5  1  0
  7  8  2  0
  9  7  1  0
 10  9  1  0
 10 11  1  0
 11 12  2  0
 11 19  1  0
 14 15  2  0
 14 13  1  0
 16 14  1  0
 17 16  1  0
 18 17  1  1
 19 18  1  0
 20 18  1  0
 20 22  1  0
 21 20  2  0
M  END
$$$$
