NGQ.pdb
     RDKit          3D

 22 21  0  0  1  0  0  0  0  0999 V2000
   16.2787  -12.6829  -17.4514 N   0  0  0  0  0  0  0  0  0  0  0  0
   17.1172  -12.3633  -16.3283 C   0  0  0  0  0  0  0  0  0  0  0  0
   17.6513  -13.3315  -15.7577 O   0  0  0  0  0  0  0  0  0  0  0  0
   17.3160  -10.9865  -15.9016 C   0  0  0  0  0  0  0  0  0  0  0  0
   18.1128  -10.8065  -14.6327 C   0  0  2  0  0  0  0  0  0  0  0  0
   17.2715  -11.3461  -13.5243 N   0  0  0  0  0  0  0  0  0  0  0  0
   18.3405   -9.3819  -14.3127 C   0  0  0  0  0  0  0  0  0  0  0  0
   19.0808   -8.7184  -15.1009 O   0  0  0  0  0  0  0  0  0  0  0  0
   17.7817   -8.7212  -13.1906 N   0  0  0  0  0  0  0  0  0  0  0  0
   18.0082   -7.3062  -13.0516 C   0  0  0  0  0  0  0  0  0  0  0  0
   17.3458   -6.6595  -11.9266 C   0  0  0  0  0  0  0  0  0  0  0  0
   17.4558   -5.3855  -11.8664 O   0  0  0  0  0  0  0  0  0  0  0  0
   13.0381   -9.2780   -8.3677 N   0  0  0  0  0  0  0  0  0  0  0  0
   12.8644   -7.9401   -7.9548 C   0  0  0  0  0  0  0  0  0  0  0  0
   12.0258   -7.5835   -7.1207 O   0  0  0  0  0  0  0  0  0  0  0  0
   13.7619   -6.8951   -8.5762 C   0  0  0  0  0  0  0  0  0  0  0  0
   14.7371   -7.5491   -9.4854 C   0  0  0  0  0  0  0  0  0  0  0  0
   15.6882   -6.5407  -10.0692 C   0  0  2  0  0  0  0  0  0  0  0  0
   16.6091   -7.3106  -10.9200 N   0  0  0  0  0  0  0  0  0  0  0  0
   16.4892   -5.8625   -9.0422 C   0  0  0  0  0  0  0  0  0  0  0  0
   17.6192   -6.2755   -8.6990 O   0  0  0  0  0  0  0  0  0  0  0  0
   16.0170   -4.7027   -8.3886 O   0  0  0  0  0  0  0  0  0  0  0  0
  2  1  1  0
  3  2  2  0
  4  2  1  0
  5  4  1  0
  5  6  1  1
  7  5  1  0
  7  8  2  0
  9  7  1  0
 10  9  1  0
 10 11  1  0
 11 12  2  0
 11 19  1  0
 14 15  2  0
 14 13  1  0
 16 14  1  0
 17 16  1  0
 18 17  1  1
 19 18  1  0
 20 18  1  0
 20 22  1  0
 21 20  2  0
M  END
$$$$
