NGQ.pdb
     RDKit          3D

 22 21  0  0  1  0  0  0  0  0999 V2000
   13.5927   -9.0505   -7.0457 N   0  0  0  0  0  0  0  0  0  0  0  0
   12.9705   -8.5831   -8.2544 C   0  0  0  0  0  0  0  0  0  0  0  0
   11.7723   -8.8856   -8.3994 O   0  0  0  0  0  0  0  0  0  0  0  0
   13.7135   -7.8057   -9.2346 C   0  0  0  0  0  0  0  0  0  0  0  0
   15.1235   -7.4385   -8.8414 C   0  0  2  0  0  0  0  0  0  0  0  0
   15.0090   -6.4007   -7.7748 N   0  0  0  0  0  0  0  0  0  0  0  0
   15.8652   -6.8014   -9.9494 C   0  0  0  0  0  0  0  0  0  0  0  0
   15.7132   -5.5522  -10.1105 O   0  0  0  0  0  0  0  0  0  0  0  0
   16.7302   -7.4979  -10.8295 N   0  0  0  0  0  0  0  0  0  0  0  0
   17.3646   -6.7566  -11.8882 C   0  0  0  0  0  0  0  0  0  0  0  0
   18.2884   -7.5058  -12.7296 C   0  0  0  0  0  0  0  0  0  0  0  0
   18.8372   -8.5285  -12.1895 O   0  0  0  0  0  0  0  0  0  0  0  0
   18.4806  -12.9242  -15.1615 N   0  0  0  0  0  0  0  0  0  0  0  0
   18.3181  -11.5865  -14.7434 C   0  0  0  0  0  0  0  0  0  0  0  0
   17.6251  -11.2495  -13.7778 O   0  0  0  0  0  0  0  0  0  0  0  0
   19.0384  -10.5162  -15.5304 C   0  0  0  0  0  0  0  0  0  0  0  0
   18.3803   -9.2034  -15.3089 C   0  0  0  0  0  0  0  0  0  0  0  0
   19.3794   -8.1681  -14.8703 C   0  0  2  0  0  0  0  0  0  0  0  0
   18.6195   -7.2011  -14.0627 N   0  0  0  0  0  0  0  0  0  0  0  0
   19.9692   -7.4408  -16.0014 C   0  0  0  0  0  0  0  0  0  0  0  0
   20.8523   -7.9457  -16.7298 O   0  0  0  0  0  0  0  0  0  0  0  0
   19.5635   -6.1264  -16.3222 O   0  0  0  0  0  0  0  0  0  0  0  0
  2  1  1  0
  3  2  2  0
  4  2  1  0
  5  4  1  0
  5  6  1  1
  7  5  1  0
  7  8  2  0
  9  7  1  0
 10  9  1  0
 10 11  1  0
 11 12  2  0
 11 19  1  0
 14 15  2  0
 14 13  1  0
 16 14  1  0
 17 16  1  0
 18 17  1  6
 19 18  1  0
 20 18  1  0
 20 22  1  0
 21 20  2  0
M  END
$$$$
