NGQ.pdb
     RDKit          3D

 22 21  0  0  1  0  0  0  0  0999 V2000
   18.8354  -14.7253  -17.6035 N   0  0  0  0  0  0  0  0  0  0  0  0
   17.6528  -14.1232  -17.0510 C   0  0  0  0  0  0  0  0  0  0  0  0
   16.6241  -14.8227  -17.0801 O   0  0  0  0  0  0  0  0  0  0  0  0
   17.6783  -12.7781  -16.4967 C   0  0  0  0  0  0  0  0  0  0  0  0
   19.0182  -12.0846  -16.5317 C   0  0  2  0  0  0  0  0  0  0  0  0
   19.8461  -12.7086  -15.4580 N   0  0  0  0  0  0  0  0  0  0  0  0
   18.9157  -10.6520  -16.1841 C   0  0  0  0  0  0  0  0  0  0  0  0
   18.4437   -9.8706  -17.0651 O   0  0  0  0  0  0  0  0  0  0  0  0
   19.3061  -10.1082  -14.9352 N   0  0  0  0  0  0  0  0  0  0  0  0
   19.2141   -8.6828  -14.7550 C   0  0  0  0  0  0  0  0  0  0  0  0
   20.4740   -7.9517  -14.7820 C   0  0  0  0  0  0  0  0  0  0  0  0
   21.5366   -8.6593  -14.6873 O   0  0  0  0  0  0  0  0  0  0  0  0
   21.8580   -5.0988  -19.8100 N   0  0  0  0  0  0  0  0  0  0  0  0
   21.4043   -4.8300  -18.5014 C   0  0  0  0  0  0  0  0  0  0  0  0
   20.6595   -3.8871  -18.2142 O   0  0  0  0  0  0  0  0  0  0  0  0
   21.8632   -5.7560  -17.3989 C   0  0  0  0  0  0  0  0  0  0  0  0
   21.9369   -5.0102  -16.1167 C   0  0  0  0  0  0  0  0  0  0  0  0
   21.9553   -5.9540  -14.9458 C   0  0  2  0  0  0  0  0  0  0  0  0
   20.6139   -6.5567  -14.9013 N   0  0  0  0  0  0  0  0  0  0  0  0
   22.1778   -5.2627  -13.6695 C   0  0  0  0  0  0  0  0  0  0  0  0
   23.2701   -4.7220  -13.3869 O   0  0  0  0  0  0  0  0  0  0  0  0
   21.1605   -5.1756  -12.6935 O   0  0  0  0  0  0  0  0  0  0  0  0
  2  1  1  0
  3  2  2  0
  4  2  1  0
  5  4  1  0
  5  6  1  1
  7  5  1  0
  7  8  2  0
  9  7  1  0
 10  9  1  0
 10 11  1  0
 11 12  2  0
 11 19  1  0
 14 15  2  0
 14 13  1  0
 16 14  1  0
 17 16  1  0
 18 17  1  6
 19 18  1  0
 20 18  1  0
 20 22  1  0
 21 20  2  0
M  END
$$$$
