DLE.pdb
     RDKit          3D

 26 25  0  0  1  0  0  0  0  0999 V2000
   10.0171  -18.0799   18.0790 N   0  0  0  0  0  0  0  0  0  0  0  0
   11.1760  -17.2320   18.1728 C   0  0  1  0  0  0  0  0  0  0  0  0
   11.4051  -16.5969   16.8150 C   0  0  0  0  0  0  0  0  0  0  0  0
   11.4106  -17.6049   15.7362 C   0  0  0  0  0  0  0  0  0  0  0  0
   12.0301  -18.6930   15.8085 O   0  0  0  0  0  0  0  0  0  0  0  0
   10.9919  -16.1224   19.1438 C   0  0  0  0  0  0  0  0  0  0  0  0
   11.9993  -15.3609   19.3652 O   0  0  0  0  0  0  0  0  0  0  0  0
   10.6718  -17.3040   14.5737 O   0  0  0  0  0  0  0  0  0  0  0  0
    8.2438  -12.4561   19.2757 C   0  0  0  0  0  0  0  0  0  0  0  0
    7.5868  -13.7939   19.6561 C   0  0  2  0  0  0  0  0  0  0  0  0
    6.1211  -13.4873   19.8271 C   0  0  0  0  0  0  0  0  0  0  0  0
    8.2546  -14.2756   20.8723 C   0  0  0  0  0  0  0  0  0  0  0  0
    9.6163  -14.8363   20.7558 C   0  0  2  0  0  0  0  0  0  0  0  0
    9.7522  -15.9067   19.8043 N   0  0  0  0  0  0  0  0  0  0  0  0
   10.2209  -15.2571   22.0679 C   0  0  0  0  0  0  0  0  0  0  0  0
    9.5737  -15.0649   23.1310 O   0  0  0  0  0  0  0  0  0  0  0  0
   11.4846  -15.8612   22.1598 N   0  0  0  0  0  0  0  0  0  0  0  0
   12.0642  -16.3224   23.4526 C   0  0  1  0  0  0  0  0  0  0  0  0
   11.2276  -17.3833   24.0426 C   0  0  0  0  0  0  0  0  0  0  0  0
   11.4199  -18.6996   23.3602 C   0  0  0  0  0  0  0  0  0  0  0  0
   10.7728  -19.8122   24.1348 C   0  0  0  0  0  0  0  0  0  0  0  0
    9.5314  -19.8548   24.3470 O   0  0  0  0  0  0  0  0  0  0  0  0
   13.4520  -16.7778   23.2175 C   0  0  0  0  0  0  0  0  0  0  0  0
   14.3276  -16.8599   24.3302 O   0  0  0  0  0  0  0  0  0  0  0  0
   11.5563  -20.8482   24.6445 O   0  0  0  0  0  0  0  0  0  0  0  0
   13.9570  -17.1069   22.1354 O   0  0  0  0  0  0  0  0  0  0  0  0
  2  1  1  6
  2  3  1  0
  4  8  1  0
  4  3  1  0
  5  4  2  0
  6  7  2  0
  6  2  1  0
 10  9  1  1
 10 11  1  0
 10 12  1  0
 13 12  1  1
 13 14  1  0
 14  6  1  0
 15 16  2  0
 15 13  1  0
 17 15  1  0
 18 19  1  6
 18 17  1  0
 20 19  1  0
 20 21  1  0
 21 22  2  0
 23 18  1  0
 24 23  1  0
 25 21  1  0
 26 23  2  0
M  END
$$$$
