DLE.pdb
     RDKit          3D

 26 25  0  0  1  0  0  0  0  0999 V2000
   10.2658  -18.7049   16.1580 N   0  0  0  0  0  0  0  0  0  0  0  0
    9.2506  -18.5870   17.1710 C   0  0  1  0  0  0  0  0  0  0  0  0
    9.2518  -19.8639   17.9889 C   0  0  0  0  0  0  0  0  0  0  0  0
    9.0217  -21.0523   17.1435 C   0  0  0  0  0  0  0  0  0  0  0  0
    8.9935  -21.0155   15.8902 O   0  0  0  0  0  0  0  0  0  0  0  0
    9.5148  -17.4693   18.1138 C   0  0  0  0  0  0  0  0  0  0  0  0
   10.7402  -17.1718   18.3454 O   0  0  0  0  0  0  0  0  0  0  0  0
    8.8266  -22.2819   17.8052 O   0  0  0  0  0  0  0  0  0  0  0  0
    6.4915  -12.8261   20.8263 C   0  0  0  0  0  0  0  0  0  0  0  0
    7.8564  -13.5100   20.6383 C   0  0  2  0  0  0  0  0  0  0  0  0
    8.7550  -12.4566   20.0429 C   0  0  0  0  0  0  0  0  0  0  0  0
    7.6405  -14.6825   19.7806 C   0  0  0  0  0  0  0  0  0  0  0  0
    8.7486  -15.6434   19.6051 C   0  0  2  0  0  0  0  0  0  0  0  0
    8.4574  -16.7534   18.7376 N   0  0  0  0  0  0  0  0  0  0  0  0
    9.3242  -16.1587   20.8964 C   0  0  0  0  0  0  0  0  0  0  0  0
    8.6005  -16.8564   21.6551 O   0  0  0  0  0  0  0  0  0  0  0  0
   10.6438  -15.8950   21.2953 N   0  0  0  0  0  0  0  0  0  0  0  0
   11.3431  -16.6925   22.3419 C   0  0  1  0  0  0  0  0  0  0  0  0
   11.4018  -18.1134   21.9529 C   0  0  0  0  0  0  0  0  0  0  0  0
   12.0715  -18.9560   22.9905 C   0  0  0  0  0  0  0  0  0  0  0  0
   12.1209  -20.3973   22.5702 C   0  0  0  0  0  0  0  0  0  0  0  0
   11.5869  -20.8096   21.5059 O   0  0  0  0  0  0  0  0  0  0  0  0
   12.6906  -16.1208   22.5562 C   0  0  0  0  0  0  0  0  0  0  0  0
   13.1072  -15.0553   21.7180 O   0  0  0  0  0  0  0  0  0  0  0  0
   12.7798  -21.3304   23.3717 O   0  0  0  0  0  0  0  0  0  0  0  0
   13.5234  -16.4689   23.4045 O   0  0  0  0  0  0  0  0  0  0  0  0
  2  1  1  6
  2  3  1  0
  4  8  1  0
  4  3  1  0
  5  4  2  0
  6  7  2  0
  6  2  1  0
 10  9  1  6
 10 11  1  0
 10 12  1  0
 13 12  1  1
 13 14  1  0
 14  6  1  0
 15 16  2  0
 15 13  1  0
 17 15  1  0
 18 19  1  6
 18 17  1  0
 20 19  1  0
 20 21  1  0
 21 22  2  0
 23 18  1  0
 24 23  1  0
 25 21  1  0
 26 23  2  0
M  END
$$$$
