DLE.pdb
     RDKit          3D

 26 25  0  0  1  0  0  0  0  0999 V2000
    7.6863  -17.2733   21.3349 N   0  0  0  0  0  0  0  0  0  0  0  0
    8.7954  -16.3790   21.1329 C   0  0  1  0  0  0  0  0  0  0  0  0
    8.5379  -15.5895   19.8641 C   0  0  0  0  0  0  0  0  0  0  0  0
    8.4856  -16.4671   18.6778 C   0  0  0  0  0  0  0  0  0  0  0  0
    8.6020  -17.7146   18.7338 O   0  0  0  0  0  0  0  0  0  0  0  0
    8.9385  -15.3922   22.2346 C   0  0  0  0  0  0  0  0  0  0  0  0
    9.9304  -14.5822   22.1741 O   0  0  0  0  0  0  0  0  0  0  0  0
    8.2933  -15.8445   17.4275 O   0  0  0  0  0  0  0  0  0  0  0  0
    5.8127  -13.0825   27.0015 C   0  0  0  0  0  0  0  0  0  0  0  0
    7.1980  -13.1828   26.3404 C   0  0  2  0  0  0  0  0  0  0  0  0
    7.6275  -11.7600   26.0900 C   0  0  0  0  0  0  0  0  0  0  0  0
    7.0424  -13.9951   25.1267 C   0  0  0  0  0  0  0  0  0  0  0  0
    8.2574  -14.4649   24.4303 C   0  0  2  0  0  0  0  0  0  0  0  0
    8.0168  -15.3414   23.3152 N   0  0  0  0  0  0  0  0  0  0  0  0
    9.2840  -15.0855   25.3387 C   0  0  0  0  0  0  0  0  0  0  0  0
    9.6433  -14.4637   26.3733 O   0  0  0  0  0  0  0  0  0  0  0  0
    9.8625  -16.3385   25.0826 N   0  0  0  0  0  0  0  0  0  0  0  0
   10.9149  -16.9326   25.9541 C   0  0  1  0  0  0  0  0  0  0  0  0
   10.4227  -18.1714   26.5841 C   0  0  0  0  0  0  0  0  0  0  0  0
   10.3131  -18.0447   28.0697 C   0  0  0  0  0  0  0  0  0  0  0  0
    9.9704  -19.3631   28.7030 C   0  0  0  0  0  0  0  0  0  0  0  0
    9.7596  -20.4040   28.0249 O   0  0  0  0  0  0  0  0  0  0  0  0
   12.1291  -17.1685   25.1426 C   0  0  0  0  0  0  0  0  0  0  0  0
   13.3091  -17.5870   25.8088 O   0  0  0  0  0  0  0  0  0  0  0  0
    9.8799  -19.4617   30.0919 O   0  0  0  0  0  0  0  0  0  0  0  0
   12.2436  -17.0424   23.9157 O   0  0  0  0  0  0  0  0  0  0  0  0
  2  1  1  1
  2  3  1  0
  4  8  1  0
  4  3  1  0
  5  4  2  0
  6  7  2  0
  6  2  1  0
 10  9  1  6
 10 11  1  0
 10 12  1  0
 13 12  1  1
 13 14  1  0
 14  6  1  0
 15 16  2  0
 15 13  1  0
 17 15  1  0
 18 19  1  6
 18 17  1  0
 20 19  1  0
 20 21  1  0
 21 22  2  0
 23 18  1  0
 24 23  1  0
 25 21  1  0
 26 23  2  0
M  END
$$$$
