DLE.pdb
     RDKit          3D

 26 25  0  0  1  0  0  0  0  0999 V2000
    9.9770  -18.0833   18.9205 N   0  0  0  0  0  0  0  0  0  0  0  0
   11.1209  -17.2391   19.1428 C   0  0  1  0  0  0  0  0  0  0  0  0
   11.4624  -16.5554   17.8331 C   0  0  0  0  0  0  0  0  0  0  0  0
   11.8848  -17.5275   16.8052 C   0  0  0  0  0  0  0  0  0  0  0  0
   11.4151  -18.6868   16.7141 O   0  0  0  0  0  0  0  0  0  0  0  0
   10.8514  -16.1652   20.1339 C   0  0  0  0  0  0  0  0  0  0  0  0
   11.8492  -15.4616   20.5252 O   0  0  0  0  0  0  0  0  0  0  0  0
   12.8698  -17.1049   15.8893 O   0  0  0  0  0  0  0  0  0  0  0  0
    8.5121  -12.3615   19.7382 C   0  0  0  0  0  0  0  0  0  0  0  0
    7.7233  -13.6559   19.9997 C   0  0  2  0  0  0  0  0  0  0  0  0
    6.2747  -13.2907   19.8003 C   0  0  0  0  0  0  0  0  0  0  0  0
    8.0580  -14.1016   21.3586 C   0  0  0  0  0  0  0  0  0  0  0  0
    9.3133  -14.8519   21.5670 C   0  0  2  0  0  0  0  0  0  0  0  0
    9.5432  -15.9211   20.6324 N   0  0  0  0  0  0  0  0  0  0  0  0
    9.4937  -15.3686   22.9687 C   0  0  0  0  0  0  0  0  0  0  0  0
    9.3905  -14.5681   23.9354 O   0  0  0  0  0  0  0  0  0  0  0  0
    9.7728  -16.7154   23.2487 N   0  0  0  0  0  0  0  0  0  0  0  0
   10.0879  -17.2039   24.6206 C   0  0  1  0  0  0  0  0  0  0  0  0
    8.9627  -17.9905   25.1581 C   0  0  0  0  0  0  0  0  0  0  0  0
    8.4587  -18.9993   24.1765 C   0  0  0  0  0  0  0  0  0  0  0  0
    7.3817  -19.8541   24.7814 C   0  0  0  0  0  0  0  0  0  0  0  0
    6.2491  -19.3961   25.0904 O   0  0  0  0  0  0  0  0  0  0  0  0
   11.3398  -17.9906   24.5709 C   0  0  0  0  0  0  0  0  0  0  0  0
   11.9254  -18.2380   23.3032 O   0  0  0  0  0  0  0  0  0  0  0  0
    7.6220  -21.2086   25.0155 O   0  0  0  0  0  0  0  0  0  0  0  0
   11.9576  -18.4727   25.5302 O   0  0  0  0  0  0  0  0  0  0  0  0
  2  1  1  6
  2  3  1  0
  4  8  1  0
  4  3  1  0
  5  4  2  0
  6  7  2  0
  6  2  1  0
 10  9  1  1
 10 11  1  0
 10 12  1  0
 13 12  1  1
 13 14  1  0
 14  6  1  0
 15 16  2  0
 15 13  1  0
 17 15  1  0
 18 19  1  6
 18 17  1  0
 20 19  1  0
 20 21  1  0
 21 22  2  0
 23 18  1  0
 24 23  1  0
 25 21  1  0
 26 23  2  0
M  END
$$$$
