DLE.pdb
     RDKit          3D

 26 25  0  0  1  0  0  0  0  0999 V2000
    7.8877  -16.4706   21.9657 N   0  0  0  0  0  0  0  0  0  0  0  0
    9.2305  -16.1899   22.4001 C   0  0  1  0  0  0  0  0  0  0  0  0
    9.8827  -15.2951   21.3641 C   0  0  0  0  0  0  0  0  0  0  0  0
    9.9152  -15.9356   20.0342 C   0  0  0  0  0  0  0  0  0  0  0  0
    9.3198  -15.4770   19.0301 O   0  0  0  0  0  0  0  0  0  0  0  0
    9.2689  -15.4557   23.6914 C   0  0  0  0  0  0  0  0  0  0  0  0
   10.4117  -15.0422   24.0997 O   0  0  0  0  0  0  0  0  0  0  0  0
   10.6628  -17.1248   19.9133 O   0  0  0  0  0  0  0  0  0  0  0  0
    7.7196  -11.6371   25.6282 C   0  0  0  0  0  0  0  0  0  0  0  0
    6.6243  -12.6964   25.4182 C   0  0  2  0  0  0  0  0  0  0  0  0
    5.3412  -12.0404   25.8598 C   0  0  0  0  0  0  0  0  0  0  0  0
    7.0062  -13.8778   26.2029 C   0  0  0  0  0  0  0  0  0  0  0  0
    8.1824  -14.6614   25.7731 C   0  0  2  0  0  0  0  0  0  0  0  0
    8.0906  -15.2166   24.4492 N   0  0  0  0  0  0  0  0  0  0  0  0
    8.5859  -15.7421   26.7392 C   0  0  0  0  0  0  0  0  0  0  0  0
    8.8502  -15.4321   27.9309 O   0  0  0  0  0  0  0  0  0  0  0  0
    8.6800  -17.0925   26.3680 N   0  0  0  0  0  0  0  0  0  0  0  0
    8.9166  -18.1840   27.3543 C   0  0  1  0  0  0  0  0  0  0  0  0
    7.8703  -19.2164   27.2405 C   0  0  0  0  0  0  0  0  0  0  0  0
    8.1066  -20.3649   28.1681 C   0  0  0  0  0  0  0  0  0  0  0  0
    7.1607  -21.4965   27.8829 C   0  0  0  0  0  0  0  0  0  0  0  0
    6.2601  -21.4194   27.0049 O   0  0  0  0  0  0  0  0  0  0  0  0
   10.2698  -18.7401   27.1347 C   0  0  0  0  0  0  0  0  0  0  0  0
   10.8642  -19.4890   28.1822 O   0  0  0  0  0  0  0  0  0  0  0  0
    7.2675  -22.6869   28.6030 O   0  0  0  0  0  0  0  0  0  0  0  0
   10.9669  -18.6290   26.1168 O   0  0  0  0  0  0  0  0  0  0  0  0
  2  1  1  6
  2  3  1  0
  4  8  1  0
  4  3  1  0
  5  4  2  0
  6  7  2  0
  6  2  1  0
 10  9  1  1
 10 11  1  0
 10 12  1  0
 13 12  1  1
 13 14  1  0
 14  6  1  0
 15 16  2  0
 15 13  1  0
 17 15  1  0
 18 19  1  6
 18 17  1  0
 20 19  1  0
 20 21  1  0
 21 22  2  0
 23 18  1  0
 24 23  1  0
 25 21  1  0
 26 23  2  0
M  END
$$$$
