DLE.pdb
     RDKit          3D

 26 25  0  0  1  0  0  0  0  0999 V2000
    8.5767  -15.5967   19.6911 N   0  0  0  0  0  0  0  0  0  0  0  0
    7.8426  -16.0221   20.8533 C   0  0  1  0  0  0  0  0  0  0  0  0
    7.9866  -17.5266   20.9758 C   0  0  0  0  0  0  0  0  0  0  0  0
    7.4723  -18.2222   19.7793 C   0  0  0  0  0  0  0  0  0  0  0  0
    8.2114  -18.7399   18.9082 O   0  0  0  0  0  0  0  0  0  0  0  0
    8.3748  -15.4331   22.1094 C   0  0  0  0  0  0  0  0  0  0  0  0
    9.6474  -15.3166   22.2119 O   0  0  0  0  0  0  0  0  0  0  0  0
    6.0720  -18.2946   19.6319 O   0  0  0  0  0  0  0  0  0  0  0  0
    7.9615  -13.3980   27.1094 C   0  0  0  0  0  0  0  0  0  0  0  0
    7.6406  -12.4325   25.9558 C   0  0  2  0  0  0  0  0  0  0  0  0
    6.6239  -11.4679   26.5103 C   0  0  0  0  0  0  0  0  0  0  0  0
    7.1596  -13.2446   24.8305 C   0  0  0  0  0  0  0  0  0  0  0  0
    8.0464  -14.2931   24.2860 C   0  0  2  0  0  0  0  0  0  0  0  0
    7.5144  -15.0126   23.1595 N   0  0  0  0  0  0  0  0  0  0  0  0
    8.5404  -15.2739   25.3147 C   0  0  0  0  0  0  0  0  0  0  0  0
    7.7077  -15.8430   26.0690 O   0  0  0  0  0  0  0  0  0  0  0  0
    9.8998  -15.5865   25.4709 N   0  0  0  0  0  0  0  0  0  0  0  0
   10.3677  -16.8244   26.1556 C   0  0  1  0  0  0  0  0  0  0  0  0
   11.7213  -17.1863   25.6966 C   0  0  0  0  0  0  0  0  0  0  0  0
   12.3060  -18.3093   26.4917 C   0  0  0  0  0  0  0  0  0  0  0  0
   13.6748  -18.6735   25.9914 C   0  0  0  0  0  0  0  0  0  0  0  0
   13.9458  -18.7552   24.7635 O   0  0  0  0  0  0  0  0  0  0  0  0
   10.3182  -16.6081   27.6182 C   0  0  0  0  0  0  0  0  0  0  0  0
   10.1970  -17.7435   28.4594 O   0  0  0  0  0  0  0  0  0  0  0  0
   14.6993  -18.9319   26.9027 O   0  0  0  0  0  0  0  0  0  0  0  0
   10.3723  -15.5242   28.2153 O   0  0  0  0  0  0  0  0  0  0  0  0
  2  1  1  6
  2  3  1  0
  4  8  1  0
  4  3  1  0
  5  4  2  0
  6  7  2  0
  6  2  1  0
 10  9  1  1
 10 11  1  0
 10 12  1  0
 13 12  1  1
 13 14  1  0
 14  6  1  0
 15 16  2  0
 15 13  1  0
 17 15  1  0
 18 19  1  6
 18 17  1  0
 20 19  1  0
 20 21  1  0
 21 22  2  0
 23 18  1  0
 24 23  1  0
 25 21  1  0
 26 23  2  0
M  END
$$$$
