DLE.pdb
     RDKit          3D

 26 25  0  0  1  0  0  0  0  0999 V2000
   10.1041  -18.6293   16.1401 N   0  0  0  0  0  0  0  0  0  0  0  0
    9.2018  -18.6225   17.2610 C   0  0  1  0  0  0  0  0  0  0  0  0
    9.3693  -19.9318   18.0075 C   0  0  0  0  0  0  0  0  0  0  0  0
    8.9692  -21.0863   17.1786 C   0  0  0  0  0  0  0  0  0  0  0  0
    7.8640  -21.1671   16.5913 O   0  0  0  0  0  0  0  0  0  0  0  0
    9.5016  -17.5331   18.2260 C   0  0  0  0  0  0  0  0  0  0  0  0
   10.7297  -17.1936   18.3676 O   0  0  0  0  0  0  0  0  0  0  0  0
    9.8974  -22.1406   17.0567 O   0  0  0  0  0  0  0  0  0  0  0  0
    6.5492  -13.1044   21.3405 C   0  0  0  0  0  0  0  0  0  0  0  0
    7.9160  -13.7373   21.0288 C   0  0  2  0  0  0  0  0  0  0  0  0
    8.7353  -12.6370   20.4046 C   0  0  0  0  0  0  0  0  0  0  0  0
    7.6715  -14.8886   20.1502 C   0  0  0  0  0  0  0  0  0  0  0  0
    8.7943  -15.8012   19.8524 C   0  0  2  0  0  0  0  0  0  0  0  0
    8.4739  -16.8879   18.9659 N   0  0  0  0  0  0  0  0  0  0  0  0
    9.4854  -16.3429   21.0743 C   0  0  0  0  0  0  0  0  0  0  0  0
    9.0242  -17.3726   21.6338 O   0  0  0  0  0  0  0  0  0  0  0  0
   10.6322  -15.7470   21.6219 N   0  0  0  0  0  0  0  0  0  0  0  0
   11.5048  -16.4393   22.6115 C   0  0  1  0  0  0  0  0  0  0  0  0
   12.9173  -16.0765   22.3951 C   0  0  0  0  0  0  0  0  0  0  0  0
   13.8192  -16.6775   23.4249 C   0  0  0  0  0  0  0  0  0  0  0  0
   15.2576  -16.3452   23.1471 C   0  0  0  0  0  0  0  0  0  0  0  0
   16.1642  -17.2204   23.1405 O   0  0  0  0  0  0  0  0  0  0  0  0
   11.0468  -16.0938   23.9751 C   0  0  0  0  0  0  0  0  0  0  0  0
   10.0390  -15.1055   24.1128 O   0  0  0  0  0  0  0  0  0  0  0  0
   15.6247  -15.0256   22.8812 O   0  0  0  0  0  0  0  0  0  0  0  0
   11.4475  -16.5776   25.0427 O   0  0  0  0  0  0  0  0  0  0  0  0
  2  1  1  6
  2  3  1  0
  4  8  1  0
  4  3  1  0
  5  4  2  0
  6  7  2  0
  6  2  1  0
 10  9  1  6
 10 11  1  0
 10 12  1  0
 13 12  1  1
 13 14  1  0
 14  6  1  0
 15 16  2  0
 15 13  1  0
 17 15  1  0
 18 19  1  1
 18 17  1  0
 20 19  1  0
 20 21  1  0
 21 22  2  0
 23 18  1  0
 24 23  1  0
 25 21  1  0
 26 23  2  0
M  END
$$$$
