DLE.pdb
     RDKit          3D

 26 25  0  0  1  0  0  0  0  0999 V2000
   10.0721  -17.2037   16.5764 N   0  0  0  0  0  0  0  0  0  0  0  0
   11.3136  -16.7063   17.1073 C   0  0  1  0  0  0  0  0  0  0  0  0
   11.9271  -15.7776   16.0776 C   0  0  0  0  0  0  0  0  0  0  0  0
   12.2468  -16.4894   14.8241 C   0  0  0  0  0  0  0  0  0  0  0  0
   11.3965  -17.1149   14.1469 O   0  0  0  0  0  0  0  0  0  0  0  0
   11.1238  -15.9112   18.3482 C   0  0  0  0  0  0  0  0  0  0  0  0
   12.1749  -15.4450   18.9151 O   0  0  0  0  0  0  0  0  0  0  0  0
   13.5866  -16.4478   14.3869 O   0  0  0  0  0  0  0  0  0  0  0  0
    8.7031  -12.1651   19.6309 C   0  0  0  0  0  0  0  0  0  0  0  0
    7.9078  -13.4699   19.4546 C   0  0  2  0  0  0  0  0  0  0  0  0
    6.4608  -13.0844   19.6250 C   0  0  0  0  0  0  0  0  0  0  0  0
    8.4069  -14.4217   20.4557 C   0  0  0  0  0  0  0  0  0  0  0  0
    9.6940  -15.1015   20.2043 C   0  0  2  0  0  0  0  0  0  0  0  0
    9.8323  -15.6720   18.8909 N   0  0  0  0  0  0  0  0  0  0  0  0
   10.0535  -16.1358   21.2365 C   0  0  0  0  0  0  0  0  0  0  0  0
    9.9241  -17.3560   20.9529 O   0  0  0  0  0  0  0  0  0  0  0  0
   10.5324  -15.7976   22.5118 N   0  0  0  0  0  0  0  0  0  0  0  0
   10.9861  -16.8182   23.4980 C   0  0  1  0  0  0  0  0  0  0  0  0
   12.1173  -17.5920   22.9547 C   0  0  0  0  0  0  0  0  0  0  0  0
   13.2281  -16.7112   22.4798 C   0  0  0  0  0  0  0  0  0  0  0  0
   14.3892  -17.5232   21.9807 C   0  0  0  0  0  0  0  0  0  0  0  0
   14.9042  -18.4529   22.6577 O   0  0  0  0  0  0  0  0  0  0  0  0
   11.3383  -16.1359   24.7626 C   0  0  0  0  0  0  0  0  0  0  0  0
   11.6784  -16.9360   25.8831 O   0  0  0  0  0  0  0  0  0  0  0  0
   14.9310  -17.2568   20.7228 O   0  0  0  0  0  0  0  0  0  0  0  0
   11.3746  -14.9148   24.9675 O   0  0  0  0  0  0  0  0  0  0  0  0
  2  1  1  6
  2  3  1  0
  4  8  1  0
  4  3  1  0
  5  4  2  0
  6  7  2  0
  6  2  1  0
 10  9  1  1
 10 11  1  0
 10 12  1  0
 13 12  1  1
 13 14  1  0
 14  6  1  0
 15 16  2  0
 15 13  1  0
 17 15  1  0
 18 19  1  6
 18 17  1  0
 20 19  1  0
 20 21  1  0
 21 22  2  0
 23 18  1  0
 24 23  1  0
 25 21  1  0
 26 23  2  0
M  END
$$$$
