DLE.pdb
     RDKit          3D

 26 25  0  0  1  0  0  0  0  0999 V2000
    8.2831  -14.7876   20.5747 N   0  0  0  0  0  0  0  0  0  0  0  0
    7.7915  -15.5704   21.6775 C   0  0  1  0  0  0  0  0  0  0  0  0
    8.2402  -17.0044   21.4732 C   0  0  0  0  0  0  0  0  0  0  0  0
    7.5489  -17.6337   20.3303 C   0  0  0  0  0  0  0  0  0  0  0  0
    6.4787  -17.1977   19.8431 O   0  0  0  0  0  0  0  0  0  0  0  0
    8.3458  -15.1257   22.9825 C   0  0  0  0  0  0  0  0  0  0  0  0
    9.6199  -15.0168   23.0745 O   0  0  0  0  0  0  0  0  0  0  0  0
    8.1448  -18.7846   19.7752 O   0  0  0  0  0  0  0  0  0  0  0  0
    7.4982  -11.3780   25.5991 C   0  0  0  0  0  0  0  0  0  0  0  0
    6.4572  -12.5044   25.7157 C   0  0  2  0  0  0  0  0  0  0  0  0
    5.3799  -11.9636   26.6205 C   0  0  0  0  0  0  0  0  0  0  0  0
    7.1539  -13.6876   26.2372 C   0  0  0  0  0  0  0  0  0  0  0  0
    8.0761  -14.4161   25.3423 C   0  0  2  0  0  0  0  0  0  0  0  0
    7.5042  -14.8305   24.0890 N   0  0  0  0  0  0  0  0  0  0  0  0
    8.7598  -15.5898   25.9897 C   0  0  0  0  0  0  0  0  0  0  0  0
    8.0941  -16.6318   26.2291 O   0  0  0  0  0  0  0  0  0  0  0  0
   10.1190  -15.5752   26.3400 N   0  0  0  0  0  0  0  0  0  0  0  0
   10.7993  -16.7389   26.9748 C   0  0  1  0  0  0  0  0  0  0  0  0
   12.0366  -17.0724   26.2458 C   0  0  0  0  0  0  0  0  0  0  0  0
   12.9481  -15.8950   26.1115 C   0  0  0  0  0  0  0  0  0  0  0  0
   14.1522  -16.2329   25.2794 C   0  0  0  0  0  0  0  0  0  0  0  0
   15.0829  -16.9682   25.7049 O   0  0  0  0  0  0  0  0  0  0  0  0
   11.0621  -16.4208   28.3955 C   0  0  0  0  0  0  0  0  0  0  0  0
   10.6703  -15.1469   28.8802 O   0  0  0  0  0  0  0  0  0  0  0  0
   14.2631  -15.7270   23.9837 O   0  0  0  0  0  0  0  0  0  0  0  0
   11.5975  -17.1538   29.2384 O   0  0  0  0  0  0  0  0  0  0  0  0
  2  1  1  6
  2  3  1  0
  4  8  1  0
  4  3  1  0
  5  4  2  0
  6  7  2  0
  6  2  1  0
 10  9  1  1
 10 11  1  0
 10 12  1  0
 13 12  1  1
 13 14  1  0
 14  6  1  0
 15 16  2  0
 15 13  1  0
 17 15  1  0
 18 19  1  6
 18 17  1  0
 20 19  1  0
 20 21  1  0
 21 22  2  0
 23 18  1  0
 24 23  1  0
 25 21  1  0
 26 23  2  0
M  END
$$$$
