DLE.pdb
     RDKit          3D

 26 25  0  0  1  0  0  0  0  0999 V2000
    7.0435  -16.9053   22.3657 N   0  0  0  0  0  0  0  0  0  0  0  0
    8.3303  -16.4401   21.9203 C   0  0  1  0  0  0  0  0  0  0  0  0
    8.1262  -15.6363   20.6508 C   0  0  0  0  0  0  0  0  0  0  0  0
    7.7685  -16.5021   19.5096 C   0  0  0  0  0  0  0  0  0  0  0  0
    7.6074  -17.7423   19.6053 O   0  0  0  0  0  0  0  0  0  0  0  0
    8.9803  -15.5363   22.9045 C   0  0  0  0  0  0  0  0  0  0  0  0
   10.1348  -15.0686   22.6011 O   0  0  0  0  0  0  0  0  0  0  0  0
    7.6048  -15.8767   18.2567 O   0  0  0  0  0  0  0  0  0  0  0  0
    7.4424  -11.6823   24.6506 C   0  0  0  0  0  0  0  0  0  0  0  0
    6.9822  -12.9537   25.3840 C   0  0  2  0  0  0  0  0  0  0  0  0
    5.9604  -12.4896   26.3900 C   0  0  0  0  0  0  0  0  0  0  0  0
    8.1775  -13.5735   25.9709 C   0  0  0  0  0  0  0  0  0  0  0  0
    9.0483  -14.3912   25.1020 C   0  0  2  0  0  0  0  0  0  0  0  0
    8.3540  -15.1985   24.1347 N   0  0  0  0  0  0  0  0  0  0  0  0
   10.0319  -15.2485   25.8516 C   0  0  0  0  0  0  0  0  0  0  0  0
   10.7593  -14.7195   26.7331 O   0  0  0  0  0  0  0  0  0  0  0  0
   10.1745  -16.6239   25.6107 N   0  0  0  0  0  0  0  0  0  0  0  0
   11.1138  -17.4836   26.3845 C   0  0  1  0  0  0  0  0  0  0  0  0
   10.3660  -18.4406   27.2204 C   0  0  0  0  0  0  0  0  0  0  0  0
   11.2714  -19.3731   27.9592 C   0  0  0  0  0  0  0  0  0  0  0  0
   10.4889  -20.3056   28.8394 C   0  0  0  0  0  0  0  0  0  0  0  0
   10.4921  -20.2108   30.0959 O   0  0  0  0  0  0  0  0  0  0  0  0
   12.0236  -18.1670   25.4391 C   0  0  0  0  0  0  0  0  0  0  0  0
   13.2793  -18.6148   25.9231 O   0  0  0  0  0  0  0  0  0  0  0  0
    9.7212  -21.3194   28.2651 O   0  0  0  0  0  0  0  0  0  0  0  0
   11.8156  -18.4038   24.2411 O   0  0  0  0  0  0  0  0  0  0  0  0
  2  1  1  1
  2  3  1  0
  4  8  1  0
  4  3  1  0
  5  4  2  0
  6  7  2  0
  6  2  1  0
 10  9  1  1
 10 11  1  0
 10 12  1  0
 13 12  1  1
 13 14  1  0
 14  6  1  0
 15 16  2  0
 15 13  1  0
 17 15  1  0
 18 19  1  6
 18 17  1  0
 20 19  1  0
 20 21  1  0
 21 22  2  0
 23 18  1  0
 24 23  1  0
 25 21  1  0
 26 23  2  0
M  END
$$$$
