DLE.pdb
     RDKit          3D

 26 25  0  0  1  0  0  0  0  0999 V2000
   11.8148  -16.2627   16.2818 N   0  0  0  0  0  0  0  0  0  0  0  0
   11.2163  -16.9399   17.4016 C   0  0  1  0  0  0  0  0  0  0  0  0
   12.1359  -18.0736   17.8118 C   0  0  0  0  0  0  0  0  0  0  0  0
   12.3242  -19.0456   16.7165 C   0  0  0  0  0  0  0  0  0  0  0  0
   13.4062  -19.1925   16.0995 O   0  0  0  0  0  0  0  0  0  0  0  0
   11.0647  -16.0558   18.5862 C   0  0  0  0  0  0  0  0  0  0  0  0
   12.1004  -15.4061   18.9722 O   0  0  0  0  0  0  0  0  0  0  0  0
   11.2129  -19.8391   16.3653 O   0  0  0  0  0  0  0  0  0  0  0  0
    8.6271  -12.3321   19.0052 C   0  0  0  0  0  0  0  0  0  0  0  0
    7.7802  -13.6064   19.1620 C   0  0  2  0  0  0  0  0  0  0  0  0
    6.3569  -13.1289   19.2955 C   0  0  0  0  0  0  0  0  0  0  0  0
    8.2935  -14.3278   20.3339 C   0  0  0  0  0  0  0  0  0  0  0  0
    9.6500  -14.9086   20.2678 C   0  0  2  0  0  0  0  0  0  0  0  0
    9.8248  -15.9293   19.2692 N   0  0  0  0  0  0  0  0  0  0  0  0
   10.1676  -15.4107   21.5885 C   0  0  0  0  0  0  0  0  0  0  0  0
   10.1752  -14.6337   22.5796 O   0  0  0  0  0  0  0  0  0  0  0  0
   10.6448  -16.7187   21.7665 N   0  0  0  0  0  0  0  0  0  0  0  0
   11.1369  -17.2244   23.0789 C   0  0  1  0  0  0  0  0  0  0  0  0
   12.5854  -17.4924   23.0170 C   0  0  0  0  0  0  0  0  0  0  0  0
   13.3913  -16.2340   22.9699 C   0  0  0  0  0  0  0  0  0  0  0  0
   14.8589  -16.5334   22.8568 C   0  0  0  0  0  0  0  0  0  0  0  0
   15.5042  -16.3577   21.7888 O   0  0  0  0  0  0  0  0  0  0  0  0
   10.8008  -16.2362   24.1272 C   0  0  0  0  0  0  0  0  0  0  0  0
   11.1283  -16.5482   25.4714 O   0  0  0  0  0  0  0  0  0  0  0  0
   15.5535  -17.0220   23.9640 O   0  0  0  0  0  0  0  0  0  0  0  0
   10.2529  -15.1366   23.9691 O   0  0  0  0  0  0  0  0  0  0  0  0
  2  1  1  6
  2  3  1  0
  4  8  1  0
  4  3  1  0
  5  4  2  0
  6  7  2  0
  6  2  1  0
 10  9  1  1
 10 11  1  0
 10 12  1  0
 13 12  1  1
 13 14  1  0
 14  6  1  0
 15 16  2  0
 15 13  1  0
 17 15  1  0
 18 19  1  6
 18 17  1  0
 20 19  1  0
 20 21  1  0
 21 22  2  0
 23 18  1  0
 24 23  1  0
 25 21  1  0
 26 23  2  0
M  END
$$$$
