DLE.pdb
     RDKit          3D

 26 25  0  0  1  0  0  0  0  0999 V2000
   10.6467  -18.9315   19.3373 N   0  0  0  0  0  0  0  0  0  0  0  0
   11.7126  -17.9894   19.5541 C   0  0  1  0  0  0  0  0  0  0  0  0
   12.3312  -17.6615   18.2091 C   0  0  0  0  0  0  0  0  0  0  0  0
   12.7632  -18.8804   17.4966 C   0  0  0  0  0  0  0  0  0  0  0  0
   13.9563  -19.1179   17.1915 O   0  0  0  0  0  0  0  0  0  0  0  0
   11.2306  -16.7083   20.1323 C   0  0  0  0  0  0  0  0  0  0  0  0
   12.1159  -15.8420   20.4633 O   0  0  0  0  0  0  0  0  0  0  0  0
   11.7615  -19.8111   17.1527 O   0  0  0  0  0  0  0  0  0  0  0  0
    6.0567  -13.4163   20.4350 C   0  0  0  0  0  0  0  0  0  0  0  0
    7.5575  -13.4377   20.7713 C   0  0  2  0  0  0  0  0  0  0  0  0
    8.1423  -12.2354   20.0756 C   0  0  0  0  0  0  0  0  0  0  0  0
    8.0879  -14.7271   20.3094 C   0  0  0  0  0  0  0  0  0  0  0  0
    9.4105  -15.1640   20.8012 C   0  0  2  0  0  0  0  0  0  0  0  0
    9.8458  -16.4457   20.3138 N   0  0  0  0  0  0  0  0  0  0  0  0
    9.5510  -15.1273   22.2989 C   0  0  0  0  0  0  0  0  0  0  0  0
    9.3931  -14.0336   22.9030 O   0  0  0  0  0  0  0  0  0  0  0  0
    9.8512  -16.2685   23.0591 N   0  0  0  0  0  0  0  0  0  0  0  0
    9.9630  -16.2397   24.5446 C   0  0  1  0  0  0  0  0  0  0  0  0
    8.8028  -16.9085   25.1613 C   0  0  0  0  0  0  0  0  0  0  0  0
    8.7729  -18.3739   24.8665 C   0  0  0  0  0  0  0  0  0  0  0  0
    7.6547  -19.0533   25.6045 C   0  0  0  0  0  0  0  0  0  0  0  0
    6.4415  -18.8175   25.3589 O   0  0  0  0  0  0  0  0  0  0  0  0
   11.2410  -16.8720   24.9390 C   0  0  0  0  0  0  0  0  0  0  0  0
   11.9683  -17.5847   23.9519 O   0  0  0  0  0  0  0  0  0  0  0  0
    7.9479  -19.9855   26.6005 O   0  0  0  0  0  0  0  0  0  0  0  0
   11.7692  -16.8533   26.0593 O   0  0  0  0  0  0  0  0  0  0  0  0
  2  1  1  6
  2  3  1  0
  4  8  1  0
  4  3  1  0
  5  4  2  0
  6  7  2  0
  6  2  1  0
 10  9  1  6
 10 11  1  0
 10 12  1  0
 13 12  1  1
 13 14  1  0
 14  6  1  0
 15 16  2  0
 15 13  1  0
 17 15  1  0
 18 19  1  1
 18 17  1  0
 20 19  1  0
 20 21  1  0
 21 22  2  0
 23 18  1  0
 24 23  1  0
 25 21  1  0
 26 23  2  0
M  END
$$$$
