DLE.pdb
     RDKit          3D

 26 25  0  0  1  0  0  0  0  0999 V2000
   10.4548  -15.9407   20.4931 N   0  0  0  0  0  0  0  0  0  0  0  0
    9.3285  -16.2467   21.3349 C   0  0  1  0  0  0  0  0  0  0  0  0
    9.2843  -17.7494   21.5333 C   0  0  0  0  0  0  0  0  0  0  0  0
    8.9674  -18.4557   20.2760 C   0  0  0  0  0  0  0  0  0  0  0  0
    8.8657  -17.8811   19.1658 O   0  0  0  0  0  0  0  0  0  0  0  0
    9.4443  -15.6356   22.6843 C   0  0  0  0  0  0  0  0  0  0  0  0
   10.6185  -15.5456   23.1910 O   0  0  0  0  0  0  0  0  0  0  0  0
    8.7737  -19.8500   20.3550 O   0  0  0  0  0  0  0  0  0  0  0  0
    6.0008  -12.5442   26.7725 C   0  0  0  0  0  0  0  0  0  0  0  0
    7.3516  -13.2395   26.5320 C   0  0  2  0  0  0  0  0  0  0  0  0
    8.3975  -12.1850   26.7884 C   0  0  0  0  0  0  0  0  0  0  0  0
    7.3342  -13.7593   25.1584 C   0  0  0  0  0  0  0  0  0  0  0  0
    8.4475  -14.6235   24.7158 C   0  0  2  0  0  0  0  0  0  0  0  0
    8.3042  -15.1666   23.3914 N   0  0  0  0  0  0  0  0  0  0  0  0
    8.7816  -15.7334   25.6754 C   0  0  0  0  0  0  0  0  0  0  0  0
    7.9026  -16.5928   25.9491 O   0  0  0  0  0  0  0  0  0  0  0  0
   10.0410  -15.8550   26.2829 N   0  0  0  0  0  0  0  0  0  0  0  0
   10.3655  -16.9382   27.2533 C   0  0  1  0  0  0  0  0  0  0  0  0
   11.5999  -17.6369   26.8512 C   0  0  0  0  0  0  0  0  0  0  0  0
   11.4978  -18.2190   25.4779 C   0  0  0  0  0  0  0  0  0  0  0  0
   12.7677  -18.9216   25.0904 C   0  0  0  0  0  0  0  0  0  0  0  0
   13.5411  -18.4775   24.2000 O   0  0  0  0  0  0  0  0  0  0  0  0
   10.4780  -16.3490   28.6056 C   0  0  0  0  0  0  0  0  0  0  0  0
   10.6333  -17.2275   29.7081 O   0  0  0  0  0  0  0  0  0  0  0  0
   13.1248  -20.1096   25.7292 O   0  0  0  0  0  0  0  0  0  0  0  0
   10.4535  -15.1462   28.9008 O   0  0  0  0  0  0  0  0  0  0  0  0
  2  1  1  6
  2  3  1  0
  4  8  1  0
  4  3  1  0
  5  4  2  0
  6  7  2  0
  6  2  1  0
 10  9  1  6
 10 11  1  0
 10 12  1  0
 13 12  1  1
 13 14  1  0
 14  6  1  0
 15 16  2  0
 15 13  1  0
 17 15  1  0
 18 19  1  6
 18 17  1  0
 20 19  1  0
 20 21  1  0
 21 22  2  0
 23 18  1  0
 24 23  1  0
 25 21  1  0
 26 23  2  0
M  END
$$$$
