DLE.pdb
     RDKit          3D

 26 25  0  0  1  0  0  0  0  0999 V2000
    7.4695  -17.2683   21.1090 N   0  0  0  0  0  0  0  0  0  0  0  0
    8.7384  -16.5936   21.0363 C   0  0  1  0  0  0  0  0  0  0  0  0
    8.8438  -15.9357   19.6741 C   0  0  0  0  0  0  0  0  0  0  0  0
    8.6360  -16.9077   18.5824 C   0  0  0  0  0  0  0  0  0  0  0  0
    8.2626  -18.0903   18.7700 O   0  0  0  0  0  0  0  0  0  0  0  0
    8.8674  -15.5139   22.0491 C   0  0  0  0  0  0  0  0  0  0  0  0
    9.8968  -14.7537   21.9711 O   0  0  0  0  0  0  0  0  0  0  0  0
    8.8766  -16.4572   17.2682 O   0  0  0  0  0  0  0  0  0  0  0  0
    5.7076  -12.8590   26.6344 C   0  0  0  0  0  0  0  0  0  0  0  0
    7.0887  -13.0017   25.9724 C   0  0  2  0  0  0  0  0  0  0  0  0
    7.5122  -11.5987   25.6203 C   0  0  0  0  0  0  0  0  0  0  0  0
    6.9275  -13.8971   24.8194 C   0  0  0  0  0  0  0  0  0  0  0  0
    8.1392  -14.3998   24.1404 C   0  0  2  0  0  0  0  0  0  0  0  0
    7.8930  -15.3245   23.0661 N   0  0  0  0  0  0  0  0  0  0  0  0
    9.1678  -14.9815   25.0718 C   0  0  0  0  0  0  0  0  0  0  0  0
    9.5697  -14.2945   26.0478 O   0  0  0  0  0  0  0  0  0  0  0  0
    9.7027  -16.2679   24.9004 N   0  0  0  0  0  0  0  0  0  0  0  0
   10.7296  -16.8413   25.8152 C   0  0  1  0  0  0  0  0  0  0  0  0
   10.0991  -17.7443   26.7953 C   0  0  0  0  0  0  0  0  0  0  0  0
   11.0871  -18.2953   27.7729 C   0  0  0  0  0  0  0  0  0  0  0  0
   10.4200  -19.2065   28.7635 C   0  0  0  0  0  0  0  0  0  0  0  0
    9.1899  -19.4750   28.7129 O   0  0  0  0  0  0  0  0  0  0  0  0
   11.7567  -17.5328   25.0056 C   0  0  0  0  0  0  0  0  0  0  0  0
   13.0784  -17.5994   25.5155 O   0  0  0  0  0  0  0  0  0  0  0  0
   11.1722  -19.7903   29.7835 O   0  0  0  0  0  0  0  0  0  0  0  0
   11.5979  -18.0777   23.9046 O   0  0  0  0  0  0  0  0  0  0  0  0
  2  1  1  6
  2  3  1  0
  4  8  1  0
  4  3  1  0
  5  4  2  0
  6  7  2  0
  6  2  1  0
 10  9  1  6
 10 11  1  0
 10 12  1  0
 13 12  1  1
 13 14  1  0
 14  6  1  0
 15 16  2  0
 15 13  1  0
 17 15  1  0
 18 19  1  1
 18 17  1  0
 20 19  1  0
 20 21  1  0
 21 22  2  0
 23 18  1  0
 24 23  1  0
 25 21  1  0
 26 23  2  0
M  END
$$$$
