DLE.pdb
     RDKit          3D

 26 25  0  0  1  0  0  0  0  0999 V2000
   10.1028  -15.9974   20.5346 N   0  0  0  0  0  0  0  0  0  0  0  0
    9.0875  -16.3825   21.4788 C   0  0  1  0  0  0  0  0  0  0  0  0
    9.2403  -17.8657   21.7549 C   0  0  0  0  0  0  0  0  0  0  0  0
    8.8878  -18.6786   20.5738 C   0  0  0  0  0  0  0  0  0  0  0  0
    9.6784  -19.4841   20.0268 O   0  0  0  0  0  0  0  0  0  0  0  0
    9.2284  -15.6833   22.7824 C   0  0  0  0  0  0  0  0  0  0  0  0
   10.4173  -15.4951   23.2238 O   0  0  0  0  0  0  0  0  0  0  0  0
    7.5870  -18.5225   20.0528 O   0  0  0  0  0  0  0  0  0  0  0  0
    5.7584  -12.4792   26.7530 C   0  0  0  0  0  0  0  0  0  0  0  0
    7.1635  -13.0428   26.4814 C   0  0  2  0  0  0  0  0  0  0  0  0
    8.0933  -11.8592   26.5602 C   0  0  0  0  0  0  0  0  0  0  0  0
    7.1221  -13.6990   25.1680 C   0  0  0  0  0  0  0  0  0  0  0  0
    8.2708  -14.5324   24.7580 C   0  0  2  0  0  0  0  0  0  0  0  0
    8.0960  -15.2374   23.5163 N   0  0  0  0  0  0  0  0  0  0  0  0
    8.7385  -15.4954   25.8155 C   0  0  0  0  0  0  0  0  0  0  0  0
    7.9799  -16.4378   26.1655 O   0  0  0  0  0  0  0  0  0  0  0  0
    9.9945  -15.3897   26.4331 N   0  0  0  0  0  0  0  0  0  0  0  0
   10.4603  -16.3437   27.4785 C   0  0  1  0  0  0  0  0  0  0  0  0
   11.7799  -16.8956   27.1208 C   0  0  0  0  0  0  0  0  0  0  0  0
   11.7316  -17.7067   25.8658 C   0  0  0  0  0  0  0  0  0  0  0  0
   13.0954  -18.2168   25.4965 C   0  0  0  0  0  0  0  0  0  0  0  0
   13.3200  -18.8236   24.4152 O   0  0  0  0  0  0  0  0  0  0  0  0
   10.4868  -15.6462   28.7829 C   0  0  0  0  0  0  0  0  0  0  0  0
   10.7824  -16.4065   29.9431 O   0  0  0  0  0  0  0  0  0  0  0  0
   14.1679  -18.0196   26.3671 O   0  0  0  0  0  0  0  0  0  0  0  0
   10.2771  -14.4433   28.9911 O   0  0  0  0  0  0  0  0  0  0  0  0
  2  1  1  6
  2  3  1  0
  4  8  1  0
  4  3  1  0
  5  4  2  0
  6  7  2  0
  6  2  1  0
 10  9  1  6
 10 11  1  0
 10 12  1  0
 13 12  1  1
 13 14  1  0
 14  6  1  0
 15 16  2  0
 15 13  1  0
 17 15  1  0
 18 19  1  6
 18 17  1  0
 20 19  1  0
 20 21  1  0
 21 22  2  0
 23 18  1  0
 24 23  1  0
 25 21  1  0
 26 23  2  0
M  END
$$$$
