DLE.pdb
     RDKit          3D

 26 25  0  0  1  0  0  0  0  0999 V2000
    9.9787  -15.7068   19.9095 N   0  0  0  0  0  0  0  0  0  0  0  0
    8.8928  -16.0521   20.7883 C   0  0  1  0  0  0  0  0  0  0  0  0
    8.8355  -17.5637   20.8936 C   0  0  0  0  0  0  0  0  0  0  0  0
    8.5506  -18.1902   19.5872 C   0  0  0  0  0  0  0  0  0  0  0  0
    9.3440  -18.1582   18.6164 O   0  0  0  0  0  0  0  0  0  0  0  0
    9.0875  -15.5298   22.1657 C   0  0  0  0  0  0  0  0  0  0  0  0
   10.2855  -15.5041   22.6216 O   0  0  0  0  0  0  0  0  0  0  0  0
    7.3142  -18.8537   19.4502 O   0  0  0  0  0  0  0  0  0  0  0  0
    5.7434  -13.1657   26.8223 C   0  0  0  0  0  0  0  0  0  0  0  0
    7.1528  -13.5411   26.3338 C   0  0  2  0  0  0  0  0  0  0  0  0
    7.9584  -12.2700   26.4163 C   0  0  0  0  0  0  0  0  0  0  0  0
    7.0116  -14.0862   24.9772 C   0  0  0  0  0  0  0  0  0  0  0  0
    8.2214  -14.5677   24.2797 C   0  0  2  0  0  0  0  0  0  0  0  0
    7.9951  -15.0746   22.9525 N   0  0  0  0  0  0  0  0  0  0  0  0
    9.0245  -15.5692   25.0647 C   0  0  0  0  0  0  0  0  0  0  0  0
   10.2706  -15.4150   25.1621 O   0  0  0  0  0  0  0  0  0  0  0  0
    8.4408  -16.6764   25.7000 N   0  0  0  0  0  0  0  0  0  0  0  0
    9.1774  -17.5228   26.6803 C   0  0  1  0  0  0  0  0  0  0  0  0
    9.6005  -16.7174   27.8404 C   0  0  0  0  0  0  0  0  0  0  0  0
   10.2120  -17.5552   28.9171 C   0  0  0  0  0  0  0  0  0  0  0  0
   10.6465  -16.7108   30.0810 C   0  0  0  0  0  0  0  0  0  0  0  0
   10.4290  -15.4707   30.1348 O   0  0  0  0  0  0  0  0  0  0  0  0
    8.3120  -18.6549   27.0780 C   0  0  0  0  0  0  0  0  0  0  0  0
    8.9333  -19.8391   27.5502 O   0  0  0  0  0  0  0  0  0  0  0  0
   11.3145  -17.3015   31.1543 O   0  0  0  0  0  0  0  0  0  0  0  0
    7.0743  -18.6951   27.0489 O   0  0  0  0  0  0  0  0  0  0  0  0
  2  1  1  6
  2  3  1  0
  4  8  1  0
  4  3  1  0
  5  4  2  0
  6  7  2  0
  6  2  1  0
 10  9  1  6
 10 11  1  0
 10 12  1  0
 13 12  1  1
 13 14  1  0
 14  6  1  0
 15 16  2  0
 15 13  1  0
 17 15  1  0
 18 19  1  1
 18 17  1  0
 20 19  1  0
 20 21  1  0
 21 22  2  0
 23 18  1  0
 24 23  1  0
 25 21  1  0
 26 23  2  0
M  END
$$$$
