MVA.pdb
     RDKit          3D

 21 20  0  0  1  0  0  0  0  0999 V2000
   22.6480  -21.5487   -6.7759 C   0  0  0  0  0  0  0  0  0  0  0  0
   23.9766  -21.1032   -7.8805 S   0  0  0  0  0  0  0  0  0  0  0  0
   23.4907  -20.7295   -9.5578 C   0  0  0  0  0  0  0  0  0  0  0  0
   24.6025  -20.2807  -10.4481 C   0  0  0  0  0  0  0  0  0  0  0  0
   24.9940  -21.3404  -11.4152 C   0  0  2  0  0  0  0  0  0  0  0  0
   25.6564  -22.4227  -10.7194 N   0  0  0  0  0  0  0  0  0  0  0  0
   25.9881  -20.8109  -12.4227 C   0  0  0  0  0  0  0  0  0  0  0  0
   27.1263  -20.4785  -12.0444 O   0  0  0  0  0  0  0  0  0  0  0  0
   27.3960  -21.1832  -17.0089 C   0  0  0  0  0  0  0  0  0  0  0  0
   26.6415  -21.5482  -15.7575 C   0  0  1  0  0  0  0  0  0  0  0  0
   27.1863  -22.7577  -15.0729 C   0  0  0  0  0  0  0  0  0  0  0  0
   26.5529  -20.3441  -14.8324 C   0  0  2  0  0  0  0  0  0  0  0  0
   25.6046  -20.7025  -13.7818 N   0  0  0  0  0  0  0  0  0  0  0  0
   26.0929  -19.1415  -15.5445 C   0  0  0  0  0  0  0  0  0  0  0  0
   24.9616  -19.1476  -16.0908 O   0  0  0  0  0  0  0  0  0  0  0  0
   27.3802  -15.6444  -15.9280 C   0  0  0  0  0  0  0  0  0  0  0  0
   26.4287  -16.7631  -16.3487 C   0  0  2  0  0  0  0  0  0  0  0  0
   26.8694  -17.9526  -15.6509 N   0  0  0  0  0  0  0  0  0  0  0  0
   26.3966  -16.9468  -17.8014 C   0  0  0  0  0  0  0  0  0  0  0  0
   25.4963  -16.3021  -18.6140 O   0  0  0  0  0  0  0  0  0  0  0  0
   27.2277  -17.7290  -18.3396 O   0  0  0  0  0  0  0  0  0  0  0  0
  2  1  1  0
  3  4  1  0
  3  2  1  0
  5  7  1  0
  5  4  1  0
  5  6  1  1
  7  8  2  0
 10  9  1  6
 10 11  1  0
 12 10  1  0
 12 13  1  1
 13  7  1  0
 14 12  1  0
 15 14  2  0
 17 16  1  6
 17 18  1  0
 18 14  1  0
 19 17  1  0
 19 20  1  0
 21 19  2  0
M  END
$$$$
