MVA.pdb
     RDKit          3D

 21 20  0  0  1  0  0  0  0  0999 V2000
   25.4403   -8.2550  -21.9833 C   0  0  0  0  0  0  0  0  0  0  0  0
   24.3126   -9.5279  -22.5238 S   0  0  0  0  0  0  0  0  0  0  0  0
   23.8396  -10.7169  -21.2782 C   0  0  0  0  0  0  0  0  0  0  0  0
   23.1302  -10.1403  -20.0974 C   0  0  0  0  0  0  0  0  0  0  0  0
   22.8676  -11.1701  -19.0571 C   0  0  2  0  0  0  0  0  0  0  0  0
   22.0427  -12.2253  -19.6051 N   0  0  0  0  0  0  0  0  0  0  0  0
   22.0937  -10.5829  -17.8997 C   0  0  0  0  0  0  0  0  0  0  0  0
   20.8561  -10.7092  -17.8627 O   0  0  0  0  0  0  0  0  0  0  0  0
   22.2691   -9.4580  -13.2123 C   0  0  0  0  0  0  0  0  0  0  0  0
   22.7844  -10.0553  -14.4953 C   0  0  1  0  0  0  0  0  0  0  0  0
   22.6664  -11.5427  -14.5417 C   0  0  0  0  0  0  0  0  0  0  0  0
   22.1233   -9.3799  -15.6870 C   0  0  2  0  0  0  0  0  0  0  0  0
   22.7933   -9.8979  -16.8762 N   0  0  0  0  0  0  0  0  0  0  0  0
   22.2542   -7.9156  -15.6264 C   0  0  0  0  0  0  0  0  0  0  0  0
   23.4010   -7.4031  -15.6035 O   0  0  0  0  0  0  0  0  0  0  0  0
   19.8741   -5.0230  -15.7642 C   0  0  0  0  0  0  0  0  0  0  0  0
   21.2498   -5.5984  -15.4323 C   0  0  2  0  0  0  0  0  0  0  0  0
   21.1373   -7.0329  -15.5919 N   0  0  0  0  0  0  0  0  0  0  0  0
   21.7011   -5.2186  -14.0916 C   0  0  0  0  0  0  0  0  0  0  0  0
   22.4735   -4.1085  -13.8524 O   0  0  0  0  0  0  0  0  0  0  0  0
   21.3713   -5.9356  -13.1071 O   0  0  0  0  0  0  0  0  0  0  0  0
  2  1  1  0
  3  4  1  0
  3  2  1  0
  5  7  1  0
  5  4  1  0
  5  6  1  6
  7  8  2  0
 10  9  1  1
 10 11  1  0
 12 10  1  0
 12 13  1  6
 13  7  1  0
 14 12  1  0
 15 14  2  0
 17 16  1  1
 17 18  1  0
 18 14  1  0
 19 17  1  0
 19 20  1  0
 21 19  2  0
M  END
$$$$
