MVA.pdb
     RDKit          3D

 21 20  0  0  1  0  0  0  0  0999 V2000
   29.0679  -18.4531   -5.6694 C   0  0  0  0  0  0  0  0  0  0  0  0
   27.5700  -19.3984   -5.4531 S   0  0  0  0  0  0  0  0  0  0  0  0
   27.1948  -20.5560   -6.7600 C   0  0  0  0  0  0  0  0  0  0  0  0
   26.7919  -19.9312   -8.0552 C   0  0  0  0  0  0  0  0  0  0  0  0
   26.6408  -20.9463   -9.1315 C   0  0  2  0  0  0  0  0  0  0  0  0
   27.9288  -21.5255   -9.4473 N   0  0  0  0  0  0  0  0  0  0  0  0
   26.1363  -20.3103  -10.4061 C   0  0  0  0  0  0  0  0  0  0  0  0
   26.8759  -19.5342  -11.0384 O   0  0  0  0  0  0  0  0  0  0  0  0
   26.5937  -20.8506  -13.1230 C   0  0  0  0  0  0  0  0  0  0  0  0
   25.1223  -21.1699  -13.1589 C   0  0  1  0  0  0  0  0  0  0  0  0
   24.8275  -22.6154  -12.9308 C   0  0  0  0  0  0  0  0  0  0  0  0
   24.3684  -20.2620  -12.1993 C   0  0  2  0  0  0  0  0  0  0  0  0
   24.8279  -20.6103  -10.8581 N   0  0  0  0  0  0  0  0  0  0  0  0
   22.9124  -20.4476  -12.3026 C   0  0  0  0  0  0  0  0  0  0  0  0
   22.3681  -21.3885  -11.6727 O   0  0  0  0  0  0  0  0  0  0  0  0
   20.1615  -18.2317  -13.4350 C   0  0  0  0  0  0  0  0  0  0  0  0
   20.6262  -19.6268  -13.0208 C   0  0  2  0  0  0  0  0  0  0  0  0
   22.0723  -19.6079  -13.0880 N   0  0  0  0  0  0  0  0  0  0  0  0
   20.0413  -20.6773  -13.8572 C   0  0  0  0  0  0  0  0  0  0  0  0
   18.7703  -21.1609  -13.6652 O   0  0  0  0  0  0  0  0  0  0  0  0
   20.7264  -21.1657  -14.7975 O   0  0  0  0  0  0  0  0  0  0  0  0
  2  1  1  0
  3  4  1  0
  3  2  1  0
  5  7  1  0
  5  4  1  0
  5  6  1  6
  7  8  2  0
 10  9  1  1
 10 11  1  0
 12 10  1  0
 12 13  1  1
 13  7  1  0
 14 12  1  0
 15 14  2  0
 17 16  1  6
 17 18  1  0
 18 14  1  0
 19 17  1  0
 19 20  1  0
 21 19  2  0
M  END
$$$$
