MVA.pdb
     RDKit          3D

 21 20  0  0  1  0  0  0  0  0999 V2000
   29.2057  -20.6983   -4.8498 C   0  0  0  0  0  0  0  0  0  0  0  0
   27.8416  -19.5687   -4.6330 S   0  0  0  0  0  0  0  0  0  0  0  0
   26.5931  -19.6155   -5.9090 C   0  0  0  0  0  0  0  0  0  0  0  0
   27.0976  -19.9753   -7.2678 C   0  0  0  0  0  0  0  0  0  0  0  0
   26.0172  -19.9175   -8.2882 C   0  0  2  0  0  0  0  0  0  0  0  0
   25.0208  -20.9292   -8.0091 N   0  0  0  0  0  0  0  0  0  0  0  0
   26.5590  -20.2226   -9.6654 C   0  0  0  0  0  0  0  0  0  0  0  0
   27.4646  -21.0666   -9.7949 O   0  0  0  0  0  0  0  0  0  0  0  0
   26.9507  -22.1476  -11.6371 C   0  0  0  0  0  0  0  0  0  0  0  0
   26.1724  -21.1915  -12.5021 C   0  0  1  0  0  0  0  0  0  0  0  0
   24.7011  -21.4428  -12.4817 C   0  0  0  0  0  0  0  0  0  0  0  0
   26.5245  -19.7566  -12.1404 C   0  0  2  0  0  0  0  0  0  0  0  0
   26.0247  -19.5404  -10.7858 N   0  0  0  0  0  0  0  0  0  0  0  0
   25.9115  -18.7936  -13.0687 C   0  0  0  0  0  0  0  0  0  0  0  0
   24.6870  -18.5335  -12.9620 O   0  0  0  0  0  0  0  0  0  0  0  0
   27.2432  -16.3751  -15.5879 C   0  0  0  0  0  0  0  0  0  0  0  0
   26.0655  -17.1260  -14.9691 C   0  0  2  0  0  0  0  0  0  0  0  0
   26.6389  -18.1293  -14.0969 N   0  0  0  0  0  0  0  0  0  0  0  0
   25.1826  -17.7058  -15.9837 C   0  0  0  0  0  0  0  0  0  0  0  0
   24.1381  -17.0133  -16.5457 O   0  0  0  0  0  0  0  0  0  0  0  0
   25.3817  -18.8921  -16.3650 O   0  0  0  0  0  0  0  0  0  0  0  0
  2  1  1  0
  3  4  1  0
  3  2  1  0
  5  7  1  0
  5  4  1  0
  5  6  1  1
  7  8  2  0
 10  9  1  1
 10 11  1  0
 12 10  1  0
 12 13  1  1
 13  7  1  0
 14 12  1  0
 15 14  2  0
 17 16  1  6
 17 18  1  0
 18 14  1  0
 19 17  1  0
 19 20  1  0
 21 19  2  0
M  END
$$$$
