MVA.pdb
     RDKit          3D

 21 20  0  0  1  0  0  0  0  0999 V2000
   16.3034  -18.9737  -11.6926 C   0  0  0  0  0  0  0  0  0  0  0  0
   16.6824  -17.3133  -12.2251 S   0  0  0  0  0  0  0  0  0  0  0  0
   15.9425  -16.8129  -13.7714 C   0  0  0  0  0  0  0  0  0  0  0  0
   16.2907  -15.4302  -14.2153 C   0  0  0  0  0  0  0  0  0  0  0  0
   15.6788  -15.1050  -15.5311 C   0  0  2  0  0  0  0  0  0  0  0  0
   16.1044  -16.0678  -16.5242 N   0  0  0  0  0  0  0  0  0  0  0  0
   16.1428  -13.7535  -16.0227 C   0  0  0  0  0  0  0  0  0  0  0  0
   16.4892  -13.6190  -17.2106 O   0  0  0  0  0  0  0  0  0  0  0  0
   14.9541   -9.4625  -16.5661 C   0  0  0  0  0  0  0  0  0  0  0  0
   15.0406  -10.9476  -16.3307 C   0  0  1  0  0  0  0  0  0  0  0  0
   14.8896  -11.7517  -17.5793 C   0  0  0  0  0  0  0  0  0  0  0  0
   16.3158  -11.2816  -15.5719 C   0  0  2  0  0  0  0  0  0  0  0  0
   16.1748  -12.6626  -15.1200 N   0  0  0  0  0  0  0  0  0  0  0  0
   16.5160  -10.3873  -14.4207 C   0  0  0  0  0  0  0  0  0  0  0  0
   15.5710  -10.2073  -13.6127 O   0  0  0  0  0  0  0  0  0  0  0  0
   19.4149   -8.3974  -13.0942 C   0  0  0  0  0  0  0  0  0  0  0  0
   17.9465   -8.8155  -13.0426 C   0  0  2  0  0  0  0  0  0  0  0  0
   17.7392   -9.7041  -14.1666 N   0  0  0  0  0  0  0  0  0  0  0  0
   17.0410   -7.6645  -13.0654 C   0  0  0  0  0  0  0  0  0  0  0  0
   16.6013   -7.0400  -11.9239 O   0  0  0  0  0  0  0  0  0  0  0  0
   16.6419   -7.2196  -14.1767 O   0  0  0  0  0  0  0  0  0  0  0  0
  2  1  1  0
  3  4  1  0
  3  2  1  0
  5  7  1  0
  5  4  1  0
  5  6  1  6
  7  8  2  0
 10  9  1  6
 10 11  1  0
 12 10  1  0
 12 13  1  1
 13  7  1  0
 14 12  1  0
 15 14  2  0
 17 16  1  6
 17 18  1  0
 18 14  1  0
 19 17  1  0
 19 20  1  0
 21 19  2  0
M  END
$$$$
