MVA.pdb
     RDKit          3D

 21 20  0  0  1  0  0  0  0  0999 V2000
   26.9428  -21.2980   -9.4357 C   0  0  0  0  0  0  0  0  0  0  0  0
   25.2249  -21.1763   -8.9691 S   0  0  0  0  0  0  0  0  0  0  0  0
   24.1088  -20.6675  -10.2670 C   0  0  0  0  0  0  0  0  0  0  0  0
   24.6663  -20.7670  -11.6489 C   0  0  0  0  0  0  0  0  0  0  0  0
   23.7516  -20.1649  -12.6551 C   0  0  2  0  0  0  0  0  0  0  0  0
   22.5166  -20.9170  -12.7112 N   0  0  0  0  0  0  0  0  0  0  0  0
   24.3535  -20.2317  -14.0396 C   0  0  0  0  0  0  0  0  0  0  0  0
   23.6340  -20.5420  -15.0066 O   0  0  0  0  0  0  0  0  0  0  0  0
   26.3541  -17.4601  -15.6371 C   0  0  0  0  0  0  0  0  0  0  0  0
   27.2282  -18.6853  -15.5797 C   0  0  1  0  0  0  0  0  0  0  0  0
   28.2396  -18.6364  -14.4829 C   0  0  0  0  0  0  0  0  0  0  0  0
   26.3669  -19.9377  -15.5240 C   0  0  2  0  0  0  0  0  0  0  0  0
   25.7287  -19.9391  -14.2110 N   0  0  0  0  0  0  0  0  0  0  0  0
   27.1679  -21.1592  -15.7017 C   0  0  0  0  0  0  0  0  0  0  0  0
   27.8879  -21.5633  -14.7548 O   0  0  0  0  0  0  0  0  0  0  0  0
   27.3377  -23.8552  -18.2821 C   0  0  0  0  0  0  0  0  0  0  0  0
   27.9571  -23.1234  -17.0928 C   0  0  2  0  0  0  0  0  0  0  0  0
   27.1730  -21.9210  -16.9048 N   0  0  0  0  0  0  0  0  0  0  0  0
   29.3790  -22.8376  -17.2968 C   0  0  0  0  0  0  0  0  0  0  0  0
   30.3735  -23.7174  -16.9456 O   0  0  0  0  0  0  0  0  0  0  0  0
   29.7155  -21.7384  -17.8171 O   0  0  0  0  0  0  0  0  0  0  0  0
  2  1  1  0
  3  4  1  0
  3  2  1  0
  5  7  1  0
  5  4  1  0
  5  6  1  6
  7  8  2  0
 10  9  1  1
 10 11  1  0
 12 10  1  0
 12 13  1  1
 13  7  1  0
 14 12  1  0
 15 14  2  0
 17 16  1  6
 17 18  1  0
 18 14  1  0
 19 17  1  0
 19 20  1  0
 21 19  2  0
M  END
$$$$
