MVA.pdb
     RDKit          3D

 21 20  0  0  1  0  0  0  0  0999 V2000
   29.5566  -19.7629   -5.3352 C   0  0  0  0  0  0  0  0  0  0  0  0
   28.3009  -20.9497   -4.8897 S   0  0  0  0  0  0  0  0  0  0  0  0
   26.6148  -20.3843   -5.0522 C   0  0  0  0  0  0  0  0  0  0  0  0
   26.0893  -20.3710   -6.4500 C   0  0  0  0  0  0  0  0  0  0  0  0
   27.1117  -19.8902   -7.4170 C   0  0  2  0  0  0  0  0  0  0  0  0
   27.6026  -18.5911   -7.0101 N   0  0  0  0  0  0  0  0  0  0  0  0
   26.5104  -19.7065   -8.7911 C   0  0  0  0  0  0  0  0  0  0  0  0
   26.1764  -18.5679   -9.1669 O   0  0  0  0  0  0  0  0  0  0  0  0
   26.4772  -21.8424  -13.2150 C   0  0  0  0  0  0  0  0  0  0  0  0
   26.8309  -21.8056  -11.7514 C   0  0  1  0  0  0  0  0  0  0  0  0
   28.2987  -21.6968  -11.5027 C   0  0  0  0  0  0  0  0  0  0  0  0
   26.0375  -20.7132  -11.0509 C   0  0  2  0  0  0  0  0  0  0  0  0
   26.3379  -20.8364   -9.6275 N   0  0  0  0  0  0  0  0  0  0  0  0
   24.5912  -20.8567  -11.2800 C   0  0  0  0  0  0  0  0  0  0  0  0
   23.9653  -21.7736  -10.6919 O   0  0  0  0  0  0  0  0  0  0  0  0
   22.0255  -18.8943  -13.1987 C   0  0  0  0  0  0  0  0  0  0  0  0
   22.4126  -20.0733  -12.3077 C   0  0  2  0  0  0  0  0  0  0  0  0
   23.8493  -20.0018  -12.1440 N   0  0  0  0  0  0  0  0  0  0  0  0
   21.9765  -21.3559  -12.8644 C   0  0  0  0  0  0  0  0  0  0  0  0
   20.7785  -21.9417  -12.5356 O   0  0  0  0  0  0  0  0  0  0  0  0
   22.7263  -21.9567  -13.6823 O   0  0  0  0  0  0  0  0  0  0  0  0
  2  1  1  0
  3  4  1  0
  3  2  1  0
  5  7  1  0
  5  4  1  0
  5  6  1  1
  7  8  2  0
 10  9  1  6
 10 11  1  0
 12 10  1  0
 12 13  1  1
 13  7  1  0
 14 12  1  0
 15 14  2  0
 17 16  1  6
 17 18  1  0
 18 14  1  0
 19 17  1  0
 19 20  1  0
 21 19  2  0
M  END
$$$$
