MVA.pdb
     RDKit          3D

 21 20  0  0  1  0  0  0  0  0999 V2000
   21.7027  -13.4712    7.8757 C   0  0  0  0  0  0  0  0  0  0  0  0
   20.9099  -11.9081    7.5413 S   0  0  0  0  0  0  0  0  0  0  0  0
   19.8735  -11.8659    6.0877 C   0  0  0  0  0  0  0  0  0  0  0  0
   18.8773  -12.9745    5.9948 C   0  0  0  0  0  0  0  0  0  0  0  0
   18.1221  -12.9290    4.7145 C   0  0  2  0  0  0  0  0  0  0  0  0
   17.2060  -11.8088    4.7220 N   0  0  0  0  0  0  0  0  0  0  0  0
   17.2761  -14.1692    4.5426 C   0  0  0  0  0  0  0  0  0  0  0  0
   16.0584  -14.1207    4.7961 O   0  0  0  0  0  0  0  0  0  0  0  0
   17.0976  -18.6388    2.5017 C   0  0  0  0  0  0  0  0  0  0  0  0
   17.6536  -17.2463    2.6442 C   0  0  1  0  0  0  0  0  0  0  0  0
   17.4207  -16.3932    1.4415 C   0  0  0  0  0  0  0  0  0  0  0  0
   17.1351  -16.6064    3.9229 C   0  0  2  0  0  0  0  0  0  0  0  0
   17.8864  -15.3665    4.0954 N   0  0  0  0  0  0  0  0  0  0  0  0
   17.3265  -17.4836    5.0886 C   0  0  0  0  0  0  0  0  0  0  0  0
   18.4876  -17.6730    5.5293 O   0  0  0  0  0  0  0  0  0  0  0  0
   15.1195  -19.0587    7.6364 C   0  0  0  0  0  0  0  0  0  0  0  0
   16.4341  -19.0611    6.8582 C   0  0  2  0  0  0  0  0  0  0  0  0
   16.2534  -18.1400    5.7560 N   0  0  0  0  0  0  0  0  0  0  0  0
   16.8102  -20.4035    6.4090 C   0  0  0  0  0  0  0  0  0  0  0  0
   17.5774  -21.2546    7.1663 O   0  0  0  0  0  0  0  0  0  0  0  0
   16.4174  -20.8051    5.2792 O   0  0  0  0  0  0  0  0  0  0  0  0
  2  1  1  0
  3  4  1  0
  3  2  1  0
  5  7  1  0
  5  4  1  0
  5  6  1  1
  7  8  2  0
 10  9  1  6
 10 11  1  0
 12 10  1  0
 12 13  1  1
 13  7  1  0
 14 12  1  0
 15 14  2  0
 17 16  1  6
 17 18  1  0
 18 14  1  0
 19 17  1  0
 19 20  1  0
 21 19  2  0
M  END
$$$$
