MVA.pdb
     RDKit          3D

 21 20  0  0  1  0  0  0  0  0999 V2000
   16.9429  -13.1956   13.1990 C   0  0  0  0  0  0  0  0  0  0  0  0
   15.7217  -11.9731   12.7542 S   0  0  0  0  0  0  0  0  0  0  0  0
   16.0088  -11.1249   11.2091 C   0  0  0  0  0  0  0  0  0  0  0  0
   15.6587  -11.9097    9.9878 C   0  0  0  0  0  0  0  0  0  0  0  0
   16.0812  -11.2103    8.7453 C   0  0  2  0  0  0  0  0  0  0  0  0
   15.1878  -10.1047    8.4737 N   0  0  0  0  0  0  0  0  0  0  0  0
   15.9929  -12.1317    7.5508 C   0  0  0  0  0  0  0  0  0  0  0  0
   14.9648  -12.1294    6.8493 O   0  0  0  0  0  0  0  0  0  0  0  0
   18.4871  -14.5333    4.1684 C   0  0  0  0  0  0  0  0  0  0  0  0
   18.2939  -13.5201    5.2658 C   0  0  1  0  0  0  0  0  0  0  0  0
   18.2458  -12.1138    4.7674 C   0  0  0  0  0  0  0  0  0  0  0  0
   17.0775  -13.8844    6.1032 C   0  0  2  0  0  0  0  0  0  0  0  0
   17.0847  -12.9829    7.2515 N   0  0  0  0  0  0  0  0  0  0  0  0
   17.1250  -15.2840    6.5547 C   0  0  0  0  0  0  0  0  0  0  0  0
   18.0858  -15.6655    7.2688 O   0  0  0  0  0  0  0  0  0  0  0  0
   14.7775  -18.0977    6.8633 C   0  0  0  0  0  0  0  0  0  0  0  0
   16.2094  -17.6456    6.5822 C   0  0  2  0  0  0  0  0  0  0  0  0
   16.1282  -16.2454    6.2232 N   0  0  0  0  0  0  0  0  0  0  0  0
   16.8520  -18.4529    5.5427 C   0  0  0  0  0  0  0  0  0  0  0  0
   17.4122  -19.6815    5.7938 O   0  0  0  0  0  0  0  0  0  0  0  0
   16.8981  -18.0096    4.3622 O   0  0  0  0  0  0  0  0  0  0  0  0
  2  1  1  0
  3  4  1  0
  3  2  1  0
  5  7  1  0
  5  4  1  0
  5  6  1  6
  7  8  2  0
 10  9  1  6
 10 11  1  0
 12 10  1  0
 12 13  1  1
 13  7  1  0
 14 12  1  0
 15 14  2  0
 17 16  1  6
 17 18  1  0
 18 14  1  0
 19 17  1  0
 19 20  1  0
 21 19  2  0
M  END
$$$$
