MVA.pdb
     RDKit          3D

 21 20  0  0  1  0  0  0  0  0999 V2000
   20.3297  -21.6542   -7.7675 C   0  0  0  0  0  0  0  0  0  0  0  0
   21.1541  -20.8617   -9.1372 S   0  0  0  0  0  0  0  0  0  0  0  0
   22.9337  -21.0086   -9.1539 C   0  0  0  0  0  0  0  0  0  0  0  0
   23.6122  -20.2910  -10.2742 C   0  0  0  0  0  0  0  0  0  0  0  0
   25.0571  -20.6344  -10.3518 C   0  0  2  0  0  0  0  0  0  0  0  0
   25.7206  -20.2552   -9.1229 N   0  0  0  0  0  0  0  0  0  0  0  0
   25.7367  -19.8615  -11.4582 C   0  0  0  0  0  0  0  0  0  0  0  0
   26.0404  -18.6684  -11.2755 O   0  0  0  0  0  0  0  0  0  0  0  0
   28.6983  -20.1586  -15.2534 C   0  0  0  0  0  0  0  0  0  0  0  0
   27.9376  -20.7254  -14.0835 C   0  0  1  0  0  0  0  0  0  0  0  0
   28.7948  -20.9693  -12.8860 C   0  0  0  0  0  0  0  0  0  0  0  0
   26.7338  -19.8499  -13.7711 C   0  0  2  0  0  0  0  0  0  0  0  0
   26.0159  -20.5112  -12.6854 N   0  0  0  0  0  0  0  0  0  0  0  0
   25.8550  -19.6927  -14.9407 C   0  0  0  0  0  0  0  0  0  0  0  0
   26.1722  -18.8753  -15.8405 O   0  0  0  0  0  0  0  0  0  0  0  0
   22.9284  -21.5257  -16.3396 C   0  0  0  0  0  0  0  0  0  0  0  0
   23.7433  -20.2383  -16.2288 C   0  0  2  0  0  0  0  0  0  0  0  0
   24.6467  -20.4262  -15.1132 N   0  0  0  0  0  0  0  0  0  0  0  0
   22.8936  -19.0563  -16.0673 C   0  0  0  0  0  0  0  0  0  0  0  0
   22.8004  -18.3617  -14.8861 O   0  0  0  0  0  0  0  0  0  0  0  0
   22.2138  -18.6503  -17.0497 O   0  0  0  0  0  0  0  0  0  0  0  0
  2  1  1  0
  3  4  1  0
  3  2  1  0
  5  7  1  0
  5  4  1  0
  5  6  1  1
  7  8  2  0
 10  9  1  6
 10 11  1  0
 12 10  1  0
 12 13  1  1
 13  7  1  0
 14 12  1  0
 15 14  2  0
 17 16  1  1
 17 18  1  0
 18 14  1  0
 19 17  1  0
 19 20  1  0
 21 19  2  0
M  END
$$$$
