MVA.pdb
     RDKit          3D

 21 20  0  0  1  0  0  0  0  0999 V2000
   25.8510  -29.3180  -18.8764 C   0  0  0  0  0  0  0  0  0  0  0  0
   24.5816  -28.8434  -17.7157 S   0  0  0  0  0  0  0  0  0  0  0  0
   24.4416  -27.0910  -17.4018 C   0  0  0  0  0  0  0  0  0  0  0  0
   25.2934  -26.5834  -16.2851 C   0  0  0  0  0  0  0  0  0  0  0  0
   26.4006  -25.7254  -16.7847 C   0  0  2  0  0  0  0  0  0  0  0  0
   27.6221  -26.4967  -16.8698 N   0  0  0  0  0  0  0  0  0  0  0  0
   26.6795  -24.5915  -15.8256 C   0  0  0  0  0  0  0  0  0  0  0  0
   27.5218  -24.7457  -14.9223 O   0  0  0  0  0  0  0  0  0  0  0  0
   26.4100  -19.7290  -15.3574 C   0  0  0  0  0  0  0  0  0  0  0  0
   26.3918  -21.0268  -16.1215 C   0  0  1  0  0  0  0  0  0  0  0  0
   27.5429  -21.1735  -17.0607 C   0  0  0  0  0  0  0  0  0  0  0  0
   26.2720  -22.1974  -15.1578 C   0  0  2  0  0  0  0  0  0  0  0  0
   25.9751  -23.3715  -15.9730 N   0  0  0  0  0  0  0  0  0  0  0  0
   25.2049  -21.9822  -14.1678 C   0  0  0  0  0  0  0  0  0  0  0  0
   24.0055  -22.0342  -14.5382 O   0  0  0  0  0  0  0  0  0  0  0  0
   25.1327  -21.2144  -10.4883 C   0  0  0  0  0  0  0  0  0  0  0  0
   24.4202  -21.4497  -11.8190 C   0  0  2  0  0  0  0  0  0  0  0  0
   25.4586  -21.7146  -12.7925 N   0  0  0  0  0  0  0  0  0  0  0  0
   23.5710  -20.3192  -12.2010 C   0  0  0  0  0  0  0  0  0  0  0  0
   22.2366  -20.2493  -11.8834 O   0  0  0  0  0  0  0  0  0  0  0  0
   24.0775  -19.3629  -12.8499 O   0  0  0  0  0  0  0  0  0  0  0  0
  2  1  1  0
  3  4  1  0
  3  2  1  0
  5  7  1  0
  5  4  1  0
  5  6  1  1
  7  8  2  0
 10  9  1  1
 10 11  1  0
 12 10  1  0
 12 13  1  6
 13  7  1  0
 14 12  1  0
 15 14  2  0
 17 16  1  1
 17 18  1  0
 18 14  1  0
 19 17  1  0
 19 20  1  0
 21 19  2  0
M  END
$$$$
