WQR.pdb
     RDKit          3D

 35 36  0  0  1  0  0  0  0  0999 V2000
   24.8983  -17.9088  -19.4771 N   0  0  0  0  0  0  0  0  0  0  0  0
   23.8667  -18.8417  -19.0976 C   0  0  1  0  0  0  0  0  0  0  0  0
   24.3221  -20.2622  -19.1995 C   0  0  0  0  0  0  0  0  0  0  0  0
   24.6128  -20.6420  -20.5878 C   0  0  0  0  0  0  0  0  0  0  0  0
   25.8600  -20.8180  -21.1350 C   0  0  0  0  0  0  0  0  0  0  0  0
   25.7575  -21.1977  -22.4198 N   0  0  0  0  0  0  0  0  0  0  0  0
   24.4407  -21.2648  -22.6965 C   0  0  0  0  0  0  0  0  0  0  0  0
   23.7257  -21.5874  -23.8346 C   0  0  0  0  0  0  0  0  0  0  0  0
   22.3596  -21.5792  -23.8851 C   0  0  0  0  0  0  0  0  0  0  0  0
   21.6434  -21.2408  -22.7768 C   0  0  0  0  0  0  0  0  0  0  0  0
   22.3010  -20.9125  -21.6220 C   0  0  0  0  0  0  0  0  0  0  0  0
   23.6986  -20.9213  -21.5678 C   0  0  0  0  0  0  0  0  0  0  0  0
   23.4121  -18.4913  -17.7217 C   0  0  0  0  0  0  0  0  0  0  0  0
   24.2410  -18.3080  -16.7876 O   0  0  0  0  0  0  0  0  0  0  0  0
   17.8387  -16.0884  -16.5132 N   0  0  0  0  0  0  0  0  0  0  0  0
   17.9010  -17.4872  -16.3316 C   0  0  0  0  0  0  0  0  0  0  0  0
   16.8711  -18.1897  -16.2851 O   0  0  0  0  0  0  0  0  0  0  0  0
   19.2212  -18.1364  -16.1929 C   0  0  0  0  0  0  0  0  0  0  0  0
   20.3463  -17.1437  -16.0960 C   0  0  0  0  0  0  0  0  0  0  0  0
   21.6523  -17.9524  -16.0503 C   0  0  2  0  0  0  0  0  0  0  0  0
   22.0244  -18.3412  -17.3744 N   0  0  0  0  0  0  0  0  0  0  0  0
   21.5011  -19.1149  -15.1328 C   0  0  0  0  0  0  0  0  0  0  0  0
   20.9774  -20.1868  -15.5289 O   0  0  0  0  0  0  0  0  0  0  0  0
   25.7432  -22.6857  -11.2425 N   0  0  0  0  0  0  0  0  0  0  0  0
   26.1728  -21.3385  -11.1990 C   0  0  0  0  0  0  0  0  0  0  0  0
   27.2889  -21.0395  -11.7632 N   0  0  0  0  0  0  0  0  0  0  0  0
   25.4152  -20.3299  -10.5598 N   0  0  0  0  0  0  0  0  0  0  0  0
   24.1986  -20.6415   -9.8662 C   0  0  0  0  0  0  0  0  0  0  0  0
   23.0803  -21.0367  -10.8194 C   0  0  0  0  0  0  0  0  0  0  0  0
   22.9526  -19.9331  -11.8406 C   0  0  0  0  0  0  0  0  0  0  0  0
   21.8421  -20.1581  -12.8442 C   0  0  2  0  0  0  0  0  0  0  0  0
   21.9406  -19.0543  -13.7876 N   0  0  0  0  0  0  0  0  0  0  0  0
   20.5013  -20.2524  -12.2463 C   0  0  0  0  0  0  0  0  0  0  0  0
   19.9551  -21.4761  -11.8933 O   0  0  0  0  0  0  0  0  0  0  0  0
   19.8071  -19.2361  -12.0353 O   0  0  0  0  0  0  0  0  0  0  0  0
  2 13  1  0
  2  1  1  1
  3  2  1  0
  4 12  1  0
  4  3  1  0
  5  4  2  0
  6  5  1  0
  6  7  1  0
  7 12  2  0
  8  7  1  0
  8  9  2  0
  9 10  1  0
 10 11  2  0
 12 11  1  0
 13 14  2  0
 15 16  1  0
 16 17  2  0
 18 19  1  0
 18 16  1  0
 20 19  1  6
 20 21  1  0
 20 22  1  0
 21 13  1  0
 22 32  1  0
 23 22  2  0
 25 24  1  0
 25 26  2  0
 27 25  1  0
 28 27  1  0
 29 28  1  0
 30 29  1  0
 31 30  1  1
 31 33  1  0
 32 31  1  0
 33 34  1  0
 35 33  2  0
M  END
$$$$
