WQR.pdb
     RDKit          3D

 35 36  0  0  1  0  0  0  0  0999 V2000
   28.4493  -20.8831  -16.4033 N   0  0  0  0  0  0  0  0  0  0  0  0
   27.6325  -19.8676  -15.7866 C   0  0  1  0  0  0  0  0  0  0  0  0
   26.8440  -19.0883  -16.7899 C   0  0  0  0  0  0  0  0  0  0  0  0
   27.5983  -17.9356  -17.2981 C   0  0  0  0  0  0  0  0  0  0  0  0
   28.2586  -17.8661  -18.5001 C   0  0  0  0  0  0  0  0  0  0  0  0
   28.8128  -16.6525  -18.6597 N   0  0  0  0  0  0  0  0  0  0  0  0
   28.5069  -15.9426  -17.5563 C   0  0  0  0  0  0  0  0  0  0  0  0
   28.7972  -14.6550  -17.1458 C   0  0  0  0  0  0  0  0  0  0  0  0
   28.3768  -14.1398  -15.9513 C   0  0  0  0  0  0  0  0  0  0  0  0
   27.6355  -14.9089  -15.1059 C   0  0  0  0  0  0  0  0  0  0  0  0
   27.3188  -16.1920  -15.4626 C   0  0  0  0  0  0  0  0  0  0  0  0
   27.7470  -16.7208  -16.6846 C   0  0  0  0  0  0  0  0  0  0  0  0
   26.7614  -20.5294  -14.7739 C   0  0  0  0  0  0  0  0  0  0  0  0
   26.2258  -21.6487  -15.0055 O   0  0  0  0  0  0  0  0  0  0  0  0
   24.2552  -20.4826   -7.9661 N   0  0  0  0  0  0  0  0  0  0  0  0
   25.3415  -20.8113   -8.8060 C   0  0  0  0  0  0  0  0  0  0  0  0
   26.5080  -20.8893   -8.3704 O   0  0  0  0  0  0  0  0  0  0  0  0
   25.0903  -21.0697  -10.2390 C   0  0  0  0  0  0  0  0  0  0  0  0
   25.9520  -20.2272  -11.1381 C   0  0  0  0  0  0  0  0  0  0  0  0
   25.5871  -20.6002  -12.5836 C   0  0  2  0  0  0  0  0  0  0  0  0
   26.4794  -19.9471  -13.4892 N   0  0  0  0  0  0  0  0  0  0  0  0
   24.1595  -20.2734  -12.8504 C   0  0  0  0  0  0  0  0  0  0  0  0
   23.7487  -19.0864  -12.8037 O   0  0  0  0  0  0  0  0  0  0  0  0
   21.1780  -27.1757  -13.7407 N   0  0  0  0  0  0  0  0  0  0  0  0
   20.2724  -26.8076  -12.7181 C   0  0  0  0  0  0  0  0  0  0  0  0
   19.9788  -27.6837  -11.8239 N   0  0  0  0  0  0  0  0  0  0  0  0
   19.6923  -25.5193  -12.6578 N   0  0  0  0  0  0  0  0  0  0  0  0
   20.1009  -24.4776  -13.5558 C   0  0  0  0  0  0  0  0  0  0  0  0
   20.8340  -23.3552  -12.8361 C   0  0  0  0  0  0  0  0  0  0  0  0
   21.2259  -22.3368  -13.8785 C   0  0  0  0  0  0  0  0  0  0  0  0
   21.7871  -21.0566  -13.2980 C   0  0  2  0  0  0  0  0  0  0  0  0
   23.2184  -21.2842  -13.1650 N   0  0  0  0  0  0  0  0  0  0  0  0
   21.1733  -20.6549  -12.0228 C   0  0  0  0  0  0  0  0  0  0  0  0
   20.0664  -19.8220  -11.9877 O   0  0  0  0  0  0  0  0  0  0  0  0
   21.6258  -21.0482  -10.9275 O   0  0  0  0  0  0  0  0  0  0  0  0
  2 13  1  0
  2  1  1  6
  3  2  1  0
  4 12  1  0
  4  3  1  0
  5  4  2  0
  6  5  1  0
  6  7  1  0
  7 12  2  0
  8  7  1  0
  8  9  2  0
  9 10  1  0
 10 11  2  0
 12 11  1  0
 13 14  2  0
 15 16  1  0
 16 17  2  0
 18 19  1  0
 18 16  1  0
 20 19  1  1
 20 21  1  0
 20 22  1  0
 21 13  1  0
 22 32  1  0
 23 22  2  0
 25 24  1  0
 25 26  2  0
 27 25  1  0
 28 27  1  0
 29 28  1  0
 30 29  1  0
 31 30  1  1
 31 33  1  0
 32 31  1  0
 33 34  1  0
 35 33  2  0
M  END
$$$$
