WQR.pdb
     RDKit          3D

 35 36  0  0  1  0  0  0  0  0999 V2000
   26.6981  -22.1780   -9.2100 N   0  0  0  0  0  0  0  0  0  0  0  0
   26.6887  -20.7414   -9.3309 C   0  0  1  0  0  0  0  0  0  0  0  0
   28.0671  -20.1622   -9.3113 C   0  0  0  0  0  0  0  0  0  0  0  0
   28.8249  -20.6009   -8.1326 C   0  0  0  0  0  0  0  0  0  0  0  0
   29.8393  -21.5264   -8.1205 C   0  0  0  0  0  0  0  0  0  0  0  0
   30.3338  -21.6618   -6.8786 N   0  0  0  0  0  0  0  0  0  0  0  0
   29.6337  -20.8209   -6.0927 C   0  0  0  0  0  0  0  0  0  0  0  0
   29.6778  -20.5256   -4.7430 C   0  0  0  0  0  0  0  0  0  0  0  0
   28.8428  -19.6204   -4.1494 C   0  0  0  0  0  0  0  0  0  0  0  0
   27.9136  -18.9639   -4.8988 C   0  0  0  0  0  0  0  0  0  0  0  0
   27.8265  -19.2181   -6.2410 C   0  0  0  0  0  0  0  0  0  0  0  0
   28.6805  -20.1429   -6.8506 C   0  0  0  0  0  0  0  0  0  0  0  0
   25.9451  -20.3886  -10.5738 C   0  0  0  0  0  0  0  0  0  0  0  0
   25.8503  -19.1906  -10.9598 O   0  0  0  0  0  0  0  0  0  0  0  0
   25.6687  -20.1030  -15.6293 N   0  0  0  0  0  0  0  0  0  0  0  0
   26.7214  -20.8062  -15.0042 C   0  0  0  0  0  0  0  0  0  0  0  0
   27.9165  -20.5855  -15.2857 O   0  0  0  0  0  0  0  0  0  0  0  0
   26.3989  -21.8309  -13.9895 C   0  0  0  0  0  0  0  0  0  0  0  0
   24.9224  -21.9414  -13.7283 C   0  0  0  0  0  0  0  0  0  0  0  0
   24.5983  -20.9723  -12.5805 C   0  0  2  0  0  0  0  0  0  0  0  0
   25.2986  -21.3723  -11.4005 N   0  0  0  0  0  0  0  0  0  0  0  0
   23.1257  -20.8980  -12.3755 C   0  0  0  0  0  0  0  0  0  0  0  0
   22.4477  -21.9377  -12.1768 O   0  0  0  0  0  0  0  0  0  0  0  0
   20.0031  -15.8441  -18.2584 N   0  0  0  0  0  0  0  0  0  0  0  0
   18.8447  -16.5437  -17.8457 C   0  0  0  0  0  0  0  0  0  0  0  0
   17.7963  -16.4710  -18.5867 N   0  0  0  0  0  0  0  0  0  0  0  0
   18.8141  -17.3086  -16.6567 N   0  0  0  0  0  0  0  0  0  0  0  0
   19.9377  -17.3415  -15.7652 C   0  0  0  0  0  0  0  0  0  0  0  0
   19.7407  -18.3365  -14.6310 C   0  0  0  0  0  0  0  0  0  0  0  0
   21.0823  -18.5298  -13.9678 C   0  0  0  0  0  0  0  0  0  0  0  0
   21.0526  -19.4981  -12.8049 C   0  0  2  0  0  0  0  0  0  0  0  0
   22.4402  -19.6587  -12.3966 N   0  0  0  0  0  0  0  0  0  0  0  0
   20.4173  -20.7886  -13.1131 C   0  0  0  0  0  0  0  0  0  0  0  0
   19.2149  -21.1563  -12.5306 O   0  0  0  0  0  0  0  0  0  0  0  0
   20.9365  -21.5988  -13.9089 O   0  0  0  0  0  0  0  0  0  0  0  0
  2 13  1  0
  2  1  1  6
  3  2  1  0
  4 12  1  0
  4  3  1  0
  5  4  2  0
  6  5  1  0
  6  7  1  0
  7 12  2  0
  8  7  1  0
  8  9  2  0
  9 10  1  0
 10 11  2  0
 12 11  1  0
 13 14  2  0
 15 16  1  0
 16 17  2  0
 18 19  1  0
 18 16  1  0
 20 19  1  6
 20 21  1  0
 20 22  1  0
 21 13  1  0
 22 32  1  0
 23 22  2  0
 25 24  1  0
 25 26  2  0
 27 25  1  0
 28 27  1  0
 29 28  1  0
 30 29  1  0
 31 30  1  6
 31 33  1  0
 32 31  1  0
 33 34  1  0
 35 33  2  0
M  END
$$$$
