WQR.pdb
     RDKit          3D

 35 36  0  0  1  0  0  0  0  0999 V2000
   27.0997  -19.2327   -9.8806 N   0  0  0  0  0  0  0  0  0  0  0  0
   26.3783  -20.4327   -9.5366 C   0  0  1  0  0  0  0  0  0  0  0  0
   25.7182  -20.3330   -8.1987 C   0  0  0  0  0  0  0  0  0  0  0  0
   26.6015  -19.7164   -7.2009 C   0  0  0  0  0  0  0  0  0  0  0  0
   26.5426  -18.4173   -6.7599 C   0  0  0  0  0  0  0  0  0  0  0  0
   27.4774  -18.1998   -5.8197 N   0  0  0  0  0  0  0  0  0  0  0  0
   28.1374  -19.3631   -5.6582 C   0  0  0  0  0  0  0  0  0  0  0  0
   29.1897  -19.7527   -4.8509 C   0  0  0  0  0  0  0  0  0  0  0  0
   29.7124  -21.0159   -4.8639 C   0  0  0  0  0  0  0  0  0  0  0  0
   29.1917  -21.9552   -5.7020 C   0  0  0  0  0  0  0  0  0  0  0  0
   28.1482  -21.6233   -6.5234 C   0  0  0  0  0  0  0  0  0  0  0  0
   27.6112  -20.3318   -6.5110 C   0  0  0  0  0  0  0  0  0  0  0  0
   25.4029  -20.7127  -10.6287 C   0  0  0  0  0  0  0  0  0  0  0  0
   24.4267  -19.9423  -10.8449 O   0  0  0  0  0  0  0  0  0  0  0  0
   26.9141  -23.3496  -16.1160 N   0  0  0  0  0  0  0  0  0  0  0  0
   25.6375  -22.7758  -16.3018 C   0  0  0  0  0  0  0  0  0  0  0  0
   25.1010  -22.7181  -17.4266 O   0  0  0  0  0  0  0  0  0  0  0  0
   24.9177  -22.2291  -15.1328 C   0  0  0  0  0  0  0  0  0  0  0  0
   25.6834  -22.4008  -13.8502 C   0  0  0  0  0  0  0  0  0  0  0  0
   24.7716  -21.9059  -12.7164 C   0  0  2  0  0  0  0  0  0  0  0  0
   25.5081  -21.8579  -11.4925 N   0  0  0  0  0  0  0  0  0  0  0  0
   23.5603  -22.7663  -12.6229 C   0  0  0  0  0  0  0  0  0  0  0  0
   23.6428  -23.9578  -12.2311 O   0  0  0  0  0  0  0  0  0  0  0  0
   18.0274  -24.4889   -8.6908 N   0  0  0  0  0  0  0  0  0  0  0  0
   18.8223  -23.7720   -7.7658 C   0  0  0  0  0  0  0  0  0  0  0  0
   18.9689  -24.2609   -6.5856 N   0  0  0  0  0  0  0  0  0  0  0  0
   19.4489  -22.5502   -8.1040 N   0  0  0  0  0  0  0  0  0  0  0  0
   19.4373  -22.0571   -9.4512 C   0  0  0  0  0  0  0  0  0  0  0  0
   20.2360  -22.9454  -10.3937 C   0  0  0  0  0  0  0  0  0  0  0  0
   20.2607  -22.2617  -11.7387 C   0  0  0  0  0  0  0  0  0  0  0  0
   21.0405  -23.0188  -12.7922 C   0  0  2  0  0  0  0  0  0  0  0  0
   22.2783  -22.2744  -12.9703 N   0  0  0  0  0  0  0  0  0  0  0  0
   20.3189  -23.1977  -14.0616 C   0  0  0  0  0  0  0  0  0  0  0  0
   19.4178  -24.2357  -14.2371 O   0  0  0  0  0  0  0  0  0  0  0  0
   20.4912  -22.4231  -15.0258 O   0  0  0  0  0  0  0  0  0  0  0  0
  2 13  1  0
  2  1  1  6
  3  2  1  0
  4 12  1  0
  4  3  1  0
  5  4  2  0
  6  5  1  0
  6  7  1  0
  7 12  2  0
  8  7  1  0
  8  9  2  0
  9 10  1  0
 10 11  2  0
 12 11  1  0
 13 14  2  0
 15 16  1  0
 16 17  2  0
 18 19  1  0
 18 16  1  0
 20 19  1  6
 20 21  1  0
 20 22  1  0
 21 13  1  0
 22 32  1  0
 23 22  2  0
 25 24  1  0
 25 26  2  0
 27 25  1  0
 28 27  1  0
 29 28  1  0
 30 29  1  0
 31 30  1  1
 31 33  1  0
 32 31  1  0
 33 34  1  0
 35 33  2  0
M  END
$$$$
