WQR.pdb
     RDKit          3D

 35 36  0  0  1  0  0  0  0  0999 V2000
   23.7537  -20.3863  -11.9863 N   0  0  0  0  0  0  0  0  0  0  0  0
   25.1712  -20.1731  -11.8314 C   0  0  1  0  0  0  0  0  0  0  0  0
   25.8381  -21.2999  -11.1095 C   0  0  0  0  0  0  0  0  0  0  0  0
   26.2847  -20.8990   -9.7695 C   0  0  0  0  0  0  0  0  0  0  0  0
   25.5016  -20.3447   -8.7870 C   0  0  0  0  0  0  0  0  0  0  0  0
   26.2258  -20.1338   -7.6751 N   0  0  0  0  0  0  0  0  0  0  0  0
   27.4768  -20.5539   -7.9463 C   0  0  0  0  0  0  0  0  0  0  0  0
   28.6471  -20.5860   -7.2113 C   0  0  0  0  0  0  0  0  0  0  0  0
   29.8283  -21.0611   -7.7092 C   0  0  0  0  0  0  0  0  0  0  0  0
   29.8841  -21.5309   -8.9867 C   0  0  0  0  0  0  0  0  0  0  0  0
   28.7542  -21.5225   -9.7593 C   0  0  0  0  0  0  0  0  0  0  0  0
   27.5444  -21.0379   -9.2516 C   0  0  0  0  0  0  0  0  0  0  0  0
   25.7534  -19.9457  -13.1849 C   0  0  0  0  0  0  0  0  0  0  0  0
   25.2425  -20.4726  -14.2118 O   0  0  0  0  0  0  0  0  0  0  0  0
   27.3926  -16.5934  -17.4333 N   0  0  0  0  0  0  0  0  0  0  0  0
   26.4626  -16.1567  -16.4649 C   0  0  0  0  0  0  0  0  0  0  0  0
   25.4993  -15.4225  -16.7639 O   0  0  0  0  0  0  0  0  0  0  0  0
   26.6349  -16.5805  -15.0598 C   0  0  0  0  0  0  0  0  0  0  0  0
   27.8602  -17.4280  -14.8576 C   0  0  0  0  0  0  0  0  0  0  0  0
   27.3812  -18.8830  -14.7347 C   0  0  2  0  0  0  0  0  0  0  0  0
   26.9141  -19.1255  -13.4058 N   0  0  0  0  0  0  0  0  0  0  0  0
   28.4699  -19.8147  -15.1383 C   0  0  0  0  0  0  0  0  0  0  0  0
   29.2219  -20.3407  -14.2793 O   0  0  0  0  0  0  0  0  0  0  0  0
   24.7955  -26.4362  -16.7576 N   0  0  0  0  0  0  0  0  0  0  0  0
   26.1192  -26.8951  -16.9548 C   0  0  0  0  0  0  0  0  0  0  0  0
   26.3010  -28.1511  -17.1616 N   0  0  0  0  0  0  0  0  0  0  0  0
   27.2285  -26.0184  -16.9301 N   0  0  0  0  0  0  0  0  0  0  0  0
   27.0638  -24.6190  -16.6600 C   0  0  0  0  0  0  0  0  0  0  0  0
   28.3876  -23.8695  -16.6913 C   0  0  0  0  0  0  0  0  0  0  0  0
   28.0891  -22.4220  -16.3868 C   0  0  0  0  0  0  0  0  0  0  0  0
   29.0993  -21.4566  -16.9686 C   0  0  2  0  0  0  0  0  0  0  0  0
   28.6951  -20.1400  -16.4984 N   0  0  0  0  0  0  0  0  0  0  0  0
   29.2050  -21.5083  -18.4350 C   0  0  0  0  0  0  0  0  0  0  0  0
   30.3815  -21.8920  -19.0587 O   0  0  0  0  0  0  0  0  0  0  0  0
   28.2412  -21.2090  -19.1704 O   0  0  0  0  0  0  0  0  0  0  0  0
  2 13  1  0
  2  1  1  6
  3  2  1  0
  4 12  1  0
  4  3  1  0
  5  4  2  0
  6  5  1  0
  6  7  1  0
  7 12  2  0
  8  7  1  0
  8  9  2  0
  9 10  1  0
 10 11  2  0
 12 11  1  0
 13 14  2  0
 15 16  1  0
 16 17  2  0
 18 19  1  0
 18 16  1  0
 20 19  1  1
 20 21  1  0
 20 22  1  0
 21 13  1  0
 22 32  1  0
 23 22  2  0
 25 24  1  0
 25 26  2  0
 27 25  1  0
 28 27  1  0
 29 28  1  0
 30 29  1  0
 31 30  1  6
 31 33  1  0
 32 31  1  0
 33 34  1  0
 35 33  2  0
M  END
$$$$
