WQR.pdb
     RDKit          3D

 35 36  0  0  1  0  0  0  0  0999 V2000
   26.5114  -22.7787  -11.2876 N   0  0  0  0  0  0  0  0  0  0  0  0
   25.9711  -21.5454  -10.7721 C   0  0  1  0  0  0  0  0  0  0  0  0
   26.8600  -20.3763  -11.0528 C   0  0  0  0  0  0  0  0  0  0  0  0
   28.0347  -20.3623  -10.1720 C   0  0  0  0  0  0  0  0  0  0  0  0
   29.3012  -20.7757  -10.5047 C   0  0  0  0  0  0  0  0  0  0  0  0
   30.1397  -20.5919   -9.4711 N   0  0  0  0  0  0  0  0  0  0  0  0
   29.4080  -20.0594   -8.4731 C   0  0  0  0  0  0  0  0  0  0  0  0
   29.7081  -19.6650   -7.1827 C   0  0  0  0  0  0  0  0  0  0  0  0
   28.7782  -19.1463   -6.3254 C   0  0  0  0  0  0  0  0  0  0  0  0
   27.4872  -19.0001   -6.7351 C   0  0  0  0  0  0  0  0  0  0  0  0
   27.1347  -19.3747   -8.0037 C   0  0  0  0  0  0  0  0  0  0  0  0
   28.0848  -19.9046   -8.8828 C   0  0  0  0  0  0  0  0  0  0  0  0
   24.6054  -21.3669  -11.3427 C   0  0  0  0  0  0  0  0  0  0  0  0
   24.2855  -21.8906  -12.4456 O   0  0  0  0  0  0  0  0  0  0  0  0
   20.3554  -22.7096   -8.1655 N   0  0  0  0  0  0  0  0  0  0  0  0
   19.4957  -22.2113   -9.1685 C   0  0  0  0  0  0  0  0  0  0  0  0
   18.3493  -22.6728   -9.3392 O   0  0  0  0  0  0  0  0  0  0  0  0
   19.9663  -21.1140  -10.0391 C   0  0  0  0  0  0  0  0  0  0  0  0
   21.3631  -20.6693   -9.7050 C   0  0  0  0  0  0  0  0  0  0  0  0
   22.2029  -20.8396  -10.9808 C   0  0  2  0  0  0  0  0  0  0  0  0
   23.5808  -20.6005  -10.6857 N   0  0  0  0  0  0  0  0  0  0  0  0
   21.6844  -19.9499  -12.0558 C   0  0  0  0  0  0  0  0  0  0  0  0
   21.5998  -18.7079  -11.8819 O   0  0  0  0  0  0  0  0  0  0  0  0
   25.3754  -23.4491  -16.1604 N   0  0  0  0  0  0  0  0  0  0  0  0
   25.5645  -22.2282  -16.8496 C   0  0  0  0  0  0  0  0  0  0  0  0
   26.6724  -22.0519  -17.4780 N   0  0  0  0  0  0  0  0  0  0  0  0
   24.5790  -21.2141  -16.8632 N   0  0  0  0  0  0  0  0  0  0  0  0
   23.2635  -21.4492  -16.3410 C   0  0  0  0  0  0  0  0  0  0  0  0
   22.3917  -20.2036  -16.4011 C   0  0  0  0  0  0  0  0  0  0  0  0
   21.1125  -20.5173  -15.6648 C   0  0  0  0  0  0  0  0  0  0  0  0
   20.8836  -19.6500  -14.4456 C   0  0  2  0  0  0  0  0  0  0  0  0
   21.2703  -20.4696  -13.3068 N   0  0  0  0  0  0  0  0  0  0  0  0
   19.5081  -19.1442  -14.3172 C   0  0  0  0  0  0  0  0  0  0  0  0
   19.1039  -17.9865  -14.9626 O   0  0  0  0  0  0  0  0  0  0  0  0
   18.6560  -19.7376  -13.6237 O   0  0  0  0  0  0  0  0  0  0  0  0
  2 13  1  0
  2  1  1  6
  3  2  1  0
  4 12  1  0
  4  3  1  0
  5  4  2  0
  6  5  1  0
  6  7  1  0
  7 12  2  0
  8  7  1  0
  8  9  2  0
  9 10  1  0
 10 11  2  0
 12 11  1  0
 13 14  2  0
 15 16  1  0
 16 17  2  0
 18 19  1  0
 18 16  1  0
 20 19  1  1
 20 21  1  0
 20 22  1  0
 21 13  1  0
 22 32  1  0
 23 22  2  0
 25 24  1  0
 25 26  2  0
 27 25  1  0
 28 27  1  0
 29 28  1  0
 30 29  1  0
 31 30  1  6
 31 33  1  0
 32 31  1  0
 33 34  1  0
 35 33  2  0
M  END
$$$$
