WQR.pdb
     RDKit          3D

 35 36  0  0  1  0  0  0  0  0999 V2000
   25.1498  -18.9190  -15.1226 N   0  0  0  0  0  0  0  0  0  0  0  0
   26.0437  -20.0501  -15.1088 C   0  0  1  0  0  0  0  0  0  0  0  0
   27.4156  -19.6823  -14.6413 C   0  0  0  0  0  0  0  0  0  0  0  0
   27.9734  -18.5666  -15.4160 C   0  0  0  0  0  0  0  0  0  0  0  0
   27.9148  -17.2369  -15.0780 C   0  0  0  0  0  0  0  0  0  0  0  0
   28.5571  -16.4929  -15.9941 N   0  0  0  0  0  0  0  0  0  0  0  0
   29.0281  -17.3485  -16.9220 C   0  0  0  0  0  0  0  0  0  0  0  0
   29.7511  -17.1799  -18.0879 C   0  0  0  0  0  0  0  0  0  0  0  0
   30.1191  -18.2201  -18.8951 C   0  0  0  0  0  0  0  0  0  0  0  0
   29.7702  -19.4935  -18.5593 C   0  0  0  0  0  0  0  0  0  0  0  0
   29.0538  -19.7179  -17.4146 C   0  0  0  0  0  0  0  0  0  0  0  0
   28.6772  -18.6552  -16.5869 C   0  0  0  0  0  0  0  0  0  0  0  0
   25.4264  -21.1147  -14.2674 C   0  0  0  0  0  0  0  0  0  0  0  0
   26.1320  -21.8451  -13.5178 O   0  0  0  0  0  0  0  0  0  0  0  0
   25.4128  -19.1266  -10.1536 N   0  0  0  0  0  0  0  0  0  0  0  0
   25.0786  -20.4776   -9.9161 C   0  0  0  0  0  0  0  0  0  0  0  0
   25.0715  -20.9597   -8.7655 O   0  0  0  0  0  0  0  0  0  0  0  0
   24.7280  -21.3437  -11.0609 C   0  0  0  0  0  0  0  0  0  0  0  0
   23.6665  -20.7405  -11.9384 C   0  0  0  0  0  0  0  0  0  0  0  0
   23.3637  -21.7663  -13.0419 C   0  0  2  0  0  0  0  0  0  0  0  0
   24.0118  -21.3747  -14.2542 N   0  0  0  0  0  0  0  0  0  0  0  0
   21.8921  -21.9228  -13.2037 C   0  0  0  0  0  0  0  0  0  0  0  0
   21.1637  -20.9359  -13.4783 O   0  0  0  0  0  0  0  0  0  0  0  0
   17.6534  -29.0778  -12.5395 N   0  0  0  0  0  0  0  0  0  0  0  0
   17.5483  -28.7722  -13.9169 C   0  0  0  0  0  0  0  0  0  0  0  0
   16.8155  -29.5311  -14.6521 N   0  0  0  0  0  0  0  0  0  0  0  0
   18.2196  -27.6694  -14.4939 N   0  0  0  0  0  0  0  0  0  0  0  0
   19.1421  -26.8788  -13.7308 C   0  0  0  0  0  0  0  0  0  0  0  0
   18.5360  -25.5534  -13.2935 C   0  0  0  0  0  0  0  0  0  0  0  0
   19.6088  -24.7943  -12.5520 C   0  0  0  0  0  0  0  0  0  0  0  0
   19.8231  -23.3864  -13.0646 C   0  0  2  0  0  0  0  0  0  0  0  0
   21.2643  -23.1838  -13.0548 N   0  0  0  0  0  0  0  0  0  0  0  0
   19.1172  -22.3517  -12.2931 C   0  0  0  0  0  0  0  0  0  0  0  0
   17.9352  -21.7926  -12.7521 O   0  0  0  0  0  0  0  0  0  0  0  0
   19.5556  -21.9396  -11.1989 O   0  0  0  0  0  0  0  0  0  0  0  0
  2 13  1  0
  2  1  1  1
  3  2  1  0
  4 12  1  0
  4  3  1  0
  5  4  2  0
  6  5  1  0
  6  7  1  0
  7 12  2  0
  8  7  1  0
  8  9  2  0
  9 10  1  0
 10 11  2  0
 12 11  1  0
 13 14  2  0
 15 16  1  0
 16 17  2  0
 18 19  1  0
 18 16  1  0
 20 19  1  1
 20 21  1  0
 20 22  1  0
 21 13  1  0
 22 32  1  0
 23 22  2  0
 25 24  1  0
 25 26  2  0
 27 25  1  0
 28 27  1  0
 29 28  1  0
 30 29  1  0
 31 30  1  1
 31 33  1  0
 32 31  1  0
 33 34  1  0
 35 33  2  0
M  END
$$$$
