WQR.pdb
     RDKit          3D

 35 36  0  0  1  0  0  0  0  0999 V2000
   27.0583  -22.7355  -13.1965 N   0  0  0  0  0  0  0  0  0  0  0  0
   26.2899  -21.5594  -12.8725 C   0  0  1  0  0  0  0  0  0  0  0  0
   27.1479  -20.3429  -12.7325 C   0  0  0  0  0  0  0  0  0  0  0  0
   28.0180  -20.4237  -11.5525 C   0  0  0  0  0  0  0  0  0  0  0  0
   29.3478  -20.7663  -11.5488 C   0  0  0  0  0  0  0  0  0  0  0  0
   29.8429  -20.7052  -10.3013 N   0  0  0  0  0  0  0  0  0  0  0  0
   28.8271  -20.3228   -9.5033 C   0  0  0  0  0  0  0  0  0  0  0  0
   28.7219  -20.0968   -8.1437 C   0  0  0  0  0  0  0  0  0  0  0  0
   27.5577  -19.7130   -7.5387 C   0  0  0  0  0  0  0  0  0  0  0  0
   26.4323  -19.5378   -8.2862 C   0  0  0  0  0  0  0  0  0  0  0  0
   26.4800  -19.7479   -9.6380 C   0  0  0  0  0  0  0  0  0  0  0  0
   27.6705  -20.1395  -10.2592 C   0  0  0  0  0  0  0  0  0  0  0  0
   25.2398  -21.3931  -13.9175 C   0  0  0  0  0  0  0  0  0  0  0  0
   25.4069  -21.8373  -15.0871 O   0  0  0  0  0  0  0  0  0  0  0  0
   22.2300  -25.4460  -13.8109 N   0  0  0  0  0  0  0  0  0  0  0  0
   21.1678  -24.6685  -14.3212 C   0  0  0  0  0  0  0  0  0  0  0  0
   20.1157  -25.1901  -14.7423 O   0  0  0  0  0  0  0  0  0  0  0  0
   21.3059  -23.1977  -14.3576 C   0  0  0  0  0  0  0  0  0  0  0  0
   22.6211  -22.7266  -13.8018 C   0  0  0  0  0  0  0  0  0  0  0  0
   22.7745  -21.2522  -14.2071 C   0  0  2  0  0  0  0  0  0  0  0  0
   23.9893  -20.7281  -13.6663 N   0  0  0  0  0  0  0  0  0  0  0  0
   21.5766  -20.4781  -13.7806 C   0  0  0  0  0  0  0  0  0  0  0  0
   21.1963  -20.4841  -12.5825 O   0  0  0  0  0  0  0  0  0  0  0  0
   23.6633  -16.1726  -17.0313 N   0  0  0  0  0  0  0  0  0  0  0  0
   23.1486  -15.2209  -16.1197 C   0  0  0  0  0  0  0  0  0  0  0  0
   23.7237  -14.0728  -16.0525 N   0  0  0  0  0  0  0  0  0  0  0  0
   22.0345  -15.4990  -15.2944 N   0  0  0  0  0  0  0  0  0  0  0  0
   21.3989  -16.7851  -15.3126 C   0  0  0  0  0  0  0  0  0  0  0  0
   19.9019  -16.6812  -15.5649 C   0  0  0  0  0  0  0  0  0  0  0  0
   19.3541  -18.0870  -15.5892 C   0  0  0  0  0  0  0  0  0  0  0  0
   19.6804  -18.8891  -14.3478 C   0  0  2  0  0  0  0  0  0  0  0  0
   20.8269  -19.7110  -14.7057 N   0  0  0  0  0  0  0  0  0  0  0  0
   18.5602  -19.6980  -13.8428 C   0  0  0  0  0  0  0  0  0  0  0  0
   17.6607  -19.1859  -12.9214 O   0  0  0  0  0  0  0  0  0  0  0  0
   18.3788  -20.8730  -14.2244 O   0  0  0  0  0  0  0  0  0  0  0  0
  2 13  1  0
  2  1  1  6
  3  2  1  0
  4 12  1  0
  4  3  1  0
  5  4  2  0
  6  5  1  0
  6  7  1  0
  7 12  2  0
  8  7  1  0
  8  9  2  0
  9 10  1  0
 10 11  2  0
 12 11  1  0
 13 14  2  0
 15 16  1  0
 16 17  2  0
 18 19  1  0
 18 16  1  0
 20 19  1  1
 20 21  1  0
 20 22  1  0
 21 13  1  0
 22 32  1  0
 23 22  2  0
 25 24  1  0
 25 26  2  0
 27 25  1  0
 28 27  1  0
 29 28  1  0
 30 29  1  0
 31 30  1  6
 31 33  1  0
 32 31  1  0
 33 34  1  0
 35 33  2  0
M  END
$$$$
