WQR.pdb
     RDKit          3D

 35 36  0  0  1  0  0  0  0  0999 V2000
   26.0883  -21.9764  -11.6268 N   0  0  0  0  0  0  0  0  0  0  0  0
   25.5045  -20.9791  -10.7646 C   0  0  1  0  0  0  0  0  0  0  0  0
   26.4245  -19.8240  -10.5305 C   0  0  0  0  0  0  0  0  0  0  0  0
   27.6750  -20.2461   -9.8870 C   0  0  0  0  0  0  0  0  0  0  0  0
   28.8915  -20.4012  -10.5049 C   0  0  0  0  0  0  0  0  0  0  0  0
   29.8269  -20.7644   -9.6114 N   0  0  0  0  0  0  0  0  0  0  0  0
   29.2076  -20.8428   -8.4175 C   0  0  0  0  0  0  0  0  0  0  0  0
   29.6376  -21.1703   -7.1453 C   0  0  0  0  0  0  0  0  0  0  0  0
   28.8077  -21.1912   -6.0592 C   0  0  0  0  0  0  0  0  0  0  0  0
   27.4899  -20.8792   -6.2083 C   0  0  0  0  0  0  0  0  0  0  0  0
   27.0105  -20.5471   -7.4467 C   0  0  0  0  0  0  0  0  0  0  0  0
   27.8581  -20.5241   -8.5591 C   0  0  0  0  0  0  0  0  0  0  0  0
   24.2065  -20.5556  -11.3631 C   0  0  0  0  0  0  0  0  0  0  0  0
   24.0195  -19.3659  -11.7410 O   0  0  0  0  0  0  0  0  0  0  0  0
   22.5500  -19.8305  -16.2965 N   0  0  0  0  0  0  0  0  0  0  0  0
   21.2416  -19.8095  -15.7664 C   0  0  0  0  0  0  0  0  0  0  0  0
   20.2694  -19.4025  -16.4337 O   0  0  0  0  0  0  0  0  0  0  0  0
   21.0179  -20.2820  -14.3843 C   0  0  0  0  0  0  0  0  0  0  0  0
   22.2903  -20.7076  -13.7057 C   0  0  0  0  0  0  0  0  0  0  0  0
   21.9316  -21.0305  -12.2466 C   0  0  2  0  0  0  0  0  0  0  0  0
   23.1019  -21.4585  -11.5465 N   0  0  0  0  0  0  0  0  0  0  0  0
   20.8362  -22.0375  -12.2010 C   0  0  0  0  0  0  0  0  0  0  0  0
   20.6489  -22.8322  -13.1567 O   0  0  0  0  0  0  0  0  0  0  0  0
   16.8770  -26.7307   -6.7795 N   0  0  0  0  0  0  0  0  0  0  0  0
   17.5483  -25.9441   -5.8141 C   0  0  0  0  0  0  0  0  0  0  0  0
   17.8063  -26.4755   -4.6720 N   0  0  0  0  0  0  0  0  0  0  0  0
   17.9356  -24.6087   -6.0722 N   0  0  0  0  0  0  0  0  0  0  0  0
   17.6920  -23.9976   -7.3472 C   0  0  0  0  0  0  0  0  0  0  0  0
   18.7226  -24.4113   -8.3875 C   0  0  0  0  0  0  0  0  0  0  0  0
   19.1412  -23.1622   -9.1233 C   0  0  0  0  0  0  0  0  0  0  0  0
   19.3990  -23.3822  -10.5985 C   0  0  2  0  0  0  0  0  0  0  0  0
   19.9708  -22.1350  -11.0839 N   0  0  0  0  0  0  0  0  0  0  0  0
   18.2066  -23.7755  -11.3650 C   0  0  0  0  0  0  0  0  0  0  0  0
   17.3762  -22.8274  -11.9410 O   0  0  0  0  0  0  0  0  0  0  0  0
   17.8989  -24.9752  -11.5247 O   0  0  0  0  0  0  0  0  0  0  0  0
  2 13  1  0
  2  1  1  6
  3  2  1  0
  4 12  1  0
  4  3  1  0
  5  4  2  0
  6  5  1  0
  6  7  1  0
  7 12  2  0
  8  7  1  0
  8  9  2  0
  9 10  1  0
 10 11  2  0
 12 11  1  0
 13 14  2  0
 15 16  1  0
 16 17  2  0
 18 19  1  0
 18 16  1  0
 20 19  1  6
 20 21  1  0
 20 22  1  0
 21 13  1  0
 22 32  1  0
 23 22  2  0
 25 24  1  0
 25 26  2  0
 27 25  1  0
 28 27  1  0
 29 28  1  0
 30 29  1  0
 31 30  1  1
 31 33  1  0
 32 31  1  0
 33 34  1  0
 35 33  2  0
M  END
$$$$
