WQR.pdb
     RDKit          3D

 35 36  0  0  1  0  0  0  0  0999 V2000
   25.5451  -18.7500  -15.7194 N   0  0  0  0  0  0  0  0  0  0  0  0
   24.5186  -19.6089  -16.2554 C   0  0  1  0  0  0  0  0  0  0  0  0
   24.9991  -20.4022  -17.4282 C   0  0  0  0  0  0  0  0  0  0  0  0
   25.4386  -19.5349  -18.5284 C   0  0  0  0  0  0  0  0  0  0  0  0
   26.6288  -19.6280  -19.2071 C   0  0  0  0  0  0  0  0  0  0  0  0
   26.6889  -18.6985  -20.1755 N   0  0  0  0  0  0  0  0  0  0  0  0
   25.5338  -18.0076  -20.1166 C   0  0  0  0  0  0  0  0  0  0  0  0
   25.0263  -16.9446  -20.8400 C   0  0  0  0  0  0  0  0  0  0  0  0
   23.8027  -16.3884  -20.5903 C   0  0  0  0  0  0  0  0  0  0  0  0
   23.0256  -16.8847  -19.5874 C   0  0  0  0  0  0  0  0  0  0  0  0
   23.4794  -17.9373  -18.8392 C   0  0  0  0  0  0  0  0  0  0  0  0
   24.7306  -18.5086  -19.0937 C   0  0  0  0  0  0  0  0  0  0  0  0
   24.0218  -20.4778  -15.1506 C   0  0  0  0  0  0  0  0  0  0  0  0
   23.4845  -21.5945  -15.3901 O   0  0  0  0  0  0  0  0  0  0  0  0
   25.3856  -20.1222   -9.0186 N   0  0  0  0  0  0  0  0  0  0  0  0
   26.1516  -20.6385  -10.0864 C   0  0  0  0  0  0  0  0  0  0  0  0
   27.3727  -20.8653   -9.9688 O   0  0  0  0  0  0  0  0  0  0  0  0
   25.4894  -20.9175  -11.3776 C   0  0  0  0  0  0  0  0  0  0  0  0
   24.0361  -20.5320  -11.3772 C   0  0  0  0  0  0  0  0  0  0  0  0
   23.4771  -20.8972  -12.7613 C   0  0  2  0  0  0  0  0  0  0  0  0
   24.1207  -20.1079  -13.7641 N   0  0  0  0  0  0  0  0  0  0  0  0
   21.9967  -20.7408  -12.7716 C   0  0  0  0  0  0  0  0  0  0  0  0
   21.4676  -19.6079  -12.8997 O   0  0  0  0  0  0  0  0  0  0  0  0
   21.3505  -27.2349  -13.5264 N   0  0  0  0  0  0  0  0  0  0  0  0
   20.3748  -27.1968  -14.5502 C   0  0  0  0  0  0  0  0  0  0  0  0
   20.5439  -27.9516  -15.5774 N   0  0  0  0  0  0  0  0  0  0  0  0
   19.2366  -26.3613  -14.4709 N   0  0  0  0  0  0  0  0  0  0  0  0
   19.0462  -25.4680  -13.3645 C   0  0  0  0  0  0  0  0  0  0  0  0
   19.4492  -24.0406  -13.7042 C   0  0  0  0  0  0  0  0  0  0  0  0
   19.1979  -23.2008  -12.4760 C   0  0  0  0  0  0  0  0  0  0  0  0
   19.6841  -21.7732  -12.6048 C   0  0  2  0  0  0  0  0  0  0  0  0
   21.1366  -21.8582  -12.6383 N   0  0  0  0  0  0  0  0  0  0  0  0
   19.2102  -20.8781  -11.5378 C   0  0  0  0  0  0  0  0  0  0  0  0
   18.1273  -20.0358  -11.7331 O   0  0  0  0  0  0  0  0  0  0  0  0
   19.7646  -20.8439  -10.4195 O   0  0  0  0  0  0  0  0  0  0  0  0
  2 13  1  0
  2  1  1  1
  3  2  1  0
  4 12  1  0
  4  3  1  0
  5  4  2  0
  6  5  1  0
  6  7  1  0
  7 12  2  0
  8  7  1  0
  8  9  2  0
  9 10  1  0
 10 11  2  0
 12 11  1  0
 13 14  2  0
 15 16  1  0
 16 17  2  0
 18 19  1  0
 18 16  1  0
 20 19  1  1
 20 21  1  0
 20 22  1  0
 21 13  1  0
 22 32  1  0
 23 22  2  0
 25 24  1  0
 25 26  2  0
 27 25  1  0
 28 27  1  0
 29 28  1  0
 30 29  1  0
 31 30  1  1
 31 33  1  0
 32 31  1  0
 33 34  1  0
 35 33  2  0
M  END
$$$$
