QGR.pdb
     RDKit          3D

 25 24  0  0  1  0  0  0  0  0999 V2000
    3.7165  -20.6590   14.7279 N   0  0  0  0  0  0  0  0  0  0  0  0
    4.9471  -20.0569   15.0321 C   0  0  0  0  0  0  0  0  0  0  0  0
    5.7591  -19.8886   14.0646 O   0  0  0  0  0  0  0  0  0  0  0  0
    5.3553  -19.6093   16.3646 C   0  0  0  0  0  0  0  0  0  0  0  0
    4.3875  -19.8141   17.4574 C   0  0  0  0  0  0  0  0  0  0  0  0
    4.6158  -19.0044   18.7002 C   0  0  2  0  0  0  0  0  0  0  0  0
    5.9954  -18.4536   18.6213 N   0  0  0  0  0  0  0  0  0  0  0  0
    4.4856  -19.7047   19.9605 C   0  0  0  0  0  0  0  0  0  0  0  0
    3.4106  -20.1935   20.3386 O   0  0  0  0  0  0  0  0  0  0  0  0
    5.6421  -19.8427   20.7957 N   0  0  0  0  0  0  0  0  0  0  0  0
    5.4882  -20.5522   22.0210 C   0  0  0  0  0  0  0  0  0  0  0  0
    6.0331  -19.8820   23.2204 C   0  0  0  0  0  0  0  0  0  0  0  0
    6.4642  -18.7005   23.0424 O   0  0  0  0  0  0  0  0  0  0  0  0
    5.5683  -24.2264   30.3586 N   0  0  0  0  0  0  0  0  0  0  0  0
    6.4978  -24.5635   29.3361 C   0  0  0  0  0  0  0  0  0  0  0  0
    7.0854  -25.7148   29.4534 N   0  0  0  0  0  0  0  0  0  0  0  0
    6.7572  -23.6934   28.2663 N   0  0  0  0  0  0  0  0  0  0  0  0
    6.1746  -22.3167   28.3214 C   0  0  0  0  0  0  0  0  0  0  0  0
    6.6411  -21.5665   27.1499 C   0  0  0  0  0  0  0  0  0  0  0  0
    6.3195  -20.1668   26.8909 C   0  0  0  0  0  0  0  0  0  0  0  0
    6.7155  -19.5541   25.6139 C   0  0  2  0  0  0  0  0  0  0  0  0
    6.1195  -20.4099   24.5123 N   0  0  0  0  0  0  0  0  0  0  0  0
    8.1786  -19.6811   25.3592 C   0  0  0  0  0  0  0  0  0  0  0  0
    8.9369  -18.9174   26.0792 O   0  0  0  0  0  0  0  0  0  0  0  0
    8.7747  -20.5004   24.4732 O   0  0  0  0  0  0  0  0  0  0  0  0
  2  3  2  0
  2  1  1  0
  4  2  1  0
  5  4  1  0
  6  5  1  0
  6  7  1  6
  8  9  2  0
  8  6  1  0
 10  8  1  0
 11 12  1  0
 11 10  1  0
 12 22  1  0
 13 12  2  0
 15 14  1  0
 16 15  2  0
 17 15  1  0
 18 17  1  0
 19 18  1  0
 20 19  1  0
 21 22  1  0
 21 20  1  1
 23 21  1  0
 24 23  2  0
 25 23  1  0
M  END
$$$$
