QGR.pdb
     RDKit          3D

 25 24  0  0  1  0  0  0  0  0999 V2000
    7.9760  -15.4308   17.3658 N   0  0  0  0  0  0  0  0  0  0  0  0
    8.0946  -14.0405   17.2153 C   0  0  0  0  0  0  0  0  0  0  0  0
    8.6225  -13.6228   16.1333 O   0  0  0  0  0  0  0  0  0  0  0  0
    7.6551  -13.0498   18.1989 C   0  0  0  0  0  0  0  0  0  0  0  0
    6.9999  -13.5677   19.4134 C   0  0  0  0  0  0  0  0  0  0  0  0
    7.8221  -14.4928   20.2623 C   0  0  2  0  0  0  0  0  0  0  0  0
    7.1921  -15.8383   20.1870 N   0  0  0  0  0  0  0  0  0  0  0  0
    7.9559  -14.1396   21.6599 C   0  0  0  0  0  0  0  0  0  0  0  0
    8.7692  -13.2904   22.0534 O   0  0  0  0  0  0  0  0  0  0  0  0
    7.1134  -14.7902   22.6195 N   0  0  0  0  0  0  0  0  0  0  0  0
    7.2602  -14.4151   23.9856 C   0  0  0  0  0  0  0  0  0  0  0  0
    7.7811  -15.4663   24.8846 C   0  0  0  0  0  0  0  0  0  0  0  0
    7.7419  -15.1981   26.1256 O   0  0  0  0  0  0  0  0  0  0  0  0
    5.8232  -20.9264   21.6283 N   0  0  0  0  0  0  0  0  0  0  0  0
    5.1016  -21.2191   22.8186 C   0  0  0  0  0  0  0  0  0  0  0  0
    3.8250  -21.4088   22.6823 N   0  0  0  0  0  0  0  0  0  0  0  0
    5.7436  -21.2960   24.0639 N   0  0  0  0  0  0  0  0  0  0  0  0
    7.2046  -20.9801   24.1235 C   0  0  0  0  0  0  0  0  0  0  0  0
    7.3746  -19.6880   24.7976 C   0  0  0  0  0  0  0  0  0  0  0  0
    8.6619  -19.0305   24.9979 C   0  0  0  0  0  0  0  0  0  0  0  0
    8.7071  -17.6882   25.5971 C   0  0  2  0  0  0  0  0  0  0  0  0
    8.3039  -16.7084   24.5116 N   0  0  0  0  0  0  0  0  0  0  0  0
   10.0997  -17.2594   25.9115 C   0  0  0  0  0  0  0  0  0  0  0  0
   10.5507  -17.6366   27.0652 O   0  0  0  0  0  0  0  0  0  0  0  0
   10.9177  -16.5361   25.1247 O   0  0  0  0  0  0  0  0  0  0  0  0
  2  3  2  0
  2  1  1  0
  4  2  1  0
  5  4  1  0
  6  5  1  0
  6  7  1  1
  8  9  2  0
  8  6  1  0
 10  8  1  0
 11 12  1  0
 11 10  1  0
 12 22  1  0
 13 12  2  0
 15 14  1  0
 16 15  2  0
 17 15  1  0
 18 17  1  0
 19 18  1  0
 20 19  1  0
 21 22  1  0
 21 20  1  6
 23 21  1  0
 24 23  2  0
 25 23  1  0
M  END
$$$$
