QGR.pdb
     RDKit          3D

 25 24  0  0  1  0  0  0  0  0999 V2000
    9.3363  -20.7809   14.6791 N   0  0  0  0  0  0  0  0  0  0  0  0
   10.5909  -20.2122   14.9477 C   0  0  0  0  0  0  0  0  0  0  0  0
   11.5643  -20.5995   14.2222 O   0  0  0  0  0  0  0  0  0  0  0  0
   10.8548  -19.2143   15.9854 C   0  0  0  0  0  0  0  0  0  0  0  0
   12.2689  -18.9538   16.3095 C   0  0  0  0  0  0  0  0  0  0  0  0
   12.5215  -17.9629   17.4080 C   0  0  2  0  0  0  0  0  0  0  0  0
   13.9884  -17.9412   17.6544 N   0  0  0  0  0  0  0  0  0  0  0  0
   11.8599  -18.2154   18.6707 C   0  0  0  0  0  0  0  0  0  0  0  0
   10.6391  -18.0597   18.8214 O   0  0  0  0  0  0  0  0  0  0  0  0
   12.6440  -18.6676   19.7819 N   0  0  0  0  0  0  0  0  0  0  0  0
   11.9491  -19.0576   20.9624 C   0  0  0  0  0  0  0  0  0  0  0  0
   11.7182  -17.9844   21.9520 C   0  0  0  0  0  0  0  0  0  0  0  0
   12.7322  -17.2770   22.2434 O   0  0  0  0  0  0  0  0  0  0  0  0
    8.1981  -11.9397   20.3993 N   0  0  0  0  0  0  0  0  0  0  0  0
    7.7490  -13.0945   19.7008 C   0  0  0  0  0  0  0  0  0  0  0  0
    7.0359  -12.8795   18.6379 N   0  0  0  0  0  0  0  0  0  0  0  0
    8.0646  -14.3877   20.1445 N   0  0  0  0  0  0  0  0  0  0  0  0
    8.9608  -14.5246   21.3344 C   0  0  0  0  0  0  0  0  0  0  0  0
    8.4065  -15.5558   22.2187 C   0  0  0  0  0  0  0  0  0  0  0  0
    9.0349  -15.9961   23.4601 C   0  0  0  0  0  0  0  0  0  0  0  0
   10.4411  -16.4265   23.4501 C   0  0  2  0  0  0  0  0  0  0  0  0
   10.5131  -17.6736   22.5895 N   0  0  0  0  0  0  0  0  0  0  0  0
   10.8838  -16.9321   24.7806 C   0  0  0  0  0  0  0  0  0  0  0  0
   10.7802  -18.2114   24.9520 O   0  0  0  0  0  0  0  0  0  0  0  0
   11.3749  -16.2011   25.7984 O   0  0  0  0  0  0  0  0  0  0  0  0
  2  3  2  0
  2  1  1  0
  4  2  1  0
  5  4  1  0
  6  5  1  0
  6  7  1  1
  8  9  2  0
  8  6  1  0
 10  8  1  0
 11 12  1  0
 11 10  1  0
 12 22  1  0
 13 12  2  0
 15 14  1  0
 16 15  2  0
 17 15  1  0
 18 17  1  0
 19 18  1  0
 20 19  1  0
 21 22  1  0
 21 20  1  1
 23 21  1  0
 24 23  2  0
 25 23  1  0
M  END
$$$$
