QGR.pdb
     RDKit          3D

 25 24  0  0  1  0  0  0  0  0999 V2000
    9.1845  -11.8116   19.4232 N   0  0  0  0  0  0  0  0  0  0  0  0
    8.4335  -12.9603   19.1298 C   0  0  0  0  0  0  0  0  0  0  0  0
    8.2367  -13.2188   17.8977 O   0  0  0  0  0  0  0  0  0  0  0  0
    7.8726  -13.8731   20.1270 C   0  0  0  0  0  0  0  0  0  0  0  0
    7.0627  -14.9943   19.6174 C   0  0  0  0  0  0  0  0  0  0  0  0
    6.7410  -16.0774   20.6052 C   0  0  2  0  0  0  0  0  0  0  0  0
    5.8775  -15.4746   21.6559 N   0  0  0  0  0  0  0  0  0  0  0  0
    7.8667  -16.7096   21.2602 C   0  0  0  0  0  0  0  0  0  0  0  0
    7.7981  -17.1490   22.4177 O   0  0  0  0  0  0  0  0  0  0  0  0
    9.1002  -16.8371   20.5418 N   0  0  0  0  0  0  0  0  0  0  0  0
   10.0863  -17.7142   21.0776 C   0  0  0  0  0  0  0  0  0  0  0  0
   10.8069  -17.2149   22.2675 C   0  0  0  0  0  0  0  0  0  0  0  0
   11.4820  -16.1526   22.0964 O   0  0  0  0  0  0  0  0  0  0  0  0
    9.2770  -14.2746   27.7843 N   0  0  0  0  0  0  0  0  0  0  0  0
    9.8929  -14.8098   28.9494 C   0  0  0  0  0  0  0  0  0  0  0  0
   10.1804  -13.9596   29.8869 N   0  0  0  0  0  0  0  0  0  0  0  0
   10.1695  -16.1803   29.0677 N   0  0  0  0  0  0  0  0  0  0  0  0
    9.9598  -17.0471   27.8666 C   0  0  0  0  0  0  0  0  0  0  0  0
   11.1966  -17.0564   27.0773 C   0  0  0  0  0  0  0  0  0  0  0  0
   11.3946  -17.8553   25.8722 C   0  0  0  0  0  0  0  0  0  0  0  0
   11.7249  -17.1881   24.6039 C   0  0  2  0  0  0  0  0  0  0  0  0
   10.8190  -17.7856   23.5440 N   0  0  0  0  0  0  0  0  0  0  0  0
   13.0811  -17.5596   24.1097 C   0  0  0  0  0  0  0  0  0  0  0  0
   13.1472  -18.6717   23.4497 O   0  0  0  0  0  0  0  0  0  0  0  0
   14.2195  -16.8613   24.2769 O   0  0  0  0  0  0  0  0  0  0  0  0
  2  3  2  0
  2  1  1  0
  4  2  1  0
  5  4  1  0
  6  5  1  0
  6  7  1  1
  8  9  2  0
  8  6  1  0
 10  8  1  0
 11 12  1  0
 11 10  1  0
 12 22  1  0
 13 12  2  0
 15 14  1  0
 16 15  2  0
 17 15  1  0
 18 17  1  0
 19 18  1  0
 20 19  1  0
 21 22  1  0
 21 20  1  1
 23 21  1  0
 24 23  2  0
 25 23  1  0
M  END
$$$$
