QGR.pdb
     RDKit          3D

 25 24  0  0  1  0  0  0  0  0999 V2000
    4.5941  -24.8979   20.8864 N   0  0  0  0  0  0  0  0  0  0  0  0
    5.5943  -24.0333   20.4157 C   0  0  0  0  0  0  0  0  0  0  0  0
    6.0261  -24.2431   19.2353 O   0  0  0  0  0  0  0  0  0  0  0  0
    6.1645  -22.9187   21.1738 C   0  0  0  0  0  0  0  0  0  0  0  0
    5.7969  -22.8299   22.5984 C   0  0  0  0  0  0  0  0  0  0  0  0
    4.7516  -21.8110   22.9471 C   0  0  2  0  0  0  0  0  0  0  0  0
    4.3325  -21.1564   21.6787 N   0  0  0  0  0  0  0  0  0  0  0  0
    5.1454  -20.7734   23.8766 C   0  0  0  0  0  0  0  0  0  0  0  0
    5.5858  -21.0293   25.0071 O   0  0  0  0  0  0  0  0  0  0  0  0
    5.0277  -19.4036   23.4717 N   0  0  0  0  0  0  0  0  0  0  0  0
    5.5623  -18.4116   24.3427 C   0  0  0  0  0  0  0  0  0  0  0  0
    7.0205  -18.1921   24.2429 C   0  0  0  0  0  0  0  0  0  0  0  0
    7.6847  -19.1387   23.7173 O   0  0  0  0  0  0  0  0  0  0  0  0
    6.5592  -13.7130   20.9930 N   0  0  0  0  0  0  0  0  0  0  0  0
    7.7353  -13.2756   20.3233 C   0  0  0  0  0  0  0  0  0  0  0  0
    7.5643  -12.4069   19.3743 N   0  0  0  0  0  0  0  0  0  0  0  0
    9.0031  -13.7621   20.6766 N   0  0  0  0  0  0  0  0  0  0  0  0
    9.0954  -15.1475   21.2334 C   0  0  0  0  0  0  0  0  0  0  0  0
    8.6108  -15.1260   22.6182 C   0  0  0  0  0  0  0  0  0  0  0  0
    9.3895  -15.5776   23.7668 C   0  0  0  0  0  0  0  0  0  0  0  0
    9.1959  -16.9400   24.2859 C   0  0  2  0  0  0  0  0  0  0  0  0
    7.7315  -17.0633   24.6617 N   0  0  0  0  0  0  0  0  0  0  0  0
    9.8787  -17.1452   25.5949 C   0  0  0  0  0  0  0  0  0  0  0  0
    9.1423  -16.9532   26.6425 O   0  0  0  0  0  0  0  0  0  0  0  0
   11.1605  -17.5079   25.7876 O   0  0  0  0  0  0  0  0  0  0  0  0
  2  3  2  0
  2  1  1  0
  4  2  1  0
  5  4  1  0
  6  5  1  0
  6  7  1  6
  8  9  2  0
  8  6  1  0
 10  8  1  0
 11 12  1  0
 11 10  1  0
 12 22  1  0
 13 12  2  0
 15 14  1  0
 16 15  2  0
 17 15  1  0
 18 17  1  0
 19 18  1  0
 20 19  1  0
 21 22  1  0
 21 20  1  1
 23 21  1  0
 24 23  2  0
 25 23  1  0
M  END
$$$$
