QGR.pdb
     RDKit          3D

 25 24  0  0  1  0  0  0  0  0999 V2000
    8.3779  -14.8655   20.3752 N   0  0  0  0  0  0  0  0  0  0  0  0
    7.3256  -14.3184   19.6248 C   0  0  0  0  0  0  0  0  0  0  0  0
    6.1663  -14.8110   19.8172 O   0  0  0  0  0  0  0  0  0  0  0  0
    7.4641  -13.2322   18.6536 C   0  0  0  0  0  0  0  0  0  0  0  0
    8.7990  -12.6193   18.5314 C   0  0  0  0  0  0  0  0  0  0  0  0
    9.8493  -13.4553   17.8603 C   0  0  2  0  0  0  0  0  0  0  0  0
    9.1754  -14.6732   17.3354 N   0  0  0  0  0  0  0  0  0  0  0  0
   10.9612  -13.8798   18.6845 C   0  0  0  0  0  0  0  0  0  0  0  0
   11.7080  -13.0719   19.2564 O   0  0  0  0  0  0  0  0  0  0  0  0
   11.2013  -15.2831   18.8493 N   0  0  0  0  0  0  0  0  0  0  0  0
   12.1931  -15.6747   19.7935 C   0  0  0  0  0  0  0  0  0  0  0  0
   11.7363  -15.7749   21.1957 C   0  0  0  0  0  0  0  0  0  0  0  0
   12.6527  -15.9134   22.0643 O   0  0  0  0  0  0  0  0  0  0  0  0
    5.1713  -12.2342   26.2659 N   0  0  0  0  0  0  0  0  0  0  0  0
    6.3162  -12.7663   26.9211 C   0  0  0  0  0  0  0  0  0  0  0  0
    6.6569  -12.1929   28.0344 N   0  0  0  0  0  0  0  0  0  0  0  0
    7.0291  -13.8496   26.3852 N   0  0  0  0  0  0  0  0  0  0  0  0
    7.4806  -13.7602   24.9618 C   0  0  0  0  0  0  0  0  0  0  0  0
    8.1683  -15.0083   24.6123 C   0  0  0  0  0  0  0  0  0  0  0  0
    8.7154  -15.3011   23.2915 C   0  0  0  0  0  0  0  0  0  0  0  0
   10.1632  -15.5055   23.1334 C   0  0  2  0  0  0  0  0  0  0  0  0
   10.4164  -15.7323   21.6550 N   0  0  0  0  0  0  0  0  0  0  0  0
   10.6186  -16.7909   23.7351 C   0  0  0  0  0  0  0  0  0  0  0  0
   10.3690  -17.8517   23.0356 O   0  0  0  0  0  0  0  0  0  0  0  0
   11.2554  -16.9503   24.9100 O   0  0  0  0  0  0  0  0  0  0  0  0
  2  3  2  0
  2  1  1  0
  4  2  1  0
  5  4  1  0
  6  5  1  0
  6  7  1  1
  8  9  2  0
  8  6  1  0
 10  8  1  0
 11 12  1  0
 11 10  1  0
 12 22  1  0
 13 12  2  0
 15 14  1  0
 16 15  2  0
 17 15  1  0
 18 17  1  0
 19 18  1  0
 20 19  1  0
 21 22  1  0
 21 20  1  6
 23 21  1  0
 24 23  2  0
 25 23  1  0
M  END
$$$$
