QGR.pdb
     RDKit          3D

 25 24  0  0  1  0  0  0  0  0999 V2000
    9.2126  -13.2305   16.4883 N   0  0  0  0  0  0  0  0  0  0  0  0
    7.9021  -13.6415   16.1999 C   0  0  0  0  0  0  0  0  0  0  0  0
    7.6514  -13.9546   14.9904 O   0  0  0  0  0  0  0  0  0  0  0  0
    6.8190  -13.7396   17.1794 C   0  0  0  0  0  0  0  0  0  0  0  0
    7.2135  -13.8192   18.5974 C   0  0  0  0  0  0  0  0  0  0  0  0
    8.5346  -14.4735   18.8782 C   0  0  2  0  0  0  0  0  0  0  0  0
    8.7348  -15.5255   17.8457 N   0  0  0  0  0  0  0  0  0  0  0  0
    8.6867  -15.0897   20.1794 C   0  0  0  0  0  0  0  0  0  0  0  0
    8.3882  -14.5019   21.2295 O   0  0  0  0  0  0  0  0  0  0  0  0
    9.1937  -16.4282   20.2537 N   0  0  0  0  0  0  0  0  0  0  0  0
    9.3403  -17.0056   21.5475 C   0  0  0  0  0  0  0  0  0  0  0  0
   10.5354  -16.5797   22.3057 C   0  0  0  0  0  0  0  0  0  0  0  0
   11.4652  -16.0546   21.6178 O   0  0  0  0  0  0  0  0  0  0  0  0
    9.2491  -15.3810   28.9103 N   0  0  0  0  0  0  0  0  0  0  0  0
   10.4746  -14.7239   29.2097 C   0  0  0  0  0  0  0  0  0  0  0  0
   10.7354  -14.5444   30.4683 N   0  0  0  0  0  0  0  0  0  0  0  0
   11.3444  -14.2983   28.1943 N   0  0  0  0  0  0  0  0  0  0  0  0
   10.9736  -14.6007   26.7769 C   0  0  0  0  0  0  0  0  0  0  0  0
   11.0889  -16.0479   26.5641 C   0  0  0  0  0  0  0  0  0  0  0  0
   12.0700  -16.6715   25.6819 C   0  0  0  0  0  0  0  0  0  0  0  0
   12.0948  -16.3153   24.2552 C   0  0  2  0  0  0  0  0  0  0  0  0
   10.7416  -16.6943   23.6840 N   0  0  0  0  0  0  0  0  0  0  0  0
   13.0234  -17.1821   23.4753 C   0  0  0  0  0  0  0  0  0  0  0  0
   14.2433  -16.7562   23.3915 O   0  0  0  0  0  0  0  0  0  0  0  0
   12.7217  -18.3438   22.8662 O   0  0  0  0  0  0  0  0  0  0  0  0
  2  3  2  0
  2  1  1  0
  4  2  1  0
  5  4  1  0
  6  5  1  0
  6  7  1  6
  8  9  2  0
  8  6  1  0
 10  8  1  0
 11 12  1  0
 11 10  1  0
 12 22  1  0
 13 12  2  0
 15 14  1  0
 16 15  2  0
 17 15  1  0
 18 17  1  0
 19 18  1  0
 20 19  1  0
 21 22  1  0
 21 20  1  1
 23 21  1  0
 24 23  2  0
 25 23  1  0
M  END
$$$$
