QGR.pdb
     RDKit          3D

 25 24  0  0  1  0  0  0  0  0999 V2000
    7.4388  -12.6303   13.5367 N   0  0  0  0  0  0  0  0  0  0  0  0
    8.2005  -13.8085   13.5054 C   0  0  0  0  0  0  0  0  0  0  0  0
    9.2539  -13.7927   12.7886 O   0  0  0  0  0  0  0  0  0  0  0  0
    7.8768  -15.0362   14.2337 C   0  0  0  0  0  0  0  0  0  0  0  0
    7.5343  -14.8896   15.6598 C   0  0  0  0  0  0  0  0  0  0  0  0
    8.6784  -14.5962   16.5856 C   0  0  2  0  0  0  0  0  0  0  0  0
    9.9319  -14.7341   15.7964 N   0  0  0  0  0  0  0  0  0  0  0  0
    8.7934  -15.4381   17.7577 C   0  0  0  0  0  0  0  0  0  0  0  0
    7.8491  -15.6144   18.5417 O   0  0  0  0  0  0  0  0  0  0  0  0
   10.0408  -16.0951   18.0154 N   0  0  0  0  0  0  0  0  0  0  0  0
   10.1116  -16.9506   19.1519 C   0  0  0  0  0  0  0  0  0  0  0  0
   10.6599  -16.3378   20.3801 C   0  0  0  0  0  0  0  0  0  0  0  0
   11.1748  -15.1854   20.2373 O   0  0  0  0  0  0  0  0  0  0  0  0
    6.3994  -18.9545   25.2421 N   0  0  0  0  0  0  0  0  0  0  0  0
    6.5778  -17.5672   24.9834 C   0  0  0  0  0  0  0  0  0  0  0  0
    5.8622  -17.0672   24.0231 N   0  0  0  0  0  0  0  0  0  0  0  0
    7.4789  -16.7930   25.7301 N   0  0  0  0  0  0  0  0  0  0  0  0
    8.9300  -17.1521   25.6742 C   0  0  0  0  0  0  0  0  0  0  0  0
    9.5213  -16.5182   24.4904 C   0  0  0  0  0  0  0  0  0  0  0  0
   10.8957  -16.7291   24.0474 C   0  0  0  0  0  0  0  0  0  0  0  0
   11.3522  -16.1302   22.7841 C   0  0  2  0  0  0  0  0  0  0  0  0
   10.6676  -16.8907   21.6644 N   0  0  0  0  0  0  0  0  0  0  0  0
   12.7934  -16.4046   22.5203 C   0  0  0  0  0  0  0  0  0  0  0  0
   13.0368  -17.4471   21.7919 O   0  0  0  0  0  0  0  0  0  0  0  0
   13.8440  -15.6843   22.9547 O   0  0  0  0  0  0  0  0  0  0  0  0
  2  3  2  0
  2  1  1  0
  4  2  1  0
  5  4  1  0
  6  5  1  0
  6  7  1  6
  8  9  2  0
  8  6  1  0
 10  8  1  0
 11 12  1  0
 11 10  1  0
 12 22  1  0
 13 12  2  0
 15 14  1  0
 16 15  2  0
 17 15  1  0
 18 17  1  0
 19 18  1  0
 20 19  1  0
 21 22  1  0
 21 20  1  1
 23 21  1  0
 24 23  2  0
 25 23  1  0
M  END
$$$$
