QGR.pdb
     RDKit          3D

 25 24  0  0  1  0  0  0  0  0999 V2000
    7.1587  -22.8954   16.6521 N   0  0  0  0  0  0  0  0  0  0  0  0
    6.0765  -22.1046   16.2362 C   0  0  0  0  0  0  0  0  0  0  0  0
    5.6171  -22.3278   15.0687 O   0  0  0  0  0  0  0  0  0  0  0  0
    5.4433  -21.0591   17.0413 C   0  0  0  0  0  0  0  0  0  0  0  0
    5.9394  -20.8925   18.4192 C   0  0  0  0  0  0  0  0  0  0  0  0
    7.1677  -20.0452   18.5796 C   0  0  2  0  0  0  0  0  0  0  0  0
    8.3211  -20.8403   18.0793 N   0  0  0  0  0  0  0  0  0  0  0  0
    7.4778  -19.6046   19.9233 C   0  0  0  0  0  0  0  0  0  0  0  0
    6.7510  -18.8163   20.5461 O   0  0  0  0  0  0  0  0  0  0  0  0
    8.6629  -20.1033   20.5565 N   0  0  0  0  0  0  0  0  0  0  0  0
    8.8969  -19.7218   21.9086 C   0  0  0  0  0  0  0  0  0  0  0  0
    9.7916  -18.5609   22.0994 C   0  0  0  0  0  0  0  0  0  0  0  0
   10.6912  -18.4084   21.2156 O   0  0  0  0  0  0  0  0  0  0  0  0
    7.7655  -12.8119   17.9774 N   0  0  0  0  0  0  0  0  0  0  0  0
    8.0598  -12.8201   19.3689 C   0  0  0  0  0  0  0  0  0  0  0  0
    8.8078  -11.8518   19.8017 N   0  0  0  0  0  0  0  0  0  0  0  0
    7.5645  -13.8229   20.2163 N   0  0  0  0  0  0  0  0  0  0  0  0
    8.0455  -13.8487   21.6326 C   0  0  0  0  0  0  0  0  0  0  0  0
    9.0310  -14.9270   21.7701 C   0  0  0  0  0  0  0  0  0  0  0  0
    9.7468  -15.2314   23.0049 C   0  0  0  0  0  0  0  0  0  0  0  0
   10.6368  -16.4009   23.0597 C   0  0  2  0  0  0  0  0  0  0  0  0
    9.7471  -17.6270   23.1391 N   0  0  0  0  0  0  0  0  0  0  0  0
   11.3926  -16.4726   24.3425 C   0  0  0  0  0  0  0  0  0  0  0  0
   12.3853  -15.6483   24.4500 O   0  0  0  0  0  0  0  0  0  0  0  0
   11.1437  -17.2929   25.3802 O   0  0  0  0  0  0  0  0  0  0  0  0
  2  3  2  0
  2  1  1  0
  4  2  1  0
  5  4  1  0
  6  5  1  0
  6  7  1  1
  8  9  2  0
  8  6  1  0
 10  8  1  0
 11 12  1  0
 11 10  1  0
 12 22  1  0
 13 12  2  0
 15 14  1  0
 16 15  2  0
 17 15  1  0
 18 17  1  0
 19 18  1  0
 20 19  1  0
 21 22  1  0
 21 20  1  1
 23 21  1  0
 24 23  2  0
 25 23  1  0
M  END
$$$$
