QGR.pdb
     RDKit          3D

 25 24  0  0  1  0  0  0  0  0999 V2000
    6.0967  -14.9041   20.4345 N   0  0  0  0  0  0  0  0  0  0  0  0
    6.7445  -13.7051   20.7698 C   0  0  0  0  0  0  0  0  0  0  0  0
    6.4685  -13.2018   21.9074 O   0  0  0  0  0  0  0  0  0  0  0  0
    7.7066  -13.0048   19.9176 C   0  0  0  0  0  0  0  0  0  0  0  0
    8.2340  -13.7517   18.7615 C   0  0  0  0  0  0  0  0  0  0  0  0
    9.7248  -13.9148   18.7067 C   0  0  2  0  0  0  0  0  0  0  0  0
   10.0395  -14.6888   17.4759 N   0  0  0  0  0  0  0  0  0  0  0  0
   10.3427  -14.5892   19.8289 C   0  0  0  0  0  0  0  0  0  0  0  0
   10.3836  -14.0877   20.9621 O   0  0  0  0  0  0  0  0  0  0  0  0
   10.9206  -15.8843   19.6222 N   0  0  0  0  0  0  0  0  0  0  0  0
   10.4814  -16.9435   20.4672 C   0  0  0  0  0  0  0  0  0  0  0  0
   10.7333  -16.7552   21.9114 C   0  0  0  0  0  0  0  0  0  0  0  0
   11.9490  -16.5918   22.2412 O   0  0  0  0  0  0  0  0  0  0  0  0
    5.3583  -12.6975   26.8524 N   0  0  0  0  0  0  0  0  0  0  0  0
    6.4895  -12.0387   26.2962 C   0  0  0  0  0  0  0  0  0  0  0  0
    6.4828  -10.7422   26.3541 N   0  0  0  0  0  0  0  0  0  0  0  0
    7.5467  -12.7593   25.7201 N   0  0  0  0  0  0  0  0  0  0  0  0
    7.5535  -14.2468   25.8785 C   0  0  0  0  0  0  0  0  0  0  0  0
    8.7637  -14.7775   25.2408 C   0  0  0  0  0  0  0  0  0  0  0  0
    9.0994  -16.1960   25.1712 C   0  0  0  0  0  0  0  0  0  0  0  0
   10.2553  -16.6311   24.3727 C   0  0  2  0  0  0  0  0  0  0  0  0
    9.7816  -16.7381   22.9356 N   0  0  0  0  0  0  0  0  0  0  0  0
   10.6557  -18.0334   24.6810 C   0  0  0  0  0  0  0  0  0  0  0  0
   10.0718  -18.9469   23.9731 O   0  0  0  0  0  0  0  0  0  0  0  0
   11.5514  -18.4320   25.6031 O   0  0  0  0  0  0  0  0  0  0  0  0
  2  3  2  0
  2  1  1  0
  4  2  1  0
  5  4  1  0
  6  5  1  0
  6  7  1  6
  8  9  2  0
  8  6  1  0
 10  8  1  0
 11 12  1  0
 11 10  1  0
 12 22  1  0
 13 12  2  0
 15 14  1  0
 16 15  2  0
 17 15  1  0
 18 17  1  0
 19 18  1  0
 20 19  1  0
 21 22  1  0
 21 20  1  1
 23 21  1  0
 24 23  2  0
 25 23  1  0
M  END
$$$$
