QGR.pdb
     RDKit          3D

 25 24  0  0  1  0  0  0  0  0999 V2000
   10.1544  -14.3492   16.6774 N   0  0  0  0  0  0  0  0  0  0  0  0
    8.9538  -15.0704   16.7668 C   0  0  0  0  0  0  0  0  0  0  0  0
    8.9133  -16.1948   16.1686 O   0  0  0  0  0  0  0  0  0  0  0  0
    7.7627  -14.6296   17.4942 C   0  0  0  0  0  0  0  0  0  0  0  0
    7.7706  -13.2457   18.0013 C   0  0  0  0  0  0  0  0  0  0  0  0
    8.6885  -12.9723   19.1567 C   0  0  2  0  0  0  0  0  0  0  0  0
   10.0160  -13.5484   18.8120 N   0  0  0  0  0  0  0  0  0  0  0  0
    8.2883  -13.5085   20.4406 C   0  0  0  0  0  0  0  0  0  0  0  0
    7.1506  -13.3390   20.9036 O   0  0  0  0  0  0  0  0  0  0  0  0
    9.2396  -14.2670   21.1981 N   0  0  0  0  0  0  0  0  0  0  0  0
    8.7985  -14.8369   22.4266 C   0  0  0  0  0  0  0  0  0  0  0  0
    9.8116  -15.6146   23.1705 C   0  0  0  0  0  0  0  0  0  0  0  0
   10.9796  -15.6164   22.6713 O   0  0  0  0  0  0  0  0  0  0  0  0
   13.2344  -21.7545   29.3736 N   0  0  0  0  0  0  0  0  0  0  0  0
   12.3311  -20.6727   29.5658 C   0  0  0  0  0  0  0  0  0  0  0  0
   11.4600  -20.8163   30.5170 N   0  0  0  0  0  0  0  0  0  0  0  0
   12.3876  -19.5207   28.7667 N   0  0  0  0  0  0  0  0  0  0  0  0
   11.1436  -19.0989   28.0509 C   0  0  0  0  0  0  0  0  0  0  0  0
   11.4344  -17.8768   27.2926 C   0  0  0  0  0  0  0  0  0  0  0  0
   10.4793  -17.2106   26.4130 C   0  0  0  0  0  0  0  0  0  0  0  0
   10.8048  -17.0304   24.9901 C   0  0  2  0  0  0  0  0  0  0  0  0
    9.6163  -16.3370   24.3517 N   0  0  0  0  0  0  0  0  0  0  0  0
   10.8496  -18.3264   24.2551 C   0  0  0  0  0  0  0  0  0  0  0  0
   12.0109  -18.8969   24.2039 O   0  0  0  0  0  0  0  0  0  0  0  0
    9.8182  -18.9494   23.6555 O   0  0  0  0  0  0  0  0  0  0  0  0
  2  3  2  0
  2  1  1  0
  4  2  1  0
  5  4  1  0
  6  5  1  0
  6  7  1  6
  8  9  2  0
  8  6  1  0
 10  8  1  0
 11 12  1  0
 11 10  1  0
 12 22  1  0
 13 12  2  0
 15 14  1  0
 16 15  2  0
 17 15  1  0
 18 17  1  0
 19 18  1  0
 20 19  1  0
 21 22  1  0
 21 20  1  1
 23 21  1  0
 24 23  2  0
 25 23  1  0
M  END
$$$$
