WNQ.pdb
     RDKit          3D

 32 33  0  0  1  0  0  0  0  0999 V2000
    7.5880  -17.7620   24.1751 N   0  0  0  0  0  0  0  0  0  0  0  0
    7.6342  -16.8534   23.0484 C   0  0  1  0  0  0  0  0  0  0  0  0
    8.1788  -15.5464   23.5175 C   0  0  0  0  0  0  0  0  0  0  0  0
    7.3183  -14.9785   24.6015 C   0  0  0  0  0  0  0  0  0  0  0  0
    6.4392  -15.6149   25.4516 C   0  0  0  0  0  0  0  0  0  0  0  0
    5.8593  -14.7219   26.2886 N   0  0  0  0  0  0  0  0  0  0  0  0
    6.3390  -13.5033   26.0079 C   0  0  0  0  0  0  0  0  0  0  0  0
    6.0884  -12.2654   26.5496 C   0  0  0  0  0  0  0  0  0  0  0  0
    6.7233  -11.1275   26.0794 C   0  0  0  0  0  0  0  0  0  0  0  0
    7.6166  -11.2726   25.0492 C   0  0  0  0  0  0  0  0  0  0  0  0
    7.8688  -12.5110   24.5054 C   0  0  0  0  0  0  0  0  0  0  0  0
    7.2401  -13.6300   24.9728 C   0  0  0  0  0  0  0  0  0  0  0  0
    8.3044  -17.4660   21.9234 C   0  0  0  0  0  0  0  0  0  0  0  0
    7.6834  -17.5906   20.8335 O   0  0  0  0  0  0  0  0  0  0  0  0
   10.1620  -17.8955   18.7767 N   0  0  0  0  0  0  0  0  0  0  0  0
   10.2477  -16.5764   19.2230 C   0  0  0  0  0  0  0  0  0  0  0  0
   10.0007  -15.6590   18.3735 O   0  0  0  0  0  0  0  0  0  0  0  0
   10.5946  -16.1203   20.5777 C   0  0  0  0  0  0  0  0  0  0  0  0
   10.8043  -17.2324   21.5605 C   0  0  2  0  0  0  0  0  0  0  0  0
    9.6360  -17.9601   21.9127 N   0  0  0  0  0  0  0  0  0  0  0  0
   11.5796  -16.7524   22.7407 C   0  0  0  0  0  0  0  0  0  0  0  0
   12.5889  -16.0117   22.6193 O   0  0  0  0  0  0  0  0  0  0  0  0
    9.0838  -15.3791   28.2729 N   0  0  0  0  0  0  0  0  0  0  0  0
   10.4262  -14.9700   28.4199 C   0  0  0  0  0  0  0  0  0  0  0  0
   10.7754  -14.4191   29.4874 O   0  0  0  0  0  0  0  0  0  0  0  0
   11.3795  -15.1962   27.3231 C   0  0  0  0  0  0  0  0  0  0  0  0
   10.7933  -15.8140   26.0885 C   0  0  0  0  0  0  0  0  0  0  0  0
   11.8326  -16.4445   25.2428 C   0  0  2  0  0  0  0  0  0  0  0  0
   11.2212  -17.1051   24.0714 N   0  0  0  0  0  0  0  0  0  0  0  0
   12.4975  -17.5472   25.9759 C   0  0  0  0  0  0  0  0  0  0  0  0
   12.2427  -18.7724   25.7820 O   0  0  0  0  0  0  0  0  0  0  0  0
   13.4562  -17.2326   26.9267 O   0  0  0  0  0  0  0  0  0  0  0  0
  2  1  1  1
  2 13  1  0
  2  3  1  0
  3  4  1  0
  4 12  1  0
  4  5  2  0
  5  6  1  0
  7  8  2  0
  7  6  1  0
  9  8  1  0
 10  9  2  0
 11 10  1  0
 11 12  2  0
 12  7  1  0
 13 20  1  0
 13 14  2  0
 15 16  1  0
 16 18  1  0
 17 16  2  0
 19 18  1  1
 20 19  1  0
 21 22  2  0
 21 19  1  0
 23 24  1  0
 24 26  1  0
 25 24  2  0
 27 26  1  0
 28 27  1  1
 28 29  1  0
 29 21  1  0
 30 28  1  0
 30 32  1  0
 31 30  2  0
M  END
$$$$
