WNQ.pdb
     RDKit          3D

 32 33  0  0  1  0  0  0  0  0999 V2000
    7.0285  -17.5656   24.1218 N   0  0  0  0  0  0  0  0  0  0  0  0
    8.0297  -16.6329   23.6478 C   0  0  1  0  0  0  0  0  0  0  0  0
    8.5794  -15.8934   24.8207 C   0  0  0  0  0  0  0  0  0  0  0  0
    7.4892  -15.1600   25.5361 C   0  0  0  0  0  0  0  0  0  0  0  0
    6.4578  -15.6510   26.3078 C   0  0  0  0  0  0  0  0  0  0  0  0
    5.6889  -14.6371   26.7715 N   0  0  0  0  0  0  0  0  0  0  0  0
    6.1930  -13.4812   26.3200 C   0  0  0  0  0  0  0  0  0  0  0  0
    5.8032  -12.1747   26.4916 C   0  0  0  0  0  0  0  0  0  0  0  0
    6.5020  -11.1286   25.9118 C   0  0  0  0  0  0  0  0  0  0  0  0
    7.6035  -11.4365   25.1552 C   0  0  0  0  0  0  0  0  0  0  0  0
    7.9954  -12.7440   24.9821 C   0  0  0  0  0  0  0  0  0  0  0  0
    7.3027  -13.7719   25.5562 C   0  0  0  0  0  0  0  0  0  0  0  0
    8.9896  -17.3002   22.7973 C   0  0  0  0  0  0  0  0  0  0  0  0
    8.6466  -18.3524   22.1937 O   0  0  0  0  0  0  0  0  0  0  0  0
   10.9618  -17.7130   17.8470 N   0  0  0  0  0  0  0  0  0  0  0  0
   11.2463  -16.8454   18.9020 C   0  0  0  0  0  0  0  0  0  0  0  0
   12.3232  -16.1684   18.8224 O   0  0  0  0  0  0  0  0  0  0  0  0
   10.4350  -16.6215   20.1082 C   0  0  0  0  0  0  0  0  0  0  0  0
   11.0801  -17.0988   21.3742 C   0  0  2  0  0  0  0  0  0  0  0  0
   10.3261  -16.8828   22.5589 N   0  0  0  0  0  0  0  0  0  0  0  0
   12.4837  -16.6038   21.4688 C   0  0  0  0  0  0  0  0  0  0  0  0
   13.3266  -16.8106   20.5584 O   0  0  0  0  0  0  0  0  0  0  0  0
   13.4982  -18.4275   26.7187 N   0  0  0  0  0  0  0  0  0  0  0  0
   12.4530  -17.6588   26.1640 C   0  0  0  0  0  0  0  0  0  0  0  0
   11.3332  -17.6717   26.7215 O   0  0  0  0  0  0  0  0  0  0  0  0
   12.6990  -16.8657   24.9501 C   0  0  0  0  0  0  0  0  0  0  0  0
   14.1278  -16.8262   24.4952 C   0  0  0  0  0  0  0  0  0  0  0  0
   14.2725  -16.1262   23.1983 C   0  0  2  0  0  0  0  0  0  0  0  0
   12.9490  -15.8690   22.5944 N   0  0  0  0  0  0  0  0  0  0  0  0
   14.9580  -16.9965   22.2143 C   0  0  0  0  0  0  0  0  0  0  0  0
   14.3868  -17.4925   21.1987 O   0  0  0  0  0  0  0  0  0  0  0  0
   16.3001  -17.2879   22.4034 O   0  0  0  0  0  0  0  0  0  0  0  0
  2  1  1  1
  2 13  1  0
  2  3  1  0
  3  4  1  0
  4 12  1  0
  4  5  2  0
  5  6  1  0
  7  8  2  0
  7  6  1  0
  9  8  1  0
 10  9  2  0
 11 10  1  0
 11 12  2  0
 12  7  1  0
 13 20  1  0
 13 14  2  0
 15 16  1  0
 16 18  1  0
 17 16  2  0
 19 18  1  6
 20 19  1  0
 21 22  2  0
 21 19  1  0
 23 24  1  0
 24 26  1  0
 25 24  2  0
 27 26  1  0
 28 27  1  1
 28 29  1  0
 29 21  1  0
 30 28  1  0
 30 32  1  0
 31 30  2  0
M  END
$$$$
