WNQ.pdb
     RDKit          3D

 32 33  0  0  1  0  0  0  0  0999 V2000
    6.7937  -17.6244   23.7716 N   0  0  0  0  0  0  0  0  0  0  0  0
    7.8977  -16.7024   23.6037 C   0  0  1  0  0  0  0  0  0  0  0  0
    8.3420  -16.2468   24.9527 C   0  0  0  0  0  0  0  0  0  0  0  0
    7.3315  -15.3213   25.5528 C   0  0  0  0  0  0  0  0  0  0  0  0
    6.2030  -15.6094   26.2905 C   0  0  0  0  0  0  0  0  0  0  0  0
    5.5625  -14.4688   26.6415 N   0  0  0  0  0  0  0  0  0  0  0  0
    6.2473  -13.4285   26.1487 C   0  0  0  0  0  0  0  0  0  0  0  0
    6.0378  -12.0719   26.2130 C   0  0  0  0  0  0  0  0  0  0  0  0
    6.9061  -11.1759   25.6111 C   0  0  0  0  0  0  0  0  0  0  0  0
    7.9901  -11.6857   24.9435 C   0  0  0  0  0  0  0  0  0  0  0  0
    8.2016  -13.0436   24.8779 C   0  0  0  0  0  0  0  0  0  0  0  0
    7.3423  -13.9228   25.4733 C   0  0  0  0  0  0  0  0  0  0  0  0
    8.9139  -17.2707   22.7467 C   0  0  0  0  0  0  0  0  0  0  0  0
    9.0652  -18.5219   22.7219 O   0  0  0  0  0  0  0  0  0  0  0  0
   11.6587  -18.3792   18.0920 N   0  0  0  0  0  0  0  0  0  0  0  0
   11.7736  -17.1532   18.7481 C   0  0  0  0  0  0  0  0  0  0  0  0
   12.8484  -16.4940   18.5623 O   0  0  0  0  0  0  0  0  0  0  0  0
   10.7838  -16.5293   19.6394 C   0  0  0  0  0  0  0  0  0  0  0  0
   10.7710  -17.0947   21.0275 C   0  0  2  0  0  0  0  0  0  0  0  0
    9.7920  -16.5452   21.8981 N   0  0  0  0  0  0  0  0  0  0  0  0
   12.1446  -17.0950   21.6083 C   0  0  0  0  0  0  0  0  0  0  0  0
   13.1071  -17.6762   21.0444 O   0  0  0  0  0  0  0  0  0  0  0  0
   12.4855  -20.9014   25.8444 N   0  0  0  0  0  0  0  0  0  0  0  0
   11.9338  -19.6675   26.2494 C   0  0  0  0  0  0  0  0  0  0  0  0
   10.9505  -19.6712   27.0227 O   0  0  0  0  0  0  0  0  0  0  0  0
   12.5203  -18.4121   25.7565 C   0  0  0  0  0  0  0  0  0  0  0  0
   12.7746  -18.3661   24.2790 C   0  0  0  0  0  0  0  0  0  0  0  0
   13.3154  -17.0545   23.8548 C   0  0  2  0  0  0  0  0  0  0  0  0
   12.4445  -16.4373   22.8335 N   0  0  0  0  0  0  0  0  0  0  0  0
   14.6156  -17.2292   23.1661 C   0  0  0  0  0  0  0  0  0  0  0  0
   14.7822  -17.0446   21.9244 O   0  0  0  0  0  0  0  0  0  0  0  0
   15.7192  -17.6122   23.9128 O   0  0  0  0  0  0  0  0  0  0  0  0
  2  1  1  1
  2 13  1  0
  2  3  1  0
  3  4  1  0
  4 12  1  0
  4  5  2  0
  5  6  1  0
  7  8  2  0
  7  6  1  0
  9  8  1  0
 10  9  2  0
 11 10  1  0
 11 12  2  0
 12  7  1  0
 13 20  1  0
 13 14  2  0
 15 16  1  0
 16 18  1  0
 17 16  2  0
 19 18  1  6
 20 19  1  0
 21 22  2  0
 21 19  1  0
 23 24  1  0
 24 26  1  0
 25 24  2  0
 27 26  1  0
 28 27  1  6
 28 29  1  0
 29 21  1  0
 30 28  1  0
 30 32  1  0
 31 30  2  0
M  END
$$$$
