WNQ.pdb
     RDKit          3D

 32 33  0  0  1  0  0  0  0  0999 V2000
    7.7249  -16.8553   22.9693 N   0  0  0  0  0  0  0  0  0  0  0  0
    8.9450  -16.4568   23.6398 C   0  0  1  0  0  0  0  0  0  0  0  0
    8.6051  -16.0395   25.0308 C   0  0  0  0  0  0  0  0  0  0  0  0
    7.4935  -15.0384   25.0211 C   0  0  0  0  0  0  0  0  0  0  0  0
    6.2713  -15.0865   24.3852 C   0  0  0  0  0  0  0  0  0  0  0  0
    5.5597  -13.9628   24.6406 N   0  0  0  0  0  0  0  0  0  0  0  0
    6.2897  -13.1695   25.4354 C   0  0  0  0  0  0  0  0  0  0  0  0
    6.0430  -11.9340   25.9841 C   0  0  0  0  0  0  0  0  0  0  0  0
    6.9736  -11.3020   26.7925 C   0  0  0  0  0  0  0  0  0  0  0  0
    8.1582  -11.9499   27.0318 C   0  0  0  0  0  0  0  0  0  0  0  0
    8.4072  -13.1870   26.4833 C   0  0  0  0  0  0  0  0  0  0  0  0
    7.4860  -13.8059   25.6869 C   0  0  0  0  0  0  0  0  0  0  0  0
    9.9617  -17.4753   23.5013 C   0  0  0  0  0  0  0  0  0  0  0  0
    9.6176  -18.6879   23.4938 O   0  0  0  0  0  0  0  0  0  0  0  0
   12.0498  -17.0496   20.9991 N   0  0  0  0  0  0  0  0  0  0  0  0
   13.2743  -17.5503   21.4424 C   0  0  0  0  0  0  0  0  0  0  0  0
   14.2618  -17.4615   20.6416 O   0  0  0  0  0  0  0  0  0  0  0  0
   13.5571  -18.1755   22.7433 C   0  0  0  0  0  0  0  0  0  0  0  0
   12.3964  -18.1622   23.6915 C   0  0  2  0  0  0  0  0  0  0  0  0
   11.3575  -17.2490   23.3671 N   0  0  0  0  0  0  0  0  0  0  0  0
   12.8694  -18.0425   25.1008 C   0  0  0  0  0  0  0  0  0  0  0  0
   13.1842  -16.9348   25.6068 O   0  0  0  0  0  0  0  0  0  0  0  0
    9.1189  -19.1706   28.7511 N   0  0  0  0  0  0  0  0  0  0  0  0
   10.0414  -20.2372   28.7034 C   0  0  0  0  0  0  0  0  0  0  0  0
    9.8216  -21.2562   29.3950 O   0  0  0  0  0  0  0  0  0  0  0  0
   11.2341  -20.1294   27.8497 C   0  0  0  0  0  0  0  0  0  0  0  0
   12.2127  -19.0677   28.2556 C   0  0  0  0  0  0  0  0  0  0  0  0
   13.3974  -19.0436   27.3676 C   0  0  2  0  0  0  0  0  0  0  0  0
   12.9913  -19.1747   25.9532 N   0  0  0  0  0  0  0  0  0  0  0  0
   14.2514  -20.2296   27.6119 C   0  0  0  0  0  0  0  0  0  0  0  0
   14.5185  -21.0959   26.7276 O   0  0  0  0  0  0  0  0  0  0  0  0
   14.7970  -20.4095   28.8736 O   0  0  0  0  0  0  0  0  0  0  0  0
  2  1  1  1
  2 13  1  0
  2  3  1  0
  3  4  1  0
  4 12  1  0
  4  5  2  0
  5  6  1  0
  7  8  2  0
  7  6  1  0
  9  8  1  0
 10  9  2  0
 11 10  1  0
 11 12  2  0
 12  7  1  0
 13 20  1  0
 13 14  2  0
 15 16  1  0
 16 18  1  0
 17 16  2  0
 19 18  1  6
 20 19  1  0
 21 22  2  0
 21 19  1  0
 23 24  1  0
 24 26  1  0
 25 24  2  0
 27 26  1  0
 28 27  1  1
 28 29  1  0
 29 21  1  0
 30 28  1  0
 30 32  1  0
 31 30  2  0
M  END
$$$$
