WNQ.pdb
     RDKit          3D

 32 33  0  0  1  0  0  0  0  0999 V2000
    7.0964  -17.8570   24.7717 N   0  0  0  0  0  0  0  0  0  0  0  0
    7.9964  -17.0279   23.9973 C   0  0  1  0  0  0  0  0  0  0  0  0
    8.5725  -15.9875   24.8975 C   0  0  0  0  0  0  0  0  0  0  0  0
    7.4827  -15.2095   25.5647 C   0  0  0  0  0  0  0  0  0  0  0  0
    6.3095  -15.6520   26.1376 C   0  0  0  0  0  0  0  0  0  0  0  0
    5.6006  -14.6090   26.6315 N   0  0  0  0  0  0  0  0  0  0  0  0
    6.2840  -13.4815   26.3957 C   0  0  0  0  0  0  0  0  0  0  0  0
    6.0198  -12.1644   26.6851 C   0  0  0  0  0  0  0  0  0  0  0  0
    6.9002  -11.1548   26.3322 C   0  0  0  0  0  0  0  0  0  0  0  0
    8.0532  -11.5102   25.6803 C   0  0  0  0  0  0  0  0  0  0  0  0
    8.3196  -12.8284   25.3896 C   0  0  0  0  0  0  0  0  0  0  0  0
    7.4480  -13.8201   25.7398 C   0  0  0  0  0  0  0  0  0  0  0  0
    8.9397  -17.8419   23.2642 C   0  0  0  0  0  0  0  0  0  0  0  0
    9.2353  -18.9852   23.7051 O   0  0  0  0  0  0  0  0  0  0  0  0
   12.0361  -18.9685   18.0139 N   0  0  0  0  0  0  0  0  0  0  0  0
   11.3616  -19.2082   19.2115 C   0  0  0  0  0  0  0  0  0  0  0  0
   11.5950  -20.3157   19.7975 O   0  0  0  0  0  0  0  0  0  0  0  0
   10.4015  -18.3176   19.8811 C   0  0  0  0  0  0  0  0  0  0  0  0
   10.5773  -18.2385   21.3676 C   0  0  2  0  0  0  0  0  0  0  0  0
    9.5931  -17.4797   22.0561 N   0  0  0  0  0  0  0  0  0  0  0  0
   11.9741  -17.8455   21.7122 C   0  0  0  0  0  0  0  0  0  0  0  0
   12.6930  -17.1790   20.9243 O   0  0  0  0  0  0  0  0  0  0  0  0
   15.9257  -14.5770   21.6569 N   0  0  0  0  0  0  0  0  0  0  0  0
   16.4146  -15.4517   22.6502 C   0  0  0  0  0  0  0  0  0  0  0  0
   17.6195  -15.7868   22.6189 O   0  0  0  0  0  0  0  0  0  0  0  0
   15.5046  -15.9492   23.6929 C   0  0  0  0  0  0  0  0  0  0  0  0
   14.1481  -16.3659   23.2070 C   0  0  0  0  0  0  0  0  0  0  0  0
   13.9658  -17.8338   23.2782 C   0  0  2  0  0  0  0  0  0  0  0  0
   12.5727  -18.2022   22.9523 N   0  0  0  0  0  0  0  0  0  0  0  0
   14.1523  -18.3115   24.6683 C   0  0  0  0  0  0  0  0  0  0  0  0
   13.1947  -18.5808   25.4520 O   0  0  0  0  0  0  0  0  0  0  0  0
   15.4421  -18.4804   25.1476 O   0  0  0  0  0  0  0  0  0  0  0  0
  2  1  1  1
  2 13  1  0
  2  3  1  0
  3  4  1  0
  4 12  1  0
  4  5  2  0
  5  6  1  0
  7  8  2  0
  7  6  1  0
  9  8  1  0
 10  9  2  0
 11 10  1  0
 11 12  2  0
 12  7  1  0
 13 20  1  0
 13 14  2  0
 15 16  1  0
 16 18  1  0
 17 16  2  0
 19 18  1  6
 20 19  1  0
 21 22  2  0
 21 19  1  0
 23 24  1  0
 24 26  1  0
 25 24  2  0
 27 26  1  0
 28 27  1  1
 28 29  1  0
 29 21  1  0
 30 28  1  0
 30 32  1  0
 31 30  2  0
M  END
$$$$
