WNQ.pdb
     RDKit          3D

 32 33  0  0  1  0  0  0  0  0999 V2000
    6.3026  -14.6438   22.5891 N   0  0  0  0  0  0  0  0  0  0  0  0
    7.5869  -15.1637   23.0102 C   0  0  1  0  0  0  0  0  0  0  0  0
    7.3615  -16.1457   24.1100 C   0  0  0  0  0  0  0  0  0  0  0  0
    7.0401  -15.4373   25.3879 C   0  0  0  0  0  0  0  0  0  0  0  0
    6.8803  -15.9452   26.6595 C   0  0  0  0  0  0  0  0  0  0  0  0
    6.5923  -14.9517   27.5337 N   0  0  0  0  0  0  0  0  0  0  0  0
    6.5582  -13.7927   26.8631 C   0  0  0  0  0  0  0  0  0  0  0  0
    6.3157  -12.5010   27.2644 C   0  0  0  0  0  0  0  0  0  0  0  0
    6.3372  -11.4474   26.3653 C   0  0  0  0  0  0  0  0  0  0  0  0
    6.6098  -11.7326   25.0520 C   0  0  0  0  0  0  0  0  0  0  0  0
    6.8529  -13.0252   24.6481 C   0  0  0  0  0  0  0  0  0  0  0  0
    6.8305  -14.0605   25.5389 C   0  0  0  0  0  0  0  0  0  0  0  0
    8.3482  -15.6307   21.8734 C   0  0  0  0  0  0  0  0  0  0  0  0
    8.8544  -16.7847   21.9069 O   0  0  0  0  0  0  0  0  0  0  0  0
    7.5918  -12.7487   17.9936 N   0  0  0  0  0  0  0  0  0  0  0  0
    8.2316  -13.9882   17.9622 C   0  0  0  0  0  0  0  0  0  0  0  0
    7.6005  -14.9535   17.4200 O   0  0  0  0  0  0  0  0  0  0  0  0
    9.5664  -14.3097   18.4897 C   0  0  0  0  0  0  0  0  0  0  0  0
    9.5490  -15.2263   19.6756 C   0  0  2  0  0  0  0  0  0  0  0  0
    8.5959  -14.9036   20.6787 N   0  0  0  0  0  0  0  0  0  0  0  0
   10.9273  -15.4205   20.2109 C   0  0  0  0  0  0  0  0  0  0  0  0
   11.5707  -14.4849   20.7520 O   0  0  0  0  0  0  0  0  0  0  0  0
   10.7439  -17.6719   25.0475 N   0  0  0  0  0  0  0  0  0  0  0  0
   12.0878  -18.0561   24.8547 C   0  0  0  0  0  0  0  0  0  0  0  0
   12.7209  -18.5407   25.8187 O   0  0  0  0  0  0  0  0  0  0  0  0
   12.7126  -17.8787   23.5351 C   0  0  0  0  0  0  0  0  0  0  0  0
   11.8204  -17.2893   22.4834 C   0  0  0  0  0  0  0  0  0  0  0  0
   12.5282  -17.1208   21.1936 C   0  0  2  0  0  0  0  0  0  0  0  0
   11.5929  -16.6757   20.1402 N   0  0  0  0  0  0  0  0  0  0  0  0
   13.0312  -18.4260   20.7051 C   0  0  0  0  0  0  0  0  0  0  0  0
   12.3938  -19.1665   19.8994 O   0  0  0  0  0  0  0  0  0  0  0  0
   14.2689  -18.8701   21.1444 O   0  0  0  0  0  0  0  0  0  0  0  0
  2  1  1  6
  2 13  1  0
  2  3  1  0
  3  4  1  0
  4 12  1  0
  4  5  2  0
  5  6  1  0
  7  8  2  0
  7  6  1  0
  9  8  1  0
 10  9  2  0
 11 10  1  0
 11 12  2  0
 12  7  1  0
 13 20  1  0
 13 14  2  0
 15 16  1  0
 16 18  1  0
 17 16  2  0
 19 18  1  6
 20 19  1  0
 21 22  2  0
 21 19  1  0
 23 24  1  0
 24 26  1  0
 25 24  2  0
 27 26  1  0
 28 27  1  1
 28 29  1  0
 29 21  1  0
 30 28  1  0
 30 32  1  0
 31 30  2  0
M  END
$$$$
