WNQ.pdb
     RDKit          3D

 32 33  0  0  1  0  0  0  0  0999 V2000
    6.8891  -16.8205   23.0588 N   0  0  0  0  0  0  0  0  0  0  0  0
    8.2800  -16.6686   23.4321 C   0  0  1  0  0  0  0  0  0  0  0  0
    8.3496  -16.4073   24.8990 C   0  0  0  0  0  0  0  0  0  0  0  0
    7.2797  -15.4468   25.3119 C   0  0  0  0  0  0  0  0  0  0  0  0
    6.0006  -15.6948   25.7625 C   0  0  0  0  0  0  0  0  0  0  0  0
    5.3580  -14.5324   26.0275 N   0  0  0  0  0  0  0  0  0  0  0  0
    6.1896  -13.5170   25.7601 C   0  0  0  0  0  0  0  0  0  0  0  0
    6.0422  -12.1540   25.8544 C   0  0  0  0  0  0  0  0  0  0  0  0
    7.0694  -11.2894   25.5133 C   0  0  0  0  0  0  0  0  0  0  0  0
    8.2477  -11.8372   25.0750 C   0  0  0  0  0  0  0  0  0  0  0  0
    8.3973  -13.2016   24.9798 C   0  0  0  0  0  0  0  0  0  0  0  0
    7.3812  -14.0497   25.3176 C   0  0  0  0  0  0  0  0  0  0  0  0
    9.0674  -17.7744   22.9350 C   0  0  0  0  0  0  0  0  0  0  0  0
    8.6328  -18.4480   21.9621 O   0  0  0  0  0  0  0  0  0  0  0  0
   13.7007  -16.5394   20.8954 N   0  0  0  0  0  0  0  0  0  0  0  0
   12.8797  -15.9393   21.8507 C   0  0  0  0  0  0  0  0  0  0  0  0
   13.3167  -14.8800   22.4086 O   0  0  0  0  0  0  0  0  0  0  0  0
   11.5528  -16.3961   22.2911 C   0  0  0  0  0  0  0  0  0  0  0  0
   11.5869  -17.6041   23.1777 C   0  0  2  0  0  0  0  0  0  0  0  0
   10.3243  -18.1992   23.4423 N   0  0  0  0  0  0  0  0  0  0  0  0
   12.3807  -17.3300   24.4102 C   0  0  0  0  0  0  0  0  0  0  0  0
   13.5532  -16.8773   24.3615 O   0  0  0  0  0  0  0  0  0  0  0  0
    9.5108  -13.7814   27.5962 N   0  0  0  0  0  0  0  0  0  0  0  0
   10.1845  -14.6626   28.4683 C   0  0  0  0  0  0  0  0  0  0  0  0
   10.3111  -14.3418   29.6707 O   0  0  0  0  0  0  0  0  0  0  0  0
   10.7213  -15.9297   27.9494 C   0  0  0  0  0  0  0  0  0  0  0  0
   12.1245  -15.8581   27.4243 C   0  0  0  0  0  0  0  0  0  0  0  0
   12.5941  -17.1726   26.9299 C   0  0  2  0  0  0  0  0  0  0  0  0
   11.8565  -17.5650   25.7115 N   0  0  0  0  0  0  0  0  0  0  0  0
   12.2729  -18.2382   27.9081 C   0  0  0  0  0  0  0  0  0  0  0  0
   11.3284  -18.1580   28.7480 O   0  0  0  0  0  0  0  0  0  0  0  0
   13.0395  -19.3933   27.9111 O   0  0  0  0  0  0  0  0  0  0  0  0
  2  1  1  1
  2 13  1  0
  2  3  1  0
  3  4  1  0
  4 12  1  0
  4  5  2  0
  5  6  1  0
  7  8  2  0
  7  6  1  0
  9  8  1  0
 10  9  2  0
 11 10  1  0
 11 12  2  0
 12  7  1  0
 13 20  1  0
 13 14  2  0
 15 16  1  0
 16 18  1  0
 17 16  2  0
 19 18  1  1
 20 19  1  0
 21 22  2  0
 21 19  1  0
 23 24  1  0
 24 26  1  0
 25 24  2  0
 27 26  1  0
 28 27  1  1
 28 29  1  0
 29 21  1  0
 30 28  1  0
 30 32  1  0
 31 30  2  0
M  END
$$$$
