WNQ.pdb
     RDKit          3D

 32 33  0  0  1  0  0  0  0  0999 V2000
    6.6261  -16.9971   24.4512 N   0  0  0  0  0  0  0  0  0  0  0  0
    7.2724  -15.7938   23.9700 C   0  0  1  0  0  0  0  0  0  0  0  0
    8.5306  -15.5911   24.7451 C   0  0  0  0  0  0  0  0  0  0  0  0
    8.2372  -14.9426   26.0609 C   0  0  0  0  0  0  0  0  0  0  0  0
    8.5034  -15.3853   27.3390 C   0  0  0  0  0  0  0  0  0  0  0  0
    8.0676  -14.4854   28.2525 N   0  0  0  0  0  0  0  0  0  0  0  0
    7.5162  -13.4527   27.6016 C   0  0  0  0  0  0  0  0  0  0  0  0
    6.9314  -12.2900   28.0425 C   0  0  0  0  0  0  0  0  0  0  0  0
    6.4236  -11.3539   27.1567 C   0  0  0  0  0  0  0  0  0  0  0  0
    6.5220  -11.6228   25.8156 C   0  0  0  0  0  0  0  0  0  0  0  0
    7.1071  -12.7864   25.3721 C   0  0  0  0  0  0  0  0  0  0  0  0
    7.6063  -13.7062   26.2499 C   0  0  0  0  0  0  0  0  0  0  0  0
    7.3982  -15.8208   22.5301 C   0  0  0  0  0  0  0  0  0  0  0  0
    7.2252  -16.9102   21.9199 O   0  0  0  0  0  0  0  0  0  0  0  0
    8.5558  -12.6762   17.3274 N   0  0  0  0  0  0  0  0  0  0  0  0
    7.7515  -13.4832   18.1328 C   0  0  0  0  0  0  0  0  0  0  0  0
    7.0513  -14.3728   17.5477 O   0  0  0  0  0  0  0  0  0  0  0  0
    7.6194  -13.4223   19.5965 C   0  0  0  0  0  0  0  0  0  0  0  0
    7.8581  -14.7319   20.2854 C   0  0  2  0  0  0  0  0  0  0  0  0
    7.7062  -14.7118   21.6978 N   0  0  0  0  0  0  0  0  0  0  0  0
    9.1470  -15.3344   19.8383 C   0  0  0  0  0  0  0  0  0  0  0  0
    9.4129  -15.5142   18.6222 O   0  0  0  0  0  0  0  0  0  0  0  0
   14.4036  -15.7679   23.3931 N   0  0  0  0  0  0  0  0  0  0  0  0
   14.2894  -14.9458   22.2520 C   0  0  0  0  0  0  0  0  0  0  0  0
   15.2283  -14.1677   21.9728 O   0  0  0  0  0  0  0  0  0  0  0  0
   13.0777  -15.0186   21.4217 C   0  0  0  0  0  0  0  0  0  0  0  0
   12.4195  -16.3655   21.3742 C   0  0  0  0  0  0  0  0  0  0  0  0
   11.3786  -16.4318   20.3230 C   0  0  2  0  0  0  0  0  0  0  0  0
   10.1494  -15.7400   20.7625 N   0  0  0  0  0  0  0  0  0  0  0  0
   10.9493  -17.8336   20.1077 C   0  0  0  0  0  0  0  0  0  0  0  0
   10.4301  -18.5548   21.0099 O   0  0  0  0  0  0  0  0  0  0  0  0
   11.1169  -18.3965   18.8519 O   0  0  0  0  0  0  0  0  0  0  0  0
  2  1  1  1
  2 13  1  0
  2  3  1  0
  3  4  1  0
  4 12  1  0
  4  5  2  0
  5  6  1  0
  7  8  2  0
  7  6  1  0
  9  8  1  0
 10  9  2  0
 11 10  1  0
 11 12  2  0
 12  7  1  0
 13 20  1  0
 13 14  2  0
 15 16  1  0
 16 18  1  0
 17 16  2  0
 19 18  1  1
 20 19  1  0
 21 22  2  0
 21 19  1  0
 23 24  1  0
 24 26  1  0
 25 24  2  0
 27 26  1  0
 28 27  1  1
 28 29  1  0
 29 21  1  0
 30 28  1  0
 30 32  1  0
 31 30  2  0
M  END
$$$$
