WNQ.pdb
     RDKit          3D

 32 33  0  0  1  0  0  0  0  0999 V2000
    6.3333  -17.3217   24.2091 N   0  0  0  0  0  0  0  0  0  0  0  0
    7.0481  -16.1124   23.8573 C   0  0  1  0  0  0  0  0  0  0  0  0
    7.7146  -15.5842   25.0828 C   0  0  0  0  0  0  0  0  0  0  0  0
    6.8071  -14.6419   25.8085 C   0  0  0  0  0  0  0  0  0  0  0  0
    5.6445  -14.8994   26.5031 C   0  0  0  0  0  0  0  0  0  0  0  0
    5.1319  -13.7530   27.0105 N   0  0  0  0  0  0  0  0  0  0  0  0
    5.9353  -12.7389   26.6638 C   0  0  0  0  0  0  0  0  0  0  0  0
    5.8788  -11.3891   26.9157 C   0  0  0  0  0  0  0  0  0  0  0  0
    6.8496  -10.5228   26.4404 C   0  0  0  0  0  0  0  0  0  0  0  0
    7.8775  -11.0549   25.7051 C   0  0  0  0  0  0  0  0  0  0  0  0
    7.9359  -12.4060   25.4518 C   0  0  0  0  0  0  0  0  0  0  0  0
    6.9760  -13.2560   25.9229 C   0  0  0  0  0  0  0  0  0  0  0  0
    7.8944  -16.3339   22.7064 C   0  0  0  0  0  0  0  0  0  0  0  0
    8.5046  -17.4315   22.5964 O   0  0  0  0  0  0  0  0  0  0  0  0
    7.1742  -13.0727   18.8853 N   0  0  0  0  0  0  0  0  0  0  0  0
    8.0351  -14.1666   18.9797 C   0  0  0  0  0  0  0  0  0  0  0  0
    7.7373  -15.2002   18.2963 O   0  0  0  0  0  0  0  0  0  0  0  0
    9.2605  -14.2623   19.7876 C   0  0  0  0  0  0  0  0  0  0  0  0
    9.2484  -15.3824   20.7836 C   0  0  2  0  0  0  0  0  0  0  0  0
    8.1206  -15.4153   21.6470 N   0  0  0  0  0  0  0  0  0  0  0  0
   10.5497  -15.4561   21.5085 C   0  0  0  0  0  0  0  0  0  0  0  0
   10.9797  -14.5016   22.2058 O   0  0  0  0  0  0  0  0  0  0  0  0
   12.0441  -20.8188   25.1163 N   0  0  0  0  0  0  0  0  0  0  0  0
   12.0285  -19.4461   25.4423 C   0  0  0  0  0  0  0  0  0  0  0  0
   11.5240  -19.0902   26.5303 O   0  0  0  0  0  0  0  0  0  0  0  0
   12.5996  -18.4692   24.5029 C   0  0  0  0  0  0  0  0  0  0  0  0
   11.6945  -18.0653   23.3772 C   0  0  0  0  0  0  0  0  0  0  0  0
   12.2808  -16.9751   22.5645 C   0  0  2  0  0  0  0  0  0  0  0  0
   11.3786  -16.6107   21.4528 N   0  0  0  0  0  0  0  0  0  0  0  0
   13.5172  -17.4385   21.8920 C   0  0  0  0  0  0  0  0  0  0  0  0
   14.5846  -17.7284   22.5086 O   0  0  0  0  0  0  0  0  0  0  0  0
   13.5162  -17.5696   20.5119 O   0  0  0  0  0  0  0  0  0  0  0  0
  2  1  1  1
  2 13  1  0
  2  3  1  0
  3  4  1  0
  4 12  1  0
  4  5  2  0
  5  6  1  0
  7  8  2  0
  7  6  1  0
  9  8  1  0
 10  9  2  0
 11 10  1  0
 11 12  2  0
 12  7  1  0
 13 20  1  0
 13 14  2  0
 15 16  1  0
 16 18  1  0
 17 16  2  0
 19 18  1  1
 20 19  1  0
 21 22  2  0
 21 19  1  0
 23 24  1  0
 24 26  1  0
 25 24  2  0
 27 26  1  0
 28 27  1  6
 28 29  1  0
 29 21  1  0
 30 28  1  0
 30 32  1  0
 31 30  2  0
M  END
$$$$
