WNQ.pdb
     RDKit          3D

 32 33  0  0  1  0  0  0  0  0999 V2000
    9.0941  -16.1632   23.2794 N   0  0  0  0  0  0  0  0  0  0  0  0
    8.0774  -16.6162   24.2059 C   0  0  1  0  0  0  0  0  0  0  0  0
    6.7595  -16.0774   23.7614 C   0  0  0  0  0  0  0  0  0  0  0  0
    6.8241  -14.5903   23.6123 C   0  0  0  0  0  0  0  0  0  0  0  0
    7.1230  -13.8293   22.5024 C   0  0  0  0  0  0  0  0  0  0  0  0
    7.0697  -12.5100   22.8041 N   0  0  0  0  0  0  0  0  0  0  0  0
    6.7406  -12.3830   24.0962 C   0  0  0  0  0  0  0  0  0  0  0  0
    6.5546  -11.2821   24.8973 C   0  0  0  0  0  0  0  0  0  0  0  0
    6.2088  -11.4086   26.2328 C   0  0  0  0  0  0  0  0  0  0  0  0
    6.0560  -12.6747   26.7370 C   0  0  0  0  0  0  0  0  0  0  0  0
    6.2418  -13.7782   25.9366 C   0  0  0  0  0  0  0  0  0  0  0  0
    6.5827  -13.6479   24.6202 C   0  0  0  0  0  0  0  0  0  0  0  0
    8.1592  -18.0469   24.3967 C   0  0  0  0  0  0  0  0  0  0  0  0
    7.3530  -18.6068   25.1877 O   0  0  0  0  0  0  0  0  0  0  0  0
    7.0322  -20.7743   21.9186 N   0  0  0  0  0  0  0  0  0  0  0  0
    8.4053  -20.9406   21.7347 C   0  0  0  0  0  0  0  0  0  0  0  0
    8.8393  -20.9022   20.5371 O   0  0  0  0  0  0  0  0  0  0  0  0
    9.4189  -21.1576   22.7782 C   0  0  0  0  0  0  0  0  0  0  0  0
    9.2233  -20.3158   24.0029 C   0  0  2  0  0  0  0  0  0  0  0  0
    9.0830  -18.9220   23.7658 N   0  0  0  0  0  0  0  0  0  0  0  0
   10.2517  -20.6392   25.0335 C   0  0  0  0  0  0  0  0  0  0  0  0
   10.4475  -21.8152   25.4342 O   0  0  0  0  0  0  0  0  0  0  0  0
   15.9232  -19.2008   25.0917 N   0  0  0  0  0  0  0  0  0  0  0  0
   14.9433  -18.1892   25.0063 C   0  0  0  0  0  0  0  0  0  0  0  0
   15.2391  -17.1082   24.4506 O   0  0  0  0  0  0  0  0  0  0  0  0
   13.6051  -18.4237   25.5695 C   0  0  0  0  0  0  0  0  0  0  0  0
   13.4207  -19.7539   26.2376 C   0  0  0  0  0  0  0  0  0  0  0  0
   12.0280  -19.9473   26.7023 C   0  0  2  0  0  0  0  0  0  0  0  0
   11.0701  -19.6354   25.6217 N   0  0  0  0  0  0  0  0  0  0  0  0
   11.6995  -18.9750   27.7710 C   0  0  0  0  0  0  0  0  0  0  0  0
   11.1533  -17.8530   27.5550 O   0  0  0  0  0  0  0  0  0  0  0  0
   11.9984  -19.3021   29.0846 O   0  0  0  0  0  0  0  0  0  0  0  0
  2  1  1  6
  2 13  1  0
  2  3  1  0
  3  4  1  0
  4 12  1  0
  4  5  2  0
  5  6  1  0
  7  8  2  0
  7  6  1  0
  9  8  1  0
 10  9  2  0
 11 10  1  0
 11 12  2  0
 12  7  1  0
 13 20  1  0
 13 14  2  0
 15 16  1  0
 16 18  1  0
 17 16  2  0
 19 18  1  6
 20 19  1  0
 21 22  2  0
 21 19  1  0
 23 24  1  0
 24 26  1  0
 25 24  2  0
 27 26  1  0
 28 27  1  6
 28 29  1  0
 29 21  1  0
 30 28  1  0
 30 32  1  0
 31 30  2  0
M  END
$$$$
