WNQ.pdb
     RDKit          3D

 32 33  0  0  1  0  0  0  0  0999 V2000
    6.4910  -18.1187   24.4925 N   0  0  0  0  0  0  0  0  0  0  0  0
    6.7289  -16.7149   24.2283 C   0  0  1  0  0  0  0  0  0  0  0  0
    7.4278  -16.1243   25.4062 C   0  0  0  0  0  0  0  0  0  0  0  0
    6.6517  -14.9671   25.9506 C   0  0  0  0  0  0  0  0  0  0  0  0
    5.3491  -14.9141   26.3990 C   0  0  0  0  0  0  0  0  0  0  0  0
    5.0401  -13.6611   26.8098 N   0  0  0  0  0  0  0  0  0  0  0  0
    6.1162  -12.8815   26.6412 C   0  0  0  0  0  0  0  0  0  0  0  0
    6.3396  -11.5494   26.8939 C   0  0  0  0  0  0  0  0  0  0  0  0
    7.5642  -10.9579   26.6303 C   0  0  0  0  0  0  0  0  0  0  0  0
    8.5558  -11.7464   26.1055 C   0  0  0  0  0  0  0  0  0  0  0  0
    8.3342  -13.0803   25.8517 C   0  0  0  0  0  0  0  0  0  0  0  0
    7.1247  -13.6587   26.1135 C   0  0  0  0  0  0  0  0  0  0  0  0
    7.3661  -16.5365   22.9429 C   0  0  0  0  0  0  0  0  0  0  0  0
    8.1066  -17.4522   22.4934 O   0  0  0  0  0  0  0  0  0  0  0  0
    7.5427  -14.3671   17.4544 N   0  0  0  0  0  0  0  0  0  0  0  0
    8.0472  -13.9907   18.6996 C   0  0  0  0  0  0  0  0  0  0  0  0
    9.2179  -13.4877   18.7235 O   0  0  0  0  0  0  0  0  0  0  0  0
    7.3731  -14.1100   20.0014 C   0  0  0  0  0  0  0  0  0  0  0  0
    7.9611  -15.1566   20.8989 C   0  0  2  0  0  0  0  0  0  0  0  0
    7.2429  -15.3996   22.1005 N   0  0  0  0  0  0  0  0  0  0  0  0
    9.4142  -14.9043   21.1200 C   0  0  0  0  0  0  0  0  0  0  0  0
    9.8270  -13.9118   21.7731 O   0  0  0  0  0  0  0  0  0  0  0  0
   10.7382  -18.3260   24.9782 N   0  0  0  0  0  0  0  0  0  0  0  0
   12.0847  -18.1381   24.6009 C   0  0  0  0  0  0  0  0  0  0  0  0
   12.9852  -18.6426   25.3076 O   0  0  0  0  0  0  0  0  0  0  0  0
   12.3996  -17.3576   23.3948 C   0  0  0  0  0  0  0  0  0  0  0  0
   11.2089  -16.8510   22.6364 C   0  0  0  0  0  0  0  0  0  0  0  0
   11.6064  -16.1439   21.3975 C   0  0  2  0  0  0  0  0  0  0  0  0
   10.4164  -15.7725   20.6048 N   0  0  0  0  0  0  0  0  0  0  0  0
   12.3683  -17.0499   20.5064 C   0  0  0  0  0  0  0  0  0  0  0  0
   13.6275  -17.1783   20.5470 O   0  0  0  0  0  0  0  0  0  0  0  0
   11.6746  -17.8072   19.5751 O   0  0  0  0  0  0  0  0  0  0  0  0
  2  1  1  1
  2 13  1  0
  2  3  1  0
  3  4  1  0
  4 12  1  0
  4  5  2  0
  5  6  1  0
  7  8  2  0
  7  6  1  0
  9  8  1  0
 10  9  2  0
 11 10  1  0
 11 12  2  0
 12  7  1  0
 13 20  1  0
 13 14  2  0
 15 16  1  0
 16 18  1  0
 17 16  2  0
 19 18  1  1
 20 19  1  0
 21 22  2  0
 21 19  1  0
 23 24  1  0
 24 26  1  0
 25 24  2  0
 27 26  1  0
 28 27  1  1
 28 29  1  0
 29 21  1  0
 30 28  1  0
 30 32  1  0
 31 30  2  0
M  END
$$$$
