CNR.pdb
     RDKit          3D

 26 25  0  0  1  0  0  0  0  0999 V2000
   10.9978  -16.0329   16.5869 N   0  0  0  0  0  0  0  0  0  0  0  0
    9.6675  -16.3634   17.0477 C   0  0  1  0  0  0  0  0  0  0  0  0
    9.0470  -17.3630   16.0943 C   0  0  0  0  0  0  0  0  0  0  0  0
    9.4682  -17.0331   14.3845 S   0  0  0  0  0  0  0  0  0  0  0  0
    9.7952  -16.9914   18.4278 C   0  0  0  0  0  0  0  0  0  0  0  0
    8.7630  -17.3519   19.0362 O   0  0  0  0  0  0  0  0  0  0  0  0
   11.9056  -21.1250   21.4732 N   0  0  0  0  0  0  0  0  0  0  0  0
   12.4301  -19.7848   21.3930 C   0  0  0  0  0  0  0  0  0  0  0  0
   13.0199  -19.2847   22.3834 O   0  0  0  0  0  0  0  0  0  0  0  0
   12.2081  -19.1099   20.0919 C   0  0  0  0  0  0  0  0  0  0  0  0
   11.3736  -17.8465   20.2008 C   0  0  2  0  0  0  0  0  0  0  0  0
   11.0601  -17.1656   19.0162 N   0  0  0  0  0  0  0  0  0  0  0  0
   11.7919  -17.0912   21.3619 C   0  0  0  0  0  0  0  0  0  0  0  0
   12.6942  -17.6271   22.0924 O   0  0  0  0  0  0  0  0  0  0  0  0
    7.6185  -13.6451   17.3744 N   0  0  0  0  0  0  0  0  0  0  0  0
    7.8008  -13.2316   18.7182 C   0  0  0  0  0  0  0  0  0  0  0  0
    8.5256  -12.1799   19.0098 N   0  0  0  0  0  0  0  0  0  0  0  0
    7.2749  -13.8717   19.8471 N   0  0  0  0  0  0  0  0  0  0  0  0
    7.4190  -13.6657   21.2207 C   0  0  0  0  0  0  0  0  0  0  0  0
    8.5813  -14.0194   22.0185 C   0  0  0  0  0  0  0  0  0  0  0  0
    8.9699  -15.4128   22.2699 C   0  0  0  0  0  0  0  0  0  0  0  0
   10.3328  -15.6451   22.8547 C   0  0  2  0  0  0  0  0  0  0  0  0
   11.3248  -15.8405   21.7794 N   0  0  0  0  0  0  0  0  0  0  0  0
   10.4711  -16.6414   23.8978 C   0  0  0  0  0  0  0  0  0  0  0  0
   10.0034  -17.8345   23.7260 O   0  0  0  0  0  0  0  0  0  0  0  0
   11.0781  -16.4824   25.1339 O   0  0  0  0  0  0  0  0  0  0  0  0
  2  5  1  0
  2  1  1  6
  3  2  1  0
  4  3  1  0
  5  6  2  0
  7  8  1  0
  8 10  1  0
  9  8  2  0
 11 10  1  6
 12  5  1  0
 12 11  1  0
 13 23  1  0
 13 11  1  0
 14 13  2  0
 15 16  1  0
 16 18  1  0
 16 17  2  0
 18 19  1  0
 20 19  1  0
 21 20  1  0
 22 23  1  0
 22 21  1  6
 24 22  1  0
 25 24  2  0
 26 24  1  0
M  END
$$$$
