CNR.pdb
     RDKit          3D

 26 25  0  0  1  0  0  0  0  0999 V2000
    5.5683  -19.2098   19.4833 N   0  0  0  0  0  0  0  0  0  0  0  0
    5.3799  -17.8215   19.8413 C   0  0  1  0  0  0  0  0  0  0  0  0
    4.5825  -17.7452   21.1264 C   0  0  0  0  0  0  0  0  0  0  0  0
    5.3969  -18.5746   22.4897 S   0  0  0  0  0  0  0  0  0  0  0  0
    6.7541  -17.2062   20.0602 C   0  0  0  0  0  0  0  0  0  0  0  0
    7.7614  -17.9478   20.0890 O   0  0  0  0  0  0  0  0  0  0  0  0
    7.6106  -14.3269   17.9581 N   0  0  0  0  0  0  0  0  0  0  0  0
    7.6899  -13.2204   18.8786 C   0  0  0  0  0  0  0  0  0  0  0  0
    7.4670  -12.0526   18.4718 O   0  0  0  0  0  0  0  0  0  0  0  0
    8.0411  -13.5956   20.2690 C   0  0  0  0  0  0  0  0  0  0  0  0
    8.0632  -15.0953   20.5034 C   0  0  2  0  0  0  0  0  0  0  0  0
    6.8934  -15.8175   20.2292 N   0  0  0  0  0  0  0  0  0  0  0  0
    8.8063  -15.3834   21.7110 C   0  0  0  0  0  0  0  0  0  0  0  0
    8.2036  -15.1566   22.8157 O   0  0  0  0  0  0  0  0  0  0  0  0
    9.4813  -23.1557   25.7143 N   0  0  0  0  0  0  0  0  0  0  0  0
   10.4433  -22.4476   24.9507 C   0  0  0  0  0  0  0  0  0  0  0  0
   11.3341  -23.0819   24.2292 N   0  0  0  0  0  0  0  0  0  0  0  0
   10.5712  -21.0546   24.8892 N   0  0  0  0  0  0  0  0  0  0  0  0
   11.2917  -20.1933   24.0591 C   0  0  0  0  0  0  0  0  0  0  0  0
   11.2081  -18.7424   24.0578 C   0  0  0  0  0  0  0  0  0  0  0  0
   10.6363  -17.9873   22.9359 C   0  0  0  0  0  0  0  0  0  0  0  0
   10.6693  -16.4897   23.0353 C   0  0  2  0  0  0  0  0  0  0  0  0
   10.1089  -15.8829   21.8121 N   0  0  0  0  0  0  0  0  0  0  0  0
   11.9121  -15.8553   23.4263 C   0  0  0  0  0  0  0  0  0  0  0  0
   12.5765  -15.1435   22.5759 O   0  0  0  0  0  0  0  0  0  0  0  0
   12.5252  -15.9073   24.6685 O   0  0  0  0  0  0  0  0  0  0  0  0
  2  5  1  0
  2  1  1  1
  3  2  1  0
  4  3  1  0
  5  6  2  0
  7  8  1  0
  8 10  1  0
  9  8  2  0
 11 10  1  1
 12  5  1  0
 12 11  1  0
 13 23  1  0
 13 11  1  0
 14 13  2  0
 15 16  1  0
 16 18  1  0
 16 17  2  0
 18 19  1  0
 20 19  1  0
 21 20  1  0
 22 23  1  0
 22 21  1  6
 24 22  1  0
 25 24  2  0
 26 24  1  0
M  END
$$$$
