CNR.pdb
     RDKit          3D

 26 25  0  0  1  0  0  0  0  0999 V2000
    5.9521  -13.5410   26.6272 N   0  0  0  0  0  0  0  0  0  0  0  0
    6.7061  -13.9116   25.4502 C   0  0  1  0  0  0  0  0  0  0  0  0
    7.2421  -12.6584   24.7903 C   0  0  0  0  0  0  0  0  0  0  0  0
    7.7424  -11.4164   25.9805 S   0  0  0  0  0  0  0  0  0  0  0  0
    7.8684  -14.7856   25.8976 C   0  0  0  0  0  0  0  0  0  0  0  0
    8.2127  -14.7808   27.1005 O   0  0  0  0  0  0  0  0  0  0  0  0
   11.8392  -17.7718   26.6259 N   0  0  0  0  0  0  0  0  0  0  0  0
   10.5315  -18.3780   26.6140 C   0  0  0  0  0  0  0  0  0  0  0  0
   10.4189  -19.6223   26.7480 O   0  0  0  0  0  0  0  0  0  0  0  0
    9.4091  -17.4258   26.4377 C   0  0  0  0  0  0  0  0  0  0  0  0
    9.5618  -16.5297   25.2219 C   0  0  2  0  0  0  0  0  0  0  0  0
    8.5511  -15.5916   24.9697 N   0  0  0  0  0  0  0  0  0  0  0  0
   10.1051  -17.2975   24.1225 C   0  0  0  0  0  0  0  0  0  0  0  0
    9.3526  -18.2139   23.6440 O   0  0  0  0  0  0  0  0  0  0  0  0
    7.0057  -12.8764   20.0514 N   0  0  0  0  0  0  0  0  0  0  0  0
    8.2858  -13.0279   19.4613 C   0  0  0  0  0  0  0  0  0  0  0  0
    8.9861  -11.9855   19.0879 N   0  0  0  0  0  0  0  0  0  0  0  0
    8.9230  -14.2464   19.1968 N   0  0  0  0  0  0  0  0  0  0  0  0
   10.1482  -14.7922   19.5854 C   0  0  0  0  0  0  0  0  0  0  0  0
   10.8444  -14.5228   20.8324 C   0  0  0  0  0  0  0  0  0  0  0  0
   10.6570  -15.3467   22.0332 C   0  0  0  0  0  0  0  0  0  0  0  0
   11.5770  -16.5206   22.2045 C   0  0  2  0  0  0  0  0  0  0  0  0
   11.3592  -17.1541   23.5196 N   0  0  0  0  0  0  0  0  0  0  0  0
   12.9870  -16.3333   21.9277 C   0  0  0  0  0  0  0  0  0  0  0  0
   13.7845  -15.9191   22.8572 O   0  0  0  0  0  0  0  0  0  0  0  0
   13.6421  -16.5543   20.7262 O   0  0  0  0  0  0  0  0  0  0  0  0
  2  5  1  0
  2  1  1  1
  3  2  1  0
  4  3  1  0
  5  6  2  0
  7  8  1  0
  8 10  1  0
  9  8  2  0
 11 10  1  1
 12  5  1  0
 12 11  1  0
 13 23  1  0
 13 11  1  0
 14 13  2  0
 15 16  1  0
 16 18  1  0
 16 17  2  0
 18 19  1  0
 20 19  1  0
 21 20  1  0
 22 23  1  0
 22 21  1  1
 24 22  1  0
 25 24  2  0
 26 24  1  0
M  END
$$$$
