CNR.pdb
     RDKit          3D

 26 25  0  0  1  0  0  0  0  0999 V2000
   -0.7794  -24.3564   17.2775 N   0  0  0  0  0  0  0  0  0  0  0  0
   -0.1726  -23.1130   17.6980 C   0  0  1  0  0  0  0  0  0  0  0  0
   -1.0097  -21.9571   17.1916 C   0  0  0  0  0  0  0  0  0  0  0  0
   -1.1900  -21.9693   15.4092 S   0  0  0  0  0  0  0  0  0  0  0  0
   -0.1520  -23.0956   19.2193 C   0  0  0  0  0  0  0  0  0  0  0  0
    0.4481  -22.1731   19.8147 O   0  0  0  0  0  0  0  0  0  0  0  0
   -3.0773  -22.7855   21.0208 N   0  0  0  0  0  0  0  0  0  0  0  0
   -3.3238  -24.0332   21.6993 C   0  0  0  0  0  0  0  0  0  0  0  0
   -4.4955  -24.3427   22.0312 O   0  0  0  0  0  0  0  0  0  0  0  0
   -2.1142  -24.8548   21.9432 C   0  0  0  0  0  0  0  0  0  0  0  0
   -0.8510  -24.2642   21.3434 C   0  0  2  0  0  0  0  0  0  0  0  0
   -0.8000  -24.1058   19.9514 N   0  0  0  0  0  0  0  0  0  0  0  0
    0.3040  -24.7895   22.0388 C   0  0  0  0  0  0  0  0  0  0  0  0
    0.2855  -24.7040   23.3144 O   0  0  0  0  0  0  0  0  0  0  0  0
    6.6088  -20.7267   24.4408 N   0  0  0  0  0  0  0  0  0  0  0  0
    5.9302  -21.0668   23.2434 C   0  0  0  0  0  0  0  0  0  0  0  0
    6.1314  -20.3939   22.1374 N   0  0  0  0  0  0  0  0  0  0  0  0
    4.9927  -22.0971   23.1017 N   0  0  0  0  0  0  0  0  0  0  0  0
    4.4825  -23.0569   23.9782 C   0  0  0  0  0  0  0  0  0  0  0  0
    3.4952  -24.0719   23.6504 C   0  0  0  0  0  0  0  0  0  0  0  0
    3.6261  -24.9495   22.4806 C   0  0  0  0  0  0  0  0  0  0  0  0
    2.5426  -25.9664   22.2670 C   0  0  2  0  0  0  0  0  0  0  0  0
    1.4404  -25.3821   21.4783 N   0  0  0  0  0  0  0  0  0  0  0  0
    2.0490  -26.6950   23.4182 C   0  0  0  0  0  0  0  0  0  0  0  0
    2.7289  -27.6803   23.9068 O   0  0  0  0  0  0  0  0  0  0  0  0
    0.8732  -26.4645   24.1153 O   0  0  0  0  0  0  0  0  0  0  0  0
  2  5  1  0
  2  1  1  1
  3  2  1  0
  4  3  1  0
  5  6  2  0
  7  8  1  0
  8 10  1  0
  9  8  2  0
 11 10  1  6
 12  5  1  0
 12 11  1  0
 13 23  1  0
 13 11  1  0
 14 13  2  0
 15 16  1  0
 16 18  1  0
 16 17  2  0
 18 19  1  0
 20 19  1  0
 21 20  1  0
 22 23  1  0
 22 21  1  1
 24 22  1  0
 25 24  2  0
 26 24  1  0
M  END
$$$$
