CNR.pdb
     RDKit          3D

 26 25  0  0  1  0  0  0  0  0999 V2000
    9.4233  -16.5247   18.2282 N   0  0  0  0  0  0  0  0  0  0  0  0
    8.3351  -16.7897   19.1429 C   0  0  1  0  0  0  0  0  0  0  0  0
    7.9953  -18.2647   19.0946 C   0  0  0  0  0  0  0  0  0  0  0  0
    6.9637  -18.6856   17.6917 S   0  0  0  0  0  0  0  0  0  0  0  0
    8.8040  -16.4233   20.5433 C   0  0  0  0  0  0  0  0  0  0  0  0
    9.9851  -16.6647   20.8781 O   0  0  0  0  0  0  0  0  0  0  0  0
    8.7975  -14.7861   25.3089 N   0  0  0  0  0  0  0  0  0  0  0  0
    7.4869  -14.3342   24.9139 C   0  0  0  0  0  0  0  0  0  0  0  0
    6.7933  -13.6560   25.7125 O   0  0  0  0  0  0  0  0  0  0  0  0
    7.0798  -14.7357   23.5462 C   0  0  0  0  0  0  0  0  0  0  0  0
    8.1408  -15.5325   22.8088 C   0  0  2  0  0  0  0  0  0  0  0  0
    7.9199  -15.8195   21.4546 N   0  0  0  0  0  0  0  0  0  0  0  0
    8.6554  -16.5691   23.6773 C   0  0  0  0  0  0  0  0  0  0  0  0
    7.8377  -17.4985   23.9975 O   0  0  0  0  0  0  0  0  0  0  0  0
   15.0053  -19.7065   22.3564 N   0  0  0  0  0  0  0  0  0  0  0  0
   14.0315  -20.3154   21.5252 C   0  0  0  0  0  0  0  0  0  0  0  0
   14.3132  -21.3877   20.8272 N   0  0  0  0  0  0  0  0  0  0  0  0
   12.7203  -19.8614   21.3376 N   0  0  0  0  0  0  0  0  0  0  0  0
   11.8305  -19.1423   22.1383 C   0  0  0  0  0  0  0  0  0  0  0  0
   11.5400  -19.4046   23.5379 C   0  0  0  0  0  0  0  0  0  0  0  0
   11.6632  -18.3726   24.5750 C   0  0  0  0  0  0  0  0  0  0  0  0
   10.3888  -17.7704   25.0917 C   0  0  2  0  0  0  0  0  0  0  0  0
    9.9453  -16.6745   24.2081 N   0  0  0  0  0  0  0  0  0  0  0  0
   10.3268  -17.3898   26.4886 C   0  0  0  0  0  0  0  0  0  0  0  0
   10.1227  -16.1569   26.8200 O   0  0  0  0  0  0  0  0  0  0  0  0
   10.4620  -18.2200   27.5905 O   0  0  0  0  0  0  0  0  0  0  0  0
  2  5  1  0
  2  1  1  6
  3  2  1  0
  4  3  1  0
  5  6  2  0
  7  8  1  0
  8 10  1  0
  9  8  2  0
 11 10  1  1
 12  5  1  0
 12 11  1  0
 13 23  1  0
 13 11  1  0
 14 13  2  0
 15 16  1  0
 16 18  1  0
 16 17  2  0
 18 19  1  0
 20 19  1  0
 21 20  1  0
 22 23  1  0
 22 21  1  6
 24 22  1  0
 25 24  2  0
 26 24  1  0
M  END
$$$$
