CNR.pdb
     RDKit          3D

 26 25  0  0  1  0  0  0  0  0999 V2000
    9.3180  -19.7728   17.9613 N   0  0  0  0  0  0  0  0  0  0  0  0
    9.1222  -19.8715   19.3907 C   0  0  1  0  0  0  0  0  0  0  0  0
    9.3350  -21.3074   19.8219 C   0  0  0  0  0  0  0  0  0  0  0  0
   11.0508  -21.8106   19.7096 S   0  0  0  0  0  0  0  0  0  0  0  0
   10.1556  -18.9813   20.0651 C   0  0  0  0  0  0  0  0  0  0  0  0
   10.8048  -18.1634   19.3759 O   0  0  0  0  0  0  0  0  0  0  0  0
   11.9938  -15.4920   23.4204 N   0  0  0  0  0  0  0  0  0  0  0  0
   11.4213  -16.6057   24.1344 C   0  0  0  0  0  0  0  0  0  0  0  0
   11.7285  -16.8008   25.3371 O   0  0  0  0  0  0  0  0  0  0  0  0
   10.4891  -17.4387   23.3377 C   0  0  0  0  0  0  0  0  0  0  0  0
   11.1772  -18.2461   22.2518 C   0  0  2  0  0  0  0  0  0  0  0  0
   10.3810  -19.0754   21.4496 N   0  0  0  0  0  0  0  0  0  0  0  0
   12.4411  -18.7444   22.7494 C   0  0  0  0  0  0  0  0  0  0  0  0
   12.3842  -19.7528   23.5337 O   0  0  0  0  0  0  0  0  0  0  0  0
   20.5331  -18.2402   18.2651 N   0  0  0  0  0  0  0  0  0  0  0  0
   19.6383  -19.0942   18.9579 C   0  0  0  0  0  0  0  0  0  0  0  0
   19.9702  -20.3274   19.2503 N   0  0  0  0  0  0  0  0  0  0  0  0
   18.3466  -18.7542   19.3780 N   0  0  0  0  0  0  0  0  0  0  0  0
   17.3201  -19.4697   19.9978 C   0  0  0  0  0  0  0  0  0  0  0  0
   17.0009  -19.4474   21.4155 C   0  0  0  0  0  0  0  0  0  0  0  0
   16.1120  -18.4397   22.0072 C   0  0  0  0  0  0  0  0  0  0  0  0
   14.9710  -18.9438   22.8424 C   0  0  2  0  0  0  0  0  0  0  0  0
   13.7207  -18.2522   22.4721 N   0  0  0  0  0  0  0  0  0  0  0  0
   15.1455  -19.0005   24.2798 C   0  0  0  0  0  0  0  0  0  0  0  0
   14.8877  -17.9646   25.0092 O   0  0  0  0  0  0  0  0  0  0  0  0
   15.5759  -20.0839   25.0300 O   0  0  0  0  0  0  0  0  0  0  0  0
  2  5  1  0
  2  1  1  6
  3  2  1  0
  4  3  1  0
  5  6  2  0
  7  8  1  0
  8 10  1  0
  9  8  2  0
 11 10  1  1
 12  5  1  0
 12 11  1  0
 13 23  1  0
 13 11  1  0
 14 13  2  0
 15 16  1  0
 16 18  1  0
 16 17  2  0
 18 19  1  0
 20 19  1  0
 21 20  1  0
 22 23  1  0
 22 21  1  6
 24 22  1  0
 25 24  2  0
 26 24  1  0
M  END
$$$$
