CNR.pdb
     RDKit          3D

 26 25  0  0  1  0  0  0  0  0999 V2000
    9.1451  -19.6815   17.4942 N   0  0  0  0  0  0  0  0  0  0  0  0
    9.8976  -18.6767   18.2121 C   0  0  1  0  0  0  0  0  0  0  0  0
    9.1720  -17.3511   18.1152 C   0  0  0  0  0  0  0  0  0  0  0  0
    9.1468  -16.7030   16.4452 S   0  0  0  0  0  0  0  0  0  0  0  0
    9.9760  -19.1063   19.6696 C   0  0  0  0  0  0  0  0  0  0  0  0
    9.1516  -19.9383   20.1097 O   0  0  0  0  0  0  0  0  0  0  0  0
   13.7231  -19.8687   24.2842 N   0  0  0  0  0  0  0  0  0  0  0  0
   12.4144  -20.0327   23.7025 C   0  0  0  0  0  0  0  0  0  0  0  0
   11.4526  -20.4003   24.4227 O   0  0  0  0  0  0  0  0  0  0  0  0
   12.3401  -19.7363   22.2520 C   0  0  0  0  0  0  0  0  0  0  0  0
   11.1709  -18.8440   21.8763 C   0  0  2  0  0  0  0  0  0  0  0  0
   10.9644  -18.5744   20.5162 N   0  0  0  0  0  0  0  0  0  0  0  0
   11.0585  -17.7673   22.8363 C   0  0  0  0  0  0  0  0  0  0  0  0
   12.0528  -16.9668   22.9099 O   0  0  0  0  0  0  0  0  0  0  0  0
    7.4194  -11.2722   20.5719 N   0  0  0  0  0  0  0  0  0  0  0  0
    7.9819  -12.4582   20.0363 C   0  0  0  0  0  0  0  0  0  0  0  0
    8.2884  -12.5475   18.7656 N   0  0  0  0  0  0  0  0  0  0  0  0
    8.2488  -13.6307   20.7537 N   0  0  0  0  0  0  0  0  0  0  0  0
    8.2999  -13.9306   22.1165 C   0  0  0  0  0  0  0  0  0  0  0  0
    8.5406  -15.2432   22.6922 C   0  0  0  0  0  0  0  0  0  0  0  0
    8.7320  -15.4484   24.1334 C   0  0  0  0  0  0  0  0  0  0  0  0
    9.8951  -16.3003   24.5518 C   0  0  2  0  0  0  0  0  0  0  0  0
    9.9871  -17.4981   23.6944 N   0  0  0  0  0  0  0  0  0  0  0  0
   10.0305  -16.6351   25.9552 C   0  0  0  0  0  0  0  0  0  0  0  0
    9.8427  -17.8496   26.3568 O   0  0  0  0  0  0  0  0  0  0  0  0
   10.3582  -15.7775   26.9938 O   0  0  0  0  0  0  0  0  0  0  0  0
  2  5  1  0
  2  1  1  6
  3  2  1  0
  4  3  1  0
  5  6  2  0
  7  8  1  0
  8 10  1  0
  9  8  2  0
 11 10  1  6
 12  5  1  0
 12 11  1  0
 13 23  1  0
 13 11  1  0
 14 13  2  0
 15 16  1  0
 16 18  1  0
 16 17  2  0
 18 19  1  0
 20 19  1  0
 21 20  1  0
 22 23  1  0
 22 21  1  1
 24 22  1  0
 25 24  2  0
 26 24  1  0
M  END
$$$$
