CNR.pdb
     RDKit          3D

 26 25  0  0  1  0  0  0  0  0999 V2000
    7.5603  -13.2803   17.0639 N   0  0  0  0  0  0  0  0  0  0  0  0
    8.3951  -13.5454   18.2145 C   0  0  1  0  0  0  0  0  0  0  0  0
    7.8261  -12.8216   19.4168 C   0  0  0  0  0  0  0  0  0  0  0  0
    8.7581  -13.1392   20.9135 S   0  0  0  0  0  0  0  0  0  0  0  0
    8.3745  -15.0453   18.4694 C   0  0  0  0  0  0  0  0  0  0  0  0
    7.2898  -15.6072   18.7400 O   0  0  0  0  0  0  0  0  0  0  0  0
    9.2559  -17.4374   15.7090 N   0  0  0  0  0  0  0  0  0  0  0  0
   10.4777  -17.5452   16.4663 C   0  0  0  0  0  0  0  0  0  0  0  0
   11.5636  -17.1719   15.9561 O   0  0  0  0  0  0  0  0  0  0  0  0
   10.3148  -18.1097   17.8273 C   0  0  0  0  0  0  0  0  0  0  0  0
    9.7764  -17.1108   18.8357 C   0  0  2  0  0  0  0  0  0  0  0  0
    9.5619  -15.7950   18.4025 N   0  0  0  0  0  0  0  0  0  0  0  0
   10.4000  -17.3400   20.1211 C   0  0  0  0  0  0  0  0  0  0  0  0
   11.1461  -18.3743   20.2133 O   0  0  0  0  0  0  0  0  0  0  0  0
   15.9626  -15.9447   19.3557 N   0  0  0  0  0  0  0  0  0  0  0  0
   15.3931  -14.7128   18.9454 C   0  0  0  0  0  0  0  0  0  0  0  0
   16.1318  -13.7694   18.4156 N   0  0  0  0  0  0  0  0  0  0  0  0
   14.0442  -14.3574   19.0662 N   0  0  0  0  0  0  0  0  0  0  0  0
   13.1227  -14.4318   20.1128 C   0  0  0  0  0  0  0  0  0  0  0  0
   13.1639  -15.3727   21.2197 C   0  0  0  0  0  0  0  0  0  0  0  0
   12.1607  -15.3723   22.2918 C   0  0  0  0  0  0  0  0  0  0  0  0
   11.2603  -16.5700   22.3828 C   0  0  2  0  0  0  0  0  0  0  0  0
   10.2829  -16.5609   21.2769 N   0  0  0  0  0  0  0  0  0  0  0  0
   10.6270  -16.8572   23.6542 C   0  0  0  0  0  0  0  0  0  0  0  0
   11.3444  -17.0278   24.7162 O   0  0  0  0  0  0  0  0  0  0  0  0
    9.2693  -16.9792   23.9059 O   0  0  0  0  0  0  0  0  0  0  0  0
  2  5  1  0
  2  1  1  6
  3  2  1  0
  4  3  1  0
  5  6  2  0
  7  8  1  0
  8 10  1  0
  9  8  2  0
 11 10  1  6
 12  5  1  0
 12 11  1  0
 13 23  1  0
 13 11  1  0
 14 13  2  0
 15 16  1  0
 16 18  1  0
 16 17  2  0
 18 19  1  0
 20 19  1  0
 21 20  1  0
 22 23  1  0
 22 21  1  1
 24 22  1  0
 25 24  2  0
 26 24  1  0
M  END
$$$$
