CNR.pdb
     RDKit          3D

 26 25  0  0  1  0  0  0  0  0999 V2000
    7.7140  -12.6180   18.7188 N   0  0  0  0  0  0  0  0  0  0  0  0
    7.6834  -14.0434   18.4771 C   0  0  1  0  0  0  0  0  0  0  0  0
    8.7409  -14.3948   17.4516 C   0  0  0  0  0  0  0  0  0  0  0  0
    8.2674  -13.9246   15.7890 S   0  0  0  0  0  0  0  0  0  0  0  0
    7.9976  -14.7455   19.7900 C   0  0  0  0  0  0  0  0  0  0  0  0
    8.6148  -14.1262   20.6850 O   0  0  0  0  0  0  0  0  0  0  0  0
    6.3903  -19.5014   23.2928 N   0  0  0  0  0  0  0  0  0  0  0  0
    7.4369  -18.9470   22.4712 C   0  0  0  0  0  0  0  0  0  0  0  0
    8.6370  -19.2293   22.7140 O   0  0  0  0  0  0  0  0  0  0  0  0
    6.9640  -18.0639   21.3784 C   0  0  0  0  0  0  0  0  0  0  0  0
    7.9046  -16.9093   21.0842 C   0  0  2  0  0  0  0  0  0  0  0  0
    7.5995  -16.0777   19.9977 N   0  0  0  0  0  0  0  0  0  0  0  0
    9.2718  -17.3382   21.2853 C   0  0  0  0  0  0  0  0  0  0  0  0
    9.7281  -18.1900   20.4478 O   0  0  0  0  0  0  0  0  0  0  0  0
   15.7667  -15.0433   16.8240 N   0  0  0  0  0  0  0  0  0  0  0  0
   14.6726  -15.0758   17.7251 C   0  0  0  0  0  0  0  0  0  0  0  0
   13.6986  -15.9391   17.5754 N   0  0  0  0  0  0  0  0  0  0  0  0
   14.4920  -14.2217   18.8199 N   0  0  0  0  0  0  0  0  0  0  0  0
   13.5714  -14.1893   19.8694 C   0  0  0  0  0  0  0  0  0  0  0  0
   13.2094  -15.3101   20.7208 C   0  0  0  0  0  0  0  0  0  0  0  0
   11.8253  -15.5682   21.1374 C   0  0  0  0  0  0  0  0  0  0  0  0
   11.6003  -16.7128   22.0823 C   0  0  2  0  0  0  0  0  0  0  0  0
   10.1551  -16.9290   22.2897 N   0  0  0  0  0  0  0  0  0  0  0  0
   12.3278  -16.7211   23.3355 C   0  0  0  0  0  0  0  0  0  0  0  0
   11.6918  -16.6528   24.4591 O   0  0  0  0  0  0  0  0  0  0  0  0
   13.7011  -16.8003   23.5072 O   0  0  0  0  0  0  0  0  0  0  0  0
  2  5  1  0
  2  1  1  1
  3  2  1  0
  4  3  1  0
  5  6  2  0
  7  8  1  0
  8 10  1  0
  9  8  2  0
 11 10  1  6
 12  5  1  0
 12 11  1  0
 13 23  1  0
 13 11  1  0
 14 13  2  0
 15 16  1  0
 16 18  1  0
 16 17  2  0
 18 19  1  0
 20 19  1  0
 21 20  1  0
 22 23  1  0
 22 21  1  1
 24 22  1  0
 25 24  2  0
 26 24  1  0
M  END
$$$$
