CNR.pdb
     RDKit          3D

 26 25  0  0  1  0  0  0  0  0999 V2000
    9.7710  -17.1338   14.3174 N   0  0  0  0  0  0  0  0  0  0  0  0
   10.2985  -16.4600   15.4831 C   0  0  1  0  0  0  0  0  0  0  0  0
    9.1469  -15.9640   16.3321 C   0  0  0  0  0  0  0  0  0  0  0  0
    8.3048  -14.5644   15.5962 S   0  0  0  0  0  0  0  0  0  0  0  0
   11.1142  -17.4706   16.2760 C   0  0  0  0  0  0  0  0  0  0  0  0
   10.7999  -18.6810   16.2349 O   0  0  0  0  0  0  0  0  0  0  0  0
   15.6762  -19.6578   17.8477 N   0  0  0  0  0  0  0  0  0  0  0  0
   15.3938  -18.4416   18.5680 C   0  0  0  0  0  0  0  0  0  0  0  0
   15.8584  -18.2784   19.7241 O   0  0  0  0  0  0  0  0  0  0  0  0
   14.5481  -17.4698   17.8347 C   0  0  0  0  0  0  0  0  0  0  0  0
   13.0761  -17.8405   17.8187 C   0  0  2  0  0  0  0  0  0  0  0  0
   12.2110  -17.0506   17.0487 N   0  0  0  0  0  0  0  0  0  0  0  0
   12.6681  -18.2508   19.1449 C   0  0  0  0  0  0  0  0  0  0  0  0
   12.4470  -17.3133   19.9858 O   0  0  0  0  0  0  0  0  0  0  0  0
   10.3856  -25.3765   18.9397 N   0  0  0  0  0  0  0  0  0  0  0  0
    9.5709  -24.4900   18.1911 C   0  0  0  0  0  0  0  0  0  0  0  0
    9.1525  -24.8067   16.9906 N   0  0  0  0  0  0  0  0  0  0  0  0
    9.1485  -23.2217   18.6078 N   0  0  0  0  0  0  0  0  0  0  0  0
    9.3386  -22.4841   19.7781 C   0  0  0  0  0  0  0  0  0  0  0  0
   10.1621  -21.2940   19.9115 C   0  0  0  0  0  0  0  0  0  0  0  0
   11.2113  -21.1721   20.9313 C   0  0  0  0  0  0  0  0  0  0  0  0
   11.9838  -19.8853   20.9638 C   0  0  2  0  0  0  0  0  0  0  0  0
   12.4858  -19.5553   19.6157 N   0  0  0  0  0  0  0  0  0  0  0  0
   13.0133  -19.7284   21.9714 C   0  0  0  0  0  0  0  0  0  0  0  0
   14.0271  -20.5304   21.9982 O   0  0  0  0  0  0  0  0  0  0  0  0
   13.0663  -18.7726   22.9741 O   0  0  0  0  0  0  0  0  0  0  0  0
  2  5  1  0
  2  1  1  6
  3  2  1  0
  4  3  1  0
  5  6  2  0
  7  8  1  0
  8 10  1  0
  9  8  2  0
 11 10  1  1
 12  5  1  0
 12 11  1  0
 13 23  1  0
 13 11  1  0
 14 13  2  0
 15 16  1  0
 16 18  1  0
 16 17  2  0
 18 19  1  0
 20 19  1  0
 21 20  1  0
 22 23  1  0
 22 21  1  6
 24 22  1  0
 25 24  2  0
 26 24  1  0
M  END
$$$$
