CNR.pdb
     RDKit          3D

 26 25  0  0  1  0  0  0  0  0999 V2000
    9.6350  -15.0958   16.9597 N   0  0  0  0  0  0  0  0  0  0  0  0
    8.8833  -14.4249   17.9969 C   0  0  1  0  0  0  0  0  0  0  0  0
    7.6131  -13.8565   17.3995 C   0  0  0  0  0  0  0  0  0  0  0  0
    6.7577  -12.7563   18.5253 S   0  0  0  0  0  0  0  0  0  0  0  0
    8.5272  -15.4574   19.0563 C   0  0  0  0  0  0  0  0  0  0  0  0
    7.3405  -15.8375   19.1688 O   0  0  0  0  0  0  0  0  0  0  0  0
    7.1647  -18.0596   18.4301 N   0  0  0  0  0  0  0  0  0  0  0  0
    7.2832  -17.9684   19.8638 C   0  0  0  0  0  0  0  0  0  0  0  0
    6.2812  -17.6555   20.5545 O   0  0  0  0  0  0  0  0  0  0  0  0
    8.6349  -18.2674   20.3937 C   0  0  0  0  0  0  0  0  0  0  0  0
    9.4031  -17.0307   20.8236 C   0  0  2  0  0  0  0  0  0  0  0  0
    9.5206  -15.9806   19.9024 N   0  0  0  0  0  0  0  0  0  0  0  0
   10.5601  -17.4267   21.5970 C   0  0  0  0  0  0  0  0  0  0  0  0
   11.1361  -18.5114   21.2412 O   0  0  0  0  0  0  0  0  0  0  0  0
   17.2928  -13.3434   20.4238 N   0  0  0  0  0  0  0  0  0  0  0  0
   16.2309  -13.9080   19.6731 C   0  0  0  0  0  0  0  0  0  0  0  0
   16.1082  -13.6703   18.3906 N   0  0  0  0  0  0  0  0  0  0  0  0
   15.2195  -14.7314   20.1827 N   0  0  0  0  0  0  0  0  0  0  0  0
   14.7957  -15.0410   21.4767 C   0  0  0  0  0  0  0  0  0  0  0  0
   13.8590  -16.0917   21.8385 C   0  0  0  0  0  0  0  0  0  0  0  0
   13.4729  -16.3581   23.2298 C   0  0  0  0  0  0  0  0  0  0  0  0
   12.2895  -17.2554   23.4486 C   0  0  2  0  0  0  0  0  0  0  0  0
   11.1243  -16.7603   22.6898 N   0  0  0  0  0  0  0  0  0  0  0  0
   11.9334  -17.6018   24.8099 C   0  0  0  0  0  0  0  0  0  0  0  0
   12.8095  -18.1345   25.5976 O   0  0  0  0  0  0  0  0  0  0  0  0
   10.7037  -17.4264   25.4254 O   0  0  0  0  0  0  0  0  0  0  0  0
  2  5  1  0
  2  1  1  6
  3  2  1  0
  4  3  1  0
  5  6  2  0
  7  8  1  0
  8 10  1  0
  9  8  2  0
 11 10  1  6
 12  5  1  0
 12 11  1  0
 13 23  1  0
 13 11  1  0
 14 13  2  0
 15 16  1  0
 16 18  1  0
 16 17  2  0
 18 19  1  0
 20 19  1  0
 21 20  1  0
 22 23  1  0
 22 21  1  1
 24 22  1  0
 25 24  2  0
 26 24  1  0
M  END
$$$$
