HVV.pdb
     RDKit          3D

 25 25  0  0  1  0  0  0  0  0999 V2000
   22.7705  -20.0821  -17.1338 N   0  0  0  0  0  0  0  0  0  0  0  0
   23.1412  -19.2608  -16.0032 C   0  0  1  0  0  0  0  0  0  0  0  0
   21.9455  -18.7161  -15.3016 C   0  0  0  0  0  0  0  0  0  0  0  0
   21.3462  -17.6614  -16.1568 C   0  0  0  0  0  0  0  0  0  0  0  0
   21.7742  -17.1361  -17.3476 C   0  0  0  0  0  0  0  0  0  0  0  0
   20.9000  -16.1871  -17.7646 N   0  0  0  0  0  0  0  0  0  0  0  0
   19.9286  -16.1172  -16.8405 C   0  0  0  0  0  0  0  0  0  0  0  0
   20.2050  -17.0171  -15.8633 N   0  0  0  0  0  0  0  0  0  0  0  0
   24.0885  -19.9895  -15.1545 C   0  0  0  0  0  0  0  0  0  0  0  0
   23.6796  -21.0372  -14.5893 O   0  0  0  0  0  0  0  0  0  0  0  0
   27.7950  -20.8851  -15.8498 C   0  0  0  0  0  0  0  0  0  0  0  0
   27.6528  -20.2534  -14.4892 C   0  0  1  0  0  0  0  0  0  0  0  0
   28.2582  -18.9035  -14.3570 C   0  0  0  0  0  0  0  0  0  0  0  0
   26.2280  -20.3675  -13.9808 C   0  0  2  0  0  0  0  0  0  0  0  0
   25.4239  -19.6046  -14.9241 N   0  0  0  0  0  0  0  0  0  0  0  0
   26.0537  -19.8984  -12.6045 C   0  0  0  0  0  0  0  0  0  0  0  0
   25.7695  -18.6690  -12.3840 O   0  0  0  0  0  0  0  0  0  0  0  0
   24.9530  -22.2671   -9.4102 C   0  0  0  0  0  0  0  0  0  0  0  0
   24.9114  -20.7551   -9.3891 C   0  0  1  0  0  0  0  0  0  0  0  0
   24.8936  -20.3093   -7.9484 C   0  0  0  0  0  0  0  0  0  0  0  0
   26.0967  -20.1501  -10.1021 C   0  0  2  0  0  0  0  0  0  0  0  0
   26.1766  -20.7196  -11.4598 N   0  0  0  0  0  0  0  0  0  0  0  0
   27.3177  -20.5063   -9.3461 C   0  0  0  0  0  0  0  0  0  0  0  0
   28.1431  -21.5398   -9.7359 O   0  0  0  0  0  0  0  0  0  0  0  0
   27.6198  -19.8557   -8.3197 O   0  0  0  0  0  0  0  0  0  0  0  0
  2  1  1  6
  3  2  1  0
  3  4  1  0
  4  8  1  0
  5  4  2  0
  5  6  1  0
  6  7  1  0
  8  7  2  0
  9 10  2  0
  9  2  1  0
 12 11  1  6
 12 14  1  0
 13 12  1  0
 14 16  1  0
 14 15  1  6
 15  9  1  0
 16 22  1  0
 17 16  2  0
 19 18  1  1
 19 21  1  0
 20 19  1  0
 21 23  1  0
 21 22  1  6
 23 25  2  0
 23 24  1  0
M  END
$$$$
