HVV.pdb
     RDKit          3D

 25 25  0  0  1  0  0  0  0  0999 V2000
   23.4132  -20.0655  -16.9401 N   0  0  0  0  0  0  0  0  0  0  0  0
   23.8558  -19.1678  -15.8967 C   0  0  1  0  0  0  0  0  0  0  0  0
   22.7284  -18.3673  -15.3430 C   0  0  0  0  0  0  0  0  0  0  0  0
   22.3120  -17.3801  -16.3701 C   0  0  0  0  0  0  0  0  0  0  0  0
   21.0794  -17.1345  -16.9156 C   0  0  0  0  0  0  0  0  0  0  0  0
   21.1773  -16.1327  -17.8242 N   0  0  0  0  0  0  0  0  0  0  0  0
   22.4644  -15.7516  -17.8488 C   0  0  0  0  0  0  0  0  0  0  0  0
   23.1514  -16.5143  -16.9614 N   0  0  0  0  0  0  0  0  0  0  0  0
   24.6422  -19.9113  -14.9080 C   0  0  0  0  0  0  0  0  0  0  0  0
   24.0691  -20.8455  -14.2892 O   0  0  0  0  0  0  0  0  0  0  0  0
   28.6217  -19.0640  -14.1748 C   0  0  0  0  0  0  0  0  0  0  0  0
   28.0971  -20.4426  -13.8669 C   0  0  1  0  0  0  0  0  0  0  0  0
   28.9382  -21.2421  -12.9398 C   0  0  0  0  0  0  0  0  0  0  0  0
   26.6220  -20.3991  -13.5151 C   0  0  2  0  0  0  0  0  0  0  0  0
   25.9929  -19.6580  -14.5984 N   0  0  0  0  0  0  0  0  0  0  0  0
   26.3451  -19.8019  -12.2070 C   0  0  0  0  0  0  0  0  0  0  0  0
   26.3097  -18.5272  -12.0857 O   0  0  0  0  0  0  0  0  0  0  0  0
   23.4766  -20.2102   -9.8473 C   0  0  0  0  0  0  0  0  0  0  0  0
   24.7313  -20.4199   -9.0288 C   0  0  1  0  0  0  0  0  0  0  0  0
   24.8938  -21.9011   -8.7956 C   0  0  0  0  0  0  0  0  0  0  0  0
   25.9539  -19.8695   -9.7231 C   0  0  2  0  0  0  0  0  0  0  0  0
   26.1041  -20.5423  -11.0264 N   0  0  0  0  0  0  0  0  0  0  0  0
   27.1326  -20.1634   -8.8784 C   0  0  0  0  0  0  0  0  0  0  0  0
   27.3942  -19.4630   -7.7197 O   0  0  0  0  0  0  0  0  0  0  0  0
   27.9229  -21.0738   -9.2170 O   0  0  0  0  0  0  0  0  0  0  0  0
  2  1  1  6
  3  2  1  0
  3  4  1  0
  4  8  1  0
  5  4  2  0
  5  6  1  0
  6  7  1  0
  8  7  2  0
  9 10  2  0
  9  2  1  0
 12 11  1  1
 12 14  1  0
 13 12  1  0
 14 16  1  0
 14 15  1  6
 15  9  1  0
 16 22  1  0
 17 16  2  0
 19 18  1  6
 19 21  1  0
 20 19  1  0
 21 23  1  0
 21 22  1  6
 23 25  2  0
 23 24  1  0
M  END
$$$$
