HVV.pdb
     RDKit          3D

 25 25  0  0  1  0  0  0  0  0999 V2000
   21.4335  -12.6704  -19.1378 N   0  0  0  0  0  0  0  0  0  0  0  0
   22.1925  -11.6965  -18.3856 C   0  0  1  0  0  0  0  0  0  0  0  0
   23.4447  -11.3079  -19.0923 C   0  0  0  0  0  0  0  0  0  0  0  0
   24.3132  -12.5074  -19.1906 C   0  0  0  0  0  0  0  0  0  0  0  0
   24.4232  -13.4433  -20.1852 C   0  0  0  0  0  0  0  0  0  0  0  0
   25.3535  -14.3666  -19.8378 N   0  0  0  0  0  0  0  0  0  0  0  0
   25.8249  -14.0121  -18.6318 C   0  0  0  0  0  0  0  0  0  0  0  0
   25.1881  -12.8791  -18.2419 N   0  0  0  0  0  0  0  0  0  0  0  0
   21.3197  -10.5842  -17.9983 C   0  0  0  0  0  0  0  0  0  0  0  0
   20.9204   -9.8115  -18.9080 O   0  0  0  0  0  0  0  0  0  0  0  0
   18.9101  -11.3028  -15.5325 C   0  0  0  0  0  0  0  0  0  0  0  0
   18.6547   -9.9110  -16.0504 C   0  0  1  0  0  0  0  0  0  0  0  0
   17.7485   -9.0852  -15.2119 C   0  0  0  0  0  0  0  0  0  0  0  0
   19.9506   -9.2315  -16.4512 C   0  0  2  0  0  0  0  0  0  0  0  0
   20.8942  -10.3153  -16.6826 N   0  0  0  0  0  0  0  0  0  0  0  0
   20.4455   -8.2740  -15.4599 C   0  0  0  0  0  0  0  0  0  0  0  0
   20.9338   -8.6995  -14.3548 O   0  0  0  0  0  0  0  0  0  0  0  0
   21.1737   -4.2968  -16.4569 C   0  0  0  0  0  0  0  0  0  0  0  0
   21.8755   -4.9514  -15.2876 C   0  0  1  0  0  0  0  0  0  0  0  0
   22.2617   -3.8694  -14.3104 C   0  0  0  0  0  0  0  0  0  0  0  0
   20.9979   -5.9734  -14.6058 C   0  0  2  0  0  0  0  0  0  0  0  0
   20.4290   -6.8700  -15.6287 N   0  0  0  0  0  0  0  0  0  0  0  0
   19.9034   -5.2530  -13.9186 C   0  0  0  0  0  0  0  0  0  0  0  0
   20.0509   -4.7413  -12.6466 O   0  0  0  0  0  0  0  0  0  0  0  0
   18.8057   -5.0979  -14.5008 O   0  0  0  0  0  0  0  0  0  0  0  0
  2  1  1  6
  3  2  1  0
  3  4  1  0
  4  8  1  0
  5  4  2  0
  5  6  1  0
  6  7  1  0
  8  7  2  0
  9 10  2  0
  9  2  1  0
 12 11  1  1
 12 14  1  0
 13 12  1  0
 14 16  1  0
 14 15  1  1
 15  9  1  0
 16 22  1  0
 17 16  2  0
 19 18  1  6
 19 21  1  0
 20 19  1  0
 21 23  1  0
 21 22  1  6
 23 25  2  0
 23 24  1  0
M  END
$$$$
