HVV.pdb
     RDKit          3D

 25 25  0  0  1  0  0  0  0  0999 V2000
   14.5642  -22.2278   -2.1200 N   0  0  0  0  0  0  0  0  0  0  0  0
   14.2593  -22.7856   -0.8215 C   0  0  1  0  0  0  0  0  0  0  0  0
   13.8665  -24.2192   -0.9156 C   0  0  0  0  0  0  0  0  0  0  0  0
   12.6059  -24.3047   -1.6943 C   0  0  0  0  0  0  0  0  0  0  0  0
   11.3274  -23.9491   -1.3535 C   0  0  0  0  0  0  0  0  0  0  0  0
   10.4929  -24.2097   -2.3901 N   0  0  0  0  0  0  0  0  0  0  0  0
   11.2437  -24.7260   -3.3762 C   0  0  0  0  0  0  0  0  0  0  0  0
   12.5299  -24.7818   -2.9474 N   0  0  0  0  0  0  0  0  0  0  0  0
   15.3541  -22.4949    0.1088 C   0  0  0  0  0  0  0  0  0  0  0  0
   16.5308  -22.5790   -0.3299 O   0  0  0  0  0  0  0  0  0  0  0  0
   15.8434  -19.3484    1.9707 C   0  0  0  0  0  0  0  0  0  0  0  0
   15.9871  -20.4825    2.9524 C   0  0  1  0  0  0  0  0  0  0  0  0
   14.8818  -20.6049    3.9370 C   0  0  0  0  0  0  0  0  0  0  0  0
   16.3592  -21.7723    2.2456 C   0  0  2  0  0  0  0  0  0  0  0  0
   15.1875  -22.1280    1.4587 N   0  0  0  0  0  0  0  0  0  0  0  0
   16.7586  -22.8488    3.1545 C   0  0  0  0  0  0  0  0  0  0  0  0
   15.8619  -23.5701    3.7170 O   0  0  0  0  0  0  0  0  0  0  0  0
   19.3954  -25.6187    2.4035 C   0  0  0  0  0  0  0  0  0  0  0  0
   19.6534  -25.0097    3.7640 C   0  0  1  0  0  0  0  0  0  0  0  0
   20.7739  -24.0101    3.6225 C   0  0  0  0  0  0  0  0  0  0  0  0
   18.4237  -24.3316    4.3188 C   0  0  2  0  0  0  0  0  0  0  0  0
   18.0989  -23.1690    3.4722 N   0  0  0  0  0  0  0  0  0  0  0  0
   18.7331  -23.8710    5.6904 C   0  0  0  0  0  0  0  0  0  0  0  0
   18.7215  -24.7293    6.7696 O   0  0  0  0  0  0  0  0  0  0  0  0
   19.0153  -22.6671    5.8881 O   0  0  0  0  0  0  0  0  0  0  0  0
  2  1  1  6
  3  2  1  0
  3  4  1  0
  4  8  1  0
  5  4  2  0
  5  6  1  0
  6  7  1  0
  8  7  2  0
  9 10  2  0
  9  2  1  0
 12 11  1  6
 12 14  1  0
 13 12  1  0
 14 16  1  0
 14 15  1  1
 15  9  1  0
 16 22  1  0
 17 16  2  0
 19 18  1  6
 19 21  1  0
 20 19  1  0
 21 23  1  0
 21 22  1  6
 23 25  2  0
 23 24  1  0
M  END
$$$$
