HVV.pdb
     RDKit          3D

 25 25  0  0  1  0  0  0  0  0999 V2000
   18.9809  -13.7258  -18.3698 N   0  0  0  0  0  0  0  0  0  0  0  0
   19.6279  -12.5064  -18.7997 C   0  0  1  0  0  0  0  0  0  0  0  0
   18.8705  -11.8362  -19.8932 C   0  0  0  0  0  0  0  0  0  0  0  0
   18.9231  -12.7061  -21.0946 C   0  0  0  0  0  0  0  0  0  0  0  0
   18.0189  -13.6204  -21.5674 C   0  0  0  0  0  0  0  0  0  0  0  0
   18.4951  -14.1814  -22.7065 N   0  0  0  0  0  0  0  0  0  0  0  0
   19.6916  -13.6220  -22.9472 C   0  0  0  0  0  0  0  0  0  0  0  0
   19.9478  -12.7241  -21.9626 N   0  0  0  0  0  0  0  0  0  0  0  0
   19.9213  -11.6672  -17.6342 C   0  0  0  0  0  0  0  0  0  0  0  0
   19.0167  -11.5318  -16.7696 O   0  0  0  0  0  0  0  0  0  0  0  0
   23.0037   -9.6385  -14.5026 C   0  0  0  0  0  0  0  0  0  0  0  0
   22.5741  -10.6085  -15.5727 C   0  0  1  0  0  0  0  0  0  0  0  0
   22.6099  -12.0391  -15.1748 C   0  0  0  0  0  0  0  0  0  0  0  0
   21.2821  -10.1598  -16.2291 C   0  0  2  0  0  0  0  0  0  0  0  0
   21.1416  -11.0002  -17.4092 N   0  0  0  0  0  0  0  0  0  0  0  0
   21.2544   -8.7342  -16.5630 C   0  0  0  0  0  0  0  0  0  0  0  0
   22.1789   -8.2358  -17.2961 O   0  0  0  0  0  0  0  0  0  0  0  0
   18.9384   -4.4207  -17.1082 C   0  0  0  0  0  0  0  0  0  0  0  0
   18.9453   -5.8997  -16.7907 C   0  0  1  0  0  0  0  0  0  0  0  0
   18.4083   -6.6369  -17.9920 C   0  0  0  0  0  0  0  0  0  0  0  0
   20.3314   -6.3967  -16.4572 C   0  0  2  0  0  0  0  0  0  0  0  0
   20.2558   -7.8320  -16.1284 N   0  0  0  0  0  0  0  0  0  0  0  0
   20.8166   -5.6462  -15.2780 C   0  0  0  0  0  0  0  0  0  0  0  0
   21.5829   -4.5065  -15.4017 O   0  0  0  0  0  0  0  0  0  0  0  0
   20.5282   -6.0497  -14.1282 O   0  0  0  0  0  0  0  0  0  0  0  0
  2  1  1  1
  3  2  1  0
  3  4  1  0
  4  8  1  0
  5  4  2  0
  5  6  1  0
  6  7  1  0
  8  7  2  0
  9 10  2  0
  9  2  1  0
 12 11  1  1
 12 14  1  0
 13 12  1  0
 14 16  1  0
 14 15  1  6
 15  9  1  0
 16 22  1  0
 17 16  2  0
 19 18  1  6
 19 21  1  0
 20 19  1  0
 21 23  1  0
 21 22  1  1
 23 25  2  0
 23 24  1  0
M  END
$$$$
