HVV.pdb
     RDKit          3D

 25 25  0  0  1  0  0  0  0  0999 V2000
   29.9154  -22.8611  -17.4025 N   0  0  0  0  0  0  0  0  0  0  0  0
   28.4822  -22.7654  -17.2377 C   0  0  1  0  0  0  0  0  0  0  0  0
   27.8360  -24.1073  -17.2396 C   0  0  0  0  0  0  0  0  0  0  0  0
   27.7013  -24.5555  -18.6481 C   0  0  0  0  0  0  0  0  0  0  0  0
   26.6830  -24.3667  -19.5450 C   0  0  0  0  0  0  0  0  0  0  0  0
   27.0003  -24.9598  -20.7224 N   0  0  0  0  0  0  0  0  0  0  0  0
   28.2113  -25.5178  -20.5652 C   0  0  0  0  0  0  0  0  0  0  0  0
   28.6340  -25.2687  -19.3001 N   0  0  0  0  0  0  0  0  0  0  0  0
   28.1749  -21.9228  -16.0783 C   0  0  0  0  0  0  0  0  0  0  0  0
   28.6710  -22.2521  -14.9694 O   0  0  0  0  0  0  0  0  0  0  0  0
   25.7731  -18.5454  -16.3497 C   0  0  0  0  0  0  0  0  0  0  0  0
   26.8807  -18.5957  -15.3294 C   0  0  1  0  0  0  0  0  0  0  0  0
   26.7649  -17.6069  -14.2271 C   0  0  0  0  0  0  0  0  0  0  0  0
   27.1479  -20.0211  -14.8838 C   0  0  2  0  0  0  0  0  0  0  0  0
   27.3650  -20.7707  -16.1124 N   0  0  0  0  0  0  0  0  0  0  0  0
   26.0738  -20.5961  -14.0714 C   0  0  0  0  0  0  0  0  0  0  0  0
   25.0709  -21.1496  -14.6447 O   0  0  0  0  0  0  0  0  0  0  0  0
   26.6061  -22.1115  -10.3433 C   0  0  0  0  0  0  0  0  0  0  0  0
   25.3136  -21.3357  -10.4689 C   0  0  1  0  0  0  0  0  0  0  0  0
   25.5092  -19.9939   -9.8086 C   0  0  0  0  0  0  0  0  0  0  0  0
   24.9089  -21.1473  -11.9112 C   0  0  2  0  0  0  0  0  0  0  0  0
   26.0526  -20.5913  -12.6573 N   0  0  0  0  0  0  0  0  0  0  0  0
   23.7825  -20.1887  -11.9503 C   0  0  0  0  0  0  0  0  0  0  0  0
   22.4883  -20.5700  -11.6654 O   0  0  0  0  0  0  0  0  0  0  0  0
   24.0002  -18.9925  -12.2500 O   0  0  0  0  0  0  0  0  0  0  0  0
  2  1  1  1
  3  2  1  0
  3  4  1  0
  4  8  1  0
  5  4  2  0
  5  6  1  0
  6  7  1  0
  8  7  2  0
  9 10  2  0
  9  2  1  0
 12 11  1  1
 12 14  1  0
 13 12  1  0
 14 16  1  0
 14 15  1  6
 15  9  1  0
 16 22  1  0
 17 16  2  0
 19 18  1  6
 19 21  1  0
 20 19  1  0
 21 23  1  0
 21 22  1  6
 23 25  2  0
 23 24  1  0
M  END
$$$$
