HVV.pdb
     RDKit          3D

 25 25  0  0  1  0  0  0  0  0999 V2000
   20.9028  -11.8470  -16.4578 N   0  0  0  0  0  0  0  0  0  0  0  0
   20.0397  -10.7708  -16.0252 C   0  0  1  0  0  0  0  0  0  0  0  0
   18.9857  -11.2515  -15.0890 C   0  0  0  0  0  0  0  0  0  0  0  0
   17.9720  -11.9978  -15.8753 C   0  0  0  0  0  0  0  0  0  0  0  0
   17.8964  -12.2398  -17.2217 C   0  0  0  0  0  0  0  0  0  0  0  0
   16.7863  -12.9713  -17.4891 N   0  0  0  0  0  0  0  0  0  0  0  0
   16.1686  -13.1871  -16.3168 C   0  0  0  0  0  0  0  0  0  0  0  0
   16.8946  -12.5922  -15.3369 N   0  0  0  0  0  0  0  0  0  0  0  0
   20.8528   -9.6542  -15.5344 C   0  0  0  0  0  0  0  0  0  0  0  0
   21.6830   -9.8946  -14.6194 O   0  0  0  0  0  0  0  0  0  0  0  0
   21.4211   -6.4795  -17.7300 C   0  0  0  0  0  0  0  0  0  0  0  0
   22.3155   -6.6164  -16.5251 C   0  0  1  0  0  0  0  0  0  0  0  0
   23.0539   -5.3841  -16.1476 C   0  0  0  0  0  0  0  0  0  0  0  0
   21.5907   -7.3025  -15.3826 C   0  0  2  0  0  0  0  0  0  0  0  0
   20.7745   -8.3309  -16.0110 N   0  0  0  0  0  0  0  0  0  0  0  0
   20.7910   -6.3922  -14.5603 C   0  0  0  0  0  0  0  0  0  0  0  0
   19.6740   -5.9503  -15.0051 O   0  0  0  0  0  0  0  0  0  0  0  0
   19.4546   -4.6311  -10.1586 C   0  0  0  0  0  0  0  0  0  0  0  0
   20.3558   -5.4772  -11.0305 C   0  0  1  0  0  0  0  0  0  0  0  0
   19.9373   -6.9178  -10.8741 C   0  0  0  0  0  0  0  0  0  0  0  0
   20.2759   -5.0712  -12.4825 C   0  0  2  0  0  0  0  0  0  0  0  0
   21.1629   -5.9464  -13.2707 N   0  0  0  0  0  0  0  0  0  0  0  0
   20.7403   -3.6708  -12.5936 C   0  0  0  0  0  0  0  0  0  0  0  0
   19.8615   -2.6082  -12.6048 O   0  0  0  0  0  0  0  0  0  0  0  0
   21.9665   -3.4323  -12.6808 O   0  0  0  0  0  0  0  0  0  0  0  0
  2  1  1  1
  3  2  1  0
  3  4  1  0
  4  8  1  0
  5  4  2  0
  5  6  1  0
  6  7  1  0
  8  7  2  0
  9 10  2  0
  9  2  1  0
 12 11  1  6
 12 14  1  0
 13 12  1  0
 14 16  1  0
 14 15  1  6
 15  9  1  0
 16 22  1  0
 17 16  2  0
 19 18  1  1
 19 21  1  0
 20 19  1  0
 21 23  1  0
 21 22  1  6
 23 25  2  0
 23 24  1  0
M  END
$$$$
