HVV.pdb
     RDKit          3D

 25 25  0  0  1  0  0  0  0  0999 V2000
   28.4446  -21.7351  -17.2886 N   0  0  0  0  0  0  0  0  0  0  0  0
   28.3157  -23.0939  -16.8116 C   0  0  1  0  0  0  0  0  0  0  0  0
   26.9401  -23.6244  -17.0229 C   0  0  0  0  0  0  0  0  0  0  0  0
   25.9941  -22.7816  -16.2498 C   0  0  0  0  0  0  0  0  0  0  0  0
   25.1888  -21.7507  -16.6570 C   0  0  0  0  0  0  0  0  0  0  0  0
   24.4915  -21.2741  -15.5962 N   0  0  0  0  0  0  0  0  0  0  0  0
   24.8571  -22.0020  -14.5290 C   0  0  0  0  0  0  0  0  0  0  0  0
   25.7725  -22.9189  -14.9323 N   0  0  0  0  0  0  0  0  0  0  0  0
   29.3966  -23.9149  -17.3653 C   0  0  0  0  0  0  0  0  0  0  0  0
   29.7168  -23.7247  -18.5676 O   0  0  0  0  0  0  0  0  0  0  0  0
   32.8079  -23.6435  -16.8142 C   0  0  0  0  0  0  0  0  0  0  0  0
   32.4536  -25.0680  -16.4738 C   0  0  1  0  0  0  0  0  0  0  0  0
   32.3923  -25.3701  -15.0208 C   0  0  0  0  0  0  0  0  0  0  0  0
   31.2548  -25.5387  -17.2756 C   0  0  2  0  0  0  0  0  0  0  0  0
   30.1044  -24.9018  -16.6516 N   0  0  0  0  0  0  0  0  0  0  0  0
   31.1155  -26.9955  -17.3279 C   0  0  0  0  0  0  0  0  0  0  0  0
   30.4535  -27.6032  -16.4150 O   0  0  0  0  0  0  0  0  0  0  0  0
   29.9461  -29.3473  -20.2765 C   0  0  0  0  0  0  0  0  0  0  0  0
   31.2896  -29.7701  -19.7248 C   0  0  1  0  0  0  0  0  0  0  0  0
   32.3610  -29.2119  -20.6277 C   0  0  0  0  0  0  0  0  0  0  0  0
   31.4972  -29.2786  -18.3124 C   0  0  2  0  0  0  0  0  0  0  0  0
   31.6699  -27.8146  -18.3387 N   0  0  0  0  0  0  0  0  0  0  0  0
   32.7260  -29.9100  -17.7827 C   0  0  0  0  0  0  0  0  0  0  0  0
   32.7270  -31.1897  -17.2690 O   0  0  0  0  0  0  0  0  0  0  0  0
   33.8032  -29.2715  -17.7966 O   0  0  0  0  0  0  0  0  0  0  0  0
  2  1  1  6
  3  2  1  0
  3  4  1  0
  4  8  1  0
  5  4  2  0
  5  6  1  0
  6  7  1  0
  8  7  2  0
  9 10  2  0
  9  2  1  0
 12 11  1  1
 12 14  1  0
 13 12  1  0
 14 16  1  0
 14 15  1  1
 15  9  1  0
 16 22  1  0
 17 16  2  0
 19 18  1  6
 19 21  1  0
 20 19  1  0
 21 23  1  0
 21 22  1  6
 23 25  2  0
 23 24  1  0
M  END
$$$$
