HVV.pdb
     RDKit          3D

 25 25  0  0  1  0  0  0  0  0999 V2000
   13.4869  -20.3691   -5.8151 N   0  0  0  0  0  0  0  0  0  0  0  0
   12.1217  -20.2303   -5.3597 C   0  0  1  0  0  0  0  0  0  0  0  0
   11.2543  -21.3259   -5.8750 C   0  0  0  0  0  0  0  0  0  0  0  0
   11.1356  -21.1707   -7.3463 C   0  0  0  0  0  0  0  0  0  0  0  0
   10.4682  -20.2315   -8.0877 C   0  0  0  0  0  0  0  0  0  0  0  0
   10.6418  -20.4891   -9.4077 N   0  0  0  0  0  0  0  0  0  0  0  0
   11.4140  -21.5840   -9.4941 C   0  0  0  0  0  0  0  0  0  0  0  0
   11.7121  -21.9953   -8.2359 N   0  0  0  0  0  0  0  0  0  0  0  0
   12.1039  -20.0474   -3.9054 C   0  0  0  0  0  0  0  0  0  0  0  0
   12.8995  -20.7411   -3.2200 O   0  0  0  0  0  0  0  0  0  0  0  0
    9.6711  -17.2324   -2.0292 C   0  0  0  0  0  0  0  0  0  0  0  0
   11.0562  -17.5277   -1.5147 C   0  0  1  0  0  0  0  0  0  0  0  0
   11.3271  -17.0551   -0.1329 C   0  0  0  0  0  0  0  0  0  0  0  0
   11.4425  -18.9699   -1.7842 C   0  0  2  0  0  0  0  0  0  0  0  0
   11.2619  -19.1521   -3.2169 N   0  0  0  0  0  0  0  0  0  0  0  0
   10.6728  -19.9420   -1.0050 C   0  0  0  0  0  0  0  0  0  0  0  0
    9.4664  -20.2118   -1.3402 O   0  0  0  0  0  0  0  0  0  0  0  0
   11.6712  -23.4922   -0.1114 C   0  0  0  0  0  0  0  0  0  0  0  0
   11.1643  -22.8310    1.1512 C   0  0  1  0  0  0  0  0  0  0  0  0
   12.3587  -22.4508    1.9902 C   0  0  0  0  0  0  0  0  0  0  0  0
   10.3340  -21.6065    0.8502 C   0  0  2  0  0  0  0  0  0  0  0  0
   11.1696  -20.6317    0.1253 N   0  0  0  0  0  0  0  0  0  0  0  0
    9.8975  -21.0204    2.1368 C   0  0  0  0  0  0  0  0  0  0  0  0
    8.8422  -21.5405    2.8561 O   0  0  0  0  0  0  0  0  0  0  0  0
   10.4978  -20.0216    2.5953 O   0  0  0  0  0  0  0  0  0  0  0  0
  2  1  1  1
  3  2  1  0
  3  4  1  0
  4  8  1  0
  5  4  2  0
  5  6  1  0
  6  7  1  0
  8  7  2  0
  9 10  2  0
  9  2  1  0
 12 11  1  1
 12 14  1  0
 13 12  1  0
 14 16  1  0
 14 15  1  6
 15  9  1  0
 16 22  1  0
 17 16  2  0
 19 18  1  6
 19 21  1  0
 20 19  1  0
 21 23  1  0
 21 22  1  1
 23 25  2  0
 23 24  1  0
M  END
$$$$
