ACH.pdb
     RDKit          3D

 22 22  0  0  1  0  0  0  0  0999 V2000
    6.4476  -14.7186   20.2673 C   0  0  0  0  0  0  0  0  0  0  0  0
    7.1370  -13.4214   20.6331 C   0  0  2  0  0  0  0  0  0  0  0  0
    8.0236  -13.0255   19.5532 N   0  0  0  0  0  0  0  0  0  0  0  0
    7.9768  -13.5876   21.8470 C   0  0  0  0  0  0  0  0  0  0  0  0
    9.1920  -13.8511   21.6848 O   0  0  0  0  0  0  0  0  0  0  0  0
    7.4702  -13.4629   23.1668 N   0  0  0  0  0  0  0  0  0  0  0  0
    8.2805  -13.6233   24.3559 C   0  0  1  0  0  0  0  0  0  0  0  0
    7.4670  -13.0240   25.5112 C   0  0  0  0  0  0  0  0  0  0  0  0
    5.8122  -13.7171   25.5628 S   0  0  0  0  0  0  0  0  0  0  0  0
    8.4655  -15.0596   24.6938 C   0  0  0  0  0  0  0  0  0  0  0  0
    7.4855  -15.8211   24.4875 O   0  0  0  0  0  0  0  0  0  0  0  0
    9.6386  -15.6062   25.2165 N   0  0  0  0  0  0  0  0  0  0  0  0
    9.8059  -17.0568   25.5100 C   0  0  1  0  0  0  0  0  0  0  0  0
   11.1104  -17.3937   24.8788 C   0  0  0  0  0  0  0  0  0  0  0  0
   11.7163  -18.6748   25.1980 C   0  0  0  0  0  0  0  0  0  0  0  0
   12.1074  -19.3267   26.3199 C   0  0  0  0  0  0  0  0  0  0  0  0
   12.5894  -20.5556   26.0191 N   0  0  0  0  0  0  0  0  0  0  0  0
   12.4936  -20.6619   24.7004 C   0  0  0  0  0  0  0  0  0  0  0  0
   11.9795  -19.5639   24.1825 N   0  0  0  0  0  0  0  0  0  0  0  0
    9.8435  -17.1175   26.9851 C   0  0  0  0  0  0  0  0  0  0  0  0
    9.9160  -16.0873   27.6641 O   0  0  0  0  0  0  0  0  0  0  0  0
    9.7986  -18.3264   27.6420 O   0  0  0  0  0  0  0  0  0  0  0  0
  2  1  1  6
  3  2  1  0
  4  6  1  0
  4  2  1  0
  5  4  2  0
  7  6  1  0
  7 10  1  0
  7  8  1  1
  9  8  1  0
 10 12  1  0
 11 10  2  0
 12 13  1  0
 13 14  1  6
 13 20  1  0
 15 14  1  0
 16 15  2  0
 17 16  1  0
 18 17  1  0
 18 19  2  0
 19 15  1  0
 20 22  1  0
 21 20  2  0
M  END
$$$$
