ACH.pdb
     RDKit          3D

 22 22  0  0  1  0  0  0  0  0999 V2000
    8.0345  -12.3030   19.3594 C   0  0  0  0  0  0  0  0  0  0  0  0
    8.5682  -13.5917   18.7710 C   0  0  2  0  0  0  0  0  0  0  0  0
    7.8432  -13.9014   17.5515 N   0  0  0  0  0  0  0  0  0  0  0  0
    8.3595  -14.7299   19.7025 C   0  0  0  0  0  0  0  0  0  0  0  0
    7.3331  -15.4328   19.5448 O   0  0  0  0  0  0  0  0  0  0  0  0
    9.2601  -15.0528   20.7507 N   0  0  0  0  0  0  0  0  0  0  0  0
    9.0826  -16.1795   21.6426 C   0  0  1  0  0  0  0  0  0  0  0  0
   10.1626  -17.2009   21.2606 C   0  0  0  0  0  0  0  0  0  0  0  0
   11.7917  -16.4478   21.2599 S   0  0  0  0  0  0  0  0  0  0  0  0
    9.3641  -15.8014   23.0530 C   0  0  0  0  0  0  0  0  0  0  0  0
   10.1863  -14.8670   23.2360 O   0  0  0  0  0  0  0  0  0  0  0  0
    8.7827  -16.4083   24.1675 N   0  0  0  0  0  0  0  0  0  0  0  0
    9.0415  -15.9691   25.5669 C   0  0  1  0  0  0  0  0  0  0  0  0
    7.6962  -15.5740   26.0644 C   0  0  0  0  0  0  0  0  0  0  0  0
    7.3490  -14.1634   26.0567 C   0  0  0  0  0  0  0  0  0  0  0  0
    7.9965  -12.9913   25.8482 C   0  0  0  0  0  0  0  0  0  0  0  0
    7.1389  -11.9468   25.9286 N   0  0  0  0  0  0  0  0  0  0  0  0
    5.9525  -12.4804   26.1880 C   0  0  0  0  0  0  0  0  0  0  0  0
    6.0420  -13.7931   26.2701 N   0  0  0  0  0  0  0  0  0  0  0  0
    9.5699  -17.1805   26.2261 C   0  0  0  0  0  0  0  0  0  0  0  0
    9.8863  -17.1699   27.4208 O   0  0  0  0  0  0  0  0  0  0  0  0
    9.7234  -18.3545   25.5239 O   0  0  0  0  0  0  0  0  0  0  0  0
  2  1  1  1
  3  2  1  0
  4  6  1  0
  4  2  1  0
  5  4  2  0
  7  6  1  0
  7 10  1  0
  7  8  1  6
  9  8  1  0
 10 12  1  0
 11 10  2  0
 12 13  1  0
 13 14  1  1
 13 20  1  0
 15 14  1  0
 16 15  2  0
 17 16  1  0
 18 17  1  0
 18 19  2  0
 19 15  1  0
 20 22  1  0
 21 20  2  0
M  END
$$$$
