ACH.pdb
     RDKit          3D

 22 22  0  0  1  0  0  0  0  0999 V2000
    7.9404  -19.0429   17.6393 C   0  0  0  0  0  0  0  0  0  0  0  0
    7.5927  -17.6105   17.2939 C   0  0  2  0  0  0  0  0  0  0  0  0
    8.0243  -17.3234   15.9373 N   0  0  0  0  0  0  0  0  0  0  0  0
    8.3026  -16.6592   18.1870 C   0  0  0  0  0  0  0  0  0  0  0  0
    9.4232  -16.2357   17.8164 O   0  0  0  0  0  0  0  0  0  0  0  0
    7.7745  -16.2140   19.4267 N   0  0  0  0  0  0  0  0  0  0  0  0
    8.5007  -15.3689   20.3513 C   0  0  1  0  0  0  0  0  0  0  0  0
    7.4679  -14.8593   21.3658 C   0  0  0  0  0  0  0  0  0  0  0  0
    6.6375  -16.2249   22.1825 S   0  0  0  0  0  0  0  0  0  0  0  0
    9.4883  -16.1537   21.1388 C   0  0  0  0  0  0  0  0  0  0  0  0
    9.2691  -17.3870   21.2547 O   0  0  0  0  0  0  0  0  0  0  0  0
   10.6240  -15.6164   21.7469 N   0  0  0  0  0  0  0  0  0  0  0  0
   11.6714  -16.4470   22.4036 C   0  0  1  0  0  0  0  0  0  0  0  0
   12.9280  -15.6926   22.1480 C   0  0  0  0  0  0  0  0  0  0  0  0
   14.1551  -16.1783   22.7548 C   0  0  0  0  0  0  0  0  0  0  0  0
   14.5305  -17.2495   23.4952 C   0  0  0  0  0  0  0  0  0  0  0  0
   15.8574  -17.2098   23.7610 N   0  0  0  0  0  0  0  0  0  0  0  0
   16.3035  -16.1048   23.1784 C   0  0  0  0  0  0  0  0  0  0  0  0
   15.3196  -15.4698   22.5728 N   0  0  0  0  0  0  0  0  0  0  0  0
   11.2783  -16.4518   23.8272 C   0  0  0  0  0  0  0  0  0  0  0  0
   11.8887  -17.1372   24.6551 O   0  0  0  0  0  0  0  0  0  0  0  0
   10.2194  -15.6908   24.2683 O   0  0  0  0  0  0  0  0  0  0  0  0
  2  1  1  1
  3  2  1  0
  4  6  1  0
  4  2  1  0
  5  4  2  0
  7  6  1  0
  7 10  1  0
  7  8  1  1
  9  8  1  0
 10 12  1  0
 11 10  2  0
 12 13  1  0
 13 14  1  1
 13 20  1  0
 15 14  1  0
 16 15  2  0
 17 16  1  0
 18 17  1  0
 18 19  2  0
 19 15  1  0
 20 22  1  0
 21 20  2  0
M  END
$$$$
