ACH.pdb
     RDKit          3D

 22 22  0  0  1  0  0  0  0  0999 V2000
    7.5065  -13.9038   20.0514 C   0  0  0  0  0  0  0  0  0  0  0  0
    7.2931  -14.9971   21.0766 C   0  0  2  0  0  0  0  0  0  0  0  0
    5.8874  -15.0522   21.4370 N   0  0  0  0  0  0  0  0  0  0  0  0
    8.0512  -14.7153   22.3225 C   0  0  0  0  0  0  0  0  0  0  0  0
    9.3026  -14.6804   22.2494 O   0  0  0  0  0  0  0  0  0  0  0  0
    7.4288  -14.4864   23.5772 N   0  0  0  0  0  0  0  0  0  0  0  0
    8.1587  -14.3175   24.8162 C   0  0  1  0  0  0  0  0  0  0  0  0
    7.3617  -13.3021   25.6464 C   0  0  0  0  0  0  0  0  0  0  0  0
    5.6343  -13.7755   25.7602 S   0  0  0  0  0  0  0  0  0  0  0  0
    8.1682  -15.5731   25.6130 C   0  0  0  0  0  0  0  0  0  0  0  0
    7.0688  -15.9439   26.0993 O   0  0  0  0  0  0  0  0  0  0  0  0
    9.3015  -16.3525   25.8508 N   0  0  0  0  0  0  0  0  0  0  0  0
    9.2613  -17.6594   26.5639 C   0  0  1  0  0  0  0  0  0  0  0  0
    9.3694  -18.6598   25.4681 C   0  0  0  0  0  0  0  0  0  0  0  0
    8.2076  -18.8817   24.6248 C   0  0  0  0  0  0  0  0  0  0  0  0
    6.9215  -19.2701   24.8029 C   0  0  0  0  0  0  0  0  0  0  0  0
    6.2501  -19.2655   23.6273 N   0  0  0  0  0  0  0  0  0  0  0  0
    7.1302  -18.8698   22.7171 C   0  0  0  0  0  0  0  0  0  0  0  0
    8.3009  -18.6338   23.2754 N   0  0  0  0  0  0  0  0  0  0  0  0
   10.4531  -17.6239   27.4354 C   0  0  0  0  0  0  0  0  0  0  0  0
   11.2777  -16.7071   27.3510 O   0  0  0  0  0  0  0  0  0  0  0  0
   10.6755  -18.6140   28.3657 O   0  0  0  0  0  0  0  0  0  0  0  0
  2  1  1  6
  3  2  1  0
  4  6  1  0
  4  2  1  0
  5  4  2  0
  7  6  1  0
  7 10  1  0
  7  8  1  1
  9  8  1  0
 10 12  1  0
 11 10  2  0
 12 13  1  0
 13 14  1  6
 13 20  1  0
 15 14  1  0
 16 15  2  0
 17 16  1  0
 18 17  1  0
 18 19  2  0
 19 15  1  0
 20 22  1  0
 21 20  2  0
M  END
$$$$
