ACH.pdb
     RDKit          3D

 22 22  0  0  1  0  0  0  0  0999 V2000
    6.6359  -14.8302   20.4396 C   0  0  0  0  0  0  0  0  0  0  0  0
    7.0135  -13.4189   20.8362 C   0  0  2  0  0  0  0  0  0  0  0  0
    7.9210  -12.8664   19.8461 N   0  0  0  0  0  0  0  0  0  0  0  0
    7.7284  -13.4041   22.1382 C   0  0  0  0  0  0  0  0  0  0  0  0
    8.9717  -13.5666   22.1236 O   0  0  0  0  0  0  0  0  0  0  0  0
    7.0737  -13.2163   23.3833 N   0  0  0  0  0  0  0  0  0  0  0  0
    7.7420  -13.3134   24.6641 C   0  0  1  0  0  0  0  0  0  0  0  0
    6.7470  -12.7848   25.7062 C   0  0  0  0  0  0  0  0  0  0  0  0
    7.5549  -12.4996   27.2833 S   0  0  0  0  0  0  0  0  0  0  0  0
    7.9994  -14.7308   25.0329 C   0  0  0  0  0  0  0  0  0  0  0  0
    7.0475  -15.5385   24.8780 O   0  0  0  0  0  0  0  0  0  0  0  0
    9.2108  -15.2126   25.5316 N   0  0  0  0  0  0  0  0  0  0  0  0
    9.4248  -16.6310   25.9327 C   0  0  1  0  0  0  0  0  0  0  0  0
   10.6293  -17.0358   25.1589 C   0  0  0  0  0  0  0  0  0  0  0  0
   10.4734  -17.3101   23.7409 C   0  0  0  0  0  0  0  0  0  0  0  0
    9.4522  -17.3405   22.8504 C   0  0  0  0  0  0  0  0  0  0  0  0
    9.9059  -17.6277   21.6076 N   0  0  0  0  0  0  0  0  0  0  0  0
   11.2181  -17.7746   21.7335 C   0  0  0  0  0  0  0  0  0  0  0  0
   11.5875  -17.5926   22.9859 N   0  0  0  0  0  0  0  0  0  0  0  0
    9.6695  -16.5545   27.3871 C   0  0  0  0  0  0  0  0  0  0  0  0
    9.7716  -15.4642   27.9602 O   0  0  0  0  0  0  0  0  0  0  0  0
    9.7904  -17.6990   28.1424 O   0  0  0  0  0  0  0  0  0  0  0  0
  2  1  1  6
  3  2  1  0
  4  6  1  0
  4  2  1  0
  5  4  2  0
  7  6  1  0
  7 10  1  0
  7  8  1  1
  9  8  1  0
 10 12  1  0
 11 10  2  0
 12 13  1  0
 13 14  1  6
 13 20  1  0
 15 14  1  0
 16 15  2  0
 17 16  1  0
 18 17  1  0
 18 19  2  0
 19 15  1  0
 20 22  1  0
 21 20  2  0
M  END
$$$$
