ACH.pdb
     RDKit          3D

 22 22  0  0  1  0  0  0  0  0999 V2000
    3.7885  -19.6770   22.2860 C   0  0  0  0  0  0  0  0  0  0  0  0
    4.8612  -18.9692   21.4858 C   0  0  2  0  0  0  0  0  0  0  0  0
    5.3647  -19.8631   20.4581 N   0  0  0  0  0  0  0  0  0  0  0  0
    6.0146  -18.6028   22.3473 C   0  0  0  0  0  0  0  0  0  0  0  0
    6.8434  -19.5013   22.6267 O   0  0  0  0  0  0  0  0  0  0  0  0
    6.2173  -17.2958   22.8618 N   0  0  0  0  0  0  0  0  0  0  0  0
    7.3148  -16.9388   23.7361 C   0  0  1  0  0  0  0  0  0  0  0  0
    7.1566  -15.4408   24.0305 C   0  0  0  0  0  0  0  0  0  0  0  0
    8.4484  -14.8598   25.1327 S   0  0  0  0  0  0  0  0  0  0  0  0
    7.2023  -17.6237   25.0513 C   0  0  0  0  0  0  0  0  0  0  0  0
    6.1194  -17.4788   25.6749 O   0  0  0  0  0  0  0  0  0  0  0  0
    8.2064  -18.4039   25.6271 N   0  0  0  0  0  0  0  0  0  0  0  0
    8.0781  -19.0461   26.9648 C   0  0  1  0  0  0  0  0  0  0  0  0
    8.2177  -20.4979   26.6712 C   0  0  0  0  0  0  0  0  0  0  0  0
    7.0693  -21.2009   26.1261 C   0  0  0  0  0  0  0  0  0  0  0  0
    5.7914  -20.8924   25.7967 C   0  0  0  0  0  0  0  0  0  0  0  0
    5.1559  -21.9679   25.2748 N   0  0  0  0  0  0  0  0  0  0  0  0
    6.0505  -22.9472   25.2819 C   0  0  0  0  0  0  0  0  0  0  0  0
    7.1959  -22.5258   25.7803 N   0  0  0  0  0  0  0  0  0  0  0  0
    9.2158  -18.4983   27.7309 C   0  0  0  0  0  0  0  0  0  0  0  0
   10.0289  -17.7309   27.2042 O   0  0  0  0  0  0  0  0  0  0  0  0
    9.3989  -18.8299   29.0544 O   0  0  0  0  0  0  0  0  0  0  0  0
  2  1  1  1
  3  2  1  0
  4  6  1  0
  4  2  1  0
  5  4  2  0
  7  6  1  0
  7 10  1  0
  7  8  1  1
  9  8  1  0
 10 12  1  0
 11 10  2  0
 12 13  1  0
 13 14  1  6
 13 20  1  0
 15 14  1  0
 16 15  2  0
 17 16  1  0
 18 17  1  0
 18 19  2  0
 19 15  1  0
 20 22  1  0
 21 20  2  0
M  END
$$$$
