ACH.pdb
     RDKit          3D

 22 22  0  0  1  0  0  0  0  0999 V2000
   10.2200  -16.6990   18.9786 C   0  0  0  0  0  0  0  0  0  0  0  0
    8.9335  -17.4932   18.9034 C   0  0  2  0  0  0  0  0  0  0  0  0
    8.1317  -17.0082   17.7939 N   0  0  0  0  0  0  0  0  0  0  0  0
    8.1239  -17.3150   20.1361 C   0  0  0  0  0  0  0  0  0  0  0  0
    7.3438  -16.3345   20.1856 O   0  0  0  0  0  0  0  0  0  0  0  0
    8.1938  -18.1954   21.2470 N   0  0  0  0  0  0  0  0  0  0  0  0
    7.4093  -18.0299   22.4526 C   0  0  1  0  0  0  0  0  0  0  0  0
    6.9503  -19.4367   22.8599 C   0  0  0  0  0  0  0  0  0  0  0  0
    6.0243  -19.3936   24.3968 S   0  0  0  0  0  0  0  0  0  0  0  0
    8.2463  -17.5358   23.5781 C   0  0  0  0  0  0  0  0  0  0  0  0
    9.4739  -17.8069   23.5329 O   0  0  0  0  0  0  0  0  0  0  0  0
    7.7630  -16.8023   24.6629 N   0  0  0  0  0  0  0  0  0  0  0  0
    8.6438  -16.2061   25.7055 C   0  0  1  0  0  0  0  0  0  0  0  0
    7.7280  -15.3188   26.4720 C   0  0  0  0  0  0  0  0  0  0  0  0
    7.3231  -14.0625   25.8653 C   0  0  0  0  0  0  0  0  0  0  0  0
    7.6444  -13.3575   24.7534 C   0  0  0  0  0  0  0  0  0  0  0  0
    6.8981  -12.2314   24.6653 N   0  0  0  0  0  0  0  0  0  0  0  0
    6.1095  -12.2433   25.7318 C   0  0  0  0  0  0  0  0  0  0  0  0
    6.3360  -13.3157   26.4644 N   0  0  0  0  0  0  0  0  0  0  0  0
    9.1081  -17.3713   26.4851 C   0  0  0  0  0  0  0  0  0  0  0  0
    8.5319  -18.4619   26.4064 O   0  0  0  0  0  0  0  0  0  0  0  0
   10.1972  -17.2710   27.3211 O   0  0  0  0  0  0  0  0  0  0  0  0
  2  1  1  1
  3  2  1  0
  4  6  1  0
  4  2  1  0
  5  4  2  0
  7  6  1  0
  7 10  1  0
  7  8  1  1
  9  8  1  0
 10 12  1  0
 11 10  2  0
 12 13  1  0
 13 14  1  1
 13 20  1  0
 15 14  1  0
 16 15  2  0
 17 16  1  0
 18 17  1  0
 18 19  2  0
 19 15  1  0
 20 22  1  0
 21 20  2  0
M  END
$$$$
