ACH.pdb
     RDKit          3D

 22 22  0  0  1  0  0  0  0  0999 V2000
    6.8490  -19.5077   22.9814 C   0  0  0  0  0  0  0  0  0  0  0  0
    7.2074  -18.8348   21.6736 C   0  0  2  0  0  0  0  0  0  0  0  0
    7.8338  -19.8018   20.7897 N   0  0  0  0  0  0  0  0  0  0  0  0
    8.1896  -17.7411   21.8883 C   0  0  0  0  0  0  0  0  0  0  0  0
    9.4070  -18.0414   21.8887 O   0  0  0  0  0  0  0  0  0  0  0  0
    7.8148  -16.3874   22.0905 N   0  0  0  0  0  0  0  0  0  0  0  0
    8.7653  -15.3066   22.2482 C   0  0  1  0  0  0  0  0  0  0  0  0
    7.9953  -14.0133   21.9479 C   0  0  0  0  0  0  0  0  0  0  0  0
    6.5235  -13.8872   22.9674 S   0  0  0  0  0  0  0  0  0  0  0  0
    9.2198  -15.1885   23.6592 C   0  0  0  0  0  0  0  0  0  0  0  0
   10.0513  -14.2790   23.9125 O   0  0  0  0  0  0  0  0  0  0  0  0
    8.7887  -16.0099   24.7022 N   0  0  0  0  0  0  0  0  0  0  0  0
    9.2435  -15.8502   26.1114 C   0  0  1  0  0  0  0  0  0  0  0  0
    7.9811  -15.6134   26.8621 C   0  0  0  0  0  0  0  0  0  0  0  0
    7.3503  -14.3097   26.7494 C   0  0  0  0  0  0  0  0  0  0  0  0
    7.7341  -13.0161   26.8755 C   0  0  0  0  0  0  0  0  0  0  0  0
    6.7024  -12.1801   26.6117 N   0  0  0  0  0  0  0  0  0  0  0  0
    5.6743  -12.9657   26.3197 C   0  0  0  0  0  0  0  0  0  0  0  0
    6.0246  -14.2346   26.3919 N   0  0  0  0  0  0  0  0  0  0  0  0
    9.8718  -17.1484   26.4298 C   0  0  0  0  0  0  0  0  0  0  0  0
    9.8336  -18.0888   25.6287 O   0  0  0  0  0  0  0  0  0  0  0  0
   10.5172  -17.3432   27.6300 O   0  0  0  0  0  0  0  0  0  0  0  0
  2  1  1  1
  3  2  1  0
  4  6  1  0
  4  2  1  0
  5  4  2  0
  7  6  1  0
  7 10  1  0
  7  8  1  1
  9  8  1  0
 10 12  1  0
 11 10  2  0
 12 13  1  0
 13 14  1  1
 13 20  1  0
 15 14  1  0
 16 15  2  0
 17 16  1  0
 18 17  1  0
 18 19  2  0
 19 15  1  0
 20 22  1  0
 21 20  2  0
M  END
$$$$
