ACH.pdb
     RDKit          3D

 22 22  0  0  1  0  0  0  0  0999 V2000
    7.9038  -13.0345   19.7863 C   0  0  0  0  0  0  0  0  0  0  0  0
    7.8438  -14.4378   20.3510 C   0  0  2  0  0  0  0  0  0  0  0  0
    6.4580  -14.8633   20.4385 N   0  0  0  0  0  0  0  0  0  0  0  0
    8.4007  -14.4831   21.7274 C   0  0  0  0  0  0  0  0  0  0  0  0
    9.6306  -14.2818   21.8666 O   0  0  0  0  0  0  0  0  0  0  0  0
    7.6112  -14.7410   22.8782 N   0  0  0  0  0  0  0  0  0  0  0  0
    8.1259  -14.6970   24.2308 C   0  0  1  0  0  0  0  0  0  0  0  0
    6.9310  -14.3559   25.1316 C   0  0  0  0  0  0  0  0  0  0  0  0
    6.6566  -12.5834   25.1958 S   0  0  0  0  0  0  0  0  0  0  0  0
    8.5969  -16.0364   24.6732 C   0  0  0  0  0  0  0  0  0  0  0  0
    7.7830  -16.9890   24.5607 O   0  0  0  0  0  0  0  0  0  0  0  0
    9.8642  -16.2979   25.1967 N   0  0  0  0  0  0  0  0  0  0  0  0
   10.3611  -17.6709   25.4903 C   0  0  1  0  0  0  0  0  0  0  0  0
   11.6706  -17.7274   24.7862 C   0  0  0  0  0  0  0  0  0  0  0  0
   11.6685  -17.7337   23.3336 C   0  0  0  0  0  0  0  0  0  0  0  0
   10.7506  -17.9027   22.3510 C   0  0  0  0  0  0  0  0  0  0  0  0
   11.3202  -17.7620   21.1309 N   0  0  0  0  0  0  0  0  0  0  0  0
   12.6001  -17.5031   21.3640 C   0  0  0  0  0  0  0  0  0  0  0  0
   12.8401  -17.4790   22.6600 N   0  0  0  0  0  0  0  0  0  0  0  0
   10.4931  -17.6926   26.9611 C   0  0  0  0  0  0  0  0  0  0  0  0
   10.3067  -16.6722   27.6332 O   0  0  0  0  0  0  0  0  0  0  0  0
   10.8278  -18.8532   27.6214 O   0  0  0  0  0  0  0  0  0  0  0  0
  2  1  1  1
  3  2  1  0
  4  6  1  0
  4  2  1  0
  5  4  2  0
  7  6  1  0
  7 10  1  0
  7  8  1  1
  9  8  1  0
 10 12  1  0
 11 10  2  0
 12 13  1  0
 13 14  1  6
 13 20  1  0
 15 14  1  0
 16 15  2  0
 17 16  1  0
 18 17  1  0
 18 19  2  0
 19 15  1  0
 20 22  1  0
 21 20  2  0
M  END
$$$$
