ACH.pdb
     RDKit          3D

 22 22  0  0  1  0  0  0  0  0999 V2000
    6.5979  -20.8965   19.0915 C   0  0  0  0  0  0  0  0  0  0  0  0
    5.5629  -20.9210   20.1961 C   0  0  2  0  0  0  0  0  0  0  0  0
    4.2354  -20.8252   19.6152 N   0  0  0  0  0  0  0  0  0  0  0  0
    5.7254  -19.7573   21.1050 C   0  0  0  0  0  0  0  0  0  0  0  0
    5.0722  -18.7187   20.8462 O   0  0  0  0  0  0  0  0  0  0  0  0
    6.5774  -19.7693   22.2399 N   0  0  0  0  0  0  0  0  0  0  0  0
    6.8457  -18.6026   23.0543 C   0  0  1  0  0  0  0  0  0  0  0  0
    7.0676  -19.1202   24.4820 C   0  0  0  0  0  0  0  0  0  0  0  0
    8.3636  -20.3611   24.5244 S   0  0  0  0  0  0  0  0  0  0  0  0
    8.1214  -17.9491   22.6580 C   0  0  0  0  0  0  0  0  0  0  0  0
    8.9715  -18.6715   22.0766 O   0  0  0  0  0  0  0  0  0  0  0  0
    8.4289  -16.6069   22.8869 N   0  0  0  0  0  0  0  0  0  0  0  0
    9.6831  -15.9614   22.4087 C   0  0  1  0  0  0  0  0  0  0  0  0
    9.2376  -14.6105   21.9728 C   0  0  0  0  0  0  0  0  0  0  0  0
    8.7025  -14.4648   20.6302 C   0  0  0  0  0  0  0  0  0  0  0  0
    8.5515  -15.2547   19.5394 C   0  0  0  0  0  0  0  0  0  0  0  0
    7.9306  -14.5833   18.5411 N   0  0  0  0  0  0  0  0  0  0  0  0
    7.6962  -13.3693   19.0216 C   0  0  0  0  0  0  0  0  0  0  0  0
    8.1412  -13.2658   20.2582 N   0  0  0  0  0  0  0  0  0  0  0  0
   10.5438  -15.9282   23.6084 C   0  0  0  0  0  0  0  0  0  0  0  0
   10.0698  -16.0927   24.7380 O   0  0  0  0  0  0  0  0  0  0  0  0
   11.8989  -15.7128   23.4977 O   0  0  0  0  0  0  0  0  0  0  0  0
  2  1  1  6
  3  2  1  0
  4  6  1  0
  4  2  1  0
  5  4  2  0
  7  6  1  0
  7 10  1  0
  7  8  1  1
  9  8  1  0
 10 12  1  0
 11 10  2  0
 12 13  1  0
 13 14  1  1
 13 20  1  0
 15 14  1  0
 16 15  2  0
 17 16  1  0
 18 17  1  0
 18 19  2  0
 19 15  1  0
 20 22  1  0
 21 20  2  0
M  END
$$$$
