ACH.pdb
     RDKit          3D

 22 22  0  0  1  0  0  0  0  0999 V2000
    7.8850  -12.2916   20.2549 C   0  0  0  0  0  0  0  0  0  0  0  0
    8.0098  -13.5686   19.4514 C   0  0  2  0  0  0  0  0  0  0  0  0
    6.8283  -13.7347   18.6236 N   0  0  0  0  0  0  0  0  0  0  0  0
    8.0869  -14.7543   20.3430 C   0  0  0  0  0  0  0  0  0  0  0  0
    7.0090  -15.2599   20.7367 O   0  0  0  0  0  0  0  0  0  0  0  0
    9.3124  -15.3331   20.7638 N   0  0  0  0  0  0  0  0  0  0  0  0
    9.3984  -16.5350   21.5666 C   0  0  1  0  0  0  0  0  0  0  0  0
   10.6001  -17.3234   21.0279 C   0  0  0  0  0  0  0  0  0  0  0  0
   10.8702  -18.8196   21.9817 S   0  0  0  0  0  0  0  0  0  0  0  0
    9.7248  -16.2169   22.9821 C   0  0  0  0  0  0  0  0  0  0  0  0
   10.5309  -15.2713   23.1790 O   0  0  0  0  0  0  0  0  0  0  0  0
    9.2015  -16.8905   24.0869 N   0  0  0  0  0  0  0  0  0  0  0  0
    9.5957  -16.5896   25.4913 C   0  0  1  0  0  0  0  0  0  0  0  0
    8.3155  -16.6871   26.2430 C   0  0  0  0  0  0  0  0  0  0  0  0
    7.6384  -17.9717   26.2807 C   0  0  0  0  0  0  0  0  0  0  0  0
    7.1503  -18.8544   25.3755 C   0  0  0  0  0  0  0  0  0  0  0  0
    6.6382  -19.9444   25.9940 N   0  0  0  0  0  0  0  0  0  0  0  0
    6.8131  -19.7316   27.2915 C   0  0  0  0  0  0  0  0  0  0  0  0
    7.4038  -18.5709   27.4960 N   0  0  0  0  0  0  0  0  0  0  0  0
   10.5492  -17.6656   25.8295 C   0  0  0  0  0  0  0  0  0  0  0  0
   10.6919  -18.6465   25.0913 O   0  0  0  0  0  0  0  0  0  0  0  0
   11.3045  -17.6022   26.9786 O   0  0  0  0  0  0  0  0  0  0  0  0
  2  1  1  1
  3  2  1  0
  4  6  1  0
  4  2  1  0
  5  4  2  0
  7  6  1  0
  7 10  1  0
  7  8  1  6
  9  8  1  0
 10 12  1  0
 11 10  2  0
 12 13  1  0
 13 14  1  1
 13 20  1  0
 15 14  1  0
 16 15  2  0
 17 16  1  0
 18 17  1  0
 18 19  2  0
 19 15  1  0
 20 22  1  0
 21 20  2  0
M  END
$$$$
