ACH.pdb
     RDKit          3D

 22 22  0  0  1  0  0  0  0  0999 V2000
   13.5105  -24.0979   25.6586 C   0  0  0  0  0  0  0  0  0  0  0  0
   12.6627  -22.8655   25.8911 C   0  0  2  0  0  0  0  0  0  0  0  0
   12.6946  -22.0277   24.7053 N   0  0  0  0  0  0  0  0  0  0  0  0
   13.1993  -22.0529   27.0128 C   0  0  0  0  0  0  0  0  0  0  0  0
   14.4337  -21.8333   27.0365 O   0  0  0  0  0  0  0  0  0  0  0  0
   12.3859  -21.5204   28.0467 N   0  0  0  0  0  0  0  0  0  0  0  0
   12.8993  -20.7263   29.1432 C   0  0  1  0  0  0  0  0  0  0  0  0
   11.9286  -19.5490   29.3091 C   0  0  0  0  0  0  0  0  0  0  0  0
   12.3576  -18.5558   30.7411 S   0  0  0  0  0  0  0  0  0  0  0  0
   12.8468  -21.4778   30.4253 C   0  0  0  0  0  0  0  0  0  0  0  0
   11.7162  -21.8847   30.7978 O   0  0  0  0  0  0  0  0  0  0  0  0
   13.9550  -21.7551   31.2275 N   0  0  0  0  0  0  0  0  0  0  0  0
   13.8658  -22.4852   32.5226 C   0  0  1  0  0  0  0  0  0  0  0  0
   14.3371  -23.8554   32.1854 C   0  0  0  0  0  0  0  0  0  0  0  0
   13.3795  -24.7906   31.6209 C   0  0  0  0  0  0  0  0  0  0  0  0
   12.0675  -24.7717   31.2817 C   0  0  0  0  0  0  0  0  0  0  0  0
   11.6930  -25.9553   30.7415 N   0  0  0  0  0  0  0  0  0  0  0  0
   12.7842  -26.7096   30.7471 C   0  0  0  0  0  0  0  0  0  0  0  0
   13.8023  -26.0489   31.2619 N   0  0  0  0  0  0  0  0  0  0  0  0
   14.7963  -21.7537   33.4060 C   0  0  0  0  0  0  0  0  0  0  0  0
   15.6044  -20.9392   32.9465 O   0  0  0  0  0  0  0  0  0  0  0  0
   14.7864  -21.9619   34.7667 O   0  0  0  0  0  0  0  0  0  0  0  0
  2  1  1  6
  3  2  1  0
  4  6  1  0
  4  2  1  0
  5  4  2  0
  7  6  1  0
  7 10  1  0
  7  8  1  1
  9  8  1  0
 10 12  1  0
 11 10  2  0
 12 13  1  0
 13 14  1  6
 13 20  1  0
 15 14  1  0
 16 15  2  0
 17 16  1  0
 18 17  1  0
 18 19  2  0
 19 15  1  0
 20 22  1  0
 21 20  2  0
M  END
$$$$
