ACH.pdb
     RDKit          3D

 22 22  0  0  1  0  0  0  0  0999 V2000
    7.0746  -19.0774   18.7618 C   0  0  0  0  0  0  0  0  0  0  0  0
    7.3734  -17.6595   18.3236 C   0  0  2  0  0  0  0  0  0  0  0  0
    8.2521  -17.6872   17.1677 N   0  0  0  0  0  0  0  0  0  0  0  0
    8.0829  -16.9095   19.3918 C   0  0  0  0  0  0  0  0  0  0  0  0
    9.3296  -17.0267   19.4581 O   0  0  0  0  0  0  0  0  0  0  0  0
    7.4193  -16.0761   20.3295 N   0  0  0  0  0  0  0  0  0  0  0  0
    8.1009  -15.3473   21.3786 C   0  0  1  0  0  0  0  0  0  0  0  0
    7.0257  -14.5110   22.0857 C   0  0  0  0  0  0  0  0  0  0  0  0
    7.6979  -13.6828   23.5292 S   0  0  0  0  0  0  0  0  0  0  0  0
    8.6417  -16.2689   22.4129 C   0  0  0  0  0  0  0  0  0  0  0  0
    7.8718  -17.1758   22.8221 O   0  0  0  0  0  0  0  0  0  0  0  0
    9.9283  -16.1918   22.9487 N   0  0  0  0  0  0  0  0  0  0  0  0
   10.4442  -17.1362   23.9784 C   0  0  1  0  0  0  0  0  0  0  0  0
   11.9073  -17.1792   23.7125 C   0  0  0  0  0  0  0  0  0  0  0  0
   12.3857  -18.0428   22.6468 C   0  0  0  0  0  0  0  0  0  0  0  0
   11.8402  -18.9259   21.7755 C   0  0  0  0  0  0  0  0  0  0  0  0
   12.7848  -19.4310   20.9475 N   0  0  0  0  0  0  0  0  0  0  0  0
   13.9220  -18.8532   21.3114 C   0  0  0  0  0  0  0  0  0  0  0  0
   13.7204  -18.0240   22.3164 N   0  0  0  0  0  0  0  0  0  0  0  0
   10.1073  -16.4821   25.2589 C   0  0  0  0  0  0  0  0  0  0  0  0
   10.0823  -17.1232   26.3153 O   0  0  0  0  0  0  0  0  0  0  0  0
    9.8120  -15.1384   25.3075 O   0  0  0  0  0  0  0  0  0  0  0  0
  2  1  1  1
  3  2  1  0
  4  6  1  0
  4  2  1  0
  5  4  2  0
  7  6  1  0
  7 10  1  0
  7  8  1  1
  9  8  1  0
 10 12  1  0
 11 10  2  0
 12 13  1  0
 13 14  1  6
 13 20  1  0
 15 14  1  0
 16 15  2  0
 17 16  1  0
 18 17  1  0
 18 19  2  0
 19 15  1  0
 20 22  1  0
 21 20  2  0
M  END
$$$$
