ACH.pdb
     RDKit          3D

 22 22  0  0  1  0  0  0  0  0999 V2000
    6.7944  -19.2221   23.1336 C   0  0  0  0  0  0  0  0  0  0  0  0
    7.2678  -18.5880   21.8430 C   0  0  2  0  0  0  0  0  0  0  0  0
    7.9340  -19.5899   21.0297 N   0  0  0  0  0  0  0  0  0  0  0  0
    8.2588  -17.5138   22.1088 C   0  0  0  0  0  0  0  0  0  0  0  0
    9.4373  -17.8569   22.3653 O   0  0  0  0  0  0  0  0  0  0  0  0
    7.9340  -16.1325   22.0855 N   0  0  0  0  0  0  0  0  0  0  0  0
    8.8864  -15.0793   22.3690 C   0  0  1  0  0  0  0  0  0  0  0  0
    8.2537  -13.7805   21.8509 C   0  0  0  0  0  0  0  0  0  0  0  0
    6.6123  -13.5437   22.5372 S   0  0  0  0  0  0  0  0  0  0  0  0
    9.0605  -14.8884   23.8335 C   0  0  0  0  0  0  0  0  0  0  0  0
    8.7831  -13.7509   24.2936 O   0  0  0  0  0  0  0  0  0  0  0  0
    9.5049  -15.8759   24.7143 N   0  0  0  0  0  0  0  0  0  0  0  0
    9.5716  -15.6866   26.1901 C   0  0  1  0  0  0  0  0  0  0  0  0
    8.1432  -15.6665   26.6055 C   0  0  0  0  0  0  0  0  0  0  0  0
    7.4358  -14.3983   26.5683 C   0  0  0  0  0  0  0  0  0  0  0  0
    7.7048  -13.1109   26.8955 C   0  0  0  0  0  0  0  0  0  0  0  0
    6.6533  -12.3101   26.6025 N   0  0  0  0  0  0  0  0  0  0  0  0
    5.7288  -13.1111   26.0894 C   0  0  0  0  0  0  0  0  0  0  0  0
    6.1609  -14.3561   26.0548 N   0  0  0  0  0  0  0  0  0  0  0  0
   10.2969  -16.8811   26.6677 C   0  0  0  0  0  0  0  0  0  0  0  0
   10.5408  -17.0413   27.8687 O   0  0  0  0  0  0  0  0  0  0  0  0
   10.7203  -17.8483   25.7843 O   0  0  0  0  0  0  0  0  0  0  0  0
  2  1  1  1
  3  2  1  0
  4  6  1  0
  4  2  1  0
  5  4  2  0
  7  6  1  0
  7 10  1  0
  7  8  1  1
  9  8  1  0
 10 12  1  0
 11 10  2  0
 12 13  1  0
 13 14  1  1
 13 20  1  0
 15 14  1  0
 16 15  2  0
 17 16  1  0
 18 17  1  0
 18 19  2  0
 19 15  1  0
 20 22  1  0
 21 20  2  0
M  END
$$$$
