IWW.pdb
     RDKit          3D

 37 40  0  0  1  0  0  0  0  0999 V2000
    8.9483  -12.0453   18.6968 C   0  0  0  0  0  0  0  0  0  0  0  0
    7.8857  -12.6414   19.5552 C   0  0  0  0  0  0  0  0  0  0  0  0
    7.5800  -14.1153   19.2101 C   0  0  2  0  0  0  0  0  0  0  0  0
    6.3336  -14.5321   19.9243 C   0  0  0  0  0  0  0  0  0  0  0  0
    8.7473  -15.0233   19.3805 C   0  0  2  0  0  0  0  0  0  0  0  0
    8.6000  -16.3429   18.8921 N   0  0  0  0  0  0  0  0  0  0  0  0
    9.1622  -14.9677   20.8311 C   0  0  0  0  0  0  0  0  0  0  0  0
    9.7942  -13.9559   21.2272 O   0  0  0  0  0  0  0  0  0  0  0  0
    8.8649  -15.9913   21.7281 N   0  0  0  0  0  0  0  0  0  0  0  0
    9.2414  -16.0672   23.0995 C   0  0  1  0  0  0  0  0  0  0  0  0
    8.2283  -16.9948   23.7733 C   0  0  0  0  0  0  0  0  0  0  0  0
    7.2012  -16.3303   24.5632 C   0  0  0  0  0  0  0  0  0  0  0  0
    6.0632  -16.7996   25.1607 C   0  0  0  0  0  0  0  0  0  0  0  0
    5.4775  -15.7208   25.7445 N   0  0  0  0  0  0  0  0  0  0  0  0
    6.1696  -14.6159   25.5541 C   0  0  0  0  0  0  0  0  0  0  0  0
    6.0083  -13.2778   25.9349 C   0  0  0  0  0  0  0  0  0  0  0  0
    6.9265  -12.3395   25.5790 C   0  0  0  0  0  0  0  0  0  0  0  0
    8.0299  -12.6440   24.8410 C   0  0  0  0  0  0  0  0  0  0  0  0
    8.2001  -13.9631   24.4571 C   0  0  0  0  0  0  0  0  0  0  0  0
    7.2754  -14.9463   24.8063 C   0  0  0  0  0  0  0  0  0  0  0  0
   10.6417  -16.4644   23.3682 C   0  0  0  0  0  0  0  0  0  0  0  0
   11.5013  -16.6198   22.4534 O   0  0  0  0  0  0  0  0  0  0  0  0
   11.0745  -16.6742   24.7068 N   0  0  0  0  0  0  0  0  0  0  0  0
   12.3542  -17.0908   25.1653 C   0  0  1  0  0  0  0  0  0  0  0  0
   12.5496  -16.9003   26.6812 C   0  0  0  0  0  0  0  0  0  0  0  0
   11.2580  -16.5071   27.2902 C   0  0  0  0  0  0  0  0  0  0  0  0
   10.1894  -17.3640   27.5219 C   0  0  0  0  0  0  0  0  0  0  0  0
    9.2139  -16.6679   28.0682 N   0  0  0  0  0  0  0  0  0  0  0  0
    9.5724  -15.3871   28.2191 C   0  0  0  0  0  0  0  0  0  0  0  0
    8.8818  -14.3131   28.7465 C   0  0  0  0  0  0  0  0  0  0  0  0
    9.4936  -13.0722   28.7963 C   0  0  0  0  0  0  0  0  0  0  0  0
   10.7730  -12.9503   28.3128 C   0  0  0  0  0  0  0  0  0  0  0  0
   11.4620  -14.0280   27.7856 C   0  0  0  0  0  0  0  0  0  0  0  0
   10.8554  -15.2639   27.7370 C   0  0  0  0  0  0  0  0  0  0  0  0
   12.7916  -18.4189   24.7352 C   0  0  0  0  0  0  0  0  0  0  0  0
   11.9789  -19.3180   24.0630 O   0  0  0  0  0  0  0  0  0  0  0  0
   13.9630  -18.8190   24.9725 O   0  0  0  0  0  0  0  0  0  0  0  0
  2  1  1  0
  3  2  1  0
  3  4  1  1
  5  6  1  1
  5  3  1  0
  7  5  1  0
  7  8  2  0
  9  7  1  0
 10  9  1  0
 10 21  1  0
 11 12  1  0
 10 11  1  1
 12 20  1  0
 13 14  1  0
 13 12  2  0
 14 15  1  0
 15 20  2  0
 15 16  1  0
 16 17  2  0
 17 18  1  0
 19 18  2  0
 20 19  1  0
 21 22  2  0
 21 23  1  0
 23 24  1  0
 24 35  1  0
 24 25  1  1
 26 25  1  0
 27 26  2  0
 28 27  1  0
 29 28  1  0
 29 34  2  0
 30 29  1  0
 31 30  2  0
 31 32  1  0
 32 33  2  0
 33 34  1  0
 34 26  1  0
 35 37  2  0
 35 36  1  0
M  END
$$$$
