IWW.pdb
     RDKit          3D

 37 40  0  0  1  0  0  0  0  0999 V2000
   11.4828  -20.5725   19.8620 C   0  0  0  0  0  0  0  0  0  0  0  0
   10.4726  -19.4801   19.9484 C   0  0  0  0  0  0  0  0  0  0  0  0
   10.6046  -18.6291   21.2303 C   0  0  2  0  0  0  0  0  0  0  0  0
   10.6593  -19.5414   22.4145 C   0  0  0  0  0  0  0  0  0  0  0  0
    9.6094  -17.5256   21.3201 C   0  0  2  0  0  0  0  0  0  0  0  0
    9.4448  -16.7254   20.1651 N   0  0  0  0  0  0  0  0  0  0  0  0
    9.9255  -16.7243   22.5601 C   0  0  0  0  0  0  0  0  0  0  0  0
   10.7877  -15.8139   22.4723 O   0  0  0  0  0  0  0  0  0  0  0  0
    9.2941  -16.9625   23.7788 N   0  0  0  0  0  0  0  0  0  0  0  0
    9.5334  -16.2958   25.0144 C   0  0  1  0  0  0  0  0  0  0  0  0
    8.1587  -15.9569   25.5940 C   0  0  0  0  0  0  0  0  0  0  0  0
    7.4094  -14.9386   24.8716 C   0  0  0  0  0  0  0  0  0  0  0  0
    6.8409  -14.9348   23.6269 C   0  0  0  0  0  0  0  0  0  0  0  0
    6.2895  -13.7019   23.4735 N   0  0  0  0  0  0  0  0  0  0  0  0
    6.4730  -12.9402   24.5328 C   0  0  0  0  0  0  0  0  0  0  0  0
    6.1148  -11.6301   24.8747 C   0  0  0  0  0  0  0  0  0  0  0  0
    6.4544  -11.1112   26.0852 C   0  0  0  0  0  0  0  0  0  0  0  0
    7.1543  -11.8229   27.0118 C   0  0  0  0  0  0  0  0  0  0  0  0
    7.5155  -13.1189   26.6854 C   0  0  0  0  0  0  0  0  0  0  0  0
    7.1821  -13.6771   25.4522 C   0  0  0  0  0  0  0  0  0  0  0  0
   10.3975  -17.0093   25.9813 C   0  0  0  0  0  0  0  0  0  0  0  0
   10.0248  -17.2996   27.1547 O   0  0  0  0  0  0  0  0  0  0  0  0
   11.7067  -17.4126   25.5987 N   0  0  0  0  0  0  0  0  0  0  0  0
   12.5147  -18.4372   26.1633 C   0  0  1  0  0  0  0  0  0  0  0  0
   11.7490  -19.7511   26.4082 C   0  0  0  0  0  0  0  0  0  0  0  0
   10.7847  -19.5504   27.5144 C   0  0  0  0  0  0  0  0  0  0  0  0
   11.1029  -19.0551   28.7727 C   0  0  0  0  0  0  0  0  0  0  0  0
   10.0006  -19.0194   29.4925 N   0  0  0  0  0  0  0  0  0  0  0  0
    8.9560  -19.4622   28.7820 C   0  0  0  0  0  0  0  0  0  0  0  0
    7.6236  -19.5928   29.1226 C   0  0  0  0  0  0  0  0  0  0  0  0
    6.7283  -20.0768   28.1840 C   0  0  0  0  0  0  0  0  0  0  0  0
    7.1997  -20.4163   26.9399 C   0  0  0  0  0  0  0  0  0  0  0  0
    8.5348  -20.2839   26.6019 C   0  0  0  0  0  0  0  0  0  0  0  0
    9.4267  -19.8007   27.5339 C   0  0  0  0  0  0  0  0  0  0  0  0
   13.7968  -18.6837   25.5033 C   0  0  0  0  0  0  0  0  0  0  0  0
   14.2581  -17.9551   24.4184 O   0  0  0  0  0  0  0  0  0  0  0  0
   14.5590  -19.6054   25.9012 O   0  0  0  0  0  0  0  0  0  0  0  0
  2  1  1  0
  3  2  1  0
  3  4  1  1
  5  6  1  6
  5  3  1  0
  7  5  1  0
  7  8  2  0
  9  7  1  0
 10  9  1  0
 10 21  1  0
 11 12  1  0
 10 11  1  1
 12 20  1  0
 13 14  1  0
 13 12  2  0
 14 15  1  0
 15 20  2  0
 15 16  1  0
 16 17  2  0
 17 18  1  0
 19 18  2  0
 20 19  1  0
 21 22  2  0
 21 23  1  0
 23 24  1  0
 24 35  1  0
 24 25  1  6
 26 25  1  0
 27 26  2  0
 28 27  1  0
 29 28  1  0
 29 34  2  0
 30 29  1  0
 31 30  2  0
 31 32  1  0
 32 33  2  0
 33 34  1  0
 34 26  1  0
 35 37  2  0
 35 36  1  0
M  END
$$$$
