IWW.pdb
     RDKit          3D

 37 40  0  0  1  0  0  0  0  0999 V2000
   13.5554  -18.3597   16.9329 C   0  0  0  0  0  0  0  0  0  0  0  0
   12.1822  -17.8813   17.2593 C   0  0  0  0  0  0  0  0  0  0  0  0
   12.0325  -17.4135   18.7234 C   0  0  2  0  0  0  0  0  0  0  0  0
   12.7124  -18.3995   19.6195 C   0  0  0  0  0  0  0  0  0  0  0  0
   10.6346  -17.0668   19.1000 C   0  0  2  0  0  0  0  0  0  0  0  0
    9.9864  -16.0942   18.3029 N   0  0  0  0  0  0  0  0  0  0  0  0
   10.6272  -16.7318   20.5722 C   0  0  0  0  0  0  0  0  0  0  0  0
   11.5664  -16.0289   21.0237 O   0  0  0  0  0  0  0  0  0  0  0  0
    9.6208  -17.1726   21.4287 N   0  0  0  0  0  0  0  0  0  0  0  0
    9.5911  -17.0596   22.8481 C   0  0  1  0  0  0  0  0  0  0  0  0
    8.6893  -15.8653   23.1661 C   0  0  0  0  0  0  0  0  0  0  0  0
    7.7528  -15.4918   22.1154 C   0  0  0  0  0  0  0  0  0  0  0  0
    6.5881  -16.0663   21.6845 C   0  0  0  0  0  0  0  0  0  0  0  0
    6.1511  -15.2941   20.6547 N   0  0  0  0  0  0  0  0  0  0  0  0
    6.9590  -14.2811   20.4156 C   0  0  0  0  0  0  0  0  0  0  0  0
    6.9649  -13.2252   19.4954 C   0  0  0  0  0  0  0  0  0  0  0  0
    7.9658  -12.3042   19.5024 C   0  0  0  0  0  0  0  0  0  0  0  0
    9.0014  -12.3614   20.3850 C   0  0  0  0  0  0  0  0  0  0  0  0
    9.0079  -13.4011   21.2990 C   0  0  0  0  0  0  0  0  0  0  0  0
    7.9961  -14.3602   21.3151 C   0  0  0  0  0  0  0  0  0  0  0  0
    9.2004  -18.2797   23.5894 C   0  0  0  0  0  0  0  0  0  0  0  0
    8.5430  -19.2241   23.0641 O   0  0  0  0  0  0  0  0  0  0  0  0
    9.5790  -18.4330   24.9518 N   0  0  0  0  0  0  0  0  0  0  0  0
   10.0400  -17.4380   25.8568 C   0  0  1  0  0  0  0  0  0  0  0  0
    9.8986  -16.0050   25.3100 C   0  0  0  0  0  0  0  0  0  0  0  0
    8.7104  -15.3680   25.9233 C   0  0  0  0  0  0  0  0  0  0  0  0
    7.7949  -16.0099   26.7477 C   0  0  0  0  0  0  0  0  0  0  0  0
    6.8737  -15.1368   27.0992 N   0  0  0  0  0  0  0  0  0  0  0  0
    7.1240  -13.9391   26.5561 C   0  0  0  0  0  0  0  0  0  0  0  0
    6.4399  -12.7430   26.6549 C   0  0  0  0  0  0  0  0  0  0  0  0
    6.9230  -11.6289   25.9900 C   0  0  0  0  0  0  0  0  0  0  0  0
    8.0711  -11.7533   25.2471 C   0  0  0  0  0  0  0  0  0  0  0  0
    8.7540  -12.9526   25.1505 C   0  0  0  0  0  0  0  0  0  0  0  0
    8.2758  -14.0618   25.8131 C   0  0  0  0  0  0  0  0  0  0  0  0
    9.5428  -17.5354   27.2292 C   0  0  0  0  0  0  0  0  0  0  0  0
    8.2145  -17.3579   27.5823 O   0  0  0  0  0  0  0  0  0  0  0  0
   10.3287  -17.7853   28.1824 O   0  0  0  0  0  0  0  0  0  0  0  0
  2  1  1  0
  3  2  1  0
  3  4  1  1
  5  6  1  6
  5  3  1  0
  7  5  1  0
  7  8  2  0
  9  7  1  0
 10  9  1  0
 10 21  1  0
 11 12  1  0
 10 11  1  6
 12 20  1  0
 13 14  1  0
 13 12  2  0
 14 15  1  0
 15 20  2  0
 15 16  1  0
 16 17  2  0
 17 18  1  0
 19 18  2  0
 20 19  1  0
 21 22  2  0
 21 23  1  0
 23 24  1  0
 24 35  1  0
 24 25  1  6
 26 25  1  0
 27 26  2  0
 28 27  1  0
 29 28  1  0
 29 34  2  0
 30 29  1  0
 31 30  2  0
 31 32  1  0
 32 33  2  0
 33 34  1  0
 34 26  1  0
 35 37  2  0
 35 36  1  0
M  END
$$$$
