IWW.pdb
     RDKit          3D

 37 40  0  0  1  0  0  0  0  0999 V2000
   13.1906  -20.2849   18.4210 C   0  0  0  0  0  0  0  0  0  0  0  0
   11.7628  -19.8724   18.5334 C   0  0  0  0  0  0  0  0  0  0  0  0
   11.5243  -18.7925   19.6113 C   0  0  2  0  0  0  0  0  0  0  0  0
   12.0878  -19.2722   20.9113 C   0  0  0  0  0  0  0  0  0  0  0  0
   10.1194  -18.3032   19.6663 C   0  0  2  0  0  0  0  0  0  0  0  0
    9.5014  -18.0111   18.4277 N   0  0  0  0  0  0  0  0  0  0  0  0
   10.0742  -17.1512   20.6411 C   0  0  0  0  0  0  0  0  0  0  0  0
   10.8111  -16.1577   20.4175 O   0  0  0  0  0  0  0  0  0  0  0  0
    9.2479  -17.1598   21.7626 N   0  0  0  0  0  0  0  0  0  0  0  0
    9.0089  -16.0809   22.6611 C   0  0  1  0  0  0  0  0  0  0  0  0
    7.5237  -16.1431   23.0231 C   0  0  0  0  0  0  0  0  0  0  0  0
    7.1730  -15.5866   24.3222 C   0  0  0  0  0  0  0  0  0  0  0  0
    6.7523  -16.1750   25.4837 C   0  0  0  0  0  0  0  0  0  0  0  0
    6.5531  -15.1591   26.3646 N   0  0  0  0  0  0  0  0  0  0  0  0
    6.8207  -13.9827   25.8350 C   0  0  0  0  0  0  0  0  0  0  0  0
    6.7810  -12.6630   26.3025 C   0  0  0  0  0  0  0  0  0  0  0  0
    7.1337  -11.6289   25.4923 C   0  0  0  0  0  0  0  0  0  0  0  0
    7.5318  -11.8170   24.2035 C   0  0  0  0  0  0  0  0  0  0  0  0
    7.5741  -13.1168   23.7290 C   0  0  0  0  0  0  0  0  0  0  0  0
    7.2176  -14.1964   24.5358 C   0  0  0  0  0  0  0  0  0  0  0  0
    9.8825  -16.0229   23.8545 C   0  0  0  0  0  0  0  0  0  0  0  0
    9.8779  -15.0520   24.6652 O   0  0  0  0  0  0  0  0  0  0  0  0
   10.7683  -17.0993   24.1373 N   0  0  0  0  0  0  0  0  0  0  0  0
   12.0503  -17.0493   24.7501 C   0  0  1  0  0  0  0  0  0  0  0  0
   12.0656  -17.6264   26.1781 C   0  0  0  0  0  0  0  0  0  0  0  0
   10.8575  -17.1645   26.8998 C   0  0  0  0  0  0  0  0  0  0  0  0
    9.7002  -17.9111   27.0816 C   0  0  0  0  0  0  0  0  0  0  0  0
    8.8409  -17.1805   27.7615 N   0  0  0  0  0  0  0  0  0  0  0  0
    9.3617  -15.9814   28.0494 C   0  0  0  0  0  0  0  0  0  0  0  0
    8.8312  -14.9100   28.7417 C   0  0  0  0  0  0  0  0  0  0  0  0
    9.5943  -13.7674   28.9108 C   0  0  0  0  0  0  0  0  0  0  0  0
   10.8592  -13.7368   28.3775 C   0  0  0  0  0  0  0  0  0  0  0  0
   11.3877  -14.8117   27.6850 C   0  0  0  0  0  0  0  0  0  0  0  0
   10.6305  -15.9503   27.5174 C   0  0  0  0  0  0  0  0  0  0  0  0
   13.1646  -17.5660   23.9554 C   0  0  0  0  0  0  0  0  0  0  0  0
   13.0078  -18.2412   22.7553 O   0  0  0  0  0  0  0  0  0  0  0  0
   14.3545  -17.4215   24.3450 O   0  0  0  0  0  0  0  0  0  0  0  0
  2  1  1  0
  3  2  1  0
  3  4  1  1
  5  6  1  6
  5  3  1  0
  7  5  1  0
  7  8  2  0
  9  7  1  0
 10  9  1  0
 10 21  1  0
 11 12  1  0
 10 11  1  1
 12 20  1  0
 13 14  1  0
 13 12  2  0
 14 15  1  0
 15 20  2  0
 15 16  1  0
 16 17  2  0
 17 18  1  0
 19 18  2  0
 20 19  1  0
 21 22  2  0
 21 23  1  0
 23 24  1  0
 24 35  1  0
 24 25  1  1
 26 25  1  0
 27 26  2  0
 28 27  1  0
 29 28  1  0
 29 34  2  0
 30 29  1  0
 31 30  2  0
 31 32  1  0
 32 33  2  0
 33 34  1  0
 34 26  1  0
 35 37  2  0
 35 36  1  0
M  END
$$$$
