IWW.pdb
     RDKit          3D

 37 40  0  0  1  0  0  0  0  0999 V2000
    7.7300  -16.5874   15.6314 C   0  0  0  0  0  0  0  0  0  0  0  0
    7.8697  -17.5136   16.7907 C   0  0  0  0  0  0  0  0  0  0  0  0
    8.1780  -16.7860   18.1174 C   0  0  2  0  0  0  0  0  0  0  0  0
    9.2162  -15.7388   17.8663 C   0  0  0  0  0  0  0  0  0  0  0  0
    8.4618  -17.7071   19.2521 C   0  0  2  0  0  0  0  0  0  0  0  0
    7.4504  -18.6409   19.5782 N   0  0  0  0  0  0  0  0  0  0  0  0
    8.8963  -16.8646   20.4273 C   0  0  0  0  0  0  0  0  0  0  0  0
    9.8937  -16.1138   20.2803 O   0  0  0  0  0  0  0  0  0  0  0  0
    8.2293  -16.8957   21.6499 N   0  0  0  0  0  0  0  0  0  0  0  0
    8.6046  -16.2267   22.8498 C   0  0  1  0  0  0  0  0  0  0  0  0
    7.8785  -16.9455   23.9886 C   0  0  0  0  0  0  0  0  0  0  0  0
    6.9561  -16.1235   24.7592 C   0  0  0  0  0  0  0  0  0  0  0  0
    5.7548  -16.4080   25.3494 C   0  0  0  0  0  0  0  0  0  0  0  0
    5.3331  -15.2457   25.9140 N   0  0  0  0  0  0  0  0  0  0  0  0
    6.1857  -14.2603   25.7186 C   0  0  0  0  0  0  0  0  0  0  0  0
    6.2246  -12.9083   26.0820 C   0  0  0  0  0  0  0  0  0  0  0  0
    7.2772  -12.1239   25.7257 C   0  0  0  0  0  0  0  0  0  0  0  0
    8.3288  -12.6009   25.0036 C   0  0  0  0  0  0  0  0  0  0  0  0
    8.3017  -13.9355   24.6370 C   0  0  0  0  0  0  0  0  0  0  0  0
    7.2360  -14.7633   24.9871 C   0  0  0  0  0  0  0  0  0  0  0  0
   10.0586  -16.0980   23.0949 C   0  0  0  0  0  0  0  0  0  0  0  0
   10.7278  -15.0811   22.7515 O   0  0  0  0  0  0  0  0  0  0  0  0
   10.7609  -17.1426   23.7574 N   0  0  0  0  0  0  0  0  0  0  0  0
   12.1312  -17.1837   24.1344 C   0  0  1  0  0  0  0  0  0  0  0  0
   12.5507  -16.0062   25.0344 C   0  0  0  0  0  0  0  0  0  0  0  0
   11.7767  -16.0615   26.2960 C   0  0  0  0  0  0  0  0  0  0  0  0
   11.6042  -17.1957   27.0793 C   0  0  0  0  0  0  0  0  0  0  0  0
   10.8588  -16.8714   28.1156 N   0  0  0  0  0  0  0  0  0  0  0  0
   10.5234  -15.5763   28.0716 C   0  0  0  0  0  0  0  0  0  0  0  0
    9.7693  -14.8096   28.9387 C   0  0  0  0  0  0  0  0  0  0  0  0
    9.5761  -13.4667   28.6634 C   0  0  0  0  0  0  0  0  0  0  0  0
   10.1414  -12.9406   27.5280 C   0  0  0  0  0  0  0  0  0  0  0  0
   10.8965  -13.7111   26.6618 C   0  0  0  0  0  0  0  0  0  0  0  0
   11.0914  -15.0471   26.9352 C   0  0  0  0  0  0  0  0  0  0  0  0
   12.6152  -18.4580   24.6653 C   0  0  0  0  0  0  0  0  0  0  0  0
   11.8056  -19.5631   24.8751 O   0  0  0  0  0  0  0  0  0  0  0  0
   13.8283  -18.6082   24.9726 O   0  0  0  0  0  0  0  0  0  0  0  0
  2  1  1  0
  3  2  1  0
  3  4  1  6
  5  6  1  1
  5  3  1  0
  7  5  1  0
  7  8  2  0
  9  7  1  0
 10  9  1  0
 10 21  1  0
 11 12  1  0
 10 11  1  1
 12 20  1  0
 13 14  1  0
 13 12  2  0
 14 15  1  0
 15 20  2  0
 15 16  1  0
 16 17  2  0
 17 18  1  0
 19 18  2  0
 20 19  1  0
 21 22  2  0
 21 23  1  0
 23 24  1  0
 24 35  1  0
 24 25  1  1
 26 25  1  0
 27 26  2  0
 28 27  1  0
 29 28  1  0
 29 34  2  0
 30 29  1  0
 31 30  2  0
 31 32  1  0
 32 33  2  0
 33 34  1  0
 34 26  1  0
 35 37  2  0
 35 36  1  0
M  END
$$$$
