IWW.pdb
     RDKit          3D

 37 40  0  0  1  0  0  0  0  0999 V2000
    7.0415  -12.5728   16.3021 C   0  0  0  0  0  0  0  0  0  0  0  0
    7.5888  -13.8606   16.8152 C   0  0  0  0  0  0  0  0  0  0  0  0
    7.5305  -13.9768   18.3540 C   0  0  2  0  0  0  0  0  0  0  0  0
    8.1523  -12.7570   18.9563 C   0  0  0  0  0  0  0  0  0  0  0  0
    8.0384  -15.2756   18.8748 C   0  0  2  0  0  0  0  0  0  0  0  0
    7.5100  -16.4463   18.2818 N   0  0  0  0  0  0  0  0  0  0  0  0
    7.8963  -15.2527   20.3778 C   0  0  0  0  0  0  0  0  0  0  0  0
    6.7733  -14.9612   20.8614 O   0  0  0  0  0  0  0  0  0  0  0  0
    8.9601  -15.5445   21.2286 N   0  0  0  0  0  0  0  0  0  0  0  0
    9.0420  -15.2741   22.6245 C   0  0  1  0  0  0  0  0  0  0  0  0
    8.1165  -16.2795   23.3127 C   0  0  0  0  0  0  0  0  0  0  0  0
    7.4546  -15.7973   24.5167 C   0  0  0  0  0  0  0  0  0  0  0  0
    6.5979  -16.4058   25.3931 C   0  0  0  0  0  0  0  0  0  0  0  0
    6.2819  -15.4628   26.3198 N   0  0  0  0  0  0  0  0  0  0  0  0
    6.8812  -14.3134   26.0834 C   0  0  0  0  0  0  0  0  0  0  0  0
    6.8936  -13.0638   26.7157 C   0  0  0  0  0  0  0  0  0  0  0  0
    7.6413  -12.0420   26.2186 C   0  0  0  0  0  0  0  0  0  0  0  0
    8.4001  -12.1746   25.0955 C   0  0  0  0  0  0  0  0  0  0  0  0
    8.3953  -13.4047   24.4604 C   0  0  0  0  0  0  0  0  0  0  0  0
    7.6383  -14.4699   24.9462 C   0  0  0  0  0  0  0  0  0  0  0  0
   10.4030  -15.2643   23.2060 C   0  0  0  0  0  0  0  0  0  0  0  0
   11.0266  -14.1990   23.4821 O   0  0  0  0  0  0  0  0  0  0  0  0
   11.0604  -16.4928   23.4922 N   0  0  0  0  0  0  0  0  0  0  0  0
   11.1124  -17.1995   24.7248 C   0  0  1  0  0  0  0  0  0  0  0  0
    9.7282  -17.4025   25.3692 C   0  0  0  0  0  0  0  0  0  0  0  0
    9.8142  -17.0812   26.8125 C   0  0  0  0  0  0  0  0  0  0  0  0
    9.8847  -18.0165   27.8371 C   0  0  0  0  0  0  0  0  0  0  0  0
    9.9449  -17.3693   28.9826 N   0  0  0  0  0  0  0  0  0  0  0  0
    9.9219  -16.0461   28.7811 C   0  0  0  0  0  0  0  0  0  0  0  0
    9.9713  -14.9961   29.6775 C   0  0  0  0  0  0  0  0  0  0  0  0
    9.9405  -13.6965   29.2015 C   0  0  0  0  0  0  0  0  0  0  0  0
    9.8574  -13.4948   27.8458 C   0  0  0  0  0  0  0  0  0  0  0  0
    9.8085  -14.5487   26.9508 C   0  0  0  0  0  0  0  0  0  0  0  0
    9.8409  -15.8426   27.4225 C   0  0  0  0  0  0  0  0  0  0  0  0
   11.8859  -18.4411   24.7233 C   0  0  0  0  0  0  0  0  0  0  0  0
   12.9306  -18.6996   25.5965 O   0  0  0  0  0  0  0  0  0  0  0  0
   11.6323  -19.3565   23.8949 O   0  0  0  0  0  0  0  0  0  0  0  0
  2  1  1  0
  3  2  1  0
  3  4  1  1
  5  6  1  6
  5  3  1  0
  7  5  1  0
  7  8  2  0
  9  7  1  0
 10  9  1  0
 10 21  1  0
 11 12  1  0
 10 11  1  1
 12 20  1  0
 13 14  1  0
 13 12  2  0
 14 15  1  0
 15 20  2  0
 15 16  1  0
 16 17  2  0
 17 18  1  0
 19 18  2  0
 20 19  1  0
 21 22  2  0
 21 23  1  0
 23 24  1  0
 24 35  1  0
 24 25  1  6
 26 25  1  0
 27 26  2  0
 28 27  1  0
 29 28  1  0
 29 34  2  0
 30 29  1  0
 31 30  2  0
 31 32  1  0
 32 33  2  0
 33 34  1  0
 34 26  1  0
 35 37  2  0
 35 36  1  0
M  END
$$$$
