IWW.pdb
     RDKit          3D

 37 40  0  0  1  0  0  0  0  0999 V2000
    6.0607  -22.4137   20.3727 C   0  0  0  0  0  0  0  0  0  0  0  0
    5.2500  -21.7170   21.4113 C   0  0  0  0  0  0  0  0  0  0  0  0
    5.8697  -20.3793   21.8710 C   0  0  2  0  0  0  0  0  0  0  0  0
    7.2983  -20.6111   22.2490 C   0  0  0  0  0  0  0  0  0  0  0  0
    5.0505  -19.6580   22.8834 C   0  0  2  0  0  0  0  0  0  0  0  0
    3.6797  -19.4826   22.5809 N   0  0  0  0  0  0  0  0  0  0  0  0
    5.7592  -18.3649   23.2082 C   0  0  0  0  0  0  0  0  0  0  0  0
    5.7211  -17.4398   22.3581 O   0  0  0  0  0  0  0  0  0  0  0  0
    6.4410  -18.1731   24.4077 N   0  0  0  0  0  0  0  0  0  0  0  0
    7.3270  -17.1057   24.7303 C   0  0  1  0  0  0  0  0  0  0  0  0
    7.1011  -16.7912   26.2104 C   0  0  0  0  0  0  0  0  0  0  0  0
    7.8765  -15.6774   26.7383 C   0  0  0  0  0  0  0  0  0  0  0  0
    9.1049  -15.6240   27.3388 C   0  0  0  0  0  0  0  0  0  0  0  0
    9.3126  -14.3161   27.6453 N   0  0  0  0  0  0  0  0  0  0  0  0
    8.3032  -13.5532   27.2777 C   0  0  0  0  0  0  0  0  0  0  0  0
    8.0273  -12.1825   27.3588 C   0  0  0  0  0  0  0  0  0  0  0  0
    6.8629  -11.6787   26.8684 C   0  0  0  0  0  0  0  0  0  0  0  0
    5.9163  -12.4669   26.2875 C   0  0  0  0  0  0  0  0  0  0  0  0
    6.1764  -13.8239   26.2024 C   0  0  0  0  0  0  0  0  0  0  0  0
    7.3605  -14.3689   26.6970 C   0  0  0  0  0  0  0  0  0  0  0  0
    8.7547  -17.3259   24.4078 C   0  0  0  0  0  0  0  0  0  0  0  0
    9.3622  -18.4037   24.6710 O   0  0  0  0  0  0  0  0  0  0  0  0
    9.5007  -16.3031   23.7594 N   0  0  0  0  0  0  0  0  0  0  0  0
   10.8669  -16.3218   23.3661 C   0  0  1  0  0  0  0  0  0  0  0  0
   11.2341  -15.1916   22.3862 C   0  0  0  0  0  0  0  0  0  0  0  0
   10.2589  -15.1818   21.2713 C   0  0  0  0  0  0  0  0  0  0  0  0
   10.3457  -15.9632   20.1261 C   0  0  0  0  0  0  0  0  0  0  0  0
    9.3119  -15.6860   19.3587 N   0  0  0  0  0  0  0  0  0  0  0  0
    8.5320  -14.7603   19.9302 C   0  0  0  0  0  0  0  0  0  0  0  0
    7.3553  -14.1799   19.4976 C   0  0  0  0  0  0  0  0  0  0  0  0
    6.7308  -13.2371   20.2962 C   0  0  0  0  0  0  0  0  0  0  0  0
    7.3087  -12.9064   21.4971 C   0  0  0  0  0  0  0  0  0  0  0  0
    8.4870  -13.4899   21.9277 C   0  0  0  0  0  0  0  0  0  0  0  0
    9.1088  -14.4297   21.1351 C   0  0  0  0  0  0  0  0  0  0  0  0
   11.8470  -16.4280   24.4471 C   0  0  0  0  0  0  0  0  0  0  0  0
   12.6516  -17.5377   24.6518 O   0  0  0  0  0  0  0  0  0  0  0  0
   12.0012  -15.4868   25.2710 O   0  0  0  0  0  0  0  0  0  0  0  0
  2  1  1  0
  3  2  1  0
  3  4  1  1
  5  6  1  6
  5  3  1  0
  7  5  1  0
  7  8  2  0
  9  7  1  0
 10  9  1  0
 10 21  1  0
 11 12  1  0
 10 11  1  1
 12 20  1  0
 13 14  1  0
 13 12  2  0
 14 15  1  0
 15 20  2  0
 15 16  1  0
 16 17  2  0
 17 18  1  0
 19 18  2  0
 20 19  1  0
 21 22  2  0
 21 23  1  0
 23 24  1  0
 24 35  1  0
 24 25  1  1
 26 25  1  0
 27 26  2  0
 28 27  1  0
 29 28  1  0
 29 34  2  0
 30 29  1  0
 31 30  2  0
 31 32  1  0
 32 33  2  0
 33 34  1  0
 34 26  1  0
 35 37  2  0
 35 36  1  0
M  END
$$$$
