IWW.pdb
     RDKit          3D

 37 40  0  0  1  0  0  0  0  0999 V2000
    9.0372  -22.1193   17.5740 C   0  0  0  0  0  0  0  0  0  0  0  0
    8.9475  -21.3617   18.8544 C   0  0  0  0  0  0  0  0  0  0  0  0
   10.0105  -21.7888   19.8900 C   0  0  2  0  0  0  0  0  0  0  0  0
   10.0356  -23.2822   19.9715 C   0  0  0  0  0  0  0  0  0  0  0  0
    9.8928  -21.0802   21.1940 C   0  0  2  0  0  0  0  0  0  0  0  0
    8.6972  -21.2867   21.9215 N   0  0  0  0  0  0  0  0  0  0  0  0
   10.1982  -19.6217   20.9511 C   0  0  0  0  0  0  0  0  0  0  0  0
   11.3405  -19.3200   20.5221 O   0  0  0  0  0  0  0  0  0  0  0  0
    9.2606  -18.6181   21.1841 N   0  0  0  0  0  0  0  0  0  0  0  0
    9.4391  -17.2171   21.0008 C   0  0  1  0  0  0  0  0  0  0  0  0
    8.0595  -16.6476   20.6648 C   0  0  0  0  0  0  0  0  0  0  0  0
    8.0550  -15.2906   20.1367 C   0  0  0  0  0  0  0  0  0  0  0  0
    8.2769  -14.8001   18.8787 C   0  0  0  0  0  0  0  0  0  0  0  0
    8.1648  -13.4493   18.9809 N   0  0  0  0  0  0  0  0  0  0  0  0
    7.8881  -13.0653   20.2105 C   0  0  0  0  0  0  0  0  0  0  0  0
    7.6770  -11.8264   20.8287 C   0  0  0  0  0  0  0  0  0  0  0  0
    7.3946  -11.7529   22.1572 C   0  0  0  0  0  0  0  0  0  0  0  0
    7.3094  -12.8602   22.9456 C   0  0  0  0  0  0  0  0  0  0  0  0
    7.5175  -14.0909   22.3467 C   0  0  0  0  0  0  0  0  0  0  0  0
    7.8093  -14.1971   20.9876 C   0  0  0  0  0  0  0  0  0  0  0  0
   10.0966  -16.4946   22.1128 C   0  0  0  0  0  0  0  0  0  0  0  0
   10.7900  -15.4507   21.9416 O   0  0  0  0  0  0  0  0  0  0  0  0
    9.9486  -16.9626   23.4478 N   0  0  0  0  0  0  0  0  0  0  0  0
   10.4764  -16.4019   24.6430 C   0  0  1  0  0  0  0  0  0  0  0  0
   10.0801  -14.9281   24.8510 C   0  0  0  0  0  0  0  0  0  0  0  0
    8.6655  -14.8639   25.2851 C   0  0  0  0  0  0  0  0  0  0  0  0
    7.7972  -15.9467   25.3444 C   0  0  0  0  0  0  0  0  0  0  0  0
    6.6276  -15.5144   25.7681 N   0  0  0  0  0  0  0  0  0  0  0  0
    6.6650  -14.1965   26.0001 C   0  0  0  0  0  0  0  0  0  0  0  0
    5.6875  -13.3323   26.4543 C   0  0  0  0  0  0  0  0  0  0  0  0
    5.9916  -11.9920   26.6203 C   0  0  0  0  0  0  0  0  0  0  0  0
    7.2619  -11.5643   26.3219 C   0  0  0  0  0  0  0  0  0  0  0  0
    8.2386  -12.4325   25.8676 C   0  0  0  0  0  0  0  0  0  0  0  0
    7.9383  -13.7670   25.7037 C   0  0  0  0  0  0  0  0  0  0  0  0
   10.2781  -17.1835   25.8636 C   0  0  0  0  0  0  0  0  0  0  0  0
   10.9093  -16.9084   27.0663 O   0  0  0  0  0  0  0  0  0  0  0  0
    9.5050  -18.1790   25.8720 O   0  0  0  0  0  0  0  0  0  0  0  0
  2  1  1  0
  3  2  1  0
  3  4  1  1
  5  6  1  6
  5  3  1  0
  7  5  1  0
  7  8  2  0
  9  7  1  0
 10  9  1  0
 10 21  1  0
 11 12  1  0
 10 11  1  1
 12 20  1  0
 13 14  1  0
 13 12  2  0
 14 15  1  0
 15 20  2  0
 15 16  1  0
 16 17  2  0
 17 18  1  0
 19 18  2  0
 20 19  1  0
 21 22  2  0
 21 23  1  0
 23 24  1  0
 24 35  1  0
 24 25  1  1
 26 25  1  0
 27 26  2  0
 28 27  1  0
 29 28  1  0
 29 34  2  0
 30 29  1  0
 31 30  2  0
 31 32  1  0
 32 33  2  0
 33 34  1  0
 34 26  1  0
 35 37  2  0
 35 36  1  0
M  END
$$$$
