IWW.pdb
     RDKit          3D

 37 40  0  0  1  0  0  0  0  0999 V2000
   12.4282  -19.7386   15.6834 C   0  0  0  0  0  0  0  0  0  0  0  0
   11.0660  -19.3215   16.1212 C   0  0  0  0  0  0  0  0  0  0  0  0
   11.0345  -18.7580   17.5586 C   0  0  2  0  0  0  0  0  0  0  0  0
   11.0172  -19.8985   18.5263 C   0  0  0  0  0  0  0  0  0  0  0  0
    9.9853  -17.7238   17.7721 C   0  0  2  0  0  0  0  0  0  0  0  0
    9.9050  -16.6938   16.8056 N   0  0  0  0  0  0  0  0  0  0  0  0
   10.1330  -17.2067   19.1830 C   0  0  0  0  0  0  0  0  0  0  0  0
   11.1965  -16.6088   19.4855 O   0  0  0  0  0  0  0  0  0  0  0  0
    9.1358  -17.3704   20.1418 N   0  0  0  0  0  0  0  0  0  0  0  0
    9.1974  -17.0017   21.5161 C   0  0  1  0  0  0  0  0  0  0  0  0
    7.7681  -16.6477   21.9313 C   0  0  0  0  0  0  0  0  0  0  0  0
    7.5525  -15.2576   22.3074 C   0  0  0  0  0  0  0  0  0  0  0  0
    7.7447  -14.0872   21.6250 C   0  0  0  0  0  0  0  0  0  0  0  0
    7.3946  -13.0938   22.4842 N   0  0  0  0  0  0  0  0  0  0  0  0
    6.9977  -13.5621   23.6501 C   0  0  0  0  0  0  0  0  0  0  0  0
    6.5453  -12.9791   24.8405 C   0  0  0  0  0  0  0  0  0  0  0  0
    6.1922  -13.7531   25.9018 C   0  0  0  0  0  0  0  0  0  0  0  0
    6.2639  -15.1127   25.8671 C   0  0  0  0  0  0  0  0  0  0  0  0
    6.7109  -15.7012   24.6965 C   0  0  0  0  0  0  0  0  0  0  0  0
    7.0805  -14.9336   23.5928 C   0  0  0  0  0  0  0  0  0  0  0  0
    9.8260  -17.9858   22.4256 C   0  0  0  0  0  0  0  0  0  0  0  0
   10.9189  -18.5661   22.1634 O   0  0  0  0  0  0  0  0  0  0  0  0
    9.2044  -18.3036   23.6648 N   0  0  0  0  0  0  0  0  0  0  0  0
    9.5934  -17.9087   24.9740 C   0  0  1  0  0  0  0  0  0  0  0  0
    9.9498  -16.4139   25.0785 C   0  0  0  0  0  0  0  0  0  0  0  0
   10.4670  -16.1334   26.4378 C   0  0  0  0  0  0  0  0  0  0  0  0
   11.1161  -17.0529   27.2519 C   0  0  0  0  0  0  0  0  0  0  0  0
   11.4270  -16.4545   28.3832 N   0  0  0  0  0  0  0  0  0  0  0  0
   11.0233  -15.1782   28.3709 C   0  0  0  0  0  0  0  0  0  0  0  0
   11.1410  -14.1855   29.3244 C   0  0  0  0  0  0  0  0  0  0  0  0
   10.6378  -12.9241   29.0553 C   0  0  0  0  0  0  0  0  0  0  0  0
   10.0317  -12.7030   27.8433 C   0  0  0  0  0  0  0  0  0  0  0  0
    9.9158  -13.6994   26.8903 C   0  0  0  0  0  0  0  0  0  0  0  0
   10.4176  -14.9546   27.1556 C   0  0  0  0  0  0  0  0  0  0  0  0
    8.7064  -18.3215   26.0616 C   0  0  0  0  0  0  0  0  0  0  0  0
    7.3478  -18.0498   26.0936 O   0  0  0  0  0  0  0  0  0  0  0  0
    9.1561  -18.9562   27.0534 O   0  0  0  0  0  0  0  0  0  0  0  0
  2  1  1  0
  3  2  1  0
  3  4  1  1
  5  6  1  6
  5  3  1  0
  7  5  1  0
  7  8  2  0
  9  7  1  0
 10  9  1  0
 10 21  1  0
 11 12  1  0
 10 11  1  1
 12 20  1  0
 13 14  1  0
 13 12  2  0
 14 15  1  0
 15 20  2  0
 15 16  1  0
 16 17  2  0
 17 18  1  0
 19 18  2  0
 20 19  1  0
 21 22  2  0
 21 23  1  0
 23 24  1  0
 24 35  1  0
 24 25  1  6
 26 25  1  0
 27 26  2  0
 28 27  1  0
 29 28  1  0
 29 34  2  0
 30 29  1  0
 31 30  2  0
 31 32  1  0
 32 33  2  0
 33 34  1  0
 34 26  1  0
 35 37  2  0
 35 36  1  0
M  END
$$$$
