IWW.pdb
     RDKit          3D

 37 40  0  0  1  0  0  0  0  0999 V2000
   14.7082  -21.2138   21.5166 C   0  0  0  0  0  0  0  0  0  0  0  0
   13.5520  -20.6783   20.7435 C   0  0  0  0  0  0  0  0  0  0  0  0
   12.9387  -19.4062   21.3684 C   0  0  2  0  0  0  0  0  0  0  0  0
   12.7204  -19.6404   22.8295 C   0  0  0  0  0  0  0  0  0  0  0  0
   11.7614  -18.8822   20.6230 C   0  0  2  0  0  0  0  0  0  0  0  0
   11.9012  -18.7638   19.2202 N   0  0  0  0  0  0  0  0  0  0  0  0
   11.3329  -17.5971   21.2897 C   0  0  0  0  0  0  0  0  0  0  0  0
   12.1710  -16.6636   21.3686 O   0  0  0  0  0  0  0  0  0  0  0  0
   10.0522  -17.4214   21.8089 N   0  0  0  0  0  0  0  0  0  0  0  0
    9.5278  -16.2473   22.4213 C   0  0  1  0  0  0  0  0  0  0  0  0
    8.0063  -16.4075   22.4266 C   0  0  0  0  0  0  0  0  0  0  0  0
    7.2712  -15.4215   21.6470 C   0  0  0  0  0  0  0  0  0  0  0  0
    5.9393  -15.2929   21.3609 C   0  0  0  0  0  0  0  0  0  0  0  0
    5.8333  -14.1929   20.5694 N   0  0  0  0  0  0  0  0  0  0  0  0
    7.0022  -13.6282   20.3443 C   0  0  0  0  0  0  0  0  0  0  0  0
    7.4290  -12.5083   19.6195 C   0  0  0  0  0  0  0  0  0  0  0  0
    8.7450  -12.1666   19.5812 C   0  0  0  0  0  0  0  0  0  0  0  0
    9.7029  -12.8858   20.2293 C   0  0  0  0  0  0  0  0  0  0  0  0
    9.2941  -13.9959   20.9483 C   0  0  0  0  0  0  0  0  0  0  0  0
    7.9525  -14.3709   21.0050 C   0  0  0  0  0  0  0  0  0  0  0  0
   10.0687  -15.9144   23.7582 C   0  0  0  0  0  0  0  0  0  0  0  0
   10.8760  -14.9612   23.9569 O   0  0  0  0  0  0  0  0  0  0  0  0
    9.6702  -16.6735   24.8931 N   0  0  0  0  0  0  0  0  0  0  0  0
   10.1437  -16.5763   26.2302 C   0  0  1  0  0  0  0  0  0  0  0  0
    9.0241  -16.3144   27.2552 C   0  0  0  0  0  0  0  0  0  0  0  0
    7.9157  -15.5935   26.5877 C   0  0  0  0  0  0  0  0  0  0  0  0
    6.8219  -16.1958   25.9789 C   0  0  0  0  0  0  0  0  0  0  0  0
    6.0485  -15.2483   25.4905 N   0  0  0  0  0  0  0  0  0  0  0  0
    6.5640  -14.0389   25.7423 C   0  0  0  0  0  0  0  0  0  0  0  0
    6.0984  -12.7766   25.4286 C   0  0  0  0  0  0  0  0  0  0  0  0
    6.8298  -11.6679   25.8191 C   0  0  0  0  0  0  0  0  0  0  0  0
    8.0028  -11.8628   26.5059 C   0  0  0  0  0  0  0  0  0  0  0  0
    8.4660  -13.1284   26.8188 C   0  0  0  0  0  0  0  0  0  0  0  0
    7.7386  -14.2327   26.4327 C   0  0  0  0  0  0  0  0  0  0  0  0
   11.0347  -17.6468   26.6775 C   0  0  0  0  0  0  0  0  0  0  0  0
   11.7835  -17.5904   27.8423 O   0  0  0  0  0  0  0  0  0  0  0  0
   11.1704  -18.6983   25.9959 O   0  0  0  0  0  0  0  0  0  0  0  0
  2  1  1  0
  3  2  1  0
  3  4  1  1
  5  6  1  6
  5  3  1  0
  7  5  1  0
  7  8  2  0
  9  7  1  0
 10  9  1  0
 10 21  1  0
 11 12  1  0
 10 11  1  1
 12 20  1  0
 13 14  1  0
 13 12  2  0
 14 15  1  0
 15 20  2  0
 15 16  1  0
 16 17  2  0
 17 18  1  0
 19 18  2  0
 20 19  1  0
 21 22  2  0
 21 23  1  0
 23 24  1  0
 24 35  1  0
 24 25  1  1
 26 25  1  0
 27 26  2  0
 28 27  1  0
 29 28  1  0
 29 34  2  0
 30 29  1  0
 31 30  2  0
 31 32  1  0
 32 33  2  0
 33 34  1  0
 34 26  1  0
 35 37  2  0
 35 36  1  0
M  END
$$$$
