IWW.pdb
     RDKit          3D

 37 40  0  0  1  0  0  0  0  0999 V2000
   12.7923  -22.2559   20.0985 C   0  0  0  0  0  0  0  0  0  0  0  0
   11.5542  -21.5856   19.6097 C   0  0  0  0  0  0  0  0  0  0  0  0
   11.3201  -20.1991   20.2481 C   0  0  2  0  0  0  0  0  0  0  0  0
   11.3564  -20.3384   21.7370 C   0  0  0  0  0  0  0  0  0  0  0  0
   10.1346  -19.4826   19.7028 C   0  0  2  0  0  0  0  0  0  0  0  0
    9.9488  -19.5402   18.3015 N   0  0  0  0  0  0  0  0  0  0  0  0
   10.1640  -18.0728   20.2425 C   0  0  0  0  0  0  0  0  0  0  0  0
   10.9786  -17.2616   19.7341 O   0  0  0  0  0  0  0  0  0  0  0  0
    9.3230  -17.6540   21.2711 N   0  0  0  0  0  0  0  0  0  0  0  0
    9.2444  -16.3502   21.8386 C   0  0  1  0  0  0  0  0  0  0  0  0
    7.8064  -16.1819   22.3330 C   0  0  0  0  0  0  0  0  0  0  0  0
    7.4455  -14.8374   22.7603 C   0  0  0  0  0  0  0  0  0  0  0  0
    7.2442  -13.6800   22.0587 C   0  0  0  0  0  0  0  0  0  0  0  0
    6.9494  -12.7299   22.9851 N   0  0  0  0  0  0  0  0  0  0  0  0
    6.9516  -13.2134   24.2108 C   0  0  0  0  0  0  0  0  0  0  0  0
    6.7175  -12.6716   25.4809 C   0  0  0  0  0  0  0  0  0  0  0  0
    6.7901  -13.4522   26.5925 C   0  0  0  0  0  0  0  0  0  0  0  0
    7.0951  -14.7782   26.5321 C   0  0  0  0  0  0  0  0  0  0  0  0
    7.3300  -15.3255   25.2824 C   0  0  0  0  0  0  0  0  0  0  0  0
    7.2635  -14.5500   24.1258 C   0  0  0  0  0  0  0  0  0  0  0  0
   10.2448  -16.0342   22.8827 C   0  0  0  0  0  0  0  0  0  0  0  0
   10.6362  -14.8566   23.1278 O   0  0  0  0  0  0  0  0  0  0  0  0
   10.7990  -17.0791   23.6727 N   0  0  0  0  0  0  0  0  0  0  0  0
   12.0294  -17.0890   24.3850 C   0  0  1  0  0  0  0  0  0  0  0  0
   12.1780  -15.9063   25.3604 C   0  0  0  0  0  0  0  0  0  0  0  0
   11.2654  -16.1087   26.5092 C   0  0  0  0  0  0  0  0  0  0  0  0
   10.7995  -17.3397   26.9532 C   0  0  0  0  0  0  0  0  0  0  0  0
   10.0102  -17.1333   27.9870 N   0  0  0  0  0  0  0  0  0  0  0  0
    9.9235  -15.8264   28.2637 C   0  0  0  0  0  0  0  0  0  0  0  0
    9.2258  -15.1575   29.2508 C   0  0  0  0  0  0  0  0  0  0  0  0
    9.3136  -13.7780   29.3267 C   0  0  0  0  0  0  0  0  0  0  0  0
   10.0933  -13.1175   28.4096 C   0  0  0  0  0  0  0  0  0  0  0  0
   10.7912  -13.7905   27.4225 C   0  0  0  0  0  0  0  0  0  0  0  0
   10.7065  -15.1634   27.3466 C   0  0  0  0  0  0  0  0  0  0  0  0
   12.3941  -18.3540   25.0230 C   0  0  0  0  0  0  0  0  0  0  0  0
   11.6154  -19.4989   24.9658 O   0  0  0  0  0  0  0  0  0  0  0  0
   13.4641  -18.4581   25.6810 O   0  0  0  0  0  0  0  0  0  0  0  0
  2  1  1  0
  3  2  1  0
  3  4  1  1
  5  6  1  6
  5  3  1  0
  7  5  1  0
  7  8  2  0
  9  7  1  0
 10  9  1  0
 10 21  1  0
 11 12  1  0
 10 11  1  1
 12 20  1  0
 13 14  1  0
 13 12  2  0
 14 15  1  0
 15 20  2  0
 15 16  1  0
 16 17  2  0
 17 18  1  0
 19 18  2  0
 20 19  1  0
 21 22  2  0
 21 23  1  0
 23 24  1  0
 24 35  1  0
 24 25  1  1
 26 25  1  0
 27 26  2  0
 28 27  1  0
 29 28  1  0
 29 34  2  0
 30 29  1  0
 31 30  2  0
 31 32  1  0
 32 33  2  0
 33 34  1  0
 34 26  1  0
 35 37  2  0
 35 36  1  0
M  END
$$$$
