IWW.pdb
     RDKit          3D

 37 40  0  0  1  0  0  0  0  0999 V2000
   11.4183  -19.0983   16.3209 C   0  0  0  0  0  0  0  0  0  0  0  0
   10.0082  -19.2121   16.7897 C   0  0  0  0  0  0  0  0  0  0  0  0
    9.7332  -18.4234   18.0886 C   0  0  2  0  0  0  0  0  0  0  0  0
   10.8117  -18.7287   19.0790 C   0  0  0  0  0  0  0  0  0  0  0  0
    8.3410  -18.5723   18.5946 C   0  0  2  0  0  0  0  0  0  0  0  0
    7.3007  -18.2614   17.6878 N   0  0  0  0  0  0  0  0  0  0  0  0
    8.2438  -17.8130   19.8961 C   0  0  0  0  0  0  0  0  0  0  0  0
    8.2718  -16.5571   19.8517 O   0  0  0  0  0  0  0  0  0  0  0  0
    8.1230  -18.4583   21.1247 N   0  0  0  0  0  0  0  0  0  0  0  0
    8.0478  -17.8499   22.4102 C   0  0  1  0  0  0  0  0  0  0  0  0
    7.0200  -18.6547   23.2080 C   0  0  0  0  0  0  0  0  0  0  0  0
    6.8248  -18.2276   24.5863 C   0  0  0  0  0  0  0  0  0  0  0  0
    6.2374  -17.1140   25.1222 C   0  0  0  0  0  0  0  0  0  0  0  0
    6.3653  -17.2379   26.4698 N   0  0  0  0  0  0  0  0  0  0  0  0
    6.9881  -18.3481   26.8099 C   0  0  0  0  0  0  0  0  0  0  0  0
    7.3605  -18.9322   28.0271 C   0  0  0  0  0  0  0  0  0  0  0  0
    8.0089  -20.1276   28.0536 C   0  0  0  0  0  0  0  0  0  0  0  0
    8.3307  -20.8064   26.9176 C   0  0  0  0  0  0  0  0  0  0  0  0
    7.9692  -20.2390   25.7077 C   0  0  0  0  0  0  0  0  0  0  0  0
    7.3049  -19.0146   25.6495 C   0  0  0  0  0  0  0  0  0  0  0  0
    9.3308  -17.6934   23.1315 C   0  0  0  0  0  0  0  0  0  0  0  0
   10.2112  -18.6005   23.1760 O   0  0  0  0  0  0  0  0  0  0  0  0
    9.6222  -16.4738   23.8029 N   0  0  0  0  0  0  0  0  0  0  0  0
   10.8114  -16.1076   24.4908 C   0  0  1  0  0  0  0  0  0  0  0  0
   10.7869  -14.6622   25.0224 C   0  0  0  0  0  0  0  0  0  0  0  0
    9.6047  -14.4883   25.8977 C   0  0  0  0  0  0  0  0  0  0  0  0
    9.4339  -15.0874   27.1393 C   0  0  0  0  0  0  0  0  0  0  0  0
    8.2684  -14.7098   27.6224 N   0  0  0  0  0  0  0  0  0  0  0  0
    7.6473  -13.8845   26.7709 C   0  0  0  0  0  0  0  0  0  0  0  0
    6.4255  -13.2462   26.8624 C   0  0  0  0  0  0  0  0  0  0  0  0
    6.0113  -12.4238   25.8286 C   0  0  0  0  0  0  0  0  0  0  0  0
    6.8331  -12.2730   24.7390 C   0  0  0  0  0  0  0  0  0  0  0  0
    8.0563  -12.9134   24.6507 C   0  0  0  0  0  0  0  0  0  0  0  0
    8.4710  -13.7307   25.6792 C   0  0  0  0  0  0  0  0  0  0  0  0
   11.2776  -17.0431   25.5143 C   0  0  0  0  0  0  0  0  0  0  0  0
   10.4987  -18.0621   26.0395 O   0  0  0  0  0  0  0  0  0  0  0  0
   12.4438  -16.9548   25.9841 O   0  0  0  0  0  0  0  0  0  0  0  0
  2  1  1  0
  3  2  1  0
  3  4  1  1
  5  6  1  6
  5  3  1  0
  7  5  1  0
  7  8  2  0
  9  7  1  0
 10  9  1  0
 10 21  1  0
 11 12  1  0
 10 11  1  1
 12 20  1  0
 13 14  1  0
 13 12  2  0
 14 15  1  0
 15 20  2  0
 15 16  1  0
 16 17  2  0
 17 18  1  0
 19 18  2  0
 20 19  1  0
 21 22  2  0
 21 23  1  0
 23 24  1  0
 24 35  1  0
 24 25  1  1
 26 25  1  0
 27 26  2  0
 28 27  1  0
 29 28  1  0
 29 34  2  0
 30 29  1  0
 31 30  2  0
 31 32  1  0
 32 33  2  0
 33 34  1  0
 34 26  1  0
 35 37  2  0
 35 36  1  0
M  END
$$$$
