IWW.pdb
     RDKit          3D

 37 40  0  0  1  0  0  0  0  0999 V2000
    6.9812  -11.9557   19.3470 C   0  0  0  0  0  0  0  0  0  0  0  0
    7.2444  -13.4144   19.5030 C   0  0  0  0  0  0  0  0  0  0  0  0
    8.1447  -13.7444   20.7135 C   0  0  2  0  0  0  0  0  0  0  0  0
    9.3756  -12.8971   20.6476 C   0  0  0  0  0  0  0  0  0  0  0  0
    8.3824  -15.2019   20.9017 C   0  0  2  0  0  0  0  0  0  0  0  0
    7.2415  -16.0381   20.8778 N   0  0  0  0  0  0  0  0  0  0  0  0
    9.2197  -15.3718   22.1465 C   0  0  0  0  0  0  0  0  0  0  0  0
   10.2867  -14.7134   22.2362 O   0  0  0  0  0  0  0  0  0  0  0  0
    8.8446  -16.2238   23.1829 N   0  0  0  0  0  0  0  0  0  0  0  0
    9.5769  -16.5032   24.3721 C   0  0  1  0  0  0  0  0  0  0  0  0
    8.5411  -16.6759   25.4848 C   0  0  0  0  0  0  0  0  0  0  0  0
    7.3272  -15.8854   25.3371 C   0  0  0  0  0  0  0  0  0  0  0  0
    6.0314  -16.2421   25.0804 C   0  0  0  0  0  0  0  0  0  0  0  0
    5.3286  -15.0797   25.0293 N   0  0  0  0  0  0  0  0  0  0  0  0
    6.0935  -14.0271   25.2370 C   0  0  0  0  0  0  0  0  0  0  0  0
    5.8703  -12.6454   25.2886 C   0  0  0  0  0  0  0  0  0  0  0  0
    6.8947  -11.7858   25.5370 C   0  0  0  0  0  0  0  0  0  0  0  0
    8.1716  -12.2142   25.7395 C   0  0  0  0  0  0  0  0  0  0  0  0
    8.4056  -13.5777   25.6897 C   0  0  0  0  0  0  0  0  0  0  0  0
    7.3757  -14.4825   25.4362 C   0  0  0  0  0  0  0  0  0  0  0  0
   10.5269  -17.6359   24.2995 C   0  0  0  0  0  0  0  0  0  0  0  0
   10.2018  -18.8266   24.5760 O   0  0  0  0  0  0  0  0  0  0  0  0
   11.8700  -17.4092   23.8897 N   0  0  0  0  0  0  0  0  0  0  0  0
   13.0486  -17.4184   24.6848 C   0  0  1  0  0  0  0  0  0  0  0  0
   13.2080  -16.1555   25.5521 C   0  0  0  0  0  0  0  0  0  0  0  0
   12.4849  -16.3514   26.8298 C   0  0  0  0  0  0  0  0  0  0  0  0
   12.3992  -17.5514   27.5244 C   0  0  0  0  0  0  0  0  0  0  0  0
   11.6771  -17.3502   28.6073 N   0  0  0  0  0  0  0  0  0  0  0  0
   11.2752  -16.0753   28.6789 C   0  0  0  0  0  0  0  0  0  0  0  0
   10.5157  -15.4208   29.6293 C   0  0  0  0  0  0  0  0  0  0  0  0
   10.2447  -14.0727   29.4697 C   0  0  0  0  0  0  0  0  0  0  0  0
   10.7402  -13.4292   28.3625 C   0  0  0  0  0  0  0  0  0  0  0  0
   11.5008  -14.0875   27.4127 C   0  0  0  0  0  0  0  0  0  0  0  0
   11.7732  -15.4287   27.5709 C   0  0  0  0  0  0  0  0  0  0  0  0
   13.2907  -18.6328   25.4637 C   0  0  0  0  0  0  0  0  0  0  0  0
   12.3332  -19.6098   25.6858 O   0  0  0  0  0  0  0  0  0  0  0  0
   14.4157  -18.8461   25.9906 O   0  0  0  0  0  0  0  0  0  0  0  0
  2  1  1  0
  3  2  1  0
  3  4  1  6
  5  6  1  1
  5  3  1  0
  7  5  1  0
  7  8  2  0
  9  7  1  0
 10  9  1  0
 10 21  1  0
 11 12  1  0
 10 11  1  1
 12 20  1  0
 13 14  1  0
 13 12  2  0
 14 15  1  0
 15 20  2  0
 15 16  1  0
 16 17  2  0
 17 18  1  0
 19 18  2  0
 20 19  1  0
 21 22  2  0
 21 23  1  0
 23 24  1  0
 24 35  1  0
 24 25  1  1
 26 25  1  0
 27 26  2  0
 28 27  1  0
 29 28  1  0
 29 34  2  0
 30 29  1  0
 31 30  2  0
 31 32  1  0
 32 33  2  0
 33 34  1  0
 34 26  1  0
 35 37  2  0
 35 36  1  0
M  END
$$$$
