DTT.pdb
     RDKit          3D

 23 22  0  0  1  0  0  0  0  0999 V2000
11858.1250 1909.6456-12897.2744 N   0  0  0  0  0  0  0  0  0  0  0  0
11858.2100 1909.5510-12895.8340 C   0  0  1  0  0  0  0  0  0  0  0  0
11858.9111 1910.7345-12895.2285 C   0  0  0  0  0  0  0  0  0  0  0  0
11858.7100 1911.9327-12896.0625 C   0  0  0  0  0  0  0  0  0  0  0  0
11859.6729 1912.5001-12896.6377 O   0  0  0  0  0  0  0  0  0  0  0  0
11856.8486 1909.3837-12895.2354 C   0  0  0  0  0  0  0  0  0  0  0  0
11855.9766 1910.2688-12895.4248 O   0  0  0  0  0  0  0  0  0  0  0  0
11857.4453 1912.4828-12896.2393 O   0  0  0  0  0  0  0  0  0  0  0  0
11854.5908 1910.2629-12895.1133 C   0  0  0  0  0  0  0  0  0  0  0  0
11854.1650 1908.8295-12894.9209 C   0  0  1  0  0  0  0  0  0  0  0  0
11854.2031 1908.1986-12896.1738 O   0  0  0  0  0  0  0  0  0  0  0  0
11855.0908 1908.1302-12893.9453 C   0  0  2  0  0  0  0  0  0  0  0  0
11856.4805 1908.2666-12894.4590 N   0  0  0  0  0  0  0  0  0  0  0  0
11854.8135 1906.6796-12893.9756 C   0  0  0  0  0  0  0  0  0  0  0  0
11855.2598 1905.9988-12894.9658 O   0  0  0  0  0  0  0  0  0  0  0  0
11852.2227 1904.9113-12891.3340 C   0  0  0  0  0  0  0  0  0  0  0  0
11853.5449 1904.2015-12891.5244 C   0  0  1  0  0  0  0  0  0  0  0  0
11853.3418 1902.8256-12891.5068 O   0  0  0  0  0  0  0  0  0  0  0  0
11854.0703 1904.5582-12892.9082 C   0  0  2  0  0  0  0  0  0  0  0  0
11854.0938 1906.0063-12892.9668 N   0  0  0  0  0  0  0  0  0  0  0  0
11853.2471 1903.9735-12893.9648 C   0  0  0  0  0  0  0  0  0  0  0  0
11852.2598 1904.6757-12894.6045 O   0  0  0  0  0  0  0  0  0  0  0  0
11853.4580 1902.7767-12894.3154 O   0  0  0  0  0  0  0  0  0  0  0  0
  2  1  1  6
  2  3  1  0
  3  4  1  0
  4  8  1  0
  5  4  2  0
  6 13  1  0
  6  2  1  0
  7  6  2  0
 10  9  1  6
 10 12  1  0
 11 10  1  0
 12 13  1  6
 12 14  1  0
 14 20  1  0
 15 14  2  0
 17 18  1  0
 17 16  1  6
 19 17  1  0
 19 20  1  6
 21 22  1  0
 21 19  1  0
 23 21  2  0
M  END
$$$$
