DTT.pdb
     RDKit          3D

 23 22  0  0  1  0  0  0  0  0999 V2000
   18.4551  -12.8599  -16.5083 N   0  0  0  0  0  0  0  0  0  0  0  0
   18.0692  -11.4897  -16.2502 C   0  0  1  0  0  0  0  0  0  0  0  0
   16.7080  -11.3909  -15.6218 C   0  0  0  0  0  0  0  0  0  0  0  0
   15.6762  -11.8583  -16.5618 C   0  0  0  0  0  0  0  0  0  0  0  0
   15.4485  -11.2493  -17.6415 O   0  0  0  0  0  0  0  0  0  0  0  0
   19.0932  -10.8114  -15.3998 C   0  0  0  0  0  0  0  0  0  0  0  0
   19.1925  -11.1193  -14.1843 O   0  0  0  0  0  0  0  0  0  0  0  0
   14.9125  -12.9880  -16.2981 O   0  0  0  0  0  0  0  0  0  0  0  0
   22.6479  -11.1007  -15.3413 C   0  0  0  0  0  0  0  0  0  0  0  0
   22.3733   -9.6387  -15.5878 C   0  0  1  0  0  0  0  0  0  0  0  0
   22.3954   -9.4276  -16.9771 O   0  0  0  0  0  0  0  0  0  0  0  0
   21.0280   -9.2478  -15.0119 C   0  0  2  0  0  0  0  0  0  0  0  0
   19.9736   -9.8251  -15.8911 N   0  0  0  0  0  0  0  0  0  0  0  0
   20.8586   -7.7841  -15.1302 C   0  0  0  0  0  0  0  0  0  0  0  0
   20.0118   -7.3398  -15.9793 O   0  0  0  0  0  0  0  0  0  0  0  0
   19.7096   -3.7152  -13.8341 C   0  0  0  0  0  0  0  0  0  0  0  0
   19.9070   -5.1999  -14.0329 C   0  0  1  0  0  0  0  0  0  0  0  0
   19.0826   -5.6513  -15.0584 O   0  0  0  0  0  0  0  0  0  0  0  0
   21.3451   -5.4311  -14.4803 C   0  0  2  0  0  0  0  0  0  0  0  0
   21.5806   -6.8558  -14.3517 N   0  0  0  0  0  0  0  0  0  0  0  0
   22.2878   -4.6405  -13.6857 C   0  0  0  0  0  0  0  0  0  0  0  0
   22.8463   -3.4756  -14.1504 O   0  0  0  0  0  0  0  0  0  0  0  0
   22.6041   -5.0376  -12.5299 O   0  0  0  0  0  0  0  0  0  0  0  0
  2  1  1  1
  2  3  1  0
  3  4  1  0
  4  8  1  0
  5  4  2  0
  6 13  1  0
  6  2  1  0
  7  6  2  0
 10  9  1  6
 10 12  1  0
 11 10  1  0
 12 13  1  6
 12 14  1  0
 14 20  1  0
 15 14  2  0
 17 18  1  0
 17 16  1  6
 19 17  1  0
 19 20  1  1
 21 22  1  0
 21 19  1  0
 23 21  2  0
M  END
$$$$
