DTT.pdb
     RDKit          3D

 23 22  0  0  1  0  0  0  0  0999 V2000
   16.2929  -11.9469  -15.3931 N   0  0  0  0  0  0  0  0  0  0  0  0
   17.6654  -11.4913  -15.4340 C   0  0  1  0  0  0  0  0  0  0  0  0
   18.3817  -11.9541  -16.6711 C   0  0  0  0  0  0  0  0  0  0  0  0
   18.5935  -13.4100  -16.6242 C   0  0  0  0  0  0  0  0  0  0  0  0
   18.9114  -13.9923  -15.5526 O   0  0  0  0  0  0  0  0  0  0  0  0
   17.7240  -10.0032  -15.3162 C   0  0  0  0  0  0  0  0  0  0  0  0
   17.0634   -9.2913  -16.1154 O   0  0  0  0  0  0  0  0  0  0  0  0
   18.4518  -14.2006  -17.7572 O   0  0  0  0  0  0  0  0  0  0  0  0
   16.2719   -7.7243  -13.1972 C   0  0  0  0  0  0  0  0  0  0  0  0
   17.7427   -7.4354  -13.0331 C   0  0  1  0  0  0  0  0  0  0  0  0
   18.1973   -8.1528  -11.9133 O   0  0  0  0  0  0  0  0  0  0  0  0
   18.5056   -7.8483  -14.2748 C   0  0  2  0  0  0  0  0  0  0  0  0
   18.4935   -9.3362  -14.3403 N   0  0  0  0  0  0  0  0  0  0  0  0
   19.9299   -7.4894  -14.1085 C   0  0  0  0  0  0  0  0  0  0  0  0
   20.7017   -8.3285  -13.5290 O   0  0  0  0  0  0  0  0  0  0  0  0
   22.6996   -7.1165  -16.2944 C   0  0  0  0  0  0  0  0  0  0  0  0
   22.5130   -5.7522  -15.6726 C   0  0  1  0  0  0  0  0  0  0  0  0
   21.6308   -5.0007  -16.4422 O   0  0  0  0  0  0  0  0  0  0  0  0
   21.8670   -5.9387  -14.3054 C   0  0  2  0  0  0  0  0  0  0  0  0
   20.4791   -6.2713  -14.5600 N   0  0  0  0  0  0  0  0  0  0  0  0
   22.0055   -4.7379  -13.4782 C   0  0  0  0  0  0  0  0  0  0  0  0
   23.2034   -4.3595  -12.9246 O   0  0  0  0  0  0  0  0  0  0  0  0
   20.9909   -4.0188  -13.2613 O   0  0  0  0  0  0  0  0  0  0  0  0
  2  1  1  6
  2  3  1  0
  3  4  1  0
  4  8  1  0
  5  4  2  0
  6 13  1  0
  6  2  1  0
  7  6  2  0
 10  9  1  6
 10 12  1  0
 11 10  1  0
 12 13  1  1
 12 14  1  0
 14 20  1  0
 15 14  2  0
 17 18  1  0
 17 16  1  6
 19 17  1  0
 19 20  1  6
 21 22  1  0
 21 19  1  0
 23 21  2  0
M  END
$$$$
