DTT.pdb
     RDKit          3D

 23 22  0  0  1  0  0  0  0  0999 V2000
   17.0226  -11.3710  -16.9698 N   0  0  0  0  0  0  0  0  0  0  0  0
   17.7028  -10.1427  -17.3183 C   0  0  1  0  0  0  0  0  0  0  0  0
   16.7434   -9.0194  -17.5929 C   0  0  0  0  0  0  0  0  0  0  0  0
   15.9766   -9.2910  -18.8197 C   0  0  0  0  0  0  0  0  0  0  0  0
   16.5533   -9.5608  -19.9073 O   0  0  0  0  0  0  0  0  0  0  0  0
   18.6697   -9.7602  -16.2458 C   0  0  0  0  0  0  0  0  0  0  0  0
   18.3295   -9.8615  -15.0391 O   0  0  0  0  0  0  0  0  0  0  0  0
   14.5880   -9.2611  -18.8288 O   0  0  0  0  0  0  0  0  0  0  0  0
   23.2484   -9.5134  -14.6619 C   0  0  0  0  0  0  0  0  0  0  0  0
   22.1969   -9.7999  -15.7039 C   0  0  1  0  0  0  0  0  0  0  0  0
   21.9516  -11.1837  -15.6950 O   0  0  0  0  0  0  0  0  0  0  0  0
   20.9268   -9.0327  -15.4000 C   0  0  2  0  0  0  0  0  0  0  0  0
   19.9694   -9.2819  -16.5133 N   0  0  0  0  0  0  0  0  0  0  0  0
   21.2108   -7.5834  -15.4636 C   0  0  0  0  0  0  0  0  0  0  0  0
   21.7335   -7.1157  -16.5330 O   0  0  0  0  0  0  0  0  0  0  0  0
   19.2090   -4.7335  -15.6282 C   0  0  0  0  0  0  0  0  0  0  0  0
   20.0172   -4.4996  -14.3732 C   0  0  1  0  0  0  0  0  0  0  0  0
   19.3287   -4.9949  -13.2707 O   0  0  0  0  0  0  0  0  0  0  0  0
   21.3112   -5.2959  -14.4874 C   0  0  2  0  0  0  0  0  0  0  0  0
   20.9306   -6.6926  -14.4068 N   0  0  0  0  0  0  0  0  0  0  0  0
   22.2658   -4.9213  -13.4417 C   0  0  0  0  0  0  0  0  0  0  0  0
   22.9087   -3.7083  -13.4321 O   0  0  0  0  0  0  0  0  0  0  0  0
   22.5124   -5.7379  -12.5111 O   0  0  0  0  0  0  0  0  0  0  0  0
  2  1  1  1
  2  3  1  0
  3  4  1  0
  4  8  1  0
  5  4  2  0
  6 13  1  0
  6  2  1  0
  7  6  2  0
 10  9  1  1
 10 12  1  0
 11 10  1  0
 12 13  1  6
 12 14  1  0
 14 20  1  0
 15 14  2  0
 17 18  1  0
 17 16  1  6
 19 17  1  0
 19 20  1  1
 21 22  1  0
 21 19  1  0
 23 21  2  0
M  END
$$$$
