DTT.pdb
     RDKit          3D

 23 22  0  0  1  0  0  0  0  0999 V2000
   19.6592  -10.0880  -17.2566 N   0  0  0  0  0  0  0  0  0  0  0  0
   19.2518   -9.0507  -18.1791 C   0  0  1  0  0  0  0  0  0  0  0  0
   18.3915   -9.5831  -19.2900 C   0  0  0  0  0  0  0  0  0  0  0  0
   19.0808  -10.6799  -19.9890 C   0  0  0  0  0  0  0  0  0  0  0  0
   19.2650  -11.7970  -19.4355 O   0  0  0  0  0  0  0  0  0  0  0  0
   18.5511   -7.9510  -17.4501 C   0  0  0  0  0  0  0  0  0  0  0  0
   18.1639   -6.9356  -18.0832 O   0  0  0  0  0  0  0  0  0  0  0  0
   19.5556  -10.5289  -21.2855 O   0  0  0  0  0  0  0  0  0  0  0  0
   15.4144   -8.0851  -15.3312 C   0  0  0  0  0  0  0  0  0  0  0  0
   16.5104   -7.4617  -14.5043 C   0  0  1  0  0  0  0  0  0  0  0  0
   17.0589   -8.4688  -13.6919 O   0  0  0  0  0  0  0  0  0  0  0  0
   17.5748   -6.8628  -15.4003 C   0  0  2  0  0  0  0  0  0  0  0  0
   18.2932   -7.9861  -16.0638 N   0  0  0  0  0  0  0  0  0  0  0  0
   18.5978   -6.2036  -14.5613 C   0  0  0  0  0  0  0  0  0  0  0  0
   18.2337   -5.2295  -13.8168 O   0  0  0  0  0  0  0  0  0  0  0  0
   20.8864   -7.7807  -12.1388 C   0  0  0  0  0  0  0  0  0  0  0  0
   21.7727   -6.9754  -13.0602 C   0  0  1  0  0  0  0  0  0  0  0  0
   22.2564   -7.7900  -14.0788 O   0  0  0  0  0  0  0  0  0  0  0  0
   20.9190   -5.8975  -13.7165 C   0  0  2  0  0  0  0  0  0  0  0  0
   19.9517   -6.5977  -14.5386 N   0  0  0  0  0  0  0  0  0  0  0  0
   21.7372   -4.9662  -14.4965 C   0  0  0  0  0  0  0  0  0  0  0  0
   21.6265   -4.8533  -15.8603 O   0  0  0  0  0  0  0  0  0  0  0  0
   22.5777   -4.2365  -13.9009 O   0  0  0  0  0  0  0  0  0  0  0  0
  2  1  1  1
  2  3  1  0
  3  4  1  0
  4  8  1  0
  5  4  2  0
  6 13  1  0
  6  2  1  0
  7  6  2  0
 10  9  1  6
 10 12  1  0
 11 10  1  0
 12 13  1  1
 12 14  1  0
 14 20  1  0
 15 14  2  0
 17 18  1  0
 17 16  1  1
 19 17  1  0
 19 20  1  6
 21 22  1  0
 21 19  1  0
 23 21  2  0
M  END
$$$$
