DTT.pdb
     RDKit          3D

 23 22  0  0  1  0  0  0  0  0999 V2000
   17.3551  -10.9403  -16.2332 N   0  0  0  0  0  0  0  0  0  0  0  0
   18.7017  -11.3273  -15.8728 C   0  0  1  0  0  0  0  0  0  0  0  0
   19.0988  -12.6411  -16.4841 C   0  0  0  0  0  0  0  0  0  0  0  0
   18.2464  -13.7238  -15.9667 C   0  0  0  0  0  0  0  0  0  0  0  0
   17.4915  -13.5463  -14.9732 O   0  0  0  0  0  0  0  0  0  0  0  0
   19.6707  -10.2551  -16.2510 C   0  0  0  0  0  0  0  0  0  0  0  0
   20.8971  -10.5249  -16.3230 O   0  0  0  0  0  0  0  0  0  0  0  0
   18.2390  -14.9837  -16.5512 O   0  0  0  0  0  0  0  0  0  0  0  0
   20.0995   -8.2946  -19.3417 C   0  0  0  0  0  0  0  0  0  0  0  0
   19.8971   -7.3002  -18.2264 C   0  0  1  0  0  0  0  0  0  0  0  0
   18.5380   -6.9429  -18.2133 O   0  0  0  0  0  0  0  0  0  0  0  0
   20.3008   -7.9049  -16.8976 C   0  0  2  0  0  0  0  0  0  0  0  0
   19.2821   -8.9300  -16.5379 N   0  0  0  0  0  0  0  0  0  0  0  0
   20.1881   -6.8745  -15.8437 C   0  0  0  0  0  0  0  0  0  0  0  0
   19.0200   -6.5544  -15.4330 O   0  0  0  0  0  0  0  0  0  0  0  0
   20.7649   -6.8137  -12.5101 C   0  0  0  0  0  0  0  0  0  0  0  0
   21.6789   -5.7064  -12.9809 C   0  0  1  0  0  0  0  0  0  0  0  0
   22.9444   -6.2206  -13.2442 O   0  0  0  0  0  0  0  0  0  0  0  0
   21.1320   -5.1678  -14.2970 C   0  0  2  0  0  0  0  0  0  0  0  0
   21.3031   -6.2314  -15.2673 N   0  0  0  0  0  0  0  0  0  0  0  0
   21.8165   -3.9369  -14.6988 C   0  0  0  0  0  0  0  0  0  0  0  0
   21.7276   -2.7747  -13.9735 O   0  0  0  0  0  0  0  0  0  0  0  0
   22.5161   -3.9357  -15.7496 O   0  0  0  0  0  0  0  0  0  0  0  0
  2  1  1  6
  2  3  1  0
  3  4  1  0
  4  8  1  0
  5  4  2  0
  6 13  1  0
  6  2  1  0
  7  6  2  0
 10  9  1  6
 10 12  1  0
 11 10  1  0
 12 13  1  1
 12 14  1  0
 14 20  1  0
 15 14  2  0
 17 18  1  0
 17 16  1  6
 19 17  1  0
 19 20  1  6
 21 22  1  0
 21 19  1  0
 23 21  2  0
M  END
$$$$
