DTT.pdb
     RDKit          3D

 23 22  0  0  1  0  0  0  0  0999 V2000
   16.6426  -11.9848  -15.5617 N   0  0  0  0  0  0  0  0  0  0  0  0
   16.7845  -10.5471  -15.4853 C   0  0  1  0  0  0  0  0  0  0  0  0
   15.8218   -9.9315  -14.5097 C   0  0  0  0  0  0  0  0  0  0  0  0
   14.4480  -10.0035  -15.0333 C   0  0  0  0  0  0  0  0  0  0  0  0
   14.1596   -9.5675  -16.1801 O   0  0  0  0  0  0  0  0  0  0  0  0
   18.1911  -10.1799  -15.1413 C   0  0  0  0  0  0  0  0  0  0  0  0
   18.7659  -10.7569  -14.1828 O   0  0  0  0  0  0  0  0  0  0  0  0
   13.4147  -10.5539  -14.2861 O   0  0  0  0  0  0  0  0  0  0  0  0
   21.2869  -10.8641  -16.6928 C   0  0  0  0  0  0  0  0  0  0  0  0
   21.2163   -9.3591  -16.6324 C   0  0  1  0  0  0  0  0  0  0  0  0
   20.6879   -8.9063  -17.8534 O   0  0  0  0  0  0  0  0  0  0  0  0
   20.3422   -8.9155  -15.4777 C   0  0  2  0  0  0  0  0  0  0  0  0
   18.9275   -9.2032  -15.8436 N   0  0  0  0  0  0  0  0  0  0  0  0
   20.4095   -7.4437  -15.3583 C   0  0  0  0  0  0  0  0  0  0  0  0
   19.7819   -6.7374  -16.2202 O   0  0  0  0  0  0  0  0  0  0  0  0
   19.1942   -5.0039  -13.0910 C   0  0  0  0  0  0  0  0  0  0  0  0
   20.6957   -4.8467  -13.0310 C   0  0  1  0  0  0  0  0  0  0  0  0
   21.2144   -5.6584  -12.0274 O   0  0  0  0  0  0  0  0  0  0  0  0
   21.2771   -5.3396  -14.3503 C   0  0  2  0  0  0  0  0  0  0  0  0
   21.1270   -6.7816  -14.3405 N   0  0  0  0  0  0  0  0  0  0  0  0
   22.6744   -4.9298  -14.5074 C   0  0  0  0  0  0  0  0  0  0  0  0
   23.7136   -5.8260  -14.4655 O   0  0  0  0  0  0  0  0  0  0  0  0
   22.9421   -3.7094  -14.6882 O   0  0  0  0  0  0  0  0  0  0  0  0
  2  1  1  1
  2  3  1  0
  3  4  1  0
  4  8  1  0
  5  4  2  0
  6 13  1  0
  6  2  1  0
  7  6  2  0
 10  9  1  6
 10 12  1  0
 11 10  1  0
 12 13  1  6
 12 14  1  0
 14 20  1  0
 15 14  2  0
 17 18  1  0
 17 16  1  6
 19 17  1  0
 19 20  1  1
 21 22  1  0
 21 19  1  0
 23 21  2  0
M  END
$$$$
