DTT.pdb
     RDKit          3D

 23 22  0  0  1  0  0  0  0  0999 V2000
   19.4236  -12.8241  -16.8675 N   0  0  0  0  0  0  0  0  0  0  0  0
   19.4116  -11.3956  -17.0953 C   0  0  1  0  0  0  0  0  0  0  0  0
   18.0165  -10.8491  -17.2068 C   0  0  0  0  0  0  0  0  0  0  0  0
   17.3013  -11.4970  -18.3182 C   0  0  0  0  0  0  0  0  0  0  0  0
   17.7763  -11.5088  -19.4855 O   0  0  0  0  0  0  0  0  0  0  0  0
   20.1700  -10.6900  -16.0189 C   0  0  0  0  0  0  0  0  0  0  0  0
   19.9257  -10.9532  -14.8135 O   0  0  0  0  0  0  0  0  0  0  0  0
   16.0755  -12.1213  -18.1264 O   0  0  0  0  0  0  0  0  0  0  0  0
   23.4142  -10.9932  -14.7911 C   0  0  0  0  0  0  0  0  0  0  0  0
   23.3292   -9.5443  -15.2002 C   0  0  1  0  0  0  0  0  0  0  0  0
   23.8504   -9.4358  -16.5008 O   0  0  0  0  0  0  0  0  0  0  0  0
   21.8925   -9.0662  -15.1613 C   0  0  2  0  0  0  0  0  0  0  0  0
   21.1650   -9.7254  -16.2813 N   0  0  0  0  0  0  0  0  0  0  0  0
   21.8544   -7.6240  -15.4834 C   0  0  0  0  0  0  0  0  0  0  0  0
   22.1985   -7.2573  -16.6593 O   0  0  0  0  0  0  0  0  0  0  0  0
   19.4672   -5.3737  -16.1538 C   0  0  0  0  0  0  0  0  0  0  0  0
   20.1369   -4.7024  -14.9775 C   0  0  1  0  0  0  0  0  0  0  0  0
   19.4908   -5.0625  -13.7994 O   0  0  0  0  0  0  0  0  0  0  0  0
   21.5646   -5.2258  -14.8828 C   0  0  2  0  0  0  0  0  0  0  0  0
   21.4543   -6.6351  -14.5608 N   0  0  0  0  0  0  0  0  0  0  0  0
   22.3410   -4.4890  -13.8830 C   0  0  0  0  0  0  0  0  0  0  0  0
   22.6834   -3.1692  -14.0431 O   0  0  0  0  0  0  0  0  0  0  0  0
   22.7131   -5.0818  -12.8323 O   0  0  0  0  0  0  0  0  0  0  0  0
  2  1  1  1
  2  3  1  0
  3  4  1  0
  4  8  1  0
  5  4  2  0
  6 13  1  0
  6  2  1  0
  7  6  2  0
 10  9  1  6
 10 12  1  0
 11 10  1  0
 12 13  1  6
 12 14  1  0
 14 20  1  0
 15 14  2  0
 17 18  1  0
 17 16  1  6
 19 17  1  0
 19 20  1  1
 21 22  1  0
 21 19  1  0
 23 21  2  0
M  END
$$$$
