DTT.pdb
     RDKit          3D

 23 22  0  0  1  0  0  0  0  0999 V2000
   16.8236  -11.4459  -16.5041 N   0  0  0  0  0  0  0  0  0  0  0  0
   18.1078  -11.0024  -16.0069 C   0  0  1  0  0  0  0  0  0  0  0  0
   19.2466  -11.7891  -16.5914 C   0  0  0  0  0  0  0  0  0  0  0  0
   19.3891  -13.0772  -15.8934 C   0  0  0  0  0  0  0  0  0  0  0  0
   18.6334  -13.3906  -14.9347 O   0  0  0  0  0  0  0  0  0  0  0  0
   18.2894   -9.5418  -16.2628 C   0  0  0  0  0  0  0  0  0  0  0  0
   18.3230   -9.1192  -17.4470 O   0  0  0  0  0  0  0  0  0  0  0  0
   20.3606  -13.9986  -16.2621 O   0  0  0  0  0  0  0  0  0  0  0  0
   16.0549   -6.9853  -16.0851 C   0  0  0  0  0  0  0  0  0  0  0  0
   17.1444   -6.5327  -15.1461 C   0  0  1  0  0  0  0  0  0  0  0  0
   16.7894   -6.9427  -13.8496 O   0  0  0  0  0  0  0  0  0  0  0  0
   18.4748   -7.1347  -15.5486 C   0  0  2  0  0  0  0  0  0  0  0  0
   18.4284   -8.5892  -15.2320 N   0  0  0  0  0  0  0  0  0  0  0  0
   19.5354   -6.5915  -14.6738 C   0  0  0  0  0  0  0  0  0  0  0  0
   19.6322   -7.0503  -13.4840 O   0  0  0  0  0  0  0  0  0  0  0  0
   23.0343   -6.8906  -14.5358 C   0  0  0  0  0  0  0  0  0  0  0  0
   22.7927   -5.4164  -14.7623 C   0  0  1  0  0  0  0  0  0  0  0  0
   22.7249   -5.1546  -16.1268 O   0  0  0  0  0  0  0  0  0  0  0  0
   21.4340   -5.0625  -14.1707 C   0  0  2  0  0  0  0  0  0  0  0  0
   20.4462   -5.5973  -15.0873 N   0  0  0  0  0  0  0  0  0  0  0  0
   21.2902   -3.6169  -13.9840 C   0  0  0  0  0  0  0  0  0  0  0  0
   22.0311   -2.9160  -13.0650 O   0  0  0  0  0  0  0  0  0  0  0  0
   20.4565   -2.9843  -14.6900 O   0  0  0  0  0  0  0  0  0  0  0  0
  2  1  1  6
  2  3  1  0
  3  4  1  0
  4  8  1  0
  5  4  2  0
  6 13  1  0
  6  2  1  0
  7  6  2  0
 10  9  1  6
 10 12  1  0
 11 10  1  0
 12 13  1  1
 12 14  1  0
 14 20  1  0
 15 14  2  0
 17 18  1  0
 17 16  1  6
 19 17  1  0
 19 20  1  6
 21 22  1  0
 21 19  1  0
 23 21  2  0
M  END
$$$$
