DTT.pdb
     RDKit          3D

 23 22  0  0  1  0  0  0  0  0999 V2000
   21.9515  -18.2086  -15.5025 N   0  0  0  0  0  0  0  0  0  0  0  0
   22.2342  -19.0195  -16.6667 C   0  0  1  0  0  0  0  0  0  0  0  0
   21.8254  -18.3426  -17.9443 C   0  0  0  0  0  0  0  0  0  0  0  0
   20.4449  -17.8430  -17.8387 C   0  0  0  0  0  0  0  0  0  0  0  0
   19.7813  -17.9696  -16.7747 O   0  0  0  0  0  0  0  0  0  0  0  0
   23.6811  -19.3892  -16.7052 C   0  0  0  0  0  0  0  0  0  0  0  0
   24.3292  -19.2474  -17.7737 O   0  0  0  0  0  0  0  0  0  0  0  0
   19.8179  -17.2126  -18.9056 O   0  0  0  0  0  0  0  0  0  0  0  0
   25.6477  -17.6735  -14.4376 C   0  0  0  0  0  0  0  0  0  0  0  0
   26.3092  -18.4320  -15.5604 C   0  0  1  0  0  0  0  0  0  0  0  0
   27.6996  -18.3407  -15.3774 O   0  0  0  0  0  0  0  0  0  0  0  0
   25.8660  -19.8804  -15.5546 C   0  0  2  0  0  0  0  0  0  0  0  0
   24.3772  -19.8989  -15.5894 N   0  0  0  0  0  0  0  0  0  0  0  0
   26.2209  -20.4891  -14.2551 C   0  0  0  0  0  0  0  0  0  0  0  0
   27.4349  -20.8433  -14.0644 O   0  0  0  0  0  0  0  0  0  0  0  0
   27.9201  -20.7664  -12.6217 C   0  0  0  0  0  0  0  0  0  0  0  0
   26.9183  -20.8540  -11.4940 C   0  0  1  0  0  0  0  0  0  0  0  0
   26.5964  -19.5756  -11.0499 O   0  0  0  0  0  0  0  0  0  0  0  0
   25.6387  -21.4721  -12.0437 C   0  0  2  0  0  0  0  0  0  0  0  0
   25.2895  -20.6942  -13.2162 N   0  0  0  0  0  0  0  0  0  0  0  0
   24.5701  -21.4732  -11.0420 C   0  0  0  0  0  0  0  0  0  0  0  0
   24.6365  -22.2255   -9.8956 O   0  0  0  0  0  0  0  0  0  0  0  0
   23.5467  -20.7589  -11.2320 O   0  0  0  0  0  0  0  0  0  0  0  0
  2  1  1  1
  2  3  1  0
  3  4  1  0
  4  8  1  0
  5  4  2  0
  6 13  1  0
  6  2  1  0
  7  6  2  0
 10  9  1  1
 10 12  1  0
 11 10  1  0
 12 13  1  1
 12 14  1  0
 14 20  1  0
 15 14  2  0
 17 18  1  0
 17 16  1  6
 19 17  1  0
 19 20  1  6
 21 22  1  0
 21 19  1  0
 23 21  2  0
M  END
$$$$
