DTT.pdb
     RDKit          3D

 23 22  0  0  1  0  0  0  0  0999 V2000
   15.4276  -11.5095  -16.2525 N   0  0  0  0  0  0  0  0  0  0  0  0
   16.5676  -11.2048  -15.4156 C   0  0  1  0  0  0  0  0  0  0  0  0
   17.6052  -12.2910  -15.4503 C   0  0  0  0  0  0  0  0  0  0  0  0
   17.0767  -13.5221  -14.8406 C   0  0  0  0  0  0  0  0  0  0  0  0
   17.5344  -14.6552  -15.1487 O   0  0  0  0  0  0  0  0  0  0  0  0
   17.1647   -9.8923  -15.8062 C   0  0  0  0  0  0  0  0  0  0  0  0
   17.2085   -9.5677  -17.0205 O   0  0  0  0  0  0  0  0  0  0  0  0
   16.0534  -13.4855  -13.9023 O   0  0  0  0  0  0  0  0  0  0  0  0
   15.8884   -6.8536  -15.9051 C   0  0  0  0  0  0  0  0  0  0  0  0
   17.0777   -6.6339  -15.0045 C   0  0  1  0  0  0  0  0  0  0  0  0
   16.6405   -6.7757  -13.6764 O   0  0  0  0  0  0  0  0  0  0  0  0
   18.1696   -7.6367  -15.3148 C   0  0  2  0  0  0  0  0  0  0  0  0
   17.6934   -8.9768  -14.8725 N   0  0  0  0  0  0  0  0  0  0  0  0
   19.3431   -7.3527  -14.4620 C   0  0  0  0  0  0  0  0  0  0  0  0
   19.2945   -7.6979  -13.2315 O   0  0  0  0  0  0  0  0  0  0  0  0
   22.8092   -8.4801  -14.6355 C   0  0  0  0  0  0  0  0  0  0  0  0
   22.8646   -6.9721  -14.7115 C   0  0  1  0  0  0  0  0  0  0  0  0
   22.8329   -6.5663  -16.0416 O   0  0  0  0  0  0  0  0  0  0  0  0
   21.6119   -6.4177  -14.0445 C   0  0  2  0  0  0  0  0  0  0  0  0
   20.5126   -6.7247  -14.9385 N   0  0  0  0  0  0  0  0  0  0  0  0
   21.7318   -4.9806  -13.7883 C   0  0  0  0  0  0  0  0  0  0  0  0
   22.5521   -4.4729  -12.8116 O   0  0  0  0  0  0  0  0  0  0  0  0
   21.0595   -4.1719  -14.4867 O   0  0  0  0  0  0  0  0  0  0  0  0
  2  1  1  6
  2  3  1  0
  3  4  1  0
  4  8  1  0
  5  4  2  0
  6 13  1  0
  6  2  1  0
  7  6  2  0
 10  9  1  6
 10 12  1  0
 11 10  1  0
 12 13  1  1
 12 14  1  0
 14 20  1  0
 15 14  2  0
 17 18  1  0
 17 16  1  6
 19 17  1  0
 19 20  1  6
 21 22  1  0
 21 19  1  0
 23 21  2  0
M  END
$$$$
