DTT.pdb
     RDKit          3D

 23 22  0  0  1  0  0  0  0  0999 V2000
   13.5403   -9.3070   -9.6887 N   0  0  0  0  0  0  0  0  0  0  0  0
   14.9248   -9.5182  -10.0515 C   0  0  1  0  0  0  0  0  0  0  0  0
   15.0924  -10.6572  -11.0169 C   0  0  0  0  0  0  0  0  0  0  0  0
   14.5355  -11.8953  -10.4479 C   0  0  0  0  0  0  0  0  0  0  0  0
   14.5936  -12.1329   -9.2115 O   0  0  0  0  0  0  0  0  0  0  0  0
   15.5147   -8.2637  -10.6082 C   0  0  0  0  0  0  0  0  0  0  0  0
   14.9196   -7.6569  -11.5354 O   0  0  0  0  0  0  0  0  0  0  0  0
   13.9240  -12.8510  -11.2489 O   0  0  0  0  0  0  0  0  0  0  0  0
   15.8866   -4.9602   -9.2563 C   0  0  0  0  0  0  0  0  0  0  0  0
   17.2823   -5.4090   -9.6091 C   0  0  1  0  0  0  0  0  0  0  0  0
   17.8610   -5.9566   -8.4514 O   0  0  0  0  0  0  0  0  0  0  0  0
   17.2432   -6.4366  -10.7212 C   0  0  2  0  0  0  0  0  0  0  0  0
   16.7257   -7.7087  -10.1448 N   0  0  0  0  0  0  0  0  0  0  0  0
   18.6262   -6.7473  -11.1408 C   0  0  0  0  0  0  0  0  0  0  0  0
   19.3123   -7.5484  -10.4175 O   0  0  0  0  0  0  0  0  0  0  0  0
   21.9131   -7.5116  -14.4897 C   0  0  0  0  0  0  0  0  0  0  0  0
   20.5060   -7.2032  -14.0336 C   0  0  1  0  0  0  0  0  0  0  0  0
   19.7916   -8.3866  -13.8777 O   0  0  0  0  0  0  0  0  0  0  0  0
   20.5860   -6.5448  -12.6619 C   0  0  2  0  0  0  0  0  0  0  0  0
   19.2234   -6.2079  -12.2990 N   0  0  0  0  0  0  0  0  0  0  0  0
   21.4601   -5.3698  -12.6809 C   0  0  0  0  0  0  0  0  0  0  0  0
   22.8018   -5.4457  -12.4002 O   0  0  0  0  0  0  0  0  0  0  0  0
   20.9699   -4.2416  -12.9648 O   0  0  0  0  0  0  0  0  0  0  0  0
  2  1  1  6
  2  3  1  0
  3  4  1  0
  4  8  1  0
  5  4  2  0
  6 13  1  0
  6  2  1  0
  7  6  2  0
 10  9  1  1
 10 12  1  0
 11 10  1  0
 12 13  1  1
 12 14  1  0
 14 20  1  0
 15 14  2  0
 17 18  1  0
 17 16  1  1
 19 17  1  0
 19 20  1  6
 21 22  1  0
 21 19  1  0
 23 21  2  0
M  END
$$$$
