DTT.pdb
     RDKit          3D

 23 22  0  0  1  0  0  0  0  0999 V2000
   16.4555  -11.0709  -16.7301 N   0  0  0  0  0  0  0  0  0  0  0  0
   17.5231  -10.6066  -15.8714 C   0  0  1  0  0  0  0  0  0  0  0  0
   18.6905  -11.5524  -15.8531 C   0  0  0  0  0  0  0  0  0  0  0  0
   18.3084  -12.8231  -15.2160 C   0  0  0  0  0  0  0  0  0  0  0  0
   17.4481  -12.8628  -14.2959 O   0  0  0  0  0  0  0  0  0  0  0  0
   17.9602   -9.2371  -16.2777 C   0  0  0  0  0  0  0  0  0  0  0  0
   18.1850   -8.9922  -17.4908 O   0  0  0  0  0  0  0  0  0  0  0  0
   18.8794  -14.0288  -15.6023 O   0  0  0  0  0  0  0  0  0  0  0  0
   16.2800   -6.4137  -16.9054 C   0  0  0  0  0  0  0  0  0  0  0  0
   17.2234   -5.9798  -15.8121 C   0  0  1  0  0  0  0  0  0  0  0  0
   16.5567   -6.1361  -14.5848 O   0  0  0  0  0  0  0  0  0  0  0  0
   18.4872   -6.8142  -15.8407 C   0  0  2  0  0  0  0  0  0  0  0  0
   18.1392   -8.1805  -15.3607 N   0  0  0  0  0  0  0  0  0  0  0  0
   19.4349   -6.2905  -14.8343 C   0  0  0  0  0  0  0  0  0  0  0  0
   19.2657   -6.6258  -13.6118 O   0  0  0  0  0  0  0  0  0  0  0  0
   22.7949   -7.0320  -14.2225 C   0  0  0  0  0  0  0  0  0  0  0  0
   22.8007   -5.5489  -14.5115 C   0  0  1  0  0  0  0  0  0  0  0  0
   22.9658   -5.3358  -15.8762 O   0  0  0  0  0  0  0  0  0  0  0  0
   21.4360   -4.9870  -14.1328 C   0  0  2  0  0  0  0  0  0  0  0  0
   20.5163   -5.4443  -15.1560 N   0  0  0  0  0  0  0  0  0  0  0  0
   21.4671   -3.5263  -14.0295 C   0  0  0  0  0  0  0  0  0  0  0  0
   22.1745   -2.8723  -13.0514 O   0  0  0  0  0  0  0  0  0  0  0  0
   20.8224   -2.8355  -14.8667 O   0  0  0  0  0  0  0  0  0  0  0  0
  2  1  1  6
  2  3  1  0
  3  4  1  0
  4  8  1  0
  5  4  2  0
  6 13  1  0
  6  2  1  0
  7  6  2  0
 10  9  1  6
 10 12  1  0
 11 10  1  0
 12 13  1  1
 12 14  1  0
 14 20  1  0
 15 14  2  0
 17 18  1  0
 17 16  1  6
 19 17  1  0
 19 20  1  6
 21 22  1  0
 21 19  1  0
 23 21  2  0
M  END
$$$$
