LRP.pdb
     RDKit          3D

 27 27  0  0  1  0  0  0  0  0999 V2000
    9.3295  -12.9996   20.0516 C   0  0  0  0  0  0  0  0  0  0  0  0
    7.8664  -13.3777   19.8361 C   0  0  1  0  0  0  0  0  0  0  0  0
    7.3287  -12.4170   18.7960 C   0  0  0  0  0  0  0  0  0  0  0  0
    7.8663  -14.7889   19.2981 C   0  0  0  0  0  0  0  0  0  0  0  0
    8.2224  -15.8069   20.3534 C   0  0  2  0  0  0  0  0  0  0  0  0
    8.0450  -17.1267   19.8028 N   0  0  0  0  0  0  0  0  0  0  0  0
    7.4279  -15.6714   21.5808 C   0  0  0  0  0  0  0  0  0  0  0  0
    6.1898  -15.9122   21.5781 O   0  0  0  0  0  0  0  0  0  0  0  0
    7.1165  -22.0825   24.4609 N   0  0  0  0  0  0  0  0  0  0  0  0
    8.3012  -21.3173   24.1599 C   0  0  0  0  0  0  0  0  0  0  0  0
    9.2302  -21.8053   23.4176 N   0  0  0  0  0  0  0  0  0  0  0  0
    8.4660  -20.0099   24.6769 N   0  0  0  0  0  0  0  0  0  0  0  0
    7.3301  -19.0605   24.6618 C   0  0  0  0  0  0  0  0  0  0  0  0
    7.8394  -17.6887   24.3372 C   0  0  0  0  0  0  0  0  0  0  0  0
    6.8629  -16.5857   24.3227 C   0  0  0  0  0  0  0  0  0  0  0  0
    7.3353  -15.1925   24.0749 C   0  0  2  0  0  0  0  0  0  0  0  0
    8.0515  -15.2694   22.7723 N   0  0  0  0  0  0  0  0  0  0  0  0
    8.2683  -14.6337   25.0472 C   0  0  0  0  0  0  0  0  0  0  0  0
    9.5311  -14.8181   24.7657 O   0  0  0  0  0  0  0  0  0  0  0  0
   10.0516  -21.2288   23.1826 N   0  0  0  0  0  0  0  0  0  0  0  0
    7.9512  -13.9331   26.2244 C   0  0  0  0  0  0  0  0  0  0  0  0
    6.6070  -13.7347   26.7309 C   0  0  0  0  0  0  0  0  0  0  0  0
    6.6940  -12.4142   27.4298 C   0  0  0  0  0  0  0  0  0  0  0  0
    8.1309  -11.9702   27.3804 C   0  0  1  0  0  0  0  0  0  0  0  0
    8.8261  -13.3282   27.1690 C   0  0  0  0  0  0  0  0  0  0  0  0
    8.7908  -14.0288   28.5027 O   0  0  0  0  0  0  0  0  0  0  0  0
    9.6211  -13.6586   29.5278 O   0  0  0  0  0  0  0  0  0  0  0  0
  2  3  1  6
  2  1  1  0
  4  2  1  0
  5  6  1  6
  5  4  1  0
  7  5  1  0
  8  7  2  0
  9 10  1  0
 10 12  1  0
 11 10  2  0
 12 13  1  0
 13 14  1  0
 15 14  1  0
 16 15  1  1
 16 17  1  0
 17  7  1  0
 18 16  1  0
 19 18  2  0
 20 18  1  0
 21 20  1  0
 22 21  1  0
 23 22  1  0
 23 24  1  0
 24 20  1  0
 24 25  1  1
 25 26  1  0
 27 25  2  0
M  END
$$$$
