LRP.pdb
     RDKit          3D

 27 27  0  0  1  0  0  0  0  0999 V2000
    7.1451  -11.3816   28.3986 C   0  0  0  0  0  0  0  0  0  0  0  0
    6.5636  -12.4909   27.5261 C   0  0  1  0  0  0  0  0  0  0  0  0
    5.2598  -11.9553   26.9719 C   0  0  0  0  0  0  0  0  0  0  0  0
    7.5552  -12.7186   26.4100 C   0  0  0  0  0  0  0  0  0  0  0  0
    7.4285  -14.0925   25.7992 C   0  0  2  0  0  0  0  0  0  0  0  0
    7.5762  -15.0778   26.8403 N   0  0  0  0  0  0  0  0  0  0  0  0
    8.4077  -14.3460   24.7348 C   0  0  0  0  0  0  0  0  0  0  0  0
    9.4870  -13.6953   24.6823 O   0  0  0  0  0  0  0  0  0  0  0  0
   12.3387  -19.5016   24.3804 N   0  0  0  0  0  0  0  0  0  0  0  0
   12.9804  -19.4476   23.0901 C   0  0  0  0  0  0  0  0  0  0  0  0
   14.1010  -20.0431   22.8857 N   0  0  0  0  0  0  0  0  0  0  0  0
   12.3881  -18.7360   22.0192 N   0  0  0  0  0  0  0  0  0  0  0  0
   10.9262  -18.8137   21.7992 C   0  0  0  0  0  0  0  0  0  0  0  0
   10.3824  -17.4297   21.6110 C   0  0  0  0  0  0  0  0  0  0  0  0
    9.5952  -16.8516   22.7139 C   0  0  0  0  0  0  0  0  0  0  0  0
    8.9788  -15.5036   22.5457 C   0  0  2  0  0  0  0  0  0  0  0  0
    8.1417  -15.3235   23.7633 N   0  0  0  0  0  0  0  0  0  0  0  0
    8.1053  -15.3212   21.3916 C   0  0  0  0  0  0  0  0  0  0  0  0
    6.9232  -15.8666   21.5057 O   0  0  0  0  0  0  0  0  0  0  0  0
   14.4944  -20.0781   21.9337 N   0  0  0  0  0  0  0  0  0  0  0  0
    8.4014  -14.6332   20.2016 C   0  0  0  0  0  0  0  0  0  0  0  0
    9.6419  -13.9286   19.9416 C   0  0  0  0  0  0  0  0  0  0  0  0
    9.2213  -12.8140   19.0357 C   0  0  0  0  0  0  0  0  0  0  0  0
    7.7599  -13.0051   18.7320 C   0  0  1  0  0  0  0  0  0  0  0  0
    7.6190  -14.5117   19.0198 C   0  0  0  0  0  0  0  0  0  0  0  0
    8.2479  -15.2222   17.8491 O   0  0  0  0  0  0  0  0  0  0  0  0
    7.5662  -15.4097   16.6755 O   0  0  0  0  0  0  0  0  0  0  0  0
  2  3  1  6
  2  1  1  0
  4  2  1  0
  5  6  1  1
  5  4  1  0
  7  5  1  0
  8  7  2  0
  9 10  1  0
 10 12  1  0
 11 10  2  0
 12 13  1  0
 13 14  1  0
 15 14  1  0
 16 15  1  1
 16 17  1  0
 17  7  1  0
 18 16  1  0
 19 18  2  0
 20 18  1  0
 21 20  1  0
 22 21  1  0
 23 22  1  0
 23 24  1  0
 24 20  1  0
 24 25  1  6
 25 26  1  0
 27 25  2  0
M  END
$$$$
