LRP.pdb
     RDKit          3D

 27 27  0  0  1  0  0  0  0  0999 V2000
    7.7159  -11.8642   18.3366 C   0  0  0  0  0  0  0  0  0  0  0  0
    8.4297  -13.1395   18.7774 C   0  0  1  0  0  0  0  0  0  0  0  0
    9.6235  -12.6958   19.5971 C   0  0  0  0  0  0  0  0  0  0  0  0
    7.4509  -13.8979   19.6420 C   0  0  0  0  0  0  0  0  0  0  0  0
    8.0913  -15.0704   20.3434 C   0  0  2  0  0  0  0  0  0  0  0  0
    8.0134  -16.2238   19.4832 N   0  0  0  0  0  0  0  0  0  0  0  0
    7.4748  -15.3772   21.6402 C   0  0  0  0  0  0  0  0  0  0  0  0
    6.2802  -15.7760   21.7087 O   0  0  0  0  0  0  0  0  0  0  0  0
   10.2432  -19.1066   21.5355 N   0  0  0  0  0  0  0  0  0  0  0  0
   10.9536  -19.6932   22.6449 C   0  0  0  0  0  0  0  0  0  0  0  0
   12.1254  -20.1969   22.4851 N   0  0  0  0  0  0  0  0  0  0  0  0
   10.3740  -19.7266   23.9360 N   0  0  0  0  0  0  0  0  0  0  0  0
    8.9962  -19.2249   24.1407 C   0  0  0  0  0  0  0  0  0  0  0  0
    8.9876  -17.7338   23.9890 C   0  0  0  0  0  0  0  0  0  0  0  0
    7.7191  -17.0304   24.2466 C   0  0  0  0  0  0  0  0  0  0  0  0
    7.6782  -15.5413   24.1681 C   0  0  2  0  0  0  0  0  0  0  0  0
    8.2217  -15.2255   22.8188 N   0  0  0  0  0  0  0  0  0  0  0  0
    8.4852  -14.8109   25.1394 C   0  0  0  0  0  0  0  0  0  0  0  0
    9.7564  -14.7299   24.8474 O   0  0  0  0  0  0  0  0  0  0  0  0
   12.5916  -20.6658   23.2758 N   0  0  0  0  0  0  0  0  0  0  0  0
    8.0415  -14.2002   26.3257 C   0  0  0  0  0  0  0  0  0  0  0  0
    6.6625  -14.1700   26.7735 C   0  0  0  0  0  0  0  0  0  0  0  0
    6.5732  -12.8793   27.5258 C   0  0  0  0  0  0  0  0  0  0  0  0
    7.9534  -12.2812   27.5632 C   0  0  1  0  0  0  0  0  0  0  0  0
    8.8022  -13.5459   27.3341 C   0  0  0  0  0  0  0  0  0  0  0  0
    8.7851  -14.3032   28.6369 O   0  0  0  0  0  0  0  0  0  0  0  0
    8.0846  -15.4725   28.7758 O   0  0  0  0  0  0  0  0  0  0  0  0
  2  3  1  1
  2  1  1  0
  4  2  1  0
  5  6  1  6
  5  4  1  0
  7  5  1  0
  8  7  2  0
  9 10  1  0
 10 12  1  0
 11 10  2  0
 12 13  1  0
 13 14  1  0
 15 14  1  0
 16 15  1  1
 16 17  1  0
 17  7  1  0
 18 16  1  0
 19 18  2  0
 20 18  1  0
 21 20  1  0
 22 21  1  0
 23 22  1  0
 23 24  1  0
 24 20  1  0
 24 25  1  1
 25 26  1  0
 27 25  2  0
M  END
$$$$
