LRP.pdb
     RDKit          3D

 27 27  0  0  1  0  0  0  0  0999 V2000
    7.6006  -11.9545   27.9354 C   0  0  0  0  0  0  0  0  0  0  0  0
    6.5610  -12.8993   27.3384 C   0  0  1  0  0  0  0  0  0  0  0  0
    5.7424  -12.0718   26.3693 C   0  0  0  0  0  0  0  0  0  0  0  0
    7.3313  -13.9667   26.5981 C   0  0  0  0  0  0  0  0  0  0  0  0
    6.4297  -14.8844   25.8095 C   0  0  2  0  0  0  0  0  0  0  0  0
    5.8489  -15.8487   26.7091 N   0  0  0  0  0  0  0  0  0  0  0  0
    7.1227  -15.5800   24.7178 C   0  0  0  0  0  0  0  0  0  0  0  0
    7.6528  -16.7090   24.9057 O   0  0  0  0  0  0  0  0  0  0  0  0
    7.7504  -12.9695   16.5500 N   0  0  0  0  0  0  0  0  0  0  0  0
    8.5335  -14.1803   16.5310 C   0  0  0  0  0  0  0  0  0  0  0  0
    8.6387  -14.8806   15.4583 N   0  0  0  0  0  0  0  0  0  0  0  0
    9.2043  -14.6237   17.6960 N   0  0  0  0  0  0  0  0  0  0  0  0
    8.8412  -14.0622   19.0169 C   0  0  0  0  0  0  0  0  0  0  0  0
    8.1109  -15.1032   19.8104 C   0  0  0  0  0  0  0  0  0  0  0  0
    7.6236  -14.7225   21.1475 C   0  0  0  0  0  0  0  0  0  0  0  0
    7.9758  -15.5693   22.3240 C   0  0  2  0  0  0  0  0  0  0  0  0
    7.1975  -14.9836   23.4495 N   0  0  0  0  0  0  0  0  0  0  0  0
    9.3773  -15.5793   22.7287 C   0  0  0  0  0  0  0  0  0  0  0  0
    9.7331  -14.5873   23.5015 O   0  0  0  0  0  0  0  0  0  0  0  0
    9.2213  -15.7308   15.4587 N   0  0  0  0  0  0  0  0  0  0  0  0
   10.3561  -16.5269   22.3804 C   0  0  0  0  0  0  0  0  0  0  0  0
   10.1333  -17.6607   21.5043 C   0  0  0  0  0  0  0  0  0  0  0  0
   11.0780  -18.6944   22.0321 C   0  0  0  0  0  0  0  0  0  0  0  0
   11.8826  -18.0531   23.1302 C   0  0  2  0  0  0  0  0  0  0  0  0
   11.7303  -16.5695   22.7453 C   0  0  0  0  0  0  0  0  0  0  0  0
   12.6373  -16.3486   21.5622 O   0  0  0  0  0  0  0  0  0  0  0  0
   13.9728  -16.0884   21.7230 O   0  0  0  0  0  0  0  0  0  0  0  0
  2  3  1  6
  2  1  1  0
  4  2  1  0
  5  6  1  1
  5  4  1  0
  7  5  1  0
  8  7  2  0
  9 10  1  0
 10 12  1  0
 11 10  2  0
 12 13  1  0
 13 14  1  0
 15 14  1  0
 16 15  1  6
 16 17  1  0
 17  7  1  0
 18 16  1  0
 19 18  2  0
 20 18  1  0
 21 20  1  0
 22 21  1  0
 23 22  1  0
 23 24  1  0
 24 20  1  0
 24 25  1  6
 25 26  1  0
 27 25  2  0
M  END
$$$$
