LRP.pdb
     RDKit          3D

 27 27  0  0  1  0  0  0  0  0999 V2000
    7.6614  -11.7263   27.5289 C   0  0  0  0  0  0  0  0  0  0  0  0
    6.6975  -12.7634   26.9584 C   0  0  1  0  0  0  0  0  0  0  0  0
    5.8995  -12.0549   25.8836 C   0  0  0  0  0  0  0  0  0  0  0  0
    7.5523  -13.8490   26.3489 C   0  0  0  0  0  0  0  0  0  0  0  0
    6.7280  -14.9535   25.7346 C   0  0  2  0  0  0  0  0  0  0  0  0
    5.9590  -15.5905   26.7735 N   0  0  0  0  0  0  0  0  0  0  0  0
    7.5365  -15.9570   25.0308 C   0  0  0  0  0  0  0  0  0  0  0  0
    8.1362  -16.8653   25.6681 O   0  0  0  0  0  0  0  0  0  0  0  0
    8.0598  -14.7444   16.3800 N   0  0  0  0  0  0  0  0  0  0  0  0
    8.2324  -13.6994   17.3586 C   0  0  0  0  0  0  0  0  0  0  0  0
    8.1260  -12.4620   17.0274 N   0  0  0  0  0  0  0  0  0  0  0  0
    8.5233  -14.0153   18.7075 N   0  0  0  0  0  0  0  0  0  0  0  0
    8.1949  -15.3573   19.2396 C   0  0  0  0  0  0  0  0  0  0  0  0
    8.4446  -15.3755   20.7174 C   0  0  0  0  0  0  0  0  0  0  0  0
    8.1432  -16.6213   21.4436 C   0  0  0  0  0  0  0  0  0  0  0  0
    8.5833  -16.7674   22.8615 C   0  0  2  0  0  0  0  0  0  0  0  0
    7.6445  -15.9070   23.6323 N   0  0  0  0  0  0  0  0  0  0  0  0
    9.9355  -16.3207   23.1778 C   0  0  0  0  0  0  0  0  0  0  0  0
   10.0298  -15.0686   23.5402 O   0  0  0  0  0  0  0  0  0  0  0  0
    8.2646  -11.7293   17.7390 N   0  0  0  0  0  0  0  0  0  0  0  0
   11.1153  -17.0847   23.1345 C   0  0  0  0  0  0  0  0  0  0  0  0
   11.1873  -18.4699   22.7114 C   0  0  0  0  0  0  0  0  0  0  0  0
   12.3199  -19.0186   23.5212 C   0  0  0  0  0  0  0  0  0  0  0  0
   12.9168  -17.8755   24.2967 C   0  0  1  0  0  0  0  0  0  0  0  0
   12.4488  -16.6894   23.4327 C   0  0  0  0  0  0  0  0  0  0  0  0
   13.3270  -16.6914   22.2080 O   0  0  0  0  0  0  0  0  0  0  0  0
   12.8672  -17.1415   20.9984 O   0  0  0  0  0  0  0  0  0  0  0  0
  2  3  1  6
  2  1  1  0
  4  2  1  0
  5  6  1  1
  5  4  1  0
  7  5  1  0
  8  7  2  0
  9 10  1  0
 10 12  1  0
 11 10  2  0
 12 13  1  0
 13 14  1  0
 15 14  1  0
 16 15  1  6
 16 17  1  0
 17  7  1  0
 18 16  1  0
 19 18  2  0
 20 18  1  0
 21 20  1  0
 22 21  1  0
 23 22  1  0
 23 24  1  0
 24 20  1  0
 24 25  1  6
 25 26  1  0
 27 25  2  0
M  END
$$$$
