LRP.pdb
     RDKit          3D

 27 27  0  0  1  0  0  0  0  0999 V2000
    7.7581  -12.3097   18.0717 C   0  0  0  0  0  0  0  0  0  0  0  0
    8.6728  -13.2981   18.7904 C   0  0  1  0  0  0  0  0  0  0  0  0
    9.5752  -12.4702   19.6817 C   0  0  0  0  0  0  0  0  0  0  0  0
    7.7746  -14.1796   19.6252 C   0  0  0  0  0  0  0  0  0  0  0  0
    8.5384  -15.2680   20.3385 C   0  0  2  0  0  0  0  0  0  0  0  0
    8.5597  -16.4425   19.5038 N   0  0  0  0  0  0  0  0  0  0  0  0
    7.9765  -15.6045   21.6526 C   0  0  0  0  0  0  0  0  0  0  0  0
    6.7735  -15.9658   21.7669 O   0  0  0  0  0  0  0  0  0  0  0  0
   11.2896  -18.9987   21.1459 N   0  0  0  0  0  0  0  0  0  0  0  0
   10.1610  -19.8696   20.9280 C   0  0  0  0  0  0  0  0  0  0  0  0
    9.8505  -20.2626   19.7443 N   0  0  0  0  0  0  0  0  0  0  0  0
    9.3698  -20.3106   22.0158 N   0  0  0  0  0  0  0  0  0  0  0  0
    9.4188  -19.5871   23.3065 C   0  0  0  0  0  0  0  0  0  0  0  0
    8.8871  -18.1991   23.1133 C   0  0  0  0  0  0  0  0  0  0  0  0
    8.7913  -17.3350   24.3026 C   0  0  0  0  0  0  0  0  0  0  0  0
    8.3172  -15.9288   24.1500 C   0  0  2  0  0  0  0  0  0  0  0  0
    8.7858  -15.5237   22.7965 N   0  0  0  0  0  0  0  0  0  0  0  0
    8.8433  -14.9528   25.0981 C   0  0  0  0  0  0  0  0  0  0  0  0
   10.0822  -14.5943   24.8868 O   0  0  0  0  0  0  0  0  0  0  0  0
    9.0264  -20.8660   19.6064 N   0  0  0  0  0  0  0  0  0  0  0  0
    8.1663  -14.3738   26.1860 C   0  0  0  0  0  0  0  0  0  0  0  0
    6.7794  -14.6273   26.5255 C   0  0  0  0  0  0  0  0  0  0  0  0
    6.3359  -13.3394   27.1453 C   0  0  0  0  0  0  0  0  0  0  0  0
    7.5392  -12.4398   27.2291 C   0  0  1  0  0  0  0  0  0  0  0  0
    8.6651  -13.4899   27.1826 C   0  0  0  0  0  0  0  0  0  0  0  0
    8.6950  -14.1323   28.5455 O   0  0  0  0  0  0  0  0  0  0  0  0
    9.2893  -13.5152   29.6147 O   0  0  0  0  0  0  0  0  0  0  0  0
  2  3  1  1
  2  1  1  0
  4  2  1  0
  5  6  1  6
  5  4  1  0
  7  5  1  0
  8  7  2  0
  9 10  1  0
 10 12  1  0
 11 10  2  0
 12 13  1  0
 13 14  1  0
 15 14  1  0
 16 15  1  1
 16 17  1  0
 17  7  1  0
 18 16  1  0
 19 18  2  0
 20 18  1  0
 21 20  1  0
 22 21  1  0
 23 22  1  0
 23 24  1  0
 24 20  1  0
 24 25  1  1
 25 26  1  0
 27 25  2  0
M  END
$$$$
