LRP.pdb
     RDKit          3D

 27 27  0  0  1  0  0  0  0  0999 V2000
    4.9554  -11.7155   27.8233 C   0  0  0  0  0  0  0  0  0  0  0  0
    5.6992  -12.0920   26.5445 C   0  0  1  0  0  0  0  0  0  0  0  0
    7.0896  -11.5054   26.6741 C   0  0  0  0  0  0  0  0  0  0  0  0
    5.7653  -13.6005   26.5191 C   0  0  0  0  0  0  0  0  0  0  0  0
    7.1543  -14.1106   26.2235 C   0  0  2  0  0  0  0  0  0  0  0  0
    7.9815  -12.9992   25.8272 N   0  0  0  0  0  0  0  0  0  0  0  0
    7.1822  -15.1451   25.1818 C   0  0  0  0  0  0  0  0  0  0  0  0
    6.4591  -16.1743   25.2747 O   0  0  0  0  0  0  0  0  0  0  0  0
    9.1878  -14.2940   17.2859 N   0  0  0  0  0  0  0  0  0  0  0  0
    8.6148  -13.5968   18.4107 C   0  0  0  0  0  0  0  0  0  0  0  0
    8.8674  -12.3529   18.6135 N   0  0  0  0  0  0  0  0  0  0  0  0
    7.7603  -14.2693   19.3170 N   0  0  0  0  0  0  0  0  0  0  0  0
    7.6418  -15.7441   19.2652 C   0  0  0  0  0  0  0  0  0  0  0  0
    8.1302  -16.3230   20.5587 C   0  0  0  0  0  0  0  0  0  0  0  0
    8.0098  -15.4883   21.7666 C   0  0  0  0  0  0  0  0  0  0  0  0
    8.2988  -16.0867   23.1022 C   0  0  2  0  0  0  0  0  0  0  0  0
    8.0228  -14.9888   24.0687 N   0  0  0  0  0  0  0  0  0  0  0  0
    9.6671  -16.5344   23.3381 C   0  0  0  0  0  0  0  0  0  0  0  0
   10.4793  -15.6102   23.7785 O   0  0  0  0  0  0  0  0  0  0  0  0
    8.4559  -11.8746   19.4285 N   0  0  0  0  0  0  0  0  0  0  0  0
   10.1835  -17.8280   23.1455 C   0  0  0  0  0  0  0  0  0  0  0  0
    9.4183  -18.9586   22.6564 C   0  0  0  0  0  0  0  0  0  0  0  0
   10.0673  -20.1290   23.3260 C   0  0  0  0  0  0  0  0  0  0  0  0
   11.2563  -19.6113   24.0892 C   0  0  1  0  0  0  0  0  0  0  0  0
   11.5139  -18.2969   23.3287 C   0  0  0  0  0  0  0  0  0  0  0  0
   12.1610  -18.6875   22.0250 O   0  0  0  0  0  0  0  0  0  0  0  0
   13.5093  -18.9137   21.9347 O   0  0  0  0  0  0  0  0  0  0  0  0
  2  3  1  1
  2  1  1  0
  4  2  1  0
  5  6  1  6
  5  4  1  0
  7  5  1  0
  8  7  2  0
  9 10  1  0
 10 12  1  0
 11 10  2  0
 12 13  1  0
 13 14  1  0
 15 14  1  0
 16 15  1  6
 16 17  1  0
 17  7  1  0
 18 16  1  0
 19 18  2  0
 20 18  1  0
 21 20  1  0
 22 21  1  0
 23 22  1  0
 23 24  1  0
 24 20  1  0
 24 25  1  6
 25 26  1  0
 27 25  2  0
M  END
$$$$
