LRP.pdb
     RDKit          3D

 27 27  0  0  1  0  0  0  0  0999 V2000
    8.2031  -12.5093   17.8332 C   0  0  0  0  0  0  0  0  0  0  0  0
    8.7614  -13.7285   18.5625 C   0  0  1  0  0  0  0  0  0  0  0  0
    9.8268  -13.2080   19.5049 C   0  0  0  0  0  0  0  0  0  0  0  0
    7.6123  -14.3202   19.3436 C   0  0  0  0  0  0  0  0  0  0  0  0
    8.0741  -15.3060   20.3885 C   0  0  2  0  0  0  0  0  0  0  0  0
    7.9464  -16.6391   19.8565 N   0  0  0  0  0  0  0  0  0  0  0  0
    7.3310  -15.2031   21.6508 C   0  0  0  0  0  0  0  0  0  0  0  0
    6.1740  -14.7017   21.6796 O   0  0  0  0  0  0  0  0  0  0  0  0
    9.4460  -19.2953   26.7728 N   0  0  0  0  0  0  0  0  0  0  0  0
    8.3803  -19.6509   27.6769 C   0  0  0  0  0  0  0  0  0  0  0  0
    8.6362  -20.0792   28.8615 N   0  0  0  0  0  0  0  0  0  0  0  0
    7.0271  -19.5355   27.2777 N   0  0  0  0  0  0  0  0  0  0  0  0
    6.6972  -19.1232   25.8946 C   0  0  0  0  0  0  0  0  0  0  0  0
    7.1081  -17.6957   25.6952 C   0  0  0  0  0  0  0  0  0  0  0  0
    6.8353  -17.0856   24.3823 C   0  0  0  0  0  0  0  0  0  0  0  0
    7.2010  -15.6585   24.1476 C   0  0  2  0  0  0  0  0  0  0  0  0
    7.9131  -15.6677   22.8405 N   0  0  0  0  0  0  0  0  0  0  0  0
    8.0956  -15.0420   25.1212 C   0  0  0  0  0  0  0  0  0  0  0  0
    9.3690  -15.2143   24.8833 O   0  0  0  0  0  0  0  0  0  0  0  0
    7.8630  -20.2447   29.5227 N   0  0  0  0  0  0  0  0  0  0  0  0
    7.7323  -14.2990   26.2583 C   0  0  0  0  0  0  0  0  0  0  0  0
    6.3830  -14.1918   26.7787 C   0  0  0  0  0  0  0  0  0  0  0  0
    6.3579  -12.8266   27.3915 C   0  0  0  0  0  0  0  0  0  0  0  0
    7.7468  -12.2575   27.2850 C   0  0  2  0  0  0  0  0  0  0  0  0
    8.5613  -13.5573   27.1450 C   0  0  0  0  0  0  0  0  0  0  0  0
    8.6102  -14.1709   28.5206 O   0  0  0  0  0  0  0  0  0  0  0  0
    9.4030  -13.6495   29.5089 O   0  0  0  0  0  0  0  0  0  0  0  0
  2  3  1  1
  2  1  1  0
  4  2  1  0
  5  6  1  6
  5  4  1  0
  7  5  1  0
  8  7  2  0
  9 10  1  0
 10 12  1  0
 11 10  2  0
 12 13  1  0
 13 14  1  0
 15 14  1  0
 16 15  1  1
 16 17  1  0
 17  7  1  0
 18 16  1  0
 19 18  2  0
 20 18  1  0
 21 20  1  0
 22 21  1  0
 23 22  1  0
 23 24  1  0
 24 20  1  0
 24 25  1  1
 25 26  1  0
 27 25  2  0
M  END
$$$$
