LRP.pdb
     RDKit          3D

 27 27  0  0  1  0  0  0  0  0999 V2000
    7.8971  -12.1270   18.1633 C   0  0  0  0  0  0  0  0  0  0  0  0
    8.3697  -13.4827   18.6817 C   0  0  1  0  0  0  0  0  0  0  0  0
    9.7021  -13.2370   19.3587 C   0  0  0  0  0  0  0  0  0  0  0  0
    7.3419  -13.9337   19.6921 C   0  0  0  0  0  0  0  0  0  0  0  0
    7.6852  -15.2691   20.3051 C   0  0  2  0  0  0  0  0  0  0  0  0
    7.1853  -16.3145   19.4485 N   0  0  0  0  0  0  0  0  0  0  0  0
    7.1473  -15.4399   21.6607 C   0  0  0  0  0  0  0  0  0  0  0  0
    5.9030  -15.4337   21.8668 O   0  0  0  0  0  0  0  0  0  0  0  0
    7.8115  -21.9214   26.9915 N   0  0  0  0  0  0  0  0  0  0  0  0
    7.5715  -20.8369   27.9113 C   0  0  0  0  0  0  0  0  0  0  0  0
    7.3927  -21.0624   29.1640 N   0  0  0  0  0  0  0  0  0  0  0  0
    7.5277  -19.4985   27.4525 N   0  0  0  0  0  0  0  0  0  0  0  0
    7.6602  -19.2080   26.0068 C   0  0  0  0  0  0  0  0  0  0  0  0
    7.4977  -17.7348   25.7839 C   0  0  0  0  0  0  0  0  0  0  0  0
    7.6436  -17.2345   24.4059 C   0  0  0  0  0  0  0  0  0  0  0  0
    7.5609  -15.7678   24.1466 C   0  0  2  0  0  0  0  0  0  0  0  0
    8.0263  -15.6123   22.7412 N   0  0  0  0  0  0  0  0  0  0  0  0
    8.3979  -14.9070   24.9753 C   0  0  0  0  0  0  0  0  0  0  0  0
    9.6511  -14.8431   24.6102 O   0  0  0  0  0  0  0  0  0  0  0  0
    7.2585  -20.2714   29.8110 N   0  0  0  0  0  0  0  0  0  0  0  0
    7.9993  -14.1580   26.0966 C   0  0  0  0  0  0  0  0  0  0  0  0
    6.6517  -14.1247   26.6311 C   0  0  0  0  0  0  0  0  0  0  0  0
    6.5438  -12.7477   27.2071 C   0  0  0  0  0  0  0  0  0  0  0  0
    7.8911  -12.0922   27.0675 C   0  0  2  0  0  0  0  0  0  0  0  0
    8.7876  -13.3394   26.9522 C   0  0  0  0  0  0  0  0  0  0  0  0
    8.8918  -13.9101   28.3431 O   0  0  0  0  0  0  0  0  0  0  0  0
    9.6990  -13.3397   29.2919 O   0  0  0  0  0  0  0  0  0  0  0  0
  2  3  1  1
  2  1  1  0
  4  2  1  0
  5  6  1  6
  5  4  1  0
  7  5  1  0
  8  7  2  0
  9 10  1  0
 10 12  1  0
 11 10  2  0
 12 13  1  0
 13 14  1  0
 15 14  1  0
 16 15  1  1
 16 17  1  0
 17  7  1  0
 18 16  1  0
 19 18  2  0
 20 18  1  0
 21 20  1  0
 22 21  1  0
 23 22  1  0
 23 24  1  0
 24 20  1  0
 24 25  1  1
 25 26  1  0
 27 25  2  0
M  END
$$$$
