LRP.pdb
     RDKit          3D

 27 27  0  0  1  0  0  0  0  0999 V2000
    7.8308  -12.8124   17.7025 C   0  0  0  0  0  0  0  0  0  0  0  0
    8.4779  -13.9060   18.5484 C   0  0  1  0  0  0  0  0  0  0  0  0
    9.6316  -13.2506   19.2788 C   0  0  0  0  0  0  0  0  0  0  0  0
    7.4256  -14.3630   19.5306 C   0  0  0  0  0  0  0  0  0  0  0  0
    7.9523  -15.3916   20.5008 C   0  0  2  0  0  0  0  0  0  0  0  0
    7.8848  -16.6907   19.8809 N   0  0  0  0  0  0  0  0  0  0  0  0
    7.2235  -15.4125   21.7754 C   0  0  0  0  0  0  0  0  0  0  0  0
    5.9935  -15.6892   21.8111 O   0  0  0  0  0  0  0  0  0  0  0  0
    6.9402  -21.9597   23.6546 N   0  0  0  0  0  0  0  0  0  0  0  0
    8.0675  -21.0704   23.7889 C   0  0  0  0  0  0  0  0  0  0  0  0
    9.1065  -21.2061   23.0444 N   0  0  0  0  0  0  0  0  0  0  0  0
    8.0531  -20.0271   24.7455 N   0  0  0  0  0  0  0  0  0  0  0  0
    6.9771  -19.0106   24.7145 C   0  0  0  0  0  0  0  0  0  0  0  0
    7.5816  -17.6612   24.4692 C   0  0  0  0  0  0  0  0  0  0  0  0
    6.6702  -16.5046   24.4253 C   0  0  0  0  0  0  0  0  0  0  0  0
    7.2365  -15.1301   24.3009 C   0  0  2  0  0  0  0  0  0  0  0  0
    7.9017  -15.1216   22.9693 N   0  0  0  0  0  0  0  0  0  0  0  0
    8.2401  -14.7427   25.2863 C   0  0  0  0  0  0  0  0  0  0  0  0
    9.4608  -15.1126   25.0017 O   0  0  0  0  0  0  0  0  0  0  0  0
    9.9057  -20.5659   23.1618 N   0  0  0  0  0  0  0  0  0  0  0  0
    8.0293  -14.0277   26.4786 C   0  0  0  0  0  0  0  0  0  0  0  0
    6.7271  -13.7107   27.0324 C   0  0  0  0  0  0  0  0  0  0  0  0
    6.9600  -12.4112   27.7373 C   0  0  0  0  0  0  0  0  0  0  0  0
    8.4296  -12.1019   27.6416 C   0  0  1  0  0  0  0  0  0  0  0  0
    8.9879  -13.5163   27.3967 C   0  0  0  0  0  0  0  0  0  0  0  0
    8.9324  -14.2242   28.7260 O   0  0  0  0  0  0  0  0  0  0  0  0
    9.8274  -13.9429   29.7245 O   0  0  0  0  0  0  0  0  0  0  0  0
  2  3  1  1
  2  1  1  0
  4  2  1  0
  5  6  1  6
  5  4  1  0
  7  5  1  0
  8  7  2  0
  9 10  1  0
 10 12  1  0
 11 10  2  0
 12 13  1  0
 13 14  1  0
 15 14  1  0
 16 15  1  1
 16 17  1  0
 17  7  1  0
 18 16  1  0
 19 18  2  0
 20 18  1  0
 21 20  1  0
 22 21  1  0
 23 22  1  0
 23 24  1  0
 24 20  1  0
 24 25  1  1
 25 26  1  0
 27 25  2  0
M  END
$$$$
