LRP.pdb
     RDKit          3D

 27 27  0  0  1  0  0  0  0  0999 V2000
    7.7552  -12.0625   27.7024 C   0  0  0  0  0  0  0  0  0  0  0  0
    6.7477  -13.1829   27.4583 C   0  0  1  0  0  0  0  0  0  0  0  0
    5.6828  -12.6053   26.5492 C   0  0  0  0  0  0  0  0  0  0  0  0
    7.5001  -14.2856   26.7522 C   0  0  0  0  0  0  0  0  0  0  0  0
    6.6047  -15.1184   25.8682 C   0  0  2  0  0  0  0  0  0  0  0  0
    6.1555  -16.2667   26.6141 N   0  0  0  0  0  0  0  0  0  0  0  0
    7.2596  -15.5577   24.6296 C   0  0  0  0  0  0  0  0  0  0  0  0
    8.0038  -16.5760   24.6190 O   0  0  0  0  0  0  0  0  0  0  0  0
   10.2430  -14.4659   17.9477 N   0  0  0  0  0  0  0  0  0  0  0  0
    9.0194  -14.3746   17.1901 C   0  0  0  0  0  0  0  0  0  0  0  0
    9.0297  -14.4637   15.9078 N   0  0  0  0  0  0  0  0  0  0  0  0
    7.7785  -14.1845   17.8443 N   0  0  0  0  0  0  0  0  0  0  0  0
    7.6546  -13.1673   18.9129 C   0  0  0  0  0  0  0  0  0  0  0  0
    8.3704  -13.6507   20.1379 C   0  0  0  0  0  0  0  0  0  0  0  0
    7.5656  -13.8820   21.3500 C   0  0  0  0  0  0  0  0  0  0  0  0
    7.8597  -15.0651   22.2098 C   0  0  2  0  0  0  0  0  0  0  0  0
    7.0565  -14.8374   23.4422 N   0  0  0  0  0  0  0  0  0  0  0  0
    9.2463  -15.2446   22.6263 C   0  0  0  0  0  0  0  0  0  0  0  0
    9.6381  -14.4512   23.5880 O   0  0  0  0  0  0  0  0  0  0  0  0
    8.1405  -14.4397   15.3872 N   0  0  0  0  0  0  0  0  0  0  0  0
   10.1767  -16.1639   22.1103 C   0  0  0  0  0  0  0  0  0  0  0  0
    9.8879  -17.1400   21.0774 C   0  0  0  0  0  0  0  0  0  0  0  0
   10.7995  -18.2780   21.4147 C   0  0  0  0  0  0  0  0  0  0  0  0
   11.6534  -17.8446   22.5754 C   0  0  2  0  0  0  0  0  0  0  0  0
   11.5554  -16.3147   22.4265 C   0  0  0  0  0  0  0  0  0  0  0  0
   12.4454  -15.9492   21.2666 O   0  0  0  0  0  0  0  0  0  0  0  0
   11.9341  -15.7224   20.0159 O   0  0  0  0  0  0  0  0  0  0  0  0
  2  3  1  6
  2  1  1  0
  4  2  1  0
  5  6  1  1
  5  4  1  0
  7  5  1  0
  8  7  2  0
  9 10  1  0
 10 12  1  0
 11 10  2  0
 12 13  1  0
 13 14  1  0
 15 14  1  0
 16 15  1  6
 16 17  1  0
 17  7  1  0
 18 16  1  0
 19 18  2  0
 20 18  1  0
 21 20  1  0
 22 21  1  0
 23 22  1  0
 23 24  1  0
 24 20  1  0
 24 25  1  6
 25 26  1  0
 27 25  2  0
M  END
$$$$
