LRP.pdb
     RDKit          3D

 27 27  0  0  1  0  0  0  0  0999 V2000
    7.9834  -12.5115   27.7894 C   0  0  0  0  0  0  0  0  0  0  0  0
    6.8726  -13.4801   27.3918 C   0  0  1  0  0  0  0  0  0  0  0  0
    6.0041  -12.7430   26.3936 C   0  0  0  0  0  0  0  0  0  0  0  0
    7.5504  -14.6568   26.7310 C   0  0  0  0  0  0  0  0  0  0  0  0
    6.6079  -15.4471   25.8570 C   0  0  2  0  0  0  0  0  0  0  0  0
    6.1977  -16.6306   26.5695 N   0  0  0  0  0  0  0  0  0  0  0  0
    7.1950  -15.8252   24.5653 C   0  0  0  0  0  0  0  0  0  0  0  0
    7.7298  -16.9564   24.4058 O   0  0  0  0  0  0  0  0  0  0  0  0
    7.5848  -15.7369   17.1917 N   0  0  0  0  0  0  0  0  0  0  0  0
    8.4130  -14.5987   16.8786 C   0  0  0  0  0  0  0  0  0  0  0  0
    9.1543  -14.5918   15.8285 N   0  0  0  0  0  0  0  0  0  0  0  0
    8.4269  -13.4627   17.7230 N   0  0  0  0  0  0  0  0  0  0  0  0
    7.5122  -13.3945   18.8852 C   0  0  0  0  0  0  0  0  0  0  0  0
    8.2761  -13.7214   20.1327 C   0  0  0  0  0  0  0  0  0  0  0  0
    7.4998  -13.9912   21.3554 C   0  0  0  0  0  0  0  0  0  0  0  0
    7.8464  -15.1731   22.1971 C   0  0  2  0  0  0  0  0  0  0  0  0
    7.1619  -14.9189   23.4941 N   0  0  0  0  0  0  0  0  0  0  0  0
    9.2609  -15.3779   22.4894 C   0  0  0  0  0  0  0  0  0  0  0  0
    9.7036  -14.7363   23.5383 O   0  0  0  0  0  0  0  0  0  0  0  0
    9.6831  -13.7420   15.5825 N   0  0  0  0  0  0  0  0  0  0  0  0
   10.1698  -16.1778   21.7742 C   0  0  0  0  0  0  0  0  0  0  0  0
    9.8384  -16.9490   20.5917 C   0  0  0  0  0  0  0  0  0  0  0  0
   10.7648  -18.1214   20.6748 C   0  0  0  0  0  0  0  0  0  0  0  0
   11.6668  -17.9021   21.8591 C   0  0  2  0  0  0  0  0  0  0  0  0
   11.5608  -16.3720   21.9996 C   0  0  0  0  0  0  0  0  0  0  0  0
   12.4003  -15.7906   20.8914 O   0  0  0  0  0  0  0  0  0  0  0  0
   13.6953  -15.3977   21.1054 O   0  0  0  0  0  0  0  0  0  0  0  0
  2  3  1  6
  2  1  1  0
  4  2  1  0
  5  6  1  1
  5  4  1  0
  7  5  1  0
  8  7  2  0
  9 10  1  0
 10 12  1  0
 11 10  2  0
 12 13  1  0
 13 14  1  0
 15 14  1  0
 16 15  1  6
 16 17  1  0
 17  7  1  0
 18 16  1  0
 19 18  2  0
 20 18  1  0
 21 20  1  0
 22 21  1  0
 23 22  1  0
 23 24  1  0
 24 20  1  0
 24 25  1  6
 25 26  1  0
 27 25  2  0
M  END
$$$$
