LRP.pdb
     RDKit          3D

 27 27  0  0  1  0  0  0  0  0999 V2000
    7.7783  -12.2199   18.4461 C   0  0  0  0  0  0  0  0  0  0  0  0
    8.3984  -13.5217   18.9470 C   0  0  1  0  0  0  0  0  0  0  0  0
    9.5614  -13.1246   19.8323 C   0  0  0  0  0  0  0  0  0  0  0  0
    7.3318  -14.2159   19.7601 C   0  0  0  0  0  0  0  0  0  0  0  0
    7.8346  -15.4836   20.4058 C   0  0  2  0  0  0  0  0  0  0  0  0
    7.5251  -16.5966   19.5444 N   0  0  0  0  0  0  0  0  0  0  0  0
    7.2690  -15.7179   21.7404 C   0  0  0  0  0  0  0  0  0  0  0  0
    6.0425  -15.9739   21.8858 O   0  0  0  0  0  0  0  0  0  0  0  0
    5.4232  -20.5202   26.9937 N   0  0  0  0  0  0  0  0  0  0  0  0
    6.8401  -20.6130   27.2455 C   0  0  0  0  0  0  0  0  0  0  0  0
    7.2836  -21.1404   28.3305 N   0  0  0  0  0  0  0  0  0  0  0  0
    7.7741  -20.1239   26.3009 N   0  0  0  0  0  0  0  0  0  0  0  0
    8.3333  -18.7614   26.4517 C   0  0  0  0  0  0  0  0  0  0  0  0
    7.3670  -17.7670   25.8826 C   0  0  0  0  0  0  0  0  0  0  0  0
    7.6265  -17.2677   24.5210 C   0  0  0  0  0  0  0  0  0  0  0  0
    7.5904  -15.7995   24.2600 C   0  0  2  0  0  0  0  0  0  0  0  0
    8.1010  -15.6569   22.8691 N   0  0  0  0  0  0  0  0  0  0  0  0
    8.4251  -14.9609   25.1134 C   0  0  0  0  0  0  0  0  0  0  0  0
    9.7024  -14.9976   24.8393 O   0  0  0  0  0  0  0  0  0  0  0  0
    8.2999  -21.1941   28.4938 N   0  0  0  0  0  0  0  0  0  0  0  0
    8.0018  -14.1377   26.1719 C   0  0  0  0  0  0  0  0  0  0  0  0
    6.6169  -13.8992   26.5299 C   0  0  0  0  0  0  0  0  0  0  0  0
    6.6389  -12.5085   27.0824 C   0  0  0  0  0  0  0  0  0  0  0  0
    8.0739  -12.0569   27.1134 C   0  0  2  0  0  0  0  0  0  0  0  0
    8.7868  -13.4222   27.1181 C   0  0  0  0  0  0  0  0  0  0  0  0
    8.6312  -13.9709   28.5130 O   0  0  0  0  0  0  0  0  0  0  0  0
    7.8218  -15.0454   28.7732 O   0  0  0  0  0  0  0  0  0  0  0  0
  2  3  1  1
  2  1  1  0
  4  2  1  0
  5  6  1  6
  5  4  1  0
  7  5  1  0
  8  7  2  0
  9 10  1  0
 10 12  1  0
 11 10  2  0
 12 13  1  0
 13 14  1  0
 15 14  1  0
 16 15  1  1
 16 17  1  0
 17  7  1  0
 18 16  1  0
 19 18  2  0
 20 18  1  0
 21 20  1  0
 22 21  1  0
 23 22  1  0
 23 24  1  0
 24 20  1  0
 24 25  1  1
 25 26  1  0
 27 25  2  0
M  END
$$$$
