LRP.pdb
     RDKit          3D

 27 27  0  0  1  0  0  0  0  0999 V2000
    7.4098  -11.8256   27.6386 C   0  0  0  0  0  0  0  0  0  0  0  0
    6.4570  -12.9641   27.2835 C   0  0  1  0  0  0  0  0  0  0  0  0
    5.4844  -12.4020   26.2676 C   0  0  0  0  0  0  0  0  0  0  0  0
    7.3029  -14.0475   26.6580 C   0  0  0  0  0  0  0  0  0  0  0  0
    6.4733  -15.0789   25.9337 C   0  0  2  0  0  0  0  0  0  0  0  0
    5.9837  -16.0366   26.8927 N   0  0  0  0  0  0  0  0  0  0  0  0
    7.2112  -15.7745   24.8717 C   0  0  0  0  0  0  0  0  0  0  0  0
    7.7536  -16.8924   25.0884 O   0  0  0  0  0  0  0  0  0  0  0  0
    8.3552  -12.6612   16.5402 N   0  0  0  0  0  0  0  0  0  0  0  0
    8.6481  -14.0708   16.4582 C   0  0  0  0  0  0  0  0  0  0  0  0
    8.9891  -14.6094   15.3421 N   0  0  0  0  0  0  0  0  0  0  0  0
    8.5660  -14.8926   17.6079 N   0  0  0  0  0  0  0  0  0  0  0  0
    8.2095  -14.2991   18.9166 C   0  0  0  0  0  0  0  0  0  0  0  0
    8.2738  -15.3610   19.9725 C   0  0  0  0  0  0  0  0  0  0  0  0
    7.6378  -15.0710   21.2693 C   0  0  0  0  0  0  0  0  0  0  0  0
    8.0874  -15.8071   22.4864 C   0  0  2  0  0  0  0  0  0  0  0  0
    7.3156  -15.1903   23.5998 N   0  0  0  0  0  0  0  0  0  0  0  0
    9.5008  -15.7018   22.8319 C   0  0  0  0  0  0  0  0  0  0  0  0
    9.8250  -14.6242   23.4965 O   0  0  0  0  0  0  0  0  0  0  0  0
    9.2081  -15.6160   15.3068 N   0  0  0  0  0  0  0  0  0  0  0  0
   10.5206  -16.6217   22.5303 C   0  0  0  0  0  0  0  0  0  0  0  0
   10.3528  -17.7976   21.6985 C   0  0  0  0  0  0  0  0  0  0  0  0
   11.3331  -18.7701   22.2755 C   0  0  0  0  0  0  0  0  0  0  0  0
   12.0998  -18.0533   23.3539 C   0  0  2  0  0  0  0  0  0  0  0  0
   11.8916  -16.5936   22.9085 C   0  0  0  0  0  0  0  0  0  0  0  0
   12.8009  -16.3831   21.7254 O   0  0  0  0  0  0  0  0  0  0  0  0
   12.3146  -16.3565   20.4448 O   0  0  0  0  0  0  0  0  0  0  0  0
  2  3  1  6
  2  1  1  0
  4  2  1  0
  5  6  1  1
  5  4  1  0
  7  5  1  0
  8  7  2  0
  9 10  1  0
 10 12  1  0
 11 10  2  0
 12 13  1  0
 13 14  1  0
 15 14  1  0
 16 15  1  6
 16 17  1  0
 17  7  1  0
 18 16  1  0
 19 18  2  0
 20 18  1  0
 21 20  1  0
 22 21  1  0
 23 22  1  0
 23 24  1  0
 24 20  1  0
 24 25  1  6
 25 26  1  0
 27 25  2  0
M  END
$$$$
