TLQ.pdb
     RDKit          3D

 25 24  0  0  1  0  0  0  0  0999 V2000
   19.5662  -11.1587  -18.8478 C   0  0  0  0  0  0  0  0  0  0  0  0
   18.9375  -12.0646  -17.8402 C   0  0  1  0  0  0  0  0  0  0  0  0
   18.0073  -12.8671  -18.4765 O   0  0  0  0  0  0  0  0  0  0  0  0
   19.9696  -12.9731  -17.1587 C   0  0  2  0  0  0  0  0  0  0  0  0
   19.2378  -13.8477  -16.2902 N   0  0  0  0  0  0  0  0  0  0  0  0
   20.8341  -12.0445  -16.3534 C   0  0  0  0  0  0  0  0  0  0  0  0
   20.3750  -11.4826  -15.3252 O   0  0  0  0  0  0  0  0  0  0  0  0
   25.4756   -8.8802  -15.9916 C   0  0  0  0  0  0  0  0  0  0  0  0
   25.4363  -10.2692  -15.3829 C   0  0  2  0  0  0  0  0  0  0  0  0
   26.8286  -10.7653  -15.2726 C   0  0  0  0  0  0  0  0  0  0  0  0
   24.4465  -11.1641  -15.9762 C   0  0  0  0  0  0  0  0  0  0  0  0
   23.0299  -10.7952  -16.0817 C   0  0  2  0  0  0  0  0  0  0  0  0
   22.1944  -11.7776  -16.7340 N   0  0  0  0  0  0  0  0  0  0  0  0
   22.7509   -9.4214  -16.5637 C   0  0  0  0  0  0  0  0  0  0  0  0
   23.0197   -9.0129  -17.7236 O   0  0  0  0  0  0  0  0  0  0  0  0
   17.6147   -6.8581  -16.3880 N   0  0  0  0  0  0  0  0  0  0  0  0
   18.3090   -5.6458  -16.6227 C   0  0  0  0  0  0  0  0  0  0  0  0
   17.6572   -4.6067  -16.8424 O   0  0  0  0  0  0  0  0  0  0  0  0
   19.8043   -5.6255  -16.6047 C   0  0  0  0  0  0  0  0  0  0  0  0
   20.3016   -6.9704  -16.2102 C   0  0  0  0  0  0  0  0  0  0  0  0
   21.8013   -7.1019  -16.2222 C   0  0  2  0  0  0  0  0  0  0  0  0
   22.1425   -8.4523  -15.7156 N   0  0  0  0  0  0  0  0  0  0  0  0
   22.3980   -6.1093  -15.3082 C   0  0  0  0  0  0  0  0  0  0  0  0
   22.6970   -6.4452  -14.1258 O   0  0  0  0  0  0  0  0  0  0  0  0
   22.6379   -4.8166  -15.7243 O   0  0  0  0  0  0  0  0  0  0  0  0
  2  1  1  6
  3  2  1  0
  4  6  1  0
  4  2  1  0
  4  5  1  1
  6 13  1  0
  7  6  2  0
  9  8  1  6
 10  9  1  0
 12 11  1  6
 11  9  1  0
 13 12  1  0
 14 12  1  0
 14 15  2  0
 17 16  1  0
 18 17  2  0
 19 17  1  0
 19 20  1  0
 21 20  1  1
 21 22  1  0
 21 23  1  0
 22 14  1  0
 23 24  2  0
 23 25  1  0
M  END
$$$$
