TLQ.pdb
     RDKit          3D

 25 24  0  0  1  0  0  0  0  0999 V2000
   20.0957  -13.3100  -18.8184 C   0  0  0  0  0  0  0  0  0  0  0  0
   19.8274  -14.3393  -17.7697 C   0  0  1  0  0  0  0  0  0  0  0  0
   19.0856  -15.3656  -18.3272 O   0  0  0  0  0  0  0  0  0  0  0  0
   21.1227  -14.9358  -17.2028 C   0  0  2  0  0  0  0  0  0  0  0  0
   20.7346  -15.9879  -16.3098 N   0  0  0  0  0  0  0  0  0  0  0  0
   21.7653  -13.8141  -16.4367 C   0  0  0  0  0  0  0  0  0  0  0  0
   21.1558  -13.2687  -15.4802 O   0  0  0  0  0  0  0  0  0  0  0  0
   25.8225   -9.9290  -15.9699 C   0  0  0  0  0  0  0  0  0  0  0  0
   26.0273  -11.3242  -15.4110 C   0  0  2  0  0  0  0  0  0  0  0  0
   27.4851  -11.5764  -15.3195 C   0  0  0  0  0  0  0  0  0  0  0  0
   25.2024  -12.3552  -16.0348 C   0  0  0  0  0  0  0  0  0  0  0  0
   23.7393  -12.2527  -16.0882 C   0  0  2  0  0  0  0  0  0  0  0  0
   23.0799  -13.3405  -16.7742 N   0  0  0  0  0  0  0  0  0  0  0  0
   23.1951  -10.9332  -16.4883 C   0  0  0  0  0  0  0  0  0  0  0  0
   23.3113  -10.4428  -17.6418 O   0  0  0  0  0  0  0  0  0  0  0  0
   17.7282   -9.3908  -16.1057 N   0  0  0  0  0  0  0  0  0  0  0  0
   18.1806   -8.0850  -16.4170 C   0  0  0  0  0  0  0  0  0  0  0  0
   17.3473   -7.2138  -16.7322 O   0  0  0  0  0  0  0  0  0  0  0  0
   19.6413   -7.7679  -16.3647 C   0  0  0  0  0  0  0  0  0  0  0  0
   20.3921   -9.0026  -16.0135 C   0  0  0  0  0  0  0  0  0  0  0  0
   21.8870   -8.8281  -15.9821 C   0  0  2  0  0  0  0  0  0  0  0  0
   22.4857  -10.1170  -15.5613 N   0  0  0  0  0  0  0  0  0  0  0  0
   22.2510   -7.8090  -14.9793 C   0  0  0  0  0  0  0  0  0  0  0  0
   22.4510   -8.1534  -13.7786 O   0  0  0  0  0  0  0  0  0  0  0  0
   22.3791   -6.4818  -15.3316 O   0  0  0  0  0  0  0  0  0  0  0  0
  2  1  1  6
  3  2  1  0
  4  6  1  0
  4  2  1  0
  4  5  1  1
  6 13  1  0
  7  6  2  0
  9  8  1  6
 10  9  1  0
 12 11  1  6
 11  9  1  0
 13 12  1  0
 14 12  1  0
 14 15  2  0
 17 16  1  0
 18 17  2  0
 19 17  1  0
 19 20  1  0
 21 20  1  1
 21 22  1  0
 21 23  1  0
 22 14  1  0
 23 24  2  0
 23 25  1  0
M  END
$$$$
