TLQ.pdb
     RDKit          3D

 25 24  0  0  1  0  0  0  0  0999 V2000
   25.0113  -32.0804  -18.6421 C   0  0  0  0  0  0  0  0  0  0  0  0
   25.3772  -32.6313  -17.3027 C   0  0  1  0  0  0  0  0  0  0  0  0
   25.5809  -33.9950  -17.4186 O   0  0  0  0  0  0  0  0  0  0  0  0
   26.6618  -31.9990  -16.7507 C   0  0  2  0  0  0  0  0  0  0  0  0
   26.8944  -32.5938  -15.4673 N   0  0  0  0  0  0  0  0  0  0  0  0
   26.3419  -30.5388  -16.5967 C   0  0  0  0  0  0  0  0  0  0  0  0
   25.6534  -30.1398  -15.6217 O   0  0  0  0  0  0  0  0  0  0  0  0
   28.7906  -26.7599  -15.9178 C   0  0  0  0  0  0  0  0  0  0  0  0
   28.8065  -27.1787  -17.3757 C   0  0  2  0  0  0  0  0  0  0  0  0
   29.8488  -26.3883  -18.0726 C   0  0  0  0  0  0  0  0  0  0  0  0
   27.4883  -27.2551  -17.9996 C   0  0  0  0  0  0  0  0  0  0  0  0
   26.4502  -28.1712  -17.5127 C   0  0  2  0  0  0  0  0  0  0  0  0
   26.8099  -29.5704  -17.5505 N   0  0  0  0  0  0  0  0  0  0  0  0
   25.0815  -27.9358  -18.0311 C   0  0  0  0  0  0  0  0  0  0  0  0
   24.6261  -28.4576  -19.0822 O   0  0  0  0  0  0  0  0  0  0  0  0
   21.9814  -30.1222  -17.4899 N   0  0  0  0  0  0  0  0  0  0  0  0
   20.7961  -29.4798  -17.9246 C   0  0  0  0  0  0  0  0  0  0  0  0
   19.9072  -30.1567  -18.4765 O   0  0  0  0  0  0  0  0  0  0  0  0
   20.6249  -28.0084  -17.7186 C   0  0  0  0  0  0  0  0  0  0  0  0
   21.8162  -27.4783  -17.0035 C   0  0  0  0  0  0  0  0  0  0  0  0
   22.8231  -26.8044  -17.8970 C   0  0  2  0  0  0  0  0  0  0  0  0
   24.1723  -27.0783  -17.3480 N   0  0  0  0  0  0  0  0  0  0  0  0
   22.6120  -25.3444  -17.8770 C   0  0  0  0  0  0  0  0  0  0  0  0
   21.5647  -24.8547  -18.3907 O   0  0  0  0  0  0  0  0  0  0  0  0
   23.5406  -24.5015  -17.3033 O   0  0  0  0  0  0  0  0  0  0  0  0
  2  1  1  6
  3  2  1  0
  4  6  1  0
  4  2  1  0
  4  5  1  1
  6 13  1  0
  7  6  2  0
  9  8  1  1
 10  9  1  0
 12 11  1  6
 11  9  1  0
 13 12  1  0
 14 12  1  0
 14 15  2  0
 17 16  1  0
 18 17  2  0
 19 17  1  0
 19 20  1  0
 21 20  1  1
 21 22  1  0
 21 23  1  0
 22 14  1  0
 23 24  2  0
 23 25  1  0
M  END
$$$$
