TLQ.pdb
     RDKit          3D

 25 24  0  0  1  0  0  0  0  0999 V2000
   19.9688  -13.2281  -17.2961 C   0  0  0  0  0  0  0  0  0  0  0  0
   21.3481  -13.5634  -17.7611 C   0  0  1  0  0  0  0  0  0  0  0  0
   21.2963  -14.7148  -18.5266 O   0  0  0  0  0  0  0  0  0  0  0  0
   21.9558  -12.4443  -18.6173 C   0  0  2  0  0  0  0  0  0  0  0  0
   23.0719  -13.0169  -19.3109 N   0  0  0  0  0  0  0  0  0  0  0  0
   22.4294  -11.4135  -17.6316 C   0  0  0  0  0  0  0  0  0  0  0  0
   21.6504  -10.9809  -16.7429 O   0  0  0  0  0  0  0  0  0  0  0  0
   27.9801  -10.5738  -15.9184 C   0  0  0  0  0  0  0  0  0  0  0  0
   26.4739  -10.7449  -15.8614 C   0  0  2  0  0  0  0  0  0  0  0  0
   26.1656  -12.1855  -16.0243 C   0  0  0  0  0  0  0  0  0  0  0  0
   25.7240   -9.7978  -16.6819 C   0  0  0  0  0  0  0  0  0  0  0  0
   24.2627   -9.8616  -16.8029 C   0  0  2  0  0  0  0  0  0  0  0  0
   23.7716  -10.9009  -17.6789 N   0  0  0  0  0  0  0  0  0  0  0  0
   23.5733   -8.5698  -17.0335 C   0  0  0  0  0  0  0  0  0  0  0  0
   23.6709   -7.8978  -18.0935 O   0  0  0  0  0  0  0  0  0  0  0  0
   18.7991   -7.1148  -18.8625 N   0  0  0  0  0  0  0  0  0  0  0  0
   18.7609   -7.9167  -17.6954 C   0  0  0  0  0  0  0  0  0  0  0  0
   17.7720   -8.6478  -17.4943 O   0  0  0  0  0  0  0  0  0  0  0  0
   19.8980   -7.8782  -16.7246 C   0  0  0  0  0  0  0  0  0  0  0  0
   20.9218   -6.9184  -17.2168 C   0  0  0  0  0  0  0  0  0  0  0  0
   22.0643   -6.6916  -16.2630 C   0  0  2  0  0  0  0  0  0  0  0  0
   22.7329   -7.9950  -16.0376 N   0  0  0  0  0  0  0  0  0  0  0  0
   21.5465   -6.2160  -14.9659 C   0  0  0  0  0  0  0  0  0  0  0  0
   20.9896   -5.0826  -14.8901 O   0  0  0  0  0  0  0  0  0  0  0  0
   21.6583   -6.9909  -13.8306 O   0  0  0  0  0  0  0  0  0  0  0  0
  2  1  1  6
  3  2  1  0
  4  6  1  0
  4  2  1  0
  4  5  1  1
  6 13  1  0
  7  6  2  0
  9  8  1  6
 10  9  1  0
 12 11  1  6
 11  9  1  0
 13 12  1  0
 14 12  1  0
 14 15  2  0
 17 16  1  0
 18 17  2  0
 19 17  1  0
 19 20  1  0
 21 20  1  6
 21 22  1  0
 21 23  1  0
 22 14  1  0
 23 24  2  0
 23 25  1  0
M  END
$$$$
