TLQ.pdb
     RDKit          3D

 25 24  0  0  1  0  0  0  0  0999 V2000
   21.5966  -12.1905  -20.6412 C   0  0  0  0  0  0  0  0  0  0  0  0
   20.8150  -13.0779  -19.7287 C   0  0  1  0  0  0  0  0  0  0  0  0
   20.0849  -13.9734  -20.4900 O   0  0  0  0  0  0  0  0  0  0  0  0
   21.7231  -13.8780  -18.7853 C   0  0  2  0  0  0  0  0  0  0  0  0
   20.8721  -14.7690  -18.0526 N   0  0  0  0  0  0  0  0  0  0  0  0
   22.3231  -12.8553  -17.8621 C   0  0  0  0  0  0  0  0  0  0  0  0
   21.5970  -12.2428  -17.0366 O   0  0  0  0  0  0  0  0  0  0  0  0
   28.0941  -10.7267  -16.4802 C   0  0  0  0  0  0  0  0  0  0  0  0
   26.5927  -10.5424  -16.3673 C   0  0  2  0  0  0  0  0  0  0  0  0
   26.2717  -10.2140  -14.9581 C   0  0  0  0  0  0  0  0  0  0  0  0
   25.8026  -11.5870  -17.0132 C   0  0  0  0  0  0  0  0  0  0  0  0
   24.3415  -11.5015  -17.1209 C   0  0  2  0  0  0  0  0  0  0  0  0
   23.7281  -12.5539  -17.8988 N   0  0  0  0  0  0  0  0  0  0  0  0
   23.7926  -10.1674  -17.4619 C   0  0  0  0  0  0  0  0  0  0  0  0
   23.9417   -9.6082  -18.5797 O   0  0  0  0  0  0  0  0  0  0  0  0
   20.6815   -8.0617  -20.1952 N   0  0  0  0  0  0  0  0  0  0  0  0
   20.1171   -7.0763  -19.3484 C   0  0  0  0  0  0  0  0  0  0  0  0
   19.4158   -6.1760  -19.8492 O   0  0  0  0  0  0  0  0  0  0  0  0
   20.3664   -7.1257  -17.8745 C   0  0  0  0  0  0  0  0  0  0  0  0
   21.1356   -8.3578  -17.5552 C   0  0  0  0  0  0  0  0  0  0  0  0
   22.4538   -8.1033  -16.8740 C   0  0  2  0  0  0  0  0  0  0  0  0
   23.0398   -9.4163  -16.5144 N   0  0  0  0  0  0  0  0  0  0  0  0
   22.2347   -7.3463  -15.6268 C   0  0  0  0  0  0  0  0  0  0  0  0
   21.9020   -6.1270  -15.6831 O   0  0  0  0  0  0  0  0  0  0  0  0
   22.3853   -7.9492  -14.3957 O   0  0  0  0  0  0  0  0  0  0  0  0
  2  1  1  6
  3  2  1  0
  4  6  1  0
  4  2  1  0
  4  5  1  1
  6 13  1  0
  7  6  2  0
  9  8  1  1
 10  9  1  0
 12 11  1  6
 11  9  1  0
 13 12  1  0
 14 12  1  0
 14 15  2  0
 17 16  1  0
 18 17  2  0
 19 17  1  0
 19 20  1  0
 21 20  1  1
 21 22  1  0
 21 23  1  0
 22 14  1  0
 23 24  2  0
 23 25  1  0
M  END
$$$$
