TLQ.pdb
     RDKit          3D

 25 24  0  0  1  0  0  0  0  0999 V2000
   14.1946   -8.8205  -14.2917 C   0  0  0  0  0  0  0  0  0  0  0  0
   15.6450   -8.5201  -14.0986 C   0  0  1  0  0  0  0  0  0  0  0  0
   15.7785   -7.2160  -13.6560 O   0  0  0  0  0  0  0  0  0  0  0  0
   16.2928   -9.4479  -13.0621 C   0  0  2  0  0  0  0  0  0  0  0  0
   15.6828   -9.1449  -11.8008 N   0  0  0  0  0  0  0  0  0  0  0  0
   17.7442   -9.0589  -13.0446 C   0  0  0  0  0  0  0  0  0  0  0  0
   18.1776   -8.2655  -12.1690 O   0  0  0  0  0  0  0  0  0  0  0  0
   23.1889  -11.2107  -15.1773 C   0  0  0  0  0  0  0  0  0  0  0  0
   22.4155  -10.0441  -14.5927 C   0  0  2  0  0  0  0  0  0  0  0  0
   23.1220   -9.5855  -13.3731 C   0  0  0  0  0  0  0  0  0  0  0  0
   20.9741  -10.2585  -14.4967 C   0  0  0  0  0  0  0  0  0  0  0  0
   20.0544   -9.1878  -14.0946 C   0  0  2  0  0  0  0  0  0  0  0  0
   18.6651   -9.5785  -14.0184 N   0  0  0  0  0  0  0  0  0  0  0  0
   20.2284   -7.8885  -14.7867 C   0  0  0  0  0  0  0  0  0  0  0  0
   19.9014   -7.6779  -15.9839 O   0  0  0  0  0  0  0  0  0  0  0  0
   17.4888   -3.2218  -14.1237 N   0  0  0  0  0  0  0  0  0  0  0  0
   18.5550   -2.5271  -14.7460 C   0  0  0  0  0  0  0  0  0  0  0  0
   18.4097   -1.3224  -15.0299 O   0  0  0  0  0  0  0  0  0  0  0  0
   19.8332   -3.2402  -15.0533 C   0  0  0  0  0  0  0  0  0  0  0  0
   19.7432   -4.6350  -14.5451 C   0  0  0  0  0  0  0  0  0  0  0  0
   20.9674   -5.4695  -14.8122 C   0  0  2  0  0  0  0  0  0  0  0  0
   20.7935   -6.7662  -14.1160 N   0  0  0  0  0  0  0  0  0  0  0  0
   22.1581   -4.8063  -14.2475 C   0  0  0  0  0  0  0  0  0  0  0  0
   22.7004   -5.2726  -13.2040 O   0  0  0  0  0  0  0  0  0  0  0  0
   22.6930   -3.6828  -14.8422 O   0  0  0  0  0  0  0  0  0  0  0  0
  2  1  1  1
  3  2  1  0
  4  6  1  0
  4  2  1  0
  4  5  1  1
  6 13  1  0
  7  6  2  0
  9  8  1  1
 10  9  1  0
 12 11  1  6
 11  9  1  0
 13 12  1  0
 14 12  1  0
 14 15  2  0
 17 16  1  0
 18 17  2  0
 19 17  1  0
 19 20  1  0
 21 20  1  1
 21 22  1  0
 21 23  1  0
 22 14  1  0
 23 24  2  0
 23 25  1  0
M  END
$$$$
