TLQ.pdb
     RDKit          3D

 25 24  0  0  1  0  0  0  0  0999 V2000
   22.1518   -8.4464  -22.4391 C   0  0  0  0  0  0  0  0  0  0  0  0
   21.7566   -8.2131  -21.0176 C   0  0  1  0  0  0  0  0  0  0  0  0
   20.7660   -7.2479  -20.9796 O   0  0  0  0  0  0  0  0  0  0  0  0
   21.2130   -9.4857  -20.3542 C   0  0  2  0  0  0  0  0  0  0  0  0
   19.9756   -9.7943  -21.0087 N   0  0  0  0  0  0  0  0  0  0  0  0
   20.9628   -9.1022  -18.9229 C   0  0  0  0  0  0  0  0  0  0  0  0
   19.8297   -8.6862  -18.5667 O   0  0  0  0  0  0  0  0  0  0  0  0
   23.1739  -10.4248  -13.2895 C   0  0  0  0  0  0  0  0  0  0  0  0
   22.3604   -9.4659  -14.1379 C   0  0  2  0  0  0  0  0  0  0  0  0
   21.0184   -9.3293  -13.5236 C   0  0  0  0  0  0  0  0  0  0  0  0
   22.4216   -9.7242  -15.5739 C   0  0  0  0  0  0  0  0  0  0  0  0
   21.8336   -8.8042  -16.5546 C   0  0  2  0  0  0  0  0  0  0  0  0
   22.0018   -9.2000  -17.9343 N   0  0  0  0  0  0  0  0  0  0  0  0
   22.1247   -7.3650  -16.3507 C   0  0  0  0  0  0  0  0  0  0  0  0
   23.2397   -6.8307  -16.5871 O   0  0  0  0  0  0  0  0  0  0  0  0
   17.8507   -2.9817  -16.5732 N   0  0  0  0  0  0  0  0  0  0  0  0
   18.9024   -2.1886  -16.0522 C   0  0  0  0  0  0  0  0  0  0  0  0
   18.7079   -0.9724  -15.8627 O   0  0  0  0  0  0  0  0  0  0  0  0
   20.2243   -2.8135  -15.7375 C   0  0  0  0  0  0  0  0  0  0  0  0
   20.1472   -4.2729  -16.0128 C   0  0  0  0  0  0  0  0  0  0  0  0
   21.4105   -5.0282  -15.6968 C   0  0  2  0  0  0  0  0  0  0  0  0
   21.1278   -6.4739  -15.8599 N   0  0  0  0  0  0  0  0  0  0  0  0
   21.7942   -4.7958  -14.2913 C   0  0  0  0  0  0  0  0  0  0  0  0
   22.3836   -3.7233  -13.9709 O   0  0  0  0  0  0  0  0  0  0  0  0
   21.5178   -5.7317  -13.3168 O   0  0  0  0  0  0  0  0  0  0  0  0
  2  1  1  6
  3  2  1  0
  4  6  1  0
  4  2  1  0
  4  5  1  6
  6 13  1  0
  7  6  2  0
  9  8  1  1
 10  9  1  0
 12 11  1  1
 11  9  1  0
 13 12  1  0
 14 12  1  0
 14 15  2  0
 17 16  1  0
 18 17  2  0
 19 17  1  0
 19 20  1  0
 21 20  1  1
 21 22  1  0
 21 23  1  0
 22 14  1  0
 23 24  2  0
 23 25  1  0
M  END
$$$$
