TLQ.pdb
     RDKit          3D

 25 24  0  0  1  0  0  0  0  0999 V2000
   20.5807  -10.1640  -19.9334 C   0  0  0  0  0  0  0  0  0  0  0  0
   19.7997  -10.9698  -18.9476 C   0  0  1  0  0  0  0  0  0  0  0  0
   18.7828  -11.6309  -19.6134 O   0  0  0  0  0  0  0  0  0  0  0  0
   20.6705  -12.0166  -18.2400 C   0  0  2  0  0  0  0  0  0  0  0  0
   19.7901  -12.8006  -17.4243 N   0  0  0  0  0  0  0  0  0  0  0  0
   21.6097  -11.2224  -17.3767 C   0  0  0  0  0  0  0  0  0  0  0  0
   21.1621  -10.5135  -16.4380 O   0  0  0  0  0  0  0  0  0  0  0  0
   27.8031  -10.8664  -16.3907 C   0  0  0  0  0  0  0  0  0  0  0  0
   26.4461  -10.2019  -16.2553 C   0  0  2  0  0  0  0  0  0  0  0  0
   26.3114   -9.7045  -14.8656 C   0  0  0  0  0  0  0  0  0  0  0  0
   25.3351  -10.9730  -16.8064 C   0  0  0  0  0  0  0  0  0  0  0  0
   23.9715  -10.4340  -16.8704 C   0  0  2  0  0  0  0  0  0  0  0  0
   23.0295  -11.2523  -17.5995 N   0  0  0  0  0  0  0  0  0  0  0  0
   23.8563   -9.0006  -17.2304 C   0  0  0  0  0  0  0  0  0  0  0  0
   24.1178   -8.5367  -18.3710 O   0  0  0  0  0  0  0  0  0  0  0  0
   19.4779   -3.3128  -16.7324 N   0  0  0  0  0  0  0  0  0  0  0  0
   20.0299   -4.6039  -16.5455 C   0  0  0  0  0  0  0  0  0  0  0  0
   19.2735   -5.5503  -16.2535 O   0  0  0  0  0  0  0  0  0  0  0  0
   21.5024   -4.8165  -16.6990 C   0  0  0  0  0  0  0  0  0  0  0  0
   21.8077   -6.2567  -16.4886 C   0  0  0  0  0  0  0  0  0  0  0  0
   23.2615   -6.6102  -16.6551 C   0  0  2  0  0  0  0  0  0  0  0  0
   23.4289   -8.0333  -16.2763 N   0  0  0  0  0  0  0  0  0  0  0  0
   24.0826   -5.7962  -15.7388 C   0  0  0  0  0  0  0  0  0  0  0  0
   24.4948   -6.2973  -14.6527 O   0  0  0  0  0  0  0  0  0  0  0  0
   24.4113   -4.4933  -16.0491 O   0  0  0  0  0  0  0  0  0  0  0  0
  2  1  1  6
  3  2  1  0
  4  6  1  0
  4  2  1  0
  4  5  1  1
  6 13  1  0
  7  6  2  0
  9  8  1  1
 10  9  1  0
 12 11  1  6
 11  9  1  0
 13 12  1  0
 14 12  1  0
 14 15  2  0
 17 16  1  0
 18 17  2  0
 19 17  1  0
 19 20  1  0
 21 20  1  1
 21 22  1  0
 21 23  1  0
 22 14  1  0
 23 24  2  0
 23 25  1  0
M  END
$$$$
