TLQ.pdb
     RDKit          3D

 25 24  0  0  1  0  0  0  0  0999 V2000
   26.1782   -8.0684  -20.9492 C   0  0  0  0  0  0  0  0  0  0  0  0
   25.4792   -9.2581  -21.5213 C   0  0  1  0  0  0  0  0  0  0  0  0
   25.7585   -9.3353  -22.8743 O   0  0  0  0  0  0  0  0  0  0  0  0
   25.9344  -10.5666  -20.8614 C   0  0  2  0  0  0  0  0  0  0  0  0
   25.2680  -11.6301  -21.5540 N   0  0  0  0  0  0  0  0  0  0  0  0
   25.4418  -10.4799  -19.4443 C   0  0  0  0  0  0  0  0  0  0  0  0
   24.2077  -10.5057  -19.1993 O   0  0  0  0  0  0  0  0  0  0  0  0
   26.1705  -13.2555  -15.9012 C   0  0  0  0  0  0  0  0  0  0  0  0
   27.2972  -12.2539  -16.0703 C   0  0  2  0  0  0  0  0  0  0  0  0
   28.4269  -12.6792  -15.2103 C   0  0  0  0  0  0  0  0  0  0  0  0
   26.8825  -10.8556  -15.9964 C   0  0  0  0  0  0  0  0  0  0  0  0
   25.9450  -10.2712  -16.9625 C   0  0  2  0  0  0  0  0  0  0  0  0
   26.3595  -10.3664  -18.3437 N   0  0  0  0  0  0  0  0  0  0  0  0
   25.4270   -8.9225  -16.6303 C   0  0  0  0  0  0  0  0  0  0  0  0
   26.0177   -7.8493  -16.9197 O   0  0  0  0  0  0  0  0  0  0  0  0
   22.6589   -6.1013  -19.6907 N   0  0  0  0  0  0  0  0  0  0  0  0
   22.3301   -5.2037  -18.6453 C   0  0  0  0  0  0  0  0  0  0  0  0
   21.7822   -4.1203  -18.9264 O   0  0  0  0  0  0  0  0  0  0  0  0
   22.6412   -5.5622  -17.2270 C   0  0  0  0  0  0  0  0  0  0  0  0
   23.2576   -6.9151  -17.1941 C   0  0  0  0  0  0  0  0  0  0  0  0
   23.5650   -7.4199  -15.8096 C   0  0  2  0  0  0  0  0  0  0  0  0
   24.1909   -8.7568  -15.9424 N   0  0  0  0  0  0  0  0  0  0  0  0
   22.3131   -7.5780  -15.0451 C   0  0  0  0  0  0  0  0  0  0  0  0
   21.7852   -8.7224  -14.9354 O   0  0  0  0  0  0  0  0  0  0  0  0
   21.7077   -6.4944  -14.4441 O   0  0  0  0  0  0  0  0  0  0  0  0
  2  1  1  1
  3  2  1  0
  4  6  1  0
  4  2  1  0
  4  5  1  6
  6 13  1  0
  7  6  2  0
  9  8  1  1
 10  9  1  0
 12 11  1  1
 11  9  1  0
 13 12  1  0
 14 12  1  0
 14 15  2  0
 17 16  1  0
 18 17  2  0
 19 17  1  0
 19 20  1  0
 21 20  1  6
 21 22  1  0
 21 23  1  0
 22 14  1  0
 23 24  2  0
 23 25  1  0
M  END
$$$$
