TLQ.pdb
     RDKit          3D

 25 24  0  0  1  0  0  0  0  0999 V2000
   17.9033   -8.9517  -13.1821 C   0  0  0  0  0  0  0  0  0  0  0  0
   16.7276   -9.8454  -13.4062 C   0  0  1  0  0  0  0  0  0  0  0  0
   17.1336  -10.9459  -14.1401 O   0  0  0  0  0  0  0  0  0  0  0  0
   16.1229  -10.3442  -12.0870 C   0  0  2  0  0  0  0  0  0  0  0  0
   15.1554  -11.3446  -12.4302 N   0  0  0  0  0  0  0  0  0  0  0  0
   15.4413   -9.1439  -11.4928 C   0  0  0  0  0  0  0  0  0  0  0  0
   14.6543   -8.4519  -12.1896 O   0  0  0  0  0  0  0  0  0  0  0  0
   12.0887   -7.7685   -8.6145 C   0  0  0  0  0  0  0  0  0  0  0  0
   13.2654   -8.4427   -7.9350 C   0  0  2  0  0  0  0  0  0  0  0  0
   12.8861   -8.7306   -6.5314 C   0  0  0  0  0  0  0  0  0  0  0  0
   14.5531   -7.7937   -8.1660 C   0  0  0  0  0  0  0  0  0  0  0  0
   15.0871   -7.5859   -9.5171 C   0  0  2  0  0  0  0  0  0  0  0  0
   15.6693   -8.7600  -10.1264 N   0  0  0  0  0  0  0  0  0  0  0  0
   15.9371   -6.3855   -9.7018 C   0  0  0  0  0  0  0  0  0  0  0  0
   17.1955   -6.4021   -9.6780 O   0  0  0  0  0  0  0  0  0  0  0  0
   17.8800   -5.1061  -14.0573 N   0  0  0  0  0  0  0  0  0  0  0  0
   18.2381   -3.8167  -13.5925 C   0  0  0  0  0  0  0  0  0  0  0  0
   19.0069   -3.1166  -14.2792 O   0  0  0  0  0  0  0  0  0  0  0  0
   17.6945   -3.3130  -12.2933 C   0  0  0  0  0  0  0  0  0  0  0  0
   16.8526   -4.3732  -11.6777 C   0  0  0  0  0  0  0  0  0  0  0  0
   16.1895   -3.9644  -10.3895 C   0  0  2  0  0  0  0  0  0  0  0  0
   15.3612   -5.1020   -9.9244 N   0  0  0  0  0  0  0  0  0  0  0  0
   15.2930   -2.8176  -10.6300 C   0  0  0  0  0  0  0  0  0  0  0  0
   14.0537   -3.0132  -10.7918 O   0  0  0  0  0  0  0  0  0  0  0  0
   15.7858   -1.5305  -10.6795 O   0  0  0  0  0  0  0  0  0  0  0  0
  2  1  1  1
  3  2  1  0
  4  6  1  0
  4  2  1  0
  4  5  1  6
  6 13  1  0
  7  6  2  0
  9  8  1  1
 10  9  1  0
 12 11  1  1
 11  9  1  0
 13 12  1  0
 14 12  1  0
 14 15  2  0
 17 16  1  0
 18 17  2  0
 19 17  1  0
 19 20  1  0
 21 20  1  6
 21 22  1  0
 21 23  1  0
 22 14  1  0
 23 24  2  0
 23 25  1  0
M  END
$$$$
