TLQ.pdb
     RDKit          3D

 25 24  0  0  1  0  0  0  0  0999 V2000
   20.1593  -12.3712  -19.7402 C   0  0  0  0  0  0  0  0  0  0  0  0
   19.8745  -13.7004  -19.1210 C   0  0  1  0  0  0  0  0  0  0  0  0
   19.1921  -14.4842  -20.0344 O   0  0  0  0  0  0  0  0  0  0  0  0
   21.1599  -14.4372  -18.7213 C   0  0  2  0  0  0  0  0  0  0  0  0
   20.7571  -15.6988  -18.1726 N   0  0  0  0  0  0  0  0  0  0  0  0
   21.7835  -13.5817  -17.6548 C   0  0  0  0  0  0  0  0  0  0  0  0
   21.2817  -13.5398  -16.5014 O   0  0  0  0  0  0  0  0  0  0  0  0
   25.7740   -9.9327  -15.9353 C   0  0  0  0  0  0  0  0  0  0  0  0
   25.8942  -11.4440  -15.8844 C   0  0  2  0  0  0  0  0  0  0  0  0
   27.3335  -11.7914  -15.8152 C   0  0  0  0  0  0  0  0  0  0  0  0
   25.0762  -12.1514  -16.8659 C   0  0  0  0  0  0  0  0  0  0  0  0
   23.6198  -11.9821  -16.9301 C   0  0  2  0  0  0  0  0  0  0  0  0
   22.9578  -12.7971  -17.9231 N   0  0  0  0  0  0  0  0  0  0  0  0
   23.1287  -10.5835  -16.9430 C   0  0  0  0  0  0  0  0  0  0  0  0
   23.2683   -9.7960  -17.9151 O   0  0  0  0  0  0  0  0  0  0  0  0
   17.7684   -9.1625  -16.7176 N   0  0  0  0  0  0  0  0  0  0  0  0
   18.2010   -7.8271  -16.5274 C   0  0  0  0  0  0  0  0  0  0  0  0
   17.3793   -6.8993  -16.6571 O   0  0  0  0  0  0  0  0  0  0  0  0
   19.6274   -7.5466  -16.1758 C   0  0  0  0  0  0  0  0  0  0  0  0
   20.3783   -8.8298  -16.1406 C   0  0  0  0  0  0  0  0  0  0  0  0
   21.8530   -8.6751  -15.8804 C   0  0  2  0  0  0  0  0  0  0  0  0
   22.4480  -10.0312  -15.8204 N   0  0  0  0  0  0  0  0  0  0  0  0
   22.0650   -8.0272  -14.5720 C   0  0  0  0  0  0  0  0  0  0  0  0
   21.8024   -6.7978  -14.4307 O   0  0  0  0  0  0  0  0  0  0  0  0
   22.5450   -8.7435  -13.4957 O   0  0  0  0  0  0  0  0  0  0  0  0
  2  1  1  6
  3  2  1  0
  4  6  1  0
  4  2  1  0
  4  5  1  1
  6 13  1  0
  7  6  2  0
  9  8  1  6
 10  9  1  0
 12 11  1  6
 11  9  1  0
 13 12  1  0
 14 12  1  0
 14 15  2  0
 17 16  1  0
 18 17  2  0
 19 17  1  0
 19 20  1  0
 21 20  1  1
 21 22  1  0
 21 23  1  0
 22 14  1  0
 23 24  2  0
 23 25  1  0
M  END
$$$$
