TLQ.pdb
     RDKit          3D

 25 24  0  0  1  0  0  0  0  0999 V2000
   26.4849  -18.6986  -16.1420 C   0  0  0  0  0  0  0  0  0  0  0  0
   27.0471  -19.9467  -16.7399 C   0  0  1  0  0  0  0  0  0  0  0  0
   27.9529  -19.6029  -17.7277 O   0  0  0  0  0  0  0  0  0  0  0  0
   27.7754  -20.8073  -15.6987 C   0  0  2  0  0  0  0  0  0  0  0  0
   28.2438  -21.9751  -16.3854 N   0  0  0  0  0  0  0  0  0  0  0  0
   26.7203  -21.1815  -14.6962 C   0  0  0  0  0  0  0  0  0  0  0  0
   25.7945  -21.9721  -15.0153 O   0  0  0  0  0  0  0  0  0  0  0  0
   23.9158  -20.5964   -9.9311 C   0  0  0  0  0  0  0  0  0  0  0  0
   25.3469  -21.0891   -9.8295 C   0  0  2  0  0  0  0  0  0  0  0  0
   25.8557  -20.7561   -8.4778 C   0  0  0  0  0  0  0  0  0  0  0  0
   26.1899  -20.7449  -10.9712 C   0  0  0  0  0  0  0  0  0  0  0  0
   25.7565  -20.9749  -12.3544 C   0  0  2  0  0  0  0  0  0  0  0  0
   26.7421  -20.6509  -13.3605 N   0  0  0  0  0  0  0  0  0  0  0  0
   24.4124  -20.4592  -12.7078 C   0  0  0  0  0  0  0  0  0  0  0  0
   24.1377  -19.2378  -12.8383 O   0  0  0  0  0  0  0  0  0  0  0  0
   21.6304  -23.1001  -16.9880 N   0  0  0  0  0  0  0  0  0  0  0  0
   20.4737  -23.0251  -16.1737 C   0  0  0  0  0  0  0  0  0  0  0  0
   19.4612  -23.6754  -16.4976 O   0  0  0  0  0  0  0  0  0  0  0  0
   20.4792  -22.1735  -14.9442 C   0  0  0  0  0  0  0  0  0  0  0  0
   21.8134  -21.5312  -14.8067 C   0  0  0  0  0  0  0  0  0  0  0  0
   22.0365  -20.8489  -13.4834 C   0  0  2  0  0  0  0  0  0  0  0  0
   23.3182  -21.3441  -12.9279 N   0  0  0  0  0  0  0  0  0  0  0  0
   20.9610  -21.2169  -12.5430 C   0  0  0  0  0  0  0  0  0  0  0  0
   21.2113  -21.9936  -11.5763 O   0  0  0  0  0  0  0  0  0  0  0  0
   19.6825  -20.7244  -12.7001 O   0  0  0  0  0  0  0  0  0  0  0  0
  2  1  1  1
  3  2  1  0
  4  6  1  0
  4  2  1  0
  4  5  1  6
  6 13  1  0
  7  6  2  0
  9  8  1  6
 10  9  1  0
 12 11  1  1
 11  9  1  0
 13 12  1  0
 14 12  1  0
 14 15  2  0
 17 16  1  0
 18 17  2  0
 19 17  1  0
 19 20  1  0
 21 20  1  6
 21 22  1  0
 21 23  1  0
 22 14  1  0
 23 24  2  0
 23 25  1  0
M  END
$$$$
