TLQ.pdb
     RDKit          3D

 25 24  0  0  1  0  0  0  0  0999 V2000
   19.7662  -25.0624  -10.0707 C   0  0  0  0  0  0  0  0  0  0  0  0
   20.6068  -23.8343  -10.1986 C   0  0  1  0  0  0  0  0  0  0  0  0
   20.2757  -23.1840  -11.3742 O   0  0  0  0  0  0  0  0  0  0  0  0
   20.3866  -22.8611   -9.0328 C   0  0  2  0  0  0  0  0  0  0  0  0
   19.0697  -22.3180   -9.1936 N   0  0  0  0  0  0  0  0  0  0  0  0
   21.4192  -21.7860   -9.2227 C   0  0  0  0  0  0  0  0  0  0  0  0
   21.0748  -20.6351   -9.5977 O   0  0  0  0  0  0  0  0  0  0  0  0
   27.4049  -20.7201   -7.6966 C   0  0  0  0  0  0  0  0  0  0  0  0
   26.1727  -20.2967   -8.4735 C   0  0  2  0  0  0  0  0  0  0  0  0
   25.8737  -18.8855   -8.1331 C   0  0  0  0  0  0  0  0  0  0  0  0
   25.0679  -21.2505   -8.4262 C   0  0  0  0  0  0  0  0  0  0  0  0
   23.8605  -21.0820   -9.2433 C   0  0  2  0  0  0  0  0  0  0  0  0
   22.8130  -22.0431   -8.9829 N   0  0  0  0  0  0  0  0  0  0  0  0
   24.0819  -20.8822  -10.6954 C   0  0  0  0  0  0  0  0  0  0  0  0
   24.4730  -21.7857  -11.4799 O   0  0  0  0  0  0  0  0  0  0  0  0
   26.9498  -20.5408  -15.2417 N   0  0  0  0  0  0  0  0  0  0  0  0
   26.3937  -21.6320  -14.5300 C   0  0  0  0  0  0  0  0  0  0  0  0
   26.6199  -22.7920  -14.9251 O   0  0  0  0  0  0  0  0  0  0  0  0
   25.5480  -21.3831  -13.3218 C   0  0  0  0  0  0  0  0  0  0  0  0
   25.4686  -19.9178  -13.0805 C   0  0  0  0  0  0  0  0  0  0  0  0
   24.0850  -19.4192  -12.7589 C   0  0  2  0  0  0  0  0  0  0  0  0
   23.8576  -19.6160  -11.3076 N   0  0  0  0  0  0  0  0  0  0  0  0
   23.0827  -20.2190  -13.4886 C   0  0  0  0  0  0  0  0  0  0  0  0
   22.3642  -21.0492  -12.8603 O   0  0  0  0  0  0  0  0  0  0  0  0
   22.9143  -20.0741  -14.8497 O   0  0  0  0  0  0  0  0  0  0  0  0
  2  1  1  1
  3  2  1  0
  4  6  1  0
  4  2  1  0
  4  5  1  6
  6 13  1  0
  7  6  2  0
  9  8  1  1
 10  9  1  0
 12 11  1  1
 11  9  1  0
 13 12  1  0
 14 12  1  0
 14 15  2  0
 17 16  1  0
 18 17  2  0
 19 17  1  0
 19 20  1  0
 21 20  1  6
 21 22  1  0
 21 23  1  0
 22 14  1  0
 23 24  2  0
 23 25  1  0
M  END
$$$$
