TLQ.pdb
     RDKit          3D

 25 24  0  0  1  0  0  0  0  0999 V2000
   27.7782  -16.8253  -16.1879 C   0  0  0  0  0  0  0  0  0  0  0  0
   27.0239  -17.8836  -15.4516 C   0  0  1  0  0  0  0  0  0  0  0  0
   26.0029  -18.3518  -16.2596 O   0  0  0  0  0  0  0  0  0  0  0  0
   27.9189  -19.0709  -15.0719 C   0  0  2  0  0  0  0  0  0  0  0  0
   28.2591  -19.7371  -16.2948 N   0  0  0  0  0  0  0  0  0  0  0  0
   27.0517  -19.9559  -14.2216 C   0  0  0  0  0  0  0  0  0  0  0  0
   26.3924  -20.8907  -14.7462 O   0  0  0  0  0  0  0  0  0  0  0  0
   28.6173  -22.3543  -10.9224 C   0  0  0  0  0  0  0  0  0  0  0  0
   28.0914  -21.0327  -10.3950 C   0  0  2  0  0  0  0  0  0  0  0  0
   28.6149  -20.8416   -9.0217 C   0  0  0  0  0  0  0  0  0  0  0  0
   26.6623  -20.8198  -10.6077 C   0  0  0  0  0  0  0  0  0  0  0  0
   26.1067  -20.5499  -11.9390 C   0  0  2  0  0  0  0  0  0  0  0  0
   26.9547  -19.7584  -12.8010 N   0  0  0  0  0  0  0  0  0  0  0  0
   24.6975  -20.0912  -11.9736 C   0  0  0  0  0  0  0  0  0  0  0  0
   24.3385  -18.9006  -11.7779 O   0  0  0  0  0  0  0  0  0  0  0  0
   20.9703  -20.9361  -16.6841 N   0  0  0  0  0  0  0  0  0  0  0  0
   21.3256  -19.6692  -16.1594 C   0  0  0  0  0  0  0  0  0  0  0  0
   21.7107  -18.7765  -16.9389 O   0  0  0  0  0  0  0  0  0  0  0  0
   21.2357  -19.4179  -14.6877 C   0  0  0  0  0  0  0  0  0  0  0  0
   22.4995  -19.8635  -14.0429 C   0  0  0  0  0  0  0  0  0  0  0  0
   22.3107  -20.5123  -12.6976 C   0  0  2  0  0  0  0  0  0  0  0  0
   23.6332  -20.9996  -12.2391 N   0  0  0  0  0  0  0  0  0  0  0  0
   21.4159  -21.6782  -12.8255 C   0  0  0  0  0  0  0  0  0  0  0  0
   20.1629  -21.5069  -12.8599 O   0  0  0  0  0  0  0  0  0  0  0  0
   21.9253  -22.9570  -12.9106 O   0  0  0  0  0  0  0  0  0  0  0  0
  2  1  1  6
  3  2  1  0
  4  6  1  0
  4  2  1  0
  4  5  1  6
  6 13  1  0
  7  6  2  0
  9  8  1  1
 10  9  1  0
 12 11  1  1
 11  9  1  0
 13 12  1  0
 14 12  1  0
 14 15  2  0
 17 16  1  0
 18 17  2  0
 19 17  1  0
 19 20  1  0
 21 20  1  6
 21 22  1  0
 21 23  1  0
 22 14  1  0
 23 24  2  0
 23 25  1  0
M  END
$$$$
