MME.pdb
     RDKit          3D

 26 25  0  0  1  0  0  0  0  0999 V2000
   22.9246  -26.8284   -1.8830 C   0  0  0  0  0  0  0  0  0  0  0  0
   22.6275  -25.6116   -0.5898 S   0  0  0  0  0  0  0  0  0  0  0  0
   21.1039  -25.9253    0.3244 C   0  0  0  0  0  0  0  0  0  0  0  0
   20.9326  -24.9013    1.3990 C   0  0  0  0  0  0  0  0  0  0  0  0
   19.7408  -25.1870    2.2924 C   0  0  2  0  0  0  0  0  0  0  0  0
   18.5802  -25.4938    1.4355 N   0  0  0  0  0  0  0  0  0  0  0  0
   19.3845  -24.0492    3.1362 C   0  0  0  0  0  0  0  0  0  0  0  0
   20.2005  -23.6578    4.0404 O   0  0  0  0  0  0  0  0  0  0  0  0
   15.2105  -19.7766    1.3160 C   0  0  0  0  0  0  0  0  0  0  0  0
   15.2350  -19.1956    3.0558 S   0  0  0  0  0  0  0  0  0  0  0  0
   16.5963  -20.0285    3.9413 C   0  0  0  0  0  0  0  0  0  0  0  0
   16.8010  -21.3561    3.2923 C   0  0  0  0  0  0  0  0  0  0  0  0
   17.9562  -22.1496    3.8854 C   0  0  2  0  0  0  0  0  0  0  0  0
   18.1541  -23.3045    3.0353 N   0  0  0  0  0  0  0  0  0  0  0  0
   17.5509  -22.4810    5.2602 C   0  0  0  0  0  0  0  0  0  0  0  0
   16.6134  -23.3338    5.3618 O   0  0  0  0  0  0  0  0  0  0  0  0
   18.1923  -21.8686    6.3463 N   0  0  0  0  0  0  0  0  0  0  0  0
   17.7154  -22.1842    7.6976 C   0  0  1  0  0  0  0  0  0  0  0  0
   18.7729  -21.7739    8.7098 C   0  0  0  0  0  0  0  0  0  0  0  0
   18.3811  -22.0594   10.1276 C   0  0  0  0  0  0  0  0  0  0  0  0
   19.4846  -21.6280   11.0456 C   0  0  0  0  0  0  0  0  0  0  0  0
   20.4894  -21.0665   10.5710 O   0  0  0  0  0  0  0  0  0  0  0  0
   16.3971  -21.5734    7.9395 C   0  0  0  0  0  0  0  0  0  0  0  0
   15.5673  -22.2113    8.6338 O   0  0  0  0  0  0  0  0  0  0  0  0
   19.3924  -21.8491   12.4023 O   0  0  0  0  0  0  0  0  0  0  0  0
   16.0156  -20.3376    7.4486 O   0  0  0  0  0  0  0  0  0  0  0  0
  2  3  1  0
  2  1  1  0
  4  5  1  0
  4  3  1  0
  5  6  1  6
  7  8  2  0
  7  5  1  0
 10  9  1  0
 11 12  1  0
 11 10  1  0
 13 12  1  6
 13 14  1  0
 14  7  1  0
 15 13  1  0
 15 16  2  0
 17 15  1  0
 18 17  1  0
 18 19  1  1
 19 20  1  0
 20 21  1  0
 21 22  2  0
 23 18  1  0
 24 23  2  0
 25 21  1  0
 26 23  1  0
M  END
$$$$
