MME.pdb
     RDKit          3D

 26 25  0  0  1  0  0  0  0  0999 V2000
   25.7212  -25.3252  -17.0005 C   0  0  0  0  0  0  0  0  0  0  0  0
   27.1650  -25.1329  -18.0585 S   0  0  0  0  0  0  0  0  0  0  0  0
   27.7991  -23.4437  -18.0707 C   0  0  0  0  0  0  0  0  0  0  0  0
   26.9104  -22.5584  -17.2590 C   0  0  0  0  0  0  0  0  0  0  0  0
   27.3776  -21.1156  -17.2474 C   0  0  2  0  0  0  0  0  0  0  0  0
   28.7055  -21.0619  -16.6079 N   0  0  0  0  0  0  0  0  0  0  0  0
   26.4833  -20.2405  -16.4937 C   0  0  0  0  0  0  0  0  0  0  0  0
   26.6993  -20.0439  -15.2482 O   0  0  0  0  0  0  0  0  0  0  0  0
   24.5888  -13.5627  -14.5934 C   0  0  0  0  0  0  0  0  0  0  0  0
   25.3526  -14.7880  -15.7249 S   0  0  0  0  0  0  0  0  0  0  0  0
   24.1768  -16.1566  -15.9998 C   0  0  0  0  0  0  0  0  0  0  0  0
   24.9100  -17.2317  -16.7294 C   0  0  0  0  0  0  0  0  0  0  0  0
   24.6006  -18.6313  -16.2184 C   0  0  2  0  0  0  0  0  0  0  0  0
   25.3422  -19.5563  -17.0491 N   0  0  0  0  0  0  0  0  0  0  0  0
   23.1402  -18.7795  -16.3143 C   0  0  0  0  0  0  0  0  0  0  0  0
   22.6845  -18.9415  -17.4902 O   0  0  0  0  0  0  0  0  0  0  0  0
   22.3544  -18.7391  -15.1538 N   0  0  0  0  0  0  0  0  0  0  0  0
   20.9200  -19.0211  -15.2807 C   0  0  1  0  0  0  0  0  0  0  0  0
   20.4341  -19.7195  -14.0207 C   0  0  0  0  0  0  0  0  0  0  0  0
   18.9763  -20.0638  -14.0565 C   0  0  0  0  0  0  0  0  0  0  0  0
   18.5900  -20.7290  -12.7701 C   0  0  0  0  0  0  0  0  0  0  0  0
   19.4308  -20.8274  -11.8571 O   0  0  0  0  0  0  0  0  0  0  0  0
   20.1746  -17.7915  -15.5998 C   0  0  0  0  0  0  0  0  0  0  0  0
   20.6125  -16.7014  -15.1555 O   0  0  0  0  0  0  0  0  0  0  0  0
   17.3182  -21.2288  -12.5955 O   0  0  0  0  0  0  0  0  0  0  0  0
   19.0196  -17.7629  -16.3607 O   0  0  0  0  0  0  0  0  0  0  0  0
  2  3  1  0
  2  1  1  0
  4  5  1  0
  4  3  1  0
  5  6  1  1
  7  8  2  0
  7  5  1  0
 10  9  1  0
 11 12  1  0
 11 10  1  0
 13 12  1  6
 13 14  1  0
 14  7  1  0
 15 13  1  0
 15 16  2  0
 17 15  1  0
 18 17  1  0
 18 19  1  1
 19 20  1  0
 20 21  1  0
 21 22  2  0
 23 18  1  0
 24 23  2  0
 25 21  1  0
 26 23  1  0
M  END
$$$$
