MME.pdb
     RDKit          3D

 26 25  0  0  1  0  0  0  0  0999 V2000
   27.6661  -18.6757   -4.4735 C   0  0  0  0  0  0  0  0  0  0  0  0
   28.8514  -19.0498   -5.7759 S   0  0  0  0  0  0  0  0  0  0  0  0
   28.2801  -20.3550   -6.8831 C   0  0  0  0  0  0  0  0  0  0  0  0
   27.2412  -19.8179   -7.8130 C   0  0  0  0  0  0  0  0  0  0  0  0
   26.7608  -20.8534   -8.8115 C   0  0  2  0  0  0  0  0  0  0  0  0
   27.9070  -21.7004   -9.1911 N   0  0  0  0  0  0  0  0  0  0  0  0
   26.2258  -20.2534  -10.0311 C   0  0  0  0  0  0  0  0  0  0  0  0
   25.1584  -19.5509   -9.9696 O   0  0  0  0  0  0  0  0  0  0  0  0
   28.9038  -17.2860  -15.5943 C   0  0  0  0  0  0  0  0  0  0  0  0
   28.0153  -18.8417  -15.9886 S   0  0  0  0  0  0  0  0  0  0  0  0
   26.6213  -19.0405  -14.8273 C   0  0  0  0  0  0  0  0  0  0  0  0
   27.1598  -19.6840  -13.5938 C   0  0  0  0  0  0  0  0  0  0  0  0
   26.1281  -19.8270  -12.4844 C   0  0  2  0  0  0  0  0  0  0  0  0
   26.8151  -20.3875  -11.3401 N   0  0  0  0  0  0  0  0  0  0  0  0
   25.0701  -20.6916  -13.0296 C   0  0  0  0  0  0  0  0  0  0  0  0
   25.3323  -21.9357  -13.0369 O   0  0  0  0  0  0  0  0  0  0  0  0
   23.8734  -20.1267  -13.4930 N   0  0  0  0  0  0  0  0  0  0  0  0
   22.7983  -21.0333  -13.9119 C   0  0  1  0  0  0  0  0  0  0  0  0
   21.5138  -20.6513  -13.1939 C   0  0  0  0  0  0  0  0  0  0  0  0
   20.3263  -21.4522  -13.6339 C   0  0  0  0  0  0  0  0  0  0  0  0
   19.1183  -21.0175  -12.8603 C   0  0  0  0  0  0  0  0  0  0  0  0
   18.7754  -21.6610  -11.8511 O   0  0  0  0  0  0  0  0  0  0  0  0
   22.6732  -21.0485  -15.3793 C   0  0  0  0  0  0  0  0  0  0  0  0
   22.9571  -19.9994  -16.0088 O   0  0  0  0  0  0  0  0  0  0  0  0
   18.3909  -19.9176  -13.2589 O   0  0  0  0  0  0  0  0  0  0  0  0
   22.2619  -22.1496  -16.1090 O   0  0  0  0  0  0  0  0  0  0  0  0
  2  3  1  0
  2  1  1  0
  4  5  1  0
  4  3  1  0
  5  6  1  6
  7  8  2  0
  7  5  1  0
 10  9  1  0
 11 12  1  0
 11 10  1  0
 13 12  1  6
 13 14  1  0
 14  7  1  0
 15 13  1  0
 15 16  2  0
 17 15  1  0
 18 17  1  0
 18 19  1  1
 19 20  1  0
 20 21  1  0
 21 22  2  0
 23 18  1  0
 24 23  2  0
 25 21  1  0
 26 23  1  0
M  END
$$$$
