MME.pdb
     RDKit          3D

 26 25  0  0  1  0  0  0  0  0999 V2000
   27.3050  -23.0537  -18.7684 C   0  0  0  0  0  0  0  0  0  0  0  0
   28.0665  -21.4854  -18.3192 S   0  0  0  0  0  0  0  0  0  0  0  0
   29.1269  -21.6178  -16.8653 C   0  0  0  0  0  0  0  0  0  0  0  0
   28.3269  -22.0748  -15.6891 C   0  0  0  0  0  0  0  0  0  0  0  0
   27.4194  -20.9890  -15.1435 C   0  0  2  0  0  0  0  0  0  0  0  0
   28.2622  -19.8925  -14.6311 N   0  0  0  0  0  0  0  0  0  0  0  0
   26.5792  -21.4575  -14.0443 C   0  0  0  0  0  0  0  0  0  0  0  0
   25.8364  -22.4849  -14.2151 O   0  0  0  0  0  0  0  0  0  0  0  0
   26.2511  -19.1822   -8.0392 C   0  0  0  0  0  0  0  0  0  0  0  0
   27.3319  -20.6448   -8.2791 S   0  0  0  0  0  0  0  0  0  0  0  0
   27.0149  -21.3534   -9.9310 C   0  0  0  0  0  0  0  0  0  0  0  0
   25.7933  -20.6893  -10.4716 C   0  0  0  0  0  0  0  0  0  0  0  0
   25.4081  -21.1684  -11.8637 C   0  0  2  0  0  0  0  0  0  0  0  0
   26.5126  -20.8436  -12.7414 N   0  0  0  0  0  0  0  0  0  0  0  0
   24.1556  -20.4718  -12.1953 C   0  0  0  0  0  0  0  0  0  0  0  0
   24.2868  -19.2668  -12.5791 O   0  0  0  0  0  0  0  0  0  0  0  0
   22.9295  -21.1422  -12.0794 N   0  0  0  0  0  0  0  0  0  0  0  0
   21.8346  -20.7382  -12.9689 C   0  0  1  0  0  0  0  0  0  0  0  0
   22.2877  -20.8743  -14.4137 C   0  0  0  0  0  0  0  0  0  0  0  0
   21.2023  -20.5886  -15.4063 C   0  0  0  0  0  0  0  0  0  0  0  0
   21.1985  -19.1257  -15.7328 C   0  0  0  0  0  0  0  0  0  0  0  0
   22.2069  -18.6137  -16.2536 O   0  0  0  0  0  0  0  0  0  0  0  0
   20.6084  -21.4935  -12.6602 C   0  0  0  0  0  0  0  0  0  0  0  0
   20.7249  -22.6934  -12.3079 O   0  0  0  0  0  0  0  0  0  0  0  0
   20.0924  -18.3511  -15.4603 O   0  0  0  0  0  0  0  0  0  0  0  0
   19.3334  -20.9617  -12.7341 O   0  0  0  0  0  0  0  0  0  0  0  0
  2  3  1  0
  2  1  1  0
  4  5  1  0
  4  3  1  0
  5  6  1  1
  7  8  2  0
  7  5  1  0
 10  9  1  0
 11 12  1  0
 11 10  1  0
 13 12  1  1
 13 14  1  0
 14  7  1  0
 15 13  1  0
 15 16  2  0
 17 15  1  0
 18 17  1  0
 18 19  1  6
 19 20  1  0
 20 21  1  0
 21 22  2  0
 23 18  1  0
 24 23  2  0
 25 21  1  0
 26 23  1  0
M  END
$$$$
