MME.pdb
     RDKit          3D

 26 25  0  0  1  0  0  0  0  0999 V2000
   28.0467  -19.5386   -3.3593 C   0  0  0  0  0  0  0  0  0  0  0  0
   28.2958  -19.2687   -5.1218 S   0  0  0  0  0  0  0  0  0  0  0  0
   26.7988  -19.5536   -6.0880 C   0  0  0  0  0  0  0  0  0  0  0  0
   27.0809  -19.3462   -7.5406 C   0  0  0  0  0  0  0  0  0  0  0  0
   26.0035  -19.9314   -8.4334 C   0  0  2  0  0  0  0  0  0  0  0  0
   26.0005  -21.3960   -8.2597 N   0  0  0  0  0  0  0  0  0  0  0  0
   26.2312  -19.6501   -9.8485 C   0  0  0  0  0  0  0  0  0  0  0  0
   26.9094  -18.6181  -10.1827 O   0  0  0  0  0  0  0  0  0  0  0  0
   30.2631  -22.6340  -12.1568 C   0  0  0  0  0  0  0  0  0  0  0  0
   30.3912  -21.0197  -11.2950 S   0  0  0  0  0  0  0  0  0  0  0  0
   28.8458  -20.0837  -11.5540 C   0  0  0  0  0  0  0  0  0  0  0  0
   27.8022  -21.0600  -11.9822 C   0  0  0  0  0  0  0  0  0  0  0  0
   26.4362  -20.4282  -12.2070 C   0  0  2  0  0  0  0  0  0  0  0  0
   25.7431  -20.4605  -10.9365 N   0  0  0  0  0  0  0  0  0  0  0  0
   25.7926  -21.2284  -13.2603 C   0  0  0  0  0  0  0  0  0  0  0  0
   25.7838  -22.4843  -13.0623 O   0  0  0  0  0  0  0  0  0  0  0  0
   25.2411  -20.5948  -14.3829 N   0  0  0  0  0  0  0  0  0  0  0  0
   23.8159  -20.8033  -14.6632 C   0  0  1  0  0  0  0  0  0  0  0  0
   23.0017  -20.3947  -13.4460 C   0  0  0  0  0  0  0  0  0  0  0  0
   21.5226  -20.5131  -13.6533 C   0  0  0  0  0  0  0  0  0  0  0  0
   21.0282  -21.7715  -13.0061 C   0  0  0  0  0  0  0  0  0  0  0  0
   21.3019  -21.9920  -11.8117 O   0  0  0  0  0  0  0  0  0  0  0  0
   23.4217  -20.1062  -15.8992 C   0  0  0  0  0  0  0  0  0  0  0  0
   23.9114  -18.9711  -16.1209 O   0  0  0  0  0  0  0  0  0  0  0  0
   20.2785  -22.6785  -13.7224 O   0  0  0  0  0  0  0  0  0  0  0  0
   22.5436  -20.6257  -16.8336 O   0  0  0  0  0  0  0  0  0  0  0  0
  2  3  1  0
  2  1  1  0
  4  5  1  0
  4  3  1  0
  5  6  1  6
  7  8  2  0
  7  5  1  0
 10  9  1  0
 11 12  1  0
 11 10  1  0
 13 12  1  1
 13 14  1  0
 14  7  1  0
 15 13  1  0
 15 16  2  0
 17 15  1  0
 18 17  1  0
 18 19  1  1
 19 20  1  0
 20 21  1  0
 21 22  2  0
 23 18  1  0
 24 23  2  0
 25 21  1  0
 26 23  1  0
M  END
$$$$
