MME.pdb
     RDKit          3D

 26 25  0  0  1  0  0  0  0  0999 V2000
   26.7951  -13.7657  -15.0957 C   0  0  0  0  0  0  0  0  0  0  0  0
   26.3330  -15.4991  -15.2483 S   0  0  0  0  0  0  0  0  0  0  0  0
   24.7839  -15.7302  -16.1442 C   0  0  0  0  0  0  0  0  0  0  0  0
   24.1001  -14.4149  -16.3303 C   0  0  0  0  0  0  0  0  0  0  0  0
   22.7535  -14.5493  -17.0150 C   0  0  2  0  0  0  0  0  0  0  0  0
   22.9713  -15.1003  -18.3656 N   0  0  0  0  0  0  0  0  0  0  0  0
   22.0658  -13.2689  -17.1606 C   0  0  0  0  0  0  0  0  0  0  0  0
   22.3828  -12.4919  -18.1262 O   0  0  0  0  0  0  0  0  0  0  0  0
   15.8896  -13.3849  -19.1068 C   0  0  0  0  0  0  0  0  0  0  0  0
   16.6446  -12.8559  -17.5209 S   0  0  0  0  0  0  0  0  0  0  0  0
   18.3630  -12.3237  -17.8292 C   0  0  0  0  0  0  0  0  0  0  0  0
   18.8899  -11.7628  -16.5512 C   0  0  0  0  0  0  0  0  0  0  0  0
   20.3921  -11.5201  -16.5689 C   0  0  2  0  0  0  0  0  0  0  0  0
   21.0271  -12.7893  -16.2833 N   0  0  0  0  0  0  0  0  0  0  0  0
   20.6429  -10.4840  -15.5551 C   0  0  0  0  0  0  0  0  0  0  0  0
   20.8716  -10.9141  -14.3808 O   0  0  0  0  0  0  0  0  0  0  0  0
   20.6209   -9.1297  -15.9176 N   0  0  0  0  0  0  0  0  0  0  0  0
   20.8232   -8.1292  -14.8634 C   0  0  1  0  0  0  0  0  0  0  0  0
   21.4154   -6.8700  -15.4759 C   0  0  0  0  0  0  0  0  0  0  0  0
   21.6706   -5.7853  -14.4742 C   0  0  0  0  0  0  0  0  0  0  0  0
   22.0230   -4.5176  -15.1920 C   0  0  0  0  0  0  0  0  0  0  0  0
   22.1862   -3.4707  -14.5381 O   0  0  0  0  0  0  0  0  0  0  0  0
   19.5720   -7.8942  -14.1227 C   0  0  0  0  0  0  0  0  0  0  0  0
   18.4868   -7.9912  -14.7475 O   0  0  0  0  0  0  0  0  0  0  0  0
   22.1654   -4.5060  -16.5623 O   0  0  0  0  0  0  0  0  0  0  0  0
   19.5180   -7.5728  -12.7782 O   0  0  0  0  0  0  0  0  0  0  0  0
  2  3  1  0
  2  1  1  0
  4  5  1  0
  4  3  1  0
  5  6  1  6
  7  8  2  0
  7  5  1  0
 10  9  1  0
 11 12  1  0
 11 10  1  0
 13 12  1  1
 13 14  1  0
 14  7  1  0
 15 13  1  0
 15 16  2  0
 17 15  1  0
 18 17  1  0
 18 19  1  6
 19 20  1  0
 20 21  1  0
 21 22  2  0
 23 18  1  0
 24 23  2  0
 25 21  1  0
 26 23  1  0
M  END
$$$$
