MME.pdb
     RDKit          3D

 26 25  0  0  1  0  0  0  0  0999 V2000
   26.3289  -16.0619  -15.3177 C   0  0  0  0  0  0  0  0  0  0  0  0
   27.8591  -16.5960  -16.1016 S   0  0  0  0  0  0  0  0  0  0  0  0
   28.4171  -18.2078  -15.5130 C   0  0  0  0  0  0  0  0  0  0  0  0
   27.3169  -18.8874  -14.7645 C   0  0  0  0  0  0  0  0  0  0  0  0
   27.7450  -20.2202  -14.1810 C   0  0  2  0  0  0  0  0  0  0  0  0
   28.0035  -21.1534  -15.2934 N   0  0  0  0  0  0  0  0  0  0  0  0
   26.7204  -20.8160  -13.3273 C   0  0  0  0  0  0  0  0  0  0  0  0
   25.9694  -21.7387  -13.7977 O   0  0  0  0  0  0  0  0  0  0  0  0
   27.9644  -20.6707   -6.5393 C   0  0  0  0  0  0  0  0  0  0  0  0
   26.5025  -20.0984   -7.4881 S   0  0  0  0  0  0  0  0  0  0  0  0
   26.4679  -20.9543   -9.0998 C   0  0  0  0  0  0  0  0  0  0  0  0
   25.3161  -20.4022   -9.8707 C   0  0  0  0  0  0  0  0  0  0  0  0
   25.2590  -20.8923  -11.3103 C   0  0  2  0  0  0  0  0  0  0  0  0
   26.4741  -20.4433  -11.9565 N   0  0  0  0  0  0  0  0  0  0  0  0
   24.0306  -20.3183  -11.8808 C   0  0  0  0  0  0  0  0  0  0  0  0
   24.0519  -19.0609  -12.0677 O   0  0  0  0  0  0  0  0  0  0  0  0
   22.9425  -21.1502  -12.1807 N   0  0  0  0  0  0  0  0  0  0  0  0
   21.7517  -20.5398  -12.7830 C   0  0  1  0  0  0  0  0  0  0  0  0
   21.4645  -21.2127  -14.1157 C   0  0  0  0  0  0  0  0  0  0  0  0
   21.2281  -22.6876  -13.9980 C   0  0  0  0  0  0  0  0  0  0  0  0
   21.1055  -23.2831  -15.3680 C   0  0  0  0  0  0  0  0  0  0  0  0
   21.2110  -22.5460  -16.3659 O   0  0  0  0  0  0  0  0  0  0  0  0
   20.6170  -20.5779  -11.8448 C   0  0  0  0  0  0  0  0  0  0  0  0
   20.7388  -21.2569  -10.7953 O   0  0  0  0  0  0  0  0  0  0  0  0
   20.8777  -24.6325  -15.5263 O   0  0  0  0  0  0  0  0  0  0  0  0
   19.4226  -19.9101  -12.0484 O   0  0  0  0  0  0  0  0  0  0  0  0
  2  3  1  0
  2  1  1  0
  4  5  1  0
  4  3  1  0
  5  6  1  6
  7  8  2  0
  7  5  1  0
 10  9  1  0
 11 12  1  0
 11 10  1  0
 13 12  1  1
 13 14  1  0
 14  7  1  0
 15 13  1  0
 15 16  2  0
 17 15  1  0
 18 17  1  0
 18 19  1  6
 19 20  1  0
 20 21  1  0
 21 22  2  0
 23 18  1  0
 24 23  2  0
 25 21  1  0
 26 23  1  0
M  END
$$$$
