MME.pdb
     RDKit          3D

 26 25  0  0  1  0  0  0  0  0999 V2000
   29.7838  -18.6069  -17.9512 C   0  0  0  0  0  0  0  0  0  0  0  0
   29.3711  -17.0598  -17.1282 S   0  0  0  0  0  0  0  0  0  0  0  0
   28.3230  -17.3002  -15.6792 C   0  0  0  0  0  0  0  0  0  0  0  0
   27.9384  -18.7391  -15.5598 C   0  0  0  0  0  0  0  0  0  0  0  0
   26.5652  -18.9266  -14.9440 C   0  0  2  0  0  0  0  0  0  0  0  0
   26.2268  -17.7096  -14.1825 N   0  0  0  0  0  0  0  0  0  0  0  0
   26.5112  -20.0590  -14.0230 C   0  0  0  0  0  0  0  0  0  0  0  0
   26.7611  -21.2356  -14.4587 O   0  0  0  0  0  0  0  0  0  0  0  0
   26.4756  -19.2267   -7.9072 C   0  0  0  0  0  0  0  0  0  0  0  0
   26.8611  -20.9823   -8.2738 S   0  0  0  0  0  0  0  0  0  0  0  0
   26.7938  -21.2409  -10.0793 C   0  0  0  0  0  0  0  0  0  0  0  0
   25.4315  -20.8382  -10.5347 C   0  0  0  0  0  0  0  0  0  0  0  0
   25.2528  -20.9029  -12.0446 C   0  0  2  0  0  0  0  0  0  0  0  0
   26.1914  -19.9632  -12.6204 N   0  0  0  0  0  0  0  0  0  0  0  0
   23.8422  -20.5699  -12.2962 C   0  0  0  0  0  0  0  0  0  0  0  0
   23.5819  -19.3284  -12.3821 O   0  0  0  0  0  0  0  0  0  0  0  0
   22.8932  -21.5938  -12.4260 N   0  0  0  0  0  0  0  0  0  0  0  0
   21.6011  -21.2646  -13.0387 C   0  0  1  0  0  0  0  0  0  0  0  0
   21.8359  -20.7158  -14.4369 C   0  0  0  0  0  0  0  0  0  0  0  0
   20.5688  -20.4173  -15.1787 C   0  0  0  0  0  0  0  0  0  0  0  0
   20.1292  -19.0179  -14.8705 C   0  0  0  0  0  0  0  0  0  0  0  0
   20.7664  -18.0593  -15.3451 O   0  0  0  0  0  0  0  0  0  0  0  0
   20.6979  -22.4275  -13.0040 C   0  0  0  0  0  0  0  0  0  0  0  0
   21.1744  -23.5559  -13.2813 O   0  0  0  0  0  0  0  0  0  0  0  0
   19.0317  -18.7899  -14.0698 O   0  0  0  0  0  0  0  0  0  0  0  0
   19.3541  -22.3535  -12.6838 O   0  0  0  0  0  0  0  0  0  0  0  0
  2  3  1  0
  2  1  1  0
  4  5  1  0
  4  3  1  0
  5  6  1  1
  7  8  2  0
  7  5  1  0
 10  9  1  0
 11 12  1  0
 11 10  1  0
 13 12  1  1
 13 14  1  0
 14  7  1  0
 15 13  1  0
 15 16  2  0
 17 15  1  0
 18 17  1  0
 18 19  1  6
 19 20  1  0
 20 21  1  0
 21 22  2  0
 23 18  1  0
 24 23  2  0
 25 21  1  0
 26 23  1  0
M  END
$$$$
