MME.pdb
     RDKit          3D

 26 25  0  0  1  0  0  0  0  0999 V2000
   19.2320  -13.4496  -20.3425 C   0  0  0  0  0  0  0  0  0  0  0  0
   20.3020  -14.3078  -21.5085 S   0  0  0  0  0  0  0  0  0  0  0  0
   21.9365  -14.6553  -20.8277 C   0  0  0  0  0  0  0  0  0  0  0  0
   22.2760  -13.6502  -19.7755 C   0  0  0  0  0  0  0  0  0  0  0  0
   23.6476  -13.8799  -19.1704 C   0  0  2  0  0  0  0  0  0  0  0  0
   23.6422  -15.1881  -18.4892 N   0  0  0  0  0  0  0  0  0  0  0  0
   24.0046  -12.8640  -18.1835 C   0  0  0  0  0  0  0  0  0  0  0  0
   23.4980  -12.9225  -17.0102 O   0  0  0  0  0  0  0  0  0  0  0  0
   30.1137  -13.0603  -16.2427 C   0  0  0  0  0  0  0  0  0  0  0  0
   29.2060  -11.5599  -16.7815 S   0  0  0  0  0  0  0  0  0  0  0  0
   27.4140  -11.9042  -16.7441 C   0  0  0  0  0  0  0  0  0  0  0  0
   26.7199  -10.7031  -17.2928 C   0  0  0  0  0  0  0  0  0  0  0  0
   25.2059  -10.8483  -17.3448 C   0  0  2  0  0  0  0  0  0  0  0  0
   24.9078  -11.7662  -18.4237 N   0  0  0  0  0  0  0  0  0  0  0  0
   24.6797   -9.4902  -17.5519 C   0  0  0  0  0  0  0  0  0  0  0  0
   24.6189   -9.1078  -18.7630 O   0  0  0  0  0  0  0  0  0  0  0  0
   24.2851   -8.7166  -16.4512 N   0  0  0  0  0  0  0  0  0  0  0  0
   23.7422   -7.3776  -16.7070 C   0  0  1  0  0  0  0  0  0  0  0  0
   23.1538   -6.8220  -15.4200 C   0  0  0  0  0  0  0  0  0  0  0  0
   22.6266   -5.4267  -15.5612 C   0  0  0  0  0  0  0  0  0  0  0  0
   22.2120   -4.9124  -14.2157 C   0  0  0  0  0  0  0  0  0  0  0  0
   22.3779   -5.6284  -13.2108 O   0  0  0  0  0  0  0  0  0  0  0  0
   24.7656   -6.5085  -17.3125 C   0  0  0  0  0  0  0  0  0  0  0  0
   25.9357   -6.5674  -16.8599 O   0  0  0  0  0  0  0  0  0  0  0  0
   21.6517   -3.6604  -14.0877 O   0  0  0  0  0  0  0  0  0  0  0  0
   24.5174   -5.6297  -18.3517 O   0  0  0  0  0  0  0  0  0  0  0  0
  2  3  1  0
  2  1  1  0
  4  5  1  0
  4  3  1  0
  5  6  1  1
  7  8  2  0
  7  5  1  0
 10  9  1  0
 11 12  1  0
 11 10  1  0
 13 12  1  6
 13 14  1  0
 14  7  1  0
 15 13  1  0
 15 16  2  0
 17 15  1  0
 18 17  1  0
 18 19  1  1
 19 20  1  0
 20 21  1  0
 21 22  2  0
 23 18  1  0
 24 23  2  0
 25 21  1  0
 26 23  1  0
M  END
$$$$
