MME.pdb
     RDKit          3D

 26 25  0  0  1  0  0  0  0  0999 V2000
   19.1394  -23.6435  -11.4524 C   0  0  0  0  0  0  0  0  0  0  0  0
   18.9499  -24.0157   -9.7012 S   0  0  0  0  0  0  0  0  0  0  0  0
   19.7847  -22.8183   -8.6406 C   0  0  0  0  0  0  0  0  0  0  0  0
   20.8349  -22.0926   -9.4173 C   0  0  0  0  0  0  0  0  0  0  0  0
   21.6804  -21.1833   -8.5464 C   0  0  2  0  0  0  0  0  0  0  0  0
   20.8712  -20.0059   -8.1802 N   0  0  0  0  0  0  0  0  0  0  0  0
   22.8799  -20.7057   -9.2296 C   0  0  0  0  0  0  0  0  0  0  0  0
   22.8368  -19.6039   -9.8783 O   0  0  0  0  0  0  0  0  0  0  0  0
   28.5885  -20.0468   -7.0126 C   0  0  0  0  0  0  0  0  0  0  0  0
   29.1150  -20.7439   -8.6256 S   0  0  0  0  0  0  0  0  0  0  0  0
   27.7524  -20.5595   -9.8258 C   0  0  0  0  0  0  0  0  0  0  0  0
   26.5134  -21.0732   -9.1728 C   0  0  0  0  0  0  0  0  0  0  0  0
   25.2513  -20.8247   -9.9860 C   0  0  2  0  0  0  0  0  0  0  0  0
   24.1493  -21.3894   -9.2363 N   0  0  0  0  0  0  0  0  0  0  0  0
   25.4806  -21.4680  -11.2889 C   0  0  0  0  0  0  0  0  0  0  0  0
   25.6341  -22.7297  -11.2547 O   0  0  0  0  0  0  0  0  0  0  0  0
   25.5150  -20.6925  -12.4565 N   0  0  0  0  0  0  0  0  0  0  0  0
   25.6604  -21.3853  -13.7419 C   0  0  1  0  0  0  0  0  0  0  0  0
   24.6287  -20.8465  -14.7200 C   0  0  0  0  0  0  0  0  0  0  0  0
   23.2517  -21.3909  -14.4912 C   0  0  0  0  0  0  0  0  0  0  0  0
   22.3213  -20.8453  -15.5320 C   0  0  0  0  0  0  0  0  0  0  0  0
   22.4476  -19.6642  -15.9052 O   0  0  0  0  0  0  0  0  0  0  0  0
   27.0462  -21.2880  -14.2311 C   0  0  0  0  0  0  0  0  0  0  0  0
   27.4031  -22.0587  -15.1563 O   0  0  0  0  0  0  0  0  0  0  0  0
   21.3339  -21.6393  -16.0728 O   0  0  0  0  0  0  0  0  0  0  0  0
   27.9811  -20.3977  -13.7338 O   0  0  0  0  0  0  0  0  0  0  0  0
  2  3  1  0
  2  1  1  0
  4  5  1  0
  4  3  1  0
  5  6  1  6
  7  8  2  0
  7  5  1  0
 10  9  1  0
 11 12  1  0
 11 10  1  0
 13 12  1  1
 13 14  1  0
 14  7  1  0
 15 13  1  0
 15 16  2  0
 17 15  1  0
 18 17  1  0
 18 19  1  6
 19 20  1  0
 20 21  1  0
 21 22  2  0
 23 18  1  0
 24 23  2  0
 25 21  1  0
 26 23  1  0
M  END
$$$$
