MME.pdb
     RDKit          3D

 26 25  0  0  1  0  0  0  0  0999 V2000
   20.7451  -17.2476  -17.2748 C   0  0  0  0  0  0  0  0  0  0  0  0
   21.7107  -16.8379  -18.7380 S   0  0  0  0  0  0  0  0  0  0  0  0
   23.4668  -16.6326  -18.3781 C   0  0  0  0  0  0  0  0  0  0  0  0
   23.6797  -15.4031  -17.5561 C   0  0  0  0  0  0  0  0  0  0  0  0
   25.1353  -15.1944  -17.1850 C   0  0  2  0  0  0  0  0  0  0  0  0
   25.4717  -16.1173  -16.0848 N   0  0  0  0  0  0  0  0  0  0  0  0
   25.4100  -13.8348  -16.7271 C   0  0  0  0  0  0  0  0  0  0  0  0
   25.2044  -13.5311  -15.5015 O   0  0  0  0  0  0  0  0  0  0  0  0
   29.6926  -10.3177  -19.3228 C   0  0  0  0  0  0  0  0  0  0  0  0
   29.3891   -9.1369  -17.9520 S   0  0  0  0  0  0  0  0  0  0  0  0
   27.8388   -9.5956  -17.1050 C   0  0  0  0  0  0  0  0  0  0  0  0
   27.4633  -10.9606  -17.5755 C   0  0  0  0  0  0  0  0  0  0  0  0
   26.1613  -11.4719  -16.9763 C   0  0  2  0  0  0  0  0  0  0  0  0
   25.9095  -12.7713  -17.5626 N   0  0  0  0  0  0  0  0  0  0  0  0
   25.1446  -10.4605  -17.3039 C   0  0  0  0  0  0  0  0  0  0  0  0
   24.7141  -10.4875  -18.4999 O   0  0  0  0  0  0  0  0  0  0  0  0
   24.7155   -9.5553  -16.3228 N   0  0  0  0  0  0  0  0  0  0  0  0
   23.6799   -8.5816  -16.6869 C   0  0  1  0  0  0  0  0  0  0  0  0
   22.7118   -8.4231  -15.5254 C   0  0  0  0  0  0  0  0  0  0  0  0
   21.5837   -7.4809  -15.8163 C   0  0  0  0  0  0  0  0  0  0  0  0
   20.6549   -7.4382  -14.6407 C   0  0  0  0  0  0  0  0  0  0  0  0
   21.0256   -7.9151  -13.5519 O   0  0  0  0  0  0  0  0  0  0  0  0
   24.2890   -7.3145  -17.1259 C   0  0  0  0  0  0  0  0  0  0  0  0
   25.4038   -6.9949  -16.6437 O   0  0  0  0  0  0  0  0  0  0  0  0
   19.4018   -6.8782  -14.7593 O   0  0  0  0  0  0  0  0  0  0  0  0
   23.7079   -6.4526  -18.0388 O   0  0  0  0  0  0  0  0  0  0  0  0
  2  3  1  0
  2  1  1  0
  4  5  1  0
  4  3  1  0
  5  6  1  1
  7  8  2  0
  7  5  1  0
 10  9  1  0
 11 12  1  0
 11 10  1  0
 13 12  1  6
 13 14  1  0
 14  7  1  0
 15 13  1  0
 15 16  2  0
 17 15  1  0
 18 17  1  0
 18 19  1  1
 19 20  1  0
 20 21  1  0
 21 22  2  0
 23 18  1  0
 24 23  2  0
 25 21  1  0
 26 23  1  0
M  END
$$$$
