MME.pdb
     RDKit          3D

 26 25  0  0  1  0  0  0  0  0999 V2000
   26.7767  -15.9317  -14.8775 C   0  0  0  0  0  0  0  0  0  0  0  0
   28.2765  -16.5869  -15.6277 S   0  0  0  0  0  0  0  0  0  0  0  0
   27.9829  -18.1026  -16.5616 C   0  0  0  0  0  0  0  0  0  0  0  0
   27.0997  -19.0208  -15.7810 C   0  0  0  0  0  0  0  0  0  0  0  0
   27.8807  -19.9362  -14.8578 C   0  0  2  0  0  0  0  0  0  0  0  0
   28.5824  -20.9386  -15.6812 N   0  0  0  0  0  0  0  0  0  0  0  0
   27.0226  -20.6524  -13.9174 C   0  0  0  0  0  0  0  0  0  0  0  0
   26.3087  -21.6279  -14.3360 O   0  0  0  0  0  0  0  0  0  0  0  0
   26.1314  -19.1561   -7.4727 C   0  0  0  0  0  0  0  0  0  0  0  0
   25.8179  -20.9572   -7.6234 S   0  0  0  0  0  0  0  0  0  0  0  0
   25.2263  -21.3182   -9.3119 C   0  0  0  0  0  0  0  0  0  0  0  0
   26.2015  -20.7103  -10.2631 C   0  0  0  0  0  0  0  0  0  0  0  0
   25.9083  -21.0326  -11.7211 C   0  0  2  0  0  0  0  0  0  0  0  0
   26.9069  -20.3463  -12.5132 N   0  0  0  0  0  0  0  0  0  0  0  0
   24.5321  -20.5731  -11.9645 C   0  0  0  0  0  0  0  0  0  0  0  0
   24.3943  -19.3177  -12.1112 O   0  0  0  0  0  0  0  0  0  0  0  0
   23.4836  -21.5022  -12.0228 N   0  0  0  0  0  0  0  0  0  0  0  0
   22.2027  -21.0634  -12.5884 C   0  0  1  0  0  0  0  0  0  0  0  0
   21.8833  -21.9035  -13.8146 C   0  0  0  0  0  0  0  0  0  0  0  0
   20.5955  -21.5210  -14.4782 C   0  0  0  0  0  0  0  0  0  0  0  0
   20.3469  -22.4299  -15.6438 C   0  0  0  0  0  0  0  0  0  0  0  0
   21.1751  -23.3201  -15.9116 O   0  0  0  0  0  0  0  0  0  0  0  0
   21.1457  -21.0886  -11.5630 C   0  0  0  0  0  0  0  0  0  0  0  0
   21.3581  -21.7383  -10.5094 O   0  0  0  0  0  0  0  0  0  0  0  0
   19.2144  -22.2848  -16.4148 O   0  0  0  0  0  0  0  0  0  0  0  0
   19.9307  -20.4390  -11.6887 O   0  0  0  0  0  0  0  0  0  0  0  0
  2  3  1  0
  2  1  1  0
  4  5  1  0
  4  3  1  0
  5  6  1  6
  7  8  2  0
  7  5  1  0
 10  9  1  0
 11 12  1  0
 11 10  1  0
 13 12  1  1
 13 14  1  0
 14  7  1  0
 15 13  1  0
 15 16  2  0
 17 15  1  0
 18 17  1  0
 18 19  1  6
 19 20  1  0
 20 21  1  0
 21 22  2  0
 23 18  1  0
 24 23  2  0
 25 21  1  0
 26 23  1  0
M  END
$$$$
