MME.pdb
     RDKit          3D

 26 25  0  0  1  0  0  0  0  0999 V2000
   29.9920  -21.4486  -18.6370 C   0  0  0  0  0  0  0  0  0  0  0  0
   29.2064  -19.9902  -19.3420 S   0  0  0  0  0  0  0  0  0  0  0  0
   28.3114  -19.0187  -18.1128 C   0  0  0  0  0  0  0  0  0  0  0  0
   27.7769  -19.9150  -17.0435 C   0  0  0  0  0  0  0  0  0  0  0  0
   26.8397  -19.1947  -16.0932 C   0  0  2  0  0  0  0  0  0  0  0  0
   27.6307  -18.2395  -15.2950 N   0  0  0  0  0  0  0  0  0  0  0  0
   26.1698  -20.1038  -15.1667 C   0  0  0  0  0  0  0  0  0  0  0  0
   25.4231  -21.0341  -15.6288 O   0  0  0  0  0  0  0  0  0  0  0  0
   30.0087  -21.5696   -9.9263 C   0  0  0  0  0  0  0  0  0  0  0  0
   28.2762  -20.9680   -9.9664 S   0  0  0  0  0  0  0  0  0  0  0  0
   27.4990  -21.4987  -11.5302 C   0  0  0  0  0  0  0  0  0  0  0  0
   26.1060  -20.9649  -11.5369 C   0  0  0  0  0  0  0  0  0  0  0  0
   25.4754  -20.9326  -12.9215 C   0  0  2  0  0  0  0  0  0  0  0  0
   26.2810  -20.0425  -13.7305 N   0  0  0  0  0  0  0  0  0  0  0  0
   24.0925  -20.4725  -12.7217 C   0  0  0  0  0  0  0  0  0  0  0  0
   23.9635  -19.4234  -12.0150 O   0  0  0  0  0  0  0  0  0  0  0  0
   23.0285  -21.1811  -13.2976 N   0  0  0  0  0  0  0  0  0  0  0  0
   21.6887  -20.5858  -13.2365 C   0  0  1  0  0  0  0  0  0  0  0  0
   21.2643  -20.1647  -14.6343 C   0  0  0  0  0  0  0  0  0  0  0  0
   19.8429  -19.6963  -14.7081 C   0  0  0  0  0  0  0  0  0  0  0  0
   19.7397  -18.5718  -15.6936 C   0  0  0  0  0  0  0  0  0  0  0  0
   20.7078  -18.3182  -16.4344 O   0  0  0  0  0  0  0  0  0  0  0  0
   20.7410  -21.5043  -12.5825 C   0  0  0  0  0  0  0  0  0  0  0  0
   21.0057  -22.7320  -12.5893 O   0  0  0  0  0  0  0  0  0  0  0  0
   18.5869  -17.8228  -15.7821 O   0  0  0  0  0  0  0  0  0  0  0  0
   19.5747  -21.0973  -11.9595 O   0  0  0  0  0  0  0  0  0  0  0  0
  2  3  1  0
  2  1  1  0
  4  5  1  0
  4  3  1  0
  5  6  1  1
  7  8  2  0
  7  5  1  0
 10  9  1  0
 11 12  1  0
 11 10  1  0
 13 12  1  1
 13 14  1  0
 14  7  1  0
 15 13  1  0
 15 16  2  0
 17 15  1  0
 18 17  1  0
 18 19  1  6
 19 20  1  0
 20 21  1  0
 21 22  2  0
 23 18  1  0
 24 23  2  0
 25 21  1  0
 26 23  1  0
M  END
$$$$
