MME.pdb
     RDKit          3D

 26 25  0  0  1  0  0  0  0  0999 V2000
   27.4214  -16.0421  -16.3999 C   0  0  0  0  0  0  0  0  0  0  0  0
   28.5511  -17.3505  -15.8967 S   0  0  0  0  0  0  0  0  0  0  0  0
   27.8192  -18.9938  -16.0358 C   0  0  0  0  0  0  0  0  0  0  0  0
   26.7223  -19.1513  -15.0335 C   0  0  0  0  0  0  0  0  0  0  0  0
   26.1191  -20.5427  -15.0426 C   0  0  2  0  0  0  0  0  0  0  0  0
   25.5856  -20.8095  -16.3915 N   0  0  0  0  0  0  0  0  0  0  0  0
   25.0200  -20.6859  -14.0913 C   0  0  0  0  0  0  0  0  0  0  0  0
   25.2751  -20.7291  -12.8385 O   0  0  0  0  0  0  0  0  0  0  0  0
   21.9790  -20.4422   -8.6884 C   0  0  0  0  0  0  0  0  0  0  0  0
   21.6592  -20.4104  -10.4945 S   0  0  0  0  0  0  0  0  0  0  0  0
   22.9627  -19.4282  -11.3115 C   0  0  0  0  0  0  0  0  0  0  0  0
   22.6512  -19.4038  -12.7703 C   0  0  0  0  0  0  0  0  0  0  0  0
   22.6255  -20.7851  -13.4083 C   0  0  2  0  0  0  0  0  0  0  0  0
   23.6278  -20.7852  -14.4528 N   0  0  0  0  0  0  0  0  0  0  0  0
   21.2513  -20.9753  -13.8976 C   0  0  0  0  0  0  0  0  0  0  0  0
   20.8268  -20.0791  -14.6933 O   0  0  0  0  0  0  0  0  0  0  0  0
   20.5080  -22.0895  -13.4827 N   0  0  0  0  0  0  0  0  0  0  0  0
   19.2667  -22.3984  -14.2016 C   0  0  1  0  0  0  0  0  0  0  0  0
   18.8288  -23.8133  -13.8585 C   0  0  0  0  0  0  0  0  0  0  0  0
   17.5506  -24.2184  -14.5271 C   0  0  0  0  0  0  0  0  0  0  0  0
   17.1826  -25.6067  -14.0982 C   0  0  0  0  0  0  0  0  0  0  0  0
   17.9075  -26.2061  -13.2825 O   0  0  0  0  0  0  0  0  0  0  0  0
   18.2397  -21.3789  -13.9276 C   0  0  0  0  0  0  0  0  0  0  0  0
   18.2897  -20.7675  -12.8317 O   0  0  0  0  0  0  0  0  0  0  0  0
   16.0544  -26.2177  -14.5998 O   0  0  0  0  0  0  0  0  0  0  0  0
   17.2212  -21.0520  -14.8050 O   0  0  0  0  0  0  0  0  0  0  0  0
  2  3  1  0
  2  1  1  0
  4  5  1  0
  4  3  1  0
  5  6  1  6
  7  8  2  0
  7  5  1  0
 10  9  1  0
 11 12  1  0
 11 10  1  0
 13 12  1  6
 13 14  1  0
 14  7  1  0
 15 13  1  0
 15 16  2  0
 17 15  1  0
 18 17  1  0
 18 19  1  1
 19 20  1  0
 20 21  1  0
 21 22  2  0
 23 18  1  0
 24 23  2  0
 25 21  1  0
 26 23  1  0
M  END
$$$$
