MME.pdb
     RDKit          3D

 26 25  0  0  1  0  0  0  0  0999 V2000
   24.1455  -18.8402  -16.0323 C   0  0  0  0  0  0  0  0  0  0  0  0
   25.8670  -18.5300  -16.4583 S   0  0  0  0  0  0  0  0  0  0  0  0
   27.0117  -19.5755  -15.5351 C   0  0  0  0  0  0  0  0  0  0  0  0
   26.3691  -20.0444  -14.2704 C   0  0  0  0  0  0  0  0  0  0  0  0
   27.2796  -20.9375  -13.4498 C   0  0  2  0  0  0  0  0  0  0  0  0
   27.4021  -22.2357  -14.1390 N   0  0  0  0  0  0  0  0  0  0  0  0
   26.7594  -21.1914  -12.1087 C   0  0  0  0  0  0  0  0  0  0  0  0
   25.8317  -22.0576  -11.9482 O   0  0  0  0  0  0  0  0  0  0  0  0
   27.1408  -19.5845   -4.3457 C   0  0  0  0  0  0  0  0  0  0  0  0
   27.7408  -19.2739   -6.0512 S   0  0  0  0  0  0  0  0  0  0  0  0
   26.6467  -20.1343   -7.2318 C   0  0  0  0  0  0  0  0  0  0  0  0
   27.2818  -20.0357   -8.5781 C   0  0  0  0  0  0  0  0  0  0  0  0
   26.4817  -20.7186   -9.6778 C   0  0  2  0  0  0  0  0  0  0  0  0
   27.2154  -20.5301  -10.9114 N   0  0  0  0  0  0  0  0  0  0  0  0
   25.1569  -20.0791   -9.6658 C   0  0  0  0  0  0  0  0  0  0  0  0
   25.1143  -18.9037  -10.1486 O   0  0  0  0  0  0  0  0  0  0  0  0
   24.0514  -20.7681   -9.1470 N   0  0  0  0  0  0  0  0  0  0  0  0
   22.7218  -20.4351   -9.6711 C   0  0  1  0  0  0  0  0  0  0  0  0
   22.6441  -20.8431  -11.1336 C   0  0  0  0  0  0  0  0  0  0  0  0
   21.3105  -20.5658  -11.7579 C   0  0  0  0  0  0  0  0  0  0  0  0
   21.4478  -20.5751  -13.2504 C   0  0  0  0  0  0  0  0  0  0  0  0
   22.3313  -21.2760  -13.7780 O   0  0  0  0  0  0  0  0  0  0  0  0
   21.6681  -21.0332   -8.8337 C   0  0  0  0  0  0  0  0  0  0  0  0
   21.9879  -21.9663   -8.0562 O   0  0  0  0  0  0  0  0  0  0  0  0
   20.6070  -19.8164  -14.0349 O   0  0  0  0  0  0  0  0  0  0  0  0
   20.3450  -20.6296   -8.8502 O   0  0  0  0  0  0  0  0  0  0  0  0
  2  3  1  0
  2  1  1  0
  4  5  1  0
  4  3  1  0
  5  6  1  6
  7  8  2  0
  7  5  1  0
 10  9  1  0
 11 12  1  0
 11 10  1  0
 13 12  1  1
 13 14  1  0
 14  7  1  0
 15 13  1  0
 15 16  2  0
 17 15  1  0
 18 17  1  0
 18 19  1  6
 19 20  1  0
 20 21  1  0
 21 22  2  0
 23 18  1  0
 24 23  2  0
 25 21  1  0
 26 23  1  0
M  END
$$$$
