FSG.pdb
     RDKit          3D

 22 22  0  0  1  0  0  0  0  0999 V2000
   12.5247  -20.8326    2.4652 N   0  0  0  0  0  0  0  0  0  0  0  0
   13.8139  -21.1981    1.9280 C   0  0  1  0  0  0  0  0  0  0  0  0
   14.6524  -21.7622    3.0826 C   0  0  0  0  0  0  0  0  0  0  0  0
   14.9621  -20.6284    3.9725 C   0  0  0  0  0  0  0  0  0  0  0  0
   14.1873  -20.4040    5.0866 C   0  0  0  0  0  0  0  0  0  0  0  0
   14.4740  -19.3487    5.9165 C   0  0  0  0  0  0  0  0  0  0  0  0
   15.5442  -18.5226    5.6176 C   0  0  0  0  0  0  0  0  0  0  0  0
   16.3356  -18.7211    4.5131 C   0  0  0  0  0  0  0  0  0  0  0  0
   16.0250  -19.7868    3.6985 C   0  0  0  0  0  0  0  0  0  0  0  0
   13.6431  -22.2682    0.9451 C   0  0  0  0  0  0  0  0  0  0  0  0
   12.7773  -23.1640    1.1311 O   0  0  0  0  0  0  0  0  0  0  0  0
   16.0619  -22.4197   -2.3543 O   0  0  0  0  0  0  0  0  0  0  0  0
   14.7646  -22.8765   -2.5112 C   0  0  0  0  0  0  0  0  0  0  0  0
   14.1711  -23.3499   -1.1999 C   0  0  2  0  0  0  0  0  0  0  0  0
   14.4297  -22.3266   -0.2197 N   0  0  0  0  0  0  0  0  0  0  0  0
   14.7578  -24.6100   -0.7345 C   0  0  0  0  0  0  0  0  0  0  0  0
   15.4951  -24.6070    0.2817 O   0  0  0  0  0  0  0  0  0  0  0  0
   14.5171  -25.8386   -1.3999 N   0  0  0  0  0  0  0  0  0  0  0  0
   15.2814  -26.9889   -1.0206 C   0  0  0  0  0  0  0  0  0  0  0  0
   14.5392  -27.8343   -0.0535 C   0  0  0  0  0  0  0  0  0  0  0  0
   13.3850  -27.4205    0.5543 O   0  0  0  0  0  0  0  0  0  0  0  0
   14.9785  -28.9784    0.2268 O   0  0  0  0  0  0  0  0  0  0  0  0
  2  1  1  1
  2 10  1  0
  3  2  1  0
  4  3  1  0
  4  5  2  0
  6  5  1  0
  7  6  2  0
  8  9  2  0
  8  7  1  0
  9  4  1  0
 10 15  1  0
 10 11  2  0
 12 13  1  0
 14 13  1  6
 14 16  1  0
 15 14  1  0
 16 17  2  0
 16 18  1  0
 18 19  1  0
 19 20  1  0
 20 21  1  0
 22 20  2  0
M  END
$$$$
