FSG.pdb
     RDKit          3D

 22 22  0  0  1  0  0  0  0  0999 V2000
   25.1602  -35.0921  -12.1671 N   0  0  0  0  0  0  0  0  0  0  0  0
   25.7996  -34.2151  -11.2151 C   0  0  1  0  0  0  0  0  0  0  0  0
   25.2728  -32.7963  -11.4676 C   0  0  0  0  0  0  0  0  0  0  0  0
   25.8993  -32.3299  -12.7180 C   0  0  0  0  0  0  0  0  0  0  0  0
   25.1287  -32.1576  -13.8443 C   0  0  0  0  0  0  0  0  0  0  0  0
   25.7101  -31.7234  -15.0096 C   0  0  0  0  0  0  0  0  0  0  0  0
   27.0701  -31.4643  -15.0331 C   0  0  0  0  0  0  0  0  0  0  0  0
   27.8651  -31.6269  -13.9254 C   0  0  0  0  0  0  0  0  0  0  0  0
   27.2555  -32.0634  -12.7705 C   0  0  0  0  0  0  0  0  0  0  0  0
   25.4004  -34.5976   -9.8605 C   0  0  0  0  0  0  0  0  0  0  0  0
   24.2673  -35.1086   -9.6568 O   0  0  0  0  0  0  0  0  0  0  0  0
   28.1029  -35.5891   -6.9558 O   0  0  0  0  0  0  0  0  0  0  0  0
   26.7951  -36.0210   -7.0956 C   0  0  0  0  0  0  0  0  0  0  0  0
   25.8622  -34.8846   -7.4617 C   0  0  2  0  0  0  0  0  0  0  0  0
   26.2585  -34.4083   -8.7620 N   0  0  0  0  0  0  0  0  0  0  0  0
   25.9249  -33.7711   -6.5105 C   0  0  0  0  0  0  0  0  0  0  0  0
   26.7547  -32.8478   -6.6982 O   0  0  0  0  0  0  0  0  0  0  0  0
   25.0731  -33.7041   -5.3792 N   0  0  0  0  0  0  0  0  0  0  0  0
   25.2088  -32.5983   -4.4791 C   0  0  0  0  0  0  0  0  0  0  0  0
   26.1814  -32.8979   -3.3998 C   0  0  0  0  0  0  0  0  0  0  0  0
   26.5667  -31.9664   -2.4743 O   0  0  0  0  0  0  0  0  0  0  0  0
   26.6783  -34.0501   -3.3222 O   0  0  0  0  0  0  0  0  0  0  0  0
  2  1  1  6
  2 10  1  0
  3  2  1  0
  4  3  1  0
  4  5  2  0
  6  5  1  0
  7  6  2  0
  8  9  2  0
  8  7  1  0
  9  4  1  0
 10 15  1  0
 10 11  2  0
 12 13  1  0
 14 13  1  1
 14 16  1  0
 15 14  1  0
 16 17  2  0
 16 18  1  0
 18 19  1  0
 19 20  1  0
 20 21  1  0
 22 20  2  0
M  END
$$$$
