FSG.pdb
     RDKit          3D

 22 22  0  0  1  0  0  0  0  0999 V2000
   24.7232   -8.2129  -18.8232 N   0  0  0  0  0  0  0  0  0  0  0  0
   23.9246   -8.3061  -17.6241 C   0  0  1  0  0  0  0  0  0  0  0  0
   24.7788   -7.7895  -16.4589 C   0  0  0  0  0  0  0  0  0  0  0  0
   25.6781   -8.8923  -16.0734 C   0  0  0  0  0  0  0  0  0  0  0  0
   25.2170   -9.8923  -15.2493 C   0  0  0  0  0  0  0  0  0  0  0  0
   26.0528  -10.9201  -14.8892 C   0  0  0  0  0  0  0  0  0  0  0  0
   27.3535  -10.9340  -15.3636 C   0  0  0  0  0  0  0  0  0  0  0  0
   27.8424   -9.9502  -16.1875 C   0  0  0  0  0  0  0  0  0  0  0  0
   26.9823   -8.9319  -16.5324 C   0  0  0  0  0  0  0  0  0  0  0  0
   22.7651   -7.4221  -17.7447 C   0  0  0  0  0  0  0  0  0  0  0  0
   22.8768   -6.3099  -18.3253 O   0  0  0  0  0  0  0  0  0  0  0  0
   18.0351   -7.3102  -18.1270 O   0  0  0  0  0  0  0  0  0  0  0  0
   19.1929   -7.9624  -17.7391 C   0  0  0  0  0  0  0  0  0  0  0  0
   20.3490   -6.9997  -17.5594 C   0  0  2  0  0  0  0  0  0  0  0  0
   21.5097   -7.7838  -17.2232 N   0  0  0  0  0  0  0  0  0  0  0  0
   20.1125   -6.0230  -16.4922 C   0  0  0  0  0  0  0  0  0  0  0  0
   20.4127   -6.3193  -15.3096 O   0  0  0  0  0  0  0  0  0  0  0  0
   19.5524   -4.7476  -16.7555 N   0  0  0  0  0  0  0  0  0  0  0  0
   19.3873   -3.8298  -15.6685 C   0  0  0  0  0  0  0  0  0  0  0  0
   17.9635   -3.7209  -15.2663 C   0  0  0  0  0  0  0  0  0  0  0  0
   17.5423   -2.8947  -14.2599 O   0  0  0  0  0  0  0  0  0  0  0  0
   17.1004   -4.4101  -15.8668 O   0  0  0  0  0  0  0  0  0  0  0  0
  2  1  1  6
  2 10  1  0
  3  2  1  0
  4  3  1  0
  4  5  2  0
  6  5  1  0
  7  6  2  0
  8  9  2  0
  8  7  1  0
  9  4  1  0
 10 15  1  0
 10 11  2  0
 12 13  1  0
 14 13  1  1
 14 16  1  0
 15 14  1  0
 16 17  2  0
 16 18  1  0
 18 19  1  0
 19 20  1  0
 20 21  1  0
 22 20  2  0
M  END
$$$$
