FSG.pdb
     RDKit          3D

 22 22  0  0  1  0  0  0  0  0999 V2000
   26.6038  -21.5112  -14.1724 N   0  0  0  0  0  0  0  0  0  0  0  0
   26.3214  -21.4190  -12.7596 C   0  0  1  0  0  0  0  0  0  0  0  0
   26.9176  -20.0985  -12.2545 C   0  0  0  0  0  0  0  0  0  0  0  0
   28.3414  -20.3583  -11.9738 C   0  0  0  0  0  0  0  0  0  0  0  0
   29.3037  -19.8909  -12.8384 C   0  0  0  0  0  0  0  0  0  0  0  0
   30.6300  -20.1318  -12.5788 C   0  0  0  0  0  0  0  0  0  0  0  0
   30.9801  -20.8452  -11.4449 C   0  0  0  0  0  0  0  0  0  0  0  0
   30.0426  -21.3245  -10.5635 C   0  0  0  0  0  0  0  0  0  0  0  0
   28.7202  -21.0681  -10.8488 C   0  0  0  0  0  0  0  0  0  0  0  0
   24.8737  -21.3529  -12.5586 C   0  0  0  0  0  0  0  0  0  0  0  0
   24.0928  -21.5187  -13.5329 O   0  0  0  0  0  0  0  0  0  0  0  0
   23.0261  -19.7975   -9.1726 O   0  0  0  0  0  0  0  0  0  0  0  0
   22.6233  -21.0436   -9.6211 C   0  0  0  0  0  0  0  0  0  0  0  0
   22.8972  -21.2261  -11.1001 C   0  0  2  0  0  0  0  0  0  0  0  0
   24.3201  -21.1058  -11.2892 N   0  0  0  0  0  0  0  0  0  0  0  0
   22.2231  -20.2228  -11.9293 C   0  0  0  0  0  0  0  0  0  0  0  0
   22.8678  -19.2233  -12.3314 O   0  0  0  0  0  0  0  0  0  0  0  0
   20.8585  -20.3467  -12.2932 N   0  0  0  0  0  0  0  0  0  0  0  0
   20.2636  -19.3207  -13.0959 C   0  0  0  0  0  0  0  0  0  0  0  0
   20.0284  -19.7900  -14.4835 C   0  0  0  0  0  0  0  0  0  0  0  0
   21.0148  -19.8128  -15.4317 O   0  0  0  0  0  0  0  0  0  0  0  0
   18.8812  -20.1849  -14.8130 O   0  0  0  0  0  0  0  0  0  0  0  0
  2  1  1  6
  2 10  1  0
  3  2  1  0
  4  3  1  0
  4  5  2  0
  6  5  1  0
  7  6  2  0
  8  9  2  0
  8  7  1  0
  9  4  1  0
 10 15  1  0
 10 11  2  0
 12 13  1  0
 14 13  1  1
 14 16  1  0
 15 14  1  0
 16 17  2  0
 16 18  1  0
 18 19  1  0
 19 20  1  0
 20 21  1  0
 22 20  2  0
M  END
$$$$
