FSG.pdb
     RDKit          3D

 22 22  0  0  1  0  0  0  0  0999 V2000
   25.2702  -34.7739    2.9851 N   0  0  0  0  0  0  0  0  0  0  0  0
   26.2653  -33.9254    2.3735 C   0  0  1  0  0  0  0  0  0  0  0  0
   26.8244  -33.0065    3.4677 C   0  0  0  0  0  0  0  0  0  0  0  0
   25.7501  -32.0572    3.8113 C   0  0  0  0  0  0  0  0  0  0  0  0
   24.9006  -32.3370    4.8562 C   0  0  0  0  0  0  0  0  0  0  0  0
   23.8996  -31.4543    5.1777 C   0  0  0  0  0  0  0  0  0  0  0  0
   23.7600  -30.2901    4.4412 C   0  0  0  0  0  0  0  0  0  0  0  0
   24.5922  -29.9833    3.3930 C   0  0  0  0  0  0  0  0  0  0  0  0
   25.5872  -30.8865    3.0928 C   0  0  0  0  0  0  0  0  0  0  0  0
   27.3706  -34.7500    1.8849 C   0  0  0  0  0  0  0  0  0  0  0  0
   27.7704  -35.7348    2.5609 O   0  0  0  0  0  0  0  0  0  0  0  0
   28.3380  -34.3454   -1.8982 O   0  0  0  0  0  0  0  0  0  0  0  0
   29.4115  -34.8897   -1.2143 C   0  0  0  0  0  0  0  0  0  0  0  0
   29.0138  -35.3754    0.1647 C   0  0  2  0  0  0  0  0  0  0  0  0
   28.0097  -34.4708    0.6633 N   0  0  0  0  0  0  0  0  0  0  0  0
   30.1389  -35.3976    1.1040 C   0  0  0  0  0  0  0  0  0  0  0  0
   30.2654  -34.4646    1.9346 O   0  0  0  0  0  0  0  0  0  0  0  0
   31.0938  -36.4455    1.1035 N   0  0  0  0  0  0  0  0  0  0  0  0
   30.6891  -37.7466    1.5448 C   0  0  0  0  0  0  0  0  0  0  0  0
   31.8264  -38.6992    1.5289 C   0  0  0  0  0  0  0  0  0  0  0  0
   31.7813  -39.9125    2.1601 O   0  0  0  0  0  0  0  0  0  0  0  0
   32.8786  -38.3904    0.9142 O   0  0  0  0  0  0  0  0  0  0  0  0
  2  1  1  1
  2 10  1  0
  3  2  1  0
  4  3  1  0
  4  5  2  0
  6  5  1  0
  7  6  2  0
  8  9  2  0
  8  7  1  0
  9  4  1  0
 10 15  1  0
 10 11  2  0
 12 13  1  0
 14 13  1  6
 14 16  1  0
 15 14  1  0
 16 17  2  0
 16 18  1  0
 18 19  1  0
 19 20  1  0
 20 21  1  0
 22 20  2  0
M  END
$$$$
