FSG.pdb
     RDKit          3D

 22 22  0  0  1  0  0  0  0  0999 V2000
   25.4043   -9.6314  -18.0086 N   0  0  0  0  0  0  0  0  0  0  0  0
   24.8334   -9.9030  -16.7106 C   0  0  1  0  0  0  0  0  0  0  0  0
   25.9445   -9.7162  -15.6690 C   0  0  0  0  0  0  0  0  0  0  0  0
   26.8684  -10.8540  -15.8287 C   0  0  0  0  0  0  0  0  0  0  0  0
   28.0679  -10.6731  -16.4770 C   0  0  0  0  0  0  0  0  0  0  0  0
   28.9296  -11.7312  -16.6267 C   0  0  0  0  0  0  0  0  0  0  0  0
   28.5758  -12.9704  -16.1202 C   0  0  0  0  0  0  0  0  0  0  0  0
   27.3857  -13.1819  -15.4686 C   0  0  0  0  0  0  0  0  0  0  0  0
   26.5411  -12.1030  -15.3329 C   0  0  0  0  0  0  0  0  0  0  0  0
   23.7917   -8.9166  -16.4239 C   0  0  0  0  0  0  0  0  0  0  0  0
   23.7937   -7.8055  -17.0174 O   0  0  0  0  0  0  0  0  0  0  0  0
   20.0716  -10.0891  -15.5891 O   0  0  0  0  0  0  0  0  0  0  0  0
   20.5056   -9.0583  -14.7734 C   0  0  0  0  0  0  0  0  0  0  0  0
   21.6457   -8.2835  -15.4023 C   0  0  2  0  0  0  0  0  0  0  0  0
   22.7722   -9.1769  -15.4903 N   0  0  0  0  0  0  0  0  0  0  0  0
   22.0338   -7.1086  -14.6164 C   0  0  0  0  0  0  0  0  0  0  0  0
   22.8309   -7.2467  -13.6562 O   0  0  0  0  0  0  0  0  0  0  0  0
   21.5342   -5.8144  -14.9083 N   0  0  0  0  0  0  0  0  0  0  0  0
   22.0111   -4.7026  -14.1417 C   0  0  0  0  0  0  0  0  0  0  0  0
   21.3723   -3.4355  -14.5746 C   0  0  0  0  0  0  0  0  0  0  0  0
   21.6100   -2.2396  -13.9533 O   0  0  0  0  0  0  0  0  0  0  0  0
   20.5791   -3.4486  -15.5499 O   0  0  0  0  0  0  0  0  0  0  0  0
  2  1  1  6
  2 10  1  0
  3  2  1  0
  4  3  1  0
  4  5  2  0
  6  5  1  0
  7  6  2  0
  8  9  2  0
  8  7  1  0
  9  4  1  0
 10 15  1  0
 10 11  2  0
 12 13  1  0
 14 13  1  1
 14 16  1  0
 15 14  1  0
 16 17  2  0
 16 18  1  0
 18 19  1  0
 19 20  1  0
 20 21  1  0
 22 20  2  0
M  END
$$$$
