FSG.pdb
     RDKit          3D

 22 22  0  0  1  0  0  0  0  0999 V2000
   23.9823   -8.1540  -19.3708 N   0  0  0  0  0  0  0  0  0  0  0  0
   23.9893   -7.9372  -17.9434 C   0  0  1  0  0  0  0  0  0  0  0  0
   25.0101   -6.8300  -17.6494 C   0  0  0  0  0  0  0  0  0  0  0  0
   26.3299   -7.3582  -18.0399 C   0  0  0  0  0  0  0  0  0  0  0  0
   26.9164   -6.9328  -19.2091 C   0  0  0  0  0  0  0  0  0  0  0  0
   28.1453   -7.4235  -19.5745 C   0  0  0  0  0  0  0  0  0  0  0  0
   28.7785   -8.3437  -18.7562 C   0  0  0  0  0  0  0  0  0  0  0  0
   28.2184   -8.7872  -17.5835 C   0  0  0  0  0  0  0  0  0  0  0  0
   26.9854   -8.2783  -17.2419 C   0  0  0  0  0  0  0  0  0  0  0  0
   22.6766   -7.4482  -17.5216 C   0  0  0  0  0  0  0  0  0  0  0  0
   21.9230   -6.8691  -18.3483 O   0  0  0  0  0  0  0  0  0  0  0  0
   21.3910   -7.4986  -13.5240 O   0  0  0  0  0  0  0  0  0  0  0  0
   20.5378   -7.8861  -14.5429 C   0  0  0  0  0  0  0  0  0  0  0  0
   20.8833   -7.2115  -15.8548 C   0  0  2  0  0  0  0  0  0  0  0  0
   22.2246   -7.6082  -16.1992 N   0  0  0  0  0  0  0  0  0  0  0  0
   20.8292   -5.7490  -15.7714 C   0  0  0  0  0  0  0  0  0  0  0  0
   21.8651   -5.1119  -15.4593 O   0  0  0  0  0  0  0  0  0  0  0  0
   19.6371   -5.0279  -16.0337 N   0  0  0  0  0  0  0  0  0  0  0  0
   19.6349   -3.6083  -15.8448 C   0  0  0  0  0  0  0  0  0  0  0  0
   19.9327   -2.8954  -17.1113 C   0  0  0  0  0  0  0  0  0  0  0  0
   19.7498   -1.5473  -17.2597 O   0  0  0  0  0  0  0  0  0  0  0  0
   20.3710   -3.5451  -18.0943 O   0  0  0  0  0  0  0  0  0  0  0  0
  2  1  1  6
  2 10  1  0
  3  2  1  0
  4  3  1  0
  4  5  2  0
  6  5  1  0
  7  6  2  0
  8  9  2  0
  8  7  1  0
  9  4  1  0
 10 15  1  0
 10 11  2  0
 12 13  1  0
 14 13  1  1
 14 16  1  0
 15 14  1  0
 16 17  2  0
 16 18  1  0
 18 19  1  0
 19 20  1  0
 20 21  1  0
 22 20  2  0
M  END
$$$$
