FSG.pdb
     RDKit          3D

 22 22  0  0  1  0  0  0  0  0999 V2000
   28.7419  -21.0015   -8.8919 N   0  0  0  0  0  0  0  0  0  0  0  0
   27.3428  -20.6727   -8.7549 C   0  0  1  0  0  0  0  0  0  0  0  0
   27.2535  -19.3357   -8.0073 C   0  0  0  0  0  0  0  0  0  0  0  0
   27.6752  -19.5993   -6.6194 C   0  0  0  0  0  0  0  0  0  0  0  0
   28.7321  -18.9013   -6.0832 C   0  0  0  0  0  0  0  0  0  0  0  0
   29.1263  -19.1452   -4.7910 C   0  0  0  0  0  0  0  0  0  0  0  0
   28.4502  -20.0949   -4.0440 C   0  0  0  0  0  0  0  0  0  0  0  0
   27.3918  -20.8075   -4.5515 C   0  0  0  0  0  0  0  0  0  0  0  0
   27.0182  -20.5423   -5.8499 C   0  0  0  0  0  0  0  0  0  0  0  0
   26.7599  -20.4740  -10.0820 C   0  0  0  0  0  0  0  0  0  0  0  0
   27.3846  -19.8131  -10.9535 O   0  0  0  0  0  0  0  0  0  0  0  0
   24.6829  -23.0636  -12.0145 O   0  0  0  0  0  0  0  0  0  0  0  0
   25.1346  -21.8921  -12.5973 C   0  0  0  0  0  0  0  0  0  0  0  0
   24.9170  -20.6936  -11.6961 C   0  0  2  0  0  0  0  0  0  0  0  0
   25.5026  -21.0079  -10.4182 N   0  0  0  0  0  0  0  0  0  0  0  0
   23.4982  -20.3806  -11.5023 C   0  0  0  0  0  0  0  0  0  0  0  0
   22.9510  -20.6585  -10.4070 O   0  0  0  0  0  0  0  0  0  0  0  0
   22.7206  -19.7705  -12.5187 N   0  0  0  0  0  0  0  0  0  0  0  0
   21.3450  -19.4757  -12.2505 C   0  0  0  0  0  0  0  0  0  0  0  0
   20.4488  -20.4991  -12.8423 C   0  0  0  0  0  0  0  0  0  0  0  0
   19.0861  -20.4386  -12.7329 O   0  0  0  0  0  0  0  0  0  0  0  0
   20.9498  -21.4651  -13.4719 O   0  0  0  0  0  0  0  0  0  0  0  0
  2  1  1  6
  2 10  1  0
  3  2  1  0
  4  3  1  0
  4  5  2  0
  6  5  1  0
  7  6  2  0
  8  9  2  0
  8  7  1  0
  9  4  1  0
 10 15  1  0
 10 11  2  0
 12 13  1  0
 14 13  1  6
 14 16  1  0
 15 14  1  0
 16 17  2  0
 16 18  1  0
 18 19  1  0
 19 20  1  0
 20 21  1  0
 22 20  2  0
M  END
$$$$
