FSG.pdb
     RDKit          3D

 22 22  0  0  1  0  0  0  0  0999 V2000
   20.2578  -11.7248  -18.7331 N   0  0  0  0  0  0  0  0  0  0  0  0
   21.3576  -10.8835  -18.3246 C   0  0  1  0  0  0  0  0  0  0  0  0
   21.6777   -9.9420  -19.4931 C   0  0  0  0  0  0  0  0  0  0  0  0
   22.2462  -10.7786  -20.5657 C   0  0  0  0  0  0  0  0  0  0  0  0
   21.5365  -10.9735  -21.7277 C   0  0  0  0  0  0  0  0  0  0  0  0
   22.0641  -11.7522  -22.7276 C   0  0  0  0  0  0  0  0  0  0  0  0
   23.3088  -12.3321  -22.5499 C   0  0  0  0  0  0  0  0  0  0  0  0
   24.0408  -12.1560  -21.4016 C   0  0  0  0  0  0  0  0  0  0  0  0
   23.4873  -11.3703  -20.4155 C   0  0  0  0  0  0  0  0  0  0  0  0
   20.9391  -10.0545  -17.1941 C   0  0  0  0  0  0  0  0  0  0  0  0
   19.7185   -9.7992  -17.0161 O   0  0  0  0  0  0  0  0  0  0  0  0
   21.7584  -10.6992  -13.6408 O   0  0  0  0  0  0  0  0  0  0  0  0
   22.1586   -9.4051  -13.9260 C   0  0  0  0  0  0  0  0  0  0  0  0
   21.4103   -8.8321  -15.1124 C   0  0  2  0  0  0  0  0  0  0  0  0
   21.8746   -9.5261  -16.2862 N   0  0  0  0  0  0  0  0  0  0  0  0
   21.6429   -7.3957  -15.2890 C   0  0  0  0  0  0  0  0  0  0  0  0
   22.5832   -7.0109  -16.0266 O   0  0  0  0  0  0  0  0  0  0  0  0
   20.8347   -6.4223  -14.6493 N   0  0  0  0  0  0  0  0  0  0  0  0
   21.0609   -5.0387  -14.9418 C   0  0  0  0  0  0  0  0  0  0  0  0
   22.0595   -4.4483  -14.0170 C   0  0  0  0  0  0  0  0  0  0  0  0
   22.4478   -3.1380  -14.0893 O   0  0  0  0  0  0  0  0  0  0  0  0
   22.5763   -5.1707  -13.1274 O   0  0  0  0  0  0  0  0  0  0  0  0
  2  1  1  6
  2 10  1  0
  3  2  1  0
  4  3  1  0
  4  5  2  0
  6  5  1  0
  7  6  2  0
  8  9  2  0
  8  7  1  0
  9  4  1  0
 10 15  1  0
 10 11  2  0
 12 13  1  0
 14 13  1  1
 14 16  1  0
 15 14  1  0
 16 17  2  0
 16 18  1  0
 18 19  1  0
 19 20  1  0
 20 21  1  0
 22 20  2  0
M  END
$$$$
