DHH.pdb
     RDKit          3D

 29 30  0  0  1  0  0  0  0  0999 V2000
   13.5194  -13.9755   17.4254 N   0  0  0  0  0  0  0  0  0  0  0  0
   13.0651  -15.2172   18.0574 C   0  0  1  0  0  0  0  0  0  0  0  0
   14.3137  -16.0177   18.3730 C   0  0  0  0  0  0  0  0  0  0  0  0
   14.7072  -16.7359   17.1384 C   0  0  0  0  0  0  0  0  0  0  0  0
   14.6894  -16.2050   16.0005 O   0  0  0  0  0  0  0  0  0  0  0  0
   12.3301  -14.8424   19.2871 C   0  0  0  0  0  0  0  0  0  0  0  0
   12.7655  -13.9837   20.0954 O   0  0  0  0  0  0  0  0  0  0  0  0
   15.1239  -18.0657   17.1936 O   0  0  0  0  0  0  0  0  0  0  0  0
   11.1014  -15.4592   19.5734 N   0  0  0  0  0  0  0  0  0  0  0  0
   10.2971  -15.2177   20.7551 C   0  0  1  0  0  0  0  0  0  0  0  0
    8.8623  -15.4342   20.3661 C   0  0  0  0  0  0  0  0  0  0  0  0
    8.4511  -14.4092   19.3730 C   0  0  0  0  0  0  0  0  0  0  0  0
    8.2050  -13.0517   19.6127 C   0  0  0  0  0  0  0  0  0  0  0  0
    7.8587  -12.4513   18.4745 N   0  0  0  0  0  0  0  0  0  0  0  0
    7.8712  -13.3744   17.5012 C   0  0  0  0  0  0  0  0  0  0  0  0
    8.2272  -14.5479   18.0455 N   0  0  0  0  0  0  0  0  0  0  0  0
   10.7684  -16.0921   21.8219 C   0  0  0  0  0  0  0  0  0  0  0  0
   11.0306  -17.2931   21.5501 O   0  0  0  0  0  0  0  0  0  0  0  0
   10.9395  -15.6071   23.1819 N   0  0  0  0  0  0  0  0  0  0  0  0
   11.3917  -16.5330   24.1891 C   0  0  1  0  0  0  0  0  0  0  0  0
   12.7400  -16.2279   24.7339 C   0  0  0  0  0  0  0  0  0  0  0  0
   13.8681  -16.2827   23.8248 C   0  0  0  0  0  0  0  0  0  0  0  0
   13.9222  -16.5478   22.4853 C   0  0  0  0  0  0  0  0  0  0  0  0
   15.2082  -16.4613   22.0500 N   0  0  0  0  0  0  0  0  0  0  0  0
   15.9223  -16.1425   23.1362 C   0  0  0  0  0  0  0  0  0  0  0  0
   15.1469  -16.0309   24.2052 N   0  0  0  0  0  0  0  0  0  0  0  0
   10.3511  -16.7010   25.2210 C   0  0  0  0  0  0  0  0  0  0  0  0
   10.4418  -17.5627   26.2869 O   0  0  0  0  0  0  0  0  0  0  0  0
    9.3101  -16.0101   25.1195 O   0  0  0  0  0  0  0  0  0  0  0  0
  2  1  1  1
  3  4  1  0
  3  2  1  0
  4  5  2  0
  6  2  1  0
  6  7  2  0
  8  4  1  0
  9  6  1  0
 10  9  1  0
 10 11  1  6
 11 12  1  0
 12 16  1  0
 12 13  2  0
 13 14  1  0
 15 14  1  0
 16 15  2  0
 17 10  1  0
 18 17  2  0
 19 17  1  0
 20 21  1  1
 20 19  1  0
 21 22  1  0
 22 23  2  0
 22 26  1  0
 23 24  1  0
 24 25  1  0
 26 25  2  0
 27 28  1  0
 27 20  1  0
 29 27  2  0
M  END
$$$$
