DHH.pdb
     RDKit          3D

 29 30  0  0  1  0  0  0  0  0999 V2000
   11.4186  -18.2130   14.2515 N   0  0  0  0  0  0  0  0  0  0  0  0
   11.5994  -17.3561   15.4264 C   0  0  1  0  0  0  0  0  0  0  0  0
   10.3968  -17.5949   16.3186 C   0  0  0  0  0  0  0  0  0  0  0  0
    9.2175  -17.0013   15.6464 C   0  0  0  0  0  0  0  0  0  0  0  0
    9.2614  -16.5090   14.4920 O   0  0  0  0  0  0  0  0  0  0  0  0
   12.8597  -17.7705   16.0843 C   0  0  0  0  0  0  0  0  0  0  0  0
   13.1268  -18.9745   16.3276 O   0  0  0  0  0  0  0  0  0  0  0  0
    7.9793  -16.9651   16.2871 O   0  0  0  0  0  0  0  0  0  0  0  0
   13.7995  -16.7951   16.4547 N   0  0  0  0  0  0  0  0  0  0  0  0
   15.0754  -17.0586   17.0907 C   0  0  1  0  0  0  0  0  0  0  0  0
   15.9598  -15.8756   16.8164 C   0  0  0  0  0  0  0  0  0  0  0  0
   16.5515  -15.9949   15.4593 C   0  0  0  0  0  0  0  0  0  0  0  0
   16.4483  -17.0843   14.5856 C   0  0  0  0  0  0  0  0  0  0  0  0
   17.1111  -16.8203   13.4600 N   0  0  0  0  0  0  0  0  0  0  0  0
   17.6428  -15.5938   13.5727 C   0  0  0  0  0  0  0  0  0  0  0  0
   17.3042  -15.1027   14.7746 N   0  0  0  0  0  0  0  0  0  0  0  0
   14.8418  -17.3183   18.5059 C   0  0  0  0  0  0  0  0  0  0  0  0
   13.8124  -16.8380   19.0486 O   0  0  0  0  0  0  0  0  0  0  0  0
   15.7678  -18.1143   19.2952 N   0  0  0  0  0  0  0  0  0  0  0  0
   15.3916  -18.4733   20.6389 C   0  0  1  0  0  0  0  0  0  0  0  0
   14.0024  -18.9852   20.7651 C   0  0  0  0  0  0  0  0  0  0  0  0
   13.5761  -19.4804   22.0593 C   0  0  0  0  0  0  0  0  0  0  0  0
   14.2226  -19.5024   23.2631 C   0  0  0  0  0  0  0  0  0  0  0  0
   13.4123  -20.0452   24.2115 N   0  0  0  0  0  0  0  0  0  0  0  0
   12.2780  -20.3470   23.5684 C   0  0  0  0  0  0  0  0  0  0  0  0
   12.3512  -20.0205   22.2860 N   0  0  0  0  0  0  0  0  0  0  0  0
   16.4137  -19.3594   21.2274 C   0  0  0  0  0  0  0  0  0  0  0  0
   17.5941  -19.7029   20.6147 O   0  0  0  0  0  0  0  0  0  0  0  0
   16.1909  -19.8333   22.3663 O   0  0  0  0  0  0  0  0  0  0  0  0
  2  1  1  6
  3  4  1  0
  3  2  1  0
  4  5  2  0
  6  2  1  0
  6  7  2  0
  8  4  1  0
  9  6  1  0
 10  9  1  0
 10 11  1  1
 11 12  1  0
 12 16  1  0
 12 13  2  0
 13 14  1  0
 15 14  1  0
 16 15  2  0
 17 10  1  0
 18 17  2  0
 19 17  1  0
 20 21  1  6
 20 19  1  0
 21 22  1  0
 22 23  2  0
 22 26  1  0
 23 24  1  0
 24 25  1  0
 26 25  2  0
 27 28  1  0
 27 20  1  0
 29 27  2  0
M  END
$$$$
