DHH.pdb
     RDKit          3D

 29 30  0  0  1  0  0  0  0  0999 V2000
    9.6334  -16.8634   16.2555 N   0  0  0  0  0  0  0  0  0  0  0  0
   10.8886  -16.1481   16.0099 C   0  0  1  0  0  0  0  0  0  0  0  0
   10.6365  -15.2375   14.8238 C   0  0  0  0  0  0  0  0  0  0  0  0
   10.3543  -16.0990   13.6520 C   0  0  0  0  0  0  0  0  0  0  0  0
   11.1299  -17.0080   13.2659 O   0  0  0  0  0  0  0  0  0  0  0  0
   11.2033  -15.3770   17.2344 C   0  0  0  0  0  0  0  0  0  0  0  0
   12.0556  -14.4531   17.2467 O   0  0  0  0  0  0  0  0  0  0  0  0
    9.1845  -15.9290   12.9119 O   0  0  0  0  0  0  0  0  0  0  0  0
   10.5335  -15.6769   18.4316 N   0  0  0  0  0  0  0  0  0  0  0  0
   10.7834  -15.0465   19.7130 C   0  0  1  0  0  0  0  0  0  0  0  0
    9.4916  -15.0736   20.4793 C   0  0  0  0  0  0  0  0  0  0  0  0
    8.5539  -14.0674   19.9187 C   0  0  0  0  0  0  0  0  0  0  0  0
    7.3356  -14.3150   19.2743 C   0  0  0  0  0  0  0  0  0  0  0  0
    6.7774  -13.1604   18.9121 N   0  0  0  0  0  0  0  0  0  0  0  0
    7.5932  -12.1686   19.3001 C   0  0  0  0  0  0  0  0  0  0  0  0
    8.6581  -12.7182   19.9036 N   0  0  0  0  0  0  0  0  0  0  0  0
   11.8834  -15.7456   20.3656 C   0  0  0  0  0  0  0  0  0  0  0  0
   11.9075  -17.0039   20.3312 O   0  0  0  0  0  0  0  0  0  0  0  0
   12.9436  -15.0229   21.0496 N   0  0  0  0  0  0  0  0  0  0  0  0
   14.0537  -15.7727   21.5803 C   0  0  1  0  0  0  0  0  0  0  0  0
   15.3855  -15.2728   21.1511 C   0  0  0  0  0  0  0  0  0  0  0  0
   15.6864  -15.2737   19.7328 C   0  0  0  0  0  0  0  0  0  0  0  0
   15.1819  -16.0325   18.7144 C   0  0  0  0  0  0  0  0  0  0  0  0
   15.7504  -15.6590   17.5362 N   0  0  0  0  0  0  0  0  0  0  0  0
   16.5968  -14.6727   17.8557 C   0  0  0  0  0  0  0  0  0  0  0  0
   16.5767  -14.4252   19.1576 N   0  0  0  0  0  0  0  0  0  0  0  0
   13.9094  -15.9186   23.0411 C   0  0  0  0  0  0  0  0  0  0  0  0
   14.7552  -16.6497   23.8391 O   0  0  0  0  0  0  0  0  0  0  0  0
   12.9477  -15.3354   23.5947 O   0  0  0  0  0  0  0  0  0  0  0  0
  2  1  1  1
  3  4  1  0
  3  2  1  0
  4  5  2  0
  6  2  1  0
  6  7  2  0
  8  4  1  0
  9  6  1  0
 10  9  1  0
 10 11  1  1
 11 12  1  0
 12 16  1  0
 12 13  2  0
 13 14  1  0
 15 14  1  0
 16 15  2  0
 17 10  1  0
 18 17  2  0
 19 17  1  0
 20 21  1  1
 20 19  1  0
 21 22  1  0
 22 23  2  0
 22 26  1  0
 23 24  1  0
 24 25  1  0
 26 25  2  0
 27 28  1  0
 27 20  1  0
 29 27  2  0
M  END
$$$$
