DHH.pdb
     RDKit          3D

 29 30  0  0  1  0  0  0  0  0999 V2000
   12.5868  -15.1944   17.8625 N   0  0  0  0  0  0  0  0  0  0  0  0
   13.1262  -15.2782   19.2224 C   0  0  1  0  0  0  0  0  0  0  0  0
   13.9480  -14.0216   19.4344 C   0  0  0  0  0  0  0  0  0  0  0  0
   15.2357  -14.2057   18.7255 C   0  0  0  0  0  0  0  0  0  0  0  0
   15.6193  -13.4563   17.7938 O   0  0  0  0  0  0  0  0  0  0  0  0
   11.9738  -15.3414   20.1504 C   0  0  0  0  0  0  0  0  0  0  0  0
   11.2467  -14.3440   20.3884 O   0  0  0  0  0  0  0  0  0  0  0  0
   16.0952  -15.2469   19.0749 O   0  0  0  0  0  0  0  0  0  0  0  0
   11.6699  -16.5519   20.7941 N   0  0  0  0  0  0  0  0  0  0  0  0
   10.5026  -16.7928   21.6194 C   0  0  1  0  0  0  0  0  0  0  0  0
   10.0221  -18.1826   21.3120 C   0  0  0  0  0  0  0  0  0  0  0  0
    9.1767  -18.1632   20.0910 C   0  0  0  0  0  0  0  0  0  0  0  0
    8.5881  -17.0443   19.4889 C   0  0  0  0  0  0  0  0  0  0  0  0
    7.9041  -17.4239   18.4100 N   0  0  0  0  0  0  0  0  0  0  0  0
    8.0283  -18.7543   18.2902 C   0  0  0  0  0  0  0  0  0  0  0  0
    8.7929  -19.1933   19.3016 N   0  0  0  0  0  0  0  0  0  0  0  0
   10.8699  -16.5792   23.0137 C   0  0  0  0  0  0  0  0  0  0  0  0
   12.0383  -16.8670   23.3838 O   0  0  0  0  0  0  0  0  0  0  0  0
    9.9201  -16.0450   23.9763 N   0  0  0  0  0  0  0  0  0  0  0  0
   10.3492  -15.8728   25.3409 C   0  0  1  0  0  0  0  0  0  0  0  0
    9.5149  -14.9262   26.1257 C   0  0  0  0  0  0  0  0  0  0  0  0
    9.7581  -14.8280   27.5516 C   0  0  0  0  0  0  0  0  0  0  0  0
   10.6470  -15.4883   28.3524 C   0  0  0  0  0  0  0  0  0  0  0  0
   10.5309  -15.0448   29.6333 N   0  0  0  0  0  0  0  0  0  0  0  0
    9.5685  -14.1155   29.5936 C   0  0  0  0  0  0  0  0  0  0  0  0
    9.0928  -13.9686   28.3653 N   0  0  0  0  0  0  0  0  0  0  0  0
   10.5274  -17.1894   25.9818 C   0  0  0  0  0  0  0  0  0  0  0  0
   11.5416  -17.5011   26.8543 O   0  0  0  0  0  0  0  0  0  0  0  0
    9.6962  -18.0882   25.7123 O   0  0  0  0  0  0  0  0  0  0  0  0
  2  1  1  6
  3  4  1  0
  3  2  1  0
  4  5  2  0
  6  2  1  0
  6  7  2  0
  8  4  1  0
  9  6  1  0
 10  9  1  0
 10 11  1  1
 11 12  1  0
 12 16  1  0
 12 13  2  0
 13 14  1  0
 15 14  1  0
 16 15  2  0
 17 10  1  0
 18 17  2  0
 19 17  1  0
 20 21  1  1
 20 19  1  0
 21 22  1  0
 22 23  2  0
 22 26  1  0
 23 24  1  0
 24 25  1  0
 26 25  2  0
 27 28  1  0
 27 20  1  0
 29 27  2  0
M  END
$$$$
