DHH.pdb
     RDKit          3D

 29 30  0  0  1  0  0  0  0  0999 V2000
   12.7077  -16.7497   17.5175 N   0  0  0  0  0  0  0  0  0  0  0  0
   13.3939  -15.6033   18.1193 C   0  0  1  0  0  0  0  0  0  0  0  0
   13.4796  -14.5417   17.0399 C   0  0  0  0  0  0  0  0  0  0  0  0
   14.5376  -14.9564   16.0893 C   0  0  0  0  0  0  0  0  0  0  0  0
   15.2041  -16.0122   16.2223 O   0  0  0  0  0  0  0  0  0  0  0  0
   12.5740  -15.1517   19.2669 C   0  0  0  0  0  0  0  0  0  0  0  0
   12.9002  -14.1701   19.9813 O   0  0  0  0  0  0  0  0  0  0  0  0
   14.8427  -14.1685   14.9797 O   0  0  0  0  0  0  0  0  0  0  0  0
   11.3873  -15.8340   19.5799 N   0  0  0  0  0  0  0  0  0  0  0  0
   10.5649  -15.5931   20.7492 C   0  0  1  0  0  0  0  0  0  0  0  0
    9.1342  -15.5874   20.2909 C   0  0  0  0  0  0  0  0  0  0  0  0
    8.8191  -14.2877   19.6446 C   0  0  0  0  0  0  0  0  0  0  0  0
    9.6832  -13.1998   19.4698 C   0  0  0  0  0  0  0  0  0  0  0  0
    9.0405  -12.2128   18.8465 N   0  0  0  0  0  0  0  0  0  0  0  0
    7.7854  -12.6230   18.6098 C   0  0  0  0  0  0  0  0  0  0  0  0
    7.6574  -13.8689   19.0909 N   0  0  0  0  0  0  0  0  0  0  0  0
   10.8714  -16.6100   21.7477 C   0  0  0  0  0  0  0  0  0  0  0  0
   10.2796  -17.7194   21.6846 O   0  0  0  0  0  0  0  0  0  0  0  0
   11.8391  -16.3685   22.8056 N   0  0  0  0  0  0  0  0  0  0  0  0
   11.9703  -17.3494   23.8528 C   0  0  1  0  0  0  0  0  0  0  0  0
   13.3686  -17.7819   24.1089 C   0  0  0  0  0  0  0  0  0  0  0  0
   14.1119  -18.3635   23.0083 C   0  0  0  0  0  0  0  0  0  0  0  0
   13.7429  -18.6144   21.7166 C   0  0  0  0  0  0  0  0  0  0  0  0
   14.7906  -19.1500   21.0338 N   0  0  0  0  0  0  0  0  0  0  0  0
   15.7878  -19.2173   21.9240 C   0  0  0  0  0  0  0  0  0  0  0  0
   15.4082  -18.7551   23.1067 N   0  0  0  0  0  0  0  0  0  0  0  0
   11.2515  -16.8967   25.0588 C   0  0  0  0  0  0  0  0  0  0  0  0
   10.6130  -15.6863   25.1776 O   0  0  0  0  0  0  0  0  0  0  0  0
   11.2205  -17.6692   26.0455 O   0  0  0  0  0  0  0  0  0  0  0  0
  2  1  1  6
  3  4  1  0
  3  2  1  0
  4  5  2  0
  6  2  1  0
  6  7  2  0
  8  4  1  0
  9  6  1  0
 10  9  1  0
 10 11  1  6
 11 12  1  0
 12 16  1  0
 12 13  2  0
 13 14  1  0
 15 14  1  0
 16 15  2  0
 17 10  1  0
 18 17  2  0
 19 17  1  0
 20 21  1  1
 20 19  1  0
 21 22  1  0
 22 23  2  0
 22 26  1  0
 23 24  1  0
 24 25  1  0
 26 25  2  0
 27 28  1  0
 27 20  1  0
 29 27  2  0
M  END
$$$$
