DHH.pdb
     RDKit          3D

 29 30  0  0  1  0  0  0  0  0999 V2000
   10.8978  -19.8176   22.3342 N   0  0  0  0  0  0  0  0  0  0  0  0
   12.0651  -19.0531   21.8867 C   0  0  1  0  0  0  0  0  0  0  0  0
   12.4202  -19.5817   20.5105 C   0  0  0  0  0  0  0  0  0  0  0  0
   13.8900  -19.7628   20.4676 C   0  0  0  0  0  0  0  0  0  0  0  0
   14.4956  -20.6233   21.1529 O   0  0  0  0  0  0  0  0  0  0  0  0
   11.6666  -17.6277   21.8392 C   0  0  0  0  0  0  0  0  0  0  0  0
   12.4985  -16.7025   21.6596 O   0  0  0  0  0  0  0  0  0  0  0  0
   14.6795  -18.9626   19.6422 O   0  0  0  0  0  0  0  0  0  0  0  0
   10.3149  -17.2819   21.9983 N   0  0  0  0  0  0  0  0  0  0  0  0
    9.7800  -15.9361   21.9317 C   0  0  1  0  0  0  0  0  0  0  0  0
    8.5467  -15.9915   21.0758 C   0  0  0  0  0  0  0  0  0  0  0  0
    8.0443  -14.6158   20.8291 C   0  0  0  0  0  0  0  0  0  0  0  0
    8.7004  -13.4127   21.1169 C   0  0  0  0  0  0  0  0  0  0  0  0
    7.9339  -12.3857   20.7513 N   0  0  0  0  0  0  0  0  0  0  0  0
    6.7995  -12.8814   20.2347 C   0  0  0  0  0  0  0  0  0  0  0  0
    6.8705  -14.2203   20.2838 N   0  0  0  0  0  0  0  0  0  0  0  0
    9.5470  -15.4633   23.2907 C   0  0  0  0  0  0  0  0  0  0  0  0
    8.9924  -14.3454   23.4569 O   0  0  0  0  0  0  0  0  0  0  0  0
    9.9402  -16.2518   24.4473 N   0  0  0  0  0  0  0  0  0  0  0  0
    9.5225  -15.8099   25.7535 C   0  0  1  0  0  0  0  0  0  0  0  0
    8.0740  -15.4938   25.8539 C   0  0  0  0  0  0  0  0  0  0  0  0
    7.6860  -14.0980   25.9111 C   0  0  0  0  0  0  0  0  0  0  0  0
    8.3658  -13.0008   26.3600 C   0  0  0  0  0  0  0  0  0  0  0  0
    7.6043  -11.8862   26.1916 N   0  0  0  0  0  0  0  0  0  0  0  0
    6.4662  -12.3228   25.6391 C   0  0  0  0  0  0  0  0  0  0  0  0
    6.4907  -13.6361   25.4625 N   0  0  0  0  0  0  0  0  0  0  0  0
   10.0039  -16.7525   26.7810 C   0  0  0  0  0  0  0  0  0  0  0  0
    9.8329  -16.5858   28.1336 O   0  0  0  0  0  0  0  0  0  0  0  0
   10.6122  -17.7781   26.3944 O   0  0  0  0  0  0  0  0  0  0  0  0
  2  1  1  6
  3  4  1  0
  3  2  1  0
  4  5  2  0
  6  2  1  0
  6  7  2  0
  8  4  1  0
  9  6  1  0
 10  9  1  0
 10 11  1  6
 11 12  1  0
 12 16  1  0
 12 13  2  0
 13 14  1  0
 15 14  1  0
 16 15  2  0
 17 10  1  0
 18 17  2  0
 19 17  1  0
 20 21  1  6
 20 19  1  0
 21 22  1  0
 22 23  2  0
 22 26  1  0
 23 24  1  0
 24 25  1  0
 26 25  2  0
 27 28  1  0
 27 20  1  0
 29 27  2  0
M  END
$$$$
