DHH.pdb
     RDKit          3D

 29 30  0  0  1  0  0  0  0  0999 V2000
   10.5505  -18.2298   16.4220 N   0  0  0  0  0  0  0  0  0  0  0  0
    9.6988  -18.3763   17.6054 C   0  0  1  0  0  0  0  0  0  0  0  0
   10.0134  -19.7387   18.1923 C   0  0  0  0  0  0  0  0  0  0  0  0
    9.6895  -20.7536   17.1628 C   0  0  0  0  0  0  0  0  0  0  0  0
    8.8056  -20.5848   16.2870 O   0  0  0  0  0  0  0  0  0  0  0  0
   10.0515  -17.2832   18.5402 C   0  0  0  0  0  0  0  0  0  0  0  0
   11.1760  -16.7215   18.5242 O   0  0  0  0  0  0  0  0  0  0  0  0
   10.3724  -21.9690   17.1255 O   0  0  0  0  0  0  0  0  0  0  0  0
    9.1064  -16.8477   19.4830 N   0  0  0  0  0  0  0  0  0  0  0  0
    9.3170  -15.7945   20.4568 C   0  0  1  0  0  0  0  0  0  0  0  0
    8.0645  -14.9658   20.4909 C   0  0  0  0  0  0  0  0  0  0  0  0
    7.9131  -14.2314   19.2088 C   0  0  0  0  0  0  0  0  0  0  0  0
    8.3063  -12.9150   18.9379 C   0  0  0  0  0  0  0  0  0  0  0  0
    8.0065  -12.6084   17.6762 N   0  0  0  0  0  0  0  0  0  0  0  0
    7.4305  -13.6830   17.1166 C   0  0  0  0  0  0  0  0  0  0  0  0
    7.3766  -14.6544   18.0406 N   0  0  0  0  0  0  0  0  0  0  0  0
    9.6664  -16.4073   21.7324 C   0  0  0  0  0  0  0  0  0  0  0  0
    8.9314  -17.3229   22.1867 O   0  0  0  0  0  0  0  0  0  0  0  0
   10.8376  -15.9841   22.4830 N   0  0  0  0  0  0  0  0  0  0  0  0
   11.4565  -16.9276   23.3789 C   0  0  1  0  0  0  0  0  0  0  0  0
   11.8386  -18.2130   22.7388 C   0  0  0  0  0  0  0  0  0  0  0  0
   10.8118  -19.2241   22.5798 C   0  0  0  0  0  0  0  0  0  0  0  0
    9.4954  -19.2240   22.9469 C   0  0  0  0  0  0  0  0  0  0  0  0
    8.9106  -20.3916   22.5656 N   0  0  0  0  0  0  0  0  0  0  0  0
    9.8841  -21.0892   21.9681 C   0  0  0  0  0  0  0  0  0  0  0  0
   11.0253  -20.4153   21.9643 N   0  0  0  0  0  0  0  0  0  0  0  0
   12.5544  -16.2746   24.1167 C   0  0  0  0  0  0  0  0  0  0  0  0
   12.9750  -16.6392   25.3725 O   0  0  0  0  0  0  0  0  0  0  0  0
   13.1458  -15.3196   23.5604 O   0  0  0  0  0  0  0  0  0  0  0  0
  2  1  1  6
  3  4  1  0
  3  2  1  0
  4  5  2  0
  6  2  1  0
  6  7  2  0
  8  4  1  0
  9  6  1  0
 10  9  1  0
 10 11  1  1
 11 12  1  0
 12 16  1  0
 12 13  2  0
 13 14  1  0
 15 14  1  0
 16 15  2  0
 17 10  1  0
 18 17  2  0
 19 17  1  0
 20 21  1  6
 20 19  1  0
 21 22  1  0
 22 23  2  0
 22 26  1  0
 23 24  1  0
 24 25  1  0
 26 25  2  0
 27 28  1  0
 27 20  1  0
 29 27  2  0
M  END
$$$$
