DHH.pdb
     RDKit          3D

 29 30  0  0  1  0  0  0  0  0999 V2000
   14.3808  -13.7480   17.2483 N   0  0  0  0  0  0  0  0  0  0  0  0
   13.4989  -14.8834   17.5320 C   0  0  1  0  0  0  0  0  0  0  0  0
   14.3601  -16.1278   17.4361 C   0  0  0  0  0  0  0  0  0  0  0  0
   14.1497  -16.7134   16.0915 C   0  0  0  0  0  0  0  0  0  0  0  0
   14.6793  -16.2508   15.0511 O   0  0  0  0  0  0  0  0  0  0  0  0
   12.9621  -14.6936   18.8991 C   0  0  0  0  0  0  0  0  0  0  0  0
   13.5136  -13.9382   19.7391 O   0  0  0  0  0  0  0  0  0  0  0  0
   13.3330  -17.8315   15.9246 O   0  0  0  0  0  0  0  0  0  0  0  0
   11.7962  -15.3745   19.2849 N   0  0  0  0  0  0  0  0  0  0  0  0
   11.1507  -15.2657   20.5785 C   0  0  1  0  0  0  0  0  0  0  0  0
    9.7147  -15.6655   20.3919 C   0  0  0  0  0  0  0  0  0  0  0  0
    9.0206  -14.6634   19.5433 C   0  0  0  0  0  0  0  0  0  0  0  0
    9.0974  -13.2692   19.6484 C   0  0  0  0  0  0  0  0  0  0  0  0
    8.3356  -12.7064   18.7110 N   0  0  0  0  0  0  0  0  0  0  0  0
    7.7650  -13.6896   17.9986 C   0  0  0  0  0  0  0  0  0  0  0  0
    8.1791  -14.8623   18.5022 N   0  0  0  0  0  0  0  0  0  0  0  0
   11.8841  -16.0891   21.5319 C   0  0  0  0  0  0  0  0  0  0  0  0
   11.9854  -17.3249   21.3137 O   0  0  0  0  0  0  0  0  0  0  0  0
   12.4950  -15.5145   22.7196 N   0  0  0  0  0  0  0  0  0  0  0  0
   13.1660  -16.3958   23.6411 C   0  0  1  0  0  0  0  0  0  0  0  0
   14.4906  -15.9023   24.0991 C   0  0  0  0  0  0  0  0  0  0  0  0
   15.5442  -15.7695   23.1120 C   0  0  0  0  0  0  0  0  0  0  0  0
   15.5997  -16.1715   21.8070 C   0  0  0  0  0  0  0  0  0  0  0  0
   16.7911  -15.8046   21.2622 N   0  0  0  0  0  0  0  0  0  0  0  0
   17.4469  -15.1807   22.2480 C   0  0  0  0  0  0  0  0  0  0  0  0
   16.7253  -15.1472   23.3592 N   0  0  0  0  0  0  0  0  0  0  0  0
   12.2518  -16.7673   24.7376 C   0  0  0  0  0  0  0  0  0  0  0  0
   10.9463  -16.3523   24.8389 O   0  0  0  0  0  0  0  0  0  0  0  0
   12.6959  -17.5136   25.6416 O   0  0  0  0  0  0  0  0  0  0  0  0
  2  1  1  1
  3  4  1  0
  3  2  1  0
  4  5  2  0
  6  2  1  0
  6  7  2  0
  8  4  1  0
  9  6  1  0
 10  9  1  0
 10 11  1  6
 11 12  1  0
 12 16  1  0
 12 13  2  0
 13 14  1  0
 15 14  1  0
 16 15  2  0
 17 10  1  0
 18 17  2  0
 19 17  1  0
 20 21  1  1
 20 19  1  0
 21 22  1  0
 22 23  2  0
 22 26  1  0
 23 24  1  0
 24 25  1  0
 26 25  2  0
 27 28  1  0
 27 20  1  0
 29 27  2  0
M  END
$$$$
