DHH.pdb
     RDKit          3D

 29 30  0  0  1  0  0  0  0  0999 V2000
   11.7308  -14.5150   18.2058 N   0  0  0  0  0  0  0  0  0  0  0  0
   12.2621  -15.2594   19.3507 C   0  0  1  0  0  0  0  0  0  0  0  0
   13.4281  -14.4494   19.8833 C   0  0  0  0  0  0  0  0  0  0  0  0
   14.5128  -14.5132   18.8763 C   0  0  0  0  0  0  0  0  0  0  0  0
   15.3345  -13.5815   18.6928 O   0  0  0  0  0  0  0  0  0  0  0  0
   11.1727  -15.3711   20.3476 C   0  0  0  0  0  0  0  0  0  0  0  0
   10.4389  -14.3974   20.6536 O   0  0  0  0  0  0  0  0  0  0  0  0
   14.6674  -15.6412   18.0709 O   0  0  0  0  0  0  0  0  0  0  0  0
   10.9389  -16.6022   20.9814 N   0  0  0  0  0  0  0  0  0  0  0  0
    9.8893  -16.8623   21.9470 C   0  0  1  0  0  0  0  0  0  0  0  0
    9.4399  -18.2810   21.7413 C   0  0  0  0  0  0  0  0  0  0  0  0
    8.3999  -18.6286   22.7431 C   0  0  0  0  0  0  0  0  0  0  0  0
    7.0541  -18.2421   22.7323 C   0  0  0  0  0  0  0  0  0  0  0  0
    6.4335  -18.7498   23.7968 N   0  0  0  0  0  0  0  0  0  0  0  0
    7.3322  -19.4546   24.5005 C   0  0  0  0  0  0  0  0  0  0  0  0
    8.5109  -19.3786   23.8641 N   0  0  0  0  0  0  0  0  0  0  0  0
   10.4084  -16.5843   23.2804 C   0  0  0  0  0  0  0  0  0  0  0  0
   11.6243  -16.8091   23.5167 O   0  0  0  0  0  0  0  0  0  0  0  0
    9.5551  -16.0571   24.3331 N   0  0  0  0  0  0  0  0  0  0  0  0
   10.1237  -15.8571   25.6419 C   0  0  1  0  0  0  0  0  0  0  0  0
    9.3540  -14.9218   26.5026 C   0  0  0  0  0  0  0  0  0  0  0  0
    9.8408  -14.6791   27.8465 C   0  0  0  0  0  0  0  0  0  0  0  0
   10.9686  -14.0444   28.2857 C   0  0  0  0  0  0  0  0  0  0  0  0
   10.9929  -14.0367   29.6459 N   0  0  0  0  0  0  0  0  0  0  0  0
    9.8736  -14.6696   30.0173 C   0  0  0  0  0  0  0  0  0  0  0  0
    9.1713  -15.0617   28.9640 N   0  0  0  0  0  0  0  0  0  0  0  0
   10.4043  -17.1606   26.2727 C   0  0  0  0  0  0  0  0  0  0  0  0
    9.7040  -18.3154   26.0215 O   0  0  0  0  0  0  0  0  0  0  0  0
   11.3473  -17.2206   27.0964 O   0  0  0  0  0  0  0  0  0  0  0  0
  2  1  1  6
  3  4  1  0
  3  2  1  0
  4  5  2  0
  6  2  1  0
  6  7  2  0
  8  4  1  0
  9  6  1  0
 10  9  1  0
 10 11  1  1
 11 12  1  0
 12 16  1  0
 12 13  2  0
 13 14  1  0
 15 14  1  0
 16 15  2  0
 17 10  1  0
 18 17  2  0
 19 17  1  0
 20 21  1  1
 20 19  1  0
 21 22  1  0
 22 23  2  0
 22 26  1  0
 23 24  1  0
 24 25  1  0
 26 25  2  0
 27 28  1  0
 27 20  1  0
 29 27  2  0
M  END
$$$$
