DHH.pdb
     RDKit          3D

 29 30  0  0  1  0  0  0  0  0999 V2000
   10.7109  -17.3153   14.2230 N   0  0  0  0  0  0  0  0  0  0  0  0
   11.6094  -17.3504   15.3800 C   0  0  1  0  0  0  0  0  0  0  0  0
   12.4105  -16.0636   15.3383 C   0  0  0  0  0  0  0  0  0  0  0  0
   13.3768  -16.1756   14.2208 C   0  0  0  0  0  0  0  0  0  0  0  0
   13.3974  -15.3803   13.2492 O   0  0  0  0  0  0  0  0  0  0  0  0
   10.7633  -17.4290   16.5928 C   0  0  0  0  0  0  0  0  0  0  0  0
    9.6336  -16.8819   16.6611 O   0  0  0  0  0  0  0  0  0  0  0  0
   14.3268  -17.1965   14.2041 O   0  0  0  0  0  0  0  0  0  0  0  0
   11.2258  -18.1369   17.7140 N   0  0  0  0  0  0  0  0  0  0  0  0
   10.4933  -18.3187   18.9517 C   0  0  1  0  0  0  0  0  0  0  0  0
   10.9289  -19.6327   19.5353 C   0  0  0  0  0  0  0  0  0  0  0  0
   10.0664  -20.7241   19.0148 C   0  0  0  0  0  0  0  0  0  0  0  0
    8.9700  -20.5962   18.1532 C   0  0  0  0  0  0  0  0  0  0  0  0
    8.4494  -21.7984   17.9091 N   0  0  0  0  0  0  0  0  0  0  0  0
    9.1716  -22.7051   18.5842 C   0  0  0  0  0  0  0  0  0  0  0  0
   10.1408  -22.0554   19.2465 N   0  0  0  0  0  0  0  0  0  0  0  0
   10.7436  -17.1679   19.8106 C   0  0  0  0  0  0  0  0  0  0  0  0
   11.8622  -16.5940   19.7445 O   0  0  0  0  0  0  0  0  0  0  0  0
    9.7343  -16.6752   20.7340 N   0  0  0  0  0  0  0  0  0  0  0  0
   10.0444  -15.5201   21.5375 C   0  0  1  0  0  0  0  0  0  0  0  0
    8.9958  -14.4674   21.5190 C   0  0  0  0  0  0  0  0  0  0  0  0
    8.6117  -13.9142   20.2351 C   0  0  0  0  0  0  0  0  0  0  0  0
    9.2159  -12.9695   19.4541 C   0  0  0  0  0  0  0  0  0  0  0  0
    8.4983  -12.7876   18.3127 N   0  0  0  0  0  0  0  0  0  0  0  0
    7.4625  -13.6289   18.4153 C   0  0  0  0  0  0  0  0  0  0  0  0
    7.5078  -14.3105   19.5511 N   0  0  0  0  0  0  0  0  0  0  0  0
   10.4464  -15.9433   22.8922 C   0  0  0  0  0  0  0  0  0  0  0  0
   11.0314  -15.1215   23.8245 O   0  0  0  0  0  0  0  0  0  0  0  0
   10.2408  -17.1364   23.2171 O   0  0  0  0  0  0  0  0  0  0  0  0
  2  1  1  6
  3  4  1  0
  3  2  1  0
  4  5  2  0
  6  2  1  0
  6  7  2  0
  8  4  1  0
  9  6  1  0
 10  9  1  0
 10 11  1  1
 11 12  1  0
 12 16  1  0
 12 13  2  0
 13 14  1  0
 15 14  1  0
 16 15  2  0
 17 10  1  0
 18 17  2  0
 19 17  1  0
 20 21  1  1
 20 19  1  0
 21 22  1  0
 22 23  2  0
 22 26  1  0
 23 24  1  0
 24 25  1  0
 26 25  2  0
 27 28  1  0
 27 20  1  0
 29 27  2  0
M  END
$$$$
