DHH.pdb
     RDKit          3D

 29 30  0  0  1  0  0  0  0  0999 V2000
   10.8821  -17.9459   17.4742 N   0  0  0  0  0  0  0  0  0  0  0  0
   12.2143  -17.5098   17.9013 C   0  0  1  0  0  0  0  0  0  0  0  0
   12.7362  -16.5976   16.8081 C   0  0  0  0  0  0  0  0  0  0  0  0
   13.1144  -17.4510   15.6576 C   0  0  0  0  0  0  0  0  0  0  0  0
   13.3039  -18.6886   15.7543 O   0  0  0  0  0  0  0  0  0  0  0  0
   12.0516  -16.7885   19.1843 C   0  0  0  0  0  0  0  0  0  0  0  0
   13.0287  -16.3164   19.8189 O   0  0  0  0  0  0  0  0  0  0  0  0
   13.2793  -16.8978   14.3880 O   0  0  0  0  0  0  0  0  0  0  0  0
   10.7663  -16.6175   19.7233 N   0  0  0  0  0  0  0  0  0  0  0  0
   10.4542  -15.8743   20.9283 C   0  0  1  0  0  0  0  0  0  0  0  0
    8.9658  -15.6716   20.9506 C   0  0  0  0  0  0  0  0  0  0  0  0
    8.5913  -14.5941   19.9994 C   0  0  0  0  0  0  0  0  0  0  0  0
    9.4568  -13.8185   19.2184 C   0  0  0  0  0  0  0  0  0  0  0  0
    8.7503  -12.9555   18.4890 N   0  0  0  0  0  0  0  0  0  0  0  0
    7.4522  -13.1443   18.7700 C   0  0  0  0  0  0  0  0  0  0  0  0
    7.3620  -14.1288   19.6772 N   0  0  0  0  0  0  0  0  0  0  0  0
   10.9773  -16.6090   22.0734 C   0  0  0  0  0  0  0  0  0  0  0  0
   11.0082  -17.8666   22.0241 O   0  0  0  0  0  0  0  0  0  0  0  0
   11.4595  -15.9222   23.2608 N   0  0  0  0  0  0  0  0  0  0  0  0
   11.9485  -16.7141   24.3607 C   0  0  1  0  0  0  0  0  0  0  0  0
   13.3513  -16.4149   24.7489 C   0  0  0  0  0  0  0  0  0  0  0  0
   14.3986  -16.7095   23.7905 C   0  0  0  0  0  0  0  0  0  0  0  0
   14.3968  -16.6627   22.4247 C   0  0  0  0  0  0  0  0  0  0  0  0
   15.6257  -17.0025   21.9505 N   0  0  0  0  0  0  0  0  0  0  0  0
   16.3621  -17.2520   23.0399 C   0  0  0  0  0  0  0  0  0  0  0  0
   15.6537  -17.0846   24.1474 N   0  0  0  0  0  0  0  0  0  0  0  0
   10.9913  -16.6625   25.4819 C   0  0  0  0  0  0  0  0  0  0  0  0
   11.1321  -17.3547   26.6600 O   0  0  0  0  0  0  0  0  0  0  0  0
    9.9774  -15.9368   25.3522 O   0  0  0  0  0  0  0  0  0  0  0  0
  2  1  1  6
  3  4  1  0
  3  2  1  0
  4  5  2  0
  6  2  1  0
  6  7  2  0
  8  4  1  0
  9  6  1  0
 10  9  1  0
 10 11  1  1
 11 12  1  0
 12 16  1  0
 12 13  2  0
 13 14  1  0
 15 14  1  0
 16 15  2  0
 17 10  1  0
 18 17  2  0
 19 17  1  0
 20 21  1  1
 20 19  1  0
 21 22  1  0
 22 23  2  0
 22 26  1  0
 23 24  1  0
 24 25  1  0
 26 25  2  0
 27 28  1  0
 27 20  1  0
 29 27  2  0
M  END
$$$$
