DHH.pdb
     RDKit          3D

 29 30  0  0  1  0  0  0  0  0999 V2000
   10.7460  -17.4166   16.0902 N   0  0  0  0  0  0  0  0  0  0  0  0
   10.3326  -18.1120   17.3120 C   0  0  1  0  0  0  0  0  0  0  0  0
   11.1949  -19.3556   17.4085 C   0  0  0  0  0  0  0  0  0  0  0  0
   10.7612  -20.2835   16.3381 C   0  0  0  0  0  0  0  0  0  0  0  0
    9.6438  -20.2022   15.7708 O   0  0  0  0  0  0  0  0  0  0  0  0
   10.5725  -17.1905   18.4461 C   0  0  0  0  0  0  0  0  0  0  0  0
   11.5882  -16.4524   18.5095 O   0  0  0  0  0  0  0  0  0  0  0  0
   11.5998  -21.3112   15.9074 O   0  0  0  0  0  0  0  0  0  0  0  0
    9.6410  -17.1275   19.4950 N   0  0  0  0  0  0  0  0  0  0  0  0
    9.7444  -16.2683   20.6581 C   0  0  1  0  0  0  0  0  0  0  0  0
    8.3678  -15.7371   20.9401 C   0  0  0  0  0  0  0  0  0  0  0  0
    7.9988  -14.7283   19.9143 C   0  0  0  0  0  0  0  0  0  0  0  0
    8.3004  -13.3609   19.9275 C   0  0  0  0  0  0  0  0  0  0  0  0
    7.8027  -12.7817   18.8353 N   0  0  0  0  0  0  0  0  0  0  0  0
    7.1867  -13.7282   18.1112 C   0  0  0  0  0  0  0  0  0  0  0  0
    7.3070  -14.8947   18.7631 N   0  0  0  0  0  0  0  0  0  0  0  0
   10.3267  -17.0373   21.7509 C   0  0  0  0  0  0  0  0  0  0  0  0
    9.9457  -18.2242   21.9273 O   0  0  0  0  0  0  0  0  0  0  0  0
   11.3302  -16.4638   22.6331 N   0  0  0  0  0  0  0  0  0  0  0  0
   11.9747  -17.3254   23.5914 C   0  0  1  0  0  0  0  0  0  0  0  0
   13.4417  -17.1185   23.7047 C   0  0  0  0  0  0  0  0  0  0  0  0
   14.1717  -17.9375   24.6526 C   0  0  0  0  0  0  0  0  0  0  0  0
   13.7911  -19.0502   25.3488 C   0  0  0  0  0  0  0  0  0  0  0  0
   14.8290  -19.4971   26.1063 N   0  0  0  0  0  0  0  0  0  0  0  0
   15.8320  -18.6462   25.8587 C   0  0  0  0  0  0  0  0  0  0  0  0
   15.4651  -17.7088   24.9966 N   0  0  0  0  0  0  0  0  0  0  0  0
   11.2590  -17.2682   24.8800 C   0  0  0  0  0  0  0  0  0  0  0  0
   11.4998  -18.1035   25.9435 O   0  0  0  0  0  0  0  0  0  0  0  0
   10.3679  -16.3970   25.0157 O   0  0  0  0  0  0  0  0  0  0  0  0
  2  1  1  6
  3  4  1  0
  3  2  1  0
  4  5  2  0
  6  2  1  0
  6  7  2  0
  8  4  1  0
  9  6  1  0
 10  9  1  0
 10 11  1  1
 11 12  1  0
 12 16  1  0
 12 13  2  0
 13 14  1  0
 15 14  1  0
 16 15  2  0
 17 10  1  0
 18 17  2  0
 19 17  1  0
 20 21  1  1
 20 19  1  0
 21 22  1  0
 22 23  2  0
 22 26  1  0
 23 24  1  0
 24 25  1  0
 26 25  2  0
 27 28  1  0
 27 20  1  0
 29 27  2  0
M  END
$$$$
