DHH.pdb
     RDKit          3D

 29 30  0  0  1  0  0  0  0  0999 V2000
   15.2237  -21.8046   12.5358 N   0  0  0  0  0  0  0  0  0  0  0  0
   15.6471  -20.4081   12.6692 C   0  0  1  0  0  0  0  0  0  0  0  0
   15.2769  -19.7231   11.3681 C   0  0  0  0  0  0  0  0  0  0  0  0
   16.3279  -20.0506   10.3766 C   0  0  0  0  0  0  0  0  0  0  0  0
   17.3109  -20.7874   10.6368 O   0  0  0  0  0  0  0  0  0  0  0  0
   14.9120  -19.8327   13.8189 C   0  0  0  0  0  0  0  0  0  0  0  0
   14.9889  -18.6160   14.1252 O   0  0  0  0  0  0  0  0  0  0  0  0
   16.2646  -19.5392    9.0807 O   0  0  0  0  0  0  0  0  0  0  0  0
   14.0958  -20.6634   14.6035 N   0  0  0  0  0  0  0  0  0  0  0  0
   13.3945  -20.2568   15.8054 C   0  0  1  0  0  0  0  0  0  0  0  0
   12.0143  -20.8457   15.7335 C   0  0  0  0  0  0  0  0  0  0  0  0
   11.2229  -20.1447   14.6902 C   0  0  0  0  0  0  0  0  0  0  0  0
   11.3183  -18.7976   14.3204 C   0  0  0  0  0  0  0  0  0  0  0  0
   10.4467  -18.5373   13.3465 N   0  0  0  0  0  0  0  0  0  0  0  0
    9.7865  -19.6720   13.0703 C   0  0  0  0  0  0  0  0  0  0  0  0
   10.2559  -20.6338   13.8795 N   0  0  0  0  0  0  0  0  0  0  0  0
   14.1710  -20.6864   16.9618 C   0  0  0  0  0  0  0  0  0  0  0  0
   14.4393  -21.9096   17.0914 O   0  0  0  0  0  0  0  0  0  0  0  0
   14.6370  -19.7367   17.9593 N   0  0  0  0  0  0  0  0  0  0  0  0
   15.7308  -20.1210   18.8147 C   0  0  1  0  0  0  0  0  0  0  0  0
   16.8715  -20.7483   18.0982 C   0  0  0  0  0  0  0  0  0  0  0  0
   17.9783  -21.2485   18.8899 C   0  0  0  0  0  0  0  0  0  0  0  0
   18.0791  -21.4874   20.2317 C   0  0  0  0  0  0  0  0  0  0  0  0
   19.3129  -21.9828   20.5202 N   0  0  0  0  0  0  0  0  0  0  0  0
   19.9486  -22.0393   19.3438 C   0  0  0  0  0  0  0  0  0  0  0  0
   19.1750  -21.6073   18.3582 N   0  0  0  0  0  0  0  0  0  0  0  0
   16.1144  -18.9893   19.6796 C   0  0  0  0  0  0  0  0  0  0  0  0
   15.5558  -17.7359   19.6173 O   0  0  0  0  0  0  0  0  0  0  0  0
   17.0133  -19.1829   20.5316 O   0  0  0  0  0  0  0  0  0  0  0  0
  2  1  1  6
  3  4  1  0
  3  2  1  0
  4  5  2  0
  6  2  1  0
  6  7  2  0
  8  4  1  0
  9  6  1  0
 10  9  1  0
 10 11  1  1
 11 12  1  0
 12 16  1  0
 12 13  2  0
 13 14  1  0
 15 14  1  0
 16 15  2  0
 17 10  1  0
 18 17  2  0
 19 17  1  0
 20 21  1  6
 20 19  1  0
 21 22  1  0
 22 23  2  0
 22 26  1  0
 23 24  1  0
 24 25  1  0
 26 25  2  0
 27 28  1  0
 27 20  1  0
 29 27  2  0
M  END
$$$$
