DHH.pdb
     RDKit          3D

 29 30  0  0  1  0  0  0  0  0999 V2000
    9.1677  -18.1559   18.6754 N   0  0  0  0  0  0  0  0  0  0  0  0
   10.5350  -17.7875   19.0520 C   0  0  1  0  0  0  0  0  0  0  0  0
   11.1835  -17.2193   17.8046 C   0  0  0  0  0  0  0  0  0  0  0  0
   11.3980  -18.3422   16.8623 C   0  0  0  0  0  0  0  0  0  0  0  0
   10.9649  -19.5028   17.0680 O   0  0  0  0  0  0  0  0  0  0  0  0
   10.4380  -16.7746   20.1280 C   0  0  0  0  0  0  0  0  0  0  0  0
   11.4286  -16.1005   20.5082 O   0  0  0  0  0  0  0  0  0  0  0  0
   12.1087  -18.1486   15.6780 O   0  0  0  0  0  0  0  0  0  0  0  0
    9.2019  -16.5475   20.7545 N   0  0  0  0  0  0  0  0  0  0  0  0
    8.9538  -15.5605   21.7869 C   0  0  1  0  0  0  0  0  0  0  0  0
    7.7334  -14.7868   21.3758 C   0  0  0  0  0  0  0  0  0  0  0  0
    7.9723  -14.1317   20.0644 C   0  0  0  0  0  0  0  0  0  0  0  0
    8.4663  -12.8404   19.8428 C   0  0  0  0  0  0  0  0  0  0  0  0
    8.5438  -12.6089   18.5328 N   0  0  0  0  0  0  0  0  0  0  0  0
    8.1160  -13.7082   17.8940 C   0  0  0  0  0  0  0  0  0  0  0  0
    7.7739  -14.6193   18.8176 N   0  0  0  0  0  0  0  0  0  0  0  0
    8.8252  -16.2501   23.0647 C   0  0  0  0  0  0  0  0  0  0  0  0
    7.9419  -17.1387   23.1879 O   0  0  0  0  0  0  0  0  0  0  0  0
    9.6904  -15.9331   24.1894 N   0  0  0  0  0  0  0  0  0  0  0  0
   10.0439  -16.9901   25.1027 C   0  0  1  0  0  0  0  0  0  0  0  0
   10.5703  -18.2129   24.4427 C   0  0  0  0  0  0  0  0  0  0  0  0
   11.0431  -19.2912   25.2889 C   0  0  0  0  0  0  0  0  0  0  0  0
   11.6209  -19.2656   26.5271 C   0  0  0  0  0  0  0  0  0  0  0  0
   11.8764  -20.5356   26.9426 N   0  0  0  0  0  0  0  0  0  0  0  0
   11.4477  -21.3202   25.9466 C   0  0  0  0  0  0  0  0  0  0  0  0
   10.9477  -20.6027   24.9508 N   0  0  0  0  0  0  0  0  0  0  0  0
   10.9143  -16.4620   26.1702 C   0  0  0  0  0  0  0  0  0  0  0  0
   10.9749  -16.9646   27.4470 O   0  0  0  0  0  0  0  0  0  0  0  0
   11.6508  -15.4857   25.8946 O   0  0  0  0  0  0  0  0  0  0  0  0
  2  1  1  6
  3  4  1  0
  3  2  1  0
  4  5  2  0
  6  2  1  0
  6  7  2  0
  8  4  1  0
  9  6  1  0
 10  9  1  0
 10 11  1  6
 11 12  1  0
 12 16  1  0
 12 13  2  0
 13 14  1  0
 15 14  1  0
 16 15  2  0
 17 10  1  0
 18 17  2  0
 19 17  1  0
 20 21  1  6
 20 19  1  0
 21 22  1  0
 22 23  2  0
 22 26  1  0
 23 24  1  0
 24 25  1  0
 26 25  2  0
 27 28  1  0
 27 20  1  0
 29 27  2  0
M  END
$$$$
