QSH.pdb
     RDKit          3D

 26 26  0  0  1  0  0  0  0  0999 V2000
   12.9150  -14.6563  -11.8570 N   0  0  0  0  0  0  0  0  0  0  0  0
   12.2989  -13.3968  -11.9997 C   0  0  0  0  0  0  0  0  0  0  0  0
   11.1489  -13.1999  -11.5443 O   0  0  0  0  0  0  0  0  0  0  0  0
   13.0186  -12.2877  -12.6971 C   0  0  0  0  0  0  0  0  0  0  0  0
   14.3722  -12.7613  -13.1037 C   0  0  0  0  0  0  0  0  0  0  0  0
   14.5017  -12.8574  -14.6086 C   0  0  2  0  0  0  0  0  0  0  0  0
   14.6681  -14.3027  -14.8625 N   0  0  0  0  0  0  0  0  0  0  0  0
   15.6692  -12.1868  -15.1738 C   0  0  0  0  0  0  0  0  0  0  0  0
   16.8511  -12.6178  -14.9183 O   0  0  0  0  0  0  0  0  0  0  0  0
   16.4386  -11.0625  -18.8668 O   0  0  0  0  0  0  0  0  0  0  0  0
   16.6513  -10.0056  -17.9994 C   0  0  0  0  0  0  0  0  0  0  0  0
   16.8318  -10.4852  -16.5868 C   0  0  2  0  0  0  0  0  0  0  0  0
   15.6500  -11.0586  -16.0193 N   0  0  0  0  0  0  0  0  0  0  0  0
   17.3938   -9.3882  -15.7416 C   0  0  0  0  0  0  0  0  0  0  0  0
   16.6471   -8.6573  -15.0390 O   0  0  0  0  0  0  0  0  0  0  0  0
   18.7857   -9.1451  -15.7112 N   0  0  0  0  0  0  0  0  0  0  0  0
   19.4094   -8.0122  -15.0575 C   0  0  1  0  0  0  0  0  0  0  0  0
   20.9006   -8.0242  -15.2020 C   0  0  0  0  0  0  0  0  0  0  0  0
   21.4516   -6.8625  -14.4672 C   0  0  0  0  0  0  0  0  0  0  0  0
   21.6487   -6.7590  -13.1161 C   0  0  0  0  0  0  0  0  0  0  0  0
   22.1594   -5.5450  -12.8562 N   0  0  0  0  0  0  0  0  0  0  0  0
   22.2749   -4.9086  -14.0331 C   0  0  0  0  0  0  0  0  0  0  0  0
   21.8429   -5.7107  -15.0211 N   0  0  0  0  0  0  0  0  0  0  0  0
   18.8135   -6.7287  -15.4628 C   0  0  0  0  0  0  0  0  0  0  0  0
   18.5111   -5.7925  -14.4888 O   0  0  0  0  0  0  0  0  0  0  0  0
   18.5632   -6.4389  -16.6592 O   0  0  0  0  0  0  0  0  0  0  0  0
  1  2  1  0
  2  4  1  0
  2  3  2  0
  4  5  1  0
  6  5  1  0
  6  8  1  0
  6  7  1  1
  8  9  2  0
 10 11  1  0
 12 11  1  6
 12 14  1  0
 13  8  1  0
 13 12  1  0
 14 15  2  0
 16 17  1  0
 16 14  1  0
 17 24  1  0
 17 18  1  6
 19 18  1  0
 20 19  2  0
 21 22  1  0
 21 20  1  0
 22 23  2  0
 23 19  1  0
 24 26  2  0
 24 25  1  0
M  END
$$$$
