QSH.pdb
     RDKit          3D

 26 26  0  0  1  0  0  0  0  0999 V2000
   23.2446  -11.7231  -20.9270 N   0  0  0  0  0  0  0  0  0  0  0  0
   22.1118  -12.4729  -21.3027 C   0  0  0  0  0  0  0  0  0  0  0  0
   22.1258  -13.1578  -22.3511 O   0  0  0  0  0  0  0  0  0  0  0  0
   20.8858  -12.4534  -20.4476 C   0  0  0  0  0  0  0  0  0  0  0  0
   21.0933  -11.5069  -19.3150 C   0  0  0  0  0  0  0  0  0  0  0  0
   21.6756  -12.2037  -18.1042 C   0  0  2  0  0  0  0  0  0  0  0  0
   20.5528  -13.0058  -17.5777 N   0  0  0  0  0  0  0  0  0  0  0  0
   22.1090  -11.3169  -17.0282 C   0  0  0  0  0  0  0  0  0  0  0  0
   21.2438  -10.7425  -16.2735 O   0  0  0  0  0  0  0  0  0  0  0  0
   26.1461  -10.2576  -16.0361 O   0  0  0  0  0  0  0  0  0  0  0  0
   25.1557  -10.3275  -15.0723 C   0  0  0  0  0  0  0  0  0  0  0  0
   23.7975  -10.0783  -15.6649 C   0  0  2  0  0  0  0  0  0  0  0  0
   23.4433  -11.0020  -16.6987 N   0  0  0  0  0  0  0  0  0  0  0  0
   23.6867   -8.6561  -16.1109 C   0  0  0  0  0  0  0  0  0  0  0  0
   24.0061   -8.3112  -17.2790 O   0  0  0  0  0  0  0  0  0  0  0  0
   23.2174   -7.6594  -15.2254 N   0  0  0  0  0  0  0  0  0  0  0  0
   22.9891   -6.2757  -15.5902 C   0  0  1  0  0  0  0  0  0  0  0  0
   22.0611   -6.1430  -16.7590 C   0  0  0  0  0  0  0  0  0  0  0  0
   20.7071   -6.5642  -16.3320 C   0  0  0  0  0  0  0  0  0  0  0  0
   20.3835   -7.6615  -15.5793 C   0  0  0  0  0  0  0  0  0  0  0  0
   19.0506   -7.6861  -15.4210 N   0  0  0  0  0  0  0  0  0  0  0  0
   18.5596   -6.6171  -16.0687 C   0  0  0  0  0  0  0  0  0  0  0  0
   19.5692   -5.9283  -16.6275 N   0  0  0  0  0  0  0  0  0  0  0  0
   22.5739   -5.4512  -14.4437 C   0  0  0  0  0  0  0  0  0  0  0  0
   22.3670   -4.0954  -14.6327 O   0  0  0  0  0  0  0  0  0  0  0  0
   22.3972   -5.9212  -13.2921 O   0  0  0  0  0  0  0  0  0  0  0  0
  1  2  1  0
  2  4  1  0
  2  3  2  0
  4  5  1  0
  6  5  1  0
  6  8  1  0
  6  7  1  1
  8  9  2  0
 10 11  1  0
 12 11  1  6
 12 14  1  0
 13  8  1  0
 13 12  1  0
 14 15  2  0
 16 17  1  0
 16 14  1  0
 17 24  1  0
 17 18  1  6
 19 18  1  0
 20 19  2  0
 21 22  1  0
 21 20  1  0
 22 23  2  0
 23 19  1  0
 24 26  2  0
 24 25  1  0
M  END
$$$$
