QSH.pdb
     RDKit          3D

 26 26  0  0  1  0  0  0  0  0999 V2000
   18.6399  -16.7649  -14.2926 N   0  0  0  0  0  0  0  0  0  0  0  0
   17.2973  -16.8600  -14.7106 C   0  0  0  0  0  0  0  0  0  0  0  0
   16.5425  -17.7312  -14.2210 O   0  0  0  0  0  0  0  0  0  0  0  0
   16.7677  -15.9175  -15.7430 C   0  0  0  0  0  0  0  0  0  0  0  0
   17.8488  -14.9735  -16.1454 C   0  0  0  0  0  0  0  0  0  0  0  0
   17.4130  -14.0780  -17.2850 C   0  0  2  0  0  0  0  0  0  0  0  0
   17.4449  -14.9618  -18.4678 N   0  0  0  0  0  0  0  0  0  0  0  0
   18.3035  -12.9554  -17.5658 C   0  0  0  0  0  0  0  0  0  0  0  0
   19.5290  -12.9892  -17.1852 O   0  0  0  0  0  0  0  0  0  0  0  0
   18.7242  -10.8896  -20.9462 O   0  0  0  0  0  0  0  0  0  0  0  0
   18.6059  -10.0374  -19.8625 C   0  0  0  0  0  0  0  0  0  0  0  0
   18.9033  -10.7485  -18.5725 C   0  0  2  0  0  0  0  0  0  0  0  0
   17.9568  -11.7716  -18.2490 N   0  0  0  0  0  0  0  0  0  0  0  0
   19.0680   -9.7562  -17.4672 C   0  0  0  0  0  0  0  0  0  0  0  0
   18.1486   -9.5505  -16.6318 O   0  0  0  0  0  0  0  0  0  0  0  0
   20.2680   -9.0215  -17.3333 N   0  0  0  0  0  0  0  0  0  0  0  0
   20.4759   -7.9518  -16.3782 C   0  0  1  0  0  0  0  0  0  0  0  0
   21.8949   -7.4709  -16.3653 C   0  0  0  0  0  0  0  0  0  0  0  0
   22.0108   -6.3811  -15.3693 C   0  0  0  0  0  0  0  0  0  0  0  0
   21.7683   -6.4637  -14.0242 C   0  0  0  0  0  0  0  0  0  0  0  0
   21.9832   -5.2546  -13.4819 N   0  0  0  0  0  0  0  0  0  0  0  0
   22.3531   -4.4374  -14.4813 C   0  0  0  0  0  0  0  0  0  0  0  0
   22.3712   -5.1222  -15.6375 N   0  0  0  0  0  0  0  0  0  0  0  0
   19.5095   -6.8536  -16.5418 C   0  0  0  0  0  0  0  0  0  0  0  0
   18.8169   -6.3990  -15.4326 O   0  0  0  0  0  0  0  0  0  0  0  0
   19.2798   -6.3044  -17.6481 O   0  0  0  0  0  0  0  0  0  0  0  0
  1  2  1  0
  2  4  1  0
  2  3  2  0
  4  5  1  0
  6  5  1  0
  6  8  1  0
  6  7  1  6
  8  9  2  0
 10 11  1  0
 12 11  1  6
 12 14  1  0
 13  8  1  0
 13 12  1  0
 14 15  2  0
 16 17  1  0
 16 14  1  0
 17 24  1  0
 17 18  1  6
 19 18  1  0
 20 19  2  0
 21 22  1  0
 21 20  1  0
 22 23  2  0
 23 19  1  0
 24 26  2  0
 24 25  1  0
M  END
$$$$
