QSH.pdb
     RDKit          3D

 26 26  0  0  1  0  0  0  0  0999 V2000
   19.2857  -16.9652  -14.9606 N   0  0  0  0  0  0  0  0  0  0  0  0
   17.8804  -17.0730  -14.9563 C   0  0  0  0  0  0  0  0  0  0  0  0
   17.3259  -18.0970  -14.4955 O   0  0  0  0  0  0  0  0  0  0  0  0
   17.0441  -15.9611  -15.5032 C   0  0  0  0  0  0  0  0  0  0  0  0
   17.9289  -14.8227  -15.8810 C   0  0  0  0  0  0  0  0  0  0  0  0
   17.1509  -13.7067  -16.5443 C   0  0  2  0  0  0  0  0  0  0  0  0
   16.8582  -14.2274  -17.8950 N   0  0  0  0  0  0  0  0  0  0  0  0
   17.8862  -12.4572  -16.7177 C   0  0  0  0  0  0  0  0  0  0  0  0
   18.8037  -12.3637  -17.6106 O   0  0  0  0  0  0  0  0  0  0  0  0
   17.6903   -8.9979  -14.2097 O   0  0  0  0  0  0  0  0  0  0  0  0
   17.8663   -8.8550  -15.5748 C   0  0  0  0  0  0  0  0  0  0  0  0
   18.4739  -10.0889  -16.1799 C   0  0  2  0  0  0  0  0  0  0  0  0
   17.6932  -11.2712  -15.9800 N   0  0  0  0  0  0  0  0  0  0  0  0
   19.8823  -10.2508  -15.7065 C   0  0  0  0  0  0  0  0  0  0  0  0
   20.1680  -11.0335  -14.7625 O   0  0  0  0  0  0  0  0  0  0  0  0
   20.9325   -9.5244  -16.3124 N   0  0  0  0  0  0  0  0  0  0  0  0
   22.3022   -9.5090  -15.8397 C   0  0  1  0  0  0  0  0  0  0  0  0
   23.2629  -10.0227  -16.8683 C   0  0  0  0  0  0  0  0  0  0  0  0
   24.6202  -10.0358  -16.2760 C   0  0  0  0  0  0  0  0  0  0  0  0
   25.1319  -10.9617  -15.4066 C   0  0  0  0  0  0  0  0  0  0  0  0
   26.3914  -10.6073  -15.1062 N   0  0  0  0  0  0  0  0  0  0  0  0
   26.6518   -9.4766  -15.7823 C   0  0  0  0  0  0  0  0  0  0  0  0
   25.5711   -9.1234  -16.4989 N   0  0  0  0  0  0  0  0  0  0  0  0
   22.6989   -8.1973  -15.3024 C   0  0  0  0  0  0  0  0  0  0  0  0
   23.8276   -8.1126  -14.5052 O   0  0  0  0  0  0  0  0  0  0  0  0
   22.0577   -7.1419  -15.5332 O   0  0  0  0  0  0  0  0  0  0  0  0
  1  2  1  0
  2  4  1  0
  2  3  2  0
  4  5  1  0
  6  5  1  0
  6  8  1  0
  6  7  1  6
  8  9  2  0
 10 11  1  0
 12 11  1  1
 12 14  1  0
 13  8  1  0
 13 12  1  0
 14 15  2  0
 16 17  1  0
 16 14  1  0
 17 24  1  0
 17 18  1  6
 19 18  1  0
 20 19  2  0
 21 22  1  0
 21 20  1  0
 22 23  2  0
 23 19  1  0
 24 26  2  0
 24 25  1  0
M  END
$$$$
