QSH.pdb
     RDKit          3D

 26 26  0  0  1  0  0  0  0  0999 V2000
   25.4341  -15.0962  -18.0658 N   0  0  0  0  0  0  0  0  0  0  0  0
   24.4481  -15.8195  -18.7666 C   0  0  0  0  0  0  0  0  0  0  0  0
   23.2805  -15.3751  -18.8547 O   0  0  0  0  0  0  0  0  0  0  0  0
   24.7942  -17.1238  -19.4098 C   0  0  0  0  0  0  0  0  0  0  0  0
   23.8808  -18.1824  -18.8934 C   0  0  0  0  0  0  0  0  0  0  0  0
   24.3852  -18.7698  -17.5929 C   0  0  2  0  0  0  0  0  0  0  0  0
   25.3147  -19.8359  -18.0177 N   0  0  0  0  0  0  0  0  0  0  0  0
   23.3641  -19.3994  -16.7605 C   0  0  0  0  0  0  0  0  0  0  0  0
   22.3109  -19.9019  -17.2955 O   0  0  0  0  0  0  0  0  0  0  0  0
   23.7898  -21.3043  -13.0529 O   0  0  0  0  0  0  0  0  0  0  0  0
   22.7357  -20.4150  -13.1647 C   0  0  0  0  0  0  0  0  0  0  0  0
   22.3717  -20.1763  -14.6030 C   0  0  2  0  0  0  0  0  0  0  0  0
   23.4027  -19.5318  -15.3573 N   0  0  0  0  0  0  0  0  0  0  0  0
   21.0676  -19.4512  -14.6873 C   0  0  0  0  0  0  0  0  0  0  0  0
   21.0206  -18.2198  -14.9461 O   0  0  0  0  0  0  0  0  0  0  0  0
   19.8491  -20.1360  -14.4776 N   0  0  0  0  0  0  0  0  0  0  0  0
   18.5539  -19.6683  -14.9284 C   0  0  1  0  0  0  0  0  0  0  0  0
   18.5454  -19.3446  -16.3912 C   0  0  0  0  0  0  0  0  0  0  0  0
   17.2350  -18.7436  -16.7302 C   0  0  0  0  0  0  0  0  0  0  0  0
   16.6418  -17.6655  -16.1294 C   0  0  0  0  0  0  0  0  0  0  0  0
   15.4602  -17.4466  -16.7280 N   0  0  0  0  0  0  0  0  0  0  0  0
   15.3276  -18.3789  -17.6854 C   0  0  0  0  0  0  0  0  0  0  0  0
   16.4107  -19.1745  -17.6901 N   0  0  0  0  0  0  0  0  0  0  0  0
   17.4612  -20.5772  -14.5453 C   0  0  0  0  0  0  0  0  0  0  0  0
   16.4764  -20.1178  -13.6876 O   0  0  0  0  0  0  0  0  0  0  0  0
   17.3780  -21.7595  -14.9616 O   0  0  0  0  0  0  0  0  0  0  0  0
  1  2  1  0
  2  4  1  0
  2  3  2  0
  4  5  1  0
  6  5  1  0
  6  8  1  0
  6  7  1  6
  8  9  2  0
 10 11  1  0
 12 11  1  1
 12 14  1  0
 13  8  1  0
 13 12  1  0
 14 15  2  0
 16 17  1  0
 16 14  1  0
 17 24  1  0
 17 18  1  6
 19 18  1  0
 20 19  2  0
 21 22  1  0
 21 20  1  0
 22 23  2  0
 23 19  1  0
 24 26  2  0
 24 25  1  0
M  END
$$$$
