QSH.pdb
     RDKit          3D

 26 26  0  0  1  0  0  0  0  0999 V2000
   21.4447  -16.3415  -17.3083 N   0  0  0  0  0  0  0  0  0  0  0  0
   20.4498  -16.1016  -18.2773 C   0  0  0  0  0  0  0  0  0  0  0  0
   19.9277  -17.0562  -18.8976 O   0  0  0  0  0  0  0  0  0  0  0  0
   20.0124  -14.7021  -18.5685 C   0  0  0  0  0  0  0  0  0  0  0  0
   20.8928  -13.7505  -17.8329 C   0  0  0  0  0  0  0  0  0  0  0  0
   20.1968  -13.1676  -16.6220 C   0  0  2  0  0  0  0  0  0  0  0  0
   18.8565  -13.7873  -16.6459 N   0  0  0  0  0  0  0  0  0  0  0  0
   19.9998  -11.7212  -16.6574 C   0  0  0  0  0  0  0  0  0  0  0  0
   20.4719  -11.0264  -17.6281 O   0  0  0  0  0  0  0  0  0  0  0  0
   18.3987   -9.3267  -13.5454 O   0  0  0  0  0  0  0  0  0  0  0  0
   18.1140   -8.9804  -14.8544 C   0  0  0  0  0  0  0  0  0  0  0  0
   19.1383   -9.5371  -15.8025 C   0  0  2  0  0  0  0  0  0  0  0  0
   19.3087  -10.9538  -15.6974 N   0  0  0  0  0  0  0  0  0  0  0  0
   20.4283   -8.7968  -15.6547 C   0  0  0  0  0  0  0  0  0  0  0  0
   21.3934   -9.2883  -15.0125 O   0  0  0  0  0  0  0  0  0  0  0  0
   20.5952   -7.5198  -16.2368 N   0  0  0  0  0  0  0  0  0  0  0  0
   21.8161   -6.7414  -16.1775 C   0  0  1  0  0  0  0  0  0  0  0  0
   22.1750   -6.1474  -17.5053 C   0  0  0  0  0  0  0  0  0  0  0  0
   23.4783   -5.4568  -17.3724 C   0  0  0  0  0  0  0  0  0  0  0  0
   24.6226   -5.9557  -16.8095 C   0  0  0  0  0  0  0  0  0  0  0  0
   25.5747   -5.0120  -16.8827 N   0  0  0  0  0  0  0  0  0  0  0  0
   25.0229   -3.9449  -17.4830 C   0  0  0  0  0  0  0  0  0  0  0  0
   23.7408   -4.2125  -17.7840 N   0  0  0  0  0  0  0  0  0  0  0  0
   21.7951   -5.7403  -15.0986 C   0  0  0  0  0  0  0  0  0  0  0  0
   20.5983   -5.4712  -14.4567 O   0  0  0  0  0  0  0  0  0  0  0  0
   22.8183   -5.1122  -14.7290 O   0  0  0  0  0  0  0  0  0  0  0  0
  1  2  1  0
  2  4  1  0
  2  3  2  0
  4  5  1  0
  6  5  1  0
  6  8  1  0
  6  7  1  6
  8  9  2  0
 10 11  1  0
 12 11  1  1
 12 14  1  0
 13  8  1  0
 13 12  1  0
 14 15  2  0
 16 17  1  0
 16 14  1  0
 17 24  1  0
 17 18  1  6
 19 18  1  0
 20 19  2  0
 21 22  1  0
 21 20  1  0
 22 23  2  0
 23 19  1  0
 24 26  2  0
 24 25  1  0
M  END
$$$$
