QSH.pdb
     RDKit          3D

 26 26  0  0  1  0  0  0  0  0999 V2000
   23.0187    3.9185  -10.3763 N   0  0  0  0  0  0  0  0  0  0  0  0
   22.4942    3.1536   -9.3150 C   0  0  0  0  0  0  0  0  0  0  0  0
   21.7097    2.2051   -9.5463 O   0  0  0  0  0  0  0  0  0  0  0  0
   22.8744    3.4725   -7.9050 C   0  0  0  0  0  0  0  0  0  0  0  0
   23.7044    2.3618   -7.3581 C   0  0  0  0  0  0  0  0  0  0  0  0
   25.1708    2.5478   -7.6833 C   0  0  2  0  0  0  0  0  0  0  0  0
   25.4174    1.5950   -8.7845 N   0  0  0  0  0  0  0  0  0  0  0  0
   26.0929    2.2029   -6.6049 C   0  0  0  0  0  0  0  0  0  0  0  0
   26.2268    0.9818   -6.2323 O   0  0  0  0  0  0  0  0  0  0  0  0
   29.8807    2.6681   -6.0345 O   0  0  0  0  0  0  0  0  0  0  0  0
   29.1882    3.2714   -4.9995 C   0  0  0  0  0  0  0  0  0  0  0  0
   27.8081    2.6946   -4.8557 C   0  0  2  0  0  0  0  0  0  0  0  0
   26.9036    3.1049   -5.8856 N   0  0  0  0  0  0  0  0  0  0  0  0
   27.2763    2.9747   -3.4873 C   0  0  0  0  0  0  0  0  0  0  0  0
   26.4720    3.9212   -3.2803 O   0  0  0  0  0  0  0  0  0  0  0  0
   27.6666    2.1779   -2.3872 N   0  0  0  0  0  0  0  0  0  0  0  0
   27.2464    2.4018   -1.0185 C   0  0  1  0  0  0  0  0  0  0  0  0
   26.8225    1.1345   -0.3409 C   0  0  0  0  0  0  0  0  0  0  0  0
   25.6275    0.6074   -1.0389 C   0  0  0  0  0  0  0  0  0  0  0  0
   24.8284    1.2771   -1.9267 C   0  0  0  0  0  0  0  0  0  0  0  0
   23.8517    0.4465   -2.3245 N   0  0  0  0  0  0  0  0  0  0  0  0
   24.0470   -0.7204   -1.6890 C   0  0  0  0  0  0  0  0  0  0  0  0
   25.1320   -0.6263   -0.9016 N   0  0  0  0  0  0  0  0  0  0  0  0
   28.2432    3.1528   -0.2381 C   0  0  0  0  0  0  0  0  0  0  0  0
   27.9557    3.4842    1.0750 O   0  0  0  0  0  0  0  0  0  0  0  0
   29.3512    3.5113   -0.7091 O   0  0  0  0  0  0  0  0  0  0  0  0
  1  2  1  0
  2  4  1  0
  2  3  2  0
  4  5  1  0
  6  5  1  0
  6  8  1  0
  6  7  1  6
  8  9  2  0
 10 11  1  0
 12 11  1  6
 12 14  1  0
 13  8  1  0
 13 12  1  0
 14 15  2  0
 16 17  1  0
 16 14  1  0
 17 24  1  0
 17 18  1  1
 19 18  1  0
 20 19  2  0
 21 22  1  0
 21 20  1  0
 22 23  2  0
 23 19  1  0
 24 26  2  0
 24 25  1  0
M  END
$$$$
