QSH.pdb
     RDKit          3D

 26 26  0  0  1  0  0  0  0  0999 V2000
   19.4062  -12.7608  -20.3034 N   0  0  0  0  0  0  0  0  0  0  0  0
   19.2213  -13.8875  -19.4770 C   0  0  0  0  0  0  0  0  0  0  0  0
   19.2861  -15.0421  -19.9578 O   0  0  0  0  0  0  0  0  0  0  0  0
   18.9470  -13.7073  -18.0186 C   0  0  0  0  0  0  0  0  0  0  0  0
   18.9279  -12.2514  -17.6998 C   0  0  0  0  0  0  0  0  0  0  0  0
   18.7769  -12.0068  -16.2139 C   0  0  2  0  0  0  0  0  0  0  0  0
   17.3809  -12.3942  -15.9268 N   0  0  0  0  0  0  0  0  0  0  0  0
   18.9291  -10.6159  -15.7965 C   0  0  0  0  0  0  0  0  0  0  0  0
   17.9755   -9.7763  -15.9795 O   0  0  0  0  0  0  0  0  0  0  0  0
   21.0479   -7.1174  -13.2229 O   0  0  0  0  0  0  0  0  0  0  0  0
   21.0596   -8.4456  -13.6106 C   0  0  0  0  0  0  0  0  0  0  0  0
   20.1396   -8.6836  -14.7746 C   0  0  2  0  0  0  0  0  0  0  0  0
   20.0644  -10.0548  -15.1765 N   0  0  0  0  0  0  0  0  0  0  0  0
   20.5022   -7.7782  -15.9071 C   0  0  0  0  0  0  0  0  0  0  0  0
   21.0291   -8.2270  -16.9590 O   0  0  0  0  0  0  0  0  0  0  0  0
   20.2597   -6.3884  -15.8225 N   0  0  0  0  0  0  0  0  0  0  0  0
   20.4888   -5.4459  -16.8991 C   0  0  1  0  0  0  0  0  0  0  0  0
   19.8822   -5.9022  -18.1909 C   0  0  0  0  0  0  0  0  0  0  0  0
   20.2427   -4.9287  -19.2471 C   0  0  0  0  0  0  0  0  0  0  0  0
   21.5034   -4.5533  -19.6274 C   0  0  0  0  0  0  0  0  0  0  0  0
   21.3946   -3.6471  -20.6120 N   0  0  0  0  0  0  0  0  0  0  0  0
   20.0827   -3.4667  -20.8348 C   0  0  0  0  0  0  0  0  0  0  0  0
   19.3745   -4.2484  -20.0020 N   0  0  0  0  0  0  0  0  0  0  0  0
   20.0910   -4.0743  -16.5424 C   0  0  0  0  0  0  0  0  0  0  0  0
   19.6379   -3.8198  -15.2592 O   0  0  0  0  0  0  0  0  0  0  0  0
   20.1424   -3.1153  -17.3522 O   0  0  0  0  0  0  0  0  0  0  0  0
  1  2  1  0
  2  4  1  0
  2  3  2  0
  4  5  1  0
  6  5  1  0
  6  8  1  0
  6  7  1  6
  8  9  2  0
 10 11  1  0
 12 11  1  1
 12 14  1  0
 13  8  1  0
 13 12  1  0
 14 15  2  0
 16 17  1  0
 16 14  1  0
 17 24  1  0
 17 18  1  6
 19 18  1  0
 20 19  2  0
 21 22  1  0
 21 20  1  0
 22 23  2  0
 23 19  1  0
 24 26  2  0
 24 25  1  0
M  END
$$$$
