QSH.pdb
     RDKit          3D

 26 26  0  0  1  0  0  0  0  0999 V2000
   27.7999  -27.6819  -16.3176 N   0  0  0  0  0  0  0  0  0  0  0  0
   28.7208  -27.6923  -17.3845 C   0  0  0  0  0  0  0  0  0  0  0  0
   29.1926  -28.7745  -17.8023 O   0  0  0  0  0  0  0  0  0  0  0  0
   29.1382  -26.4070  -18.0236 C   0  0  0  0  0  0  0  0  0  0  0  0
   28.4448  -25.2749  -17.3460 C   0  0  0  0  0  0  0  0  0  0  0  0
   29.3727  -24.0982  -17.1336 C   0  0  2  0  0  0  0  0  0  0  0  0
   30.2151  -24.5075  -15.9916 N   0  0  0  0  0  0  0  0  0  0  0  0
   28.7146  -22.8512  -16.7542 C   0  0  0  0  0  0  0  0  0  0  0  0
   28.2131  -22.7140  -15.5805 O   0  0  0  0  0  0  0  0  0  0  0  0
   28.8966  -19.2813  -18.9338 O   0  0  0  0  0  0  0  0  0  0  0  0
   28.6607  -19.2585  -17.5706 C   0  0  0  0  0  0  0  0  0  0  0  0
   27.9473  -20.5012  -17.1182 C   0  0  2  0  0  0  0  0  0  0  0  0
   28.5596  -21.7125  -17.5712 N   0  0  0  0  0  0  0  0  0  0  0  0
   26.5007  -20.4235  -17.4857 C   0  0  0  0  0  0  0  0  0  0  0  0
   26.0476  -21.0366  -18.4878 O   0  0  0  0  0  0  0  0  0  0  0  0
   25.6023  -19.6551  -16.7110 N   0  0  0  0  0  0  0  0  0  0  0  0
   24.2042  -19.4514  -17.0328 C   0  0  1  0  0  0  0  0  0  0  0  0
   23.4231  -18.9323  -15.8643 C   0  0  0  0  0  0  0  0  0  0  0  0
   23.3745  -19.9883  -14.8272 C   0  0  0  0  0  0  0  0  0  0  0  0
   23.8607  -21.2646  -14.9261 C   0  0  0  0  0  0  0  0  0  0  0  0
   23.6111  -21.9016  -13.7710 N   0  0  0  0  0  0  0  0  0  0  0  0
   22.9786  -21.0280  -12.9709 C   0  0  0  0  0  0  0  0  0  0  0  0
   22.8317  -19.8566  -13.6130 N   0  0  0  0  0  0  0  0  0  0  0  0
   24.0170  -18.6359  -18.2438 C   0  0  0  0  0  0  0  0  0  0  0  0
   22.7469  -18.5153  -18.7814 O   0  0  0  0  0  0  0  0  0  0  0  0
   24.9613  -18.0393  -18.8187 O   0  0  0  0  0  0  0  0  0  0  0  0
  1  2  1  0
  2  4  1  0
  2  3  2  0
  4  5  1  0
  6  5  1  0
  6  8  1  0
  6  7  1  1
  8  9  2  0
 10 11  1  0
 12 11  1  6
 12 14  1  0
 13  8  1  0
 13 12  1  0
 14 15  2  0
 16 17  1  0
 16 14  1  0
 17 24  1  0
 17 18  1  1
 19 18  1  0
 20 19  2  0
 21 22  1  0
 21 20  1  0
 22 23  2  0
 23 19  1  0
 24 26  2  0
 24 25  1  0
M  END
$$$$
