QSH.pdb
     RDKit          3D

 26 26  0  0  1  0  0  0  0  0999 V2000
   10.7099  -12.6370  -12.4626 N   0  0  0  0  0  0  0  0  0  0  0  0
   10.7748  -11.3206  -12.9620 C   0  0  0  0  0  0  0  0  0  0  0  0
    9.7508  -10.5997  -12.9802 O   0  0  0  0  0  0  0  0  0  0  0  0
   12.0709  -10.7784  -13.4727 C   0  0  0  0  0  0  0  0  0  0  0  0
   13.1486  -11.7805  -13.2361 C   0  0  0  0  0  0  0  0  0  0  0  0
   13.8208  -12.1935  -14.5277 C   0  0  2  0  0  0  0  0  0  0  0  0
   13.6468  -13.6596  -14.5696 N   0  0  0  0  0  0  0  0  0  0  0  0
   15.2558  -11.9313  -14.5904 C   0  0  0  0  0  0  0  0  0  0  0  0
   16.0442  -12.4250  -13.7057 O   0  0  0  0  0  0  0  0  0  0  0  0
   17.4673  -11.2065  -17.9717 O   0  0  0  0  0  0  0  0  0  0  0  0
   17.9973  -11.6535  -16.7742 C   0  0  0  0  0  0  0  0  0  0  0  0
   17.3366  -10.9865  -15.6009 C   0  0  2  0  0  0  0  0  0  0  0  0
   15.9165  -11.1582  -15.5670 N   0  0  0  0  0  0  0  0  0  0  0  0
   17.7371   -9.5480  -15.5377 C   0  0  0  0  0  0  0  0  0  0  0  0
   16.9852   -8.6407  -15.9814 O   0  0  0  0  0  0  0  0  0  0  0  0
   18.9772   -9.1710  -14.9740 N   0  0  0  0  0  0  0  0  0  0  0  0
   19.5429   -7.8389  -15.0458 C   0  0  1  0  0  0  0  0  0  0  0  0
   20.8797   -7.7534  -14.3747 C   0  0  0  0  0  0  0  0  0  0  0  0
   21.3436   -6.3482  -14.4323 C   0  0  0  0  0  0  0  0  0  0  0  0
   20.6450   -5.2675  -14.9005 C   0  0  0  0  0  0  0  0  0  0  0  0
   21.4230   -4.1796  -14.7835 N   0  0  0  0  0  0  0  0  0  0  0  0
   22.5866   -4.5859  -14.2500 C   0  0  0  0  0  0  0  0  0  0  0  0
   22.5424   -5.9116  -14.0338 N   0  0  0  0  0  0  0  0  0  0  0  0
   19.5660   -7.3090  -16.4190 C   0  0  0  0  0  0  0  0  0  0  0  0
   19.1152   -6.0203  -16.6482 O   0  0  0  0  0  0  0  0  0  0  0  0
   19.9777   -7.9747  -17.4016 O   0  0  0  0  0  0  0  0  0  0  0  0
  1  2  1  0
  2  4  1  0
  2  3  2  0
  4  5  1  0
  6  5  1  0
  6  8  1  0
  6  7  1  1
  8  9  2  0
 10 11  1  0
 12 11  1  6
 12 14  1  0
 13  8  1  0
 13 12  1  0
 14 15  2  0
 16 17  1  0
 16 14  1  0
 17 24  1  0
 17 18  1  6
 19 18  1  0
 20 19  2  0
 21 22  1  0
 21 20  1  0
 22 23  2  0
 23 19  1  0
 24 26  2  0
 24 25  1  0
M  END
$$$$
