QSH.pdb
     RDKit          3D

 26 26  0  0  1  0  0  0  0  0999 V2000
   38.6501  -36.0667  -12.8061 N   0  0  0  0  0  0  0  0  0  0  0  0
   37.2772  -36.0458  -13.1246 C   0  0  0  0  0  0  0  0  0  0  0  0
   36.7061  -37.0840  -13.5302 O   0  0  0  0  0  0  0  0  0  0  0  0
   36.4955  -34.7802  -12.9780 C   0  0  0  0  0  0  0  0  0  0  0  0
   37.4043  -33.6938  -12.5137 C   0  0  0  0  0  0  0  0  0  0  0  0
   36.6567  -32.3967  -12.2918 C   0  0  2  0  0  0  0  0  0  0  0  0
   35.5726  -32.7630  -11.3580 N   0  0  0  0  0  0  0  0  0  0  0  0
   36.0242  -31.8349  -13.4819 C   0  0  0  0  0  0  0  0  0  0  0  0
   34.7707  -32.0122  -13.6947 O   0  0  0  0  0  0  0  0  0  0  0  0
   38.1384  -30.7424  -16.6440 O   0  0  0  0  0  0  0  0  0  0  0  0
   36.9108  -30.1091  -16.7264 C   0  0  0  0  0  0  0  0  0  0  0  0
   35.9857  -30.5653  -15.6337 C   0  0  2  0  0  0  0  0  0  0  0  0
   36.6644  -31.0732  -14.4810 N   0  0  0  0  0  0  0  0  0  0  0  0
   34.9881  -31.5352  -16.1793 C   0  0  0  0  0  0  0  0  0  0  0  0
   34.9159  -32.7136  -15.7417 O   0  0  0  0  0  0  0  0  0  0  0  0
   34.0966  -31.1487  -17.2057 N   0  0  0  0  0  0  0  0  0  0  0  0
   32.7241  -31.6001  -17.3170 C   0  0  1  0  0  0  0  0  0  0  0  0
   31.9152  -31.2606  -16.1024 C   0  0  0  0  0  0  0  0  0  0  0  0
   30.5854  -31.8994  -16.2319 C   0  0  0  0  0  0  0  0  0  0  0  0
   30.1488  -32.6951  -17.2573 C   0  0  0  0  0  0  0  0  0  0  0  0
   28.8852  -33.0650  -16.9954 N   0  0  0  0  0  0  0  0  0  0  0  0
   28.5479  -32.5036  -15.8230 C   0  0  0  0  0  0  0  0  0  0  0  0
   29.5848  -31.7896  -15.3526 N   0  0  0  0  0  0  0  0  0  0  0  0
   32.0829  -31.1541  -18.5647 C   0  0  0  0  0  0  0  0  0  0  0  0
   31.2304  -32.0206  -19.2274 O   0  0  0  0  0  0  0  0  0  0  0  0
   32.2734  -30.0165  -19.0623 O   0  0  0  0  0  0  0  0  0  0  0  0
  1  2  1  0
  2  4  1  0
  2  3  2  0
  4  5  1  0
  6  5  1  0
  6  8  1  0
  6  7  1  1
  8  9  2  0
 10 11  1  0
 12 11  1  6
 12 14  1  0
 13  8  1  0
 13 12  1  0
 14 15  2  0
 16 17  1  0
 16 14  1  0
 17 24  1  0
 17 18  1  1
 19 18  1  0
 20 19  2  0
 21 22  1  0
 21 20  1  0
 22 23  2  0
 23 19  1  0
 24 26  2  0
 24 25  1  0
M  END
$$$$
