QSH.pdb
     RDKit          3D

 26 26  0  0  1  0  0  0  0  0999 V2000
   14.9880  -14.0902  -15.5519 N   0  0  0  0  0  0  0  0  0  0  0  0
   16.0270  -13.3875  -14.9091 C   0  0  0  0  0  0  0  0  0  0  0  0
   15.7807  -12.6589  -13.9206 O   0  0  0  0  0  0  0  0  0  0  0  0
   17.4313  -13.5105  -15.4064 C   0  0  0  0  0  0  0  0  0  0  0  0
   18.0878  -12.1733  -15.3562 C   0  0  0  0  0  0  0  0  0  0  0  0
   17.6323  -11.2842  -16.4932 C   0  0  2  0  0  0  0  0  0  0  0  0
   18.2614  -11.8807  -17.6889 N   0  0  0  0  0  0  0  0  0  0  0  0
   18.0874   -9.8989  -16.4167 C   0  0  0  0  0  0  0  0  0  0  0  0
   19.2836   -9.5895  -16.7648 O   0  0  0  0  0  0  0  0  0  0  0  0
   17.3150   -5.1379  -15.8073 O   0  0  0  0  0  0  0  0  0  0  0  0
   16.7669   -6.4076  -15.8517 C   0  0  0  0  0  0  0  0  0  0  0  0
   17.8350   -7.4620  -15.9254 C   0  0  2  0  0  0  0  0  0  0  0  0
   17.3220   -8.7964  -15.9843 N   0  0  0  0  0  0  0  0  0  0  0  0
   18.8137   -7.2779  -14.8110 C   0  0  0  0  0  0  0  0  0  0  0  0
   18.6777   -7.8837  -13.7156 O   0  0  0  0  0  0  0  0  0  0  0  0
   19.9219   -6.4139  -14.9627 N   0  0  0  0  0  0  0  0  0  0  0  0
   20.9280   -6.1795  -13.9465 C   0  0  1  0  0  0  0  0  0  0  0  0
   21.6790   -7.4270  -13.5936 C   0  0  0  0  0  0  0  0  0  0  0  0
   22.4127   -7.8875  -14.7948 C   0  0  0  0  0  0  0  0  0  0  0  0
   22.4007   -7.3149  -16.0386 C   0  0  0  0  0  0  0  0  0  0  0  0
   23.1917   -8.0408  -16.8446 N   0  0  0  0  0  0  0  0  0  0  0  0
   23.6842   -9.0484  -16.1059 C   0  0  0  0  0  0  0  0  0  0  0  0
   23.2102   -8.9586  -14.8516 N   0  0  0  0  0  0  0  0  0  0  0  0
   21.8214   -5.0597  -14.2849 C   0  0  0  0  0  0  0  0  0  0  0  0
   22.7942   -4.6796  -13.3760 O   0  0  0  0  0  0  0  0  0  0  0  0
   21.7436   -4.4261  -15.3669 O   0  0  0  0  0  0  0  0  0  0  0  0
  1  2  1  0
  2  4  1  0
  2  3  2  0
  4  5  1  0
  6  5  1  0
  6  8  1  0
  6  7  1  6
  8  9  2  0
 10 11  1  0
 12 11  1  1
 12 14  1  0
 13  8  1  0
 13 12  1  0
 14 15  2  0
 16 17  1  0
 16 14  1  0
 17 24  1  0
 17 18  1  6
 19 18  1  0
 20 19  2  0
 21 22  1  0
 21 20  1  0
 22 23  2  0
 23 19  1  0
 24 26  2  0
 24 25  1  0
M  END
$$$$
