QSH.pdb
     RDKit          3D

 26 26  0  0  1  0  0  0  0  0999 V2000
    9.6751   -9.3032   -8.0395 N   0  0  0  0  0  0  0  0  0  0  0  0
   10.8196   -9.1931   -8.8547 C   0  0  0  0  0  0  0  0  0  0  0  0
   11.6062   -8.2287   -8.7137 O   0  0  0  0  0  0  0  0  0  0  0  0
   11.0996  -10.2309   -9.8934 C   0  0  0  0  0  0  0  0  0  0  0  0
   12.5627  -10.2582  -10.1770 C   0  0  0  0  0  0  0  0  0  0  0  0
   12.9012  -11.2469  -11.2717 C   0  0  2  0  0  0  0  0  0  0  0  0
   12.7448  -12.5654  -10.6250 N   0  0  0  0  0  0  0  0  0  0  0  0
   14.2721  -11.1746  -11.7693 C   0  0  0  0  0  0  0  0  0  0  0  0
   15.1794  -11.9416  -11.2830 O   0  0  0  0  0  0  0  0  0  0  0  0
   15.4631  -10.3754  -15.5379 O   0  0  0  0  0  0  0  0  0  0  0  0
   16.2819  -10.9568  -14.5859 C   0  0  0  0  0  0  0  0  0  0  0  0
   16.0988  -10.3130  -13.2405 C   0  0  2  0  0  0  0  0  0  0  0  0
   14.7432  -10.3146  -12.7825 N   0  0  0  0  0  0  0  0  0  0  0  0
   16.6965   -8.9432  -13.2429 C   0  0  0  0  0  0  0  0  0  0  0  0
   16.0679   -7.9572  -13.7100 O   0  0  0  0  0  0  0  0  0  0  0  0
   17.9895   -8.7220  -12.7169 N   0  0  0  0  0  0  0  0  0  0  0  0
   18.6999   -7.4607  -12.7821 C   0  0  1  0  0  0  0  0  0  0  0  0
   19.2724   -7.0629  -11.4559 C   0  0  0  0  0  0  0  0  0  0  0  0
   18.1557   -6.6975  -10.5545 C   0  0  0  0  0  0  0  0  0  0  0  0
   16.8213   -6.6752  -10.8614 C   0  0  0  0  0  0  0  0  0  0  0  0
   16.1442   -6.2841   -9.7702 N   0  0  0  0  0  0  0  0  0  0  0  0
   17.0508   -6.0679   -8.8034 C   0  0  0  0  0  0  0  0  0  0  0  0
   18.2824   -6.3193   -9.2788 N   0  0  0  0  0  0  0  0  0  0  0  0
   19.7016   -7.4325  -13.8604 C   0  0  0  0  0  0  0  0  0  0  0  0
   20.3765   -6.2514  -14.1180 O   0  0  0  0  0  0  0  0  0  0  0  0
   19.9760   -8.4358  -14.5648 O   0  0  0  0  0  0  0  0  0  0  0  0
  1  2  1  0
  2  4  1  0
  2  3  2  0
  4  5  1  0
  6  5  1  0
  6  8  1  0
  6  7  1  1
  8  9  2  0
 10 11  1  0
 12 11  1  6
 12 14  1  0
 13  8  1  0
 13 12  1  0
 14 15  2  0
 16 17  1  0
 16 14  1  0
 17 24  1  0
 17 18  1  1
 19 18  1  0
 20 19  2  0
 21 22  1  0
 21 20  1  0
 22 23  2  0
 23 19  1  0
 24 26  2  0
 24 25  1  0
M  END
$$$$
