QSH.pdb
     RDKit          3D

 26 26  0  0  1  0  0  0  0  0999 V2000
   13.5742  -21.5223    0.7438 N   0  0  0  0  0  0  0  0  0  0  0  0
   13.9426  -20.7864    1.8880 C   0  0  0  0  0  0  0  0  0  0  0  0
   13.8342  -21.2934    3.0281 O   0  0  0  0  0  0  0  0  0  0  0  0
   14.4663  -19.3937    1.7440 C   0  0  0  0  0  0  0  0  0  0  0  0
   15.7453  -19.2706    2.4994 C   0  0  0  0  0  0  0  0  0  0  0  0
   15.5344  -18.6307    3.8546 C   0  0  2  0  0  0  0  0  0  0  0  0
   15.7261  -17.1880    3.6036 N   0  0  0  0  0  0  0  0  0  0  0  0
   16.4994  -19.0184    4.8796 C   0  0  0  0  0  0  0  0  0  0  0  0
   17.6687  -18.4892    4.9021 O   0  0  0  0  0  0  0  0  0  0  0  0
   15.6038  -19.9949    8.6252 O   0  0  0  0  0  0  0  0  0  0  0  0
   16.9037  -19.6806    8.2701 C   0  0  0  0  0  0  0  0  0  0  0  0
   17.2538  -20.2444    6.9219 C   0  0  2  0  0  0  0  0  0  0  0  0
   16.2844  -19.9570    5.9096 N   0  0  0  0  0  0  0  0  0  0  0  0
   17.5391  -21.7069    7.0371 C   0  0  0  0  0  0  0  0  0  0  0  0
   16.6736  -22.5675    6.7276 O   0  0  0  0  0  0  0  0  0  0  0  0
   18.7957  -22.1602    7.4987 N   0  0  0  0  0  0  0  0  0  0  0  0
   19.1199  -23.5449    7.7766 C   0  0  1  0  0  0  0  0  0  0  0  0
   20.3445  -23.9990    7.0425 C   0  0  0  0  0  0  0  0  0  0  0  0
   20.0058  -24.1373    5.6074 C   0  0  0  0  0  0  0  0  0  0  0  0
   18.8004  -23.8706    5.0149 C   0  0  0  0  0  0  0  0  0  0  0  0
   18.9090  -24.1307    3.7023 N   0  0  0  0  0  0  0  0  0  0  0  0
   20.1660  -24.5527    3.4895 C   0  0  0  0  0  0  0  0  0  0  0  0
   20.8403  -24.5585    4.6520 N   0  0  0  0  0  0  0  0  0  0  0  0
   19.1887  -23.8298    9.2191 C   0  0  0  0  0  0  0  0  0  0  0  0
   19.4506  -25.1239    9.6354 O   0  0  0  0  0  0  0  0  0  0  0  0
   19.0193  -22.9488   10.0985 O   0  0  0  0  0  0  0  0  0  0  0  0
  1  2  1  0
  2  4  1  0
  2  3  2  0
  4  5  1  0
  6  5  1  0
  6  8  1  0
  6  7  1  6
  8  9  2  0
 10 11  1  0
 12 11  1  1
 12 14  1  0
 13  8  1  0
 13 12  1  0
 14 15  2  0
 16 17  1  0
 16 14  1  0
 17 24  1  0
 17 18  1  6
 19 18  1  0
 20 19  2  0
 21 22  1  0
 21 20  1  0
 22 23  2  0
 23 19  1  0
 24 26  2  0
 24 25  1  0
M  END
$$$$
