QSH.pdb
     RDKit          3D

 26 26  0  0  1  0  0  0  0  0999 V2000
   25.2373  -20.0816   -8.3014 N   0  0  0  0  0  0  0  0  0  0  0  0
   26.3868  -20.7556   -8.7605 C   0  0  0  0  0  0  0  0  0  0  0  0
   27.3093  -21.0469   -7.9651 O   0  0  0  0  0  0  0  0  0  0  0  0
   26.5088  -21.1271  -10.2033 C   0  0  0  0  0  0  0  0  0  0  0  0
   25.3417  -20.5787  -10.9509 C   0  0  0  0  0  0  0  0  0  0  0  0
   25.4791  -20.8003  -12.4418 C   0  0  2  0  0  0  0  0  0  0  0  0
   26.8684  -21.2731  -12.6074 N   0  0  0  0  0  0  0  0  0  0  0  0
   25.3349  -19.6010  -13.2620 C   0  0  0  0  0  0  0  0  0  0  0  0
   24.2852  -18.8689  -13.1609 O   0  0  0  0  0  0  0  0  0  0  0  0
   27.9324  -18.4539  -16.3885 O   0  0  0  0  0  0  0  0  0  0  0  0
   27.2681  -17.4526  -15.7023 C   0  0  0  0  0  0  0  0  0  0  0  0
   26.0314  -17.9782  -15.0297 C   0  0  2  0  0  0  0  0  0  0  0  0
   26.2686  -19.1223  -14.2039 N   0  0  0  0  0  0  0  0  0  0  0  0
   24.9611  -18.2213  -16.0442 C   0  0  0  0  0  0  0  0  0  0  0  0
   24.7962  -19.3581  -16.5599 O   0  0  0  0  0  0  0  0  0  0  0  0
   24.1037  -17.1736  -16.4500 N   0  0  0  0  0  0  0  0  0  0  0  0
   23.1034  -17.2857  -17.4924 C   0  0  1  0  0  0  0  0  0  0  0  0
   21.7313  -16.9379  -17.0015 C   0  0  0  0  0  0  0  0  0  0  0  0
   20.7615  -17.2169  -18.0854 C   0  0  0  0  0  0  0  0  0  0  0  0
   20.3607  -18.4457  -18.5376 C   0  0  0  0  0  0  0  0  0  0  0  0
   19.4778  -18.2617  -19.5320 N   0  0  0  0  0  0  0  0  0  0  0  0
   19.3370  -16.9356  -19.6903 C   0  0  0  0  0  0  0  0  0  0  0  0
   20.1206  -16.2927  -18.8077 N   0  0  0  0  0  0  0  0  0  0  0  0
   23.4717  -16.5447  -18.7098 C   0  0  0  0  0  0  0  0  0  0  0  0
   23.2390  -17.1257  -19.9447 O   0  0  0  0  0  0  0  0  0  0  0  0
   23.9918  -15.4015  -18.6830 O   0  0  0  0  0  0  0  0  0  0  0  0
  1  2  1  0
  2  4  1  0
  2  3  2  0
  4  5  1  0
  6  5  1  0
  6  8  1  0
  6  7  1  1
  8  9  2  0
 10 11  1  0
 12 11  1  6
 12 14  1  0
 13  8  1  0
 13 12  1  0
 14 15  2  0
 16 17  1  0
 16 14  1  0
 17 24  1  0
 17 18  1  1
 19 18  1  0
 20 19  2  0
 21 22  1  0
 21 20  1  0
 22 23  2  0
 23 19  1  0
 24 26  2  0
 24 25  1  0
M  END
$$$$
