QSH.pdb
     RDKit          3D

 26 26  0  0  1  0  0  0  0  0999 V2000
   16.2174  -12.4074  -16.8210 N   0  0  0  0  0  0  0  0  0  0  0  0
   16.9683  -13.1081  -17.7862 C   0  0  0  0  0  0  0  0  0  0  0  0
   16.4036  -13.6083  -18.7860 O   0  0  0  0  0  0  0  0  0  0  0  0
   18.4463  -13.2566  -17.6195 C   0  0  0  0  0  0  0  0  0  0  0  0
   18.8653  -12.5955  -16.3510 C   0  0  0  0  0  0  0  0  0  0  0  0
   19.6768  -11.3454  -16.6142 C   0  0  2  0  0  0  0  0  0  0  0  0
   21.0609  -11.8402  -16.7585 N   0  0  0  0  0  0  0  0  0  0  0  0
   19.6825  -10.3704  -15.5272 C   0  0  0  0  0  0  0  0  0  0  0  0
   20.7837   -9.8335  -15.1438 O   0  0  0  0  0  0  0  0  0  0  0  0
   19.2206   -6.5164  -13.6319 O   0  0  0  0  0  0  0  0  0  0  0  0
   19.2089   -7.5694  -14.5295 C   0  0  0  0  0  0  0  0  0  0  0  0
   18.5877   -8.7967  -13.9246 C   0  0  2  0  0  0  0  0  0  0  0  0
   18.5550   -9.9201  -14.8101 N   0  0  0  0  0  0  0  0  0  0  0  0
   17.2381   -8.4683  -13.3729 C   0  0  0  0  0  0  0  0  0  0  0  0
   16.2781   -8.1682  -14.1305 O   0  0  0  0  0  0  0  0  0  0  0  0
   17.0071   -8.4877  -11.9786 N   0  0  0  0  0  0  0  0  0  0  0  0
   15.7371   -8.1840  -11.3504 C   0  0  1  0  0  0  0  0  0  0  0  0
   15.6343   -8.7604   -9.9713 C   0  0  0  0  0  0  0  0  0  0  0  0
   14.2422   -8.5905   -9.4954 C   0  0  0  0  0  0  0  0  0  0  0  0
   13.1839   -8.0873  -10.2038 C   0  0  0  0  0  0  0  0  0  0  0  0
   12.1018   -8.0970   -9.4092 N   0  0  0  0  0  0  0  0  0  0  0  0
   12.4895   -8.5998   -8.2259 C   0  0  0  0  0  0  0  0  0  0  0  0
   13.7980   -8.9028   -8.2741 N   0  0  0  0  0  0  0  0  0  0  0  0
   15.4190   -6.7472  -11.3866 C   0  0  0  0  0  0  0  0  0  0  0  0
   14.1022   -6.3560  -11.5587 O   0  0  0  0  0  0  0  0  0  0  0  0
   16.2914   -5.8509  -11.2686 O   0  0  0  0  0  0  0  0  0  0  0  0
  1  2  1  0
  2  4  1  0
  2  3  2  0
  4  5  1  0
  6  5  1  0
  6  8  1  0
  6  7  1  1
  8  9  2  0
 10 11  1  0
 12 11  1  6
 12 14  1  0
 13  8  1  0
 13 12  1  0
 14 15  2  0
 16 17  1  0
 16 14  1  0
 17 24  1  0
 17 18  1  1
 19 18  1  0
 20 19  2  0
 21 22  1  0
 21 20  1  0
 22 23  2  0
 23 19  1  0
 24 26  2  0
 24 25  1  0
M  END
$$$$
