PIN.pdb
     RDKit          3D

 24 24  0  0  1  0  0  0  0  0999 V2000
   27.5522  -19.6578  -15.1141 N   0  0  0  0  0  0  0  0  0  0  0  0
   28.9338  -19.4834  -14.7784 C   0  0  0  0  0  0  0  0  0  0  0  0
   29.6373  -20.7812  -15.1773 C   0  0  0  0  0  0  0  0  0  0  0  0
   28.5176  -21.7855  -14.9303 C   0  0  0  0  0  0  0  0  0  0  0  0
   27.3167  -21.0323  -15.4122 C   0  0  1  0  0  0  0  0  0  0  0  0
   26.1103  -21.4841  -14.6289 C   0  0  0  0  0  0  0  0  0  0  0  0
   25.7446  -22.6713  -14.8684 O   0  0  0  0  0  0  0  0  0  0  0  0
   26.0790  -20.4821   -9.4616 C   0  0  0  0  0  0  0  0  0  0  0  0
   25.7745  -21.1137  -10.8069 C   0  0  0  0  0  0  0  0  0  0  0  0
   24.5669  -20.4395  -11.4189 C   0  0  2  0  0  0  0  0  0  0  0  0
   23.3607  -20.9930  -10.6451 C   0  0  0  0  0  0  0  0  0  0  0  0
   24.4007  -20.9254  -12.8654 C   0  0  2  0  0  0  0  0  0  0  0  0
   25.4858  -20.6125  -13.7213 N   0  0  0  0  0  0  0  0  0  0  0  0
   23.0939  -20.5227  -13.3603 C   0  0  0  0  0  0  0  0  0  0  0  0
   22.6828  -19.3215  -13.3896 O   0  0  0  0  0  0  0  0  0  0  0  0
   18.3470  -20.5040  -15.6791 N   0  0  0  0  0  0  0  0  0  0  0  0
   19.1497  -21.5917  -16.1853 C   0  0  0  0  0  0  0  0  0  0  0  0
   18.6407  -22.2335  -17.1247 O   0  0  0  0  0  0  0  0  0  0  0  0
   20.4608  -21.8764  -15.6000 C   0  0  0  0  0  0  0  0  0  0  0  0
   20.8503  -21.0029  -14.4410 C   0  0  2  0  0  0  0  0  0  0  0  0
   22.1273  -21.4537  -13.8706 N   0  0  0  0  0  0  0  0  0  0  0  0
   19.8906  -21.0787  -13.2999 C   0  0  0  0  0  0  0  0  0  0  0  0
   19.9476  -21.9986  -12.4120 O   0  0  0  0  0  0  0  0  0  0  0  0
   18.8705  -20.1674  -13.1118 O   0  0  0  0  0  0  0  0  0  0  0  0
  2  1  1  0
  3  2  1  0
  4  5  1  0
  4  3  1  0
  5  1  1  0
  5  6  1  1
  6  7  2  0
  8  9  1  0
  9 10  1  0
 10 12  1  0
 10 11  1  1
 12 13  1  6
 13  6  1  0
 14 12  1  0
 15 14  2  0
 17 16  1  0
 17 18  2  0
 19 17  1  0
 20 19  1  6
 20 21  1  0
 21 14  1  0
 22 24  1  0
 22 20  1  0
 23 22  2  0
M  END
$$$$
