PIN.pdb
     RDKit          3D

 24 24  0  0  1  0  0  0  0  0999 V2000
   28.5411  -20.4281  -15.5948 N   0  0  0  0  0  0  0  0  0  0  0  0
   28.5680  -19.6155  -16.7741 C   0  0  0  0  0  0  0  0  0  0  0  0
   28.3717  -18.1737  -16.3037 C   0  0  0  0  0  0  0  0  0  0  0  0
   27.4766  -18.4017  -15.0912 C   0  0  0  0  0  0  0  0  0  0  0  0
   28.0679  -19.6443  -14.5015 C   0  0  1  0  0  0  0  0  0  0  0  0
   26.9793  -20.4191  -13.8030 C   0  0  0  0  0  0  0  0  0  0  0  0
   26.5766  -21.4402  -14.4321 O   0  0  0  0  0  0  0  0  0  0  0  0
   26.8203  -20.0397   -8.3939 C   0  0  0  0  0  0  0  0  0  0  0  0
   26.5327  -20.7933   -9.6789 C   0  0  0  0  0  0  0  0  0  0  0  0
   25.3334  -20.1793  -10.3660 C   0  0  2  0  0  0  0  0  0  0  0  0
   24.1167  -20.9239   -9.7955 C   0  0  0  0  0  0  0  0  0  0  0  0
   25.3794  -20.5266  -11.8604 C   0  0  2  0  0  0  0  0  0  0  0  0
   26.4923  -19.9925  -12.5563 N   0  0  0  0  0  0  0  0  0  0  0  0
   24.0861  -20.2397  -12.4603 C   0  0  0  0  0  0  0  0  0  0  0  0
   23.6124  -19.0704  -12.6058 O   0  0  0  0  0  0  0  0  0  0  0  0
   19.7545  -22.8458  -16.1420 N   0  0  0  0  0  0  0  0  0  0  0  0
   20.3199  -21.7967  -15.3275 C   0  0  0  0  0  0  0  0  0  0  0  0
   19.6925  -20.7197  -15.3398 O   0  0  0  0  0  0  0  0  0  0  0  0
   21.5446  -22.0350  -14.5621 C   0  0  0  0  0  0  0  0  0  0  0  0
   21.9409  -20.9303  -13.6237 C   0  0  2  0  0  0  0  0  0  0  0  0
   23.2061  -21.2613  -12.9535 N   0  0  0  0  0  0  0  0  0  0  0  0
   20.9721  -20.7344  -12.5047 C   0  0  0  0  0  0  0  0  0  0  0  0
   20.9018  -21.5328  -11.5070 O   0  0  0  0  0  0  0  0  0  0  0  0
   20.0797  -19.6819  -12.4567 O   0  0  0  0  0  0  0  0  0  0  0  0
  2  1  1  0
  3  2  1  0
  4  5  1  0
  4  3  1  0
  5  1  1  0
  5  6  1  6
  6  7  2  0
  8  9  1  0
  9 10  1  0
 10 12  1  0
 10 11  1  1
 12 13  1  6
 13  6  1  0
 14 12  1  0
 15 14  2  0
 17 16  1  0
 17 18  2  0
 19 17  1  0
 20 19  1  6
 20 21  1  0
 21 14  1  0
 22 24  1  0
 22 20  1  0
 23 22  2  0
M  END
$$$$
