PIN.pdb
     RDKit          3D

 24 24  0  0  1  0  0  0  0  0999 V2000
   24.9685  -22.6717  -15.4082 N   0  0  0  0  0  0  0  0  0  0  0  0
   25.8214  -23.8177  -15.5135 C   0  0  0  0  0  0  0  0  0  0  0  0
   24.8963  -25.0262  -15.6631 C   0  0  0  0  0  0  0  0  0  0  0  0
   23.7028  -24.5601  -14.8377 C   0  0  0  0  0  0  0  0  0  0  0  0
   23.6274  -23.1088  -15.1979 C   0  0  1  0  0  0  0  0  0  0  0  0
   23.0608  -22.3443  -14.0285 C   0  0  0  0  0  0  0  0  0  0  0  0
   23.9102  -22.0360  -13.1429 O   0  0  0  0  0  0  0  0  0  0  0  0
   20.8319  -18.0001  -14.4669 C   0  0  0  0  0  0  0  0  0  0  0  0
   21.4394  -19.1025  -13.6200 C   0  0  0  0  0  0  0  0  0  0  0  0
   20.3588  -20.0789  -13.2122 C   0  0  2  0  0  0  0  0  0  0  0  0
   19.8166  -19.5459  -11.8772 C   0  0  0  0  0  0  0  0  0  0  0  0
   21.0024  -21.4359  -12.8958 C   0  0  2  0  0  0  0  0  0  0  0  0
   21.6926  -22.0290  -13.9820 N   0  0  0  0  0  0  0  0  0  0  0  0
   20.0215  -22.2942  -12.2508 C   0  0  0  0  0  0  0  0  0  0  0  0
   19.1215  -22.9393  -12.8726 O   0  0  0  0  0  0  0  0  0  0  0  0
   18.4434  -24.5862   -6.6628 N   0  0  0  0  0  0  0  0  0  0  0  0
   18.5328  -24.6740   -8.1008 C   0  0  0  0  0  0  0  0  0  0  0  0
   17.7862  -25.5217   -8.6276 O   0  0  0  0  0  0  0  0  0  0  0  0
   19.4520  -23.8053   -8.8377 C   0  0  0  0  0  0  0  0  0  0  0  0
   19.0031  -23.4195  -10.2189 C   0  0  2  0  0  0  0  0  0  0  0  0
   19.9723  -22.4999  -10.8308 N   0  0  0  0  0  0  0  0  0  0  0  0
   17.7183  -22.6591  -10.2278 C   0  0  0  0  0  0  0  0  0  0  0  0
   16.5981  -23.2031  -10.5227 O   0  0  0  0  0  0  0  0  0  0  0  0
   17.6360  -21.3155   -9.9200 O   0  0  0  0  0  0  0  0  0  0  0  0
  2  1  1  0
  3  2  1  0
  4  5  1  0
  4  3  1  0
  5  1  1  0
  5  6  1  1
  6  7  2  0
  8  9  1  0
  9 10  1  0
 10 12  1  0
 10 11  1  1
 12 13  1  6
 13  6  1  0
 14 12  1  0
 15 14  2  0
 17 16  1  0
 17 18  2  0
 19 17  1  0
 20 19  1  1
 20 21  1  0
 21 14  1  0
 22 24  1  0
 22 20  1  0
 23 22  2  0
M  END
$$$$
