PIN.pdb
     RDKit          3D

 24 24  0  0  1  0  0  0  0  0999 V2000
   37.1309   -7.4751  -14.1213 N   0  0  0  0  0  0  0  0  0  0  0  0
   37.0093   -6.4089  -15.0702 C   0  0  0  0  0  0  0  0  0  0  0  0
   38.4360   -5.9845  -15.4208 C   0  0  0  0  0  0  0  0  0  0  0  0
   39.1369   -6.2632  -14.0963 C   0  0  0  0  0  0  0  0  0  0  0  0
   38.4797   -7.5365  -13.6622 C   0  0  1  0  0  0  0  0  0  0  0  0
   38.4625   -7.5880  -12.1555 C   0  0  0  0  0  0  0  0  0  0  0  0
   37.4361   -7.0724  -11.6252 O   0  0  0  0  0  0  0  0  0  0  0  0
   40.3306  -12.0546   -9.8928 C   0  0  0  0  0  0  0  0  0  0  0  0
   39.5700  -10.7755  -10.1880 C   0  0  0  0  0  0  0  0  0  0  0  0
   40.2973   -9.6022   -9.5703 C   0  0  2  0  0  0  0  0  0  0  0  0
   40.0089   -9.6965   -8.0642 C   0  0  0  0  0  0  0  0  0  0  0  0
   39.6412   -8.2986  -10.0458 C   0  0  2  0  0  0  0  0  0  0  0  0
   39.5285   -8.1740  -11.4529 N   0  0  0  0  0  0  0  0  0  0  0  0
   40.2736   -7.1714   -9.3793 C   0  0  0  0  0  0  0  0  0  0  0  0
   41.4405   -6.7486   -9.6483 O   0  0  0  0  0  0  0  0  0  0  0  0
   41.3657   -3.3916   -5.8480 N   0  0  0  0  0  0  0  0  0  0  0  0
   39.9311   -3.5104   -5.9554 C   0  0  0  0  0  0  0  0  0  0  0  0
   39.2792   -2.7000   -5.2686 O   0  0  0  0  0  0  0  0  0  0  0  0
   39.3376   -4.5282   -6.8240 C   0  0  0  0  0  0  0  0  0  0  0  0
   40.3110   -5.2921   -7.6768 C   0  0  2  0  0  0  0  0  0  0  0  0
   39.6345   -6.4159   -8.3391 N   0  0  0  0  0  0  0  0  0  0  0  0
   41.4045   -5.9338   -6.8885 C   0  0  0  0  0  0  0  0  0  0  0  0
   42.6319   -5.5920   -7.0086 O   0  0  0  0  0  0  0  0  0  0  0  0
   41.1805   -6.9416   -5.9717 O   0  0  0  0  0  0  0  0  0  0  0  0
  2  1  1  0
  3  2  1  0
  4  5  1  0
  4  3  1  0
  5  1  1  0
  5  6  1  1
  6  7  2  0
  8  9  1  0
  9 10  1  0
 10 12  1  0
 10 11  1  1
 12 13  1  6
 13  6  1  0
 14 12  1  0
 15 14  2  0
 17 16  1  0
 17 18  2  0
 19 17  1  0
 20 19  1  1
 20 21  1  0
 21 14  1  0
 22 24  1  0
 22 20  1  0
 23 22  2  0
M  END
$$$$
