PIN.pdb
     RDKit          3D

 24 24  0  0  1  0  0  0  0  0999 V2000
   27.3684  -19.3454  -15.0952 N   0  0  0  0  0  0  0  0  0  0  0  0
   28.6662  -18.8061  -14.8185 C   0  0  0  0  0  0  0  0  0  0  0  0
   29.6609  -19.9424  -15.0585 C   0  0  0  0  0  0  0  0  0  0  0  0
   28.8095  -21.1403  -14.6543 C   0  0  0  0  0  0  0  0  0  0  0  0
   27.4683  -20.7638  -15.2029 C   0  0  1  0  0  0  0  0  0  0  0  0
   26.3970  -21.3785  -14.3383 C   0  0  0  0  0  0  0  0  0  0  0  0
   26.3073  -22.6371  -14.4304 O   0  0  0  0  0  0  0  0  0  0  0  0
   26.1026  -20.4800   -9.2036 C   0  0  0  0  0  0  0  0  0  0  0  0
   25.9208  -21.0667  -10.5908 C   0  0  0  0  0  0  0  0  0  0  0  0
   24.6628  -20.5053  -11.2150 C   0  0  2  0  0  0  0  0  0  0  0  0
   23.5045  -21.1644  -10.4506 C   0  0  0  0  0  0  0  0  0  0  0  0
   24.5542  -21.0063  -12.6618 C   0  0  2  0  0  0  0  0  0  0  0  0
   25.5951  -20.5680  -13.5176 N   0  0  0  0  0  0  0  0  0  0  0  0
   23.2091  -20.7590  -13.1562 C   0  0  0  0  0  0  0  0  0  0  0  0
   22.7306  -19.6023  -13.3699 O   0  0  0  0  0  0  0  0  0  0  0  0
   18.8045  -22.8361  -16.6603 N   0  0  0  0  0  0  0  0  0  0  0  0
   19.0719  -22.6576  -15.2531 C   0  0  0  0  0  0  0  0  0  0  0  0
   18.0718  -22.4148  -14.5501 O   0  0  0  0  0  0  0  0  0  0  0  0
   20.4394  -22.7648  -14.7420 C   0  0  0  0  0  0  0  0  0  0  0  0
   20.9732  -21.5306  -14.0712 C   0  0  2  0  0  0  0  0  0  0  0  0
   22.2777  -21.8099  -13.4552 N   0  0  0  0  0  0  0  0  0  0  0  0
   20.1226  -21.0648  -12.9361 C   0  0  0  0  0  0  0  0  0  0  0  0
   20.1674  -21.6029  -11.7758 O   0  0  0  0  0  0  0  0  0  0  0  0
   19.2247  -20.0216  -13.0463 O   0  0  0  0  0  0  0  0  0  0  0  0
  2  1  1  0
  3  2  1  0
  4  5  1  0
  4  3  1  0
  5  1  1  0
  5  6  1  1
  6  7  2  0
  8  9  1  0
  9 10  1  0
 10 12  1  0
 10 11  1  1
 12 13  1  6
 13  6  1  0
 14 12  1  0
 15 14  2  0
 17 16  1  0
 17 18  2  0
 19 17  1  0
 20 19  1  1
 20 21  1  0
 21 14  1  0
 22 24  1  0
 22 20  1  0
 23 22  2  0
M  END
$$$$
