PIN.pdb
     RDKit          3D

 24 24  0  0  1  0  0  0  0  0999 V2000
   27.2028  -18.9647  -14.9002 N   0  0  0  0  0  0  0  0  0  0  0  0
   28.4859  -18.3492  -14.7371 C   0  0  0  0  0  0  0  0  0  0  0  0
   29.5209  -19.4270  -15.0623 C   0  0  0  0  0  0  0  0  0  0  0  0
   28.7791  -20.6703  -14.5856 C   0  0  0  0  0  0  0  0  0  0  0  0
   27.3758  -20.3755  -15.0160 C   0  0  1  0  0  0  0  0  0  0  0  0
   26.4211  -21.0469  -14.0617 C   0  0  0  0  0  0  0  0  0  0  0  0
   26.3123  -22.2971  -14.2224 O   0  0  0  0  0  0  0  0  0  0  0  0
   26.4797  -20.4755   -8.8613 C   0  0  0  0  0  0  0  0  0  0  0  0
   26.1675  -21.0186  -10.2430 C   0  0  0  0  0  0  0  0  0  0  0  0
   24.8942  -20.3855  -10.7580 C   0  0  2  0  0  0  0  0  0  0  0  0
   23.7586  -21.0887   -9.9990 C   0  0  0  0  0  0  0  0  0  0  0  0
   24.7104  -20.7590  -12.2354 C   0  0  2  0  0  0  0  0  0  0  0  0
   25.7368  -20.2929  -13.0939 N   0  0  0  0  0  0  0  0  0  0  0  0
   23.3599  -20.4173  -12.6528 C   0  0  0  0  0  0  0  0  0  0  0  0
   22.9391  -19.2279  -12.7981 O   0  0  0  0  0  0  0  0  0  0  0  0
   18.8789  -20.6290  -15.3517 N   0  0  0  0  0  0  0  0  0  0  0  0
   19.9508  -21.4549  -15.8543 C   0  0  0  0  0  0  0  0  0  0  0  0
   19.7604  -21.9394  -16.9868 O   0  0  0  0  0  0  0  0  0  0  0  0
   21.1534  -21.6744  -15.0491 C   0  0  0  0  0  0  0  0  0  0  0  0
   21.1308  -21.0574  -13.6791 C   0  0  2  0  0  0  0  0  0  0  0  0
   22.3566  -21.4017  -12.9456 N   0  0  0  0  0  0  0  0  0  0  0  0
   20.0281  -21.5790  -12.8183 C   0  0  0  0  0  0  0  0  0  0  0  0
   19.9737  -22.7980  -12.4324 O   0  0  0  0  0  0  0  0  0  0  0  0
   18.9849  -20.7925  -12.3716 O   0  0  0  0  0  0  0  0  0  0  0  0
  2  1  1  0
  3  2  1  0
  4  5  1  0
  4  3  1  0
  5  1  1  0
  5  6  1  1
  6  7  2  0
  8  9  1  0
  9 10  1  0
 10 12  1  0
 10 11  1  1
 12 13  1  6
 13  6  1  0
 14 12  1  0
 15 14  2  0
 17 16  1  0
 17 18  2  0
 19 17  1  0
 20 19  1  6
 20 21  1  0
 21 14  1  0
 22 24  1  0
 22 20  1  0
 23 22  2  0
M  END
$$$$
