PIN.pdb
     RDKit          3D

 24 24  0  0  1  0  0  0  0  0999 V2000
   27.3845  -19.5875  -15.4217 N   0  0  0  0  0  0  0  0  0  0  0  0
   28.7390  -19.1289  -15.3396 C   0  0  0  0  0  0  0  0  0  0  0  0
   29.6198  -20.3430  -15.6370 C   0  0  0  0  0  0  0  0  0  0  0  0
   28.7520  -21.4568  -15.0630 C   0  0  0  0  0  0  0  0  0  0  0  0
   27.3786  -21.0130  -15.4608 C   0  0  1  0  0  0  0  0  0  0  0  0
   26.3896  -21.5082  -14.4362 C   0  0  0  0  0  0  0  0  0  0  0  0
   26.1409  -22.7468  -14.5037 O   0  0  0  0  0  0  0  0  0  0  0  0
   26.7747  -20.7384   -9.2629 C   0  0  0  0  0  0  0  0  0  0  0  0
   26.3493  -21.2685  -10.6193 C   0  0  0  0  0  0  0  0  0  0  0  0
   25.1579  -20.4812  -11.1175 C   0  0  2  0  0  0  0  0  0  0  0  0
   23.9782  -20.9412  -10.2475 C   0  0  0  0  0  0  0  0  0  0  0  0
   24.8264  -20.9254  -12.5489 C   0  0  2  0  0  0  0  0  0  0  0  0
   25.8237  -20.6187  -13.5077 N   0  0  0  0  0  0  0  0  0  0  0  0
   23.4866  -20.4765  -12.8930 C   0  0  0  0  0  0  0  0  0  0  0  0
   23.1325  -19.2576  -12.9330 O   0  0  0  0  0  0  0  0  0  0  0  0
   18.6608  -20.1777  -14.9371 N   0  0  0  0  0  0  0  0  0  0  0  0
   19.3971  -21.2909  -15.4871 C   0  0  0  0  0  0  0  0  0  0  0  0
   18.8405  -21.8780  -16.4353 O   0  0  0  0  0  0  0  0  0  0  0  0
   20.7002  -21.6604  -14.9321 C   0  0  0  0  0  0  0  0  0  0  0  0
   21.1228  -20.8873  -13.7149 C   0  0  2  0  0  0  0  0  0  0  0  0
   22.4190  -21.3770  -13.2255 N   0  0  0  0  0  0  0  0  0  0  0  0
   20.1999  -21.0674  -12.5552 C   0  0  0  0  0  0  0  0  0  0  0  0
   20.2365  -22.0997  -11.7997 O   0  0  0  0  0  0  0  0  0  0  0  0
   19.2386  -20.1396  -12.2065 O   0  0  0  0  0  0  0  0  0  0  0  0
  2  1  1  0
  3  2  1  0
  4  5  1  0
  4  3  1  0
  5  1  1  0
  5  6  1  1
  6  7  2  0
  8  9  1  0
  9 10  1  0
 10 12  1  0
 10 11  1  1
 12 13  1  6
 13  6  1  0
 14 12  1  0
 15 14  2  0
 17 16  1  0
 17 18  2  0
 19 17  1  0
 20 19  1  6
 20 21  1  0
 21 14  1  0
 22 24  1  0
 22 20  1  0
 23 22  2  0
M  END
$$$$
