PIN.pdb
     RDKit          3D

 24 24  0  0  1  0  0  0  0  0999 V2000
   27.1517  -19.0085  -15.1939 N   0  0  0  0  0  0  0  0  0  0  0  0
   28.4221  -18.3879  -14.9638 C   0  0  0  0  0  0  0  0  0  0  0  0
   29.4782  -19.3936  -15.4238 C   0  0  0  0  0  0  0  0  0  0  0  0
   28.7684  -20.7027  -15.0984 C   0  0  0  0  0  0  0  0  0  0  0  0
   27.3553  -20.3902  -15.4820 C   0  0  1  0  0  0  0  0  0  0  0  0
   26.4238  -21.1950  -14.6117 C   0  0  0  0  0  0  0  0  0  0  0  0
   26.4377  -22.4394  -14.8397 O   0  0  0  0  0  0  0  0  0  0  0  0
   25.6102  -20.0731   -9.3267 C   0  0  0  0  0  0  0  0  0  0  0  0
   25.1827  -19.9352  -10.7758 C   0  0  0  0  0  0  0  0  0  0  0  0
   24.9631  -21.3086  -11.3698 C   0  0  2  0  0  0  0  0  0  0  0  0
   26.3374  -21.9935  -11.3211 C   0  0  0  0  0  0  0  0  0  0  0  0
   24.6161  -21.1618  -12.8578 C   0  0  2  0  0  0  0  0  0  0  0  0
   25.6296  -20.5587  -13.6432 N   0  0  0  0  0  0  0  0  0  0  0  0
   23.2996  -20.5576  -12.9867 C   0  0  0  0  0  0  0  0  0  0  0  0
   23.0947  -19.3851  -13.4294 O   0  0  0  0  0  0  0  0  0  0  0  0
   18.9812  -20.3544  -16.3092 N   0  0  0  0  0  0  0  0  0  0  0  0
   20.0375  -19.9626  -15.4068 C   0  0  0  0  0  0  0  0  0  0  0  0
   20.2272  -18.7342  -15.3142 O   0  0  0  0  0  0  0  0  0  0  0  0
   20.7998  -20.9774  -14.6776 C   0  0  0  0  0  0  0  0  0  0  0  0
   20.7866  -20.8390  -13.1814 C   0  0  2  0  0  0  0  0  0  0  0  0
   22.0868  -21.2341  -12.6223 N   0  0  0  0  0  0  0  0  0  0  0  0
   19.8080  -21.7493  -12.5160 C   0  0  0  0  0  0  0  0  0  0  0  0
   20.0565  -22.9853  -12.2966 O   0  0  0  0  0  0  0  0  0  0  0  0
   18.5637  -21.3328  -12.0862 O   0  0  0  0  0  0  0  0  0  0  0  0
  2  1  1  0
  3  2  1  0
  4  5  1  0
  4  3  1  0
  5  1  1  0
  5  6  1  1
  6  7  2  0
  8  9  1  0
  9 10  1  0
 10 12  1  0
 10 11  1  6
 12 13  1  6
 13  6  1  0
 14 12  1  0
 15 14  2  0
 17 16  1  0
 17 18  2  0
 19 17  1  0
 20 19  1  6
 20 21  1  0
 21 14  1  0
 22 24  1  0
 22 20  1  0
 23 22  2  0
M  END
$$$$
