PIN.pdb
     RDKit          3D

 24 24  0  0  1  0  0  0  0  0999 V2000
   22.2310  -15.7416  -17.7051 N   0  0  0  0  0  0  0  0  0  0  0  0
   21.0688  -16.4188  -18.1976 C   0  0  0  0  0  0  0  0  0  0  0  0
   20.5302  -15.5632  -19.3449 C   0  0  0  0  0  0  0  0  0  0  0  0
   20.9244  -14.1739  -18.8576 C   0  0  0  0  0  0  0  0  0  0  0  0
   22.2734  -14.4286  -18.2600 C   0  0  1  0  0  0  0  0  0  0  0  0
   22.5024  -13.4496  -17.1365 C   0  0  0  0  0  0  0  0  0  0  0  0
   21.7484  -13.6163  -16.1344 O   0  0  0  0  0  0  0  0  0  0  0  0
   27.5088  -11.9486  -15.8210 C   0  0  0  0  0  0  0  0  0  0  0  0
   26.0279  -12.2780  -15.8144 C   0  0  0  0  0  0  0  0  0  0  0  0
   25.2353  -11.0449  -16.1868 C   0  0  2  0  0  0  0  0  0  0  0  0
   25.3300  -10.1200  -14.9637 C   0  0  0  0  0  0  0  0  0  0  0  0
   23.7532  -11.4222  -16.3181 C   0  0  2  0  0  0  0  0  0  0  0  0
   23.4878  -12.4549  -17.2513 N   0  0  0  0  0  0  0  0  0  0  0  0
   22.9643  -10.2141  -16.4999 C   0  0  0  0  0  0  0  0  0  0  0  0
   22.9805   -9.5050  -17.5533 O   0  0  0  0  0  0  0  0  0  0  0  0
   19.2925   -6.4497  -15.7991 N   0  0  0  0  0  0  0  0  0  0  0  0
   18.8588   -7.7414  -15.3227 C   0  0  0  0  0  0  0  0  0  0  0  0
   17.6638   -7.8041  -14.9743 O   0  0  0  0  0  0  0  0  0  0  0  0
   19.7977   -8.8634  -15.2733 C   0  0  0  0  0  0  0  0  0  0  0  0
   21.1849   -8.5626  -15.7664 C   0  0  2  0  0  0  0  0  0  0  0  0
   22.0786   -9.6970  -15.4952 N   0  0  0  0  0  0  0  0  0  0  0  0
   21.8235   -7.4136  -15.0585 C   0  0  0  0  0  0  0  0  0  0  0  0
   22.4600   -7.5514  -13.9569 O   0  0  0  0  0  0  0  0  0  0  0  0
   21.7791   -6.1178  -15.5331 O   0  0  0  0  0  0  0  0  0  0  0  0
  2  1  1  0
  3  2  1  0
  4  5  1  0
  4  3  1  0
  5  1  1  0
  5  6  1  1
  6  7  2  0
  8  9  1  0
  9 10  1  0
 10 12  1  0
 10 11  1  1
 12 13  1  6
 13  6  1  0
 14 12  1  0
 15 14  2  0
 17 16  1  0
 17 18  2  0
 19 17  1  0
 20 19  1  1
 20 21  1  0
 21 14  1  0
 22 24  1  0
 22 20  1  0
 23 22  2  0
M  END
$$$$
