PIN.pdb
     RDKit          3D

 24 24  0  0  1  0  0  0  0  0999 V2000
   27.0604  -19.4980  -15.1277 N   0  0  0  0  0  0  0  0  0  0  0  0
   28.4349  -19.1214  -14.9831 C   0  0  0  0  0  0  0  0  0  0  0  0
   29.2554  -20.3766  -15.2826 C   0  0  0  0  0  0  0  0  0  0  0  0
   28.3039  -21.4527  -14.7726 C   0  0  0  0  0  0  0  0  0  0  0  0
   26.9744  -20.9192  -15.2076 C   0  0  1  0  0  0  0  0  0  0  0  0
   25.9202  -21.3826  -14.2343 C   0  0  0  0  0  0  0  0  0  0  0  0
   25.6333  -22.6119  -14.3186 O   0  0  0  0  0  0  0  0  0  0  0  0
   26.0239  -20.6021   -9.0847 C   0  0  0  0  0  0  0  0  0  0  0  0
   25.6377  -21.1409  -10.4493 C   0  0  0  0  0  0  0  0  0  0  0  0
   24.4845  -20.3337  -11.0025 C   0  0  2  0  0  0  0  0  0  0  0  0
   23.2479  -20.8134  -10.2273 C   0  0  0  0  0  0  0  0  0  0  0  0
   24.2484  -20.7341  -12.4654 C   0  0  2  0  0  0  0  0  0  0  0  0
   25.3401  -20.4763  -13.3312 N   0  0  0  0  0  0  0  0  0  0  0  0
   22.9726  -20.1963  -12.9107 C   0  0  0  0  0  0  0  0  0  0  0  0
   22.7944  -18.9914  -13.2699 O   0  0  0  0  0  0  0  0  0  0  0  0
   18.9627  -20.4350  -16.1922 N   0  0  0  0  0  0  0  0  0  0  0  0
   20.3239  -20.8259  -16.4712 C   0  0  0  0  0  0  0  0  0  0  0  0
   20.5895  -20.9984  -17.6767 O   0  0  0  0  0  0  0  0  0  0  0  0
   21.2828  -20.9935  -15.3779 C   0  0  0  0  0  0  0  0  0  0  0  0
   20.7437  -20.7174  -14.0026 C   0  0  2  0  0  0  0  0  0  0  0  0
   21.7742  -20.9830  -12.9893 N   0  0  0  0  0  0  0  0  0  0  0  0
   19.6141  -21.6169  -13.6232 C   0  0  0  0  0  0  0  0  0  0  0  0
   19.7590  -22.8798  -13.4761 O   0  0  0  0  0  0  0  0  0  0  0  0
   18.3299  -21.1607  -13.4013 O   0  0  0  0  0  0  0  0  0  0  0  0
  2  1  1  0
  3  2  1  0
  4  5  1  0
  4  3  1  0
  5  1  1  0
  5  6  1  1
  6  7  2  0
  8  9  1  0
  9 10  1  0
 10 12  1  0
 10 11  1  1
 12 13  1  6
 13  6  1  0
 14 12  1  0
 15 14  2  0
 17 16  1  0
 17 18  2  0
 19 17  1  0
 20 19  1  6
 20 21  1  0
 21 14  1  0
 22 24  1  0
 22 20  1  0
 23 22  2  0
M  END
$$$$
