PIN.pdb
     RDKit          3D

 24 24  0  0  1  0  0  0  0  0999 V2000
   22.1940  -17.1689  -16.6201 N   0  0  0  0  0  0  0  0  0  0  0  0
   22.2694  -18.5734  -16.3489 C   0  0  0  0  0  0  0  0  0  0  0  0
   21.1971  -18.8635  -15.2979 C   0  0  0  0  0  0  0  0  0  0  0  0
   21.2056  -17.5475  -14.5290 C   0  0  0  0  0  0  0  0  0  0  0  0
   21.3755  -16.5483  -15.6309 C   0  0  1  0  0  0  0  0  0  0  0  0
   22.1143  -15.3491  -15.0929 C   0  0  0  0  0  0  0  0  0  0  0  0
   21.6472  -14.8876  -14.0115 O   0  0  0  0  0  0  0  0  0  0  0  0
   27.4920  -15.0676  -16.0185 C   0  0  0  0  0  0  0  0  0  0  0  0
   26.0942  -14.9778  -15.4356 C   0  0  0  0  0  0  0  0  0  0  0  0
   25.4335  -13.7005  -15.9040 C   0  0  2  0  0  0  0  0  0  0  0  0
   26.1441  -12.5744  -15.1377 C   0  0  0  0  0  0  0  0  0  0  0  0
   23.9758  -13.6846  -15.4235 C   0  0  2  0  0  0  0  0  0  0  0  0
   23.2242  -14.8315  -15.7811 N   0  0  0  0  0  0  0  0  0  0  0  0
   23.3651  -12.4149  -15.7836 C   0  0  0  0  0  0  0  0  0  0  0  0
   23.0693  -12.0787  -16.9719 O   0  0  0  0  0  0  0  0  0  0  0  0
   20.9232   -7.7314  -15.5421 N   0  0  0  0  0  0  0  0  0  0  0  0
   21.0180   -8.2706  -14.2065 C   0  0  0  0  0  0  0  0  0  0  0  0
   20.4596   -7.5943  -13.3209 O   0  0  0  0  0  0  0  0  0  0  0  0
   21.7314   -9.5260  -13.9661 C   0  0  0  0  0  0  0  0  0  0  0  0
   22.2670  -10.2060  -15.1944 C   0  0  2  0  0  0  0  0  0  0  0  0
   23.0321  -11.4036  -14.8204 N   0  0  0  0  0  0  0  0  0  0  0  0
   23.2431   -9.3674  -15.9514 C   0  0  0  0  0  0  0  0  0  0  0  0
   24.4957   -9.3628  -15.6893 O   0  0  0  0  0  0  0  0  0  0  0  0
   22.8748   -8.5346  -16.9893 O   0  0  0  0  0  0  0  0  0  0  0  0
  2  1  1  0
  3  2  1  0
  4  5  1  0
  4  3  1  0
  5  1  1  0
  5  6  1  1
  6  7  2  0
  8  9  1  0
  9 10  1  0
 10 12  1  0
 10 11  1  1
 12 13  1  6
 13  6  1  0
 14 12  1  0
 15 14  2  0
 17 16  1  0
 17 18  2  0
 19 17  1  0
 20 19  1  1
 20 21  1  0
 21 14  1  0
 22 24  1  0
 22 20  1  0
 23 22  2  0
M  END
$$$$
