PIN.pdb
     RDKit          3D

 24 24  0  0  1  0  0  0  0  0999 V2000
   20.3342  -15.4714  -17.3620 N   0  0  0  0  0  0  0  0  0  0  0  0
   19.0353  -15.6876  -17.9257 C   0  0  0  0  0  0  0  0  0  0  0  0
   18.9477  -14.7835  -19.1559 C   0  0  0  0  0  0  0  0  0  0  0  0
   19.8179  -13.6180  -18.7004 C   0  0  0  0  0  0  0  0  0  0  0  0
   20.9196  -14.3228  -17.9717 C   0  0  1  0  0  0  0  0  0  0  0  0
   21.4368  -13.4217  -16.8792 C   0  0  0  0  0  0  0  0  0  0  0  0
   20.7322  -13.4145  -15.8284 O   0  0  0  0  0  0  0  0  0  0  0  0
   26.6968  -13.0085  -15.7456 C   0  0  0  0  0  0  0  0  0  0  0  0
   25.1814  -12.9947  -15.6749 C   0  0  0  0  0  0  0  0  0  0  0  0
   24.6675  -11.6464  -16.1282 C   0  0  2  0  0  0  0  0  0  0  0  0
   25.0127  -10.6785  -14.9862 C   0  0  0  0  0  0  0  0  0  0  0  0
   23.1347  -11.6909  -16.1963 C   0  0  2  0  0  0  0  0  0  0  0  0
   22.6114  -12.6753  -17.0709 N   0  0  0  0  0  0  0  0  0  0  0  0
   22.6241  -10.3463  -16.4110 C   0  0  0  0  0  0  0  0  0  0  0  0
   22.7973   -9.6811  -17.4788 O   0  0  0  0  0  0  0  0  0  0  0  0
   19.7969   -5.9206  -16.0677 N   0  0  0  0  0  0  0  0  0  0  0  0
   19.0975   -7.1780  -16.1834 C   0  0  0  0  0  0  0  0  0  0  0  0
   17.8807   -7.0864  -16.4376 O   0  0  0  0  0  0  0  0  0  0  0  0
   19.8154   -8.4412  -16.0054 C   0  0  0  0  0  0  0  0  0  0  0  0
   21.2833   -8.3101  -15.7122 C   0  0  2  0  0  0  0  0  0  0  0  0
   21.8649   -9.6289  -15.4260 N   0  0  0  0  0  0  0  0  0  0  0  0
   21.5679   -7.5085  -14.4853 C   0  0  0  0  0  0  0  0  0  0  0  0
   21.8791   -8.0477  -13.3672 O   0  0  0  0  0  0  0  0  0  0  0  0
   21.5188   -6.1288  -14.4588 O   0  0  0  0  0  0  0  0  0  0  0  0
  2  1  1  0
  3  2  1  0
  4  5  1  0
  4  3  1  0
  5  1  1  0
  5  6  1  1
  6  7  2  0
  8  9  1  0
  9 10  1  0
 10 12  1  0
 10 11  1  1
 12 13  1  6
 13  6  1  0
 14 12  1  0
 15 14  2  0
 17 16  1  0
 17 18  2  0
 19 17  1  0
 20 19  1  1
 20 21  1  0
 21 14  1  0
 22 24  1  0
 22 20  1  0
 23 22  2  0
M  END
$$$$
