PIN.pdb
     RDKit          3D

 24 24  0  0  1  0  0  0  0  0999 V2000
   27.3951  -19.2912  -15.0555 N   0  0  0  0  0  0  0  0  0  0  0  0
   28.7352  -18.8604  -14.7904 C   0  0  0  0  0  0  0  0  0  0  0  0
   29.6345  -20.0648  -15.0715 C   0  0  0  0  0  0  0  0  0  0  0  0
   28.6990  -21.2018  -14.6775 C   0  0  0  0  0  0  0  0  0  0  0  0
   27.3826  -20.7104  -15.1946 C   0  0  1  0  0  0  0  0  0  0  0  0
   26.2806  -21.2593  -14.3244 C   0  0  0  0  0  0  0  0  0  0  0  0
   26.1084  -22.5088  -14.4226 O   0  0  0  0  0  0  0  0  0  0  0  0
   26.3130  -20.3898   -9.2478 C   0  0  0  0  0  0  0  0  0  0  0  0
   25.9496  -21.0133  -10.5823 C   0  0  0  0  0  0  0  0  0  0  0  0
   24.7275  -20.3229  -11.1455 C   0  0  2  0  0  0  0  0  0  0  0  0
   23.5427  -20.8817  -10.3429 C   0  0  0  0  0  0  0  0  0  0  0  0
   24.5131  -20.7850  -12.5934 C   0  0  2  0  0  0  0  0  0  0  0  0
   25.5397  -20.4033  -13.4926 N   0  0  0  0  0  0  0  0  0  0  0  0
   23.1666  -20.4335  -13.0155 C   0  0  0  0  0  0  0  0  0  0  0  0
   22.7467  -19.2411  -13.1361 O   0  0  0  0  0  0  0  0  0  0  0  0
   18.7434  -21.7657  -16.7562 N   0  0  0  0  0  0  0  0  0  0  0  0
   18.9931  -21.8436  -15.3367 C   0  0  0  0  0  0  0  0  0  0  0  0
   17.9859  -21.7163  -14.6135 O   0  0  0  0  0  0  0  0  0  0  0  0
   20.3520  -22.0580  -14.8367 C   0  0  0  0  0  0  0  0  0  0  0  0
   20.8526  -21.0208  -13.8715 C   0  0  2  0  0  0  0  0  0  0  0  0
   22.1666  -21.4107  -13.3416 N   0  0  0  0  0  0  0  0  0  0  0  0
   19.9928  -20.8835  -12.6587 C   0  0  0  0  0  0  0  0  0  0  0  0
   20.0767  -21.6809  -11.6613 O   0  0  0  0  0  0  0  0  0  0  0  0
   19.0439  -19.8906  -12.5167 O   0  0  0  0  0  0  0  0  0  0  0  0
  2  1  1  0
  3  2  1  0
  4  5  1  0
  4  3  1  0
  5  1  1  0
  5  6  1  1
  6  7  2  0
  8  9  1  0
  9 10  1  0
 10 12  1  0
 10 11  1  1
 12 13  1  6
 13  6  1  0
 14 12  1  0
 15 14  2  0
 17 16  1  0
 17 18  2  0
 19 17  1  0
 20 19  1  6
 20 21  1  0
 21 14  1  0
 22 24  1  0
 22 20  1  0
 23 22  2  0
M  END
$$$$
