RGA.pdb
     RDKit          3D

 21 20  0  0  1  0  0  0  0  0999 V2000
   16.6919  -16.4465  -15.8795 N   0  0  0  0  0  0  0  0  0  0  0  0
   18.0994  -16.2391  -15.8844 C   0  0  0  0  0  0  0  0  0  0  0  0
   18.8957  -17.2380  -15.6783 N   0  0  0  0  0  0  0  0  0  0  0  0
   18.6451  -14.9547  -16.1109 N   0  0  0  0  0  0  0  0  0  0  0  0
   17.9195  -13.9361  -16.9057 C   0  0  0  0  0  0  0  0  0  0  0  0
   18.7290  -12.7015  -17.0042 C   0  0  0  0  0  0  0  0  0  0  0  0
   18.1744  -11.5743  -17.7645 C   0  0  0  0  0  0  0  0  0  0  0  0
   18.8825  -10.2873  -17.8737 C   0  0  2  0  0  0  0  0  0  0  0  0
   20.3463  -10.6276  -18.0479 N   0  0  0  0  0  0  0  0  0  0  0  0
   18.7990   -9.4219  -16.6993 C   0  0  0  0  0  0  0  0  0  0  0  0
   17.6655   -8.9926  -16.2865 O   0  0  0  0  0  0  0  0  0  0  0  0
   19.9279  -17.1353  -15.6180 N   0  0  0  0  0  0  0  0  0  0  0  0
   19.9686   -9.0416  -15.9943 C   0  0  0  0  0  0  0  0  0  0  0  0
   19.8174   -8.1546  -14.8566 C   0  0  0  0  0  0  0  0  0  0  0  0
   20.7383   -7.0168  -14.9489 O   0  0  0  0  0  0  0  0  0  0  0  0
   21.8805   -7.1861  -15.4596 C   0  0  0  0  0  0  0  0  0  0  0  0
   20.5002   -3.3215  -14.3203 C   0  0  2  0  0  0  0  0  0  0  0  0
   21.2209   -4.6013  -14.6008 N   0  0  0  0  0  0  0  0  0  0  0  0
   20.3626   -5.7481  -14.4768 C   0  0  0  0  0  0  0  0  0  0  0  0
   22.3680   -4.7338  -13.6585 O   0  0  0  0  0  0  0  0  0  0  0  0
   23.3460   -3.9553  -13.7139 O   0  0  0  0  0  0  0  0  0  0  0  0
  1  2  1  0
  2  3  2  0
  4  5  1  0
  4  2  1  0
  6  5  1  0
  7  6  1  0
  8 10  1  0
  8  7  1  0
  8  9  1  1
 10 12  1  0
 11 10  2  0
 12 13  1  0
 13 14  1  0
 14 15  2  0
 14 18  1  0
 17 16  1  6
 17 19  1  0
 18 17  1  0
 19 21  1  0
 20 19  2  0
M  END
$$$$
