RGA.pdb
     RDKit          3D

 21 20  0  0  1  0  0  0  0  0999 V2000
   30.6515  -20.5994  -11.0074 N   0  0  0  0  0  0  0  0  0  0  0  0
   29.4176  -21.2897  -10.8489 C   0  0  0  0  0  0  0  0  0  0  0  0
   28.9580  -21.5172   -9.6609 N   0  0  0  0  0  0  0  0  0  0  0  0
   28.6824  -21.7335  -11.9719 N   0  0  0  0  0  0  0  0  0  0  0  0
   27.3600  -21.1554  -12.3075 C   0  0  0  0  0  0  0  0  0  0  0  0
   26.8566  -21.7439  -13.5683 C   0  0  0  0  0  0  0  0  0  0  0  0
   25.5255  -21.3356  -14.0345 C   0  0  0  0  0  0  0  0  0  0  0  0
   24.2944  -21.9367  -13.4933 C   0  0  2  0  0  0  0  0  0  0  0  0
   24.4776  -23.4347  -13.5994 N   0  0  0  0  0  0  0  0  0  0  0  0
   23.0675  -21.6205  -14.2212 C   0  0  0  0  0  0  0  0  0  0  0  0
   22.5631  -22.4625  -15.0435 O   0  0  0  0  0  0  0  0  0  0  0  0
   28.0353  -21.9623   -9.4873 N   0  0  0  0  0  0  0  0  0  0  0  0
   22.4119  -20.3780  -14.0316 C   0  0  0  0  0  0  0  0  0  0  0  0
   21.3335  -20.0339  -14.9387 C   0  0  0  0  0  0  0  0  0  0  0  0
   20.7559  -18.7290  -14.6002 O   0  0  0  0  0  0  0  0  0  0  0  0
   21.1712  -18.1158  -13.5777 C   0  0  0  0  0  0  0  0  0  0  0  0
   18.3628  -16.3394  -16.2327 C   0  0  2  0  0  0  0  0  0  0  0  0
   19.1600  -16.8848  -15.0913 N   0  0  0  0  0  0  0  0  0  0  0  0
   19.7506  -18.1591  -15.3991 C   0  0  0  0  0  0  0  0  0  0  0  0
   18.2770  -17.0205  -13.8982 O   0  0  0  0  0  0  0  0  0  0  0  0
   17.8837  -18.1419  -13.5067 O   0  0  0  0  0  0  0  0  0  0  0  0
  1  2  1  0
  2  3  2  0
  4  5  1  0
  4  2  1  0
  6  5  1  0
  7  6  1  0
  8 10  1  0
  8  7  1  0
  8  9  1  6
 10 12  1  0
 11 10  2  0
 12 13  1  0
 13 14  1  0
 14 15  2  0
 14 18  1  0
 17 16  1  6
 17 19  1  0
 18 17  1  0
 19 21  1  0
 20 19  2  0
M  END
$$$$
