RGA.pdb
     RDKit          3D

 21 20  0  0  1  0  0  0  0  0999 V2000
   28.9526  -22.0556  -17.1612 N   0  0  0  0  0  0  0  0  0  0  0  0
   28.8345  -23.3289  -16.5376 C   0  0  0  0  0  0  0  0  0  0  0  0
   29.7935  -24.1902  -16.6516 N   0  0  0  0  0  0  0  0  0  0  0  0
   27.6823  -23.6708  -15.7932 N   0  0  0  0  0  0  0  0  0  0  0  0
   26.4769  -22.8091  -15.7956 C   0  0  0  0  0  0  0  0  0  0  0  0
   26.6894  -21.6407  -14.9130 C   0  0  0  0  0  0  0  0  0  0  0  0
   25.6544  -20.5995  -14.8892 C   0  0  0  0  0  0  0  0  0  0  0  0
   25.1754  -19.9514  -16.1222 C   0  0  2  0  0  0  0  0  0  0  0  0
   26.3450  -19.1563  -16.6593 N   0  0  0  0  0  0  0  0  0  0  0  0
   24.0785  -19.0020  -15.9483 C   0  0  0  0  0  0  0  0  0  0  0  0
   24.3179  -17.7721  -15.6843 O   0  0  0  0  0  0  0  0  0  0  0  0
   29.7616  -25.1329  -16.2156 N   0  0  0  0  0  0  0  0  0  0  0  0
   22.7300  -19.4221  -16.0688 C   0  0  0  0  0  0  0  0  0  0  0  0
   21.6907  -18.4223  -15.9129 C   0  0  0  0  0  0  0  0  0  0  0  0
   20.3649  -18.9955  -16.1675 O   0  0  0  0  0  0  0  0  0  0  0  0
   20.2711  -20.2065  -16.5123 C   0  0  0  0  0  0  0  0  0  0  0  0
   17.7782  -19.4845  -17.5415 C   0  0  1  0  0  0  0  0  0  0  0  0
   17.8901  -18.7541  -16.2414 N   0  0  0  0  0  0  0  0  0  0  0  0
   19.2057  -18.2136  -16.0318 C   0  0  0  0  0  0  0  0  0  0  0  0
   17.5504  -19.6837  -15.1269 O   0  0  0  0  0  0  0  0  0  0  0  0
   16.3697  -19.8258  -14.7380 O   0  0  0  0  0  0  0  0  0  0  0  0
  1  2  1  0
  2  3  2  0
  4  5  1  0
  4  2  1  0
  6  5  1  0
  7  6  1  0
  8 10  1  0
  8  7  1  0
  8  9  1  1
 10 12  1  0
 11 10  2  0
 12 13  1  0
 13 14  1  0
 14 15  2  0
 14 18  1  0
 17 16  1  6
 17 19  1  0
 18 17  1  0
 19 21  1  0
 20 19  2  0
M  END
$$$$
