RGA.pdb
     RDKit          3D

 21 20  0  0  1  0  0  0  0  0999 V2000
   28.6492  -21.6097  -17.9524 N   0  0  0  0  0  0  0  0  0  0  0  0
   28.8685  -22.1328  -16.6476 C   0  0  0  0  0  0  0  0  0  0  0  0
   28.8433  -23.4124  -16.4571 N   0  0  0  0  0  0  0  0  0  0  0  0
   29.1140  -21.2747  -15.5512 N   0  0  0  0  0  0  0  0  0  0  0  0
   28.0118  -20.5525  -14.8733 C   0  0  0  0  0  0  0  0  0  0  0  0
   27.3573  -19.6245  -15.8218 C   0  0  0  0  0  0  0  0  0  0  0  0
   26.1820  -18.8789  -15.3541 C   0  0  0  0  0  0  0  0  0  0  0  0
   25.1379  -19.5115  -14.5298 C   0  0  2  0  0  0  0  0  0  0  0  0
   25.6376  -20.9047  -14.2169 N   0  0  0  0  0  0  0  0  0  0  0  0
   23.8390  -19.6770  -15.1783 C   0  0  0  0  0  0  0  0  0  0  0  0
   23.2626  -18.6833  -15.7440 O   0  0  0  0  0  0  0  0  0  0  0  0
   28.9822  -23.8480  -15.5240 N   0  0  0  0  0  0  0  0  0  0  0  0
   23.1924  -20.9384  -15.1949 C   0  0  0  0  0  0  0  0  0  0  0  0
   21.8942  -21.0276  -15.8359 C   0  0  0  0  0  0  0  0  0  0  0  0
   20.8284  -20.5807  -14.9329 O   0  0  0  0  0  0  0  0  0  0  0  0
   21.1099  -20.3051  -13.7333 C   0  0  0  0  0  0  0  0  0  0  0  0
   17.2466  -19.5562  -15.2519 C   0  0  2  0  0  0  0  0  0  0  0  0
   18.4241  -20.1027  -14.5096 N   0  0  0  0  0  0  0  0  0  0  0  0
   19.5053  -20.4573  -15.3885 C   0  0  0  0  0  0  0  0  0  0  0  0
   17.9996  -21.3022  -13.7333 O   0  0  0  0  0  0  0  0  0  0  0  0
   18.3936  -22.4484  -14.0439 O   0  0  0  0  0  0  0  0  0  0  0  0
  1  2  1  0
  2  3  2  0
  4  5  1  0
  4  2  1  0
  6  5  1  0
  7  6  1  0
  8 10  1  0
  8  7  1  0
  8  9  1  6
 10 12  1  0
 11 10  2  0
 12 13  1  0
 13 14  1  0
 14 15  2  0
 14 18  1  0
 17 16  1  1
 17 19  1  0
 18 17  1  0
 19 21  1  0
 20 19  2  0
M  END
$$$$
