RGA.pdb
     RDKit          3D

 21 20  0  0  1  0  0  0  0  0999 V2000
   21.5832  -19.9929  -11.9502 N   0  0  0  0  0  0  0  0  0  0  0  0
   21.2643  -20.9071  -10.9079 C   0  0  0  0  0  0  0  0  0  0  0  0
   20.0529  -21.3458  -10.7879 N   0  0  0  0  0  0  0  0  0  0  0  0
   22.2524  -21.3457   -9.9968 N   0  0  0  0  0  0  0  0  0  0  0  0
   23.6635  -21.5221  -10.4131 C   0  0  0  0  0  0  0  0  0  0  0  0
   24.2487  -20.2142  -10.7820 C   0  0  0  0  0  0  0  0  0  0  0  0
   25.5910  -20.2046  -11.3771 C   0  0  0  0  0  0  0  0  0  0  0  0
   25.9387  -21.0610  -12.5240 C   0  0  2  0  0  0  0  0  0  0  0  0
   26.4405  -22.3625  -11.9384 N   0  0  0  0  0  0  0  0  0  0  0  0
   27.0082  -20.5579  -13.3832 C   0  0  0  0  0  0  0  0  0  0  0  0
   27.8884  -21.3554  -13.8615 O   0  0  0  0  0  0  0  0  0  0  0  0
   19.7650  -22.0162  -10.0480 N   0  0  0  0  0  0  0  0  0  0  0  0
   27.0923  -19.1798  -13.7044 C   0  0  0  0  0  0  0  0  0  0  0  0
   28.1260  -18.7605  -14.6316 C   0  0  0  0  0  0  0  0  0  0  0  0
   27.5905  -18.6188  -15.9896 O   0  0  0  0  0  0  0  0  0  0  0  0
   26.3997  -18.9670  -16.2238 C   0  0  0  0  0  0  0  0  0  0  0  0
   28.7491  -16.9397  -19.1350 C   0  0  2  0  0  0  0  0  0  0  0  0
   27.8570  -17.8347  -18.3354 N   0  0  0  0  0  0  0  0  0  0  0  0
   28.3863  -18.1022  -17.0257 C   0  0  0  0  0  0  0  0  0  0  0  0
   27.6685  -19.1190  -19.0680 O   0  0  0  0  0  0  0  0  0  0  0  0
   28.2417  -20.1674  -18.6970 O   0  0  0  0  0  0  0  0  0  0  0  0
  1  2  1  0
  2  3  2  0
  4  5  1  0
  4  2  1  0
  6  5  1  0
  7  6  1  0
  8 10  1  0
  8  7  1  0
  8  9  1  1
 10 12  1  0
 11 10  2  0
 12 13  1  0
 13 14  1  0
 14 15  2  0
 14 18  1  0
 17 16  1  1
 17 19  1  0
 18 17  1  0
 19 21  1  0
 20 19  2  0
M  END
$$$$
