RGA.pdb
     RDKit          3D

 21 20  0  0  1  0  0  0  0  0999 V2000
   26.2394  -25.2001  -16.2473 N   0  0  0  0  0  0  0  0  0  0  0  0
   27.4917  -24.5409  -16.3930 C   0  0  0  0  0  0  0  0  0  0  0  0
   28.4366  -25.1027  -17.0757 N   0  0  0  0  0  0  0  0  0  0  0  0
   27.7226  -23.2778  -15.8016 N   0  0  0  0  0  0  0  0  0  0  0  0
   26.6504  -22.5566  -15.0762 C   0  0  0  0  0  0  0  0  0  0  0  0
   25.8000  -21.8180  -16.0355 C   0  0  0  0  0  0  0  0  0  0  0  0
   25.5854  -20.3843  -15.8020 C   0  0  0  0  0  0  0  0  0  0  0  0
   24.8092  -19.5522  -16.7374 C   0  0  2  0  0  0  0  0  0  0  0  0
   25.8161  -18.9311  -17.6804 N   0  0  0  0  0  0  0  0  0  0  0  0
   24.0749  -18.4434  -16.1322 C   0  0  0  0  0  0  0  0  0  0  0  0
   24.6298  -17.2989  -15.9843 O   0  0  0  0  0  0  0  0  0  0  0  0
   29.4026  -24.7229  -17.1229 N   0  0  0  0  0  0  0  0  0  0  0  0
   22.7360  -18.6117  -15.6980 C   0  0  0  0  0  0  0  0  0  0  0  0
   22.0642  -17.4688  -15.1094 C   0  0  0  0  0  0  0  0  0  0  0  0
   20.6607  -17.7761  -14.8148 O   0  0  0  0  0  0  0  0  0  0  0  0
   20.1836  -18.8891  -15.1723 C   0  0  0  0  0  0  0  0  0  0  0  0
   17.8774  -16.0602  -12.9471 C   0  0  2  0  0  0  0  0  0  0  0  0
   18.4967  -17.1541  -13.7569 N   0  0  0  0  0  0  0  0  0  0  0  0
   19.8477  -16.8485  -14.1424 C   0  0  0  0  0  0  0  0  0  0  0  0
   17.6718  -17.3877  -14.9761 O   0  0  0  0  0  0  0  0  0  0  0  0
   17.9890  -16.8893  -16.0790 O   0  0  0  0  0  0  0  0  0  0  0  0
  1  2  1  0
  2  3  2  0
  4  5  1  0
  4  2  1  0
  6  5  1  0
  7  6  1  0
  8 10  1  0
  8  7  1  0
  8  9  1  6
 10 12  1  0
 11 10  2  0
 12 13  1  0
 13 14  1  0
 14 15  2  0
 14 18  1  0
 17 16  1  1
 17 19  1  0
 18 17  1  0
 19 21  1  0
 20 19  2  0
M  END
$$$$
