RGA.pdb
     RDKit          3D

 21 20  0  0  1  0  0  0  0  0999 V2000
   21.1521  -22.7041   -8.3762 N   0  0  0  0  0  0  0  0  0  0  0  0
   20.5847  -22.4132   -9.6480 C   0  0  0  0  0  0  0  0  0  0  0  0
   19.4128  -22.8729   -9.9478 N   0  0  0  0  0  0  0  0  0  0  0  0
   21.2826  -21.6279  -10.5940 N   0  0  0  0  0  0  0  0  0  0  0  0
   22.7505  -21.7427  -10.7613 C   0  0  0  0  0  0  0  0  0  0  0  0
   23.4071  -20.4870  -10.3356 C   0  0  0  0  0  0  0  0  0  0  0  0
   24.8693  -20.4053  -10.4419 C   0  0  0  0  0  0  0  0  0  0  0  0
   25.6044  -21.0365  -11.5514 C   0  0  2  0  0  0  0  0  0  0  0  0
   26.3723  -22.1894  -10.9433 N   0  0  0  0  0  0  0  0  0  0  0  0
   26.5929  -20.1885  -12.2138 C   0  0  0  0  0  0  0  0  0  0  0  0
   27.7147  -19.9350  -11.6509 O   0  0  0  0  0  0  0  0  0  0  0  0
   18.9492  -22.6883  -10.8592 N   0  0  0  0  0  0  0  0  0  0  0  0
   26.3308  -19.6310  -13.4905 C   0  0  0  0  0  0  0  0  0  0  0  0
   27.3496  -18.7868  -14.0850 C   0  0  0  0  0  0  0  0  0  0  0  0
   26.9536  -18.3480  -15.4273 O   0  0  0  0  0  0  0  0  0  0  0  0
   25.7857  -18.5946  -15.8386 C   0  0  0  0  0  0  0  0  0  0  0  0
   28.5444  -16.3145  -18.1646 C   0  0  2  0  0  0  0  0  0  0  0  0
   27.4882  -17.1829  -17.5593 N   0  0  0  0  0  0  0  0  0  0  0  0
   27.8572  -17.6599  -16.2541 C   0  0  0  0  0  0  0  0  0  0  0  0
   27.2331  -18.3431  -18.4596 O   0  0  0  0  0  0  0  0  0  0  0  0
   27.7957  -19.4449  -18.2728 O   0  0  0  0  0  0  0  0  0  0  0  0
  1  2  1  0
  2  3  2  0
  4  5  1  0
  4  2  1  0
  6  5  1  0
  7  6  1  0
  8 10  1  0
  8  7  1  0
  8  9  1  1
 10 12  1  0
 11 10  2  0
 12 13  1  0
 13 14  1  0
 14 15  2  0
 14 18  1  0
 17 16  1  1
 17 19  1  0
 18 17  1  0
 19 21  1  0
 20 19  2  0
M  END
$$$$
