RGA.pdb
     RDKit          3D

 21 20  0  0  1  0  0  0  0  0999 V2000
   14.0248  -12.4510  -14.6018 N   0  0  0  0  0  0  0  0  0  0  0  0
   15.2734  -13.1192  -14.7384 C   0  0  0  0  0  0  0  0  0  0  0  0
   15.3748  -14.1320  -15.5374 N   0  0  0  0  0  0  0  0  0  0  0  0
   16.4097  -12.6941  -14.0126 N   0  0  0  0  0  0  0  0  0  0  0  0
   16.5653  -11.2869  -13.5752 C   0  0  0  0  0  0  0  0  0  0  0  0
   16.9668  -10.4429  -14.7223 C   0  0  0  0  0  0  0  0  0  0  0  0
   17.0581   -8.9928  -14.5105 C   0  0  0  0  0  0  0  0  0  0  0  0
   18.3159   -8.3451  -14.1002 C   0  0  2  0  0  0  0  0  0  0  0  0
   19.2962   -9.4656  -13.8317 N   0  0  0  0  0  0  0  0  0  0  0  0
   18.2459   -7.5574  -12.8715 C   0  0  0  0  0  0  0  0  0  0  0  0
   19.1152   -6.6486  -12.6306 O   0  0  0  0  0  0  0  0  0  0  0  0
   16.2681  -14.6376  -15.6989 N   0  0  0  0  0  0  0  0  0  0  0  0
   17.2160   -7.7823  -11.9237 C   0  0  0  0  0  0  0  0  0  0  0  0
   17.1809   -6.9369  -10.7455 C   0  0  0  0  0  0  0  0  0  0  0  0
   16.0372   -7.2713   -9.8904 O   0  0  0  0  0  0  0  0  0  0  0  0
   15.1290   -8.0245  -10.3397 C   0  0  0  0  0  0  0  0  0  0  0  0
   14.9731   -6.4395   -6.3738 C   0  0  2  0  0  0  0  0  0  0  0  0
   14.8211   -7.0467   -7.7318 N   0  0  0  0  0  0  0  0  0  0  0  0
   15.9442   -6.7637   -8.5838 C   0  0  0  0  0  0  0  0  0  0  0  0
   13.5743   -6.5285   -8.3630 O   0  0  0  0  0  0  0  0  0  0  0  0
   13.6043   -5.5697   -9.1663 O   0  0  0  0  0  0  0  0  0  0  0  0
  1  2  1  0
  2  3  2  0
  4  5  1  0
  4  2  1  0
  6  5  1  0
  7  6  1  0
  8 10  1  0
  8  7  1  0
  8  9  1  1
 10 12  1  0
 11 10  2  0
 12 13  1  0
 13 14  1  0
 14 15  2  0
 14 18  1  0
 17 16  1  1
 17 19  1  0
 18 17  1  0
 19 21  1  0
 20 19  2  0
M  END
$$$$
