RGA.pdb
     RDKit          3D

 21 20  0  0  1  0  0  0  0  0999 V2000
   24.1233  -17.9912  -17.0587 N   0  0  0  0  0  0  0  0  0  0  0  0
   23.0626  -18.0332  -18.0060 C   0  0  0  0  0  0  0  0  0  0  0  0
   23.3330  -18.1247  -19.2681 N   0  0  0  0  0  0  0  0  0  0  0  0
   21.7126  -17.9758  -17.5901 N   0  0  0  0  0  0  0  0  0  0  0  0
   21.3447  -17.9950  -16.1548 C   0  0  0  0  0  0  0  0  0  0  0  0
   21.6918  -19.3054  -15.5618 C   0  0  0  0  0  0  0  0  0  0  0  0
   21.3695  -19.5268  -14.1465 C   0  0  0  0  0  0  0  0  0  0  0  0
   21.6399  -20.8122  -13.4798 C   0  0  2  0  0  0  0  0  0  0  0  0
   20.9285  -21.8669  -14.2984 N   0  0  0  0  0  0  0  0  0  0  0  0
   21.1264  -20.9341  -12.1173 C   0  0  0  0  0  0  0  0  0  0  0  0
   21.2910  -19.9862  -11.2724 O   0  0  0  0  0  0  0  0  0  0  0  0
   22.6243  -17.9659  -20.0112 N   0  0  0  0  0  0  0  0  0  0  0  0
   20.4364  -22.1016  -11.7044 C   0  0  0  0  0  0  0  0  0  0  0  0
   19.9118  -22.1379  -10.3525 C   0  0  0  0  0  0  0  0  0  0  0  0
   19.1971  -23.3930  -10.0977 O   0  0  0  0  0  0  0  0  0  0  0  0
   18.9842  -24.1882  -11.0550 C   0  0  0  0  0  0  0  0  0  0  0  0
   17.9917  -25.1920   -7.0228 C   0  0  2  0  0  0  0  0  0  0  0  0
   18.1722  -24.9951   -8.4941 N   0  0  0  0  0  0  0  0  0  0  0  0
   18.7502  -23.7160   -8.8056 C   0  0  0  0  0  0  0  0  0  0  0  0
   16.8502  -25.1222   -9.1707 O   0  0  0  0  0  0  0  0  0  0  0  0
   16.1910  -24.1114   -9.5011 O   0  0  0  0  0  0  0  0  0  0  0  0
  1  2  1  0
  2  3  2  0
  4  5  1  0
  4  2  1  0
  6  5  1  0
  7  6  1  0
  8 10  1  0
  8  7  1  0
  8  9  1  6
 10 12  1  0
 11 10  2  0
 12 13  1  0
 13 14  1  0
 14 15  2  0
 14 18  1  0
 17 16  1  1
 17 19  1  0
 18 17  1  0
 19 21  1  0
 20 19  2  0
M  END
$$$$
