RGA.pdb
     RDKit          3D

 21 20  0  0  1  0  0  0  0  0999 V2000
   18.1581  -25.4257   -4.9285 N   0  0  0  0  0  0  0  0  0  0  0  0
   17.7785  -26.7235   -4.4860 C   0  0  0  0  0  0  0  0  0  0  0  0
   18.5491  -27.7345   -4.7281 N   0  0  0  0  0  0  0  0  0  0  0  0
   16.5686  -26.9282   -3.7840 N   0  0  0  0  0  0  0  0  0  0  0  0
   15.4318  -25.9863   -3.9123 C   0  0  0  0  0  0  0  0  0  0  0  0
   15.6130  -24.8468   -2.9861 C   0  0  0  0  0  0  0  0  0  0  0  0
   14.5011  -24.5055   -2.0899 C   0  0  0  0  0  0  0  0  0  0  0  0
   13.7361  -23.2559   -2.2416 C   0  0  2  0  0  0  0  0  0  0  0  0
   14.1492  -22.6706   -3.5741 N   0  0  0  0  0  0  0  0  0  0  0  0
   14.0066  -22.2273   -1.2396 C   0  0  0  0  0  0  0  0  0  0  0  0
   14.8990  -21.3333   -1.4492 O   0  0  0  0  0  0  0  0  0  0  0  0
   18.3301  -28.7003   -4.4137 N   0  0  0  0  0  0  0  0  0  0  0  0
   13.2877  -22.1981   -0.0183 C   0  0  0  0  0  0  0  0  0  0  0  0
   13.4719  -21.0515    0.8509 C   0  0  0  0  0  0  0  0  0  0  0  0
   14.6638  -21.2120    1.6903 O   0  0  0  0  0  0  0  0  0  0  0  0
   15.4160  -22.2101    1.5110 C   0  0  0  0  0  0  0  0  0  0  0  0
   16.4028  -19.1394    4.3015 C   0  0  2  0  0  0  0  0  0  0  0  0
   16.1595  -20.3732    3.4925 N   0  0  0  0  0  0  0  0  0  0  0  0
   14.9737  -20.2706    2.6859 C   0  0  0  0  0  0  0  0  0  0  0  0
   16.0390  -21.5431    4.4082 O   0  0  0  0  0  0  0  0  0  0  0  0
   14.9482  -22.1362    4.5625 O   0  0  0  0  0  0  0  0  0  0  0  0
  1  2  1  0
  2  3  2  0
  4  5  1  0
  4  2  1  0
  6  5  1  0
  7  6  1  0
  8 10  1  0
  8  7  1  0
  8  9  1  6
 10 12  1  0
 11 10  2  0
 12 13  1  0
 13 14  1  0
 14 15  2  0
 14 18  1  0
 17 16  1  6
 17 19  1  0
 18 17  1  0
 19 21  1  0
 20 19  2  0
M  END
$$$$
