RGA.pdb
     RDKit          3D

 21 20  0  0  1  0  0  0  0  0999 V2000
   23.8484  -21.3363  -10.1782 N   0  0  0  0  0  0  0  0  0  0  0  0
   24.6859  -21.1461   -9.0440 C   0  0  0  0  0  0  0  0  0  0  0  0
   24.2962  -21.5614   -7.8821 N   0  0  0  0  0  0  0  0  0  0  0  0
   25.9415  -20.5077   -9.1652 N   0  0  0  0  0  0  0  0  0  0  0  0
   26.4578  -20.0614  -10.4805 C   0  0  0  0  0  0  0  0  0  0  0  0
   26.8995  -21.2303  -11.2729 C   0  0  0  0  0  0  0  0  0  0  0  0
   26.3910  -21.3637  -12.6439 C   0  0  0  0  0  0  0  0  0  0  0  0
   26.9420  -20.5725  -13.7575 C   0  0  2  0  0  0  0  0  0  0  0  0
   28.0495  -19.7293  -13.1649 N   0  0  0  0  0  0  0  0  0  0  0  0
   26.0099  -19.6412  -14.3890 C   0  0  0  0  0  0  0  0  0  0  0  0
   25.0081  -20.0761  -15.0575 O   0  0  0  0  0  0  0  0  0  0  0  0
   24.8438  -21.4054   -7.0130 N   0  0  0  0  0  0  0  0  0  0  0  0
   26.1949  -18.2405  -14.2740 C   0  0  0  0  0  0  0  0  0  0  0  0
   25.2913  -17.3738  -15.0064 C   0  0  0  0  0  0  0  0  0  0  0  0
   26.0315  -16.4620  -15.8850 O   0  0  0  0  0  0  0  0  0  0  0  0
   27.2010  -16.7682  -16.2491 C   0  0  0  0  0  0  0  0  0  0  0  0
   27.4994  -13.9502  -16.5135 C   0  0  1  0  0  0  0  0  0  0  0  0
   26.1797  -14.3072  -17.1194 N   0  0  0  0  0  0  0  0  0  0  0  0
   25.4538  -15.2583  -16.3221 C   0  0  0  0  0  0  0  0  0  0  0  0
   26.4024  -14.8673  -18.4825 O   0  0  0  0  0  0  0  0  0  0  0  0
   26.1124  -16.0544  -18.7512 O   0  0  0  0  0  0  0  0  0  0  0  0
  1  2  1  0
  2  3  2  0
  4  5  1  0
  4  2  1  0
  6  5  1  0
  7  6  1  0
  8 10  1  0
  8  7  1  0
  8  9  1  1
 10 12  1  0
 11 10  2  0
 12 13  1  0
 13 14  1  0
 14 15  2  0
 14 18  1  0
 17 16  1  1
 17 19  1  0
 18 17  1  0
 19 21  1  0
 20 19  2  0
M  END
$$$$
