RGA.pdb
     RDKit          3D

 21 20  0  0  1  0  0  0  0  0999 V2000
   22.1348  -21.1071   -9.0300 N   0  0  0  0  0  0  0  0  0  0  0  0
   22.8285  -21.3013   -7.8031 C   0  0  0  0  0  0  0  0  0  0  0  0
   22.1925  -21.7550   -6.7716 N   0  0  0  0  0  0  0  0  0  0  0  0
   24.2063  -21.0051   -7.6913 N   0  0  0  0  0  0  0  0  0  0  0  0
   24.9477  -20.3489   -8.7938 C   0  0  0  0  0  0  0  0  0  0  0  0
   25.3334  -21.3523   -9.8105 C   0  0  0  0  0  0  0  0  0  0  0  0
   26.0319  -20.8800  -11.0126 C   0  0  0  0  0  0  0  0  0  0  0  0
   25.5934  -19.6794  -11.7448 C   0  0  2  0  0  0  0  0  0  0  0  0
   24.5462  -20.1487  -12.7305 N   0  0  0  0  0  0  0  0  0  0  0  0
   26.6271  -19.0101  -12.5313 C   0  0  0  0  0  0  0  0  0  0  0  0
   27.6629  -18.5187  -11.9611 O   0  0  0  0  0  0  0  0  0  0  0  0
   22.6514  -21.9282   -5.8556 N   0  0  0  0  0  0  0  0  0  0  0  0
   26.5047  -18.8920  -13.9386 C   0  0  0  0  0  0  0  0  0  0  0  0
   27.5824  -18.2445  -14.6621 C   0  0  0  0  0  0  0  0  0  0  0  0
   27.3269  -18.2514  -16.1063 O   0  0  0  0  0  0  0  0  0  0  0  0
   26.2383  -18.7224  -16.5390 C   0  0  0  0  0  0  0  0  0  0  0  0
   27.5360  -19.0823  -18.9002 C   0  0  1  0  0  0  0  0  0  0  0  0
   28.0735  -17.7686  -18.4297 N   0  0  0  0  0  0  0  0  0  0  0  0
   28.2771  -17.7415  -17.0067 C   0  0  0  0  0  0  0  0  0  0  0  0
   27.1266  -16.6850  -18.8179 O   0  0  0  0  0  0  0  0  0  0  0  0
   26.0140  -16.5648  -18.2583 O   0  0  0  0  0  0  0  0  0  0  0  0
  1  2  1  0
  2  3  2  0
  4  5  1  0
  4  2  1  0
  6  5  1  0
  7  6  1  0
  8 10  1  0
  8  7  1  0
  8  9  1  6
 10 12  1  0
 11 10  2  0
 12 13  1  0
 13 14  1  0
 14 15  2  0
 14 18  1  0
 17 16  1  6
 17 19  1  0
 18 17  1  0
 19 21  1  0
 20 19  2  0
M  END
$$$$
