RGA.pdb
     RDKit          3D

 21 20  0  0  1  0  0  0  0  0999 V2000
   31.7868  -23.2321  -11.2509 N   0  0  0  0  0  0  0  0  0  0  0  0
   31.8473  -22.3519  -10.1348 C   0  0  0  0  0  0  0  0  0  0  0  0
   32.5904  -22.6538   -9.1194 N   0  0  0  0  0  0  0  0  0  0  0  0
   31.1057  -21.1484  -10.1159 N   0  0  0  0  0  0  0  0  0  0  0  0
   30.0569  -20.8710  -11.1252 C   0  0  0  0  0  0  0  0  0  0  0  0
   28.9789  -21.8794  -11.0238 C   0  0  0  0  0  0  0  0  0  0  0  0
   27.7826  -21.6931  -11.8545 C   0  0  0  0  0  0  0  0  0  0  0  0
   26.6830  -20.8028  -11.4448 C   0  0  2  0  0  0  0  0  0  0  0  0
   25.7516  -21.6469  -10.6031 N   0  0  0  0  0  0  0  0  0  0  0  0
   25.8740  -20.2603  -12.5340 C   0  0  0  0  0  0  0  0  0  0  0  0
   26.3729  -19.4156  -13.3570 O   0  0  0  0  0  0  0  0  0  0  0  0
   32.6746  -22.0471   -8.2801 N   0  0  0  0  0  0  0  0  0  0  0  0
   24.5237  -20.6578  -12.7018 C   0  0  0  0  0  0  0  0  0  0  0  0
   23.8840  -20.3706  -13.9715 C   0  0  0  0  0  0  0  0  0  0  0  0
   22.4320  -20.2380  -13.8125 O   0  0  0  0  0  0  0  0  0  0  0  0
   21.8973  -20.5709  -12.7183 C   0  0  0  0  0  0  0  0  0  0  0  0
   19.5847  -19.0195  -15.9538 C   0  0  2  0  0  0  0  0  0  0  0  0
   20.2015  -19.7032  -14.7756 N   0  0  0  0  0  0  0  0  0  0  0  0
   21.6361  -19.7467  -14.8607 C   0  0  0  0  0  0  0  0  0  0  0  0
   19.6662  -21.0909  -14.6794 O   0  0  0  0  0  0  0  0  0  0  0  0
   18.5492  -21.3208  -14.1647 O   0  0  0  0  0  0  0  0  0  0  0  0
  1  2  1  0
  2  3  2  0
  4  5  1  0
  4  2  1  0
  6  5  1  0
  7  6  1  0
  8 10  1  0
  8  7  1  0
  8  9  1  1
 10 12  1  0
 11 10  2  0
 12 13  1  0
 13 14  1  0
 14 15  2  0
 14 18  1  0
 17 16  1  1
 17 19  1  0
 18 17  1  0
 19 21  1  0
 20 19  2  0
M  END
$$$$
