RGA.pdb
     RDKit          3D

 21 20  0  0  1  0  0  0  0  0999 V2000
   25.9729  -22.2968  -11.8270 N   0  0  0  0  0  0  0  0  0  0  0  0
   26.4077  -21.0949  -11.2021 C   0  0  0  0  0  0  0  0  0  0  0  0
   25.8302  -20.6910  -10.1169 N   0  0  0  0  0  0  0  0  0  0  0  0
   27.4638  -20.3308  -11.7494 N   0  0  0  0  0  0  0  0  0  0  0  0
   28.2414  -20.8112  -12.9158 C   0  0  0  0  0  0  0  0  0  0  0  0
   27.5514  -20.4395  -14.1707 C   0  0  0  0  0  0  0  0  0  0  0  0
   27.0658  -19.0604  -14.3060 C   0  0  0  0  0  0  0  0  0  0  0  0
   25.6378  -18.7547  -14.4984 C   0  0  2  0  0  0  0  0  0  0  0  0
   24.8752  -19.8300  -13.7563 N   0  0  0  0  0  0  0  0  0  0  0  0
   25.1664  -18.7967  -15.8809 C   0  0  0  0  0  0  0  0  0  0  0  0
   25.6102  -17.9630  -16.7455 O   0  0  0  0  0  0  0  0  0  0  0  0
   26.0974  -19.8147   -9.6266 N   0  0  0  0  0  0  0  0  0  0  0  0
   24.2108  -19.7596  -16.2921 C   0  0  0  0  0  0  0  0  0  0  0  0
   23.6856  -19.6623  -17.6407 C   0  0  0  0  0  0  0  0  0  0  0  0
   22.2739  -19.2649  -17.6295 O   0  0  0  0  0  0  0  0  0  0  0  0
   21.9599  -18.1109  -17.2247 C   0  0  0  0  0  0  0  0  0  0  0  0
   19.0306  -20.8355  -18.7190 C   0  0  2  0  0  0  0  0  0  0  0  0
   19.8835  -19.7874  -18.0787 N   0  0  0  0  0  0  0  0  0  0  0  0
   21.2742  -20.1518  -18.0626 C   0  0  0  0  0  0  0  0  0  0  0  0
   19.4126  -19.5584  -16.6832 O   0  0  0  0  0  0  0  0  0  0  0  0
   20.0677  -19.9739  -15.7014 O   0  0  0  0  0  0  0  0  0  0  0  0
  1  2  1  0
  2  3  2  0
  4  5  1  0
  4  2  1  0
  6  5  1  0
  7  6  1  0
  8 10  1  0
  8  7  1  0
  8  9  1  1
 10 12  1  0
 11 10  2  0
 12 13  1  0
 13 14  1  0
 14 15  2  0
 14 18  1  0
 17 16  1  6
 17 19  1  0
 18 17  1  0
 19 21  1  0
 20 19  2  0
M  END
$$$$
