DSW.pdb
     RDKit          3D

 29 30  0  0  1  0  0  0  0  0999 V2000
    8.9266  -15.7257   17.5877 N   0  0  0  0  0  0  0  0  0  0  0  0
    8.9394  -14.5489   18.3950 C   0  0  1  0  0  0  0  0  0  0  0  0
    7.8355  -13.6203   17.8804 C   0  0  0  0  0  0  0  0  0  0  0  0
    7.9132  -13.4853   16.4066 C   0  0  0  0  0  0  0  0  0  0  0  0
    7.8850  -14.5444   15.7280 O   0  0  0  0  0  0  0  0  0  0  0  0
    8.5734  -14.8407   19.8225 C   0  0  0  0  0  0  0  0  0  0  0  0
    8.5695  -13.9037   20.6598 O   0  0  0  0  0  0  0  0  0  0  0  0
    8.0145  -12.2807   15.7365 O   0  0  0  0  0  0  0  0  0  0  0  0
    7.9471  -18.8774   21.2960 O   0  0  0  0  0  0  0  0  0  0  0  0
    7.1996  -17.8232   21.7565 C   0  0  0  0  0  0  0  0  0  0  0  0
    7.8587  -16.4955   21.6063 C   0  0  2  0  0  0  0  0  0  0  0  0
    8.2278  -16.1338   20.2806 N   0  0  0  0  0  0  0  0  0  0  0  0
    8.9631  -16.3768   22.5823 C   0  0  0  0  0  0  0  0  0  0  0  0
   10.1360  -16.5194   22.1623 O   0  0  0  0  0  0  0  0  0  0  0  0
    8.7810  -16.1126   23.9642 N   0  0  0  0  0  0  0  0  0  0  0  0
    9.8842  -16.0637   24.9241 C   0  0  1  0  0  0  0  0  0  0  0  0
    9.6705  -14.9884   25.9506 C   0  0  0  0  0  0  0  0  0  0  0  0
    8.2316  -14.6820   26.0325 C   0  0  0  0  0  0  0  0  0  0  0  0
    7.1838  -15.5693   26.0581 C   0  0  0  0  0  0  0  0  0  0  0  0
    6.0317  -14.8786   26.1392 N   0  0  0  0  0  0  0  0  0  0  0  0
    6.2993  -13.5446   26.1679 C   0  0  0  0  0  0  0  0  0  0  0  0
    5.4796  -12.4477   26.2427 C   0  0  0  0  0  0  0  0  0  0  0  0
    6.0382  -11.1838   26.2518 C   0  0  0  0  0  0  0  0  0  0  0  0
    7.3994  -11.0354   26.1865 C   0  0  0  0  0  0  0  0  0  0  0  0
    8.2027  -12.1509   26.1122 C   0  0  0  0  0  0  0  0  0  0  0  0
    7.6855  -13.4233   26.1005 C   0  0  0  0  0  0  0  0  0  0  0  0
   10.0421  -17.3919   25.5159 C   0  0  0  0  0  0  0  0  0  0  0  0
   11.0212  -17.6359   26.2578 O   0  0  0  0  0  0  0  0  0  0  0  0
    9.1268  -18.3881   25.2704 O   0  0  0  0  0  0  0  0  0  0  0  0
  2  1  1  6
  3  2  1  0
  4  3  1  0
  5  4  2  0
  6  2  1  0
  6  7  2  0
  8  4  1  0
  9 10  1  0
 11 10  1  6
 11 12  1  0
 11 13  1  0
 12  6  1  0
 13 14  2  0
 13 15  1  0
 15 16  1  0
 16 27  1  0
 16 17  1  1
 18 17  1  0
 19 18  2  0
 20 19  1  0
 21 20  1  0
 21 26  2  0
 22 21  1  0
 23 22  2  0
 23 24  1  0
 24 25  2  0
 25 26  1  0
 26 18  1  0
 27 28  2  0
 27 29  1  0
M  END
$$$$
