DSW.pdb
     RDKit          3D

 29 30  0  0  1  0  0  0  0  0999 V2000
    9.6145  -18.6616   19.5347 N   0  0  0  0  0  0  0  0  0  0  0  0
   10.7725  -17.8617   19.7714 C   0  0  1  0  0  0  0  0  0  0  0  0
   11.3588  -17.4783   18.4094 C   0  0  0  0  0  0  0  0  0  0  0  0
   12.0022  -18.6507   17.7706 C   0  0  0  0  0  0  0  0  0  0  0  0
   11.5371  -19.0333   16.6659 O   0  0  0  0  0  0  0  0  0  0  0  0
   10.4306  -16.5570   20.4330 C   0  0  0  0  0  0  0  0  0  0  0  0
   11.3366  -15.7066   20.6197 O   0  0  0  0  0  0  0  0  0  0  0  0
   13.0706  -19.3443   18.3068 O   0  0  0  0  0  0  0  0  0  0  0  0
    6.3815  -15.6138   21.5925 O   0  0  0  0  0  0  0  0  0  0  0  0
    7.2729  -14.6380   21.2245 C   0  0  0  0  0  0  0  0  0  0  0  0
    8.7011  -15.0016   21.4434 C   0  0  2  0  0  0  0  0  0  0  0  0
    9.1231  -16.2306   20.8635 N   0  0  0  0  0  0  0  0  0  0  0  0
    9.0292  -14.8807   22.8801 C   0  0  0  0  0  0  0  0  0  0  0  0
    8.8167  -13.7792   23.4405 O   0  0  0  0  0  0  0  0  0  0  0  0
    9.5700  -15.9310   23.6656 N   0  0  0  0  0  0  0  0  0  0  0  0
    9.9391  -15.7726   25.0725 C   0  0  1  0  0  0  0  0  0  0  0  0
    8.9034  -16.3697   25.9816 C   0  0  0  0  0  0  0  0  0  0  0  0
    7.6445  -15.6186   25.8340 C   0  0  0  0  0  0  0  0  0  0  0  0
    6.4460  -16.0755   25.3432 C   0  0  0  0  0  0  0  0  0  0  0  0
    5.5505  -15.0717   25.3805 N   0  0  0  0  0  0  0  0  0  0  0  0
    6.1370  -13.9541   25.8893 C   0  0  0  0  0  0  0  0  0  0  0  0
    5.6539  -12.6922   26.1235 C   0  0  0  0  0  0  0  0  0  0  0  0
    6.4939  -11.7332   26.6568 C   0  0  0  0  0  0  0  0  0  0  0  0
    7.7964  -12.0474   26.9466 C   0  0  0  0  0  0  0  0  0  0  0  0
    8.2595  -13.3208   26.7034 C   0  0  0  0  0  0  0  0  0  0  0  0
    7.4559  -14.3010   26.1742 C   0  0  0  0  0  0  0  0  0  0  0  0
   11.2692  -16.3483   25.2697 C   0  0  0  0  0  0  0  0  0  0  0  0
   11.8397  -16.2440   26.3799 O   0  0  0  0  0  0  0  0  0  0  0  0
   11.9119  -17.0082   24.2491 O   0  0  0  0  0  0  0  0  0  0  0  0
  2  1  1  6
  3  2  1  0
  4  3  1  0
  5  4  2  0
  6  2  1  0
  6  7  2  0
  8  4  1  0
  9 10  1  0
 11 10  1  1
 11 12  1  0
 11 13  1  0
 12  6  1  0
 13 14  2  0
 13 15  1  0
 15 16  1  0
 16 27  1  0
 16 17  1  1
 18 17  1  0
 19 18  2  0
 20 19  1  0
 21 20  1  0
 21 26  2  0
 22 21  1  0
 23 22  2  0
 23 24  1  0
 24 25  2  0
 25 26  1  0
 26 18  1  0
 27 28  2  0
 27 29  1  0
M  END
$$$$
