DSW.pdb
     RDKit          3D

 29 30  0  0  1  0  0  0  0  0999 V2000
    8.9699  -18.4702   17.2334 N   0  0  0  0  0  0  0  0  0  0  0  0
    9.9713  -17.9867   18.1279 C   0  0  1  0  0  0  0  0  0  0  0  0
   10.7369  -16.8716   17.4094 C   0  0  0  0  0  0  0  0  0  0  0  0
   11.9781  -17.4022   16.7976 C   0  0  0  0  0  0  0  0  0  0  0  0
   12.2452  -18.6158   16.9947 O   0  0  0  0  0  0  0  0  0  0  0  0
    9.3746  -17.3339   19.3423 C   0  0  0  0  0  0  0  0  0  0  0  0
    8.9989  -16.1368   19.2745 O   0  0  0  0  0  0  0  0  0  0  0  0
   12.8531  -16.6551   16.0318 O   0  0  0  0  0  0  0  0  0  0  0  0
    7.7693  -19.6110   22.5778 O   0  0  0  0  0  0  0  0  0  0  0  0
    7.4299  -18.3216   22.2549 C   0  0  0  0  0  0  0  0  0  0  0  0
    8.5628  -17.5029   21.7388 C   0  0  2  0  0  0  0  0  0  0  0  0
    9.2111  -18.0060   20.5764 N   0  0  0  0  0  0  0  0  0  0  0  0
    9.4912  -17.1871   22.8455 C   0  0  0  0  0  0  0  0  0  0  0  0
   10.6018  -17.7691   22.8647 O   0  0  0  0  0  0  0  0  0  0  0  0
    9.2059  -16.2683   23.8880 N   0  0  0  0  0  0  0  0  0  0  0  0
   10.1160  -16.0141   25.0051 C   0  0  1  0  0  0  0  0  0  0  0  0
    9.8288  -14.6915   25.6561 C   0  0  0  0  0  0  0  0  0  0  0  0
    8.3728  -14.5481   25.8301 C   0  0  0  0  0  0  0  0  0  0  0  0
    7.4273  -15.5439   25.8541 C   0  0  0  0  0  0  0  0  0  0  0  0
    6.2156  -14.9879   26.0364 N   0  0  0  0  0  0  0  0  0  0  0  0
    6.3424  -13.6365   26.1340 C   0  0  0  0  0  0  0  0  0  0  0  0
    5.4174  -12.6409   26.3183 C   0  0  0  0  0  0  0  0  0  0  0  0
    5.8394  -11.3264   26.3772 C   0  0  0  0  0  0  0  0  0  0  0  0
    7.1714  -11.0278   26.2519 C   0  0  0  0  0  0  0  0  0  0  0  0
    8.0821  -12.0436   26.0678 C   0  0  0  0  0  0  0  0  0  0  0  0
    7.7019  -13.3619   26.0037 C   0  0  0  0  0  0  0  0  0  0  0  0
   10.0298  -17.1378   25.9374 C   0  0  0  0  0  0  0  0  0  0  0  0
    9.0874  -17.9578   25.8462 O   0  0  0  0  0  0  0  0  0  0  0  0
   10.9730  -17.3128   26.9223 O   0  0  0  0  0  0  0  0  0  0  0  0
  2  1  1  6
  3  2  1  0
  4  3  1  0
  5  4  2  0
  6  2  1  0
  6  7  2  0
  8  4  1  0
  9 10  1  0
 11 10  1  1
 11 12  1  0
 11 13  1  0
 12  6  1  0
 13 14  2  0
 13 15  1  0
 15 16  1  0
 16 27  1  0
 16 17  1  1
 18 17  1  0
 19 18  2  0
 20 19  1  0
 21 20  1  0
 21 26  2  0
 22 21  1  0
 23 22  2  0
 23 24  1  0
 24 25  2  0
 25 26  1  0
 26 18  1  0
 27 28  2  0
 27 29  1  0
M  END
$$$$
