DSW.pdb
     RDKit          3D

 29 30  0  0  1  0  0  0  0  0999 V2000
   10.3330  -18.0444   17.6728 N   0  0  0  0  0  0  0  0  0  0  0  0
   10.3990  -18.4998   19.0238 C   0  0  1  0  0  0  0  0  0  0  0  0
   11.7845  -19.1163   19.2391 C   0  0  0  0  0  0  0  0  0  0  0  0
   12.2543  -19.7864   18.0035 C   0  0  0  0  0  0  0  0  0  0  0  0
   12.1111  -19.1640   16.9196 O   0  0  0  0  0  0  0  0  0  0  0  0
   10.3171  -17.3656   20.0055 C   0  0  0  0  0  0  0  0  0  0  0  0
   11.3599  -16.7276   20.2960 O   0  0  0  0  0  0  0  0  0  0  0  0
   12.8337  -21.0407   17.9669 O   0  0  0  0  0  0  0  0  0  0  0  0
    6.5634  -16.1654   21.7854 O   0  0  0  0  0  0  0  0  0  0  0  0
    7.6050  -15.2875   21.6229 C   0  0  0  0  0  0  0  0  0  0  0  0
    8.9475  -15.9327   21.5874 C   0  0  2  0  0  0  0  0  0  0  0  0
    9.1098  -16.9723   20.6295 N   0  0  0  0  0  0  0  0  0  0  0  0
    9.3476  -16.3210   22.9569 C   0  0  0  0  0  0  0  0  0  0  0  0
    9.1571  -17.5091   23.3099 O   0  0  0  0  0  0  0  0  0  0  0  0
    9.9326  -15.4352   23.8980 N   0  0  0  0  0  0  0  0  0  0  0  0
    9.7919  -15.5951   25.3456 C   0  0  1  0  0  0  0  0  0  0  0  0
    8.5179  -16.3086   25.6971 C   0  0  0  0  0  0  0  0  0  0  0  0
    7.4157  -15.3317   25.7367 C   0  0  0  0  0  0  0  0  0  0  0  0
    6.0949  -15.5420   25.4246 C   0  0  0  0  0  0  0  0  0  0  0  0
    5.4198  -14.3904   25.5948 N   0  0  0  0  0  0  0  0  0  0  0  0
    6.2734  -13.4177   26.0158 C   0  0  0  0  0  0  0  0  0  0  0  0
    6.0758  -12.0955   26.3215 C   0  0  0  0  0  0  0  0  0  0  0  0
    7.1492  -11.3266   26.7293 C   0  0  0  0  0  0  0  0  0  0  0  0
    8.3966  -11.8868   26.8251 C   0  0  0  0  0  0  0  0  0  0  0  0
    8.5713  -13.2163   26.5134 C   0  0  0  0  0  0  0  0  0  0  0  0
    7.5299  -14.0129   26.1044 C   0  0  0  0  0  0  0  0  0  0  0  0
   10.9833  -16.2742   25.8542 C   0  0  0  0  0  0  0  0  0  0  0  0
   11.1042  -16.4943   27.0813 O   0  0  0  0  0  0  0  0  0  0  0  0
   11.9835  -16.6793   25.0023 O   0  0  0  0  0  0  0  0  0  0  0  0
  2  1  1  6
  3  2  1  0
  4  3  1  0
  5  4  2  0
  6  2  1  0
  6  7  2  0
  8  4  1  0
  9 10  1  0
 11 10  1  1
 11 12  1  0
 11 13  1  0
 12  6  1  0
 13 14  2  0
 13 15  1  0
 15 16  1  0
 16 27  1  0
 16 17  1  6
 18 17  1  0
 19 18  2  0
 20 19  1  0
 21 20  1  0
 21 26  2  0
 22 21  1  0
 23 22  2  0
 23 24  1  0
 24 25  2  0
 25 26  1  0
 26 18  1  0
 27 28  2  0
 27 29  1  0
M  END
$$$$
