DSW.pdb
     RDKit          3D

 29 30  0  0  1  0  0  0  0  0999 V2000
    9.7669  -15.3850   18.2374 N   0  0  0  0  0  0  0  0  0  0  0  0
    8.8896  -14.6151   19.0586 C   0  0  1  0  0  0  0  0  0  0  0  0
    7.6279  -14.3202   18.2418 C   0  0  0  0  0  0  0  0  0  0  0  0
    7.9845  -13.8928   16.8683 C   0  0  0  0  0  0  0  0  0  0  0  0
    9.0820  -13.2967   16.7163 O   0  0  0  0  0  0  0  0  0  0  0  0
    8.4116  -15.3897   20.2537 C   0  0  0  0  0  0  0  0  0  0  0  0
    7.4547  -14.9418   20.9339 O   0  0  0  0  0  0  0  0  0  0  0  0
    7.1947  -14.1051   15.7541 O   0  0  0  0  0  0  0  0  0  0  0  0
    9.9977  -19.2997   21.1695 O   0  0  0  0  0  0  0  0  0  0  0  0
    8.7065  -18.9340   21.4543 C   0  0  0  0  0  0  0  0  0  0  0  0
    8.5236  -17.4747   21.6929 C   0  0  2  0  0  0  0  0  0  0  0  0
    8.9906  -16.6150   20.6597 N   0  0  0  0  0  0  0  0  0  0  0  0
    9.0376  -17.1231   23.0340 C   0  0  0  0  0  0  0  0  0  0  0  0
   10.2119  -16.6912   23.1184 O   0  0  0  0  0  0  0  0  0  0  0  0
    8.2878  -17.2439   24.2322 N   0  0  0  0  0  0  0  0  0  0  0  0
    8.8400  -16.9584   25.5567 C   0  0  1  0  0  0  0  0  0  0  0  0
    7.8950  -16.1279   26.3772 C   0  0  0  0  0  0  0  0  0  0  0  0
    8.2345  -14.7044   26.2063 C   0  0  0  0  0  0  0  0  0  0  0  0
    9.4480  -14.1665   25.8539 C   0  0  0  0  0  0  0  0  0  0  0  0
    9.3319  -12.8267   25.8068 N   0  0  0  0  0  0  0  0  0  0  0  0
    8.0581  -12.4666   26.1228 C   0  0  0  0  0  0  0  0  0  0  0  0
    7.4490  -11.2414   26.2149 C   0  0  0  0  0  0  0  0  0  0  0  0
    6.1144  -11.1729   26.5665 C   0  0  0  0  0  0  0  0  0  0  0  0
    5.4122  -12.3228   26.8194 C   0  0  0  0  0  0  0  0  0  0  0  0
    6.0443  -13.5417   26.7205 C   0  0  0  0  0  0  0  0  0  0  0  0
    7.3689  -13.6510   26.3741 C   0  0  0  0  0  0  0  0  0  0  0  0
    9.1856  -18.2270   26.1974 C   0  0  0  0  0  0  0  0  0  0  0  0
    9.6669  -18.2353   27.3537 O   0  0  0  0  0  0  0  0  0  0  0  0
    8.9907  -19.4229   25.5476 O   0  0  0  0  0  0  0  0  0  0  0  0
  2  1  1  6
  3  2  1  0
  4  3  1  0
  5  4  2  0
  6  2  1  0
  6  7  2  0
  8  4  1  0
  9 10  1  0
 11 10  1  6
 11 12  1  0
 11 13  1  0
 12  6  1  0
 13 14  2  0
 13 15  1  0
 15 16  1  0
 16 27  1  0
 16 17  1  1
 18 17  1  0
 19 18  2  0
 20 19  1  0
 21 20  1  0
 21 26  2  0
 22 21  1  0
 23 22  2  0
 23 24  1  0
 24 25  2  0
 25 26  1  0
 26 18  1  0
 27 28  2  0
 27 29  1  0
M  END
$$$$
