DSW.pdb
     RDKit          3D

 29 30  0  0  1  0  0  0  0  0999 V2000
    9.5587  -16.2479   17.0720 N   0  0  0  0  0  0  0  0  0  0  0  0
    9.1306  -15.1320   17.8520 C   0  0  1  0  0  0  0  0  0  0  0  0
    7.9038  -14.5268   17.1631 C   0  0  0  0  0  0  0  0  0  0  0  0
    8.2286  -14.1341   15.7714 C   0  0  0  0  0  0  0  0  0  0  0  0
    8.6870  -15.0266   15.0122 O   0  0  0  0  0  0  0  0  0  0  0  0
    8.6514  -15.5470   19.2140 C   0  0  0  0  0  0  0  0  0  0  0  0
    8.2312  -14.6711   20.0109 O   0  0  0  0  0  0  0  0  0  0  0  0
    8.0619  -12.8611   15.2596 O   0  0  0  0  0  0  0  0  0  0  0  0
    9.3010  -19.5513   20.7566 O   0  0  0  0  0  0  0  0  0  0  0  0
    8.1850  -18.8332   21.1043 C   0  0  0  0  0  0  0  0  0  0  0  0
    8.3389  -17.3582   20.9613 C   0  0  2  0  0  0  0  0  0  0  0  0
    8.6482  -16.8919   19.6530 N   0  0  0  0  0  0  0  0  0  0  0  0
    9.2573  -16.8519   22.0036 C   0  0  0  0  0  0  0  0  0  0  0  0
   10.3768  -16.4190   21.6401 O   0  0  0  0  0  0  0  0  0  0  0  0
    8.9539  -16.8250   23.3891 N   0  0  0  0  0  0  0  0  0  0  0  0
    9.8574  -16.2712   24.3979 C   0  0  1  0  0  0  0  0  0  0  0  0
    9.5916  -14.8112   24.6294 C   0  0  0  0  0  0  0  0  0  0  0  0
    8.2295  -14.6505   25.1675 C   0  0  0  0  0  0  0  0  0  0  0  0
    7.2558  -15.6112   25.2901 C   0  0  0  0  0  0  0  0  0  0  0  0
    6.1584  -15.0507   25.8307 N   0  0  0  0  0  0  0  0  0  0  0  0
    6.3891  -13.7309   26.0691 C   0  0  0  0  0  0  0  0  0  0  0  0
    5.5978  -12.7442   26.5992 C   0  0  0  0  0  0  0  0  0  0  0  0
    6.1033  -11.4642   26.7242 C   0  0  0  0  0  0  0  0  0  0  0  0
    7.3844  -11.1906   26.3202 C   0  0  0  0  0  0  0  0  0  0  0  0
    8.1606  -12.1970   25.7912 C   0  0  0  0  0  0  0  0  0  0  0  0
    7.6942  -13.4812   25.6506 C   0  0  0  0  0  0  0  0  0  0  0  0
    9.7373  -17.0715   25.6163 C   0  0  0  0  0  0  0  0  0  0  0  0
   10.4579  -16.8161   26.6083 O   0  0  0  0  0  0  0  0  0  0  0  0
    8.8394  -18.1099   25.6939 O   0  0  0  0  0  0  0  0  0  0  0  0
  2  1  1  6
  3  2  1  0
  4  3  1  0
  5  4  2  0
  6  2  1  0
  6  7  2  0
  8  4  1  0
  9 10  1  0
 11 10  1  6
 11 12  1  0
 11 13  1  0
 12  6  1  0
 13 14  2  0
 13 15  1  0
 15 16  1  0
 16 27  1  0
 16 17  1  1
 18 17  1  0
 19 18  2  0
 20 19  1  0
 21 20  1  0
 21 26  2  0
 22 21  1  0
 23 22  2  0
 23 24  1  0
 24 25  2  0
 25 26  1  0
 26 18  1  0
 27 28  2  0
 27 29  1  0
M  END
$$$$
