DSW.pdb
     RDKit          3D

 29 30  0  0  1  0  0  0  0  0999 V2000
    9.9920  -17.5457   16.9388 N   0  0  0  0  0  0  0  0  0  0  0  0
    9.3577  -16.5594   17.7523 C   0  0  1  0  0  0  0  0  0  0  0  0
    8.1319  -16.0469   16.9903 C   0  0  0  0  0  0  0  0  0  0  0  0
    8.5425  -15.3728   15.7360 C   0  0  0  0  0  0  0  0  0  0  0  0
    9.7614  -15.4205   15.4277 O   0  0  0  0  0  0  0  0  0  0  0  0
    8.8131  -17.1436   19.0247 C   0  0  0  0  0  0  0  0  0  0  0  0
    7.5690  -17.2007   19.1916 O   0  0  0  0  0  0  0  0  0  0  0  0
    7.6793  -14.7005   14.8914 O   0  0  0  0  0  0  0  0  0  0  0  0
   11.2177  -19.5964   21.5591 O   0  0  0  0  0  0  0  0  0  0  0  0
    9.8475  -19.6320   21.5018 C   0  0  0  0  0  0  0  0  0  0  0  0
    9.2126  -18.3096   21.2410 C   0  0  2  0  0  0  0  0  0  0  0  0
    9.6393  -17.6399   20.0603 N   0  0  0  0  0  0  0  0  0  0  0  0
    9.2909  -17.4732   22.4579 C   0  0  0  0  0  0  0  0  0  0  0  0
   10.3065  -16.7540   22.6120 O   0  0  0  0  0  0  0  0  0  0  0  0
    8.2908  -17.4327   23.4631 N   0  0  0  0  0  0  0  0  0  0  0  0
    8.4428  -16.6941   24.7170 C   0  0  1  0  0  0  0  0  0  0  0  0
    7.1105  -16.2882   25.2791 C   0  0  0  0  0  0  0  0  0  0  0  0
    6.9453  -14.8329   25.1196 C   0  0  0  0  0  0  0  0  0  0  0  0
    6.3992  -13.9461   26.0148 C   0  0  0  0  0  0  0  0  0  0  0  0
    6.4393  -12.7110   25.4821 N   0  0  0  0  0  0  0  0  0  0  0  0
    7.0047  -12.7645   24.2454 C   0  0  0  0  0  0  0  0  0  0  0  0
    7.2642  -11.7916   23.3144 C   0  0  0  0  0  0  0  0  0  0  0  0
    7.8572  -12.1412   22.1162 C   0  0  0  0  0  0  0  0  0  0  0  0
    8.1804  -13.4500   21.8675 C   0  0  0  0  0  0  0  0  0  0  0  0
    7.9109  -14.4097   22.8169 C   0  0  0  0  0  0  0  0  0  0  0  0
    7.3224  -14.1019   24.0193 C   0  0  0  0  0  0  0  0  0  0  0  0
    9.2261  -17.5111   25.6435 C   0  0  0  0  0  0  0  0  0  0  0  0
    9.6081  -17.0303   26.7351 O   0  0  0  0  0  0  0  0  0  0  0  0
    9.5547  -18.8102   25.3355 O   0  0  0  0  0  0  0  0  0  0  0  0
  2  1  1  6
  3  2  1  0
  4  3  1  0
  5  4  2  0
  6  2  1  0
  6  7  2  0
  8  4  1  0
  9 10  1  0
 11 10  1  1
 11 12  1  0
 11 13  1  0
 12  6  1  0
 13 14  2  0
 13 15  1  0
 15 16  1  0
 16 27  1  0
 16 17  1  1
 18 17  1  0
 19 18  2  0
 20 19  1  0
 21 20  1  0
 21 26  2  0
 22 21  1  0
 23 22  2  0
 23 24  1  0
 24 25  2  0
 25 26  1  0
 26 18  1  0
 27 28  2  0
 27 29  1  0
M  END
$$$$
