DSW.pdb
     RDKit          3D

 29 30  0  0  1  0  0  0  0  0999 V2000
   10.7608  -18.0769   18.4476 N   0  0  0  0  0  0  0  0  0  0  0  0
   10.1692  -18.3093   19.7255 C   0  0  1  0  0  0  0  0  0  0  0  0
   11.2085  -19.0219   20.5960 C   0  0  0  0  0  0  0  0  0  0  0  0
   11.1411  -20.4884   20.3926 C   0  0  0  0  0  0  0  0  0  0  0  0
   10.2719  -20.9204   19.5921 O   0  0  0  0  0  0  0  0  0  0  0  0
    9.8649  -17.0274   20.4473 C   0  0  0  0  0  0  0  0  0  0  0  0
   10.8125  -16.3347   20.8958 O   0  0  0  0  0  0  0  0  0  0  0  0
   11.9647  -21.4031   21.0214 O   0  0  0  0  0  0  0  0  0  0  0  0
    5.7829  -15.6687   21.2488 O   0  0  0  0  0  0  0  0  0  0  0  0
    6.8377  -14.8164   21.0413 C   0  0  0  0  0  0  0  0  0  0  0  0
    8.1669  -15.3945   21.3862 C   0  0  2  0  0  0  0  0  0  0  0  0
    8.5482  -16.5519   20.6517 N   0  0  0  0  0  0  0  0  0  0  0  0
    8.2697  -15.5621   22.8517 C   0  0  0  0  0  0  0  0  0  0  0  0
    7.3388  -15.1118   23.5611 O   0  0  0  0  0  0  0  0  0  0  0  0
    9.3546  -16.1990   23.5072 N   0  0  0  0  0  0  0  0  0  0  0  0
    9.7869  -15.8555   24.8622 C   0  0  1  0  0  0  0  0  0  0  0  0
    8.7572  -16.2489   25.8824 C   0  0  0  0  0  0  0  0  0  0  0  0
    7.6232  -15.3114   25.8062 C   0  0  0  0  0  0  0  0  0  0  0  0
    6.3443  -15.5726   25.3792 C   0  0  0  0  0  0  0  0  0  0  0  0
    5.6175  -14.4437   25.4689 N   0  0  0  0  0  0  0  0  0  0  0  0
    6.3953  -13.4359   25.9496 C   0  0  0  0  0  0  0  0  0  0  0  0
    6.1255  -12.1176   26.2146 C   0  0  0  0  0  0  0  0  0  0  0  0
    7.1303  -11.3057   26.7054 C   0  0  0  0  0  0  0  0  0  0  0  0
    8.3823  -11.8199   26.9229 C   0  0  0  0  0  0  0  0  0  0  0  0
    8.6301  -13.1462   26.6499 C   0  0  0  0  0  0  0  0  0  0  0  0
    7.6582  -13.9847   26.1612 C   0  0  0  0  0  0  0  0  0  0  0  0
   11.0909  -16.4729   25.1026 C   0  0  0  0  0  0  0  0  0  0  0  0
   11.6685  -16.3111   26.2021 O   0  0  0  0  0  0  0  0  0  0  0  0
   11.7010  -17.2350   24.1344 O   0  0  0  0  0  0  0  0  0  0  0  0
  2  1  1  6
  3  2  1  0
  4  3  1  0
  5  4  2  0
  6  2  1  0
  6  7  2  0
  8  4  1  0
  9 10  1  0
 11 10  1  1
 11 12  1  0
 11 13  1  0
 12  6  1  0
 13 14  2  0
 13 15  1  0
 15 16  1  0
 16 27  1  0
 16 17  1  1
 18 17  1  0
 19 18  2  0
 20 19  1  0
 21 20  1  0
 21 26  2  0
 22 21  1  0
 23 22  2  0
 23 24  1  0
 24 25  2  0
 25 26  1  0
 26 18  1  0
 27 28  2  0
 27 29  1  0
M  END
$$$$
