DSW.pdb
     RDKit          3D

 29 30  0  0  1  0  0  0  0  0999 V2000
    9.7478  -18.5280   18.8743 N   0  0  0  0  0  0  0  0  0  0  0  0
   10.6337  -18.1521   19.9282 C   0  0  1  0  0  0  0  0  0  0  0  0
   12.0161  -17.9175   19.3116 C   0  0  0  0  0  0  0  0  0  0  0  0
   12.5352  -19.1665   18.7060 C   0  0  0  0  0  0  0  0  0  0  0  0
   12.6684  -19.1891   17.4551 O   0  0  0  0  0  0  0  0  0  0  0  0
   10.2504  -16.8369   20.5447 C   0  0  0  0  0  0  0  0  0  0  0  0
   11.1091  -15.9232   20.6271 O   0  0  0  0  0  0  0  0  0  0  0  0
   12.8785  -20.2980   19.4217 O   0  0  0  0  0  0  0  0  0  0  0  0
    6.2329  -16.1383   21.7621 O   0  0  0  0  0  0  0  0  0  0  0  0
    7.0387  -15.0698   21.4603 C   0  0  0  0  0  0  0  0  0  0  0  0
    8.4960  -15.3439   21.6050 C   0  0  2  0  0  0  0  0  0  0  0  0
    8.9544  -16.5689   21.0448 N   0  0  0  0  0  0  0  0  0  0  0  0
    8.8999  -15.1487   23.0140 C   0  0  0  0  0  0  0  0  0  0  0  0
    8.7086  -14.0215   23.5292 O   0  0  0  0  0  0  0  0  0  0  0  0
    9.4910  -16.1548   23.8207 N   0  0  0  0  0  0  0  0  0  0  0  0
    9.9952  -15.9070   25.1717 C   0  0  1  0  0  0  0  0  0  0  0  0
    9.0136  -16.3592   26.2146 C   0  0  0  0  0  0  0  0  0  0  0  0
    7.7913  -15.5432   26.1095 C   0  0  0  0  0  0  0  0  0  0  0  0
    6.5334  -15.9572   25.7455 C   0  0  0  0  0  0  0  0  0  0  0  0
    5.7018  -14.8998   25.7783 N   0  0  0  0  0  0  0  0  0  0  0  0
    6.3894  -13.7888   26.1590 C   0  0  0  0  0  0  0  0  0  0  0  0
    5.9985  -12.4864   26.3377 C   0  0  0  0  0  0  0  0  0  0  0  0
    6.9313  -11.5474   26.7349 C   0  0  0  0  0  0  0  0  0  0  0  0
    8.2331  -11.9213   26.9466 C   0  0  0  0  0  0  0  0  0  0  0  0
    8.6026  -13.2344   26.7614 C   0  0  0  0  0  0  0  0  0  0  0  0
    7.7052  -14.1965   26.3670 C   0  0  0  0  0  0  0  0  0  0  0  0
   11.3021  -16.5505   25.3033 C   0  0  0  0  0  0  0  0  0  0  0  0
   11.7525  -17.2529   24.3693 O   0  0  0  0  0  0  0  0  0  0  0  0
   12.0531  -16.3976   26.4448 O   0  0  0  0  0  0  0  0  0  0  0  0
  2  1  1  6
  3  2  1  0
  4  3  1  0
  5  4  2  0
  6  2  1  0
  6  7  2  0
  8  4  1  0
  9 10  1  0
 11 10  1  1
 11 12  1  0
 11 13  1  0
 12  6  1  0
 13 14  2  0
 13 15  1  0
 15 16  1  0
 16 27  1  0
 16 17  1  1
 18 17  1  0
 19 18  2  0
 20 19  1  0
 21 20  1  0
 21 26  2  0
 22 21  1  0
 23 22  2  0
 23 24  1  0
 24 25  2  0
 25 26  1  0
 26 18  1  0
 27 28  2  0
 27 29  1  0
M  END
$$$$
