DSW.pdb
     RDKit          3D

 29 30  0  0  1  0  0  0  0  0999 V2000
    7.8568  -18.4409   19.7137 N   0  0  0  0  0  0  0  0  0  0  0  0
    8.6431  -17.3426   20.1744 C   0  0  1  0  0  0  0  0  0  0  0  0
    7.7090  -16.1405   20.3424 C   0  0  0  0  0  0  0  0  0  0  0  0
    7.4043  -15.5296   19.0270 C   0  0  0  0  0  0  0  0  0  0  0  0
    6.8921  -16.2729   18.1505 O   0  0  0  0  0  0  0  0  0  0  0  0
    9.2125  -17.5916   21.5422 C   0  0  0  0  0  0  0  0  0  0  0  0
    8.4515  -17.9814   22.4630 O   0  0  0  0  0  0  0  0  0  0  0  0
    7.6455  -14.2074   18.7048 O   0  0  0  0  0  0  0  0  0  0  0  0
   13.3016  -16.6357   22.5354 O   0  0  0  0  0  0  0  0  0  0  0  0
   12.7047  -17.7542   23.0595 C   0  0  0  0  0  0  0  0  0  0  0  0
   11.2165  -17.6934   23.0929 C   0  0  2  0  0  0  0  0  0  0  0  0
   10.5804  -17.4076   21.8526 N   0  0  0  0  0  0  0  0  0  0  0  0
   10.7807  -16.8141   24.1990 C   0  0  0  0  0  0  0  0  0  0  0  0
   10.7984  -15.5751   24.0062 O   0  0  0  0  0  0  0  0  0  0  0  0
   10.3444  -17.2822   25.4650 N   0  0  0  0  0  0  0  0  0  0  0  0
   10.0731  -16.3969   26.5980 C   0  0  1  0  0  0  0  0  0  0  0  0
    8.6514  -16.5245   27.0652 C   0  0  0  0  0  0  0  0  0  0  0  0
    7.7845  -15.7141   26.1919 C   0  0  0  0  0  0  0  0  0  0  0  0
    6.9710  -16.1519   25.1757 C   0  0  0  0  0  0  0  0  0  0  0  0
    6.3485  -15.0909   24.6302 N   0  0  0  0  0  0  0  0  0  0  0  0
    6.7368  -13.9541   25.2696 C   0  0  0  0  0  0  0  0  0  0  0  0
    6.3944  -12.6387   25.0879 C   0  0  0  0  0  0  0  0  0  0  0  0
    6.9589  -11.6731   25.8994 C   0  0  0  0  0  0  0  0  0  0  0  0
    7.8519  -12.0341   26.8748 C   0  0  0  0  0  0  0  0  0  0  0  0
    8.1807  -13.3607   27.0393 C   0  0  0  0  0  0  0  0  0  0  0  0
    7.6413  -14.3492   26.2528 C   0  0  0  0  0  0  0  0  0  0  0  0
   11.0462  -16.6824   27.6520 C   0  0  0  0  0  0  0  0  0  0  0  0
   11.0345  -16.0177   28.7135 O   0  0  0  0  0  0  0  0  0  0  0  0
   11.9832  -17.6767   27.4980 O   0  0  0  0  0  0  0  0  0  0  0  0
  2  1  1  1
  3  2  1  0
  4  3  1  0
  5  4  2  0
  6  2  1  0
  6  7  2  0
  8  4  1  0
  9 10  1  0
 11 10  1  6
 11 12  1  0
 11 13  1  0
 12  6  1  0
 13 14  2  0
 13 15  1  0
 15 16  1  0
 16 27  1  0
 16 17  1  1
 18 17  1  0
 19 18  2  0
 20 19  1  0
 21 20  1  0
 21 26  2  0
 22 21  1  0
 23 22  2  0
 23 24  1  0
 24 25  2  0
 25 26  1  0
 26 18  1  0
 27 28  2  0
 27 29  1  0
M  END
$$$$
