DSW.pdb
     RDKit          3D

 29 30  0  0  1  0  0  0  0  0999 V2000
   10.3498  -19.2206   19.2745 N   0  0  0  0  0  0  0  0  0  0  0  0
   11.2169  -18.0986   19.4360 C   0  0  1  0  0  0  0  0  0  0  0  0
   11.9497  -17.8829   18.1085 C   0  0  0  0  0  0  0  0  0  0  0  0
   12.9327  -18.9670   17.8738 C   0  0  0  0  0  0  0  0  0  0  0  0
   12.5148  -20.0133   17.3138 O   0  0  0  0  0  0  0  0  0  0  0  0
   10.4541  -16.8266   19.6747 C   0  0  0  0  0  0  0  0  0  0  0  0
   11.0850  -15.7498   19.8203 O   0  0  0  0  0  0  0  0  0  0  0  0
   14.2669  -18.9022   18.2285 O   0  0  0  0  0  0  0  0  0  0  0  0
    6.1316  -16.7702   19.9697 O   0  0  0  0  0  0  0  0  0  0  0  0
    6.8372  -15.7001   19.4811 C   0  0  0  0  0  0  0  0  0  0  0  0
    8.2426  -15.6210   19.9695 C   0  0  2  0  0  0  0  0  0  0  0  0
    9.0420  -16.7765   19.7453 N   0  0  0  0  0  0  0  0  0  0  0  0
    8.2546  -15.1551   21.3727 C   0  0  0  0  0  0  0  0  0  0  0  0
    7.5771  -14.1397   21.6604 O   0  0  0  0  0  0  0  0  0  0  0  0
    8.9842  -15.7826   22.4150 N   0  0  0  0  0  0  0  0  0  0  0  0
    8.9228  -15.3492   23.8112 C   0  0  1  0  0  0  0  0  0  0  0  0
    7.5155  -15.3842   24.3346 C   0  0  0  0  0  0  0  0  0  0  0  0
    7.5001  -14.8477   25.7067 C   0  0  0  0  0  0  0  0  0  0  0  0
    7.6931  -15.5351   26.8799 C   0  0  0  0  0  0  0  0  0  0  0  0
    7.6007  -14.6728   27.9087 N   0  0  0  0  0  0  0  0  0  0  0  0
    7.3489  -13.4218   27.4358 C   0  0  0  0  0  0  0  0  0  0  0  0
    7.1704  -12.2207   28.0731 C   0  0  0  0  0  0  0  0  0  0  0  0
    6.9205  -11.0867   27.3240 C   0  0  0  0  0  0  0  0  0  0  0  0
    6.8532  -11.1690   25.9573 C   0  0  0  0  0  0  0  0  0  0  0  0
    7.0360  -12.3854   25.3390 C   0  0  0  0  0  0  0  0  0  0  0  0
    7.2860  -13.5345   26.0487 C   0  0  0  0  0  0  0  0  0  0  0  0
    9.8415  -16.1761   24.5933 C   0  0  0  0  0  0  0  0  0  0  0  0
   10.3768  -15.7135   25.6268 O   0  0  0  0  0  0  0  0  0  0  0  0
   10.1318  -17.4646   24.2114 O   0  0  0  0  0  0  0  0  0  0  0  0
  2  1  1  6
  3  2  1  0
  4  3  1  0
  5  4  2  0
  6  2  1  0
  6  7  2  0
  8  4  1  0
  9 10  1  0
 11 10  1  1
 11 12  1  0
 11 13  1  0
 12  6  1  0
 13 14  2  0
 13 15  1  0
 15 16  1  0
 16 27  1  0
 16 17  1  1
 18 17  1  0
 19 18  2  0
 20 19  1  0
 21 20  1  0
 21 26  2  0
 22 21  1  0
 23 22  2  0
 23 24  1  0
 24 25  2  0
 25 26  1  0
 26 18  1  0
 27 28  2  0
 27 29  1  0
M  END
$$$$
