DSW.pdb
     RDKit          3D

 29 30  0  0  1  0  0  0  0  0999 V2000
    9.0241  -15.3427   16.1842 N   0  0  0  0  0  0  0  0  0  0  0  0
    9.3352  -16.2952   17.2005 C   0  0  1  0  0  0  0  0  0  0  0  0
   10.8580  -16.4545   17.2376 C   0  0  0  0  0  0  0  0  0  0  0  0
   11.3333  -17.1974   16.0465 C   0  0  0  0  0  0  0  0  0  0  0  0
   10.4624  -17.6020   15.2336 O   0  0  0  0  0  0  0  0  0  0  0  0
    8.9585  -15.8028   18.5689 C   0  0  0  0  0  0  0  0  0  0  0  0
    9.2307  -14.6196   18.8928 O   0  0  0  0  0  0  0  0  0  0  0  0
   12.6604  -17.4720   15.7750 O   0  0  0  0  0  0  0  0  0  0  0  0
    6.4305  -18.1046   21.2472 O   0  0  0  0  0  0  0  0  0  0  0  0
    6.5049  -16.7353   21.2112 C   0  0  0  0  0  0  0  0  0  0  0  0
    7.8383  -16.2066   20.8080 C   0  0  2  0  0  0  0  0  0  0  0  0
    8.3037  -16.6130   19.5262 N   0  0  0  0  0  0  0  0  0  0  0  0
    8.8138  -16.4404   21.8943 C   0  0  0  0  0  0  0  0  0  0  0  0
    9.7647  -17.2267   21.6706 O   0  0  0  0  0  0  0  0  0  0  0  0
    8.7427  -15.8328   23.1742 N   0  0  0  0  0  0  0  0  0  0  0  0
    9.7292  -16.0661   24.2292 C   0  0  1  0  0  0  0  0  0  0  0  0
    9.7197  -14.9583   25.2433 C   0  0  0  0  0  0  0  0  0  0  0  0
    8.3413  -14.7593   25.7241 C   0  0  0  0  0  0  0  0  0  0  0  0
    7.3500  -15.7018   25.8470 C   0  0  0  0  0  0  0  0  0  0  0  0
    6.2417  -15.1066   26.3248 N   0  0  0  0  0  0  0  0  0  0  0  0
    6.4825  -13.7817   26.5212 C   0  0  0  0  0  0  0  0  0  0  0  0
    5.6867  -12.7651   26.9836 C   0  0  0  0  0  0  0  0  0  0  0  0
    6.2057  -11.4879   27.0784 C   0  0  0  0  0  0  0  0  0  0  0  0
    7.5045  -11.2468   26.7120 C   0  0  0  0  0  0  0  0  0  0  0  0
    8.2850  -12.2828   26.2509 C   0  0  0  0  0  0  0  0  0  0  0  0
    7.8055  -13.5654   26.1421 C   0  0  0  0  0  0  0  0  0  0  0  0
    9.4740  -17.3799   24.8193 C   0  0  0  0  0  0  0  0  0  0  0  0
    8.3734  -17.9481   24.6334 O   0  0  0  0  0  0  0  0  0  0  0  0
   10.4290  -18.0093   25.5824 O   0  0  0  0  0  0  0  0  0  0  0  0
  2  1  1  6
  3  2  1  0
  4  3  1  0
  5  4  2  0
  6  2  1  0
  6  7  2  0
  8  4  1  0
  9 10  1  0
 11 10  1  1
 11 12  1  0
 11 13  1  0
 12  6  1  0
 13 14  2  0
 13 15  1  0
 15 16  1  0
 16 27  1  0
 16 17  1  1
 18 17  1  0
 19 18  2  0
 20 19  1  0
 21 20  1  0
 21 26  2  0
 22 21  1  0
 23 22  2  0
 23 24  1  0
 24 25  2  0
 25 26  1  0
 26 18  1  0
 27 28  2  0
 27 29  1  0
M  END
$$$$
