DSW.pdb
     RDKit          3D

 29 30  0  0  1  0  0  0  0  0999 V2000
   10.1830  -16.6981   16.8346 N   0  0  0  0  0  0  0  0  0  0  0  0
    9.9555  -17.6023   17.9152 C   0  0  1  0  0  0  0  0  0  0  0  0
   11.2843  -18.2969   18.2275 C   0  0  0  0  0  0  0  0  0  0  0  0
   11.5357  -19.3968   17.2665 C   0  0  0  0  0  0  0  0  0  0  0  0
   11.7492  -20.5415   17.7429 O   0  0  0  0  0  0  0  0  0  0  0  0
    9.5804  -16.8851   19.1808 C   0  0  0  0  0  0  0  0  0  0  0  0
   10.2360  -15.8717   19.5304 O   0  0  0  0  0  0  0  0  0  0  0  0
   11.5511  -19.2459   15.8927 O   0  0  0  0  0  0  0  0  0  0  0  0
    6.4904  -18.3539   21.8371 O   0  0  0  0  0  0  0  0  0  0  0  0
    6.6802  -17.0095   21.6404 C   0  0  0  0  0  0  0  0  0  0  0  0
    8.0536  -16.6459   21.1915 C   0  0  2  0  0  0  0  0  0  0  0  0
    8.5122  -17.2966   20.0121 N   0  0  0  0  0  0  0  0  0  0  0  0
    8.9916  -16.7515   22.3296 C   0  0  0  0  0  0  0  0  0  0  0  0
    9.9024  -17.6109   22.2622 O   0  0  0  0  0  0  0  0  0  0  0  0
    8.9271  -15.9435   23.4937 N   0  0  0  0  0  0  0  0  0  0  0  0
    9.7938  -16.1399   24.6561 C   0  0  1  0  0  0  0  0  0  0  0  0
    9.6648  -15.0071   25.6338 C   0  0  0  0  0  0  0  0  0  0  0  0
    8.2382  -14.6809   25.8052 C   0  0  0  0  0  0  0  0  0  0  0  0
    7.1695  -15.5429   25.7731 C   0  0  0  0  0  0  0  0  0  0  0  0
    6.0393  -14.8410   25.9751 N   0  0  0  0  0  0  0  0  0  0  0  0
    6.3419  -13.5246   26.1410 C   0  0  0  0  0  0  0  0  0  0  0  0
    5.5540  -12.4255   26.3688 C   0  0  0  0  0  0  0  0  0  0  0  0
    6.1448  -11.1828   26.4962 C   0  0  0  0  0  0  0  0  0  0  0  0
    7.5061  -11.0574   26.3947 C   0  0  0  0  0  0  0  0  0  0  0  0
    8.2773  -12.1746   26.1660 C   0  0  0  0  0  0  0  0  0  0  0  0
    7.7274  -13.4263   26.0335 C   0  0  0  0  0  0  0  0  0  0  0  0
    9.4854  -17.4410   25.2489 C   0  0  0  0  0  0  0  0  0  0  0  0
   10.2323  -17.9207   26.1325 O   0  0  0  0  0  0  0  0  0  0  0  0
    8.3802  -18.1550   24.8501 O   0  0  0  0  0  0  0  0  0  0  0  0
  2  1  1  6
  3  2  1  0
  4  3  1  0
  5  4  2  0
  6  2  1  0
  6  7  2  0
  8  4  1  0
  9 10  1  0
 11 10  1  1
 11 12  1  0
 11 13  1  0
 12  6  1  0
 13 14  2  0
 13 15  1  0
 15 16  1  0
 16 27  1  0
 16 17  1  1
 18 17  1  0
 19 18  2  0
 20 19  1  0
 21 20  1  0
 21 26  2  0
 22 21  1  0
 23 22  2  0
 23 24  1  0
 24 25  2  0
 25 26  1  0
 26 18  1  0
 27 28  2  0
 27 29  1  0
M  END
$$$$
