DSW.pdb
     RDKit          3D

 29 30  0  0  1  0  0  0  0  0999 V2000
   11.3571  -18.4769   18.6933 N   0  0  0  0  0  0  0  0  0  0  0  0
   11.7037  -17.2787   19.3870 C   0  0  1  0  0  0  0  0  0  0  0  0
   11.8490  -16.1646   18.3461 C   0  0  0  0  0  0  0  0  0  0  0  0
   13.1044  -16.3312   17.5763 C   0  0  0  0  0  0  0  0  0  0  0  0
   14.0107  -17.0327   18.0955 O   0  0  0  0  0  0  0  0  0  0  0  0
   10.6048  -16.8197   20.3028 C   0  0  0  0  0  0  0  0  0  0  0  0
    9.5545  -16.3379   19.8092 O   0  0  0  0  0  0  0  0  0  0  0  0
   13.3408  -15.7694   16.3358 O   0  0  0  0  0  0  0  0  0  0  0  0
    8.4405  -18.9271   23.3558 O   0  0  0  0  0  0  0  0  0  0  0  0
    8.5756  -17.9961   22.3573 C   0  0  0  0  0  0  0  0  0  0  0  0
    9.6048  -16.9537   22.6294 C   0  0  2  0  0  0  0  0  0  0  0  0
   10.6916  -16.9024   21.7124 N   0  0  0  0  0  0  0  0  0  0  0  0
   10.0264  -17.0303   24.0445 C   0  0  0  0  0  0  0  0  0  0  0  0
   10.9282  -17.8482   24.3453 O   0  0  0  0  0  0  0  0  0  0  0  0
    9.4756  -16.2384   25.0846 N   0  0  0  0  0  0  0  0  0  0  0  0
   10.0729  -16.1344   26.4163 C   0  0  1  0  0  0  0  0  0  0  0  0
    9.4412  -15.0309   27.2157 C   0  0  0  0  0  0  0  0  0  0  0  0
    8.0978  -14.7560   26.6768 C   0  0  0  0  0  0  0  0  0  0  0  0
    7.0914  -15.6570   26.4289 C   0  0  0  0  0  0  0  0  0  0  0  0
    6.0263  -14.9950   25.9411 N   0  0  0  0  0  0  0  0  0  0  0  0
    6.3106  -13.6666   25.8614 C   0  0  0  0  0  0  0  0  0  0  0  0
    5.5685  -12.5953   25.4343 C   0  0  0  0  0  0  0  0  0  0  0  0
    6.1254  -11.3310   25.4621 C   0  0  0  0  0  0  0  0  0  0  0  0
    7.4079  -11.1566   25.9137 C   0  0  0  0  0  0  0  0  0  0  0  0
    8.1340  -12.2465   26.3380 C   0  0  0  0  0  0  0  0  0  0  0  0
    7.6158  -13.5185   26.3253 C   0  0  0  0  0  0  0  0  0  0  0  0
    9.9751  -17.4388   27.0707 C   0  0  0  0  0  0  0  0  0  0  0  0
   10.5321  -17.6294   28.1762 O   0  0  0  0  0  0  0  0  0  0  0  0
    9.2765  -18.4704   26.4892 O   0  0  0  0  0  0  0  0  0  0  0  0
  2  1  1  6
  3  2  1  0
  4  3  1  0
  5  4  2  0
  6  2  1  0
  6  7  2  0
  8  4  1  0
  9 10  1  0
 11 10  1  6
 11 12  1  0
 11 13  1  0
 12  6  1  0
 13 14  2  0
 13 15  1  0
 15 16  1  0
 16 27  1  0
 16 17  1  1
 18 17  1  0
 19 18  2  0
 20 19  1  0
 21 20  1  0
 21 26  2  0
 22 21  1  0
 23 22  2  0
 23 24  1  0
 24 25  2  0
 25 26  1  0
 26 18  1  0
 27 28  2  0
 27 29  1  0
M  END
$$$$
