TEH.pdb
     RDKit          3D

 27 27  0  0  1  0  0  0  0  0999 V2000
    9.4972  -15.8698   16.9016 C   0  0  0  0  0  0  0  0  0  0  0  0
    9.3795  -14.3866   17.1845 C   0  0  1  0  0  0  0  0  0  0  0  0
    9.0603  -13.6970   16.0225 O   0  0  0  0  0  0  0  0  0  0  0  0
    8.2659  -14.1216   18.2030 C   0  0  2  0  0  0  0  0  0  0  0  0
    8.0975  -12.6768   18.3713 N   0  0  0  0  0  0  0  0  0  0  0  0
    8.5575  -14.7060   19.5193 C   0  0  0  0  0  0  0  0  0  0  0  0
    8.9533  -13.9660   20.4889 O   0  0  0  0  0  0  0  0  0  0  0  0
    8.4124  -16.0967   19.7636 N   0  0  0  0  0  0  0  0  0  0  0  0
    8.5312  -16.6115   21.1304 C   0  0  1  0  0  0  0  0  0  0  0  0
    7.5988  -17.8046   21.3181 C   0  0  0  0  0  0  0  0  0  0  0  0
    7.8029  -18.8267   20.2266 C   0  0  0  0  0  0  0  0  0  0  0  0
    6.9150  -19.9825   20.3520 C   0  0  0  0  0  0  0  0  0  0  0  0
    5.7561  -19.9279   19.8669 O   0  0  0  0  0  0  0  0  0  0  0  0
    9.9362  -17.0030   21.3410 C   0  0  0  0  0  0  0  0  0  0  0  0
   10.2920  -18.1778   21.1118 O   0  0  0  0  0  0  0  0  0  0  0  0
    7.2733  -21.1707   20.9882 O   0  0  0  0  0  0  0  0  0  0  0  0
   10.9528  -16.0954   21.8063 N   0  0  0  0  0  0  0  0  0  0  0  0
   12.3053  -16.4919   22.0098 C   0  0  1  0  0  0  0  0  0  0  0  0
   13.2978  -15.4373   21.6535 C   0  0  0  0  0  0  0  0  0  0  0  0
   13.3254  -14.9702   20.2763 C   0  0  0  0  0  0  0  0  0  0  0  0
   13.1939  -15.6390   19.0953 C   0  0  0  0  0  0  0  0  0  0  0  0
   13.2578  -14.7556   18.0541 N   0  0  0  0  0  0  0  0  0  0  0  0
   13.4252  -13.5655   18.5930 C   0  0  0  0  0  0  0  0  0  0  0  0
   13.4703  -13.6538   19.9205 N   0  0  0  0  0  0  0  0  0  0  0  0
   12.5833  -16.9535   23.4146 C   0  0  0  0  0  0  0  0  0  0  0  0
   11.6443  -16.8183   24.2380 O   0  0  0  0  0  0  0  0  0  0  0  0
   13.7648  -17.4947   23.8342 O   0  0  0  0  0  0  0  0  0  0  0  0
  2  1  1  6
  2  3  1  0
  4  2  1  0
  4  5  1  1
  6  7  2  0
  6  4  1  0
  8  6  1  0
  9 10  1  6
  9  8  1  0
 11 12  1  0
 11 10  1  0
 12 13  2  0
 14  9  1  0
 15 14  2  0
 16 12  1  0
 17 14  1  0
 18 17  1  0
 18 19  1  1
 20 19  1  0
 20 21  2  0
 22 21  1  0
 23 22  1  0
 24 23  2  0
 24 20  1  0
 25 18  1  0
 25 27  1  0
 26 25  2  0
M  END
$$$$
