TEH.pdb
     RDKit          3D

 27 27  0  0  1  0  0  0  0  0999 V2000
    7.7454  -12.4774   18.1922 C   0  0  0  0  0  0  0  0  0  0  0  0
    7.9962  -13.7408   18.9888 C   0  0  1  0  0  0  0  0  0  0  0  0
    8.2359  -14.8099   18.1362 O   0  0  0  0  0  0  0  0  0  0  0  0
    9.2288  -13.5746   19.8838 C   0  0  2  0  0  0  0  0  0  0  0  0
   10.4107  -13.3628   19.0457 N   0  0  0  0  0  0  0  0  0  0  0  0
    9.4714  -14.7510   20.7301 C   0  0  0  0  0  0  0  0  0  0  0  0
    8.5913  -15.1373   21.5789 O   0  0  0  0  0  0  0  0  0  0  0  0
   10.6763  -15.4960   20.6396 N   0  0  0  0  0  0  0  0  0  0  0  0
   10.8449  -16.7076   21.4464 C   0  0  1  0  0  0  0  0  0  0  0  0
   11.9739  -17.5592   20.8734 C   0  0  0  0  0  0  0  0  0  0  0  0
   12.1371  -18.8383   21.6577 C   0  0  0  0  0  0  0  0  0  0  0  0
   13.1540  -19.7276   21.0963 C   0  0  0  0  0  0  0  0  0  0  0  0
   13.1632  -20.9417   21.4237 O   0  0  0  0  0  0  0  0  0  0  0  0
   11.1497  -16.2883   22.8258 C   0  0  0  0  0  0  0  0  0  0  0  0
   12.0365  -15.4334   23.0309 O   0  0  0  0  0  0  0  0  0  0  0  0
   14.1389  -19.3121   20.2006 O   0  0  0  0  0  0  0  0  0  0  0  0
   10.4738  -16.8139   23.9837 N   0  0  0  0  0  0  0  0  0  0  0  0
   10.7447  -16.3605   25.3061 C   0  0  1  0  0  0  0  0  0  0  0  0
    9.5897  -15.6715   25.9506 C   0  0  0  0  0  0  0  0  0  0  0  0
    9.7651  -15.1808   27.3086 C   0  0  0  0  0  0  0  0  0  0  0  0
   10.8290  -15.2447   28.1592 C   0  0  0  0  0  0  0  0  0  0  0  0
   10.5245  -14.6063   29.3290 N   0  0  0  0  0  0  0  0  0  0  0  0
    9.2932  -14.1593   29.1927 C   0  0  0  0  0  0  0  0  0  0  0  0
    8.8059  -14.4835   27.9972 N   0  0  0  0  0  0  0  0  0  0  0  0
   11.2194  -17.4550   26.2231 C   0  0  0  0  0  0  0  0  0  0  0  0
   11.5827  -17.0970   27.3711 O   0  0  0  0  0  0  0  0  0  0  0  0
   11.2773  -18.7776   25.8880 O   0  0  0  0  0  0  0  0  0  0  0  0
  2  1  1  6
  2  3  1  0
  4  2  1  0
  4  5  1  6
  6  7  2  0
  6  4  1  0
  8  6  1  0
  9 10  1  6
  9  8  1  0
 11 12  1  0
 11 10  1  0
 12 13  2  0
 14  9  1  0
 15 14  2  0
 16 12  1  0
 17 14  1  0
 18 17  1  0
 18 19  1  1
 20 19  1  0
 20 21  2  0
 22 21  1  0
 23 22  1  0
 24 23  2  0
 24 20  1  0
 25 18  1  0
 25 27  1  0
 26 25  2  0
M  END
$$$$
