TEH.pdb
     RDKit          3D

 27 27  0  0  1  0  0  0  0  0999 V2000
   14.6279  -17.2992   17.5727 C   0  0  0  0  0  0  0  0  0  0  0  0
   15.4064  -16.0278   17.8396 C   0  0  1  0  0  0  0  0  0  0  0  0
   16.4518  -15.9024   16.9346 O   0  0  0  0  0  0  0  0  0  0  0  0
   14.5022  -14.8013   17.6780 C   0  0  2  0  0  0  0  0  0  0  0  0
   15.3151  -13.5862   17.7608 N   0  0  0  0  0  0  0  0  0  0  0  0
   13.4626  -14.7293   18.7138 C   0  0  0  0  0  0  0  0  0  0  0  0
   13.7660  -14.4325   19.9238 O   0  0  0  0  0  0  0  0  0  0  0  0
   12.0979  -14.9821   18.4160 N   0  0  0  0  0  0  0  0  0  0  0  0
   11.0923  -14.8894   19.4778 C   0  0  1  0  0  0  0  0  0  0  0  0
    9.6933  -14.8919   18.8686 C   0  0  0  0  0  0  0  0  0  0  0  0
    9.4412  -13.6243   18.0892 C   0  0  0  0  0  0  0  0  0  0  0  0
    8.3402  -13.7495   17.1342 C   0  0  0  0  0  0  0  0  0  0  0  0
    7.3039  -14.3809   17.4639 O   0  0  0  0  0  0  0  0  0  0  0  0
   11.2787  -16.0446   20.3734 C   0  0  0  0  0  0  0  0  0  0  0  0
   11.7767  -17.0992   19.9272 O   0  0  0  0  0  0  0  0  0  0  0  0
    8.3604  -13.2037   15.8510 O   0  0  0  0  0  0  0  0  0  0  0  0
   10.9143  -16.0368   21.7666 N   0  0  0  0  0  0  0  0  0  0  0  0
   11.6090  -16.7983   22.7491 C   0  0  1  0  0  0  0  0  0  0  0  0
   13.0801  -16.5535   22.7657 C   0  0  0  0  0  0  0  0  0  0  0  0
   13.9520  -17.6348   22.3342 C   0  0  0  0  0  0  0  0  0  0  0  0
   13.6733  -18.8890   21.8771 C   0  0  0  0  0  0  0  0  0  0  0  0
   14.8360  -19.5350   21.5620 N   0  0  0  0  0  0  0  0  0  0  0  0
   15.8090  -18.6864   21.8225 C   0  0  0  0  0  0  0  0  0  0  0  0
   15.3190  -17.5388   22.2861 N   0  0  0  0  0  0  0  0  0  0  0  0
   11.0762  -16.5970   24.1417 C   0  0  0  0  0  0  0  0  0  0  0  0
   11.5557  -17.3431   25.0314 O   0  0  0  0  0  0  0  0  0  0  0  0
   10.1271  -15.6767   24.4841 O   0  0  0  0  0  0  0  0  0  0  0  0
  2  1  1  6
  2  3  1  0
  4  2  1  0
  4  5  1  1
  6  7  2  0
  6  4  1  0
  8  6  1  0
  9 10  1  6
  9  8  1  0
 11 12  1  0
 11 10  1  0
 12 13  2  0
 14  9  1  0
 15 14  2  0
 16 12  1  0
 17 14  1  0
 18 17  1  0
 18 19  1  1
 20 19  1  0
 20 21  2  0
 22 21  1  0
 23 22  1  0
 24 23  2  0
 24 20  1  0
 25 18  1  0
 25 27  1  0
 26 25  2  0
M  END
$$$$
