TEH.pdb
     RDKit          3D

 27 27  0  0  1  0  0  0  0  0999 V2000
    8.7874  -15.8374   17.3492 C   0  0  0  0  0  0  0  0  0  0  0  0
    9.0792  -14.3513   17.3400 C   0  0  1  0  0  0  0  0  0  0  0  0
    8.8815  -13.8280   16.0693 O   0  0  0  0  0  0  0  0  0  0  0  0
    8.1376  -13.6140   18.2980 C   0  0  2  0  0  0  0  0  0  0  0  0
    8.2449  -12.1719   18.0678 N   0  0  0  0  0  0  0  0  0  0  0  0
    8.4518  -13.8780   19.7088 C   0  0  0  0  0  0  0  0  0  0  0  0
    9.3434  -13.1877   20.3194 O   0  0  0  0  0  0  0  0  0  0  0  0
    7.7860  -14.8959   20.4406 N   0  0  0  0  0  0  0  0  0  0  0  0
    8.2151  -15.2093   21.8063 C   0  0  1  0  0  0  0  0  0  0  0  0
    7.1134  -15.9749   22.5331 C   0  0  0  0  0  0  0  0  0  0  0  0
    7.5845  -16.4426   23.8886 C   0  0  0  0  0  0  0  0  0  0  0  0
    6.5498  -17.1532   24.6398 C   0  0  0  0  0  0  0  0  0  0  0  0
    5.5231  -17.5645   24.0415 O   0  0  0  0  0  0  0  0  0  0  0  0
    9.4449  -16.0160   21.7154 C   0  0  0  0  0  0  0  0  0  0  0  0
    9.8129  -16.4603   20.6079 O   0  0  0  0  0  0  0  0  0  0  0  0
    6.6246  -17.4128   26.0081 O   0  0  0  0  0  0  0  0  0  0  0  0
   10.2722  -16.3341   22.8504 N   0  0  0  0  0  0  0  0  0  0  0  0
   11.6902  -16.4344   22.7665 C   0  0  1  0  0  0  0  0  0  0  0  0
   12.3351  -15.2609   22.1098 C   0  0  0  0  0  0  0  0  0  0  0  0
   12.5913  -15.3405   20.6802 C   0  0  0  0  0  0  0  0  0  0  0  0
   12.2592  -16.2872   19.7567 C   0  0  0  0  0  0  0  0  0  0  0  0
   12.6952  -15.8999   18.5204 N   0  0  0  0  0  0  0  0  0  0  0  0
   13.2839  -14.7337   18.6881 C   0  0  0  0  0  0  0  0  0  0  0  0
   13.2413  -14.3663   19.9669 N   0  0  0  0  0  0  0  0  0  0  0  0
   12.3492  -16.6562   24.1008 C   0  0  0  0  0  0  0  0  0  0  0  0
   11.6360  -16.4437   25.1129 O   0  0  0  0  0  0  0  0  0  0  0  0
   13.6420  -17.0625   24.2700 O   0  0  0  0  0  0  0  0  0  0  0  0
  2  1  1  6
  2  3  1  0
  4  2  1  0
  4  5  1  1
  6  7  2  0
  6  4  1  0
  8  6  1  0
  9 10  1  6
  9  8  1  0
 11 12  1  0
 11 10  1  0
 12 13  2  0
 14  9  1  0
 15 14  2  0
 16 12  1  0
 17 14  1  0
 18 17  1  0
 18 19  1  1
 20 19  1  0
 20 21  2  0
 22 21  1  0
 23 22  1  0
 24 23  2  0
 24 20  1  0
 25 18  1  0
 25 27  1  0
 26 25  2  0
M  END
$$$$
