TEH.pdb
     RDKit          3D

 27 27  0  0  1  0  0  0  0  0999 V2000
    8.9250  -13.5365   15.9359 C   0  0  0  0  0  0  0  0  0  0  0  0
    8.9856  -14.2217   17.2852 C   0  0  1  0  0  0  0  0  0  0  0  0
   10.1438  -13.8591   17.9595 O   0  0  0  0  0  0  0  0  0  0  0  0
    7.7931  -13.8049   18.1524 C   0  0  2  0  0  0  0  0  0  0  0  0
    7.7510  -12.3444   18.2480 N   0  0  0  0  0  0  0  0  0  0  0  0
    7.8700  -14.3519   19.5140 C   0  0  0  0  0  0  0  0  0  0  0  0
    8.2246  -13.6087   20.4969 O   0  0  0  0  0  0  0  0  0  0  0  0
    7.5568  -15.7089   19.7886 N   0  0  0  0  0  0  0  0  0  0  0  0
    7.8111  -16.2585   21.1230 C   0  0  1  0  0  0  0  0  0  0  0  0
    6.9921  -17.5299   21.3248 C   0  0  0  0  0  0  0  0  0  0  0  0
    5.5236  -17.2690   21.0934 C   0  0  0  0  0  0  0  0  0  0  0  0
    4.7037  -18.4753   21.2058 C   0  0  0  0  0  0  0  0  0  0  0  0
    5.1775  -19.5816   20.8412 O   0  0  0  0  0  0  0  0  0  0  0  0
    9.2540  -16.5401   21.2239 C   0  0  0  0  0  0  0  0  0  0  0  0
    9.9665  -16.4936   20.1995 O   0  0  0  0  0  0  0  0  0  0  0  0
    3.4003  -18.4841   21.7016 O   0  0  0  0  0  0  0  0  0  0  0  0
    9.9137  -16.8744   22.4596 N   0  0  0  0  0  0  0  0  0  0  0  0
   11.3213  -16.7542   22.6386 C   0  0  1  0  0  0  0  0  0  0  0  0
   11.8581  -15.4109   22.2758 C   0  0  0  0  0  0  0  0  0  0  0  0
   12.2802  -15.1988   20.9001 C   0  0  0  0  0  0  0  0  0  0  0  0
   11.7321  -14.4604   19.8932 C   0  0  0  0  0  0  0  0  0  0  0  0
   12.5164  -14.5466   18.7770 N   0  0  0  0  0  0  0  0  0  0  0  0
   13.5282  -15.3258   19.0994 C   0  0  0  0  0  0  0  0  0  0  0  0
   13.4215  -15.7352   20.3615 N   0  0  0  0  0  0  0  0  0  0  0  0
   11.7723  -17.0868   24.0351 C   0  0  0  0  0  0  0  0  0  0  0  0
   13.0137  -17.1088   24.2257 O   0  0  0  0  0  0  0  0  0  0  0  0
   10.9331  -17.3595   25.0774 O   0  0  0  0  0  0  0  0  0  0  0  0
  2  1  1  6
  2  3  1  0
  4  2  1  0
  4  5  1  1
  6  7  2  0
  6  4  1  0
  8  6  1  0
  9 10  1  6
  9  8  1  0
 11 12  1  0
 11 10  1  0
 12 13  2  0
 14  9  1  0
 15 14  2  0
 16 12  1  0
 17 14  1  0
 18 17  1  0
 18 19  1  1
 20 19  1  0
 20 21  2  0
 22 21  1  0
 23 22  1  0
 24 23  2  0
 24 20  1  0
 25 18  1  0
 25 27  1  0
 26 25  2  0
M  END
$$$$
