TEH.pdb
     RDKit          3D

 27 27  0  0  1  0  0  0  0  0999 V2000
    9.1433  -12.4256   19.4724 C   0  0  0  0  0  0  0  0  0  0  0  0
    8.3069  -13.2646   18.5288 C   0  0  1  0  0  0  0  0  0  0  0  0
    7.4173  -12.4615   17.8279 O   0  0  0  0  0  0  0  0  0  0  0  0
    9.2007  -13.9718   17.5046 C   0  0  2  0  0  0  0  0  0  0  0  0
    8.3606  -14.6495   16.5151 N   0  0  0  0  0  0  0  0  0  0  0  0
   10.0801  -14.9734   18.1229 C   0  0  0  0  0  0  0  0  0  0  0  0
   10.3716  -16.0576   17.5034 O   0  0  0  0  0  0  0  0  0  0  0  0
   10.6344  -14.7792   19.4152 N   0  0  0  0  0  0  0  0  0  0  0  0
   11.9288  -15.3795   19.7493 C   0  0  1  0  0  0  0  0  0  0  0  0
   13.0044  -14.8518   18.8044 C   0  0  0  0  0  0  0  0  0  0  0  0
   14.3634  -15.3926   19.1770 C   0  0  0  0  0  0  0  0  0  0  0  0
   15.1865  -15.7220   18.0135 C   0  0  0  0  0  0  0  0  0  0  0  0
   15.6114  -16.8967   17.8688 O   0  0  0  0  0  0  0  0  0  0  0  0
   12.2377  -15.0290   21.1468 C   0  0  0  0  0  0  0  0  0  0  0  0
   13.4205  -14.8117   21.4832 O   0  0  0  0  0  0  0  0  0  0  0  0
   15.5419  -14.8008   17.0286 O   0  0  0  0  0  0  0  0  0  0  0  0
   11.2383  -14.9176   22.1776 N   0  0  0  0  0  0  0  0  0  0  0  0
   10.8388  -16.0197   22.9860 C   0  0  1  0  0  0  0  0  0  0  0  0
    9.8424  -16.9137   22.3285 C   0  0  0  0  0  0  0  0  0  0  0  0
    8.5319  -16.3603   22.0249 C   0  0  0  0  0  0  0  0  0  0  0  0
    7.9892  -15.1361   22.2825 C   0  0  0  0  0  0  0  0  0  0  0  0
    6.7238  -15.0742   21.7691 N   0  0  0  0  0  0  0  0  0  0  0  0
    6.4991  -16.2436   21.2062 C   0  0  0  0  0  0  0  0  0  0  0  0
    7.5579  -17.0393   21.3388 N   0  0  0  0  0  0  0  0  0  0  0  0
   11.9949  -16.8594   23.4576 C   0  0  0  0  0  0  0  0  0  0  0  0
   13.1181  -16.5793   22.9698 O   0  0  0  0  0  0  0  0  0  0  0  0
   11.8957  -17.8804   24.3591 O   0  0  0  0  0  0  0  0  0  0  0  0
  2  1  1  1
  2  3  1  0
  4  2  1  0
  4  5  1  6
  6  7  2  0
  6  4  1  0
  8  6  1  0
  9 10  1  6
  9  8  1  0
 11 12  1  0
 11 10  1  0
 12 13  2  0
 14  9  1  0
 15 14  2  0
 16 12  1  0
 17 14  1  0
 18 17  1  0
 18 19  1  6
 20 19  1  0
 20 21  2  0
 22 21  1  0
 23 22  1  0
 24 23  2  0
 24 20  1  0
 25 18  1  0
 25 27  1  0
 26 25  2  0
M  END
$$$$
