TEH.pdb
     RDKit          3D

 27 27  0  0  1  0  0  0  0  0999 V2000
    9.6817  -12.8971   19.4455 C   0  0  0  0  0  0  0  0  0  0  0  0
    8.6168  -13.5099   18.5599 C   0  0  1  0  0  0  0  0  0  0  0  0
    8.1728  -12.5832   17.6263 O   0  0  0  0  0  0  0  0  0  0  0  0
    9.1827  -14.7089   17.7918 C   0  0  2  0  0  0  0  0  0  0  0  0
    8.1441  -15.2578   16.9177 N   0  0  0  0  0  0  0  0  0  0  0  0
    9.6448  -15.7807   18.6844 C   0  0  0  0  0  0  0  0  0  0  0  0
    8.8195  -16.6461   19.1472 O   0  0  0  0  0  0  0  0  0  0  0  0
   11.0081  -15.8969   19.0626 N   0  0  0  0  0  0  0  0  0  0  0  0
   11.4267  -16.9855   19.9496 C   0  0  1  0  0  0  0  0  0  0  0  0
   12.8667  -17.3831   19.6386 C   0  0  0  0  0  0  0  0  0  0  0  0
   13.3328  -18.4866   20.5568 C   0  0  0  0  0  0  0  0  0  0  0  0
   14.7130  -18.8983   20.3014 C   0  0  0  0  0  0  0  0  0  0  0  0
   15.5955  -18.6766   21.1694 O   0  0  0  0  0  0  0  0  0  0  0  0
   11.3008  -16.5062   21.3373 C   0  0  0  0  0  0  0  0  0  0  0  0
   11.8727  -15.4508   21.6816 O   0  0  0  0  0  0  0  0  0  0  0  0
   15.1289  -19.5357   19.1328 O   0  0  0  0  0  0  0  0  0  0  0  0
   10.5413  -17.1935   22.3495 N   0  0  0  0  0  0  0  0  0  0  0  0
   10.4311  -16.7169   23.6869 C   0  0  1  0  0  0  0  0  0  0  0  0
    9.0413  -16.3398   24.0750 C   0  0  0  0  0  0  0  0  0  0  0  0
    8.4452  -15.1848   23.4219 C   0  0  0  0  0  0  0  0  0  0  0  0
    8.9373  -14.3268   22.4833 C   0  0  0  0  0  0  0  0  0  0  0  0
    7.9817  -13.4077   22.1509 N   0  0  0  0  0  0  0  0  0  0  0  0
    6.9223  -13.7019   22.8760 C   0  0  0  0  0  0  0  0  0  0  0  0
    7.1614  -14.7592   23.6486 N   0  0  0  0  0  0  0  0  0  0  0  0
   10.9653  -17.6848   24.7075 C   0  0  0  0  0  0  0  0  0  0  0  0
   11.2943  -18.8181   24.2769 O   0  0  0  0  0  0  0  0  0  0  0  0
   11.1080  -17.4100   26.0376 O   0  0  0  0  0  0  0  0  0  0  0  0
  2  1  1  6
  2  3  1  0
  4  2  1  0
  4  5  1  6
  6  7  2  0
  6  4  1  0
  8  6  1  0
  9 10  1  6
  9  8  1  0
 11 12  1  0
 11 10  1  0
 12 13  2  0
 14  9  1  0
 15 14  2  0
 16 12  1  0
 17 14  1  0
 18 17  1  0
 18 19  1  1
 20 19  1  0
 20 21  2  0
 22 21  1  0
 23 22  1  0
 24 23  2  0
 24 20  1  0
 25 18  1  0
 25 27  1  0
 26 25  2  0
M  END
$$$$
