TEH.pdb
     RDKit          3D

 27 27  0  0  1  0  0  0  0  0999 V2000
    9.6621  -12.1665   19.3954 C   0  0  0  0  0  0  0  0  0  0  0  0
    8.7095  -13.0381   18.6036 C   0  0  1  0  0  0  0  0  0  0  0  0
    7.8039  -12.2521   17.9039 O   0  0  0  0  0  0  0  0  0  0  0  0
    9.4785  -13.8825   17.5821 C   0  0  2  0  0  0  0  0  0  0  0  0
    8.5329  -14.7021   16.8216 N   0  0  0  0  0  0  0  0  0  0  0  0
   10.4560  -14.7782   18.2155 C   0  0  0  0  0  0  0  0  0  0  0  0
   10.1028  -15.9365   18.6371 O   0  0  0  0  0  0  0  0  0  0  0  0
   11.8137  -14.3984   18.3813 N   0  0  0  0  0  0  0  0  0  0  0  0
   12.7625  -15.3361   18.9877 C   0  0  1  0  0  0  0  0  0  0  0  0
   14.1803  -15.0085   18.5288 C   0  0  0  0  0  0  0  0  0  0  0  0
   14.4028  -15.4518   17.1033 C   0  0  0  0  0  0  0  0  0  0  0  0
   15.7635  -15.1966   16.6307 C   0  0  0  0  0  0  0  0  0  0  0  0
   16.6710  -16.0313   16.8776 O   0  0  0  0  0  0  0  0  0  0  0  0
   12.6410  -15.2127   20.4511 C   0  0  0  0  0  0  0  0  0  0  0  0
   12.8426  -14.1081   20.9976 O   0  0  0  0  0  0  0  0  0  0  0  0
   16.1337  -14.0633   15.9071 O   0  0  0  0  0  0  0  0  0  0  0  0
   12.2960  -16.3118   21.3152 N   0  0  0  0  0  0  0  0  0  0  0  0
   12.1266  -16.1628   22.7213 C   0  0  1  0  0  0  0  0  0  0  0  0
   10.8158  -16.6672   23.2227 C   0  0  0  0  0  0  0  0  0  0  0  0
    9.6103  -15.9967   22.7613 C   0  0  0  0  0  0  0  0  0  0  0  0
    9.4350  -14.8442   22.0538 C   0  0  0  0  0  0  0  0  0  0  0  0
    8.1026  -14.6378   21.8292 N   0  0  0  0  0  0  0  0  0  0  0  0
    7.4750  -15.6502   22.3912 C   0  0  0  0  0  0  0  0  0  0  0  0
    8.3438  -16.4841   22.9586 N   0  0  0  0  0  0  0  0  0  0  0  0
   13.2243  -16.8084   23.5227 C   0  0  0  0  0  0  0  0  0  0  0  0
   14.0838  -17.4499   22.8685 O   0  0  0  0  0  0  0  0  0  0  0  0
   13.3360  -16.7400   24.8820 O   0  0  0  0  0  0  0  0  0  0  0  0
  2  1  1  6
  2  3  1  0
  4  2  1  0
  4  5  1  1
  6  7  2  0
  6  4  1  0
  8  6  1  0
  9 10  1  6
  9  8  1  0
 11 12  1  0
 11 10  1  0
 12 13  2  0
 14  9  1  0
 15 14  2  0
 16 12  1  0
 17 14  1  0
 18 17  1  0
 18 19  1  1
 20 19  1  0
 20 21  2  0
 22 21  1  0
 23 22  1  0
 24 23  2  0
 24 20  1  0
 25 18  1  0
 25 27  1  0
 26 25  2  0
M  END
$$$$
