TEH.pdb
     RDKit          3D

 27 27  0  0  1  0  0  0  0  0999 V2000
    9.4166  -12.8328   20.1276 C   0  0  0  0  0  0  0  0  0  0  0  0
    8.4686  -13.6514   19.2761 C   0  0  1  0  0  0  0  0  0  0  0  0
    7.3551  -12.8971   18.9315 O   0  0  0  0  0  0  0  0  0  0  0  0
    9.1548  -14.0873   17.9772 C   0  0  2  0  0  0  0  0  0  0  0  0
    8.1976  -14.8207   17.1465 N   0  0  0  0  0  0  0  0  0  0  0  0
   10.3139  -14.9573   18.2186 C   0  0  0  0  0  0  0  0  0  0  0  0
   10.1553  -16.2115   18.4335 O   0  0  0  0  0  0  0  0  0  0  0  0
   11.6384  -14.4469   18.2219 N   0  0  0  0  0  0  0  0  0  0  0  0
   12.7625  -15.3424   18.5083 C   0  0  1  0  0  0  0  0  0  0  0  0
   13.8673  -15.1340   17.4767 C   0  0  0  0  0  0  0  0  0  0  0  0
   13.5140  -15.7937   16.1660 C   0  0  0  0  0  0  0  0  0  0  0  0
   14.6278  -15.8151   15.2180 C   0  0  0  0  0  0  0  0  0  0  0  0
   15.3082  -14.7728   15.0391 O   0  0  0  0  0  0  0  0  0  0  0  0
   13.2453  -15.0351   19.8662 C   0  0  0  0  0  0  0  0  0  0  0  0
   13.4351  -13.8472   20.2012 O   0  0  0  0  0  0  0  0  0  0  0  0
   14.9971  -16.9395   14.4800 O   0  0  0  0  0  0  0  0  0  0  0  0
   13.5198  -16.0418   20.8586 N   0  0  0  0  0  0  0  0  0  0  0  0
   13.9607  -15.7260   22.1753 C   0  0  1  0  0  0  0  0  0  0  0  0
   13.2774  -16.5151   23.2404 C   0  0  0  0  0  0  0  0  0  0  0  0
   11.8448  -16.3278   23.4089 C   0  0  0  0  0  0  0  0  0  0  0  0
   10.9967  -15.3784   22.9203 C   0  0  0  0  0  0  0  0  0  0  0  0
    9.7202  -15.6431   23.3316 N   0  0  0  0  0  0  0  0  0  0  0  0
    9.7895  -16.7384   24.0597 C   0  0  0  0  0  0  0  0  0  0  0  0
   11.0443  -17.1774   24.1285 N   0  0  0  0  0  0  0  0  0  0  0  0
   15.4477  -15.8712   22.3538 C   0  0  0  0  0  0  0  0  0  0  0  0
   16.0750  -16.3729   21.3879 O   0  0  0  0  0  0  0  0  0  0  0  0
   16.1348  -15.5007   23.4743 O   0  0  0  0  0  0  0  0  0  0  0  0
  2  1  1  1
  2  3  1  0
  4  2  1  0
  4  5  1  6
  6  7  2  0
  6  4  1  0
  8  6  1  0
  9 10  1  6
  9  8  1  0
 11 12  1  0
 11 10  1  0
 12 13  2  0
 14  9  1  0
 15 14  2  0
 16 12  1  0
 17 14  1  0
 18 17  1  0
 18 19  1  1
 20 19  1  0
 20 21  2  0
 22 21  1  0
 23 22  1  0
 24 23  2  0
 24 20  1  0
 25 18  1  0
 25 27  1  0
 26 25  2  0
M  END
$$$$
