TEH.pdb
     RDKit          3D

 27 27  0  0  1  0  0  0  0  0999 V2000
    7.4001  -15.7636   14.6527 C   0  0  0  0  0  0  0  0  0  0  0  0
    8.0898  -15.5639   15.9862 C   0  0  1  0  0  0  0  0  0  0  0  0
    9.4555  -15.7799   15.8608 O   0  0  0  0  0  0  0  0  0  0  0  0
    7.8900  -14.1285   16.4837 C   0  0  2  0  0  0  0  0  0  0  0  0
    8.4001  -13.1927   15.4796 N   0  0  0  0  0  0  0  0  0  0  0  0
    8.5901  -13.8699   17.7494 C   0  0  0  0  0  0  0  0  0  0  0  0
    9.7226  -13.2686   17.7581 O   0  0  0  0  0  0  0  0  0  0  0  0
    8.0436  -14.2713   18.9965 N   0  0  0  0  0  0  0  0  0  0  0  0
    8.7669  -13.9767   20.2364 C   0  0  1  0  0  0  0  0  0  0  0  0
    7.8071  -14.0285   21.4214 C   0  0  0  0  0  0  0  0  0  0  0  0
    8.3598  -14.8948   22.5268 C   0  0  0  0  0  0  0  0  0  0  0  0
    7.4472  -15.0241   23.6627 C   0  0  0  0  0  0  0  0  0  0  0  0
    6.7924  -16.0872   23.8125 O   0  0  0  0  0  0  0  0  0  0  0  0
    9.8361  -14.9804   20.3806 C   0  0  0  0  0  0  0  0  0  0  0  0
    9.6563  -16.1411   19.9565 O   0  0  0  0  0  0  0  0  0  0  0  0
    7.2477  -14.0252   24.6153 O   0  0  0  0  0  0  0  0  0  0  0  0
   11.1086  -14.7031   20.9949 N   0  0  0  0  0  0  0  0  0  0  0  0
   12.0873  -15.7107   21.2290 C   0  0  1  0  0  0  0  0  0  0  0  0
   13.4744  -15.2906   20.8775 C   0  0  0  0  0  0  0  0  0  0  0  0
   13.7995  -15.1375   19.4680 C   0  0  0  0  0  0  0  0  0  0  0  0
   13.2195  -15.6561   18.3482 C   0  0  0  0  0  0  0  0  0  0  0  0
   13.8669  -15.1946   17.2363 N   0  0  0  0  0  0  0  0  0  0  0  0
   14.8272  -14.4056   17.6723 C   0  0  0  0  0  0  0  0  0  0  0  0
   14.8182  -14.3465   19.0022 N   0  0  0  0  0  0  0  0  0  0  0  0
   12.0874  -16.2200   22.6448 C   0  0  0  0  0  0  0  0  0  0  0  0
   12.8716  -17.1699   22.8916 O   0  0  0  0  0  0  0  0  0  0  0  0
   11.3053  -15.7237   23.6483 O   0  0  0  0  0  0  0  0  0  0  0  0
  2  1  1  6
  2  3  1  0
  4  2  1  0
  4  5  1  6
  6  7  2  0
  6  4  1  0
  8  6  1  0
  9 10  1  1
  9  8  1  0
 11 12  1  0
 11 10  1  0
 12 13  2  0
 14  9  1  0
 15 14  2  0
 16 12  1  0
 17 14  1  0
 18 17  1  0
 18 19  1  1
 20 19  1  0
 20 21  2  0
 22 21  1  0
 23 22  1  0
 24 23  2  0
 24 20  1  0
 25 18  1  0
 25 27  1  0
 26 25  2  0
M  END
$$$$
