TEH.pdb
     RDKit          3D

 27 27  0  0  1  0  0  0  0  0999 V2000
    6.9380  -13.3451   18.8958 C   0  0  0  0  0  0  0  0  0  0  0  0
    8.3423  -13.6357   18.4090 C   0  0  1  0  0  0  0  0  0  0  0  0
    8.7288  -12.6977   17.4611 O   0  0  0  0  0  0  0  0  0  0  0  0
    9.3390  -13.5606   19.5704 C   0  0  2  0  0  0  0  0  0  0  0  0
   10.7027  -13.5386   19.0375 N   0  0  0  0  0  0  0  0  0  0  0  0
    9.2224  -14.7040   20.4858 C   0  0  0  0  0  0  0  0  0  0  0  0
    8.0855  -15.0305   20.9810 O   0  0  0  0  0  0  0  0  0  0  0  0
   10.3522  -15.4819   20.8509 N   0  0  0  0  0  0  0  0  0  0  0  0
   10.1719  -16.6944   21.6538 C   0  0  1  0  0  0  0  0  0  0  0  0
   11.2660  -17.7043   21.3208 C   0  0  0  0  0  0  0  0  0  0  0  0
   11.0147  -18.3508   19.9803 C   0  0  0  0  0  0  0  0  0  0  0  0
   12.0517  -19.3120   19.6054 C   0  0  0  0  0  0  0  0  0  0  0  0
   12.9673  -18.9591   18.8190 O   0  0  0  0  0  0  0  0  0  0  0  0
   10.2299  -16.3042   23.0737 C   0  0  0  0  0  0  0  0  0  0  0  0
   11.0727  -15.4631   23.4501 O   0  0  0  0  0  0  0  0  0  0  0  0
   12.0968  -20.6258   20.0713 O   0  0  0  0  0  0  0  0  0  0  0  0
    9.3552  -16.8438   24.0824 N   0  0  0  0  0  0  0  0  0  0  0  0
    9.4762  -16.5159   25.4628 C   0  0  1  0  0  0  0  0  0  0  0  0
    8.1848  -16.1302   26.1015 C   0  0  0  0  0  0  0  0  0  0  0  0
    7.6559  -14.8059   25.8147 C   0  0  0  0  0  0  0  0  0  0  0  0
    8.2109  -13.7309   25.1856 C   0  0  0  0  0  0  0  0  0  0  0  0
    7.3036  -12.7102   25.1275 N   0  0  0  0  0  0  0  0  0  0  0  0
    6.2113  -13.1571   25.7121 C   0  0  0  0  0  0  0  0  0  0  0  0
    6.3839  -14.4071   26.1359 N   0  0  0  0  0  0  0  0  0  0  0  0
   10.1039  -17.6122   26.2802 C   0  0  0  0  0  0  0  0  0  0  0  0
   10.2736  -18.7110   25.6955 O   0  0  0  0  0  0  0  0  0  0  0  0
   10.4877  -17.4851   27.5846 O   0  0  0  0  0  0  0  0  0  0  0  0
  2  1  1  1
  2  3  1  0
  4  2  1  0
  4  5  1  6
  6  7  2  0
  6  4  1  0
  8  6  1  0
  9 10  1  6
  9  8  1  0
 11 12  1  0
 11 10  1  0
 12 13  2  0
 14  9  1  0
 15 14  2  0
 16 12  1  0
 17 14  1  0
 18 17  1  0
 18 19  1  1
 20 19  1  0
 20 21  2  0
 22 21  1  0
 23 22  1  0
 24 23  2  0
 24 20  1  0
 25 18  1  0
 25 27  1  0
 26 25  2  0
M  END
$$$$
