TEH.pdb
     RDKit          3D

 27 27  0  0  1  0  0  0  0  0999 V2000
    9.3756  -12.1513   19.5117 C   0  0  0  0  0  0  0  0  0  0  0  0
    8.2793  -12.8699   18.7531 C   0  0  1  0  0  0  0  0  0  0  0  0
    7.4806  -11.9569   18.0780 O   0  0  0  0  0  0  0  0  0  0  0  0
    8.8812  -13.8198   17.7122 C   0  0  2  0  0  0  0  0  0  0  0  0
    7.8005  -14.4895   16.9858 N   0  0  0  0  0  0  0  0  0  0  0  0
    9.7340  -14.8510   18.3191 C   0  0  0  0  0  0  0  0  0  0  0  0
    9.2347  -15.9677   18.7038 O   0  0  0  0  0  0  0  0  0  0  0  0
   11.1278  -14.6513   18.4991 N   0  0  0  0  0  0  0  0  0  0  0  0
   11.9319  -15.6853   19.1561 C   0  0  1  0  0  0  0  0  0  0  0  0
   13.2897  -15.8004   18.4695 C   0  0  0  0  0  0  0  0  0  0  0  0
   13.1748  -16.5571   17.1687 C   0  0  0  0  0  0  0  0  0  0  0  0
   14.4402  -16.6355   16.4389 C   0  0  0  0  0  0  0  0  0  0  0  0
   15.2834  -15.7106   16.5613 O   0  0  0  0  0  0  0  0  0  0  0  0
   12.0879  -15.3005   20.5700 C   0  0  0  0  0  0  0  0  0  0  0  0
   11.8912  -14.1163   20.9142 O   0  0  0  0  0  0  0  0  0  0  0  0
   14.7854  -17.6913   15.5956 O   0  0  0  0  0  0  0  0  0  0  0  0
   12.4622  -16.2252   21.6085 N   0  0  0  0  0  0  0  0  0  0  0  0
   11.6369  -16.4907   22.7382 C   0  0  1  0  0  0  0  0  0  0  0  0
   10.2433  -16.8843   22.3816 C   0  0  0  0  0  0  0  0  0  0  0  0
    9.2236  -15.8470   22.3878 C   0  0  0  0  0  0  0  0  0  0  0  0
    9.2907  -14.5195   22.6923 C   0  0  0  0  0  0  0  0  0  0  0  0
    8.0637  -13.9427   22.5181 N   0  0  0  0  0  0  0  0  0  0  0  0
    7.2608  -14.9048   22.1125 C   0  0  0  0  0  0  0  0  0  0  0  0
    7.9189  -16.0584   22.0226 N   0  0  0  0  0  0  0  0  0  0  0  0
   12.2076  -17.5366   23.6571 C   0  0  0  0  0  0  0  0  0  0  0  0
   12.7645  -18.5167   23.1026 O   0  0  0  0  0  0  0  0  0  0  0  0
   12.1553  -17.4836   25.0207 O   0  0  0  0  0  0  0  0  0  0  0  0
  2  1  1  6
  2  3  1  0
  4  2  1  0
  4  5  1  1
  6  7  2  0
  6  4  1  0
  8  6  1  0
  9 10  1  6
  9  8  1  0
 11 12  1  0
 11 10  1  0
 12 13  2  0
 14  9  1  0
 15 14  2  0
 16 12  1  0
 17 14  1  0
 18 17  1  0
 18 19  1  6
 20 19  1  0
 20 21  2  0
 22 21  1  0
 23 22  1  0
 24 23  2  0
 24 20  1  0
 25 18  1  0
 25 27  1  0
 26 25  2  0
M  END
$$$$
