TEH.pdb
     RDKit          3D

 27 27  0  0  1  0  0  0  0  0999 V2000
    7.1450  -12.5083   19.5149 C   0  0  0  0  0  0  0  0  0  0  0  0
    7.9285  -13.6709   18.9419 C   0  0  1  0  0  0  0  0  0  0  0  0
    8.5311  -13.3047   17.7459 O   0  0  0  0  0  0  0  0  0  0  0  0
    9.0373  -14.0990   19.9090 C   0  0  2  0  0  0  0  0  0  0  0  0
    9.9424  -15.0268   19.2277 N   0  0  0  0  0  0  0  0  0  0  0  0
    8.5110  -14.7677   21.1068 C   0  0  0  0  0  0  0  0  0  0  0  0
    7.6424  -14.1870   21.8502 O   0  0  0  0  0  0  0  0  0  0  0  0
    8.9394  -16.0684   21.4805 N   0  0  0  0  0  0  0  0  0  0  0  0
    8.2817  -16.7594   22.5928 C   0  0  1  0  0  0  0  0  0  0  0  0
    8.3761  -18.2692   22.3938 C   0  0  0  0  0  0  0  0  0  0  0  0
    7.7849  -19.0072   23.5701 C   0  0  0  0  0  0  0  0  0  0  0  0
    7.7595  -20.4576   23.3813 C   0  0  0  0  0  0  0  0  0  0  0  0
    6.6780  -21.0820   23.5287 O   0  0  0  0  0  0  0  0  0  0  0  0
    8.9566  -16.3491   23.8369 C   0  0  0  0  0  0  0  0  0  0  0  0
   10.1901  -16.1549   23.8364 O   0  0  0  0  0  0  0  0  0  0  0  0
    8.8797  -21.2153   23.0406 O   0  0  0  0  0  0  0  0  0  0  0  0
    8.2684  -16.1524   25.0865 N   0  0  0  0  0  0  0  0  0  0  0  0
    8.9311  -15.7253   26.2723 C   0  0  1  0  0  0  0  0  0  0  0  0
    8.0963  -14.8459   27.1406 C   0  0  0  0  0  0  0  0  0  0  0  0
    7.4925  -13.6702   26.5332 C   0  0  0  0  0  0  0  0  0  0  0  0
    7.6006  -13.1485   25.2780 C   0  0  0  0  0  0  0  0  0  0  0  0
    6.8104  -12.0384   25.1692 N   0  0  0  0  0  0  0  0  0  0  0  0
    6.2288  -11.8863   26.3410 C   0  0  0  0  0  0  0  0  0  0  0  0
    6.6121  -12.8436   27.1829 N   0  0  0  0  0  0  0  0  0  0  0  0
    9.4490  -16.8658   27.1060 C   0  0  0  0  0  0  0  0  0  0  0  0
    9.1586  -18.0207   26.7061 O   0  0  0  0  0  0  0  0  0  0  0  0
   10.1945  -16.7214   28.2411 O   0  0  0  0  0  0  0  0  0  0  0  0
  2  1  1  1
  2  3  1  0
  4  2  1  0
  4  5  1  6
  6  7  2  0
  6  4  1  0
  8  6  1  0
  9 10  1  6
  9  8  1  0
 11 12  1  0
 11 10  1  0
 12 13  2  0
 14  9  1  0
 15 14  2  0
 16 12  1  0
 17 14  1  0
 18 17  1  0
 18 19  1  1
 20 19  1  0
 20 21  2  0
 22 21  1  0
 23 22  1  0
 24 23  2  0
 24 20  1  0
 25 18  1  0
 25 27  1  0
 26 25  2  0
M  END
$$$$
