TEH.pdb
     RDKit          3D

 27 27  0  0  1  0  0  0  0  0999 V2000
    6.9196  -13.9126   18.4904 C   0  0  0  0  0  0  0  0  0  0  0  0
    8.4060  -13.7508   18.2492 C   0  0  1  0  0  0  0  0  0  0  0  0
    8.6470  -12.6483   17.4405 O   0  0  0  0  0  0  0  0  0  0  0  0
    9.1429  -13.5257   19.5736 C   0  0  2  0  0  0  0  0  0  0  0  0
   10.5397  -13.1829   19.2984 N   0  0  0  0  0  0  0  0  0  0  0  0
    9.1238  -14.7148   20.4365 C   0  0  0  0  0  0  0  0  0  0  0  0
    8.0144  -15.2759   20.7503 O   0  0  0  0  0  0  0  0  0  0  0  0
   10.3206  -15.2809   20.9484 N   0  0  0  0  0  0  0  0  0  0  0  0
   10.2688  -16.5429   21.6913 C   0  0  1  0  0  0  0  0  0  0  0  0
   11.4980  -17.3866   21.3667 C   0  0  0  0  0  0  0  0  0  0  0  0
   11.4739  -17.8458   19.9292 C   0  0  0  0  0  0  0  0  0  0  0  0
   12.6288  -18.6697   19.5725 C   0  0  0  0  0  0  0  0  0  0  0  0
   13.7661  -18.3652   20.0142 O   0  0  0  0  0  0  0  0  0  0  0  0
   10.2189  -16.2158   23.1272 C   0  0  0  0  0  0  0  0  0  0  0  0
   10.8393  -15.2209   23.5570 O   0  0  0  0  0  0  0  0  0  0  0  0
   12.5545  -19.7980   18.7561 O   0  0  0  0  0  0  0  0  0  0  0  0
    9.4820  -16.9889   24.0932 N   0  0  0  0  0  0  0  0  0  0  0  0
    9.4628  -16.6717   25.4813 C   0  0  1  0  0  0  0  0  0  0  0  0
    8.1118  -16.2991   25.9912 C   0  0  0  0  0  0  0  0  0  0  0  0
    7.6033  -14.9772   25.6598 C   0  0  0  0  0  0  0  0  0  0  0  0
    8.1550  -13.9513   24.9508 C   0  0  0  0  0  0  0  0  0  0  0  0
    7.2717  -12.9105   24.8805 N   0  0  0  0  0  0  0  0  0  0  0  0
    6.1970  -13.2969   25.5366 C   0  0  0  0  0  0  0  0  0  0  0  0
    6.3579  -14.5278   26.0170 N   0  0  0  0  0  0  0  0  0  0  0  0
   10.0135  -17.7710   26.3486 C   0  0  0  0  0  0  0  0  0  0  0  0
   10.3183  -18.8392   25.7620 O   0  0  0  0  0  0  0  0  0  0  0  0
   10.1948  -17.6772   27.6989 O   0  0  0  0  0  0  0  0  0  0  0  0
  2  1  1  1
  2  3  1  0
  4  2  1  0
  4  5  1  6
  6  7  2  0
  6  4  1  0
  8  6  1  0
  9 10  1  1
  9  8  1  0
 11 12  1  0
 11 10  1  0
 12 13  2  0
 14  9  1  0
 15 14  2  0
 16 12  1  0
 17 14  1  0
 18 17  1  0
 18 19  1  1
 20 19  1  0
 20 21  2  0
 22 21  1  0
 23 22  1  0
 24 23  2  0
 24 20  1  0
 25 18  1  0
 25 27  1  0
 26 25  2  0
M  END
$$$$
