TEH.pdb
     RDKit          3D

 27 27  0  0  1  0  0  0  0  0999 V2000
    7.5678  -11.7905   19.4266 C   0  0  0  0  0  0  0  0  0  0  0  0
    8.6239  -12.8400   19.7043 C   0  0  1  0  0  0  0  0  0  0  0  0
    8.1136  -13.8318   20.5311 O   0  0  0  0  0  0  0  0  0  0  0  0
    9.0727  -13.5075   18.4001 C   0  0  2  0  0  0  0  0  0  0  0  0
    7.9316  -14.1921   17.7890 N   0  0  0  0  0  0  0  0  0  0  0  0
   10.1401  -14.4946   18.6124 C   0  0  0  0  0  0  0  0  0  0  0  0
    9.8863  -15.7507   18.5662 O   0  0  0  0  0  0  0  0  0  0  0  0
   11.4780  -14.0982   18.8728 N   0  0  0  0  0  0  0  0  0  0  0  0
   12.5015  -15.1152   19.1283 C   0  0  1  0  0  0  0  0  0  0  0  0
   13.8769  -14.5728   18.7513 C   0  0  0  0  0  0  0  0  0  0  0  0
   14.0580  -14.5536   17.2530 C   0  0  0  0  0  0  0  0  0  0  0  0
   14.4658  -15.8490   16.7095 C   0  0  0  0  0  0  0  0  0  0  0  0
   15.6527  -16.2367   16.8588 O   0  0  0  0  0  0  0  0  0  0  0  0
   12.4450  -15.4577   20.5605 C   0  0  0  0  0  0  0  0  0  0  0  0
   12.5557  -14.5558   21.4170 O   0  0  0  0  0  0  0  0  0  0  0  0
   13.6083  -16.7057   16.0198 O   0  0  0  0  0  0  0  0  0  0  0  0
   12.2658  -16.8001   21.0499 N   0  0  0  0  0  0  0  0  0  0  0  0
   12.2645  -17.1207   22.4374 C   0  0  1  0  0  0  0  0  0  0  0  0
   11.7491  -18.4882   22.7349 C   0  0  0  0  0  0  0  0  0  0  0  0
   11.8729  -18.9770   24.0992 C   0  0  0  0  0  0  0  0  0  0  0  0
   12.9639  -19.1507   24.8985 C   0  0  0  0  0  0  0  0  0  0  0  0
   12.5704  -19.6099   26.1244 N   0  0  0  0  0  0  0  0  0  0  0  0
   11.2585  -19.7139   26.0730 C   0  0  0  0  0  0  0  0  0  0  0  0
   10.8050  -19.3439   24.8774 N   0  0  0  0  0  0  0  0  0  0  0  0
   13.6153  -16.9692   23.0825 C   0  0  0  0  0  0  0  0  0  0  0  0
   13.6166  -16.7384   24.3174 O   0  0  0  0  0  0  0  0  0  0  0  0
   14.8063  -17.0644   22.4212 O   0  0  0  0  0  0  0  0  0  0  0  0
  2  1  1  6
  2  3  1  0
  4  2  1  0
  4  5  1  1
  6  7  2  0
  6  4  1  0
  8  6  1  0
  9 10  1  1
  9  8  1  0
 11 12  1  0
 11 10  1  0
 12 13  2  0
 14  9  1  0
 15 14  2  0
 16 12  1  0
 17 14  1  0
 18 17  1  0
 18 19  1  6
 20 19  1  0
 20 21  2  0
 22 21  1  0
 23 22  1  0
 24 23  2  0
 24 20  1  0
 25 18  1  0
 25 27  1  0
 26 25  2  0
M  END
$$$$
