SCQ.pdb
     RDKit          3D

 22 21  0  0  1  0  0  0  0  0999 V2000
    6.7375  -16.6247   21.2996 O   0  0  0  0  0  0  0  0  0  0  0  0
    6.1357  -15.4342   20.9772 C   0  0  0  0  0  0  0  0  0  0  0  0
    7.0839  -14.2635   21.0539 C   0  0  2  0  0  0  0  0  0  0  0  0
    8.0054  -14.3125   19.9624 N   0  0  0  0  0  0  0  0  0  0  0  0
    7.7913  -14.1382   22.3239 C   0  0  0  0  0  0  0  0  0  0  0  0
    9.0164  -14.4208   22.3572 O   0  0  0  0  0  0  0  0  0  0  0  0
    7.2216  -13.7200   23.5512 N   0  0  0  0  0  0  0  0  0  0  0  0
    7.8859  -13.7556   24.8223 C   0  0  1  0  0  0  0  0  0  0  0  0
    7.4148  -12.6943   25.7760 C   0  0  0  0  0  0  0  0  0  0  0  0
    5.5943  -12.8268   25.8737 S   0  0  0  0  0  0  0  0  0  0  0  0
    7.6988  -15.0734   25.4869 C   0  0  0  0  0  0  0  0  0  0  0  0
    6.6435  -15.7622   25.3193 O   0  0  0  0  0  0  0  0  0  0  0  0
    8.2912  -21.1903   27.0984 N   0  0  0  0  0  0  0  0  0  0  0  0
    7.8245  -20.0508   26.3392 C   0  0  0  0  0  0  0  0  0  0  0  0
    6.5753  -19.7799   26.3976 O   0  0  0  0  0  0  0  0  0  0  0  0
    8.6795  -19.2301   25.5258 C   0  0  0  0  0  0  0  0  0  0  0  0
    8.7317  -17.7916   25.5004 C   0  0  0  0  0  0  0  0  0  0  0  0
    8.8221  -16.9725   26.7184 C   0  0  2  0  0  0  0  0  0  0  0  0
    8.7443  -15.5367   26.3181 N   0  0  0  0  0  0  0  0  0  0  0  0
    9.9454  -17.1557   27.6354 C   0  0  0  0  0  0  0  0  0  0  0  0
   10.0415  -18.0056   28.6832 O   0  0  0  0  0  0  0  0  0  0  0  0
   11.0084  -16.4262   27.4591 O   0  0  0  0  0  0  0  0  0  0  0  0
  1  2  1  0
  2  3  1  0
  3  4  1  6
  5  3  1  0
  5  7  1  0
  6  5  2  0
  8  7  1  0
  8 11  1  0
  9 10  1  0
  8  9  1  1
 11 12  2  0
 11 19  1  0
 13 14  1  0
 14 15  2  0
 16 14  1  0
 16 17  1  0
 18 17  1  6
 18 20  1  0
 19 18  1  0
 20 22  2  0
 20 21  1  0
M  END
$$$$
