SCQ.pdb
     RDKit          3D

 22 21  0  0  1  0  0  0  0  0999 V2000
    8.2687  -17.2775   13.5664 O   0  0  0  0  0  0  0  0  0  0  0  0
    8.8981  -16.7283   14.6551 C   0  0  0  0  0  0  0  0  0  0  0  0
    8.3822  -15.3515   14.9923 C   0  0  2  0  0  0  0  0  0  0  0  0
    8.6307  -14.4596   13.9035 N   0  0  0  0  0  0  0  0  0  0  0  0
    8.8967  -14.8002   16.2414 C   0  0  0  0  0  0  0  0  0  0  0  0
   10.0806  -14.3762   16.2660 O   0  0  0  0  0  0  0  0  0  0  0  0
    8.1781  -14.6927   17.4571 N   0  0  0  0  0  0  0  0  0  0  0  0
    8.7200  -14.2094   18.6945 C   0  0  1  0  0  0  0  0  0  0  0  0
    7.6951  -14.0671   19.7840 C   0  0  0  0  0  0  0  0  0  0  0  0
    6.3753  -12.9765   19.1436 S   0  0  0  0  0  0  0  0  0  0  0  0
    9.7905  -15.1114   19.1981 C   0  0  0  0  0  0  0  0  0  0  0  0
    9.8107  -16.3497   18.9108 O   0  0  0  0  0  0  0  0  0  0  0  0
   15.1955  -15.2975   17.2572 N   0  0  0  0  0  0  0  0  0  0  0  0
   14.9347  -14.4746   18.4179 C   0  0  0  0  0  0  0  0  0  0  0  0
   15.9403  -13.9146   18.9768 O   0  0  0  0  0  0  0  0  0  0  0  0
   13.6243  -14.2698   18.9722 C   0  0  0  0  0  0  0  0  0  0  0  0
   13.1736  -14.6356   20.2896 C   0  0  0  0  0  0  0  0  0  0  0  0
   11.9211  -15.3671   20.5324 C   0  0  2  0  0  0  0  0  0  0  0  0
   10.7928  -14.5387   20.0142 N   0  0  0  0  0  0  0  0  0  0  0  0
   11.5989  -15.8282   21.8813 C   0  0  0  0  0  0  0  0  0  0  0  0
   12.2078  -16.7963   22.6035 O   0  0  0  0  0  0  0  0  0  0  0  0
   10.6044  -15.2644   22.5029 O   0  0  0  0  0  0  0  0  0  0  0  0
  1  2  1  0
  2  3  1  0
  3  4  1  6
  5  3  1  0
  5  7  1  0
  6  5  2  0
  8  7  1  0
  8 11  1  0
  9 10  1  0
  8  9  1  1
 11 12  2  0
 11 19  1  0
 13 14  1  0
 14 15  2  0
 16 14  1  0
 16 17  1  0
 18 17  1  1
 18 20  1  0
 19 18  1  0
 20 22  2  0
 20 21  1  0
M  END
$$$$
