SCQ.pdb
     RDKit          3D

 22 21  0  0  1  0  0  0  0  0999 V2000
    7.5135  -18.5786   22.2736 O   0  0  0  0  0  0  0  0  0  0  0  0
    8.3680  -17.5060   22.2230 C   0  0  0  0  0  0  0  0  0  0  0  0
    7.6593  -16.2117   21.9100 C   0  0  2  0  0  0  0  0  0  0  0  0
    7.9047  -15.8396   20.5520 N   0  0  0  0  0  0  0  0  0  0  0  0
    7.9779  -15.1118   22.8143 C   0  0  0  0  0  0  0  0  0  0  0  0
    8.9721  -14.3882   22.5497 O   0  0  0  0  0  0  0  0  0  0  0  0
    7.2618  -14.7705   23.9875 N   0  0  0  0  0  0  0  0  0  0  0  0
    7.6091  -13.7057   24.8842 C   0  0  1  0  0  0  0  0  0  0  0  0
    6.5148  -13.3551   25.8524 C   0  0  0  0  0  0  0  0  0  0  0  0
    7.1685  -12.0529   26.9562 S   0  0  0  0  0  0  0  0  0  0  0  0
    8.8199  -14.0482   25.6777 C   0  0  0  0  0  0  0  0  0  0  0  0
    9.3659  -13.2076   26.4598 O   0  0  0  0  0  0  0  0  0  0  0  0
    9.4859  -18.5378   29.8140 N   0  0  0  0  0  0  0  0  0  0  0  0
   10.2838  -17.3344   29.9020 C   0  0  0  0  0  0  0  0  0  0  0  0
   10.7269  -17.0085   31.0573 O   0  0  0  0  0  0  0  0  0  0  0  0
   10.5865  -16.4941   28.7758 C   0  0  0  0  0  0  0  0  0  0  0  0
   10.0645  -16.6143   27.4394 C   0  0  0  0  0  0  0  0  0  0  0  0
   10.5369  -15.7879   26.3185 C   0  0  2  0  0  0  0  0  0  0  0  0
    9.3466  -15.3518   25.5304 N   0  0  0  0  0  0  0  0  0  0  0  0
   11.5514  -16.3123   25.4064 C   0  0  0  0  0  0  0  0  0  0  0  0
   12.8918  -16.3592   25.5819 O   0  0  0  0  0  0  0  0  0  0  0  0
   11.1592  -16.8042   24.2673 O   0  0  0  0  0  0  0  0  0  0  0  0
  1  2  1  0
  2  3  1  0
  3  4  1  6
  5  3  1  0
  5  7  1  0
  6  5  2  0
  8  7  1  0
  8 11  1  0
  9 10  1  0
  8  9  1  1
 11 12  2  0
 11 19  1  0
 13 14  1  0
 14 15  2  0
 16 14  1  0
 16 17  1  0
 18 17  1  1
 18 20  1  0
 19 18  1  0
 20 22  2  0
 20 21  1  0
M  END
$$$$
