SCQ.pdb
     RDKit          3D

 22 21  0  0  1  0  0  0  0  0999 V2000
    9.2360  -19.6825   17.9561 O   0  0  0  0  0  0  0  0  0  0  0  0
    9.6725  -18.6381   18.7319 C   0  0  0  0  0  0  0  0  0  0  0  0
    9.0475  -17.3220   18.3410 C   0  0  2  0  0  0  0  0  0  0  0  0
    9.7851  -16.7339   17.2673 N   0  0  0  0  0  0  0  0  0  0  0  0
    8.8891  -16.3757   19.4403 C   0  0  0  0  0  0  0  0  0  0  0  0
    8.9863  -15.1467   19.1909 O   0  0  0  0  0  0  0  0  0  0  0  0
    8.6306  -16.7119   20.7915 N   0  0  0  0  0  0  0  0  0  0  0  0
    8.2652  -15.7780   21.8175 C   0  0  1  0  0  0  0  0  0  0  0  0
    6.8989  -15.1821   21.6282 C   0  0  0  0  0  0  0  0  0  0  0  0
    5.6971  -16.5579   21.6921 S   0  0  0  0  0  0  0  0  0  0  0  0
    8.2950  -16.4190   23.1596 C   0  0  0  0  0  0  0  0  0  0  0  0
    8.0553  -17.6580   23.3136 O   0  0  0  0  0  0  0  0  0  0  0  0
    9.6403  -13.1972   28.7933 N   0  0  0  0  0  0  0  0  0  0  0  0
   10.2782  -14.4954   28.7789 C   0  0  0  0  0  0  0  0  0  0  0  0
   10.8463  -14.8809   29.8586 O   0  0  0  0  0  0  0  0  0  0  0  0
   10.3157  -15.3529   27.6258 C   0  0  0  0  0  0  0  0  0  0  0  0
    9.6901  -15.1183   26.3505 C   0  0  0  0  0  0  0  0  0  0  0  0
    9.0743  -16.1890   25.5523 C   0  0  2  0  0  0  0  0  0  0  0  0
    8.6017  -15.5954   24.2670 N   0  0  0  0  0  0  0  0  0  0  0  0
    8.0047  -17.0013   26.1286 C   0  0  0  0  0  0  0  0  0  0  0  0
    8.1151  -18.1166   26.8860 O   0  0  0  0  0  0  0  0  0  0  0  0
    6.7734  -16.6433   25.9076 O   0  0  0  0  0  0  0  0  0  0  0  0
  1  2  1  0
  2  3  1  0
  3  4  1  6
  5  3  1  0
  5  7  1  0
  6  5  2  0
  8  7  1  0
  8 11  1  0
  9 10  1  0
  8  9  1  6
 11 12  2  0
 11 19  1  0
 13 14  1  0
 14 15  2  0
 16 14  1  0
 16 17  1  0
 18 17  1  1
 18 20  1  0
 19 18  1  0
 20 22  2  0
 20 21  1  0
M  END
$$$$
