SCQ.pdb
     RDKit          3D

 22 21  0  0  1  0  0  0  0  0999 V2000
    7.3530  -15.6242   19.7148 O   0  0  0  0  0  0  0  0  0  0  0  0
    6.6575  -15.0306   20.7382 C   0  0  0  0  0  0  0  0  0  0  0  0
    7.1294  -13.6268   21.0247 C   0  0  2  0  0  0  0  0  0  0  0  0
    7.9162  -13.1464   19.9326 N   0  0  0  0  0  0  0  0  0  0  0  0
    7.8460  -13.4737   22.2865 C   0  0  0  0  0  0  0  0  0  0  0  0
    9.1022  -13.5341   22.2726 O   0  0  0  0  0  0  0  0  0  0  0  0
    7.2532  -13.2586   23.5546 N   0  0  0  0  0  0  0  0  0  0  0  0
    7.8736  -13.5524   24.8145 C   0  0  1  0  0  0  0  0  0  0  0  0
    7.1463  -12.9684   25.9925 C   0  0  0  0  0  0  0  0  0  0  0  0
    5.3692  -13.3296   25.7621 S   0  0  0  0  0  0  0  0  0  0  0  0
    7.9759  -15.0206   25.0309 C   0  0  0  0  0  0  0  0  0  0  0  0
    7.1970  -15.8379   24.4464 O   0  0  0  0  0  0  0  0  0  0  0  0
   10.8228  -18.4273   22.0468 N   0  0  0  0  0  0  0  0  0  0  0  0
   11.3799  -17.3417   22.8238 C   0  0  0  0  0  0  0  0  0  0  0  0
   12.3836  -16.7218   22.3285 O   0  0  0  0  0  0  0  0  0  0  0  0
   10.8772  -16.9414   24.1096 C   0  0  0  0  0  0  0  0  0  0  0  0
    9.7185  -17.4615   24.7876 C   0  0  0  0  0  0  0  0  0  0  0  0
    9.2446  -16.9387   26.0779 C   0  0  2  0  0  0  0  0  0  0  0  0
    8.9778  -15.4791   25.9167 N   0  0  0  0  0  0  0  0  0  0  0  0
   10.0414  -17.1514   27.2846 C   0  0  0  0  0  0  0  0  0  0  0  0
   10.5560  -16.2231   28.1231 O   0  0  0  0  0  0  0  0  0  0  0  0
   10.3166  -18.3747   27.6322 O   0  0  0  0  0  0  0  0  0  0  0  0
  1  2  1  0
  2  3  1  0
  3  4  1  6
  5  3  1  0
  5  7  1  0
  6  5  2  0
  8  7  1  0
  8 11  1  0
  9 10  1  0
  8  9  1  1
 11 12  2  0
 11 19  1  0
 13 14  1  0
 14 15  2  0
 16 14  1  0
 16 17  1  0
 18 17  1  6
 18 20  1  0
 19 18  1  0
 20 22  2  0
 20 21  1  0
M  END
$$$$
