SCQ.pdb
     RDKit          3D

 22 21  0  0  1  0  0  0  0  0999 V2000
    6.4163  -16.9840   21.4516 O   0  0  0  0  0  0  0  0  0  0  0  0
    6.0308  -15.7684   20.9447 C   0  0  0  0  0  0  0  0  0  0  0  0
    7.1434  -14.7501   20.9653 C   0  0  2  0  0  0  0  0  0  0  0  0
    8.0313  -14.9785   19.8689 N   0  0  0  0  0  0  0  0  0  0  0  0
    7.8800  -14.6821   22.2231 C   0  0  0  0  0  0  0  0  0  0  0  0
    9.0132  -15.2245   22.2833 O   0  0  0  0  0  0  0  0  0  0  0  0
    7.4347  -14.0511   23.4103 N   0  0  0  0  0  0  0  0  0  0  0  0
    8.1054  -14.1122   24.6771 C   0  0  1  0  0  0  0  0  0  0  0  0
    7.5468  -13.1625   25.6987 C   0  0  0  0  0  0  0  0  0  0  0  0
    5.7412  -13.4400   25.7623 S   0  0  0  0  0  0  0  0  0  0  0  0
    8.0386  -15.4826   25.2520 C   0  0  0  0  0  0  0  0  0  0  0  0
    7.0473  -16.2493   25.0380 O   0  0  0  0  0  0  0  0  0  0  0  0
   10.1951  -19.8339   22.6877 N   0  0  0  0  0  0  0  0  0  0  0  0
   10.0497  -20.3491   24.0316 C   0  0  0  0  0  0  0  0  0  0  0  0
   10.2113  -21.6075   24.1971 O   0  0  0  0  0  0  0  0  0  0  0  0
    9.7251  -19.5315   25.1684 C   0  0  0  0  0  0  0  0  0  0  0  0
    9.5389  -18.1040   25.1846 C   0  0  0  0  0  0  0  0  0  0  0  0
    9.2883  -17.3437   26.4182 C   0  0  2  0  0  0  0  0  0  0  0  0
    9.1251  -15.9061   26.0514 N   0  0  0  0  0  0  0  0  0  0  0  0
   10.2197  -17.4509   27.5395 C   0  0  0  0  0  0  0  0  0  0  0  0
   11.3086  -16.6918   27.7996 O   0  0  0  0  0  0  0  0  0  0  0  0
   10.0138  -18.3839   28.4228 O   0  0  0  0  0  0  0  0  0  0  0  0
  1  2  1  0
  2  3  1  0
  3  4  1  6
  5  3  1  0
  5  7  1  0
  6  5  2  0
  8  7  1  0
  8 11  1  0
  9 10  1  0
  8  9  1  1
 11 12  2  0
 11 19  1  0
 13 14  1  0
 14 15  2  0
 16 14  1  0
 16 17  1  0
 18 17  1  6
 18 20  1  0
 19 18  1  0
 20 22  2  0
 20 21  1  0
M  END
$$$$
