SCQ.pdb
     RDKit          3D

 22 21  0  0  1  0  0  0  0  0999 V2000
    6.9608  -16.6564   21.9176 O   0  0  0  0  0  0  0  0  0  0  0  0
    6.3092  -15.4729   21.6762 C   0  0  0  0  0  0  0  0  0  0  0  0
    7.2440  -14.2894   21.6475 C   0  0  2  0  0  0  0  0  0  0  0  0
    8.0577  -14.3413   20.4737 N   0  0  0  0  0  0  0  0  0  0  0  0
    8.0676  -14.1381   22.8425 C   0  0  0  0  0  0  0  0  0  0  0  0
    9.2648  -14.5210   22.7969 O   0  0  0  0  0  0  0  0  0  0  0  0
    7.6423  -13.5899   24.0772 N   0  0  0  0  0  0  0  0  0  0  0  0
    8.4167  -13.5811   25.2849 C   0  0  1  0  0  0  0  0  0  0  0  0
    7.9155  -12.6060   26.3125 C   0  0  0  0  0  0  0  0  0  0  0  0
    6.0894  -12.6800   26.2803 S   0  0  0  0  0  0  0  0  0  0  0  0
    8.4393  -14.9282   25.9157 C   0  0  0  0  0  0  0  0  0  0  0  0
    7.4522  -15.7244   25.8263 O   0  0  0  0  0  0  0  0  0  0  0  0
   11.7091  -17.3304   22.5549 N   0  0  0  0  0  0  0  0  0  0  0  0
   11.7854  -17.1541   23.9887 C   0  0  0  0  0  0  0  0  0  0  0  0
   12.9226  -16.8330   24.4796 O   0  0  0  0  0  0  0  0  0  0  0  0
   10.6677  -17.3321   24.8747 C   0  0  0  0  0  0  0  0  0  0  0  0
   10.7040  -17.4051   26.3121 C   0  0  0  0  0  0  0  0  0  0  0  0
    9.7639  -16.6735   27.1745 C   0  0  2  0  0  0  0  0  0  0  0  0
    9.6066  -15.2952   26.6238 N   0  0  0  0  0  0  0  0  0  0  0  0
   10.0108  -16.5913   28.6127 C   0  0  0  0  0  0  0  0  0  0  0  0
   10.2017  -17.6037   29.4891 O   0  0  0  0  0  0  0  0  0  0  0  0
   10.0583  -15.4127   29.1621 O   0  0  0  0  0  0  0  0  0  0  0  0
  1  2  1  0
  2  3  1  0
  3  4  1  6
  5  3  1  0
  5  7  1  0
  6  5  2  0
  8  7  1  0
  8 11  1  0
  9 10  1  0
  8  9  1  1
 11 12  2  0
 11 19  1  0
 13 14  1  0
 14 15  2  0
 16 14  1  0
 16 17  1  0
 18 17  1  6
 18 20  1  0
 19 18  1  0
 20 22  2  0
 20 21  1  0
M  END
$$$$
