SCQ.pdb
     RDKit          3D

 22 21  0  0  1  0  0  0  0  0999 V2000
    8.9946  -19.3355   18.3086 O   0  0  0  0  0  0  0  0  0  0  0  0
    7.9049  -18.6591   17.8203 C   0  0  0  0  0  0  0  0  0  0  0  0
    8.2509  -17.2750   17.3304 C   0  0  2  0  0  0  0  0  0  0  0  0
    9.1579  -17.3621   16.2293 N   0  0  0  0  0  0  0  0  0  0  0  0
    8.7693  -16.3796   18.3592 C   0  0  0  0  0  0  0  0  0  0  0  0
   10.0158  -16.2531   18.4700 O   0  0  0  0  0  0  0  0  0  0  0  0
    7.9897  -15.6211   19.2662 N   0  0  0  0  0  0  0  0  0  0  0  0
    8.5135  -14.8414   20.3507 C   0  0  1  0  0  0  0  0  0  0  0  0
    7.4739  -14.0134   21.0518 C   0  0  0  0  0  0  0  0  0  0  0  0
    6.6963  -12.9432   19.7903 S   0  0  0  0  0  0  0  0  0  0  0  0
    9.1604  -15.7101   21.3704 C   0  0  0  0  0  0  0  0  0  0  0  0
    8.7336  -16.8818   21.6176 O   0  0  0  0  0  0  0  0  0  0  0  0
   15.2480  -16.4794   22.0279 N   0  0  0  0  0  0  0  0  0  0  0  0
   14.7730  -16.6124   23.3878 C   0  0  0  0  0  0  0  0  0  0  0  0
   15.5780  -17.1215   24.2422 O   0  0  0  0  0  0  0  0  0  0  0  0
   13.4582  -16.2194   23.8154 C   0  0  0  0  0  0  0  0  0  0  0  0
   12.4373  -15.5945   23.0155 C   0  0  0  0  0  0  0  0  0  0  0  0
   11.0285  -16.0155   23.0444 C   0  0  2  0  0  0  0  0  0  0  0  0
   10.2757  -15.1826   22.0608 N   0  0  0  0  0  0  0  0  0  0  0  0
   10.3022  -16.0358   24.3126 C   0  0  0  0  0  0  0  0  0  0  0  0
    9.5991  -15.0357   24.8914 O   0  0  0  0  0  0  0  0  0  0  0  0
   10.3089  -17.1359   25.0076 O   0  0  0  0  0  0  0  0  0  0  0  0
  1  2  1  0
  2  3  1  0
  3  4  1  6
  5  3  1  0
  5  7  1  0
  6  5  2  0
  8  7  1  0
  8 11  1  0
  9 10  1  0
  8  9  1  1
 11 12  2  0
 11 19  1  0
 13 14  1  0
 14 15  2  0
 16 14  1  0
 16 17  1  0
 18 17  1  1
 18 20  1  0
 19 18  1  0
 20 22  2  0
 20 21  1  0
M  END
$$$$
