SCQ.pdb
     RDKit          3D

 22 21  0  0  1  0  0  0  0  0999 V2000
    7.3923  -18.7753   19.0671 O   0  0  0  0  0  0  0  0  0  0  0  0
    8.2527  -18.5154   18.0300 C   0  0  0  0  0  0  0  0  0  0  0  0
    8.6017  -17.0523   17.9164 C   0  0  2  0  0  0  0  0  0  0  0  0
    9.5371  -16.8572   16.8535 N   0  0  0  0  0  0  0  0  0  0  0  0
    9.0879  -16.4471   19.1519 C   0  0  0  0  0  0  0  0  0  0  0  0
   10.3120  -16.5431   19.4243 O   0  0  0  0  0  0  0  0  0  0  0  0
    8.2993  -15.7460   20.0966 N   0  0  0  0  0  0  0  0  0  0  0  0
    8.7698  -15.2548   21.3598 C   0  0  1  0  0  0  0  0  0  0  0  0
    7.8702  -14.2201   21.9745 C   0  0  0  0  0  0  0  0  0  0  0  0
    6.2050  -14.9627   22.1054 S   0  0  0  0  0  0  0  0  0  0  0  0
    8.9198  -16.3619   22.3419 C   0  0  0  0  0  0  0  0  0  0  0  0
    8.4131  -17.5098   22.1372 O   0  0  0  0  0  0  0  0  0  0  0  0
   11.2450  -20.5644   22.0091 N   0  0  0  0  0  0  0  0  0  0  0  0
   12.3443  -20.0293   22.7822 C   0  0  0  0  0  0  0  0  0  0  0  0
   13.3108  -20.8229   23.0530 O   0  0  0  0  0  0  0  0  0  0  0  0
   12.3962  -18.6761   23.2641 C   0  0  0  0  0  0  0  0  0  0  0  0
   11.4199  -17.6406   23.0469 C   0  0  0  0  0  0  0  0  0  0  0  0
   10.5518  -17.1225   24.1149 C   0  0  2  0  0  0  0  0  0  0  0  0
    9.6516  -16.0908   23.5208 N   0  0  0  0  0  0  0  0  0  0  0  0
   11.1455  -16.5937   25.3413 C   0  0  0  0  0  0  0  0  0  0  0  0
   11.4754  -15.3137   25.6280 O   0  0  0  0  0  0  0  0  0  0  0  0
   11.4093  -17.4266   26.3056 O   0  0  0  0  0  0  0  0  0  0  0  0
  1  2  1  0
  2  3  1  0
  3  4  1  6
  5  3  1  0
  5  7  1  0
  6  5  2  0
  8  7  1  0
  8 11  1  0
  9 10  1  0
  8  9  1  1
 11 12  2  0
 11 19  1  0
 13 14  1  0
 14 15  2  0
 16 14  1  0
 16 17  1  0
 18 17  1  6
 18 20  1  0
 19 18  1  0
 20 22  2  0
 20 21  1  0
M  END
$$$$
