SCQ.pdb
     RDKit          3D

 22 21  0  0  1  0  0  0  0  0999 V2000
    7.7115  -19.9289   17.4017 O   0  0  0  0  0  0  0  0  0  0  0  0
    7.3657  -18.8373   18.1582 C   0  0  0  0  0  0  0  0  0  0  0  0
    7.9522  -17.5527   17.6281 C   0  0  2  0  0  0  0  0  0  0  0  0
    8.7939  -17.8294   16.5066 N   0  0  0  0  0  0  0  0  0  0  0  0
    8.6602  -16.7535   18.6226 C   0  0  0  0  0  0  0  0  0  0  0  0
    9.9069  -16.8877   18.7212 O   0  0  0  0  0  0  0  0  0  0  0  0
    8.0687  -15.8199   19.5083 N   0  0  0  0  0  0  0  0  0  0  0  0
    8.7192  -15.2387   20.6473 C   0  0  1  0  0  0  0  0  0  0  0  0
    7.8907  -14.1976   21.3455 C   0  0  0  0  0  0  0  0  0  0  0  0
    7.5324  -12.8856   20.1242 S   0  0  0  0  0  0  0  0  0  0  0  0
    9.0734  -16.2791   21.6498 C   0  0  0  0  0  0  0  0  0  0  0  0
    8.6322  -17.4683   21.5628 O   0  0  0  0  0  0  0  0  0  0  0  0
   10.6739  -20.5720   23.0455 N   0  0  0  0  0  0  0  0  0  0  0  0
   12.0412  -20.1001   23.0221 C   0  0  0  0  0  0  0  0  0  0  0  0
   12.9590  -20.9504   23.2899 O   0  0  0  0  0  0  0  0  0  0  0  0
   12.4112  -18.7421   22.7304 C   0  0  0  0  0  0  0  0  0  0  0  0
   11.5272  -17.6542   22.4023 C   0  0  0  0  0  0  0  0  0  0  0  0
   10.7684  -16.9061   23.4159 C   0  0  2  0  0  0  0  0  0  0  0  0
    9.9249  -15.8962   22.7114 N   0  0  0  0  0  0  0  0  0  0  0  0
   11.4740  -16.2575   24.5194 C   0  0  0  0  0  0  0  0  0  0  0  0
   11.7829  -16.7698   25.7325 O   0  0  0  0  0  0  0  0  0  0  0  0
   11.8713  -15.0290   24.3578 O   0  0  0  0  0  0  0  0  0  0  0  0
  1  2  1  0
  2  3  1  0
  3  4  1  6
  5  3  1  0
  5  7  1  0
  6  5  2  0
  8  7  1  0
  8 11  1  0
  9 10  1  0
  8  9  1  1
 11 12  2  0
 11 19  1  0
 13 14  1  0
 14 15  2  0
 16 14  1  0
 16 17  1  0
 18 17  1  6
 18 20  1  0
 19 18  1  0
 20 22  2  0
 20 21  1  0
M  END
$$$$
