SCQ.pdb
     RDKit          3D

 22 21  0  0  1  0  0  0  0  0999 V2000
    7.3683  -16.6875   21.2635 O   0  0  0  0  0  0  0  0  0  0  0  0
    6.5131  -15.6442   21.0116 C   0  0  0  0  0  0  0  0  0  0  0  0
    7.1939  -14.3007   21.0957 C   0  0  2  0  0  0  0  0  0  0  0  0
    8.1786  -14.1898   20.0658 N   0  0  0  0  0  0  0  0  0  0  0  0
    7.7716  -13.9942   22.4001 C   0  0  0  0  0  0  0  0  0  0  0  0
    9.0035  -14.1834   22.5686 O   0  0  0  0  0  0  0  0  0  0  0  0
    7.0659  -13.4929   23.5211 N   0  0  0  0  0  0  0  0  0  0  0  0
    7.6123  -13.3436   24.8392 C   0  0  1  0  0  0  0  0  0  0  0  0
    6.6556  -12.7259   25.8194 C   0  0  0  0  0  0  0  0  0  0  0  0
    7.5689  -12.4831   27.3841 S   0  0  0  0  0  0  0  0  0  0  0  0
    8.0394  -14.6566   25.3930 C   0  0  0  0  0  0  0  0  0  0  0  0
    7.2690  -15.6679   25.3840 O   0  0  0  0  0  0  0  0  0  0  0  0
   10.7169  -19.4856   24.3800 N   0  0  0  0  0  0  0  0  0  0  0  0
   11.8261  -18.8432   25.0505 C   0  0  0  0  0  0  0  0  0  0  0  0
   12.9920  -19.3326   24.8545 O   0  0  0  0  0  0  0  0  0  0  0  0
   11.6825  -17.7091   25.9220 C   0  0  0  0  0  0  0  0  0  0  0  0
   10.9523  -16.4975   25.6548 C   0  0  0  0  0  0  0  0  0  0  0  0
    9.8505  -16.0232   26.5055 C   0  0  2  0  0  0  0  0  0  0  0  0
    9.3427  -14.7412   25.9341 N   0  0  0  0  0  0  0  0  0  0  0  0
   10.0610  -15.8591   27.9425 C   0  0  0  0  0  0  0  0  0  0  0  0
   10.2151  -16.8200   28.8818 O   0  0  0  0  0  0  0  0  0  0  0  0
   10.1105  -14.6507   28.4227 O   0  0  0  0  0  0  0  0  0  0  0  0
  1  2  1  0
  2  3  1  0
  3  4  1  6
  5  3  1  0
  5  7  1  0
  6  5  2  0
  8  7  1  0
  8 11  1  0
  9 10  1  0
  8  9  1  1
 11 12  2  0
 11 19  1  0
 13 14  1  0
 14 15  2  0
 16 14  1  0
 16 17  1  0
 18 17  1  6
 18 20  1  0
 19 18  1  0
 20 22  2  0
 20 21  1  0
M  END
$$$$
