SCQ.pdb
     RDKit          3D

 22 21  0  0  1  0  0  0  0  0999 V2000
    8.3104  -19.6103   18.3032 O   0  0  0  0  0  0  0  0  0  0  0  0
    7.3231  -18.7786   17.8375 C   0  0  0  0  0  0  0  0  0  0  0  0
    7.8244  -17.3856   17.5480 C   0  0  2  0  0  0  0  0  0  0  0  0
    8.5958  -17.3873   16.3448 N   0  0  0  0  0  0  0  0  0  0  0  0
    8.5702  -16.7703   18.6407 C   0  0  0  0  0  0  0  0  0  0  0  0
    9.8144  -16.9476   18.6908 O   0  0  0  0  0  0  0  0  0  0  0  0
    8.0189  -15.9744   19.6744 N   0  0  0  0  0  0  0  0  0  0  0  0
    8.7492  -15.4614   20.7977 C   0  0  1  0  0  0  0  0  0  0  0  0
    7.9361  -14.5571   21.6803 C   0  0  0  0  0  0  0  0  0  0  0  0
    6.3869  -15.4421   22.0776 S   0  0  0  0  0  0  0  0  0  0  0  0
    9.2725  -16.5664   21.6451 C   0  0  0  0  0  0  0  0  0  0  0  0
    8.9128  -17.7727   21.4671 O   0  0  0  0  0  0  0  0  0  0  0  0
   12.1920  -20.2387   20.2069 N   0  0  0  0  0  0  0  0  0  0  0  0
   13.2155  -19.7391   21.0989 C   0  0  0  0  0  0  0  0  0  0  0  0
   14.3001  -20.4128   21.1816 O   0  0  0  0  0  0  0  0  0  0  0  0
   13.0700  -18.5499   21.8931 C   0  0  0  0  0  0  0  0  0  0  0  0
   11.9740  -17.6168   21.8640 C   0  0  0  0  0  0  0  0  0  0  0  0
   11.2641  -17.1784   23.0750 C   0  0  2  0  0  0  0  0  0  0  0  0
   10.1915  -16.2253   22.6639 N   0  0  0  0  0  0  0  0  0  0  0  0
   12.0152  -16.6050   24.1900 C   0  0  0  0  0  0  0  0  0  0  0  0
   12.5928  -17.2486   25.2300 O   0  0  0  0  0  0  0  0  0  0  0  0
   12.1697  -15.3135   24.2278 O   0  0  0  0  0  0  0  0  0  0  0  0
  1  2  1  0
  2  3  1  0
  3  4  1  6
  5  3  1  0
  5  7  1  0
  6  5  2  0
  8  7  1  0
  8 11  1  0
  9 10  1  0
  8  9  1  1
 11 12  2  0
 11 19  1  0
 13 14  1  0
 14 15  2  0
 16 14  1  0
 16 17  1  0
 18 17  1  6
 18 20  1  0
 19 18  1  0
 20 22  2  0
 20 21  1  0
M  END
$$$$
