SCQ.pdb
     RDKit          3D

 22 21  0  0  1  0  0  0  0  0999 V2000
   10.1091  -14.1951   17.5819 O   0  0  0  0  0  0  0  0  0  0  0  0
   10.0209  -14.1493   18.9506 C   0  0  0  0  0  0  0  0  0  0  0  0
    8.6068  -13.9498   19.4363 C   0  0  2  0  0  0  0  0  0  0  0  0
    8.1858  -12.6104   19.1689 N   0  0  0  0  0  0  0  0  0  0  0  0
    8.3938  -14.2895   20.8392 C   0  0  0  0  0  0  0  0  0  0  0  0
    8.5674  -13.3940   21.7051 O   0  0  0  0  0  0  0  0  0  0  0  0
    8.0017  -15.5574   21.3338 N   0  0  0  0  0  0  0  0  0  0  0  0
    7.8200  -15.8808   22.7197 C   0  0  1  0  0  0  0  0  0  0  0  0
    6.7865  -16.9453   22.9574 C   0  0  0  0  0  0  0  0  0  0  0  0
    6.4870  -17.0132   24.7593 S   0  0  0  0  0  0  0  0  0  0  0  0
    9.0938  -16.3450   23.3320 C   0  0  0  0  0  0  0  0  0  0  0  0
    9.9536  -17.0043   22.6668 O   0  0  0  0  0  0  0  0  0  0  0  0
   10.2797  -14.8115   29.6424 N   0  0  0  0  0  0  0  0  0  0  0  0
    9.9174  -14.0993   28.4366 C   0  0  0  0  0  0  0  0  0  0  0  0
    9.4613  -12.9115   28.5725 O   0  0  0  0  0  0  0  0  0  0  0  0
   10.0305  -14.6568   27.1165 C   0  0  0  0  0  0  0  0  0  0  0  0
   10.5159  -15.9664   26.7674 C   0  0  0  0  0  0  0  0  0  0  0  0
   10.5665  -16.4580   25.3823 C   0  0  2  0  0  0  0  0  0  0  0  0
    9.3167  -16.0247   24.6909 N   0  0  0  0  0  0  0  0  0  0  0  0
   10.7912  -17.8788   25.1235 C   0  0  0  0  0  0  0  0  0  0  0  0
   11.9597  -18.5085   24.8633 O   0  0  0  0  0  0  0  0  0  0  0  0
    9.7625  -18.6758   25.1324 O   0  0  0  0  0  0  0  0  0  0  0  0
  1  2  1  0
  2  3  1  0
  3  4  1  1
  5  3  1  0
  5  7  1  0
  6  5  2  0
  8  7  1  0
  8 11  1  0
  9 10  1  0
  8  9  1  6
 11 12  2  0
 11 19  1  0
 13 14  1  0
 14 15  2  0
 16 14  1  0
 16 17  1  0
 18 17  1  1
 18 20  1  0
 19 18  1  0
 20 22  2  0
 20 21  1  0
M  END
$$$$
