FKA.pdb
     RDKit          3D

 26 26  0  0  1  0  0  0  0  0999 V2000
   24.8896  -16.7276  -17.3902 N   0  0  0  0  0  0  0  0  0  0  0  0
   25.4297  -17.7102  -16.5074 C   0  0  1  0  0  0  0  0  0  0  0  0
   26.6140  -17.1425  -15.7878 C   0  0  0  0  0  0  0  0  0  0  0  0
   27.2124  -18.1659  -14.9123 C   0  0  0  0  0  0  0  0  0  0  0  0
   27.9346  -19.2009  -15.4291 C   0  0  0  0  0  0  0  0  0  0  0  0
   28.5019  -20.1716  -14.5961 C   0  0  0  0  0  0  0  0  0  0  0  0
   28.3098  -20.0525  -13.2324 C   0  0  0  0  0  0  0  0  0  0  0  0
   27.5783  -19.0040  -12.7115 C   0  0  0  0  0  0  0  0  0  0  0  0
   27.0373  -18.0714  -13.5592 C   0  0  0  0  0  0  0  0  0  0  0  0
   24.4518  -18.1648  -15.4795 C   0  0  0  0  0  0  0  0  0  0  0  0
   23.8534  -17.3071  -14.8020 O   0  0  0  0  0  0  0  0  0  0  0  0
   24.1674  -19.5225  -15.2329 N   0  0  0  0  0  0  0  0  0  0  0  0
   23.3363  -19.9100  -14.1430 C   0  0  1  0  0  0  0  0  0  0  0  0
   22.3051  -20.8848  -14.6565 C   0  0  0  0  0  0  0  0  0  0  0  0
   21.2358  -21.1223  -13.6369 C   0  0  0  0  0  0  0  0  0  0  0  0
   20.1549  -22.0727  -14.0833 C   0  0  0  0  0  0  0  0  0  0  0  0
   19.0658  -22.1473  -13.0159 C   0  0  0  0  0  0  0  0  0  0  0  0
   18.0349  -23.0727  -13.4270 N   0  0  0  0  0  0  0  0  0  0  0  0
   24.0910  -20.5670  -13.0438 C   0  0  0  0  0  0  0  0  0  0  0  0
   24.5842  -21.7065  -13.1784 O   0  0  0  0  0  0  0  0  0  0  0  0
   25.7944  -19.6497   -9.9607 C   0  0  0  0  0  0  0  0  0  0  0  0
   24.8478  -20.5961  -10.6876 C   0  0  2  0  0  0  0  0  0  0  0  0
   24.2741  -19.9164  -11.8041 N   0  0  0  0  0  0  0  0  0  0  0  0
   23.8800  -21.1461   -9.7447 C   0  0  0  0  0  0  0  0  0  0  0  0
   22.5162  -21.0032   -9.9173 O   0  0  0  0  0  0  0  0  0  0  0  0
   24.2840  -21.7724   -8.7385 O   0  0  0  0  0  0  0  0  0  0  0  0
  2 10  1  0
  2  1  1  6
  3  2  1  0
  4  9  2  0
  4  3  1  0
  5  4  1  0
  6  7  1  0
  6  5  2  0
  7  8  2  0
  8  9  1  0
 10 11  2  0
 12 13  1  0
 12 10  1  0
 13 14  1  6
 14 15  1  0
 16 15  1  0
 17 16  1  0
 18 17  1  0
 19 13  1  0
 20 19  2  0
 22 21  1  1
 22 23  1  0
 23 19  1  0
 24 22  1  0
 24 25  1  0
 26 24  2  0
M  END
$$$$
