FKA.pdb
     RDKit          3D

 26 26  0  0  1  0  0  0  0  0999 V2000
   27.4601  -22.6154  -11.4651 N   0  0  0  0  0  0  0  0  0  0  0  0
   26.5184  -21.6076  -11.0989 C   0  0  1  0  0  0  0  0  0  0  0  0
   27.2346  -20.3150  -10.8560 C   0  0  0  0  0  0  0  0  0  0  0  0
   27.5756  -20.1861   -9.4281 C   0  0  0  0  0  0  0  0  0  0  0  0
   28.8173  -20.5113   -8.9677 C   0  0  0  0  0  0  0  0  0  0  0  0
   29.1390  -20.3882   -7.6115 C   0  0  0  0  0  0  0  0  0  0  0  0
   28.1618  -19.9272   -6.7495 C   0  0  0  0  0  0  0  0  0  0  0  0
   26.9054  -19.5986   -7.2177 C   0  0  0  0  0  0  0  0  0  0  0  0
   26.6267  -19.7322   -8.5540 C   0  0  0  0  0  0  0  0  0  0  0  0
   25.4922  -21.3646  -12.1512 C   0  0  0  0  0  0  0  0  0  0  0  0
   25.8262  -21.4650  -13.3475 O   0  0  0  0  0  0  0  0  0  0  0  0
   24.1558  -21.0251  -11.8614 N   0  0  0  0  0  0  0  0  0  0  0  0
   23.1435  -21.1205  -12.8588 C   0  0  1  0  0  0  0  0  0  0  0  0
   21.8106  -21.2740  -12.1683 C   0  0  0  0  0  0  0  0  0  0  0  0
   20.7256  -21.5717  -13.1550 C   0  0  0  0  0  0  0  0  0  0  0  0
   19.3967  -21.9104  -12.5303 C   0  0  0  0  0  0  0  0  0  0  0  0
   18.3691  -22.1794  -13.6270 C   0  0  0  0  0  0  0  0  0  0  0  0
   18.0249  -23.5827  -13.6470 N   0  0  0  0  0  0  0  0  0  0  0  0
   23.0784  -19.9214  -13.7348 C   0  0  0  0  0  0  0  0  0  0  0  0
   22.9305  -18.7741  -13.2640 O   0  0  0  0  0  0  0  0  0  0  0  0
   24.1515  -19.1577  -17.1511 C   0  0  0  0  0  0  0  0  0  0  0  0
   23.2093  -18.8956  -15.9834 C   0  0  2  0  0  0  0  0  0  0  0  0
   23.1828  -20.0452  -15.1375 N   0  0  0  0  0  0  0  0  0  0  0  0
   21.9053  -18.4775  -16.4861 C   0  0  0  0  0  0  0  0  0  0  0  0
   21.6782  -17.2101  -16.9884 O   0  0  0  0  0  0  0  0  0  0  0  0
   20.9480  -19.2845  -16.4685 O   0  0  0  0  0  0  0  0  0  0  0  0
  2 10  1  0
  2  1  1  6
  3  2  1  0
  4  9  2  0
  4  3  1  0
  5  4  1  0
  6  7  1  0
  6  5  2  0
  7  8  2  0
  8  9  1  0
 10 11  2  0
 12 13  1  0
 12 10  1  0
 13 14  1  1
 14 15  1  0
 16 15  1  0
 17 16  1  0
 18 17  1  0
 19 13  1  0
 20 19  2  0
 22 21  1  6
 22 23  1  0
 23 19  1  0
 24 22  1  0
 24 25  1  0
 26 24  2  0
M  END
$$$$
