FKA.pdb
     RDKit          3D

 26 26  0  0  1  0  0  0  0  0999 V2000
   24.9996  -11.2450  -18.2362 N   0  0  0  0  0  0  0  0  0  0  0  0
   24.8095  -10.7572  -16.9086 C   0  0  1  0  0  0  0  0  0  0  0  0
   26.1074  -10.2346  -16.3746 C   0  0  0  0  0  0  0  0  0  0  0  0
   27.1073  -11.3162  -16.3274 C   0  0  0  0  0  0  0  0  0  0  0  0
   28.2165  -11.2859  -17.1200 C   0  0  0  0  0  0  0  0  0  0  0  0
   29.1647  -12.3139  -17.0738 C   0  0  0  0  0  0  0  0  0  0  0  0
   28.9457  -13.3632  -16.2010 C   0  0  0  0  0  0  0  0  0  0  0  0
   27.8220  -13.3919  -15.3995 C   0  0  0  0  0  0  0  0  0  0  0  0
   26.9144  -12.3661  -15.4724 C   0  0  0  0  0  0  0  0  0  0  0  0
   23.8131   -9.6520  -16.8353 C   0  0  0  0  0  0  0  0  0  0  0  0
   23.6801   -8.8997  -17.8197 O   0  0  0  0  0  0  0  0  0  0  0  0
   23.0090   -9.4127  -15.7034 N   0  0  0  0  0  0  0  0  0  0  0  0
   21.9597   -8.4501  -15.7413 C   0  0  1  0  0  0  0  0  0  0  0  0
   20.8743   -8.8944  -14.7916 C   0  0  0  0  0  0  0  0  0  0  0  0
   19.7514   -9.5530  -15.5296 C   0  0  0  0  0  0  0  0  0  0  0  0
   19.8536  -11.0549  -15.5999 C   0  0  0  0  0  0  0  0  0  0  0  0
   18.7091  -11.6069  -16.4464 C   0  0  0  0  0  0  0  0  0  0  0  0
   18.7973  -13.0476  -16.5158 N   0  0  0  0  0  0  0  0  0  0  0  0
   22.4051   -7.0912  -15.3360 C   0  0  0  0  0  0  0  0  0  0  0  0
   23.0622   -6.9024  -14.2909 O   0  0  0  0  0  0  0  0  0  0  0  0
   22.0791   -3.6612  -16.8197 C   0  0  0  0  0  0  0  0  0  0  0  0
   22.5516   -4.6590  -15.7704 C   0  0  2  0  0  0  0  0  0  0  0  0
   22.0956   -5.9637  -16.1277 N   0  0  0  0  0  0  0  0  0  0  0  0
   22.1414   -4.2112  -14.4440 C   0  0  0  0  0  0  0  0  0  0  0  0
   20.9128   -4.5364  -13.9009 O   0  0  0  0  0  0  0  0  0  0  0  0
   22.9194   -3.5064  -13.7612 O   0  0  0  0  0  0  0  0  0  0  0  0
  2 10  1  0
  2  1  1  6
  3  2  1  0
  4  9  2  0
  4  3  1  0
  5  4  1  0
  6  7  1  0
  6  5  2  0
  7  8  2  0
  8  9  1  0
 10 11  2  0
 12 13  1  0
 12 10  1  0
 13 14  1  1
 14 15  1  0
 16 15  1  0
 17 16  1  0
 18 17  1  0
 19 13  1  0
 20 19  2  0
 22 21  1  6
 22 23  1  0
 23 19  1  0
 24 22  1  0
 24 25  1  0
 26 24  2  0
M  END
$$$$
