FKA.pdb
     RDKit          3D

 26 26  0  0  1  0  0  0  0  0999 V2000
   19.4915  -24.1578  -11.0994 N   0  0  0  0  0  0  0  0  0  0  0  0
   19.2938  -23.8339   -9.7236 C   0  0  1  0  0  0  0  0  0  0  0  0
   19.2106  -22.3472   -9.5643 C   0  0  0  0  0  0  0  0  0  0  0  0
   20.5158  -21.7324   -9.8648 C   0  0  0  0  0  0  0  0  0  0  0  0
   20.7565  -21.1427  -11.0707 C   0  0  0  0  0  0  0  0  0  0  0  0
   21.9965  -20.5596  -11.3540 C   0  0  0  0  0  0  0  0  0  0  0  0
   22.9728  -20.5977  -10.3763 C   0  0  0  0  0  0  0  0  0  0  0  0
   22.7271  -21.1952   -9.1563 C   0  0  0  0  0  0  0  0  0  0  0  0
   21.4992  -21.7565   -8.9146 C   0  0  0  0  0  0  0  0  0  0  0  0
   18.0424  -24.4187   -9.1655 C   0  0  0  0  0  0  0  0  0  0  0  0
   17.0635  -24.5705   -9.9214 O   0  0  0  0  0  0  0  0  0  0  0  0
   17.9084  -24.8111   -7.8189 N   0  0  0  0  0  0  0  0  0  0  0  0
   16.6954  -25.3847   -7.3409 C   0  0  1  0  0  0  0  0  0  0  0  0
   17.0014  -26.1612   -6.0837 C   0  0  0  0  0  0  0  0  0  0  0  0
   17.6836  -25.2963   -5.0708 C   0  0  0  0  0  0  0  0  0  0  0  0
   18.0056  -25.9960   -3.7756 C   0  0  0  0  0  0  0  0  0  0  0  0
   18.8952  -27.2051   -4.0543 C   0  0  0  0  0  0  0  0  0  0  0  0
   19.2959  -27.8200   -2.8095 N   0  0  0  0  0  0  0  0  0  0  0  0
   15.6606  -24.3673   -7.0193 C   0  0  0  0  0  0  0  0  0  0  0  0
   15.9560  -23.1668   -6.8418 O   0  0  0  0  0  0  0  0  0  0  0  0
   13.8056  -23.0580   -5.2501 C   0  0  0  0  0  0  0  0  0  0  0  0
   13.3129  -23.7863   -6.4938 C   0  0  2  0  0  0  0  0  0  0  0  0
   14.3012  -24.7312   -6.9039 N   0  0  0  0  0  0  0  0  0  0  0  0
   12.9342  -22.8166   -7.5157 C   0  0  0  0  0  0  0  0  0  0  0  0
   11.9761  -21.8453   -7.2945 O   0  0  0  0  0  0  0  0  0  0  0  0
   13.4881  -22.8529   -8.6382 O   0  0  0  0  0  0  0  0  0  0  0  0
  2 10  1  0
  2  1  1  6
  3  2  1  0
  4  9  2  0
  4  3  1  0
  5  4  1  0
  6  7  1  0
  6  5  2  0
  7  8  2  0
  8  9  1  0
 10 11  2  0
 12 13  1  0
 12 10  1  0
 13 14  1  1
 14 15  1  0
 16 15  1  0
 17 16  1  0
 18 17  1  0
 19 13  1  0
 20 19  2  0
 22 21  1  1
 22 23  1  0
 23 19  1  0
 24 22  1  0
 24 25  1  0
 26 24  2  0
M  END
$$$$
