FKA.pdb
     RDKit          3D

 26 26  0  0  1  0  0  0  0  0999 V2000
   27.3538  -16.7205  -17.9368 N   0  0  0  0  0  0  0  0  0  0  0  0
   26.4881  -16.7160  -16.8022 C   0  0  1  0  0  0  0  0  0  0  0  0
   25.6857  -15.4516  -16.7873 C   0  0  0  0  0  0  0  0  0  0  0  0
   26.5498  -14.3081  -16.4444 C   0  0  0  0  0  0  0  0  0  0  0  0
   27.0281  -14.1406  -15.1783 C   0  0  0  0  0  0  0  0  0  0  0  0
   27.8483  -13.0541  -14.8548 C   0  0  0  0  0  0  0  0  0  0  0  0
   28.1612  -12.1535  -15.8556 C   0  0  0  0  0  0  0  0  0  0  0  0
   27.6760  -12.3250  -17.1366 C   0  0  0  0  0  0  0  0  0  0  0  0
   26.8746  -13.4023  -17.4162 C   0  0  0  0  0  0  0  0  0  0  0  0
   25.5314  -17.8581  -16.7997 C   0  0  0  0  0  0  0  0  0  0  0  0
   25.0852  -18.2675  -17.8888 O   0  0  0  0  0  0  0  0  0  0  0  0
   25.1031  -18.5026  -15.6224 N   0  0  0  0  0  0  0  0  0  0  0  0
   24.1876  -19.5926  -15.6762 C   0  0  1  0  0  0  0  0  0  0  0  0
   24.7443  -20.7207  -14.8427 C   0  0  0  0  0  0  0  0  0  0  0  0
   23.8290  -21.9045  -14.8612 C   0  0  0  0  0  0  0  0  0  0  0  0
   24.2574  -23.0323  -13.9583 C   0  0  0  0  0  0  0  0  0  0  0  0
   23.2232  -24.1541  -14.0142 C   0  0  0  0  0  0  0  0  0  0  0  0
   23.5874  -25.2072  -13.0941 N   0  0  0  0  0  0  0  0  0  0  0  0
   22.8416  -19.2453  -15.1498 C   0  0  0  0  0  0  0  0  0  0  0  0
   22.6898  -18.7651  -14.0069 O   0  0  0  0  0  0  0  0  0  0  0  0
   19.4721  -18.8608  -16.6662 C   0  0  0  0  0  0  0  0  0  0  0  0
   20.3952  -19.0506  -15.4695 C   0  0  2  0  0  0  0  0  0  0  0  0
   21.6849  -19.4498  -15.9332 N   0  0  0  0  0  0  0  0  0  0  0  0
   19.7807  -19.9645  -14.5127 C   0  0  0  0  0  0  0  0  0  0  0  0
   18.8076  -19.5560  -13.6203 O   0  0  0  0  0  0  0  0  0  0  0  0
   20.1372  -21.1646  -14.4871 O   0  0  0  0  0  0  0  0  0  0  0  0
  2 10  1  0
  2  1  1  6
  3  2  1  0
  4  9  2  0
  4  3  1  0
  5  4  1  0
  6  7  1  0
  6  5  2  0
  7  8  2  0
  8  9  1  0
 10 11  2  0
 12 13  1  0
 12 10  1  0
 13 14  1  1
 14 15  1  0
 16 15  1  0
 17 16  1  0
 18 17  1  0
 19 13  1  0
 20 19  2  0
 22 21  1  6
 22 23  1  0
 23 19  1  0
 24 22  1  0
 24 25  1  0
 26 24  2  0
M  END
$$$$
