FKA.pdb
     RDKit          3D

 26 26  0  0  1  0  0  0  0  0999 V2000
   28.4618  -20.8181   -9.0086 N   0  0  0  0  0  0  0  0  0  0  0  0
   27.0433  -20.7786   -8.8571 C   0  0  1  0  0  0  0  0  0  0  0  0
   26.6651  -19.6387   -7.9625 C   0  0  0  0  0  0  0  0  0  0  0  0
   27.3026  -19.7977   -6.6433 C   0  0  0  0  0  0  0  0  0  0  0  0
   28.3190  -18.9789   -6.2482 C   0  0  0  0  0  0  0  0  0  0  0  0
   28.9230  -19.1316   -4.9953 C   0  0  0  0  0  0  0  0  0  0  0  0
   28.4603  -20.1373   -4.1675 C   0  0  0  0  0  0  0  0  0  0  0  0
   27.4313  -20.9651   -4.5695 C   0  0  0  0  0  0  0  0  0  0  0  0
   26.8636  -20.7851   -5.8050 C   0  0  0  0  0  0  0  0  0  0  0  0
   26.3280  -20.5940  -10.1508 C   0  0  0  0  0  0  0  0  0  0  0  0
   26.6166  -19.6104  -10.8593 O   0  0  0  0  0  0  0  0  0  0  0  0
   25.3364  -21.4798  -10.6169 N   0  0  0  0  0  0  0  0  0  0  0  0
   24.7465  -21.3075  -11.9018 C   0  0  1  0  0  0  0  0  0  0  0  0
   24.8956  -22.5986  -12.6688 C   0  0  0  0  0  0  0  0  0  0  0  0
   25.5171  -22.3585  -14.0088 C   0  0  0  0  0  0  0  0  0  0  0  0
   24.5897  -22.5958  -15.1727 C   0  0  0  0  0  0  0  0  0  0  0  0
   25.3461  -22.3830  -16.4817 C   0  0  0  0  0  0  0  0  0  0  0  0
   26.1388  -23.5516  -16.7889 N   0  0  0  0  0  0  0  0  0  0  0  0
   23.3003  -20.9703  -11.8350 C   0  0  0  0  0  0  0  0  0  0  0  0
   22.5525  -21.4650  -10.9656 O   0  0  0  0  0  0  0  0  0  0  0  0
   21.1104  -18.5030  -13.6036 C   0  0  0  0  0  0  0  0  0  0  0  0
   21.3644  -19.6562  -12.6415 C   0  0  2  0  0  0  0  0  0  0  0  0
   22.7245  -20.0729  -12.7606 N   0  0  0  0  0  0  0  0  0  0  0  0
   20.3812  -20.7105  -12.8648 C   0  0  0  0  0  0  0  0  0  0  0  0
   19.1006  -20.6486  -12.3486 O   0  0  0  0  0  0  0  0  0  0  0  0
   20.6938  -21.7134  -13.5463 O   0  0  0  0  0  0  0  0  0  0  0  0
  2 10  1  0
  2  1  1  6
  3  2  1  0
  4  9  2  0
  4  3  1  0
  5  4  1  0
  6  7  1  0
  6  5  2  0
  7  8  2  0
  8  9  1  0
 10 11  2  0
 12 13  1  0
 12 10  1  0
 13 14  1  6
 14 15  1  0
 16 15  1  0
 17 16  1  0
 18 17  1  0
 19 13  1  0
 20 19  2  0
 22 21  1  6
 22 23  1  0
 23 19  1  0
 24 22  1  0
 24 25  1  0
 26 24  2  0
M  END
$$$$
