FKA.pdb
     RDKit          3D

 26 26  0  0  1  0  0  0  0  0999 V2000
   26.4143  -18.3560   -7.7111 N   0  0  0  0  0  0  0  0  0  0  0  0
   26.8556  -19.5624   -8.3328 C   0  0  1  0  0  0  0  0  0  0  0  0
   26.7338  -20.6996   -7.3659 C   0  0  0  0  0  0  0  0  0  0  0  0
   27.6641  -20.5075   -6.2392 C   0  0  0  0  0  0  0  0  0  0  0  0
   27.2377  -19.9839   -5.0544 C   0  0  0  0  0  0  0  0  0  0  0  0
   28.1227  -19.8023   -3.9858 C   0  0  0  0  0  0  0  0  0  0  0  0
   29.4434  -20.1689   -4.1644 C   0  0  0  0  0  0  0  0  0  0  0  0
   29.8728  -20.6987   -5.3647 C   0  0  0  0  0  0  0  0  0  0  0  0
   28.9764  -20.8621   -6.3897 C   0  0  0  0  0  0  0  0  0  0  0  0
   26.0626  -19.9127   -9.5444 C   0  0  0  0  0  0  0  0  0  0  0  0
   24.8194  -19.8550   -9.4834 O   0  0  0  0  0  0  0  0  0  0  0  0
   26.6498  -20.3082  -10.7625 N   0  0  0  0  0  0  0  0  0  0  0  0
   25.9908  -20.0729  -12.0032 C   0  0  1  0  0  0  0  0  0  0  0  0
   27.0074  -20.1990  -13.1113 C   0  0  0  0  0  0  0  0  0  0  0  0
   26.9903  -18.9921  -13.9958 C   0  0  0  0  0  0  0  0  0  0  0  0
   28.0240  -19.0134  -15.0921 C   0  0  0  0  0  0  0  0  0  0  0  0
   27.9427  -17.7191  -15.8977 C   0  0  0  0  0  0  0  0  0  0  0  0
   28.9282  -17.7331  -16.9545 N   0  0  0  0  0  0  0  0  0  0  0  0
   24.8919  -21.0382  -12.2677 C   0  0  0  0  0  0  0  0  0  0  0  0
   25.0883  -22.2715  -12.2607 O   0  0  0  0  0  0  0  0  0  0  0  0
   21.1889  -20.7916  -12.6424 C   0  0  0  0  0  0  0  0  0  0  0  0
   22.5247  -21.5009  -12.8226 C   0  0  2  0  0  0  0  0  0  0  0  0
   23.5820  -20.5852  -12.5371 N   0  0  0  0  0  0  0  0  0  0  0  0
   22.5853  -22.1094  -14.1470 C   0  0  0  0  0  0  0  0  0  0  0  0
   23.4501  -21.6614  -15.1277 O   0  0  0  0  0  0  0  0  0  0  0  0
   21.8333  -23.0727  -14.4200 O   0  0  0  0  0  0  0  0  0  0  0  0
  2 10  1  0
  2  1  1  1
  3  2  1  0
  4  9  2  0
  4  3  1  0
  5  4  1  0
  6  7  1  0
  6  5  2  0
  7  8  2  0
  8  9  1  0
 10 11  2  0
 12 13  1  0
 12 10  1  0
 13 14  1  6
 14 15  1  0
 16 15  1  0
 17 16  1  0
 18 17  1  0
 19 13  1  0
 20 19  2  0
 22 21  1  6
 22 23  1  0
 23 19  1  0
 24 22  1  0
 24 25  1  0
 26 24  2  0
M  END
$$$$
