FKA.pdb
     RDKit          3D

 26 26  0  0  1  0  0  0  0  0999 V2000
   27.5412  -21.2594  -14.3974 N   0  0  0  0  0  0  0  0  0  0  0  0
   26.5690  -21.3936  -13.3613 C   0  0  1  0  0  0  0  0  0  0  0  0
   26.7966  -20.3423  -12.3194 C   0  0  0  0  0  0  0  0  0  0  0  0
   28.0108  -20.6528  -11.5441 C   0  0  0  0  0  0  0  0  0  0  0  0
   29.2490  -20.3250  -12.0120 C   0  0  0  0  0  0  0  0  0  0  0  0
   30.4006  -20.6207  -11.2743 C   0  0  0  0  0  0  0  0  0  0  0  0
   30.2485  -21.2555  -10.0559 C   0  0  0  0  0  0  0  0  0  0  0  0
   28.9940  -21.5865   -9.5841 C   0  0  0  0  0  0  0  0  0  0  0  0
   27.8880  -21.2806  -10.3352 C   0  0  0  0  0  0  0  0  0  0  0  0
   25.1717  -21.2444  -13.8560 C   0  0  0  0  0  0  0  0  0  0  0  0
   24.9042  -20.2940  -14.6163 O   0  0  0  0  0  0  0  0  0  0  0  0
   24.1313  -22.1277  -13.5062 N   0  0  0  0  0  0  0  0  0  0  0  0
   22.8792  -22.0889  -14.1841 C   0  0  1  0  0  0  0  0  0  0  0  0
   22.2573  -23.4619  -14.1100 C   0  0  0  0  0  0  0  0  0  0  0  0
   22.6600  -24.2980  -15.2840 C   0  0  0  0  0  0  0  0  0  0  0  0
   24.0350  -24.9041  -15.1697 C   0  0  0  0  0  0  0  0  0  0  0  0
   24.3457  -25.7097  -16.4289 C   0  0  0  0  0  0  0  0  0  0  0  0
   25.6882  -26.2395  -16.3567 N   0  0  0  0  0  0  0  0  0  0  0  0
   21.9278  -21.1144  -13.5885 C   0  0  0  0  0  0  0  0  0  0  0  0
   21.7845  -21.0117  -12.3521 O   0  0  0  0  0  0  0  0  0  0  0  0
   20.1331  -18.1250  -14.7956 C   0  0  0  0  0  0  0  0  0  0  0  0
   20.2506  -19.3134  -13.8501 C   0  0  2  0  0  0  0  0  0  0  0  0
   21.1513  -20.2687  -14.4103 N   0  0  0  0  0  0  0  0  0  0  0  0
   18.9224  -19.8332  -13.5439 C   0  0  0  0  0  0  0  0  0  0  0  0
   18.0569  -19.1883  -12.6807 O   0  0  0  0  0  0  0  0  0  0  0  0
   18.5386  -20.9006  -14.0744 O   0  0  0  0  0  0  0  0  0  0  0  0
  2 10  1  0
  2  1  1  6
  3  2  1  0
  4  9  2  0
  4  3  1  0
  5  4  1  0
  6  7  1  0
  6  5  2  0
  7  8  2  0
  8  9  1  0
 10 11  2  0
 12 13  1  0
 12 10  1  0
 13 14  1  1
 14 15  1  0
 16 15  1  0
 17 16  1  0
 18 17  1  0
 19 13  1  0
 20 19  2  0
 22 21  1  6
 22 23  1  0
 23 19  1  0
 24 22  1  0
 24 25  1  0
 26 24  2  0
M  END
$$$$
