FKA.pdb
     RDKit          3D

 26 26  0  0  1  0  0  0  0  0999 V2000
   28.1804  -21.3405   -9.6163 N   0  0  0  0  0  0  0  0  0  0  0  0
   26.8216  -20.9234   -9.4880 C   0  0  1  0  0  0  0  0  0  0  0  0
   26.7673  -19.5906   -8.8072 C   0  0  0  0  0  0  0  0  0  0  0  0
   27.2709  -19.7066   -7.4270 C   0  0  0  0  0  0  0  0  0  0  0  0
   28.4040  -19.0580   -7.0332 C   0  0  0  0  0  0  0  0  0  0  0  0
   28.8805  -19.1695   -5.7224 C   0  0  0  0  0  0  0  0  0  0  0  0
   28.1699  -19.9566   -4.8357 C   0  0  0  0  0  0  0  0  0  0  0  0
   27.0231  -20.6123   -5.2365 C   0  0  0  0  0  0  0  0  0  0  0  0
   26.5864  -20.4792   -6.5299 C   0  0  0  0  0  0  0  0  0  0  0  0
   26.1313  -20.7882  -10.8013 C   0  0  0  0  0  0  0  0  0  0  0  0
   26.6734  -20.1106  -11.6956 O   0  0  0  0  0  0  0  0  0  0  0  0
   24.8898  -21.3908  -11.0854 N   0  0  0  0  0  0  0  0  0  0  0  0
   24.2861  -21.2536  -12.3682 C   0  0  1  0  0  0  0  0  0  0  0  0
   23.9916  -22.6334  -12.9036 C   0  0  0  0  0  0  0  0  0  0  0  0
   25.1123  -23.1260  -13.7643 C   0  0  0  0  0  0  0  0  0  0  0  0
   24.8561  -24.4642  -14.4082 C   0  0  0  0  0  0  0  0  0  0  0  0
   26.0239  -24.8241  -15.3233 C   0  0  0  0  0  0  0  0  0  0  0  0
   25.8234  -26.1405  -15.8845 N   0  0  0  0  0  0  0  0  0  0  0  0
   23.0129  -20.4875  -12.3304 C   0  0  0  0  0  0  0  0  0  0  0  0
   22.2028  -20.6105  -11.3878 O   0  0  0  0  0  0  0  0  0  0  0  0
   21.4230  -17.8886  -14.5117 C   0  0  0  0  0  0  0  0  0  0  0  0
   21.4166  -18.9241  -13.3947 C   0  0  2  0  0  0  0  0  0  0  0  0
   22.6788  -19.5903  -13.3682 N   0  0  0  0  0  0  0  0  0  0  0  0
   20.2641  -19.8056  -13.5460 C   0  0  0  0  0  0  0  0  0  0  0  0
   20.3631  -21.0607  -14.1163 O   0  0  0  0  0  0  0  0  0  0  0  0
   19.1386  -19.4257  -13.1498 O   0  0  0  0  0  0  0  0  0  0  0  0
  2 10  1  0
  2  1  1  6
  3  2  1  0
  4  9  2  0
  4  3  1  0
  5  4  1  0
  6  7  1  0
  6  5  2  0
  7  8  2  0
  8  9  1  0
 10 11  2  0
 12 13  1  0
 12 10  1  0
 13 14  1  1
 14 15  1  0
 16 15  1  0
 17 16  1  0
 18 17  1  0
 19 13  1  0
 20 19  2  0
 22 21  1  6
 22 23  1  0
 23 19  1  0
 24 22  1  0
 24 25  1  0
 26 24  2  0
M  END
$$$$
