FKA.pdb
     RDKit          3D

 26 26  0  0  1  0  0  0  0  0999 V2000
   28.7173  -27.0270  -18.5679 N   0  0  0  0  0  0  0  0  0  0  0  0
   28.5170  -27.7061  -17.3288 C   0  0  1  0  0  0  0  0  0  0  0  0
   27.9301  -26.7606  -16.3267 C   0  0  0  0  0  0  0  0  0  0  0  0
   28.7809  -25.5638  -16.2015 C   0  0  0  0  0  0  0  0  0  0  0  0
   30.0878  -25.6642  -15.8254 C   0  0  0  0  0  0  0  0  0  0  0  0
   30.8939  -24.5265  -15.7071 C   0  0  0  0  0  0  0  0  0  0  0  0
   30.3281  -23.2959  -15.9825 C   0  0  0  0  0  0  0  0  0  0  0  0
   29.0048  -23.1966  -16.3631 C   0  0  0  0  0  0  0  0  0  0  0  0
   28.2455  -24.3339  -16.4683 C   0  0  0  0  0  0  0  0  0  0  0  0
   27.5926  -28.8683  -17.4487 C   0  0  0  0  0  0  0  0  0  0  0  0
   26.7524  -28.8724  -18.3690 O   0  0  0  0  0  0  0  0  0  0  0  0
   27.6198  -29.9691  -16.5698 N   0  0  0  0  0  0  0  0  0  0  0  0
   26.7975  -31.1093  -16.7990 C   0  0  1  0  0  0  0  0  0  0  0  0
   27.2915  -32.2340  -15.9225 C   0  0  0  0  0  0  0  0  0  0  0  0
   26.4910  -33.4788  -16.1438 C   0  0  0  0  0  0  0  0  0  0  0  0
   26.9796  -34.3344  -17.2841 C   0  0  0  0  0  0  0  0  0  0  0  0
   26.1049  -35.5803  -17.4007 C   0  0  0  0  0  0  0  0  0  0  0  0
   26.5138  -36.3649  -18.5432 N   0  0  0  0  0  0  0  0  0  0  0  0
   25.3663  -30.8651  -16.4803 C   0  0  0  0  0  0  0  0  0  0  0  0
   25.0235  -30.1556  -15.5113 O   0  0  0  0  0  0  0  0  0  0  0  0
   22.2202  -31.0211  -18.3209 C   0  0  0  0  0  0  0  0  0  0  0  0
   22.9662  -31.1705  -17.0014 C   0  0  2  0  0  0  0  0  0  0  0  0
   24.3433  -31.4330  -17.2706 N   0  0  0  0  0  0  0  0  0  0  0  0
   22.3049  -32.1715  -16.1715 C   0  0  0  0  0  0  0  0  0  0  0  0
   21.6622  -31.8465  -14.9919 O   0  0  0  0  0  0  0  0  0  0  0  0
   22.3113  -33.3721  -16.5275 O   0  0  0  0  0  0  0  0  0  0  0  0
  2 10  1  0
  2  1  1  6
  3  2  1  0
  4  9  2  0
  4  3  1  0
  5  4  1  0
  6  7  1  0
  6  5  2  0
  7  8  2  0
  8  9  1  0
 10 11  2  0
 12 13  1  0
 12 10  1  0
 13 14  1  1
 14 15  1  0
 16 15  1  0
 17 16  1  0
 18 17  1  0
 19 13  1  0
 20 19  2  0
 22 21  1  6
 22 23  1  0
 23 19  1  0
 24 22  1  0
 24 25  1  0
 26 24  2  0
M  END
$$$$
