FKA.pdb
     RDKit          3D

 26 26  0  0  1  0  0  0  0  0999 V2000
   22.2545  -19.1485  -16.3883 N   0  0  0  0  0  0  0  0  0  0  0  0
   21.8263  -18.3250  -17.4724 C   0  0  1  0  0  0  0  0  0  0  0  0
   20.6512  -17.5014  -17.0442 C   0  0  0  0  0  0  0  0  0  0  0  0
   19.4380  -18.3367  -16.9973 C   0  0  0  0  0  0  0  0  0  0  0  0
   18.9039  -18.7382  -15.8085 C   0  0  0  0  0  0  0  0  0  0  0  0
   17.7520  -19.5314  -15.7663 C   0  0  0  0  0  0  0  0  0  0  0  0
   17.1690  -19.8976  -16.9649 C   0  0  0  0  0  0  0  0  0  0  0  0
   17.7114  -19.4901  -18.1672 C   0  0  0  0  0  0  0  0  0  0  0  0
   18.8415  -18.7130  -18.1691 C   0  0  0  0  0  0  0  0  0  0  0  0
   22.8864  -17.3896  -17.9424 C   0  0  0  0  0  0  0  0  0  0  0  0
   23.6056  -16.8258  -17.0953 O   0  0  0  0  0  0  0  0  0  0  0  0
   23.1185  -17.1084  -19.3033 N   0  0  0  0  0  0  0  0  0  0  0  0
   24.2137  -16.2911  -19.7053 C   0  0  1  0  0  0  0  0  0  0  0  0
   25.0879  -17.0947  -20.6367 C   0  0  0  0  0  0  0  0  0  0  0  0
   25.9681  -18.0324  -19.8717 C   0  0  0  0  0  0  0  0  0  0  0  0
   26.8006  -18.9439  -20.7360 C   0  0  0  0  0  0  0  0  0  0  0  0
   27.6097  -19.8898  -19.8519 C   0  0  0  0  0  0  0  0  0  0  0  0
   28.4199  -20.7602  -20.6729 N   0  0  0  0  0  0  0  0  0  0  0  0
   23.7861  -15.0580  -20.4166 C   0  0  0  0  0  0  0  0  0  0  0  0
   22.7724  -15.0414  -21.1461 O   0  0  0  0  0  0  0  0  0  0  0  0
   25.0313  -11.5213  -20.5248 C   0  0  0  0  0  0  0  0  0  0  0  0
   24.0592  -12.6410  -20.8734 C   0  0  2  0  0  0  0  0  0  0  0  0
   24.5196  -13.8585  -20.2873 N   0  0  0  0  0  0  0  0  0  0  0  0
   23.8656  -12.6940  -22.3183 C   0  0  0  0  0  0  0  0  0  0  0  0
   22.8915  -11.9540  -22.9614 O   0  0  0  0  0  0  0  0  0  0  0  0
   24.6004  -13.4317  -23.0140 O   0  0  0  0  0  0  0  0  0  0  0  0
  2 10  1  0
  2  1  1  1
  3  2  1  0
  4  9  2  0
  4  3  1  0
  5  4  1  0
  6  7  1  0
  6  5  2  0
  7  8  2  0
  8  9  1  0
 10 11  2  0
 12 13  1  0
 12 10  1  0
 13 14  1  6
 14 15  1  0
 16 15  1  0
 17 16  1  0
 18 17  1  0
 19 13  1  0
 20 19  2  0
 22 21  1  6
 22 23  1  0
 23 19  1  0
 24 22  1  0
 24 25  1  0
 26 24  2  0
M  END
$$$$
