FKA.pdb
     RDKit          3D

 26 26  0  0  1  0  0  0  0  0999 V2000
   26.8479  -27.7664  -19.4384 N   0  0  0  0  0  0  0  0  0  0  0  0
   26.9404  -28.1016  -18.0543 C   0  0  1  0  0  0  0  0  0  0  0  0
   25.8169  -27.4549  -17.3045 C   0  0  0  0  0  0  0  0  0  0  0  0
   25.9039  -25.9889  -17.4282 C   0  0  0  0  0  0  0  0  0  0  0  0
   24.9572  -25.2815  -18.1086 C   0  0  0  0  0  0  0  0  0  0  0  0
   25.0416  -23.8896  -18.2249 C   0  0  0  0  0  0  0  0  0  0  0  0
   26.1130  -23.2501  -17.6300 C   0  0  0  0  0  0  0  0  0  0  0  0
   27.0702  -23.9683  -16.9417 C   0  0  0  0  0  0  0  0  0  0  0  0
   26.9540  -25.3317  -16.8488 C   0  0  0  0  0  0  0  0  0  0  0  0
   26.8625  -29.5688  -17.8077 C   0  0  0  0  0  0  0  0  0  0  0  0
   26.3859  -30.3007  -18.6965 O   0  0  0  0  0  0  0  0  0  0  0  0
   27.3026  -30.1746  -16.6142 N   0  0  0  0  0  0  0  0  0  0  0  0
   27.2994  -31.5914  -16.4681 C   0  0  1  0  0  0  0  0  0  0  0  0
   28.3972  -31.9711  -15.5048 C   0  0  0  0  0  0  0  0  0  0  0  0
   29.7398  -31.8875  -16.1604 C   0  0  0  0  0  0  0  0  0  0  0  0
   30.0940  -33.0873  -17.0007 C   0  0  0  0  0  0  0  0  0  0  0  0
   31.5289  -32.9536  -17.5049 C   0  0  0  0  0  0  0  0  0  0  0  0
   31.8653  -34.0834  -18.3407 N   0  0  0  0  0  0  0  0  0  0  0  0
   26.0135  -32.1164  -15.9386 C   0  0  0  0  0  0  0  0  0  0  0  0
   25.4484  -31.5934  -14.9552 O   0  0  0  0  0  0  0  0  0  0  0  0
   23.1596  -32.5698  -15.9211 C   0  0  0  0  0  0  0  0  0  0  0  0
   24.1392  -33.7285  -16.0546 C   0  0  2  0  0  0  0  0  0  0  0  0
   25.3875  -33.2315  -16.5370 N   0  0  0  0  0  0  0  0  0  0  0  0
   23.5467  -34.7840  -16.8689 C   0  0  0  0  0  0  0  0  0  0  0  0
   22.9039  -35.8739  -16.3130 O   0  0  0  0  0  0  0  0  0  0  0  0
   23.6150  -34.7139  -18.1173 O   0  0  0  0  0  0  0  0  0  0  0  0
  2 10  1  0
  2  1  1  6
  3  2  1  0
  4  9  2  0
  4  3  1  0
  5  4  1  0
  6  7  1  0
  6  5  2  0
  7  8  2  0
  8  9  1  0
 10 11  2  0
 12 13  1  0
 12 10  1  0
 13 14  1  1
 14 15  1  0
 16 15  1  0
 17 16  1  0
 18 17  1  0
 19 13  1  0
 20 19  2  0
 22 21  1  6
 22 23  1  0
 23 19  1  0
 24 22  1  0
 24 25  1  0
 26 24  2  0
M  END
$$$$
