FKA.pdb
     RDKit          3D

 26 26  0  0  1  0  0  0  0  0999 V2000
   25.3905  -19.1362   -7.9242 N   0  0  0  0  0  0  0  0  0  0  0  0
   26.4514  -19.7395   -8.6638 C   0  0  1  0  0  0  0  0  0  0  0  0
   26.9367  -20.9589   -7.9425 C   0  0  0  0  0  0  0  0  0  0  0  0
   27.6665  -20.5685   -6.7230 C   0  0  0  0  0  0  0  0  0  0  0  0
   27.0035  -20.2783   -5.5672 C   0  0  0  0  0  0  0  0  0  0  0  0
   27.6982  -19.9077   -4.4105 C   0  0  0  0  0  0  0  0  0  0  0  0
   29.0777  -19.8439   -4.4716 C   0  0  0  0  0  0  0  0  0  0  0  0
   29.7468  -20.1381   -5.6427 C   0  0  0  0  0  0  0  0  0  0  0  0
   29.0319  -20.4976   -6.7566 C   0  0  0  0  0  0  0  0  0  0  0  0
   26.0375  -20.1589  -10.0321 C   0  0  0  0  0  0  0  0  0  0  0  0
   24.8543  -20.5010  -10.2211 O   0  0  0  0  0  0  0  0  0  0  0  0
   26.9205  -20.1886  -11.1296 N   0  0  0  0  0  0  0  0  0  0  0  0
   26.4394  -20.0280  -12.4607 C   0  0  1  0  0  0  0  0  0  0  0  0
   27.6199  -19.7631  -13.3626 C   0  0  0  0  0  0  0  0  0  0  0  0
   27.3649  -18.5845  -14.2488 C   0  0  0  0  0  0  0  0  0  0  0  0
   28.4908  -18.2701  -15.1999 C   0  0  0  0  0  0  0  0  0  0  0  0
   28.1067  -17.0767  -16.0712 C   0  0  0  0  0  0  0  0  0  0  0  0
   29.1964  -16.7441  -16.9602 N   0  0  0  0  0  0  0  0  0  0  0  0
   25.7265  -21.2296  -12.9680 C   0  0  0  0  0  0  0  0  0  0  0  0
   25.9750  -22.3721  -12.5288 O   0  0  0  0  0  0  0  0  0  0  0  0
   23.4563  -22.7008  -12.6984 C   0  0  0  0  0  0  0  0  0  0  0  0
   23.6581  -22.0426  -14.0571 C   0  0  2  0  0  0  0  0  0  0  0  0
   24.7387  -21.1138  -13.9702 N   0  0  0  0  0  0  0  0  0  0  0  0
   22.3982  -21.4715  -14.5205 C   0  0  0  0  0  0  0  0  0  0  0  0
   22.2756  -20.1415  -14.8755 O   0  0  0  0  0  0  0  0  0  0  0  0
   21.3831  -22.1998  -14.6048 O   0  0  0  0  0  0  0  0  0  0  0  0
  2 10  1  0
  2  1  1  1
  3  2  1  0
  4  9  2  0
  4  3  1  0
  5  4  1  0
  6  7  1  0
  6  5  2  0
  7  8  2  0
  8  9  1  0
 10 11  2  0
 12 13  1  0
 12 10  1  0
 13 14  1  6
 14 15  1  0
 16 15  1  0
 17 16  1  0
 18 17  1  0
 19 13  1  0
 20 19  2  0
 22 21  1  1
 22 23  1  0
 23 19  1  0
 24 22  1  0
 24 25  1  0
 26 24  2  0
M  END
$$$$
