FKA.pdb
     RDKit          3D

 26 26  0  0  1  0  0  0  0  0999 V2000
   26.2753  -22.5488  -11.7147 N   0  0  0  0  0  0  0  0  0  0  0  0
   25.2649  -21.6425  -11.2739 C   0  0  1  0  0  0  0  0  0  0  0  0
   25.8983  -20.3584  -10.8350 C   0  0  0  0  0  0  0  0  0  0  0  0
   27.2481  -20.2364  -11.4139 C   0  0  0  0  0  0  0  0  0  0  0  0
   27.4739  -19.4730  -12.5211 C   0  0  0  0  0  0  0  0  0  0  0  0
   28.7563  -19.3585  -13.0692 C   0  0  0  0  0  0  0  0  0  0  0  0
   29.7899  -20.0417  -12.4564 C   0  0  0  0  0  0  0  0  0  0  0  0
   29.5590  -20.8139  -11.3357 C   0  0  0  0  0  0  0  0  0  0  0  0
   28.2885  -20.9022  -10.8268 C   0  0  0  0  0  0  0  0  0  0  0  0
   24.2749  -21.3170  -12.3385 C   0  0  0  0  0  0  0  0  0  0  0  0
   24.6058  -21.4688  -13.5303 O   0  0  0  0  0  0  0  0  0  0  0  0
   22.9763  -20.8437  -12.0653 N   0  0  0  0  0  0  0  0  0  0  0  0
   21.9713  -20.8395  -13.0748 C   0  0  1  0  0  0  0  0  0  0  0  0
   20.6250  -20.9597  -12.4038 C   0  0  0  0  0  0  0  0  0  0  0  0
   20.4103  -22.3427  -11.8741 C   0  0  0  0  0  0  0  0  0  0  0  0
   19.1454  -22.5091  -11.0722 C   0  0  0  0  0  0  0  0  0  0  0  0
   19.0169  -23.9597  -10.6137 C   0  0  0  0  0  0  0  0  0  0  0  0
   17.8150  -24.1241   -9.8284 N   0  0  0  0  0  0  0  0  0  0  0  0
   21.9752  -19.5973  -13.8911 C   0  0  0  0  0  0  0  0  0  0  0  0
   21.8686  -18.4690  -13.3664 O   0  0  0  0  0  0  0  0  0  0  0  0
   23.1523  -18.6592  -17.2144 C   0  0  0  0  0  0  0  0  0  0  0  0
   22.1449  -18.4698  -16.0877 C   0  0  2  0  0  0  0  0  0  0  0  0
   22.1007  -19.6569  -15.2962 N   0  0  0  0  0  0  0  0  0  0  0  0
   20.8596  -18.0560  -16.6397 C   0  0  0  0  0  0  0  0  0  0  0  0
   20.6640  -16.8095  -17.2038 O   0  0  0  0  0  0  0  0  0  0  0  0
   19.8896  -18.8473  -16.6086 O   0  0  0  0  0  0  0  0  0  0  0  0
  2 10  1  0
  2  1  1  6
  3  2  1  0
  4  9  2  0
  4  3  1  0
  5  4  1  0
  6  7  1  0
  6  5  2  0
  7  8  2  0
  8  9  1  0
 10 11  2  0
 12 13  1  0
 12 10  1  0
 13 14  1  1
 14 15  1  0
 16 15  1  0
 17 16  1  0
 18 17  1  0
 19 13  1  0
 20 19  2  0
 22 21  1  6
 22 23  1  0
 23 19  1  0
 24 22  1  0
 24 25  1  0
 26 24  2  0
M  END
$$$$
