FKA.pdb
     RDKit          3D

 26 26  0  0  1  0  0  0  0  0999 V2000
   26.3890  -18.4015   -7.6926 N   0  0  0  0  0  0  0  0  0  0  0  0
   26.9369  -19.5977   -8.2454 C   0  0  1  0  0  0  0  0  0  0  0  0
   26.8742  -20.6957   -7.2289 C   0  0  0  0  0  0  0  0  0  0  0  0
   27.7463  -20.3762   -6.0847 C   0  0  0  0  0  0  0  0  0  0  0  0
   29.1040  -20.4458   -6.1920 C   0  0  0  0  0  0  0  0  0  0  0  0
   29.9302  -20.1422   -5.1044 C   0  0  0  0  0  0  0  0  0  0  0  0
   29.3314  -19.7690   -3.9158 C   0  0  0  0  0  0  0  0  0  0  0  0
   27.9568  -19.6992   -3.8093 C   0  0  0  0  0  0  0  0  0  0  0  0
   27.1791  -20.0042   -4.8971 C   0  0  0  0  0  0  0  0  0  0  0  0
   26.2065  -20.0624   -9.4579 C   0  0  0  0  0  0  0  0  0  0  0  0
   24.9623  -19.9956   -9.4695 O   0  0  0  0  0  0  0  0  0  0  0  0
   26.8543  -20.5765  -10.5986 N   0  0  0  0  0  0  0  0  0  0  0  0
   26.3319  -20.3454  -11.9034 C   0  0  1  0  0  0  0  0  0  0  0  0
   27.4554  -20.5028  -12.8985 C   0  0  0  0  0  0  0  0  0  0  0  0
   26.9945  -20.1783  -14.2848 C   0  0  0  0  0  0  0  0  0  0  0  0
   28.0655  -20.3009  -15.3378 C   0  0  0  0  0  0  0  0  0  0  0  0
   27.5112  -19.8496  -16.6869 C   0  0  0  0  0  0  0  0  0  0  0  0
   28.5490  -19.9072  -17.6908 N   0  0  0  0  0  0  0  0  0  0  0  0
   25.2488  -21.2950  -12.2704 C   0  0  0  0  0  0  0  0  0  0  0  0
   25.0913  -22.3747  -11.6628 O   0  0  0  0  0  0  0  0  0  0  0  0
   22.3585  -20.8599  -11.9989 C   0  0  0  0  0  0  0  0  0  0  0  0
   22.9893  -21.4029  -13.2745 C   0  0  2  0  0  0  0  0  0  0  0  0
   24.3582  -21.0016  -13.3261 N   0  0  0  0  0  0  0  0  0  0  0  0
   22.1918  -21.0021  -14.4284 C   0  0  0  0  0  0  0  0  0  0  0  0
   21.3347  -21.8735  -15.0735 O   0  0  0  0  0  0  0  0  0  0  0  0
   22.2760  -19.8301  -14.8613 O   0  0  0  0  0  0  0  0  0  0  0  0
  2 10  1  0
  2  1  1  1
  3  2  1  0
  4  9  2  0
  4  3  1  0
  5  4  1  0
  6  7  1  0
  6  5  2  0
  7  8  2  0
  8  9  1  0
 10 11  2  0
 12 13  1  0
 12 10  1  0
 13 14  1  6
 14 15  1  0
 16 15  1  0
 17 16  1  0
 18 17  1  0
 19 13  1  0
 20 19  2  0
 22 21  1  1
 22 23  1  0
 23 19  1  0
 24 22  1  0
 24 25  1  0
 26 24  2  0
M  END
$$$$
