TMN.pdb
     RDKit          3D

 24 23  0  0  1  0  0  0  0  0999 V2000
    7.5166  -16.3042   19.5723 C   0  0  0  0  0  0  0  0  0  0  0  0
    8.0602  -14.9633   19.1486 C   0  0  1  0  0  0  0  0  0  0  0  0
    7.7161  -14.6640   17.8571 O   0  0  0  0  0  0  0  0  0  0  0  0
    7.6667  -13.8616   20.0988 C   0  0  2  0  0  0  0  0  0  0  0  0
    8.1265  -12.5770   19.5856 N   0  0  0  0  0  0  0  0  0  0  0  0
    8.2960  -14.0085   21.4368 C   0  0  0  0  0  0  0  0  0  0  0  0
    9.4552  -13.5977   21.7128 O   0  0  0  0  0  0  0  0  0  0  0  0
    6.0951  -11.1865   27.1513 C   0  0  0  0  0  0  0  0  0  0  0  0
    7.1686  -12.3796   26.4339 S   0  0  0  0  0  0  0  0  0  0  0  0
    6.5164  -13.6654   25.4338 C   0  0  0  0  0  0  0  0  0  0  0  0
    7.3125  -14.8018   25.0024 C   0  0  0  0  0  0  0  0  0  0  0  0
    8.1704  -14.8505   23.8171 C   0  0  2  0  0  0  0  0  0  0  0  0
    7.6000  -14.6441   22.5223 N   0  0  0  0  0  0  0  0  0  0  0  0
    9.1479  -15.9809   23.8230 C   0  0  0  0  0  0  0  0  0  0  0  0
    8.7413  -17.1852   23.7832 O   0  0  0  0  0  0  0  0  0  0  0  0
   12.8627  -14.3363   26.7909 N   0  0  0  0  0  0  0  0  0  0  0  0
   12.8822  -15.2096   25.6566 C   0  0  0  0  0  0  0  0  0  0  0  0
   13.6173  -14.8888   24.7124 O   0  0  0  0  0  0  0  0  0  0  0  0
   12.0345  -16.4133   25.6966 C   0  0  0  0  0  0  0  0  0  0  0  0
   11.4808  -16.8362   24.3549 C   0  0  2  0  0  0  0  0  0  0  0  0
   10.5450  -15.8004   23.8712 N   0  0  0  0  0  0  0  0  0  0  0  0
   10.6550  -18.0392   24.5330 C   0  0  0  0  0  0  0  0  0  0  0  0
   11.1256  -19.2706   24.1421 O   0  0  0  0  0  0  0  0  0  0  0  0
    9.5218  -17.9713   25.0368 O   0  0  0  0  0  0  0  0  0  0  0  0
  2  1  1  1
  2  3  1  0
  4  2  1  0
  4  5  1  6
  6  4  1  0
  7  6  2  0
  8  9  1  0
  9 10  1  0
 11 10  1  0
 12 11  1  1
 12 13  1  0
 13  6  1  0
 14 12  1  0
 14 15  2  0
 16 17  1  0
 17 19  1  0
 18 17  2  0
 20 19  1  1
 20 21  1  0
 21 14  1  0
 22 20  1  0
 23 22  1  0
 24 22  2  0
M  END
$$$$
