TMN.pdb
     RDKit          3D

 24 23  0  0  1  0  0  0  0  0999 V2000
    7.2311  -16.3809   19.4940 C   0  0  0  0  0  0  0  0  0  0  0  0
    7.8638  -15.2072   18.7903 C   0  0  1  0  0  0  0  0  0  0  0  0
    7.5627  -15.1973   17.4542 O   0  0  0  0  0  0  0  0  0  0  0  0
    7.5210  -13.8950   19.4476 C   0  0  2  0  0  0  0  0  0  0  0  0
    8.0732  -12.7924   18.6702 N   0  0  0  0  0  0  0  0  0  0  0  0
    8.1103  -13.7643   20.8053 C   0  0  0  0  0  0  0  0  0  0  0  0
    9.3424  -13.6076   21.0203 O   0  0  0  0  0  0  0  0  0  0  0  0
    7.0671  -11.9754   28.6084 C   0  0  0  0  0  0  0  0  0  0  0  0
    6.5090  -12.1004   26.9460 S   0  0  0  0  0  0  0  0  0  0  0  0
    7.4484  -12.9953   25.7647 C   0  0  0  0  0  0  0  0  0  0  0  0
    7.0935  -13.0438   24.3565 C   0  0  0  0  0  0  0  0  0  0  0  0
    7.8065  -13.7853   23.3149 C   0  0  2  0  0  0  0  0  0  0  0  0
    7.2870  -13.8100   21.9829 N   0  0  0  0  0  0  0  0  0  0  0  0
    8.2885  -15.1308   23.7514 C   0  0  0  0  0  0  0  0  0  0  0  0
    7.5548  -16.1586   23.6014 O   0  0  0  0  0  0  0  0  0  0  0  0
   10.6287  -18.2567   22.4885 N   0  0  0  0  0  0  0  0  0  0  0  0
   11.7535  -17.6348   23.1189 C   0  0  0  0  0  0  0  0  0  0  0  0
   12.8666  -17.8442   22.6168 O   0  0  0  0  0  0  0  0  0  0  0  0
   11.5057  -16.7999   24.3067 C   0  0  0  0  0  0  0  0  0  0  0  0
   10.0516  -16.6919   24.7061 C   0  0  2  0  0  0  0  0  0  0  0  0
    9.5496  -15.3512   24.3412 N   0  0  0  0  0  0  0  0  0  0  0  0
    9.9498  -16.7485   26.1713 C   0  0  0  0  0  0  0  0  0  0  0  0
   10.1072  -17.9428   26.8344 O   0  0  0  0  0  0  0  0  0  0  0  0
    9.7210  -15.7266   26.8391 O   0  0  0  0  0  0  0  0  0  0  0  0
  2  1  1  1
  2  3  1  0
  4  2  1  0
  4  5  1  6
  6  4  1  0
  7  6  2  0
  8  9  1  0
  9 10  1  0
 11 10  1  0
 12 11  1  1
 12 13  1  0
 13  6  1  0
 14 12  1  0
 14 15  2  0
 16 17  1  0
 17 19  1  0
 18 17  2  0
 20 19  1  1
 20 21  1  0
 21 14  1  0
 22 20  1  0
 23 22  1  0
 24 22  2  0
M  END
$$$$
