TMN.pdb
     RDKit          3D

 24 23  0  0  1  0  0  0  0  0999 V2000
    8.4794  -12.7132   19.5843 C   0  0  0  0  0  0  0  0  0  0  0  0
    7.4879  -13.8352   19.7602 C   0  0  1  0  0  0  0  0  0  0  0  0
    6.9503  -14.2266   18.5627 O   0  0  0  0  0  0  0  0  0  0  0  0
    8.0730  -15.0012   20.5149 C   0  0  2  0  0  0  0  0  0  0  0  0
    7.0474  -16.0131   20.7361 N   0  0  0  0  0  0  0  0  0  0  0  0
    8.5607  -14.6210   21.8660 C   0  0  0  0  0  0  0  0  0  0  0  0
    9.6216  -13.9714   22.0689 O   0  0  0  0  0  0  0  0  0  0  0  0
    6.6160  -11.2866   27.5549 C   0  0  0  0  0  0  0  0  0  0  0  0
    5.6322  -11.9303   26.2478 S   0  0  0  0  0  0  0  0  0  0  0  0
    6.3653  -12.9142   24.9936 C   0  0  0  0  0  0  0  0  0  0  0  0
    7.2530  -14.0258   25.2894 C   0  0  0  0  0  0  0  0  0  0  0  0
    8.2321  -14.6122   24.3725 C   0  0  2  0  0  0  0  0  0  0  0  0
    7.8307  -14.9815   23.0508 N   0  0  0  0  0  0  0  0  0  0  0  0
    9.1055  -15.6491   25.0012 C   0  0  0  0  0  0  0  0  0  0  0  0
    9.8491  -15.3529   25.9894 O   0  0  0  0  0  0  0  0  0  0  0  0
   12.9447  -19.1062   23.4315 N   0  0  0  0  0  0  0  0  0  0  0  0
   12.8149  -17.8892   24.1742 C   0  0  0  0  0  0  0  0  0  0  0  0
   13.7880  -17.5405   24.8572 O   0  0  0  0  0  0  0  0  0  0  0  0
   11.5456  -17.1491   24.0717 C   0  0  0  0  0  0  0  0  0  0  0  0
   10.3633  -17.8382   24.7141 C   0  0  2  0  0  0  0  0  0  0  0  0
    9.1662  -16.9863   24.5597 N   0  0  0  0  0  0  0  0  0  0  0  0
   10.5847  -17.9208   26.1648 C   0  0  0  0  0  0  0  0  0  0  0  0
    9.7593  -17.2475   27.0344 O   0  0  0  0  0  0  0  0  0  0  0  0
   11.5154  -18.5956   26.6349 O   0  0  0  0  0  0  0  0  0  0  0  0
  2  1  1  6
  2  3  1  0
  4  2  1  0
  4  5  1  1
  6  4  1  0
  7  6  2  0
  8  9  1  0
  9 10  1  0
 11 10  1  0
 12 11  1  1
 12 13  1  0
 13  6  1  0
 14 12  1  0
 14 15  2  0
 16 17  1  0
 17 19  1  0
 18 17  2  0
 20 19  1  6
 20 21  1  0
 21 14  1  0
 22 20  1  0
 23 22  1  0
 24 22  2  0
M  END
$$$$
