TMN.pdb
     RDKit          3D

 24 23  0  0  1  0  0  0  0  0999 V2000
    7.2882  -16.1955   19.3834 C   0  0  0  0  0  0  0  0  0  0  0  0
    7.9144  -15.0054   18.7019 C   0  0  1  0  0  0  0  0  0  0  0  0
    7.6081  -14.9687   17.3674 O   0  0  0  0  0  0  0  0  0  0  0  0
    7.5701  -13.7082   19.3877 C   0  0  2  0  0  0  0  0  0  0  0  0
    8.1431  -12.5899   18.6487 N   0  0  0  0  0  0  0  0  0  0  0  0
    8.1376  -13.6176   20.7579 C   0  0  0  0  0  0  0  0  0  0  0  0
    9.3610  -13.4303   20.9967 O   0  0  0  0  0  0  0  0  0  0  0  0
    6.9692  -12.1534   28.6049 C   0  0  0  0  0  0  0  0  0  0  0  0
    6.4264  -12.2438   26.9353 S   0  0  0  0  0  0  0  0  0  0  0  0
    7.4111  -13.0535   25.7297 C   0  0  0  0  0  0  0  0  0  0  0  0
    7.0694  -13.0628   24.3175 C   0  0  0  0  0  0  0  0  0  0  0  0
    7.8032  -13.7596   23.2596 C   0  0  2  0  0  0  0  0  0  0  0  0
    7.3015  -13.7412   21.9208 N   0  0  0  0  0  0  0  0  0  0  0  0
    8.2926  -15.1155   23.6540 C   0  0  0  0  0  0  0  0  0  0  0  0
    7.5385  -16.1326   23.5366 O   0  0  0  0  0  0  0  0  0  0  0  0
   12.3352  -18.9934   23.3305 N   0  0  0  0  0  0  0  0  0  0  0  0
   12.2890  -17.9846   24.3452 C   0  0  0  0  0  0  0  0  0  0  0  0
   12.8426  -18.2447   25.4226 O   0  0  0  0  0  0  0  0  0  0  0  0
   11.5929  -16.7242   24.0353 C   0  0  0  0  0  0  0  0  0  0  0  0
   10.1246  -16.7128   24.3951 C   0  0  2  0  0  0  0  0  0  0  0  0
    9.5828  -15.3573   24.1675 N   0  0  0  0  0  0  0  0  0  0  0  0
    9.9818  -16.9399   25.8403 C   0  0  0  0  0  0  0  0  0  0  0  0
    9.8659  -18.2171   26.3361 O   0  0  0  0  0  0  0  0  0  0  0  0
    9.9626  -15.9903   26.6407 O   0  0  0  0  0  0  0  0  0  0  0  0
  2  1  1  1
  2  3  1  0
  4  2  1  0
  4  5  1  6
  6  4  1  0
  7  6  2  0
  8  9  1  0
  9 10  1  0
 11 10  1  0
 12 11  1  1
 12 13  1  0
 13  6  1  0
 14 12  1  0
 14 15  2  0
 16 17  1  0
 17 19  1  0
 18 17  2  0
 20 19  1  1
 20 21  1  0
 21 14  1  0
 22 20  1  0
 23 22  1  0
 24 22  2  0
M  END
$$$$
