TMN.pdb
     RDKit          3D

 24 23  0  0  1  0  0  0  0  0999 V2000
    6.8653  -18.2915   21.4664 C   0  0  0  0  0  0  0  0  0  0  0  0
    7.9350  -17.9145   20.4732 C   0  0  1  0  0  0  0  0  0  0  0  0
    7.7243  -18.5051   19.2555 O   0  0  0  0  0  0  0  0  0  0  0  0
    8.0962  -16.4213   20.3469 C   0  0  2  0  0  0  0  0  0  0  0  0
    9.1098  -16.1154   19.3449 N   0  0  0  0  0  0  0  0  0  0  0  0
    8.5708  -15.7890   21.6048 C   0  0  0  0  0  0  0  0  0  0  0  0
    9.7663  -15.8337   22.0018 O   0  0  0  0  0  0  0  0  0  0  0  0
    6.6588  -11.2136   28.0689 C   0  0  0  0  0  0  0  0  0  0  0  0
    6.2869  -11.9103   26.4983 S   0  0  0  0  0  0  0  0  0  0  0  0
    7.3641  -13.0951   25.7809 C   0  0  0  0  0  0  0  0  0  0  0  0
    7.1658  -13.6241   24.4423 C   0  0  0  0  0  0  0  0  0  0  0  0
    8.0223  -14.6014   23.7681 C   0  0  2  0  0  0  0  0  0  0  0  0
    7.6697  -15.0703   22.4641 N   0  0  0  0  0  0  0  0  0  0  0  0
    8.4880  -15.7115   24.6537 C   0  0  0  0  0  0  0  0  0  0  0  0
    7.9233  -16.8501   24.6116 O   0  0  0  0  0  0  0  0  0  0  0  0
    8.2341  -19.7554   27.6975 N   0  0  0  0  0  0  0  0  0  0  0  0
    8.9927  -18.5496   27.8395 C   0  0  0  0  0  0  0  0  0  0  0  0
    9.8240  -18.5129   28.7574 O   0  0  0  0  0  0  0  0  0  0  0  0
    8.7306  -17.4527   26.8923 C   0  0  0  0  0  0  0  0  0  0  0  0
    9.9533  -16.6526   26.5042 C   0  0  2  0  0  0  0  0  0  0  0  0
    9.5518  -15.5814   25.5692 N   0  0  0  0  0  0  0  0  0  0  0  0
   10.8629  -17.5094   25.7303 C   0  0  0  0  0  0  0  0  0  0  0  0
   10.6936  -17.6583   24.3738 O   0  0  0  0  0  0  0  0  0  0  0  0
   11.7984  -18.1141   26.2797 O   0  0  0  0  0  0  0  0  0  0  0  0
  2  1  1  1
  2  3  1  0
  4  2  1  0
  4  5  1  6
  6  4  1  0
  7  6  2  0
  8  9  1  0
  9 10  1  0
 11 10  1  0
 12 11  1  1
 12 13  1  0
 13  6  1  0
 14 12  1  0
 14 15  2  0
 16 17  1  0
 17 19  1  0
 18 17  2  0
 20 19  1  6
 20 21  1  0
 21 14  1  0
 22 20  1  0
 23 22  1  0
 24 22  2  0
M  END
$$$$
