TMN.pdb
     RDKit          3D

 24 23  0  0  1  0  0  0  0  0999 V2000
    6.9464  -16.3371   20.5286 C   0  0  0  0  0  0  0  0  0  0  0  0
    7.7430  -15.2279   19.8898 C   0  0  1  0  0  0  0  0  0  0  0  0
    7.4858  -15.1294   18.5481 O   0  0  0  0  0  0  0  0  0  0  0  0
    7.5489  -13.9083   20.5917 C   0  0  2  0  0  0  0  0  0  0  0  0
    8.0962  -12.8294   19.7784 N   0  0  0  0  0  0  0  0  0  0  0  0
    8.2699  -13.8392   21.8890 C   0  0  0  0  0  0  0  0  0  0  0  0
    9.4216  -13.3449   22.0231 O   0  0  0  0  0  0  0  0  0  0  0  0
    6.9273  -10.7626   27.7643 C   0  0  0  0  0  0  0  0  0  0  0  0
    5.9113  -11.5455   26.5621 S   0  0  0  0  0  0  0  0  0  0  0  0
    6.6387  -12.4302   25.2328 C   0  0  0  0  0  0  0  0  0  0  0  0
    7.6540  -13.4500   25.4339 C   0  0  0  0  0  0  0  0  0  0  0  0
    8.2955  -14.2437   24.3843 C   0  0  2  0  0  0  0  0  0  0  0  0
    7.6793  -14.3453   23.0981 N   0  0  0  0  0  0  0  0  0  0  0  0
    8.8222  -15.5600   24.8569 C   0  0  0  0  0  0  0  0  0  0  0  0
    9.3656  -15.6636   26.0020 O   0  0  0  0  0  0  0  0  0  0  0  0
   12.1927  -19.1258   23.3338 N   0  0  0  0  0  0  0  0  0  0  0  0
   12.2667  -17.7171   23.0896 C   0  0  0  0  0  0  0  0  0  0  0  0
   13.3638  -17.2647   22.7337 O   0  0  0  0  0  0  0  0  0  0  0  0
   11.0440  -16.9179   23.2782 C   0  0  0  0  0  0  0  0  0  0  0  0
    9.8994  -17.6643   23.9250 C   0  0  2  0  0  0  0  0  0  0  0  0
    8.7568  -16.7430   24.0934 N   0  0  0  0  0  0  0  0  0  0  0  0
   10.2843  -18.0440   25.2919 C   0  0  0  0  0  0  0  0  0  0  0  0
   10.4316  -19.3683   25.6312 O   0  0  0  0  0  0  0  0  0  0  0  0
   10.4838  -17.1836   26.1652 O   0  0  0  0  0  0  0  0  0  0  0  0
  2  1  1  1
  2  3  1  0
  4  2  1  0
  4  5  1  6
  6  4  1  0
  7  6  2  0
  8  9  1  0
  9 10  1  0
 11 10  1  0
 12 11  1  1
 12 13  1  0
 13  6  1  0
 14 12  1  0
 14 15  2  0
 16 17  1  0
 17 19  1  0
 18 17  2  0
 20 19  1  1
 20 21  1  0
 21 14  1  0
 22 20  1  0
 23 22  1  0
 24 22  2  0
M  END
$$$$
