TMN.pdb
     RDKit          3D

 24 23  0  0  1  0  0  0  0  0999 V2000
    7.7932  -18.1397   19.3991 C   0  0  0  0  0  0  0  0  0  0  0  0
    8.2884  -17.5478   20.6942 C   0  0  1  0  0  0  0  0  0  0  0  0
    9.3014  -18.2938   21.2358 O   0  0  0  0  0  0  0  0  0  0  0  0
    8.6811  -16.1001   20.5470 C   0  0  2  0  0  0  0  0  0  0  0  0
    9.8182  -15.9847   19.6422 N   0  0  0  0  0  0  0  0  0  0  0  0
    9.1247  -15.4947   21.8293 C   0  0  0  0  0  0  0  0  0  0  0  0
   10.3324  -15.4036   22.1784 O   0  0  0  0  0  0  0  0  0  0  0  0
    5.1152  -12.2735   27.3403 C   0  0  0  0  0  0  0  0  0  0  0  0
    6.6735  -11.7534   26.7143 S   0  0  0  0  0  0  0  0  0  0  0  0
    7.7870  -12.9261   26.0334 C   0  0  0  0  0  0  0  0  0  0  0  0
    7.6688  -13.4189   24.6717 C   0  0  0  0  0  0  0  0  0  0  0  0
    8.5421  -14.4068   24.0357 C   0  0  2  0  0  0  0  0  0  0  0  0
    8.1765  -14.9636   22.7704 N   0  0  0  0  0  0  0  0  0  0  0  0
    9.0641  -15.4467   24.9736 C   0  0  0  0  0  0  0  0  0  0  0  0
    8.3462  -16.4470   25.2915 O   0  0  0  0  0  0  0  0  0  0  0  0
   13.6995  -15.5427   24.4124 N   0  0  0  0  0  0  0  0  0  0  0  0
   12.9320  -16.6167   24.9665 C   0  0  0  0  0  0  0  0  0  0  0  0
   12.7687  -17.6173   24.2544 O   0  0  0  0  0  0  0  0  0  0  0  0
   12.3986  -16.4534   26.3296 C   0  0  0  0  0  0  0  0  0  0  0  0
   10.8895  -16.4645   26.4189 C   0  0  2  0  0  0  0  0  0  0  0  0
   10.3474  -15.3961   25.5543 N   0  0  0  0  0  0  0  0  0  0  0  0
   10.4856  -16.0901   27.7817 C   0  0  0  0  0  0  0  0  0  0  0  0
    9.6769  -14.9983   27.9929 O   0  0  0  0  0  0  0  0  0  0  0  0
   10.8627  -16.7466   28.7663 O   0  0  0  0  0  0  0  0  0  0  0  0
  2  1  1  6
  2  3  1  0
  4  2  1  0
  4  5  1  6
  6  4  1  0
  7  6  2  0
  8  9  1  0
  9 10  1  0
 11 10  1  0
 12 11  1  1
 12 13  1  0
 13  6  1  0
 14 12  1  0
 14 15  2  0
 16 17  1  0
 17 19  1  0
 18 17  2  0
 20 19  1  1
 20 21  1  0
 21 14  1  0
 22 20  1  0
 23 22  1  0
 24 22  2  0
M  END
$$$$
