TMN.pdb
     RDKit          3D

 24 23  0  0  1  0  0  0  0  0999 V2000
    6.8199  -14.7096   17.6400 C   0  0  0  0  0  0  0  0  0  0  0  0
    7.3220  -14.8008   19.0587 C   0  0  1  0  0  0  0  0  0  0  0  0
    8.4676  -15.5469   19.1419 O   0  0  0  0  0  0  0  0  0  0  0  0
    7.4946  -13.4439   19.6916 C   0  0  2  0  0  0  0  0  0  0  0  0
    8.4546  -12.6585   18.9257 N   0  0  0  0  0  0  0  0  0  0  0  0
    8.0464  -13.5214   21.0690 C   0  0  0  0  0  0  0  0  0  0  0  0
    9.2708  -13.3930   21.3397 O   0  0  0  0  0  0  0  0  0  0  0  0
    6.8332  -12.0076   28.8388 C   0  0  0  0  0  0  0  0  0  0  0  0
    6.2293  -12.2868   27.2116 S   0  0  0  0  0  0  0  0  0  0  0  0
    7.2497  -13.0606   26.0122 C   0  0  0  0  0  0  0  0  0  0  0  0
    6.8955  -13.1205   24.6043 C   0  0  0  0  0  0  0  0  0  0  0  0
    7.6609  -13.7924   23.5526 C   0  0  2  0  0  0  0  0  0  0  0  0
    7.1927  -13.7531   22.2022 N   0  0  0  0  0  0  0  0  0  0  0  0
    8.1509  -15.1516   23.9346 C   0  0  0  0  0  0  0  0  0  0  0  0
    7.4221  -16.1764   23.7454 O   0  0  0  0  0  0  0  0  0  0  0  0
   10.6037  -17.4903   22.2987 N   0  0  0  0  0  0  0  0  0  0  0  0
   11.6941  -17.2054   23.1814 C   0  0  0  0  0  0  0  0  0  0  0  0
   12.8370  -17.2994   22.7123 O   0  0  0  0  0  0  0  0  0  0  0  0
   11.3788  -16.8253   24.5690 C   0  0  0  0  0  0  0  0  0  0  0  0
    9.9011  -16.7355   24.8752 C   0  0  2  0  0  0  0  0  0  0  0  0
    9.4144  -15.3886   24.5125 N   0  0  0  0  0  0  0  0  0  0  0  0
    9.7045  -16.8305   26.3287 C   0  0  0  0  0  0  0  0  0  0  0  0
    9.5534  -18.0568   26.9321 O   0  0  0  0  0  0  0  0  0  0  0  0
    9.6706  -15.8128   27.0400 O   0  0  0  0  0  0  0  0  0  0  0  0
  2  1  1  6
  2  3  1  0
  4  2  1  0
  4  5  1  6
  6  4  1  0
  7  6  2  0
  8  9  1  0
  9 10  1  0
 11 10  1  0
 12 11  1  1
 12 13  1  0
 13  6  1  0
 14 12  1  0
 14 15  2  0
 16 17  1  0
 17 19  1  0
 18 17  2  0
 20 19  1  1
 20 21  1  0
 21 14  1  0
 22 20  1  0
 23 22  1  0
 24 22  2  0
M  END
$$$$
