TMN.pdb
     RDKit          3D

 24 23  0  0  1  0  0  0  0  0999 V2000
    7.8604  -18.3699   21.7087 C   0  0  0  0  0  0  0  0  0  0  0  0
    8.5857  -17.7548   20.5388 C   0  0  1  0  0  0  0  0  0  0  0  0
    8.4775  -18.5288   19.4139 O   0  0  0  0  0  0  0  0  0  0  0  0
    8.1520  -16.3346   20.2808 C   0  0  2  0  0  0  0  0  0  0  0  0
    8.7840  -15.8368   19.0652 N   0  0  0  0  0  0  0  0  0  0  0  0
    8.5697  -15.4040   21.3611 C   0  0  0  0  0  0  0  0  0  0  0  0
    9.7211  -14.8973   21.4408 O   0  0  0  0  0  0  0  0  0  0  0  0
    7.2371  -12.1336   28.1627 C   0  0  0  0  0  0  0  0  0  0  0  0
    6.4314  -12.6635   26.6928 S   0  0  0  0  0  0  0  0  0  0  0  0
    7.1365  -12.3135   25.1247 C   0  0  0  0  0  0  0  0  0  0  0  0
    6.9819  -13.1976   23.9820 C   0  0  0  0  0  0  0  0  0  0  0  0
    7.9994  -14.1094   23.4562 C   0  0  2  0  0  0  0  0  0  0  0  0
    7.6601  -15.0174   22.4051 N   0  0  0  0  0  0  0  0  0  0  0  0
    8.8307  -14.7630   24.5123 C   0  0  0  0  0  0  0  0  0  0  0  0
    9.3004  -14.0807   25.4772 O   0  0  0  0  0  0  0  0  0  0  0  0
   10.1001  -18.4811   28.2928 N   0  0  0  0  0  0  0  0  0  0  0  0
   10.0398  -18.9013   26.9256 C   0  0  0  0  0  0  0  0  0  0  0  0
   10.6481  -19.9389   26.6287 O   0  0  0  0  0  0  0  0  0  0  0  0
    9.2659  -18.0761   25.9825 C   0  0  0  0  0  0  0  0  0  0  0  0
    9.9407  -16.7853   25.5775 C   0  0  2  0  0  0  0  0  0  0  0  0
    9.1440  -16.1372   24.5155 N   0  0  0  0  0  0  0  0  0  0  0  0
   11.2318  -17.0950   24.9466 C   0  0  0  0  0  0  0  0  0  0  0  0
   12.3681  -17.2186   25.7109 O   0  0  0  0  0  0  0  0  0  0  0  0
   11.3251  -17.2508   23.7180 O   0  0  0  0  0  0  0  0  0  0  0  0
  2  1  1  1
  2  3  1  0
  4  2  1  0
  4  5  1  6
  6  4  1  0
  7  6  2  0
  8  9  1  0
  9 10  1  0
 11 10  1  0
 12 11  1  1
 12 13  1  0
 13  6  1  0
 14 12  1  0
 14 15  2  0
 16 17  1  0
 17 19  1  0
 18 17  2  0
 20 19  1  6
 20 21  1  0
 21 14  1  0
 22 20  1  0
 23 22  1  0
 24 22  2  0
M  END
$$$$
