TMN.pdb
     RDKit          3D

 24 23  0  0  1  0  0  0  0  0999 V2000
    7.0677  -14.4851   17.5022 C   0  0  0  0  0  0  0  0  0  0  0  0
    7.5051  -14.6390   18.9368 C   0  0  1  0  0  0  0  0  0  0  0  0
    8.6178  -15.4305   19.0435 O   0  0  0  0  0  0  0  0  0  0  0  0
    7.7003  -13.3097   19.6199 C   0  0  2  0  0  0  0  0  0  0  0  0
    8.7094  -12.5321   18.9114 N   0  0  0  0  0  0  0  0  0  0  0  0
    8.2041  -13.4500   21.0106 C   0  0  0  0  0  0  0  0  0  0  0  0
    9.4262  -13.4174   21.3179 O   0  0  0  0  0  0  0  0  0  0  0  0
    6.4898  -10.7864   27.5075 C   0  0  0  0  0  0  0  0  0  0  0  0
    6.2498  -12.4992   27.1920 S   0  0  0  0  0  0  0  0  0  0  0  0
    7.2124  -13.3153   25.9730 C   0  0  0  0  0  0  0  0  0  0  0  0
    6.9415  -13.1934   24.5507 C   0  0  0  0  0  0  0  0  0  0  0  0
    7.7307  -13.7883   23.4707 C   0  0  2  0  0  0  0  0  0  0  0  0
    7.3027  -13.6354   22.1150 N   0  0  0  0  0  0  0  0  0  0  0  0
    8.1958  -15.1796   23.7560 C   0  0  0  0  0  0  0  0  0  0  0  0
    7.4525  -16.1758   23.4873 O   0  0  0  0  0  0  0  0  0  0  0  0
   13.3727  -18.4468   24.3044 N   0  0  0  0  0  0  0  0  0  0  0  0
   11.9724  -18.2807   24.5514 C   0  0  0  0  0  0  0  0  0  0  0  0
   11.3682  -19.2476   25.0363 O   0  0  0  0  0  0  0  0  0  0  0  0
   11.3600  -16.9845   24.2136 C   0  0  0  0  0  0  0  0  0  0  0  0
    9.9059  -16.8556   24.6066 C   0  0  2  0  0  0  0  0  0  0  0  0
    9.4504  -15.4788   24.3245 N   0  0  0  0  0  0  0  0  0  0  0  0
    9.7868  -17.0026   26.0642 C   0  0  0  0  0  0  0  0  0  0  0  0
    9.5995  -18.2438   26.6257 O   0  0  0  0  0  0  0  0  0  0  0  0
    9.8521  -16.0166   26.8166 O   0  0  0  0  0  0  0  0  0  0  0  0
  2  1  1  6
  2  3  1  0
  4  2  1  0
  4  5  1  6
  6  4  1  0
  7  6  2  0
  8  9  1  0
  9 10  1  0
 11 10  1  0
 12 11  1  1
 12 13  1  0
 13  6  1  0
 14 12  1  0
 14 15  2  0
 16 17  1  0
 17 19  1  0
 18 17  2  0
 20 19  1  1
 20 21  1  0
 21 14  1  0
 22 20  1  0
 23 22  1  0
 24 22  2  0
M  END
$$$$
