TMN.pdb
     RDKit          3D

 24 23  0  0  1  0  0  0  0  0999 V2000
    7.1800  -17.9866   19.1047 C   0  0  0  0  0  0  0  0  0  0  0  0
    7.6451  -17.5051   20.4556 C   0  0  1  0  0  0  0  0  0  0  0  0
    8.6838  -18.2608   20.9310 O   0  0  0  0  0  0  0  0  0  0  0  0
    7.9815  -16.0359   20.4532 C   0  0  2  0  0  0  0  0  0  0  0  0
    9.1152  -15.7887   19.5707 N   0  0  0  0  0  0  0  0  0  0  0  0
    8.3986  -15.5426   21.7912 C   0  0  0  0  0  0  0  0  0  0  0  0
    9.5924  -15.5439   22.1957 O   0  0  0  0  0  0  0  0  0  0  0  0
    7.5176  -10.7413   26.6967 C   0  0  0  0  0  0  0  0  0  0  0  0
    6.4622  -12.1263   26.9384 S   0  0  0  0  0  0  0  0  0  0  0  0
    6.9257  -13.7058   26.3308 C   0  0  0  0  0  0  0  0  0  0  0  0
    6.7421  -14.0955   24.9432 C   0  0  0  0  0  0  0  0  0  0  0  0
    7.7223  -14.7927   24.1087 C   0  0  2  0  0  0  0  0  0  0  0  0
    7.4389  -15.0212   22.7260 N   0  0  0  0  0  0  0  0  0  0  0  0
    8.3278  -15.9934   24.7607 C   0  0  0  0  0  0  0  0  0  0  0  0
    8.0697  -17.1610   24.3280 O   0  0  0  0  0  0  0  0  0  0  0  0
    6.6674  -18.7730   26.3750 N   0  0  0  0  0  0  0  0  0  0  0  0
    7.9552  -18.6035   26.9770 C   0  0  0  0  0  0  0  0  0  0  0  0
    8.0146  -18.6885   28.2116 O   0  0  0  0  0  0  0  0  0  0  0  0
    9.1031  -18.3433   26.0916 C   0  0  0  0  0  0  0  0  0  0  0  0
    9.8897  -17.0982   26.4329 C   0  0  2  0  0  0  0  0  0  0  0  0
    9.2001  -15.9214   25.8654 N   0  0  0  0  0  0  0  0  0  0  0  0
   11.1874  -17.1453   25.7440 C   0  0  0  0  0  0  0  0  0  0  0  0
   12.0972  -18.1328   26.0401 O   0  0  0  0  0  0  0  0  0  0  0  0
   11.4894  -16.3005   24.8852 O   0  0  0  0  0  0  0  0  0  0  0  0
  2  1  1  6
  2  3  1  0
  4  2  1  0
  4  5  1  6
  6  4  1  0
  7  6  2  0
  8  9  1  0
  9 10  1  0
 11 10  1  0
 12 11  1  1
 12 13  1  0
 13  6  1  0
 14 12  1  0
 14 15  2  0
 16 17  1  0
 17 19  1  0
 18 17  2  0
 20 19  1  6
 20 21  1  0
 21 14  1  0
 22 20  1  0
 23 22  1  0
 24 22  2  0
M  END
$$$$
