FCV.pdb
     RDKit          3D

 25 25  0  0  1  0  0  0  0  0999 V2000
    6.7012  -16.2304   25.1245 N   0  0  0  0  0  0  0  0  0  0  0  0
    7.4886  -15.5546   24.0752 C   0  0  1  0  0  0  0  0  0  0  0  0
    6.8073  -14.2591   23.7329 C   0  0  0  0  0  0  0  0  0  0  0  0
    6.7685  -13.3765   24.9117 C   0  0  0  0  0  0  0  0  0  0  0  0
    7.7715  -12.4334   25.0700 C   0  0  0  0  0  0  0  0  0  0  0  0
    7.7788  -11.5738   26.1504 C   0  0  0  0  0  0  0  0  0  0  0  0
    6.7570  -11.6926   27.0548 C   0  0  0  0  0  0  0  0  0  0  0  0
    5.7379  -12.6198   26.9332 C   0  0  0  0  0  0  0  0  0  0  0  0
    5.7504  -13.4774   25.8348 C   0  0  0  0  0  0  0  0  0  0  0  0
    8.8929  -15.4004   24.5160 C   0  0  0  0  0  0  0  0  0  0  0  0
    9.7984  -14.9283   23.7863 O   0  0  0  0  0  0  0  0  0  0  0  0
    9.2978  -15.7943   25.8360 N   0  0  0  0  0  0  0  0  0  0  0  0
   10.6789  -15.9541   26.2005 C   0  0  1  0  0  0  0  0  0  0  0  0
   11.0427  -14.9244   27.2530 C   0  0  0  0  0  0  0  0  0  0  0  0
    9.9756  -15.0219   28.6979 S   0  0  0  0  0  0  0  0  0  0  0  0
   10.9733  -17.3336   26.6646 C   0  0  0  0  0  0  0  0  0  0  0  0
   10.0518  -18.0486   27.1877 O   0  0  0  0  0  0  0  0  0  0  0  0
   14.0767  -21.1185   26.6903 C   0  0  0  0  0  0  0  0  0  0  0  0
   13.8521  -19.7038   26.2431 C   0  0  1  0  0  0  0  0  0  0  0  0
   13.7070  -19.6907   24.7272 C   0  0  0  0  0  0  0  0  0  0  0  0
   12.5587  -19.1998   26.8963 C   0  0  2  0  0  0  0  0  0  0  0  0
   12.2960  -17.8336   26.5128 N   0  0  0  0  0  0  0  0  0  0  0  0
   12.7849  -19.2636   28.3549 C   0  0  0  0  0  0  0  0  0  0  0  0
   12.3780  -20.3931   29.0382 O   0  0  0  0  0  0  0  0  0  0  0  0
   13.3285  -18.3480   29.0199 O   0  0  0  0  0  0  0  0  0  0  0  0
  2 10  1  0
  2  1  1  1
  3  2  1  0
  4  3  1  0
  5  4  2  0
  6  5  1  0
  7  8  1  0
  7  6  2  0
  8  9  2  0
  9  4  1  0
 10 11  2  0
 12 10  1  0
 12 13  1  0
 13 14  1  1
 14 15  1  0
 16 17  2  0
 16 13  1  0
 19 18  1  1
 19 20  1  0
 19 21  1  0
 21 22  1  6
 22 16  1  0
 23 24  1  0
 23 21  1  0
 25 23  2  0
M  END
$$$$
