FCV.pdb
     RDKit          3D

 25 25  0  0  1  0  0  0  0  0999 V2000
    9.4555  -15.3622   21.8650 N   0  0  0  0  0  0  0  0  0  0  0  0
    9.0032  -14.6933   23.1001 C   0  0  1  0  0  0  0  0  0  0  0  0
    7.5000  -14.6897   23.1131 C   0  0  0  0  0  0  0  0  0  0  0  0
    7.0020  -13.9025   24.2543 C   0  0  0  0  0  0  0  0  0  0  0  0
    6.4362  -14.5716   25.3278 C   0  0  0  0  0  0  0  0  0  0  0  0
    5.9628  -13.8846   26.4278 C   0  0  0  0  0  0  0  0  0  0  0  0
    6.0757  -12.5197   26.4126 C   0  0  0  0  0  0  0  0  0  0  0  0
    6.6335  -11.8146   25.3615 C   0  0  0  0  0  0  0  0  0  0  0  0
    7.1049  -12.5284   24.2614 C   0  0  0  0  0  0  0  0  0  0  0  0
    9.6158  -15.3420   24.2809 C   0  0  0  0  0  0  0  0  0  0  0  0
   10.0406  -16.5229   24.2779 O   0  0  0  0  0  0  0  0  0  0  0  0
    9.7574  -14.6316   25.5206 N   0  0  0  0  0  0  0  0  0  0  0  0
   10.5064  -15.1599   26.6277 C   0  0  1  0  0  0  0  0  0  0  0  0
   10.3032  -14.2721   27.8405 C   0  0  0  0  0  0  0  0  0  0  0  0
   10.9760  -15.0035   29.3398 S   0  0  0  0  0  0  0  0  0  0  0  0
   10.1439  -16.5702   26.9191 C   0  0  0  0  0  0  0  0  0  0  0  0
    8.9162  -16.9197   26.9876 O   0  0  0  0  0  0  0  0  0  0  0  0
   11.4242  -21.2391   27.2628 C   0  0  0  0  0  0  0  0  0  0  0  0
   11.7102  -19.8711   26.7166 C   0  0  1  0  0  0  0  0  0  0  0  0
   11.3576  -19.8558   25.2353 C   0  0  0  0  0  0  0  0  0  0  0  0
   10.8325  -18.8655   27.4731 C   0  0  2  0  0  0  0  0  0  0  0  0
   11.1897  -17.5131   27.1182 N   0  0  0  0  0  0  0  0  0  0  0  0
   11.1054  -19.0829   28.9088 C   0  0  0  0  0  0  0  0  0  0  0  0
   12.2055  -18.4670   29.4732 O   0  0  0  0  0  0  0  0  0  0  0  0
   10.3944  -19.7985   29.6561 O   0  0  0  0  0  0  0  0  0  0  0  0
  2 10  1  0
  2  1  1  6
  3  2  1  0
  4  3  1  0
  5  4  2  0
  6  5  1  0
  7  8  1  0
  7  6  2  0
  8  9  2  0
  9  4  1  0
 10 11  2  0
 12 10  1  0
 12 13  1  0
 13 14  1  1
 14 15  1  0
 16 17  2  0
 16 13  1  0
 19 18  1  1
 19 20  1  0
 19 21  1  0
 21 22  1  6
 22 16  1  0
 23 24  1  0
 23 21  1  0
 25 23  2  0
M  END
$$$$
