FCV.pdb
     RDKit          3D

 25 25  0  0  1  0  0  0  0  0999 V2000
    6.2487  -17.2903   21.4324 N   0  0  0  0  0  0  0  0  0  0  0  0
    6.9340  -16.2926   22.2765 C   0  0  1  0  0  0  0  0  0  0  0  0
    5.8957  -15.3822   22.8707 C   0  0  0  0  0  0  0  0  0  0  0  0
    6.5383  -14.3518   23.7045 C   0  0  0  0  0  0  0  0  0  0  0  0
    7.2532  -13.3417   23.0809 C   0  0  0  0  0  0  0  0  0  0  0  0
    7.8668  -12.3448   23.8130 C   0  0  0  0  0  0  0  0  0  0  0  0
    7.7393  -12.3968   25.1757 C   0  0  0  0  0  0  0  0  0  0  0  0
    7.0350  -13.3872   25.8362 C   0  0  0  0  0  0  0  0  0  0  0  0
    6.4236  -14.3834   25.0774 C   0  0  0  0  0  0  0  0  0  0  0  0
    7.7836  -16.9746   23.2781 C   0  0  0  0  0  0  0  0  0  0  0  0
    7.3625  -17.8769   24.0420 O   0  0  0  0  0  0  0  0  0  0  0  0
    9.1686  -16.6269   23.4280 N   0  0  0  0  0  0  0  0  0  0  0  0
   10.0319  -17.2955   24.3625 C   0  0  1  0  0  0  0  0  0  0  0  0
   11.2007  -17.9093   23.6157 C   0  0  0  0  0  0  0  0  0  0  0  0
   12.3453  -18.7525   24.7177 S   0  0  0  0  0  0  0  0  0  0  0  0
   10.4935  -16.3840   25.4402 C   0  0  0  0  0  0  0  0  0  0  0  0
   11.1219  -15.3091   25.1509 O   0  0  0  0  0  0  0  0  0  0  0  0
   10.1503  -14.2560   29.5884 C   0  0  0  0  0  0  0  0  0  0  0  0
    9.5879  -15.0403   28.4394 C   0  0  1  0  0  0  0  0  0  0  0  0
    9.0544  -14.0640   27.3996 C   0  0  0  0  0  0  0  0  0  0  0  0
   10.7232  -15.8776   27.8362 C   0  0  2  0  0  0  0  0  0  0  0  0
   10.2200  -16.7358   26.7908 N   0  0  0  0  0  0  0  0  0  0  0  0
   11.2505  -16.7073   28.9390 C   0  0  0  0  0  0  0  0  0  0  0  0
   12.1743  -16.1505   29.8019 O   0  0  0  0  0  0  0  0  0  0  0  0
   10.9094  -17.8980   29.1442 O   0  0  0  0  0  0  0  0  0  0  0  0
  2 10  1  0
  2  1  1  1
  3  2  1  0
  4  3  1  0
  5  4  2  0
  6  5  1  0
  7  8  1  0
  7  6  2  0
  8  9  2  0
  9  4  1  0
 10 11  2  0
 12 10  1  0
 12 13  1  0
 13 14  1  6
 14 15  1  0
 16 17  2  0
 16 13  1  0
 19 18  1  1
 19 20  1  0
 19 21  1  0
 21 22  1  6
 22 16  1  0
 23 24  1  0
 23 21  1  0
 25 23  2  0
M  END
$$$$
