FCV.pdb
     RDKit          3D

 25 25  0  0  1  0  0  0  0  0999 V2000
    5.9434  -18.5326   23.8303 N   0  0  0  0  0  0  0  0  0  0  0  0
    6.5432  -17.2063   24.0725 C   0  0  1  0  0  0  0  0  0  0  0  0
    5.8705  -16.5941   25.2694 C   0  0  0  0  0  0  0  0  0  0  0  0
    6.2538  -15.1778   25.4007 C   0  0  0  0  0  0  0  0  0  0  0  0
    7.1379  -14.8182   26.4054 C   0  0  0  0  0  0  0  0  0  0  0  0
    7.5391  -13.5072   26.5675 C   0  0  0  0  0  0  0  0  0  0  0  0
    7.0283  -12.5814   25.6969 C   0  0  0  0  0  0  0  0  0  0  0  0
    6.1444  -12.8992   24.6815 C   0  0  0  0  0  0  0  0  0  0  0  0
    5.7529  -14.2287   24.5363 C   0  0  0  0  0  0  0  0  0  0  0  0
    8.0121  -17.3310   24.2035 C   0  0  0  0  0  0  0  0  0  0  0  0
    8.5740  -18.2719   24.8151 O   0  0  0  0  0  0  0  0  0  0  0  0
    8.8888  -16.3545   23.6209 N   0  0  0  0  0  0  0  0  0  0  0  0
   10.3182  -16.5052   23.6257 C   0  0  1  0  0  0  0  0  0  0  0  0
   10.9064  -15.7503   22.4490 C   0  0  0  0  0  0  0  0  0  0  0  0
    9.9196  -14.3152   21.9992 S   0  0  0  0  0  0  0  0  0  0  0  0
   10.9175  -16.0628   24.9103 C   0  0  0  0  0  0  0  0  0  0  0  0
   11.5501  -14.9541   24.9790 O   0  0  0  0  0  0  0  0  0  0  0  0
   10.7513  -15.0068   29.2758 C   0  0  0  0  0  0  0  0  0  0  0  0
   10.2839  -15.3622   27.8948 C   0  0  1  0  0  0  0  0  0  0  0  0
   10.3119  -14.1063   27.0342 C   0  0  0  0  0  0  0  0  0  0  0  0
   11.2483  -16.4094   27.3228 C   0  0  2  0  0  0  0  0  0  0  0  0
   10.7703  -16.8981   26.0519 N   0  0  0  0  0  0  0  0  0  0  0  0
   11.2712  -17.5201   28.2967 C   0  0  0  0  0  0  0  0  0  0  0  0
   12.0043  -17.3665   29.4575 O   0  0  0  0  0  0  0  0  0  0  0  0
   10.6612  -18.6054   28.1355 O   0  0  0  0  0  0  0  0  0  0  0  0
  2 10  1  0
  2  1  1  1
  3  2  1  0
  4  3  1  0
  5  4  2  0
  6  5  1  0
  7  8  1  0
  7  6  2  0
  8  9  2  0
  9  4  1  0
 10 11  2  0
 12 10  1  0
 12 13  1  0
 13 14  1  6
 14 15  1  0
 16 17  2  0
 16 13  1  0
 19 18  1  1
 19 20  1  0
 19 21  1  0
 21 22  1  6
 22 16  1  0
 23 24  1  0
 23 21  1  0
 25 23  2  0
M  END
$$$$
