FCV.pdb
     RDKit          3D

 25 25  0  0  1  0  0  0  0  0999 V2000
    5.9113  -18.1319   23.5774 N   0  0  0  0  0  0  0  0  0  0  0  0
    6.5606  -16.8951   24.0531 C   0  0  1  0  0  0  0  0  0  0  0  0
    5.9451  -16.5141   25.3706 C   0  0  0  0  0  0  0  0  0  0  0  0
    6.3697  -15.1579   25.7584 C   0  0  0  0  0  0  0  0  0  0  0  0
    7.4300  -15.0192   26.6399 C   0  0  0  0  0  0  0  0  0  0  0  0
    7.8760  -13.7719   27.0291 C   0  0  0  0  0  0  0  0  0  0  0  0
    7.2288  -12.6826   26.5091 C   0  0  0  0  0  0  0  0  0  0  0  0
    6.1675  -12.7781   25.6273 C   0  0  0  0  0  0  0  0  0  0  0  0
    5.7338  -14.0470   25.2480 C   0  0  0  0  0  0  0  0  0  0  0  0
    8.0281  -17.0806   24.1033 C   0  0  0  0  0  0  0  0  0  0  0  0
    8.5785  -18.1237   24.5322 O   0  0  0  0  0  0  0  0  0  0  0  0
    8.9167  -16.0474   23.6510 N   0  0  0  0  0  0  0  0  0  0  0  0
   10.3412  -16.2299   23.5937 C   0  0  1  0  0  0  0  0  0  0  0  0
   10.9033  -15.4309   22.4335 C   0  0  0  0  0  0  0  0  0  0  0  0
   10.4261  -16.1164   20.8404 S   0  0  0  0  0  0  0  0  0  0  0  0
   10.9983  -15.8651   24.8744 C   0  0  0  0  0  0  0  0  0  0  0  0
   11.8589  -14.9205   24.9117 O   0  0  0  0  0  0  0  0  0  0  0  0
   10.9860  -14.4201   29.0707 C   0  0  0  0  0  0  0  0  0  0  0  0
   10.5802  -14.7513   27.6646 C   0  0  1  0  0  0  0  0  0  0  0  0
   11.1527  -13.6928   26.7315 C   0  0  0  0  0  0  0  0  0  0  0  0
   11.1628  -16.1268   27.3146 C   0  0  2  0  0  0  0  0  0  0  0  0
   10.6478  -16.5881   26.0479 N   0  0  0  0  0  0  0  0  0  0  0  0
   10.7205  -17.0434   28.3855 C   0  0  0  0  0  0  0  0  0  0  0  0
   11.3200  -16.9483   29.6264 O   0  0  0  0  0  0  0  0  0  0  0  0
    9.8258  -17.9117   28.2387 O   0  0  0  0  0  0  0  0  0  0  0  0
  2 10  1  0
  2  1  1  1
  3  2  1  0
  4  3  1  0
  5  4  2  0
  6  5  1  0
  7  8  1  0
  7  6  2  0
  8  9  2  0
  9  4  1  0
 10 11  2  0
 12 10  1  0
 12 13  1  0
 13 14  1  6
 14 15  1  0
 16 17  2  0
 16 13  1  0
 19 18  1  1
 19 20  1  0
 19 21  1  0
 21 22  1  6
 22 16  1  0
 23 24  1  0
 23 21  1  0
 25 23  2  0
M  END
$$$$
