FCV.pdb
     RDKit          3D

 25 25  0  0  1  0  0  0  0  0999 V2000
    7.6644  -21.3727   22.4413 N   0  0  0  0  0  0  0  0  0  0  0  0
    7.3394  -20.6052   23.6590 C   0  0  1  0  0  0  0  0  0  0  0  0
    7.8847  -21.3484   24.8465 C   0  0  0  0  0  0  0  0  0  0  0  0
    7.6390  -20.5851   26.0823 C   0  0  0  0  0  0  0  0  0  0  0  0
    8.6406  -19.7567   26.5629 C   0  0  0  0  0  0  0  0  0  0  0  0
    8.4605  -19.0109   27.7107 C   0  0  0  0  0  0  0  0  0  0  0  0
    7.2550  -19.1243   28.3510 C   0  0  0  0  0  0  0  0  0  0  0  0
    6.2304  -19.9391   27.9043 C   0  0  0  0  0  0  0  0  0  0  0  0
    6.4341  -20.6830   26.7436 C   0  0  0  0  0  0  0  0  0  0  0  0
    7.8403  -19.2183   23.5324 C   0  0  0  0  0  0  0  0  0  0  0  0
    9.0559  -18.9312   23.4095 O   0  0  0  0  0  0  0  0  0  0  0  0
    6.9346  -18.1043   23.5444 N   0  0  0  0  0  0  0  0  0  0  0  0
    7.3922  -16.7419   23.5281 C   0  0  1  0  0  0  0  0  0  0  0  0
    6.6775  -15.9855   22.4246 C   0  0  0  0  0  0  0  0  0  0  0  0
    7.1817  -14.2607   22.3449 S   0  0  0  0  0  0  0  0  0  0  0  0
    7.2115  -16.0811   24.8456 C   0  0  0  0  0  0  0  0  0  0  0  0
    6.0717  -16.0965   25.4242 O   0  0  0  0  0  0  0  0  0  0  0  0
    9.2189  -13.6910   28.6284 C   0  0  0  0  0  0  0  0  0  0  0  0
    9.4871  -14.4132   27.3407 C   0  0  1  0  0  0  0  0  0  0  0  0
   10.2481  -15.6950   27.6519 C   0  0  0  0  0  0  0  0  0  0  0  0
    8.1363  -14.7507   26.6963 C   0  0  2  0  0  0  0  0  0  0  0  0
    8.3304  -15.4363   25.4414 N   0  0  0  0  0  0  0  0  0  0  0  0
    7.4662  -13.4575   26.4487 C   0  0  0  0  0  0  0  0  0  0  0  0
    6.8173  -12.8375   27.4988 O   0  0  0  0  0  0  0  0  0  0  0  0
    7.4487  -12.8801   25.3341 O   0  0  0  0  0  0  0  0  0  0  0  0
  2 10  1  0
  2  1  1  6
  3  2  1  0
  4  3  1  0
  5  4  2  0
  6  5  1  0
  7  8  1  0
  7  6  2  0
  8  9  2  0
  9  4  1  0
 10 11  2  0
 12 10  1  0
 12 13  1  0
 13 14  1  6
 14 15  1  0
 16 17  2  0
 16 13  1  0
 19 18  1  1
 19 20  1  0
 19 21  1  0
 21 22  1  6
 22 16  1  0
 23 24  1  0
 23 21  1  0
 25 23  2  0
M  END
$$$$
