FCV.pdb
     RDKit          3D

 25 25  0  0  1  0  0  0  0  0999 V2000
    5.6932  -17.7875   24.2096 N   0  0  0  0  0  0  0  0  0  0  0  0
    6.4641  -16.5549   24.4625 C   0  0  1  0  0  0  0  0  0  0  0  0
    5.8762  -15.8671   25.6629 C   0  0  0  0  0  0  0  0  0  0  0  0
    6.2646  -14.4461   25.6773 C   0  0  0  0  0  0  0  0  0  0  0  0
    5.3281  -13.5044   26.0729 C   0  0  0  0  0  0  0  0  0  0  0  0
    5.6413  -12.1604   26.1150 C   0  0  0  0  0  0  0  0  0  0  0  0
    6.9114  -11.7995   25.7506 C   0  0  0  0  0  0  0  0  0  0  0  0
    7.8746  -12.7077   25.3501 C   0  0  0  0  0  0  0  0  0  0  0  0
    7.5366  -14.0592   25.3151 C   0  0  0  0  0  0  0  0  0  0  0  0
    7.9029  -16.8755   24.5946 C   0  0  0  0  0  0  0  0  0  0  0  0
    8.3545  -17.6936   25.4323 O   0  0  0  0  0  0  0  0  0  0  0  0
    8.8778  -16.2486   23.7471 N   0  0  0  0  0  0  0  0  0  0  0  0
   10.2837  -16.5256   23.8578 C   0  0  1  0  0  0  0  0  0  0  0  0
   10.9815  -16.0983   22.5807 C   0  0  0  0  0  0  0  0  0  0  0  0
   12.6982  -16.6332   22.5314 S   0  0  0  0  0  0  0  0  0  0  0  0
   10.8844  -15.8748   25.0497 C   0  0  0  0  0  0  0  0  0  0  0  0
   11.2717  -14.6579   24.9938 O   0  0  0  0  0  0  0  0  0  0  0  0
   10.5484  -13.8946   27.0052 C   0  0  0  0  0  0  0  0  0  0  0  0
   10.8160  -14.9645   28.0227 C   0  0  1  0  0  0  0  0  0  0  0  0
    9.4871  -15.5763   28.4454 C   0  0  0  0  0  0  0  0  0  0  0  0
   11.6981  -16.0338   27.3654 C   0  0  2  0  0  0  0  0  0  0  0  0
   11.0162  -16.6348   26.2446 N   0  0  0  0  0  0  0  0  0  0  0  0
   11.9369  -17.0606   28.4005 C   0  0  0  0  0  0  0  0  0  0  0  0
   11.4549  -18.3377   28.1884 O   0  0  0  0  0  0  0  0  0  0  0  0
   12.5559  -16.8448   29.4712 O   0  0  0  0  0  0  0  0  0  0  0  0
  2 10  1  0
  2  1  1  1
  3  2  1  0
  4  3  1  0
  5  4  2  0
  6  5  1  0
  7  8  1  0
  7  6  2  0
  8  9  2  0
  9  4  1  0
 10 11  2  0
 12 10  1  0
 12 13  1  0
 13 14  1  6
 14 15  1  0
 16 17  2  0
 16 13  1  0
 19 18  1  6
 19 20  1  0
 19 21  1  0
 21 22  1  6
 22 16  1  0
 23 24  1  0
 23 21  1  0
 25 23  2  0
M  END
$$$$
