FCV.pdb
     RDKit          3D

 25 25  0  0  1  0  0  0  0  0999 V2000
    6.8359  -17.7965   19.3214 N   0  0  0  0  0  0  0  0  0  0  0  0
    7.7987  -17.5749   20.4175 C   0  0  1  0  0  0  0  0  0  0  0  0
    8.8330  -16.5907   19.9471 C   0  0  0  0  0  0  0  0  0  0  0  0
    8.2505  -15.2403   19.8623 C   0  0  0  0  0  0  0  0  0  0  0  0
    8.3822  -14.3895   20.9481 C   0  0  0  0  0  0  0  0  0  0  0  0
    7.8647  -13.1099   20.9191 C   0  0  0  0  0  0  0  0  0  0  0  0
    7.2185  -12.7192   19.7764 C   0  0  0  0  0  0  0  0  0  0  0  0
    7.0658  -13.5374   18.6717 C   0  0  0  0  0  0  0  0  0  0  0  0
    7.5961  -14.8251   18.7229 C   0  0  0  0  0  0  0  0  0  0  0  0
    7.0827  -17.1586   21.6441 C   0  0  0  0  0  0  0  0  0  0  0  0
    5.9408  -16.6381   21.6347 O   0  0  0  0  0  0  0  0  0  0  0  0
    7.6768  -17.3353   22.9392 N   0  0  0  0  0  0  0  0  0  0  0  0
    7.0314  -16.8981   24.1467 C   0  0  1  0  0  0  0  0  0  0  0  0
    6.7303  -18.1017   25.0191 C   0  0  0  0  0  0  0  0  0  0  0  0
    8.2100  -18.7651   25.7977 S   0  0  0  0  0  0  0  0  0  0  0  0
    7.8421  -15.8885   24.8738 C   0  0  0  0  0  0  0  0  0  0  0  0
    9.1051  -15.8204   24.6885 O   0  0  0  0  0  0  0  0  0  0  0  0
    7.9206  -11.7778   27.5107 C   0  0  0  0  0  0  0  0  0  0  0  0
    7.0534  -12.8270   26.8792 C   0  0  1  0  0  0  0  0  0  0  0  0
    6.3388  -12.2117   25.6836 C   0  0  0  0  0  0  0  0  0  0  0  0
    7.9599  -13.9736   26.4130 C   0  0  2  0  0  0  0  0  0  0  0  0
    7.1818  -15.0073   25.7738 N   0  0  0  0  0  0  0  0  0  0  0  0
    8.5901  -14.5192   27.6328 C   0  0  0  0  0  0  0  0  0  0  0  0
    9.5987  -13.7939   28.2368 O   0  0  0  0  0  0  0  0  0  0  0  0
    8.2645  -15.6107   28.1608 O   0  0  0  0  0  0  0  0  0  0  0  0
  2 10  1  0
  2  1  1  6
  3  2  1  0
  4  3  1  0
  5  4  2  0
  6  5  1  0
  7  8  1  0
  7  6  2  0
  8  9  2  0
  9  4  1  0
 10 11  2  0
 12 10  1  0
 12 13  1  0
 13 14  1  1
 14 15  1  0
 16 17  2  0
 16 13  1  0
 19 18  1  6
 19 20  1  0
 19 21  1  0
 21 22  1  1
 22 16  1  0
 23 24  1  0
 23 21  1  0
 25 23  2  0
M  END
$$$$
