FCV.pdb
     RDKit          3D

 25 25  0  0  1  0  0  0  0  0999 V2000
    5.8091  -17.9992   23.6736 N   0  0  0  0  0  0  0  0  0  0  0  0
    6.5051  -16.7658   24.0882 C   0  0  1  0  0  0  0  0  0  0  0  0
    5.7771  -16.1854   25.2683 C   0  0  0  0  0  0  0  0  0  0  0  0
    6.3566  -14.8813   25.6339 C   0  0  0  0  0  0  0  0  0  0  0  0
    6.0538  -13.7766   24.8541 C   0  0  0  0  0  0  0  0  0  0  0  0
    6.5611  -12.5286   25.1568 C   0  0  0  0  0  0  0  0  0  0  0  0
    7.3726  -12.4298   26.2557 C   0  0  0  0  0  0  0  0  0  0  0  0
    7.6988  -13.5073   27.0593 C   0  0  0  0  0  0  0  0  0  0  0  0
    7.1756  -14.7576   26.7352 C   0  0  0  0  0  0  0  0  0  0  0  0
    7.9349  -17.0518   24.3416 C   0  0  0  0  0  0  0  0  0  0  0  0
    8.3323  -17.9784   25.0891 O   0  0  0  0  0  0  0  0  0  0  0  0
    8.9641  -16.2612   23.7275 N   0  0  0  0  0  0  0  0  0  0  0  0
   10.3617  -16.5147   23.9471 C   0  0  1  0  0  0  0  0  0  0  0  0
   11.1385  -16.1651   22.6922 C   0  0  0  0  0  0  0  0  0  0  0  0
   12.8564  -16.6899   22.7868 S   0  0  0  0  0  0  0  0  0  0  0  0
   10.8789  -15.7797   25.1293 C   0  0  0  0  0  0  0  0  0  0  0  0
   11.5177  -14.6828   24.9783 O   0  0  0  0  0  0  0  0  0  0  0  0
   10.5152  -13.6196   27.5621 C   0  0  0  0  0  0  0  0  0  0  0  0
   10.7308  -14.8582   28.3813 C   0  0  1  0  0  0  0  0  0  0  0  0
    9.3727  -15.4181   28.7823 C   0  0  0  0  0  0  0  0  0  0  0  0
   11.4802  -15.8767   27.5124 C   0  0  2  0  0  0  0  0  0  0  0  0
   10.6466  -16.3239   26.4226 N   0  0  0  0  0  0  0  0  0  0  0  0
   11.7869  -17.0210   28.3952 C   0  0  0  0  0  0  0  0  0  0  0  0
   12.6752  -16.8332   29.4363 O   0  0  0  0  0  0  0  0  0  0  0  0
   11.2870  -18.1644   28.2584 O   0  0  0  0  0  0  0  0  0  0  0  0
  2 10  1  0
  2  1  1  1
  3  2  1  0
  4  3  1  0
  5  4  2  0
  6  5  1  0
  7  8  1  0
  7  6  2  0
  8  9  2  0
  9  4  1  0
 10 11  2  0
 12 10  1  0
 12 13  1  0
 13 14  1  6
 14 15  1  0
 16 17  2  0
 16 13  1  0
 19 18  1  6
 19 20  1  0
 19 21  1  0
 21 22  1  6
 22 16  1  0
 23 24  1  0
 23 21  1  0
 25 23  2  0
M  END
$$$$
