FCV.pdb
     RDKit          3D

 25 25  0  0  1  0  0  0  0  0999 V2000
    7.0674  -17.9270   19.8085 N   0  0  0  0  0  0  0  0  0  0  0  0
    7.5112  -16.7432   20.5696 C   0  0  1  0  0  0  0  0  0  0  0  0
    6.4901  -15.6547   20.3894 C   0  0  0  0  0  0  0  0  0  0  0  0
    6.9215  -14.4307   21.0863 C   0  0  0  0  0  0  0  0  0  0  0  0
    7.5769  -13.4482   20.3615 C   0  0  0  0  0  0  0  0  0  0  0  0
    7.9939  -12.2768   20.9618 C   0  0  0  0  0  0  0  0  0  0  0  0
    7.7332  -12.1282   22.2981 C   0  0  0  0  0  0  0  0  0  0  0  0
    7.0822  -13.0842   23.0567 C   0  0  0  0  0  0  0  0  0  0  0  0
    6.6701  -14.2588   22.4303 C   0  0  0  0  0  0  0  0  0  0  0  0
    7.7579  -17.1121   21.9815 C   0  0  0  0  0  0  0  0  0  0  0  0
    6.9453  -17.7696   22.6761 O   0  0  0  0  0  0  0  0  0  0  0  0
    8.9722  -16.7245   22.6424 N   0  0  0  0  0  0  0  0  0  0  0  0
    9.2583  -17.0927   24.0019 C   0  0  1  0  0  0  0  0  0  0  0  0
   10.1000  -18.3544   24.0138 C   0  0  0  0  0  0  0  0  0  0  0  0
   10.6860  -18.7661   25.6638 S   0  0  0  0  0  0  0  0  0  0  0  0
    9.9191  -15.9911   24.7468 C   0  0  0  0  0  0  0  0  0  0  0  0
   10.9985  -15.4691   24.3034 O   0  0  0  0  0  0  0  0  0  0  0  0
    8.7698  -12.6625   25.9921 C   0  0  0  0  0  0  0  0  0  0  0  0
    9.1567  -13.4430   27.2139 C   0  0  1  0  0  0  0  0  0  0  0  0
    7.8919  -13.9917   27.8606 C   0  0  0  0  0  0  0  0  0  0  0  0
   10.0612  -14.6001   26.7704 C   0  0  2  0  0  0  0  0  0  0  0  0
    9.3244  -15.5362   25.9560 N   0  0  0  0  0  0  0  0  0  0  0  0
   10.5035  -15.2721   28.0095 C   0  0  0  0  0  0  0  0  0  0  0  0
   11.3909  -14.6134   28.8382 O   0  0  0  0  0  0  0  0  0  0  0  0
   10.1207  -16.4149   28.3612 O   0  0  0  0  0  0  0  0  0  0  0  0
  2 10  1  0
  2  1  1  6
  3  2  1  0
  4  3  1  0
  5  4  2  0
  6  5  1  0
  7  8  1  0
  7  6  2  0
  8  9  2  0
  9  4  1  0
 10 11  2  0
 12 10  1  0
 12 13  1  0
 13 14  1  6
 14 15  1  0
 16 17  2  0
 16 13  1  0
 19 18  1  6
 19 20  1  0
 19 21  1  0
 21 22  1  6
 22 16  1  0
 23 24  1  0
 23 21  1  0
 25 23  2  0
M  END
$$$$
