FCV.pdb
     RDKit          3D

 25 25  0  0  1  0  0  0  0  0999 V2000
   11.8960  -16.9052   26.5598 N   0  0  0  0  0  0  0  0  0  0  0  0
   10.7068  -16.6296   25.7307 C   0  0  1  0  0  0  0  0  0  0  0  0
   10.1091  -15.3253   26.1794 C   0  0  0  0  0  0  0  0  0  0  0  0
   10.2495  -15.1752   27.6381 C   0  0  0  0  0  0  0  0  0  0  0  0
   10.2143  -13.9013   28.1824 C   0  0  0  0  0  0  0  0  0  0  0  0
   10.3307  -13.7034   29.5438 C   0  0  0  0  0  0  0  0  0  0  0  0
   10.4818  -14.8149   30.3297 C   0  0  0  0  0  0  0  0  0  0  0  0
   10.5218  -16.1025   29.8260 C   0  0  0  0  0  0  0  0  0  0  0  0
   10.4024  -16.2789   28.4489 C   0  0  0  0  0  0  0  0  0  0  0  0
   11.0699  -16.6658   24.2964 C   0  0  0  0  0  0  0  0  0  0  0  0
   12.2551  -16.6754   23.8836 O   0  0  0  0  0  0  0  0  0  0  0  0
   10.0556  -16.6925   23.2805 N   0  0  0  0  0  0  0  0  0  0  0  0
   10.3464  -16.4314   21.8973 C   0  0  1  0  0  0  0  0  0  0  0  0
   10.9942  -17.6564   21.2807 C   0  0  0  0  0  0  0  0  0  0  0  0
   10.2466  -19.1863   21.8606 S   0  0  0  0  0  0  0  0  0  0  0  0
    9.1343  -16.0200   21.1446 C   0  0  0  0  0  0  0  0  0  0  0  0
    7.9905  -16.5022   21.4502 O   0  0  0  0  0  0  0  0  0  0  0  0
    6.9269  -12.7895   18.2961 C   0  0  0  0  0  0  0  0  0  0  0  0
    8.2073  -13.1845   18.9714 C   0  0  1  0  0  0  0  0  0  0  0  0
    8.3926  -12.3154   20.2081 C   0  0  0  0  0  0  0  0  0  0  0  0
    8.0921  -14.6585   19.3810 C   0  0  2  0  0  0  0  0  0  0  0  0
    9.2786  -15.0836   20.0839 N   0  0  0  0  0  0  0  0  0  0  0  0
    7.9676  -15.4243   18.1237 C   0  0  0  0  0  0  0  0  0  0  0  0
    6.7475  -15.4381   17.4761 O   0  0  0  0  0  0  0  0  0  0  0  0
    8.9090  -16.0697   17.6008 O   0  0  0  0  0  0  0  0  0  0  0  0
  2 10  1  0
  2  1  1  1
  3  2  1  0
  4  3  1  0
  5  4  2  0
  6  5  1  0
  7  8  1  0
  7  6  2  0
  8  9  2  0
  9  4  1  0
 10 11  2  0
 12 10  1  0
 12 13  1  0
 13 14  1  6
 14 15  1  0
 16 17  2  0
 16 13  1  0
 19 18  1  1
 19 20  1  0
 19 21  1  0
 21 22  1  6
 22 16  1  0
 23 24  1  0
 23 21  1  0
 25 23  2  0
M  END
$$$$
