FCV.pdb
     RDKit          3D

 25 25  0  0  1  0  0  0  0  0999 V2000
    6.4278  -16.2131   25.8663 N   0  0  0  0  0  0  0  0  0  0  0  0
    6.9341  -15.4192   24.7301 C   0  0  1  0  0  0  0  0  0  0  0  0
    7.9116  -14.4068   25.2584 C   0  0  0  0  0  0  0  0  0  0  0  0
    7.1995  -13.3417   25.9854 C   0  0  0  0  0  0  0  0  0  0  0  0
    6.0656  -12.7884   25.4123 C   0  0  0  0  0  0  0  0  0  0  0  0
    5.3537  -11.7947   26.0542 C   0  0  0  0  0  0  0  0  0  0  0  0
    5.8141  -11.3812   27.2761 C   0  0  0  0  0  0  0  0  0  0  0  0
    6.9407  -11.9074   27.8820 C   0  0  0  0  0  0  0  0  0  0  0  0
    7.6438  -12.9095   27.2161 C   0  0  0  0  0  0  0  0  0  0  0  0
    7.4942  -16.3165   23.6949 C   0  0  0  0  0  0  0  0  0  0  0  0
    7.9724  -17.4490   23.9473 O   0  0  0  0  0  0  0  0  0  0  0  0
    7.5180  -15.9232   22.3142 N   0  0  0  0  0  0  0  0  0  0  0  0
    8.5351  -16.3741   21.4043 C   0  0  1  0  0  0  0  0  0  0  0  0
    8.3830  -15.6477   20.0815 C   0  0  0  0  0  0  0  0  0  0  0  0
    9.4499  -16.3297   18.8040 S   0  0  0  0  0  0  0  0  0  0  0  0
    9.8983  -16.2000   21.9668 C   0  0  0  0  0  0  0  0  0  0  0  0
   10.1419  -15.2484   22.7849 O   0  0  0  0  0  0  0  0  0  0  0  0
   13.3390  -18.3512   24.1235 C   0  0  0  0  0  0  0  0  0  0  0  0
   11.9765  -18.1079   23.5436 C   0  0  1  0  0  0  0  0  0  0  0  0
   11.1018  -17.4645   24.6112 C   0  0  0  0  0  0  0  0  0  0  0  0
   12.1321  -17.1550   22.3513 C   0  0  2  0  0  0  0  0  0  0  0  0
   10.9166  -17.1121   21.5746 N   0  0  0  0  0  0  0  0  0  0  0  0
   13.2224  -17.7101   21.5231 C   0  0  0  0  0  0  0  0  0  0  0  0
   12.9092  -18.6526   20.5631 O   0  0  0  0  0  0  0  0  0  0  0  0
   14.4274  -17.3767   21.6371 O   0  0  0  0  0  0  0  0  0  0  0  0
  2 10  1  0
  2  1  1  1
  3  2  1  0
  4  3  1  0
  5  4  2  0
  6  5  1  0
  7  8  1  0
  7  6  2  0
  8  9  2  0
  9  4  1  0
 10 11  2  0
 12 10  1  0
 12 13  1  0
 13 14  1  6
 14 15  1  0
 16 17  2  0
 16 13  1  0
 19 18  1  1
 19 20  1  0
 19 21  1  0
 21 22  1  6
 22 16  1  0
 23 24  1  0
 23 21  1  0
 25 23  2  0
M  END
$$$$
