SRW.pdb
     RDKit          3D

 32 33  0  0  1  0  0  0  0  0999 V2000
    7.0554  -20.1335   23.9043 O   0  0  0  0  0  0  0  0  0  0  0  0
    6.1005  -19.2606   23.3992 C   0  0  0  0  0  0  0  0  0  0  0  0
    6.5013  -18.8184   22.0039 C   0  0  2  0  0  0  0  0  0  0  0  0
    6.2017  -19.9286   21.0993 N   0  0  0  0  0  0  0  0  0  0  0  0
    7.9561  -18.5711   21.9637 C   0  0  0  0  0  0  0  0  0  0  0  0
    8.6431  -19.1049   21.0635 O   0  0  0  0  0  0  0  0  0  0  0  0
    7.9146  -14.1905   17.7343 N   0  0  0  0  0  0  0  0  0  0  0  0
    7.8975  -13.2813   18.8173 C   0  0  0  0  0  0  0  0  0  0  0  0
    7.1598  -12.2208   18.8103 N   0  0  0  0  0  0  0  0  0  0  0  0
    8.7297  -13.5597   19.9492 N   0  0  0  0  0  0  0  0  0  0  0  0
    9.5513  -14.7285   19.9880 C   0  0  0  0  0  0  0  0  0  0  0  0
    9.3604  -15.4292   21.3145 C   0  0  0  0  0  0  0  0  0  0  0  0
   10.2122  -16.6554   21.4073 C   0  0  0  0  0  0  0  0  0  0  0  0
    9.9725  -17.3302   22.7414 C   0  0  2  0  0  0  0  0  0  0  0  0
    8.6111  -17.7465   22.9114 N   0  0  0  0  0  0  0  0  0  0  0  0
   10.3522  -16.4229   23.8698 C   0  0  0  0  0  0  0  0  0  0  0  0
   11.4361  -15.7615   23.8148 O   0  0  0  0  0  0  0  0  0  0  0  0
    7.0793  -11.5634   19.5897 N   0  0  0  0  0  0  0  0  0  0  0  0
    9.5588  -16.2549   25.0178 C   0  0  1  0  0  0  0  0  0  0  0  0
   10.1210  -16.2759   26.3537 C   0  0  0  0  0  0  0  0  0  0  0  0
    9.4238  -15.3655   27.2991 C   0  0  0  0  0  0  0  0  0  0  0  0
    8.1003  -14.9991   26.7413 C   0  0  0  0  0  0  0  0  0  0  0  0
    7.0658  -15.8649   26.3710 N   0  0  0  0  0  0  0  0  0  0  0  0
    6.0302  -15.1532   25.9002 C   0  0  0  0  0  0  0  0  0  0  0  0
    6.3226  -13.8508   25.9378 C   0  0  0  0  0  0  0  0  0  0  0  0
    5.6065  -12.7089   25.5706 C   0  0  0  0  0  0  0  0  0  0  0  0
    6.2215  -11.5010   25.7463 C   0  0  0  0  0  0  0  0  0  0  0  0
    7.4813  -11.3421   26.2540 C   0  0  0  0  0  0  0  0  0  0  0  0
    8.1792  -12.4882   26.6139 C   0  0  0  0  0  0  0  0  0  0  0  0
    7.5979  -13.7359   26.4547 C   0  0  0  0  0  0  0  0  0  0  0  0
   10.1507  -17.6464   26.9114 O   0  0  0  0  0  0  0  0  0  0  0  0
    9.5422  -18.6196   26.4153 O   0  0  0  0  0  0  0  0  0  0  0  0
  1  2  1  0
  3  2  1  0
  3  4  1  6
  5  6  2  0
  5  3  1  0
  8  9  2  0
  8  7  1  0
 10  8  1  0
 11 12  1  0
 11 10  1  0
 13 12  1  0
 14 13  1  6
 14 15  1  0
 15  5  1  0
 16 14  1  0
 16 17  2  0
 18 16  1  0
 19 18  1  0
 19 30  1  0
 19 20  1  1
 21 20  1  0
 22 21  2  0
 23 22  1  0
 24 23  1  0
 24 29  2  0
 25 26  2  0
 25 24  1  0
 26 27  1  0
 27 28  2  0
 29 28  1  0
 29 21  1  0
 30 31  2  0
 30 32  1  0
M  END
$$$$
