SRW.pdb
     RDKit          3D

 32 33  0  0  1  0  0  0  0  0999 V2000
    8.9789  -22.0181   24.3001 O   0  0  0  0  0  0  0  0  0  0  0  0
    7.7680  -21.8376   23.6442 C   0  0  0  0  0  0  0  0  0  0  0  0
    8.0236  -21.4270   22.2058 C   0  0  2  0  0  0  0  0  0  0  0  0
    9.0274  -22.3460   21.6690 N   0  0  0  0  0  0  0  0  0  0  0  0
    8.5852  -20.0621   22.1748 C   0  0  0  0  0  0  0  0  0  0  0  0
    9.8077  -19.9081   21.9533 O   0  0  0  0  0  0  0  0  0  0  0  0
    8.7109  -13.3494   17.3289 N   0  0  0  0  0  0  0  0  0  0  0  0
    8.3112  -13.2174   18.6789 C   0  0  0  0  0  0  0  0  0  0  0  0
    8.4556  -12.1119   19.3315 N   0  0  0  0  0  0  0  0  0  0  0  0
    7.7301  -14.3541   19.3280 N   0  0  0  0  0  0  0  0  0  0  0  0
    7.3441  -14.2981   20.7029 C   0  0  0  0  0  0  0  0  0  0  0  0
    8.1634  -15.2942   21.4925 C   0  0  0  0  0  0  0  0  0  0  0  0
    7.4611  -16.6107   21.5987 C   0  0  0  0  0  0  0  0  0  0  0  0
    8.3424  -17.5879   22.3478 C   0  0  2  0  0  0  0  0  0  0  0  0
    7.7889  -18.9099   22.3877 N   0  0  0  0  0  0  0  0  0  0  0  0
    8.5862  -17.1160   23.7472 C   0  0  0  0  0  0  0  0  0  0  0  0
    7.6944  -17.2828   24.6374 O   0  0  0  0  0  0  0  0  0  0  0  0
    8.2095  -11.9812   20.3156 N   0  0  0  0  0  0  0  0  0  0  0  0
    9.7757  -16.4820   24.1455 C   0  0  1  0  0  0  0  0  0  0  0  0
   10.0781  -16.2139   25.5376 C   0  0  0  0  0  0  0  0  0  0  0  0
    8.9708  -15.5344   26.2592 C   0  0  0  0  0  0  0  0  0  0  0  0
    8.4238  -14.4503   25.4091 C   0  0  0  0  0  0  0  0  0  0  0  0
    8.6937  -14.2133   24.0571 N   0  0  0  0  0  0  0  0  0  0  0  0
    8.0144  -13.1318   23.6454 C   0  0  0  0  0  0  0  0  0  0  0  0
    7.3019  -12.6330   24.6587 C   0  0  0  0  0  0  0  0  0  0  0  0
    6.4416  -11.5371   24.7616 C   0  0  0  0  0  0  0  0  0  0  0  0
    5.8644  -11.3068   25.9790 C   0  0  0  0  0  0  0  0  0  0  0  0
    6.0744  -12.0743   27.0912 C   0  0  0  0  0  0  0  0  0  0  0  0
    6.9328  -13.1600   26.9709 C   0  0  0  0  0  0  0  0  0  0  0  0
    7.5421  -13.4346   25.7571 C   0  0  0  0  0  0  0  0  0  0  0  0
   10.4611  -17.4475   26.2599 O   0  0  0  0  0  0  0  0  0  0  0  0
   10.5451  -18.5757   25.7271 O   0  0  0  0  0  0  0  0  0  0  0  0
  1  2  1  0
  3  2  1  0
  3  4  1  1
  5  6  2  0
  5  3  1  0
  8  9  2  0
  8  7  1  0
 10  8  1  0
 11 12  1  0
 11 10  1  0
 13 12  1  0
 14 13  1  1
 14 15  1  0
 15  5  1  0
 16 14  1  0
 16 17  2  0
 18 16  1  0
 19 18  1  0
 19 30  1  0
 19 20  1  1
 21 20  1  0
 22 21  2  0
 23 22  1  0
 24 23  1  0
 24 29  2  0
 25 26  2  0
 25 24  1  0
 26 27  1  0
 27 28  2  0
 29 28  1  0
 29 21  1  0
 30 31  2  0
 30 32  1  0
M  END
$$$$
