SRW.pdb
     RDKit          3D

 32 33  0  0  1  0  0  0  0  0999 V2000
    7.7597  -12.2575   22.2461 O   0  0  0  0  0  0  0  0  0  0  0  0
    8.4438  -12.3177   21.0389 C   0  0  0  0  0  0  0  0  0  0  0  0
    7.9392  -13.4949   20.2250 C   0  0  2  0  0  0  0  0  0  0  0  0
    6.5353  -13.2289   19.9107 N   0  0  0  0  0  0  0  0  0  0  0  0
    8.0038  -14.7230   21.0416 C   0  0  0  0  0  0  0  0  0  0  0  0
    6.9562  -15.1667   21.5639 O   0  0  0  0  0  0  0  0  0  0  0  0
    9.5056  -19.3720   16.7510 N   0  0  0  0  0  0  0  0  0  0  0  0
   10.2454  -20.2263   17.6011 C   0  0  0  0  0  0  0  0  0  0  0  0
   10.9362  -21.2176   17.1438 N   0  0  0  0  0  0  0  0  0  0  0  0
   10.2172  -19.9709   19.0100 N   0  0  0  0  0  0  0  0  0  0  0  0
    9.1425  -19.2389   19.6031 C   0  0  0  0  0  0  0  0  0  0  0  0
    9.6114  -17.8382   19.9274 C   0  0  0  0  0  0  0  0  0  0  0  0
   10.0495  -17.7298   21.3536 C   0  0  0  0  0  0  0  0  0  0  0  0
    9.2633  -16.6299   22.0354 C   0  0  2  0  0  0  0  0  0  0  0  0
    9.2147  -15.4254   21.2594 N   0  0  0  0  0  0  0  0  0  0  0  0
    9.8406  -16.3227   23.3819 C   0  0  0  0  0  0  0  0  0  0  0  0
   10.9595  -15.7266   23.4714 O   0  0  0  0  0  0  0  0  0  0  0  0
   11.4438  -21.8895   17.7244 N   0  0  0  0  0  0  0  0  0  0  0  0
    9.2005  -16.6642   24.5858 C   0  0  1  0  0  0  0  0  0  0  0  0
    9.8190  -16.4427   25.8779 C   0  0  0  0  0  0  0  0  0  0  0  0
    8.8368  -16.1834   26.9628 C   0  0  0  0  0  0  0  0  0  0  0  0
    7.7077  -15.3894   26.4228 C   0  0  0  0  0  0  0  0  0  0  0  0
    6.5783  -15.8680   25.7502 N   0  0  0  0  0  0  0  0  0  0  0  0
    5.7872  -14.8387   25.4103 C   0  0  0  0  0  0  0  0  0  0  0  0
    6.3340  -13.6928   25.8239 C   0  0  0  0  0  0  0  0  0  0  0  0
    5.9267  -12.3601   25.7256 C   0  0  0  0  0  0  0  0  0  0  0  0
    6.7474  -11.4130   26.2714 C   0  0  0  0  0  0  0  0  0  0  0  0
    7.9302  -11.6860   26.9013 C   0  0  0  0  0  0  0  0  0  0  0  0
    8.3198  -13.0165   26.9899 C   0  0  0  0  0  0  0  0  0  0  0  0
    7.5214  -14.0130   26.4518 C   0  0  0  0  0  0  0  0  0  0  0  0
   10.6998  -17.5684   26.2612 O   0  0  0  0  0  0  0  0  0  0  0  0
   11.3845  -17.5996   27.3071 O   0  0  0  0  0  0  0  0  0  0  0  0
  1  2  1  0
  3  2  1  0
  3  4  1  1
  5  6  2  0
  5  3  1  0
  8  9  2  0
  8  7  1  0
 10  8  1  0
 11 12  1  0
 11 10  1  0
 13 12  1  0
 14 13  1  6
 14 15  1  0
 15  5  1  0
 16 14  1  0
 16 17  2  0
 18 16  1  0
 19 18  1  0
 19 30  1  0
 19 20  1  6
 21 20  1  0
 22 21  2  0
 23 22  1  0
 24 23  1  0
 24 29  2  0
 25 26  2  0
 25 24  1  0
 26 27  1  0
 27 28  2  0
 29 28  1  0
 29 21  1  0
 30 31  2  0
 30 32  1  0
M  END
$$$$
