SRW.pdb
     RDKit          3D

 32 33  0  0  1  0  0  0  0  0999 V2000
    8.7191  -19.5894   26.5147 O   0  0  0  0  0  0  0  0  0  0  0  0
    7.4500  -19.0520   26.3431 C   0  0  0  0  0  0  0  0  0  0  0  0
    7.0590  -19.1254   24.8787 C   0  0  2  0  0  0  0  0  0  0  0  0
    7.1273  -20.5332   24.4862 N   0  0  0  0  0  0  0  0  0  0  0  0
    8.0375  -18.3733   24.0686 C   0  0  0  0  0  0  0  0  0  0  0  0
    9.1561  -18.8829   23.8311 O   0  0  0  0  0  0  0  0  0  0  0  0
    6.5423  -12.6613   17.2914 N   0  0  0  0  0  0  0  0  0  0  0  0
    7.1956  -13.8741   17.6110 C   0  0  0  0  0  0  0  0  0  0  0  0
    7.6862  -14.6488   16.7011 N   0  0  0  0  0  0  0  0  0  0  0  0
    7.3080  -14.2401   18.9910 N   0  0  0  0  0  0  0  0  0  0  0  0
    8.5532  -14.6823   19.5354 C   0  0  0  0  0  0  0  0  0  0  0  0
    8.3003  -15.8141   20.5059 C   0  0  0  0  0  0  0  0  0  0  0  0
    8.1568  -15.3062   21.9056 C   0  0  0  0  0  0  0  0  0  0  0  0
    8.7557  -16.3123   22.8658 C   0  0  2  0  0  0  0  0  0  0  0  0
    7.7585  -17.0869   23.5448 N   0  0  0  0  0  0  0  0  0  0  0  0
    9.6192  -15.6281   23.8793 C   0  0  0  0  0  0  0  0  0  0  0  0
    9.2622  -14.5093   24.3652 O   0  0  0  0  0  0  0  0  0  0  0  0
    8.2391  -15.4886   16.8887 N   0  0  0  0  0  0  0  0  0  0  0  0
   10.8346  -16.1650   24.3375 C   0  0  1  0  0  0  0  0  0  0  0  0
   11.8378  -15.3516   24.9957 C   0  0  0  0  0  0  0  0  0  0  0  0
   11.2861  -14.5071   26.0870 C   0  0  0  0  0  0  0  0  0  0  0  0
   11.1891  -15.3113   27.3284 C   0  0  0  0  0  0  0  0  0  0  0  0
   12.2428  -15.8267   28.0906 N   0  0  0  0  0  0  0  0  0  0  0  0
   11.7504  -16.5078   29.1367 C   0  0  0  0  0  0  0  0  0  0  0  0
   10.4158  -16.4727   29.1109 C   0  0  0  0  0  0  0  0  0  0  0  0
    9.4384  -17.0121   29.9507 C   0  0  0  0  0  0  0  0  0  0  0  0
    8.1324  -16.7787   29.6218 C   0  0  0  0  0  0  0  0  0  0  0  0
    7.7270  -16.0575   28.5329 C   0  0  0  0  0  0  0  0  0  0  0  0
    8.7122  -15.5284   27.7085 C   0  0  0  0  0  0  0  0  0  0  0  0
   10.0504  -15.7378   28.0004 C   0  0  0  0  0  0  0  0  0  0  0  0
   12.9517  -16.1749   25.5167 O   0  0  0  0  0  0  0  0  0  0  0  0
   12.9436  -17.4248   25.5532 O   0  0  0  0  0  0  0  0  0  0  0  0
  1  2  1  0
  3  2  1  0
  3  4  1  6
  5  6  2  0
  5  3  1  0
  8  9  2  0
  8  7  1  0
 10  8  1  0
 11 12  1  0
 11 10  1  0
 13 12  1  0
 14 13  1  6
 14 15  1  0
 15  5  1  0
 16 14  1  0
 16 17  2  0
 18 16  1  0
 19 18  1  0
 19 30  1  0
 19 20  1  6
 21 20  1  0
 22 21  2  0
 23 22  1  0
 24 23  1  0
 24 29  2  0
 25 26  2  0
 25 24  1  0
 26 27  1  0
 27 28  2  0
 29 28  1  0
 29 21  1  0
 30 31  2  0
 30 32  1  0
M  END
$$$$
