SRW.pdb
     RDKit          3D

 32 33  0  0  1  0  0  0  0  0999 V2000
    7.2820  -19.5252   24.8375 O   0  0  0  0  0  0  0  0  0  0  0  0
    6.0831  -19.4055   24.1469 C   0  0  0  0  0  0  0  0  0  0  0  0
    6.3310  -19.5836   22.6604 C   0  0  2  0  0  0  0  0  0  0  0  0
    7.0052  -20.8706   22.4889 N   0  0  0  0  0  0  0  0  0  0  0  0
    7.2370  -18.5214   22.1807 C   0  0  0  0  0  0  0  0  0  0  0  0
    8.4290  -18.8038   21.9226 O   0  0  0  0  0  0  0  0  0  0  0  0
    7.8574  -15.2976   16.6252 N   0  0  0  0  0  0  0  0  0  0  0  0
    8.1642  -13.9391   16.8705 C   0  0  0  0  0  0  0  0  0  0  0  0
    8.0035  -13.0268   15.9700 N   0  0  0  0  0  0  0  0  0  0  0  0
    8.6677  -13.5805   18.1623 N   0  0  0  0  0  0  0  0  0  0  0  0
    8.6861  -14.5271   19.2330 C   0  0  0  0  0  0  0  0  0  0  0  0
    7.8970  -13.9767   20.3998 C   0  0  0  0  0  0  0  0  0  0  0  0
    6.9210  -14.9849   20.9179 C   0  0  0  0  0  0  0  0  0  0  0  0
    7.6778  -16.1724   21.4747 C   0  0  2  0  0  0  0  0  0  0  0  0
    6.8073  -17.1837   21.9992 N   0  0  0  0  0  0  0  0  0  0  0  0
    8.6283  -15.7393   22.5470 C   0  0  0  0  0  0  0  0  0  0  0  0
    9.1414  -14.5772   22.5084 O   0  0  0  0  0  0  0  0  0  0  0  0
    8.2728  -12.0463   16.0812 N   0  0  0  0  0  0  0  0  0  0  0  0
    8.9967  -16.5650   23.6231 C   0  0  1  0  0  0  0  0  0  0  0  0
    9.9231  -16.1278   24.6488 C   0  0  0  0  0  0  0  0  0  0  0  0
    9.6881  -14.7300   25.0958 C   0  0  0  0  0  0  0  0  0  0  0  0
    8.3462  -14.6330   25.7178 C   0  0  0  0  0  0  0  0  0  0  0  0
    7.3710  -15.6331   25.7933 N   0  0  0  0  0  0  0  0  0  0  0  0
    6.2867  -15.1576   26.4248 C   0  0  0  0  0  0  0  0  0  0  0  0
    6.4899  -13.8853   26.7759 C   0  0  0  0  0  0  0  0  0  0  0  0
    5.6952  -12.9486   27.4410 C   0  0  0  0  0  0  0  0  0  0  0  0
    6.2271  -11.7053   27.6399 C   0  0  0  0  0  0  0  0  0  0  0  0
    7.4760  -11.3250   27.2325 C   0  0  0  0  0  0  0  0  0  0  0  0
    8.2526  -12.2692   26.5725 C   0  0  0  0  0  0  0  0  0  0  0  0
    7.7573  -13.5435   26.3473 C   0  0  0  0  0  0  0  0  0  0  0  0
    9.9095  -17.0344   25.8183 O   0  0  0  0  0  0  0  0  0  0  0  0
   10.6436  -16.8975   26.8214 O   0  0  0  0  0  0  0  0  0  0  0  0
  1  2  1  0
  3  2  1  0
  3  4  1  1
  5  6  2  0
  5  3  1  0
  8  9  2  0
  8  7  1  0
 10  8  1  0
 11 12  1  0
 11 10  1  0
 13 12  1  0
 14 13  1  1
 14 15  1  0
 15  5  1  0
 16 14  1  0
 16 17  2  0
 18 16  1  0
 19 18  1  0
 19 30  1  0
 19 20  1  1
 21 20  1  0
 22 21  2  0
 23 22  1  0
 24 23  1  0
 24 29  2  0
 25 26  2  0
 25 24  1  0
 26 27  1  0
 27 28  2  0
 29 28  1  0
 29 21  1  0
 30 31  2  0
 30 32  1  0
M  END
$$$$
