SRW.pdb
     RDKit          3D

 32 33  0  0  1  0  0  0  0  0999 V2000
    8.4963  -12.8896   21.5105 O   0  0  0  0  0  0  0  0  0  0  0  0
    7.2924  -13.4883   21.1629 C   0  0  0  0  0  0  0  0  0  0  0  0
    7.5624  -14.8067   20.4616 C   0  0  2  0  0  0  0  0  0  0  0  0
    6.2696  -15.3308   20.0204 N   0  0  0  0  0  0  0  0  0  0  0  0
    8.1449  -15.7655   21.4210 C   0  0  0  0  0  0  0  0  0  0  0  0
    7.3929  -16.3577   22.2278 O   0  0  0  0  0  0  0  0  0  0  0  0
   12.2539  -18.6114   17.8106 N   0  0  0  0  0  0  0  0  0  0  0  0
   12.9078  -19.6308   18.5408 C   0  0  0  0  0  0  0  0  0  0  0  0
   13.9510  -20.2401   18.0833 N   0  0  0  0  0  0  0  0  0  0  0  0
   12.3844  -19.9865   19.8256 N   0  0  0  0  0  0  0  0  0  0  0  0
   11.1643  -19.4177   20.3057 C   0  0  0  0  0  0  0  0  0  0  0  0
   11.3385  -17.9240   20.4651 C   0  0  0  0  0  0  0  0  0  0  0  0
   11.4267  -17.5394   21.9081 C   0  0  0  0  0  0  0  0  0  0  0  0
   10.0834  -17.0132   22.3678 C   0  0  2  0  0  0  0  0  0  0  0  0
    9.5332  -16.0445   21.4653 N   0  0  0  0  0  0  0  0  0  0  0  0
   10.1907  -16.4070   23.7322 C   0  0  0  0  0  0  0  0  0  0  0  0
   10.8113  -15.3094   23.8916 O   0  0  0  0  0  0  0  0  0  0  0  0
   14.4113  -21.0297   18.5426 N   0  0  0  0  0  0  0  0  0  0  0  0
    9.6301  -16.9963   24.8785 C   0  0  1  0  0  0  0  0  0  0  0  0
    9.8701  -16.4750   26.2096 C   0  0  0  0  0  0  0  0  0  0  0  0
    8.6404  -16.3962   27.0404 C   0  0  0  0  0  0  0  0  0  0  0  0
    7.6506  -15.5200   26.3697 C   0  0  0  0  0  0  0  0  0  0  0  0
    6.5563  -15.9144   25.5927 N   0  0  0  0  0  0  0  0  0  0  0  0
    5.9028  -14.8286   25.1517 C   0  0  0  0  0  0  0  0  0  0  0  0
    6.5084  -13.7248   25.5969 C   0  0  0  0  0  0  0  0  0  0  0  0
    6.2386  -12.3644   25.4300 C   0  0  0  0  0  0  0  0  0  0  0  0
    7.0835  -11.4794   26.0394 C   0  0  0  0  0  0  0  0  0  0  0  0
    8.1654  -11.8391   26.7945 C   0  0  0  0  0  0  0  0  0  0  0  0
    8.4190  -13.1962   26.9500 C   0  0  0  0  0  0  0  0  0  0  0  0
    7.5907  -14.1321   26.3515 C   0  0  0  0  0  0  0  0  0  0  0  0
   10.9047  -17.2565   26.9230 O   0  0  0  0  0  0  0  0  0  0  0  0
   11.4859  -18.2545   26.4435 O   0  0  0  0  0  0  0  0  0  0  0  0
  1  2  1  0
  3  2  1  0
  3  4  1  1
  5  6  2  0
  5  3  1  0
  8  9  2  0
  8  7  1  0
 10  8  1  0
 11 12  1  0
 11 10  1  0
 13 12  1  0
 14 13  1  6
 14 15  1  0
 15  5  1  0
 16 14  1  0
 16 17  2  0
 18 16  1  0
 19 18  1  0
 19 30  1  0
 19 20  1  1
 21 20  1  0
 22 21  2  0
 23 22  1  0
 24 23  1  0
 24 29  2  0
 25 26  2  0
 25 24  1  0
 26 27  1  0
 27 28  2  0
 29 28  1  0
 29 21  1  0
 30 31  2  0
 30 32  1  0
M  END
$$$$
