SRW.pdb
     RDKit          3D

 32 33  0  0  1  0  0  0  0  0999 V2000
    6.9917  -12.8574   22.0002 O   0  0  0  0  0  0  0  0  0  0  0  0
    7.8033  -13.0635   20.8922 C   0  0  0  0  0  0  0  0  0  0  0  0
    7.5426  -14.4442   20.3189 C   0  0  2  0  0  0  0  0  0  0  0  0
    6.0921  -14.5917   20.1979 N   0  0  0  0  0  0  0  0  0  0  0  0
    8.0330  -15.4698   21.2606 C   0  0  0  0  0  0  0  0  0  0  0  0
    7.2078  -16.1234   21.9383 O   0  0  0  0  0  0  0  0  0  0  0  0
   11.8886  -22.1648   20.1430 N   0  0  0  0  0  0  0  0  0  0  0  0
   11.3210  -21.2646   19.2117 C   0  0  0  0  0  0  0  0  0  0  0  0
   11.7062  -21.2200   17.9794 N   0  0  0  0  0  0  0  0  0  0  0  0
   10.2884  -20.3819   19.6650 N   0  0  0  0  0  0  0  0  0  0  0  0
   10.4432  -19.6255   20.8676 C   0  0  0  0  0  0  0  0  0  0  0  0
   10.9015  -18.2264   20.5221 C   0  0  0  0  0  0  0  0  0  0  0  0
   11.1713  -17.4242   21.7556 C   0  0  0  0  0  0  0  0  0  0  0  0
    9.8739  -16.8239   22.2547 C   0  0  2  0  0  0  0  0  0  0  0  0
    9.4122  -15.7463   21.4293 N   0  0  0  0  0  0  0  0  0  0  0  0
   10.0233  -16.3346   23.6615 C   0  0  0  0  0  0  0  0  0  0  0  0
   10.7924  -15.3549   23.9141 O   0  0  0  0  0  0  0  0  0  0  0  0
   11.4801  -20.4659   17.3264 N   0  0  0  0  0  0  0  0  0  0  0  0
    9.3444  -16.9109   24.7489 C   0  0  1  0  0  0  0  0  0  0  0  0
    9.6433  -16.5537   26.1216 C   0  0  0  0  0  0  0  0  0  0  0  0
    8.4310  -16.4150   26.9701 C   0  0  0  0  0  0  0  0  0  0  0  0
    7.5303  -15.3985   26.3763 C   0  0  0  0  0  0  0  0  0  0  0  0
    6.4585  -15.6192   25.5048 N   0  0  0  0  0  0  0  0  0  0  0  0
    5.8927  -14.4462   25.1814 C   0  0  0  0  0  0  0  0  0  0  0  0
    6.5356  -13.4498   25.7954 C   0  0  0  0  0  0  0  0  0  0  0  0
    6.3532  -12.0648   25.7972 C   0  0  0  0  0  0  0  0  0  0  0  0
    7.2134  -11.3213   26.5559 C   0  0  0  0  0  0  0  0  0  0  0  0
    8.2310  -11.8433   27.3056 C   0  0  0  0  0  0  0  0  0  0  0  0
    8.3979  -13.2225   27.2923 C   0  0  0  0  0  0  0  0  0  0  0  0
    7.5509  -14.0189   26.5385 C   0  0  0  0  0  0  0  0  0  0  0  0
   10.5801  -17.5156   26.7439 O   0  0  0  0  0  0  0  0  0  0  0  0
   11.0069  -17.4222   27.9155 O   0  0  0  0  0  0  0  0  0  0  0  0
  1  2  1  0
  3  2  1  0
  3  4  1  1
  5  6  2  0
  5  3  1  0
  8  9  2  0
  8  7  1  0
 10  8  1  0
 11 12  1  0
 11 10  1  0
 13 12  1  0
 14 13  1  6
 14 15  1  0
 15  5  1  0
 16 14  1  0
 16 17  2  0
 18 16  1  0
 19 18  1  0
 19 30  1  0
 19 20  1  6
 21 20  1  0
 22 21  2  0
 23 22  1  0
 24 23  1  0
 24 29  2  0
 25 26  2  0
 25 24  1  0
 26 27  1  0
 27 28  2  0
 29 28  1  0
 29 21  1  0
 30 31  2  0
 30 32  1  0
M  END
$$$$
