SRW.pdb
     RDKit          3D

 32 33  0  0  1  0  0  0  0  0999 V2000
   10.6181  -12.8841   19.8045 O   0  0  0  0  0  0  0  0  0  0  0  0
   10.1360  -13.2971   18.5692 C   0  0  0  0  0  0  0  0  0  0  0  0
    8.6618  -13.6381   18.6853 C   0  0  2  0  0  0  0  0  0  0  0  0
    7.9517  -12.3870   18.9518 N   0  0  0  0  0  0  0  0  0  0  0  0
    8.4532  -14.5401   19.8352 C   0  0  0  0  0  0  0  0  0  0  0  0
    8.0822  -14.0601   20.9303 O   0  0  0  0  0  0  0  0  0  0  0  0
    8.1328  -22.6792   18.7661 N   0  0  0  0  0  0  0  0  0  0  0  0
    7.2087  -22.1856   19.7160 C   0  0  0  0  0  0  0  0  0  0  0  0
    6.2168  -22.8961   20.1406 N   0  0  0  0  0  0  0  0  0  0  0  0
    7.3924  -20.8548   20.2122 N   0  0  0  0  0  0  0  0  0  0  0  0
    8.2545  -20.5966   21.3225 C   0  0  0  0  0  0  0  0  0  0  0  0
    8.2014  -19.1244   21.6641 C   0  0  0  0  0  0  0  0  0  0  0  0
    8.4449  -18.2782   20.4548 C   0  0  0  0  0  0  0  0  0  0  0  0
    8.3738  -16.8169   20.8452 C   0  0  2  0  0  0  0  0  0  0  0  0
    8.6580  -15.9392   19.7478 N   0  0  0  0  0  0  0  0  0  0  0  0
    9.3201  -16.5217   21.9669 C   0  0  0  0  0  0  0  0  0  0  0  0
   10.5701  -16.4653   21.7441 O   0  0  0  0  0  0  0  0  0  0  0  0
    5.5652  -22.6056   20.8734 N   0  0  0  0  0  0  0  0  0  0  0  0
    8.8958  -16.2972   23.2879 C   0  0  2  0  0  0  0  0  0  0  0  0
    9.8243  -15.9650   24.3503 C   0  0  0  0  0  0  0  0  0  0  0  0
    9.6040  -14.6107   24.9212 C   0  0  0  0  0  0  0  0  0  0  0  0
    8.2030  -14.4989   25.3923 C   0  0  0  0  0  0  0  0  0  0  0  0
    7.2496  -15.5195   25.4707 N   0  0  0  0  0  0  0  0  0  0  0  0
    6.0948  -15.0215   25.9386 C   0  0  0  0  0  0  0  0  0  0  0  0
    6.2299  -13.7146   26.1773 C   0  0  0  0  0  0  0  0  0  0  0  0
    5.3485  -12.7446   26.6607 C   0  0  0  0  0  0  0  0  0  0  0  0
    5.8270  -11.4702   26.7846 C   0  0  0  0  0  0  0  0  0  0  0  0
    7.1018  -11.0895   26.4681 C   0  0  0  0  0  0  0  0  0  0  0  0
    7.9649  -12.0669   25.9888 C   0  0  0  0  0  0  0  0  0  0  0  0
    7.5262  -13.3734   25.8456 C   0  0  0  0  0  0  0  0  0  0  0  0
    9.7972  -16.9732   25.4334 O   0  0  0  0  0  0  0  0  0  0  0  0
    8.9485  -17.8874   25.5205 O   0  0  0  0  0  0  0  0  0  0  0  0
  1  2  1  0
  3  2  1  0
  3  4  1  1
  5  6  2  0
  5  3  1  0
  8  9  2  0
  8  7  1  0
 10  8  1  0
 11 12  1  0
 11 10  1  0
 13 12  1  0
 14 13  1  6
 14 15  1  0
 15  5  1  0
 16 14  1  0
 16 17  2  0
 18 16  1  0
 19 18  1  0
 19 30  1  0
 19 20  1  6
 21 20  1  0
 22 21  2  0
 23 22  1  0
 24 23  1  0
 24 29  2  0
 25 26  2  0
 25 24  1  0
 26 27  1  0
 27 28  2  0
 29 28  1  0
 29 21  1  0
 30 31  2  0
 30 32  1  0
M  END
$$$$
