ADP.pdb
     RDKit          3D

 21 21  0  0  1  0  0  0  0  0999 V2000
    8.1947  -12.1582   19.3900 C   0  0  0  0  0  0  0  0  0  0  0  0
    8.5318  -13.6450   19.4882 C   0  0  2  0  0  0  0  0  0  0  0  0
    7.7064  -14.2661   18.4284 N   0  0  0  0  0  0  0  0  0  0  0  0
    8.0097  -14.1777   20.7740 C   0  0  0  0  0  0  0  0  0  0  0  0
    6.7735  -14.0558   21.0753 O   0  0  0  0  0  0  0  0  0  0  0  0
    8.8027  -14.8505   21.7459 N   0  0  0  0  0  0  0  0  0  0  0  0
    8.2141  -15.2581   23.0208 C   0  0  1  0  0  0  0  0  0  0  0  0
    8.2941  -16.7739   23.1124 C   0  0  0  0  0  0  0  0  0  0  0  0
    7.9878  -17.4216   21.8502 C   0  0  0  0  0  0  0  0  0  0  0  0
    6.8435  -17.5536   21.3696 O   0  0  0  0  0  0  0  0  0  0  0  0
    8.8301  -14.5762   24.1808 C   0  0  0  0  0  0  0  0  0  0  0  0
   10.1161  -14.3709   24.1627 O   0  0  0  0  0  0  0  0  0  0  0  0
    9.0136  -17.9761   21.0359 O   0  0  0  0  0  0  0  0  0  0  0  0
    8.1808  -14.1025   25.3431 N   0  0  0  0  0  0  0  0  0  0  0  0
    6.7030  -14.2067   25.5079 C   0  0  0  0  0  0  0  0  0  0  0  0
    6.4203  -12.7495   25.9057 C   0  0  0  0  0  0  0  0  0  0  0  0
    7.4550  -12.5945   27.0092 C   0  0  0  0  0  0  0  0  0  0  0  0
    8.6331  -13.4755   26.5423 C   0  0  1  0  0  0  0  0  0  0  0  0
    8.8062  -14.4934   27.6329 C   0  0  0  0  0  0  0  0  0  0  0  0
    9.4245  -14.2605   28.6970 O   0  0  0  0  0  0  0  0  0  0  0  0
    8.2597  -15.7540   27.4639 O   0  0  0  0  0  0  0  0  0  0  0  0
  2  1  1  1
  2  3  1  0
  4  2  1  0
  5  4  2  0
  6  4  1  0
  7 11  1  0
  7  6  1  0
  7  8  1  1
  9 10  2  0
  9  8  1  0
 11 14  1  0
 12 11  2  0
 13  9  1  0
 14 15  1  0
 14 18  1  0
 15 16  1  0
 16 17  1  0
 18 17  1  0
 18 19  1  1
 19 21  1  0
 20 19  2  0
M  END
$$$$
