ADP.pdb
     RDKit          3D

 21 21  0  0  1  0  0  0  0  0999 V2000
    8.3773  -12.4630   19.4101 C   0  0  0  0  0  0  0  0  0  0  0  0
    8.2752  -13.9816   19.5407 C   0  0  2  0  0  0  0  0  0  0  0  0
    7.3103  -14.3638   18.4856 N   0  0  0  0  0  0  0  0  0  0  0  0
    7.6183  -14.3152   20.8318 C   0  0  0  0  0  0  0  0  0  0  0  0
    6.4307  -14.7876   20.8551 O   0  0  0  0  0  0  0  0  0  0  0  0
    8.2268  -14.1529   22.1082 N   0  0  0  0  0  0  0  0  0  0  0  0
    7.6599  -14.8145   23.2825 C   0  0  1  0  0  0  0  0  0  0  0  0
    7.5179  -16.2950   22.9652 C   0  0  0  0  0  0  0  0  0  0  0  0
    7.0750  -17.0667   24.1118 C   0  0  0  0  0  0  0  0  0  0  0  0
    5.9076  -17.0925   24.5529 O   0  0  0  0  0  0  0  0  0  0  0  0
    8.4381  -14.5603   24.5153 C   0  0  0  0  0  0  0  0  0  0  0  0
    9.7141  -14.8208   24.5028 O   0  0  0  0  0  0  0  0  0  0  0  0
    7.9781  -17.8835   24.8466 O   0  0  0  0  0  0  0  0  0  0  0  0
    7.9591  -14.0534   25.7443 N   0  0  0  0  0  0  0  0  0  0  0  0
    6.4995  -13.9402   26.0252 C   0  0  0  0  0  0  0  0  0  0  0  0
    6.4772  -12.4791   26.5011 C   0  0  0  0  0  0  0  0  0  0  0  0
    7.6030  -12.5395   27.5215 C   0  0  0  0  0  0  0  0  0  0  0  0
    8.5917  -13.5642   26.9260 C   0  0  1  0  0  0  0  0  0  0  0  0
    8.6855  -14.6509   27.9585 C   0  0  0  0  0  0  0  0  0  0  0  0
    8.0005  -15.6986   27.9160 O   0  0  0  0  0  0  0  0  0  0  0  0
    9.5692  -14.4970   29.0128 O   0  0  0  0  0  0  0  0  0  0  0  0
  2  1  1  1
  2  3  1  0
  4  2  1  0
  5  4  2  0
  6  4  1  0
  7 11  1  0
  7  6  1  0
  7  8  1  6
  9 10  2  0
  9  8  1  0
 11 14  1  0
 12 11  2  0
 13  9  1  0
 14 15  1  0
 14 18  1  0
 15 16  1  0
 16 17  1  0
 18 17  1  0
 18 19  1  1
 19 21  1  0
 20 19  2  0
M  END
$$$$
