ADP.pdb
     RDKit          3D

 21 21  0  0  1  0  0  0  0  0999 V2000
    7.3222  -12.8210   19.2334 C   0  0  0  0  0  0  0  0  0  0  0  0
    8.4064  -13.3208   20.1865 C   0  0  2  0  0  0  0  0  0  0  0  0
    8.8951  -14.5628   19.5470 N   0  0  0  0  0  0  0  0  0  0  0  0
    7.7737  -13.7434   21.4635 C   0  0  0  0  0  0  0  0  0  0  0  0
    7.1973  -12.8882   22.2188 O   0  0  0  0  0  0  0  0  0  0  0  0
    7.7461  -15.0839   21.9413 N   0  0  0  0  0  0  0  0  0  0  0  0
    7.2830  -15.3714   23.2981 C   0  0  1  0  0  0  0  0  0  0  0  0
    7.1031  -16.8761   23.4246 C   0  0  0  0  0  0  0  0  0  0  0  0
    6.8021  -17.2851   24.7842 C   0  0  0  0  0  0  0  0  0  0  0  0
    5.9365  -16.7631   25.5165 O   0  0  0  0  0  0  0  0  0  0  0  0
    8.1709  -14.8066   24.3387 C   0  0  0  0  0  0  0  0  0  0  0  0
    9.4585  -14.9047   24.1690 O   0  0  0  0  0  0  0  0  0  0  0  0
    7.5019  -18.3557   25.4061 O   0  0  0  0  0  0  0  0  0  0  0  0
    7.7887  -14.1519   25.5312 N   0  0  0  0  0  0  0  0  0  0  0  0
    6.3564  -14.0149   25.9208 C   0  0  0  0  0  0  0  0  0  0  0  0
    6.3479  -12.5055   26.2098 C   0  0  0  0  0  0  0  0  0  0  0  0
    7.5571  -12.4280   27.1286 C   0  0  0  0  0  0  0  0  0  0  0  0
    8.5102  -13.5125   26.5831 C   0  0  1  0  0  0  0  0  0  0  0  0
    8.7111  -14.4591   27.7316 C   0  0  0  0  0  0  0  0  0  0  0  0
    8.1213  -15.5602   27.8244 O   0  0  0  0  0  0  0  0  0  0  0  0
    9.5889  -14.1072   28.7426 O   0  0  0  0  0  0  0  0  0  0  0  0
  2  1  1  6
  2  3  1  0
  4  2  1  0
  5  4  2  0
  6  4  1  0
  7 11  1  0
  7  6  1  0
  7  8  1  1
  9 10  2  0
  9  8  1  0
 11 14  1  0
 12 11  2  0
 13  9  1  0
 14 15  1  0
 14 18  1  0
 15 16  1  0
 16 17  1  0
 18 17  1  0
 18 19  1  1
 19 21  1  0
 20 19  2  0
M  END
$$$$
