ADP.pdb
     RDKit          3D

 21 21  0  0  1  0  0  0  0  0999 V2000
    7.0338  -19.8940   26.1068 C   0  0  0  0  0  0  0  0  0  0  0  0
    7.7224  -19.5520   24.7867 C   0  0  2  0  0  0  0  0  0  0  0  0
    9.0718  -20.1433   24.9275 N   0  0  0  0  0  0  0  0  0  0  0  0
    7.9290  -18.0818   24.7131 C   0  0  0  0  0  0  0  0  0  0  0  0
    8.6995  -17.4901   25.5439 O   0  0  0  0  0  0  0  0  0  0  0  0
    7.3191  -17.2323   23.7475 N   0  0  0  0  0  0  0  0  0  0  0  0
    7.5117  -15.7845   23.8158 C   0  0  1  0  0  0  0  0  0  0  0  0
    7.0753  -15.1888   22.4864 C   0  0  0  0  0  0  0  0  0  0  0  0
    7.9859  -15.5201   21.4059 C   0  0  0  0  0  0  0  0  0  0  0  0
    9.2075  -15.7396   21.5378 O   0  0  0  0  0  0  0  0  0  0  0  0
    6.8293  -15.1693   24.9759 C   0  0  0  0  0  0  0  0  0  0  0  0
    5.8309  -15.8097   25.5137 O   0  0  0  0  0  0  0  0  0  0  0  0
    7.5321  -15.6225   20.0619 O   0  0  0  0  0  0  0  0  0  0  0  0
    7.1325  -13.9364   25.5963 N   0  0  0  0  0  0  0  0  0  0  0  0
    8.1716  -13.0208   25.0448 C   0  0  0  0  0  0  0  0  0  0  0  0
    8.9677  -12.7835   26.3378 C   0  0  0  0  0  0  0  0  0  0  0  0
    7.8204  -12.4125   27.2641 C   0  0  0  0  0  0  0  0  0  0  0  0
    6.6386  -13.2641   26.7539 C   0  0  1  0  0  0  0  0  0  0  0  0
    5.5842  -12.2658   26.3702 C   0  0  0  0  0  0  0  0  0  0  0  0
    4.7823  -11.7650   27.1918 O   0  0  0  0  0  0  0  0  0  0  0  0
    5.4850  -11.8733   25.0465 O   0  0  0  0  0  0  0  0  0  0  0  0
  2  1  1  1
  2  3  1  0
  4  2  1  0
  5  4  2  0
  6  4  1  0
  7 11  1  0
  7  6  1  0
  7  8  1  6
  9 10  2  0
  9  8  1  0
 11 14  1  0
 12 11  2  0
 13  9  1  0
 14 15  1  0
 14 18  1  0
 15 16  1  0
 16 17  1  0
 18 17  1  0
 18 19  1  6
 19 21  1  0
 20 19  2  0
M  END
$$$$
