ADP.pdb
     RDKit          3D

 21 21  0  0  1  0  0  0  0  0999 V2000
    8.0410  -12.3946   19.2830 C   0  0  0  0  0  0  0  0  0  0  0  0
    8.3213  -13.8827   19.4848 C   0  0  2  0  0  0  0  0  0  0  0  0
    7.5724  -14.5361   18.3882 N   0  0  0  0  0  0  0  0  0  0  0  0
    7.6724  -14.3329   20.7442 C   0  0  0  0  0  0  0  0  0  0  0  0
    6.5473  -14.9390   20.7164 O   0  0  0  0  0  0  0  0  0  0  0  0
    8.2230  -14.1450   22.0432 N   0  0  0  0  0  0  0  0  0  0  0  0
    7.6288  -14.8171   23.1979 C   0  0  1  0  0  0  0  0  0  0  0  0
    7.5383  -16.3020   22.8825 C   0  0  0  0  0  0  0  0  0  0  0  0
    7.0546  -17.0786   24.0091 C   0  0  0  0  0  0  0  0  0  0  0  0
    7.7768  -17.6880   24.8246 O   0  0  0  0  0  0  0  0  0  0  0  0
    8.3516  -14.5376   24.4586 C   0  0  0  0  0  0  0  0  0  0  0  0
    9.6233  -14.8131   24.5134 O   0  0  0  0  0  0  0  0  0  0  0  0
    5.6635  -17.2065   24.2760 O   0  0  0  0  0  0  0  0  0  0  0  0
    7.8222  -13.9910   25.6494 N   0  0  0  0  0  0  0  0  0  0  0  0
    6.3542  -13.8196   25.8433 C   0  0  0  0  0  0  0  0  0  0  0  0
    6.3593  -12.3501   26.2931 C   0  0  0  0  0  0  0  0  0  0  0  0
    7.4217  -12.4326   27.3779 C   0  0  0  0  0  0  0  0  0  0  0  0
    8.4039  -13.5034   26.8576 C   0  0  1  0  0  0  0  0  0  0  0  0
    8.3977  -14.5736   27.9113 C   0  0  0  0  0  0  0  0  0  0  0  0
    7.7041  -15.6132   27.8292 O   0  0  0  0  0  0  0  0  0  0  0  0
    9.1939  -14.4128   29.0323 O   0  0  0  0  0  0  0  0  0  0  0  0
  2  1  1  6
  2  3  1  0
  4  2  1  0
  5  4  2  0
  6  4  1  0
  7 11  1  0
  7  6  1  0
  7  8  1  6
  9 10  2  0
  9  8  1  0
 11 14  1  0
 12 11  2  0
 13  9  1  0
 14 15  1  0
 14 18  1  0
 15 16  1  0
 16 17  1  0
 18 17  1  0
 18 19  1  1
 19 21  1  0
 20 19  2  0
M  END
$$$$
