ADP.pdb
     RDKit          3D

 21 21  0  0  1  0  0  0  0  0999 V2000
   11.5752  -17.9245   25.4727 C   0  0  0  0  0  0  0  0  0  0  0  0
   11.3892  -17.5224   24.0106 C   0  0  2  0  0  0  0  0  0  0  0  0
   12.7576  -17.1849   23.5592 N   0  0  0  0  0  0  0  0  0  0  0  0
   10.6171  -16.2536   23.9501 C   0  0  0  0  0  0  0  0  0  0  0  0
   11.1584  -15.1454   24.2861 O   0  0  0  0  0  0  0  0  0  0  0  0
    9.2624  -16.1572   23.5243 N   0  0  0  0  0  0  0  0  0  0  0  0
    8.5616  -14.8753   23.5865 C   0  0  1  0  0  0  0  0  0  0  0  0
    7.3158  -14.9781   22.7205 C   0  0  0  0  0  0  0  0  0  0  0  0
    7.6172  -15.4002   21.3651 C   0  0  0  0  0  0  0  0  0  0  0  0
    7.1115  -16.3860   20.7904 O   0  0  0  0  0  0  0  0  0  0  0  0
    8.2675  -14.4494   24.9729 C   0  0  0  0  0  0  0  0  0  0  0  0
    8.6231  -15.2367   25.9475 O   0  0  0  0  0  0  0  0  0  0  0  0
    8.5507  -14.6905   20.5602 O   0  0  0  0  0  0  0  0  0  0  0  0
    7.6307  -13.2584   25.3889 N   0  0  0  0  0  0  0  0  0  0  0  0
    7.1570  -12.2432   24.4056 C   0  0  0  0  0  0  0  0  0  0  0  0
    7.7988  -11.0005   25.0423 C   0  0  0  0  0  0  0  0  0  0  0  0
    7.3155  -11.1839   26.4723 C   0  0  0  0  0  0  0  0  0  0  0  0
    7.2839  -12.7153   26.6619 C   0  0  1  0  0  0  0  0  0  0  0  0
    5.8538  -13.0310   26.9945 C   0  0  0  0  0  0  0  0  0  0  0  0
    5.3399  -12.7904   28.1111 O   0  0  0  0  0  0  0  0  0  0  0  0
    5.0558  -13.6167   26.0267 O   0  0  0  0  0  0  0  0  0  0  0  0
  2  1  1  1
  2  3  1  0
  4  2  1  0
  5  4  2  0
  6  4  1  0
  7 11  1  0
  7  6  1  0
  7  8  1  6
  9 10  2  0
  9  8  1  0
 11 14  1  0
 12 11  2  0
 13  9  1  0
 14 15  1  0
 14 18  1  0
 15 16  1  0
 16 17  1  0
 18 17  1  0
 18 19  1  6
 19 21  1  0
 20 19  2  0
M  END
$$$$
