ADP.pdb
     RDKit          3D

 21 21  0  0  1  0  0  0  0  0999 V2000
    8.6518  -12.9989   16.8305 C   0  0  0  0  0  0  0  0  0  0  0  0
    8.7870  -14.4796   16.4797 C   0  0  2  0  0  0  0  0  0  0  0  0
    7.6150  -14.7477   15.6167 N   0  0  0  0  0  0  0  0  0  0  0  0
    8.5806  -15.2908   17.7082 C   0  0  0  0  0  0  0  0  0  0  0  0
    7.4120  -15.4317   18.2067 O   0  0  0  0  0  0  0  0  0  0  0  0
    9.6199  -15.9631   18.4109 N   0  0  0  0  0  0  0  0  0  0  0  0
    9.3346  -16.6384   19.6761 C   0  0  1  0  0  0  0  0  0  0  0  0
    9.9002  -18.0476   19.5949 C   0  0  0  0  0  0  0  0  0  0  0  0
    9.2339  -18.8543   18.5891 C   0  0  0  0  0  0  0  0  0  0  0  0
    8.1212  -19.4024   18.7291 O   0  0  0  0  0  0  0  0  0  0  0  0
    9.8265  -15.8856   20.8514 C   0  0  0  0  0  0  0  0  0  0  0  0
   10.9643  -15.2602   20.7500 O   0  0  0  0  0  0  0  0  0  0  0  0
    9.8265  -19.0884   17.3175 O   0  0  0  0  0  0  0  0  0  0  0  0
    9.1989  -15.7527   22.1105 N   0  0  0  0  0  0  0  0  0  0  0  0
    7.8707  -16.3697   22.3887 C   0  0  0  0  0  0  0  0  0  0  0  0
    7.1679  -15.1323   22.9691 C   0  0  0  0  0  0  0  0  0  0  0  0
    8.2148  -14.7157   23.9902 C   0  0  0  0  0  0  0  0  0  0  0  0
    9.5551  -15.1012   23.3290 C   0  0  1  0  0  0  0  0  0  0  0  0
   10.1852  -16.0774   24.2806 C   0  0  0  0  0  0  0  0  0  0  0  0
    9.9997  -17.3145   24.2171 O   0  0  0  0  0  0  0  0  0  0  0  0
   11.0132  -15.5970   25.2805 O   0  0  0  0  0  0  0  0  0  0  0  0
  2  1  1  1
  2  3  1  0
  4  2  1  0
  5  4  2  0
  6  4  1  0
  7 11  1  0
  7  6  1  0
  7  8  1  6
  9 10  2  0
  9  8  1  0
 11 14  1  0
 12 11  2  0
 13  9  1  0
 14 15  1  0
 14 18  1  0
 15 16  1  0
 16 17  1  0
 18 17  1  0
 18 19  1  1
 19 21  1  0
 20 19  2  0
M  END
$$$$
