ADP.pdb
     RDKit          3D

 21 21  0  0  1  0  0  0  0  0999 V2000
    8.3173  -12.4740   19.6899 C   0  0  0  0  0  0  0  0  0  0  0  0
    8.1344  -13.9880   19.7799 C   0  0  2  0  0  0  0  0  0  0  0  0
    7.0503  -14.2719   18.8134 N   0  0  0  0  0  0  0  0  0  0  0  0
    7.5861  -14.3325   21.1180 C   0  0  0  0  0  0  0  0  0  0  0  0
    6.3710  -14.0658   21.4120 O   0  0  0  0  0  0  0  0  0  0  0  0
    8.3294  -14.9702   22.1508 N   0  0  0  0  0  0  0  0  0  0  0  0
    7.7212  -15.1984   23.4608 C   0  0  1  0  0  0  0  0  0  0  0  0
    7.6688  -16.6993   23.6998 C   0  0  0  0  0  0  0  0  0  0  0  0
    6.8571  -17.3887   22.7137 C   0  0  0  0  0  0  0  0  0  0  0  0
    5.6288  -17.2316   22.5575 O   0  0  0  0  0  0  0  0  0  0  0  0
    8.4074  -14.4644   24.5472 C   0  0  0  0  0  0  0  0  0  0  0  0
    9.6861  -14.2462   24.4309 O   0  0  0  0  0  0  0  0  0  0  0  0
    7.4277  -18.3333   21.8165 O   0  0  0  0  0  0  0  0  0  0  0  0
    7.8345  -13.9518   25.7329 N   0  0  0  0  0  0  0  0  0  0  0  0
    6.3673  -14.0269   25.9857 C   0  0  0  0  0  0  0  0  0  0  0  0
    6.1310  -12.5559   26.3624 C   0  0  0  0  0  0  0  0  0  0  0  0
    7.2306  -12.3918   27.3999 C   0  0  0  0  0  0  0  0  0  0  0  0
    8.3656  -13.3037   26.8878 C   0  0  1  0  0  0  0  0  0  0  0  0
    8.5862  -14.2978   27.9918 C   0  0  0  0  0  0  0  0  0  0  0  0
    9.2272  -14.0336   29.0349 O   0  0  0  0  0  0  0  0  0  0  0  0
    8.0597  -15.5713   27.8600 O   0  0  0  0  0  0  0  0  0  0  0  0
  2  1  1  1
  2  3  1  0
  4  2  1  0
  5  4  2  0
  6  4  1  0
  7 11  1  0
  7  6  1  0
  7  8  1  1
  9 10  2  0
  9  8  1  0
 11 14  1  0
 12 11  2  0
 13  9  1  0
 14 15  1  0
 14 18  1  0
 15 16  1  0
 16 17  1  0
 18 17  1  0
 18 19  1  1
 19 21  1  0
 20 19  2  0
M  END
$$$$
