ADP.pdb
     RDKit          3D

 21 21  0  0  1  0  0  0  0  0999 V2000
    8.4668  -12.2967   19.4482 C   0  0  0  0  0  0  0  0  0  0  0  0
    8.3064  -13.8159   19.4568 C   0  0  2  0  0  0  0  0  0  0  0  0
    7.3061  -14.0725   18.3968 N   0  0  0  0  0  0  0  0  0  0  0  0
    7.6627  -14.2293   20.7313 C   0  0  0  0  0  0  0  0  0  0  0  0
    6.4908  -14.7401   20.7331 O   0  0  0  0  0  0  0  0  0  0  0  0
    8.2677  -14.1063   22.0138 N   0  0  0  0  0  0  0  0  0  0  0  0
    7.7008  -14.8080   23.1646 C   0  0  1  0  0  0  0  0  0  0  0  0
    7.7317  -16.2992   22.8680 C   0  0  0  0  0  0  0  0  0  0  0  0
    7.3018  -17.0979   24.0010 C   0  0  0  0  0  0  0  0  0  0  0  0
    6.1200  -17.2282   24.3810 O   0  0  0  0  0  0  0  0  0  0  0  0
    8.3714  -14.4584   24.4366 C   0  0  0  0  0  0  0  0  0  0  0  0
    9.6609  -14.6215   24.5181 O   0  0  0  0  0  0  0  0  0  0  0  0
    8.2363  -17.8199   24.7935 O   0  0  0  0  0  0  0  0  0  0  0  0
    7.7728  -13.9524   25.6125 N   0  0  0  0  0  0  0  0  0  0  0  0
    6.2919  -13.9132   25.7788 C   0  0  0  0  0  0  0  0  0  0  0  0
    6.1558  -12.4457   26.2143 C   0  0  0  0  0  0  0  0  0  0  0  0
    7.2011  -12.4227   27.3184 C   0  0  0  0  0  0  0  0  0  0  0  0
    8.2856  -13.4043   26.8260 C   0  0  1  0  0  0  0  0  0  0  0  0
    8.3568  -14.4620   27.8898 C   0  0  0  0  0  0  0  0  0  0  0  0
    7.7441  -15.5520   27.8157 O   0  0  0  0  0  0  0  0  0  0  0  0
    9.1347  -14.2311   29.0113 O   0  0  0  0  0  0  0  0  0  0  0  0
  2  1  1  1
  2  3  1  0
  4  2  1  0
  5  4  2  0
  6  4  1  0
  7 11  1  0
  7  6  1  0
  7  8  1  6
  9 10  2  0
  9  8  1  0
 11 14  1  0
 12 11  2  0
 13  9  1  0
 14 15  1  0
 14 18  1  0
 15 16  1  0
 16 17  1  0
 18 17  1  0
 18 19  1  1
 19 21  1  0
 20 19  2  0
M  END
$$$$
