ADP.pdb
     RDKit          3D

 21 21  0  0  1  0  0  0  0  0999 V2000
    4.4390  -17.4051   21.4528 C   0  0  0  0  0  0  0  0  0  0  0  0
    5.8518  -17.9673   21.5999 C   0  0  2  0  0  0  0  0  0  0  0  0
    5.6328  -19.3872   21.9551 N   0  0  0  0  0  0  0  0  0  0  0  0
    6.5005  -17.3476   22.7852 C   0  0  0  0  0  0  0  0  0  0  0  0
    5.9987  -17.4922   23.9519 O   0  0  0  0  0  0  0  0  0  0  0  0
    7.6938  -16.5735   22.7348 N   0  0  0  0  0  0  0  0  0  0  0  0
    8.1465  -15.8425   23.9175 C   0  0  1  0  0  0  0  0  0  0  0  0
    9.6474  -15.6313   23.7939 C   0  0  0  0  0  0  0  0  0  0  0  0
   10.3849  -16.8812   23.8062 C   0  0  0  0  0  0  0  0  0  0  0  0
   10.5149  -17.6290   24.7971 O   0  0  0  0  0  0  0  0  0  0  0  0
    7.4018  -14.5817   24.1321 C   0  0  0  0  0  0  0  0  0  0  0  0
    6.8500  -14.0093   23.1006 O   0  0  0  0  0  0  0  0  0  0  0  0
   11.0408  -17.3640   22.6401 O   0  0  0  0  0  0  0  0  0  0  0  0
    7.2049  -13.8974   25.3527 N   0  0  0  0  0  0  0  0  0  0  0  0
    7.6782  -14.4624   26.6484 C   0  0  0  0  0  0  0  0  0  0  0  0
    6.3741  -14.3097   27.4471 C   0  0  0  0  0  0  0  0  0  0  0  0
    6.0720  -12.8512   27.1412 C   0  0  0  0  0  0  0  0  0  0  0  0
    6.5962  -12.6553   25.7029 C   0  0  1  0  0  0  0  0  0  0  0  0
    7.6348  -11.5765   25.8170 C   0  0  0  0  0  0  0  0  0  0  0  0
    8.8604  -11.8125   25.9221 O   0  0  0  0  0  0  0  0  0  0  0  0
    7.2284  -10.2533   25.8067 O   0  0  0  0  0  0  0  0  0  0  0  0
  2  1  1  1
  2  3  1  0
  4  2  1  0
  5  4  2  0
  6  4  1  0
  7 11  1  0
  7  6  1  0
  7  8  1  6
  9 10  2  0
  9  8  1  0
 11 14  1  0
 12 11  2  0
 13  9  1  0
 14 15  1  0
 14 18  1  0
 15 16  1  0
 16 17  1  0
 18 17  1  0
 18 19  1  1
 19 21  1  0
 20 19  2  0
M  END
$$$$
