ADP.pdb
     RDKit          3D

 21 21  0  0  1  0  0  0  0  0999 V2000
    8.1186  -12.3124   19.7111 C   0  0  0  0  0  0  0  0  0  0  0  0
    8.2338  -13.8346   19.7703 C   0  0  2  0  0  0  0  0  0  0  0  0
    7.2256  -14.3044   18.7940 N   0  0  0  0  0  0  0  0  0  0  0  0
    7.7628  -14.3062   21.0990 C   0  0  0  0  0  0  0  0  0  0  0  0
    6.5342  -14.1917   21.4326 O   0  0  0  0  0  0  0  0  0  0  0  0
    8.5992  -14.9097   22.0799 N   0  0  0  0  0  0  0  0  0  0  0  0
    8.0494  -15.2942   23.3791 C   0  0  1  0  0  0  0  0  0  0  0  0
    8.1645  -16.8049   23.5099 C   0  0  0  0  0  0  0  0  0  0  0  0
    7.7320  -17.4988   22.3109 C   0  0  0  0  0  0  0  0  0  0  0  0
    6.5482  -17.6046   21.9296 O   0  0  0  0  0  0  0  0  0  0  0  0
    8.6771  -14.5676   24.5052 C   0  0  0  0  0  0  0  0  0  0  0  0
    9.9555  -14.3263   24.4460 O   0  0  0  0  0  0  0  0  0  0  0  0
    8.6660  -18.1355   21.4477 O   0  0  0  0  0  0  0  0  0  0  0  0
    8.0466  -14.0850   25.6741 N   0  0  0  0  0  0  0  0  0  0  0  0
    6.5791  -14.2362   25.8876 C   0  0  0  0  0  0  0  0  0  0  0  0
    6.2565  -12.7793   26.2551 C   0  0  0  0  0  0  0  0  0  0  0  0
    7.3179  -12.5576   27.3213 C   0  0  0  0  0  0  0  0  0  0  0  0
    8.5121  -13.4095   26.8416 C   0  0  1  0  0  0  0  0  0  0  0  0
    8.7545  -14.3902   27.9529 C   0  0  0  0  0  0  0  0  0  0  0  0
    9.3857  -14.1029   28.9959 O   0  0  0  0  0  0  0  0  0  0  0  0
    8.2603  -15.6773   27.8286 O   0  0  0  0  0  0  0  0  0  0  0  0
  2  1  1  1
  2  3  1  0
  4  2  1  0
  5  4  2  0
  6  4  1  0
  7 11  1  0
  7  6  1  0
  7  8  1  1
  9 10  2  0
  9  8  1  0
 11 14  1  0
 12 11  2  0
 13  9  1  0
 14 15  1  0
 14 18  1  0
 15 16  1  0
 16 17  1  0
 18 17  1  0
 18 19  1  1
 19 21  1  0
 20 19  2  0
M  END
$$$$
