ADP.pdb
     RDKit          3D

 21 21  0  0  1  0  0  0  0  0999 V2000
    7.1970  -12.8691   19.2193 C   0  0  0  0  0  0  0  0  0  0  0  0
    8.3896  -13.2822   20.0800 C   0  0  2  0  0  0  0  0  0  0  0  0
    8.9077  -14.4951   19.4086 N   0  0  0  0  0  0  0  0  0  0  0  0
    7.8973  -13.7324   21.4084 C   0  0  0  0  0  0  0  0  0  0  0  0
    7.2194  -12.9446   22.1527 O   0  0  0  0  0  0  0  0  0  0  0  0
    8.1198  -15.0297   21.9501 N   0  0  0  0  0  0  0  0  0  0  0  0
    7.5848  -15.3789   23.2653 C   0  0  1  0  0  0  0  0  0  0  0  0
    7.3716  -16.8841   23.3017 C   0  0  0  0  0  0  0  0  0  0  0  0
    6.9904  -17.3574   24.6196 C   0  0  0  0  0  0  0  0  0  0  0  0
    7.7736  -17.5254   25.5769 O   0  0  0  0  0  0  0  0  0  0  0  0
    8.4298  -14.8884   24.3768 C   0  0  0  0  0  0  0  0  0  0  0  0
    9.7166  -15.0737   24.3000 O   0  0  0  0  0  0  0  0  0  0  0  0
    5.6394  -17.6777   24.9279 O   0  0  0  0  0  0  0  0  0  0  0  0
    8.0061  -14.2219   25.5486 N   0  0  0  0  0  0  0  0  0  0  0  0
    6.5606  -14.0185   25.8505 C   0  0  0  0  0  0  0  0  0  0  0  0
    6.6058  -12.5118   26.1500 C   0  0  0  0  0  0  0  0  0  0  0  0
    7.7583  -12.4965   27.1419 C   0  0  0  0  0  0  0  0  0  0  0  0
    8.6908  -13.6227   26.6477 C   0  0  1  0  0  0  0  0  0  0  0  0
    8.7754  -14.5832   27.7991 C   0  0  0  0  0  0  0  0  0  0  0  0
    8.0875  -15.6273   27.8734 O   0  0  0  0  0  0  0  0  0  0  0  0
    9.6532  -14.3107   28.8342 O   0  0  0  0  0  0  0  0  0  0  0  0
  2  1  1  6
  2  3  1  0
  4  2  1  0
  5  4  2  0
  6  4  1  0
  7 11  1  0
  7  6  1  0
  7  8  1  6
  9 10  2  0
  9  8  1  0
 11 14  1  0
 12 11  2  0
 13  9  1  0
 14 15  1  0
 14 18  1  0
 15 16  1  0
 16 17  1  0
 18 17  1  0
 18 19  1  1
 19 21  1  0
 20 19  2  0
M  END
$$$$
