ADP.pdb
     RDKit          3D

 21 21  0  0  1  0  0  0  0  0999 V2000
    7.2275  -13.0447   19.1399 C   0  0  0  0  0  0  0  0  0  0  0  0
    8.3685  -13.2627   20.1320 C   0  0  2  0  0  0  0  0  0  0  0  0
    9.1518  -14.3668   19.5340 N   0  0  0  0  0  0  0  0  0  0  0  0
    7.8126  -13.8004   21.4015 C   0  0  0  0  0  0  0  0  0  0  0  0
    7.0141  -13.0987   22.1114 O   0  0  0  0  0  0  0  0  0  0  0  0
    8.1002  -15.0944   21.9200 N   0  0  0  0  0  0  0  0  0  0  0  0
    7.6408  -15.4697   23.2564 C   0  0  1  0  0  0  0  0  0  0  0  0
    7.6775  -16.9866   23.3575 C   0  0  0  0  0  0  0  0  0  0  0  0
    7.3724  -17.4597   24.6952 C   0  0  0  0  0  0  0  0  0  0  0  0
    6.2411  -17.4435   25.2224 O   0  0  0  0  0  0  0  0  0  0  0  0
    8.4035  -14.8007   24.3338 C   0  0  0  0  0  0  0  0  0  0  0  0
    9.7029  -14.7807   24.2473 O   0  0  0  0  0  0  0  0  0  0  0  0
    8.3840  -17.9985   25.5373 O   0  0  0  0  0  0  0  0  0  0  0  0
    7.8861  -14.1586   25.4813 N   0  0  0  0  0  0  0  0  0  0  0  0
    6.4240  -14.1388   25.7711 C   0  0  0  0  0  0  0  0  0  0  0  0
    6.2672  -12.6305   26.0208 C   0  0  0  0  0  0  0  0  0  0  0  0
    7.3996  -12.4306   27.0157 C   0  0  0  0  0  0  0  0  0  0  0  0
    8.4768  -13.4388   26.5624 C   0  0  1  0  0  0  0  0  0  0  0  0
    8.6784  -14.3419   27.7453 C   0  0  0  0  0  0  0  0  0  0  0  0
    9.3433  -14.0126   28.7544 O   0  0  0  0  0  0  0  0  0  0  0  0
    8.1059  -15.6022   27.7297 O   0  0  0  0  0  0  0  0  0  0  0  0
  2  1  1  6
  2  3  1  0
  4  2  1  0
  5  4  2  0
  6  4  1  0
  7 11  1  0
  7  6  1  0
  7  8  1  1
  9 10  2  0
  9  8  1  0
 11 14  1  0
 12 11  2  0
 13  9  1  0
 14 15  1  0
 14 18  1  0
 15 16  1  0
 16 17  1  0
 18 17  1  0
 18 19  1  1
 19 21  1  0
 20 19  2  0
M  END
$$$$
