ADP.pdb
     RDKit          3D

 21 21  0  0  1  0  0  0  0  0999 V2000
    8.7116  -12.4243   19.8962 C   0  0  0  0  0  0  0  0  0  0  0  0
    8.2354  -13.8757   19.8726 C   0  0  2  0  0  0  0  0  0  0  0  0
    7.0835  -13.8556   18.9437 N   0  0  0  0  0  0  0  0  0  0  0  0
    7.6766  -14.2255   21.2050 C   0  0  0  0  0  0  0  0  0  0  0  0
    6.5859  -13.6979   21.6124 O   0  0  0  0  0  0  0  0  0  0  0  0
    8.2750  -15.1464   22.1104 N   0  0  0  0  0  0  0  0  0  0  0  0
    7.7030  -15.3460   23.4412 C   0  0  1  0  0  0  0  0  0  0  0  0
    7.6031  -16.8428   23.6904 C   0  0  0  0  0  0  0  0  0  0  0  0
    6.5734  -17.4707   22.8831 C   0  0  0  0  0  0  0  0  0  0  0  0
    5.4250  -17.0161   22.7026 O   0  0  0  0  0  0  0  0  0  0  0  0
    8.4519  -14.6331   24.5000 C   0  0  0  0  0  0  0  0  0  0  0  0
    9.7291  -14.4435   24.3296 O   0  0  0  0  0  0  0  0  0  0  0  0
    6.8090  -18.7019   22.2111 O   0  0  0  0  0  0  0  0  0  0  0  0
    7.9423  -14.1136   25.7113 N   0  0  0  0  0  0  0  0  0  0  0  0
    6.4951  -14.2131   26.0548 C   0  0  0  0  0  0  0  0  0  0  0  0
    6.2526  -12.7412   26.4245 C   0  0  0  0  0  0  0  0  0  0  0  0
    7.4101  -12.5401   27.3899 C   0  0  0  0  0  0  0  0  0  0  0  0
    8.5299  -13.4377   26.8221 C   0  0  1  0  0  0  0  0  0  0  0  0
    8.8376  -14.4102   27.9244 C   0  0  0  0  0  0  0  0  0  0  0  0
    8.3482  -15.5619   27.9796 O   0  0  0  0  0  0  0  0  0  0  0  0
    9.7031  -14.0251   28.9337 O   0  0  0  0  0  0  0  0  0  0  0  0
  2  1  1  1
  2  3  1  0
  4  2  1  0
  5  4  2  0
  6  4  1  0
  7 11  1  0
  7  6  1  0
  7  8  1  1
  9 10  2  0
  9  8  1  0
 11 14  1  0
 12 11  2  0
 13  9  1  0
 14 15  1  0
 14 18  1  0
 15 16  1  0
 16 17  1  0
 18 17  1  0
 18 19  1  1
 19 21  1  0
 20 19  2  0
M  END
$$$$
