WKS.pdb
     RDKit          3D

 30 31  0  0  1  0  0  0  0  0999 V2000
    6.1208  -17.6215   24.3222 N   0  0  0  0  0  0  0  0  0  0  0  0
    6.9526  -16.5113   23.9325 C   0  0  1  0  0  0  0  0  0  0  0  0
    7.8155  -16.0825   25.0647 C   0  0  0  0  0  0  0  0  0  0  0  0
    7.1311  -15.0413   25.8636 C   0  0  0  0  0  0  0  0  0  0  0  0
    6.1377  -15.2414   26.8242 C   0  0  0  0  0  0  0  0  0  0  0  0
    5.7808  -14.0680   27.3670 N   0  0  0  0  0  0  0  0  0  0  0  0
    6.5185  -13.1247   26.7788 C   0  0  0  0  0  0  0  0  0  0  0  0
    6.5221  -11.7692   26.9790 C   0  0  0  0  0  0  0  0  0  0  0  0
    7.3668  -10.9600   26.2497 C   0  0  0  0  0  0  0  0  0  0  0  0
    8.2250  -11.4803   25.3062 C   0  0  0  0  0  0  0  0  0  0  0  0
    8.1988  -12.8671   25.1245 C   0  0  0  0  0  0  0  0  0  0  0  0
    7.3701  -13.6865   25.8379 C   0  0  0  0  0  0  0  0  0  0  0  0
    7.7158  -16.9231   22.7314 C   0  0  0  0  0  0  0  0  0  0  0  0
    7.9147  -18.1266   22.4352 O   0  0  0  0  0  0  0  0  0  0  0  0
    8.2327  -15.9030   21.8964 N   0  0  0  0  0  0  0  0  0  0  0  0
    9.0049  -16.1386   20.7018 C   0  0  1  0  0  0  0  0  0  0  0  0
    9.0524  -14.7888   19.9641 C   0  0  0  0  0  0  0  0  0  0  0  0
    7.9013  -14.6315   19.0363 C   0  0  0  0  0  0  0  0  0  0  0  0
    8.3595  -14.0130   17.7482 C   0  0  0  0  0  0  0  0  0  0  0  0
    7.2537  -13.7834   16.7726 C   0  0  0  0  0  0  0  0  0  0  0  0
    7.8121  -13.2163   15.5420 N   0  0  0  0  0  0  0  0  0  0  0  0
   10.4030  -16.4048   21.1044 C   0  0  0  0  0  0  0  0  0  0  0  0
   10.9441  -15.5983   21.9131 O   0  0  0  0  0  0  0  0  0  0  0  0
   12.1980  -19.8017   20.3507 O   0  0  0  0  0  0  0  0  0  0  0  0
   12.8245  -19.0616   21.3583 C   0  0  0  0  0  0  0  0  0  0  0  0
   12.5471  -17.5925   21.0291 C   0  0  2  0  0  0  0  0  0  0  0  0
   11.1594  -17.4904   20.6459 N   0  0  0  0  0  0  0  0  0  0  0  0
   13.4597  -17.0940   19.9963 C   0  0  0  0  0  0  0  0  0  0  0  0
   14.8242  -17.1031   20.1931 O   0  0  0  0  0  0  0  0  0  0  0  0
   13.0063  -16.6533   18.9212 O   0  0  0  0  0  0  0  0  0  0  0  0
  2 13  1  0
  2  1  1  1
  3  2  1  0
  3  4  1  0
  4  5  2  0
  4 12  1  0
  5  6  1  0
  6  7  1  0
  7  8  2  0
  8  9  1  0
 10  9  2  0
 11 10  1  0
 12 11  2  0
 12  7  1  0
 13 14  2  0
 15 16  1  0
 15 13  1  0
 16 22  1  0
 16 17  1  6
 18 17  1  0
 19 18  1  0
 20 19  1  0
 21 20  1  0
 22 23  2  0
 24 25  1  0
 26 25  1  6
 26 28  1  0
 27 22  1  0
 27 26  1  0
 28 30  2  0
 28 29  1  0
M  END
$$$$
