WKS.pdb
     RDKit          3D

 30 31  0  0  1  0  0  0  0  0999 V2000
    6.3235  -17.5994   24.4493 N   0  0  0  0  0  0  0  0  0  0  0  0
    7.0477  -16.4310   24.0173 C   0  0  1  0  0  0  0  0  0  0  0  0
    7.8552  -15.8742   25.1347 C   0  0  0  0  0  0  0  0  0  0  0  0
    7.0712  -14.8618   25.8771 C   0  0  0  0  0  0  0  0  0  0  0  0
    5.9783  -15.0977   26.7137 C   0  0  0  0  0  0  0  0  0  0  0  0
    5.5470  -13.9428   27.2422 N   0  0  0  0  0  0  0  0  0  0  0  0
    6.3340  -12.9767   26.7655 C   0  0  0  0  0  0  0  0  0  0  0  0
    6.2971  -11.6270   26.9993 C   0  0  0  0  0  0  0  0  0  0  0  0
    7.2080  -10.7901   26.3912 C   0  0  0  0  0  0  0  0  0  0  0  0
    8.1741  -11.2761   25.5380 C   0  0  0  0  0  0  0  0  0  0  0  0
    8.1868  -12.6578   25.3193 C   0  0  0  0  0  0  0  0  0  0  0  0
    7.2937  -13.5044   25.9132 C   0  0  0  0  0  0  0  0  0  0  0  0
    7.8578  -16.8164   22.8384 C   0  0  0  0  0  0  0  0  0  0  0  0
    8.3632  -17.9580   22.7079 O   0  0  0  0  0  0  0  0  0  0  0  0
    8.0578  -15.8439   21.8288 N   0  0  0  0  0  0  0  0  0  0  0  0
    8.9956  -15.9763   20.7417 C   0  0  1  0  0  0  0  0  0  0  0  0
    9.0068  -14.6101   20.0331 C   0  0  0  0  0  0  0  0  0  0  0  0
    8.2441  -14.6491   18.7574 C   0  0  0  0  0  0  0  0  0  0  0  0
    8.2212  -13.2864   18.1297 C   0  0  0  0  0  0  0  0  0  0  0  0
    7.4597  -13.2354   16.8472 C   0  0  0  0  0  0  0  0  0  0  0  0
    8.0910  -14.1376   15.8802 N   0  0  0  0  0  0  0  0  0  0  0  0
   10.3498  -16.1197   21.3190 C   0  0  0  0  0  0  0  0  0  0  0  0
   10.6544  -15.3735   22.2925 O   0  0  0  0  0  0  0  0  0  0  0  0
   14.0684  -18.4984   22.6173 O   0  0  0  0  0  0  0  0  0  0  0  0
   12.7571  -18.4469   22.1344 C   0  0  0  0  0  0  0  0  0  0  0  0
   12.6053  -17.0668   21.4892 C   0  0  2  0  0  0  0  0  0  0  0  0
   11.3098  -17.0272   20.8544 N   0  0  0  0  0  0  0  0  0  0  0  0
   13.7026  -16.7876   20.5587 C   0  0  0  0  0  0  0  0  0  0  0  0
   14.9930  -16.6221   21.0151 O   0  0  0  0  0  0  0  0  0  0  0  0
   13.4770  -16.6962   19.3355 O   0  0  0  0  0  0  0  0  0  0  0  0
  2 13  1  0
  2  1  1  1
  3  2  1  0
  3  4  1  0
  4  5  2  0
  4 12  1  0
  5  6  1  0
  6  7  1  0
  7  8  2  0
  8  9  1  0
 10  9  2  0
 11 10  1  0
 12 11  2  0
 12  7  1  0
 13 14  2  0
 15 16  1  0
 15 13  1  0
 16 22  1  0
 16 17  1  6
 18 17  1  0
 19 18  1  0
 20 19  1  0
 21 20  1  0
 22 23  2  0
 24 25  1  0
 26 25  1  6
 26 28  1  0
 27 22  1  0
 27 26  1  0
 28 30  2  0
 28 29  1  0
M  END
$$$$
