WKS.pdb
     RDKit          3D

 30 31  0  0  1  0  0  0  0  0999 V2000
    6.6391  -18.1736   24.8703 N   0  0  0  0  0  0  0  0  0  0  0  0
    6.9838  -16.8729   24.3549 C   0  0  1  0  0  0  0  0  0  0  0  0
    7.7466  -16.0953   25.3668 C   0  0  0  0  0  0  0  0  0  0  0  0
    6.9137  -14.9939   25.8996 C   0  0  0  0  0  0  0  0  0  0  0  0
    5.6746  -15.1120   26.5324 C   0  0  0  0  0  0  0  0  0  0  0  0
    5.2360  -13.9028   26.9126 N   0  0  0  0  0  0  0  0  0  0  0  0
    6.1607  -13.0165   26.5394 C   0  0  0  0  0  0  0  0  0  0  0  0
    6.1757  -11.6549   26.6927 C   0  0  0  0  0  0  0  0  0  0  0  0
    7.2368  -10.9129   26.2199 C   0  0  0  0  0  0  0  0  0  0  0  0
    8.3046  -11.5076   25.5847 C   0  0  0  0  0  0  0  0  0  0  0  0
    8.2610  -12.8987   25.4435 C   0  0  0  0  0  0  0  0  0  0  0  0
    7.2193  -13.6523   25.9060 C   0  0  0  0  0  0  0  0  0  0  0  0
    7.7217  -17.0747   23.0862 C   0  0  0  0  0  0  0  0  0  0  0  0
    8.2492  -18.1709   22.7767 O   0  0  0  0  0  0  0  0  0  0  0  0
    7.8242  -15.9748   22.2004 N   0  0  0  0  0  0  0  0  0  0  0  0
    8.4780  -16.0188   20.9161 C   0  0  1  0  0  0  0  0  0  0  0  0
    8.1269  -14.6893   20.2247 C   0  0  0  0  0  0  0  0  0  0  0  0
    8.6515  -14.6404   18.8344 C   0  0  0  0  0  0  0  0  0  0  0  0
    7.9407  -13.5745   18.0534 C   0  0  0  0  0  0  0  0  0  0  0  0
    8.2614  -13.5916   16.5960 C   0  0  0  0  0  0  0  0  0  0  0  0
    7.5551  -12.4887   15.9382 N   0  0  0  0  0  0  0  0  0  0  0  0
    9.9384  -15.9591   21.1425 C   0  0  0  0  0  0  0  0  0  0  0  0
   10.6866  -15.8810   20.1269 O   0  0  0  0  0  0  0  0  0  0  0  0
   11.5954  -16.7250   24.6927 O   0  0  0  0  0  0  0  0  0  0  0  0
   12.3451  -15.7900   23.9722 C   0  0  0  0  0  0  0  0  0  0  0  0
   11.9789  -16.0075   22.5016 C   0  0  2  0  0  0  0  0  0  0  0  0
   10.5390  -15.9840   22.4073 N   0  0  0  0  0  0  0  0  0  0  0  0
   12.5621  -17.2479   21.9828 C   0  0  0  0  0  0  0  0  0  0  0  0
   13.9291  -17.4081   21.9027 O   0  0  0  0  0  0  0  0  0  0  0  0
   11.8208  -18.1773   21.6057 O   0  0  0  0  0  0  0  0  0  0  0  0
  2 13  1  0
  2  1  1  1
  3  2  1  0
  3  4  1  0
  4  5  2  0
  4 12  1  0
  5  6  1  0
  6  7  1  0
  7  8  2  0
  8  9  1  0
 10  9  2  0
 11 10  1  0
 12 11  2  0
 12  7  1  0
 13 14  2  0
 15 16  1  0
 15 13  1  0
 16 22  1  0
 16 17  1  6
 18 17  1  0
 19 18  1  0
 20 19  1  0
 21 20  1  0
 22 23  2  0
 24 25  1  0
 26 25  1  1
 26 28  1  0
 27 22  1  0
 27 26  1  0
 28 30  2  0
 28 29  1  0
M  END
$$$$
