WKS.pdb
     RDKit          3D

 30 31  0  0  1  0  0  0  0  0999 V2000
    6.2765  -17.7595   24.3899 N   0  0  0  0  0  0  0  0  0  0  0  0
    7.1581  -16.6731   24.0453 C   0  0  1  0  0  0  0  0  0  0  0  0
    7.8940  -16.1965   25.2460 C   0  0  0  0  0  0  0  0  0  0  0  0
    7.1364  -15.1147   25.9141 C   0  0  0  0  0  0  0  0  0  0  0  0
    6.0063  -15.2593   26.7215 C   0  0  0  0  0  0  0  0  0  0  0  0
    5.6147  -14.0619   27.1820 N   0  0  0  0  0  0  0  0  0  0  0  0
    6.4633  -13.1574   26.6903 C   0  0  0  0  0  0  0  0  0  0  0  0
    6.4847  -11.7981   26.8617 C   0  0  0  0  0  0  0  0  0  0  0  0
    7.4550  -11.0344   26.2489 C   0  0  0  0  0  0  0  0  0  0  0  0
    8.4238  -11.6049   25.4530 C   0  0  0  0  0  0  0  0  0  0  0  0
    8.3762  -12.9944   25.2973 C   0  0  0  0  0  0  0  0  0  0  0  0
    7.4237  -13.7691   25.8969 C   0  0  0  0  0  0  0  0  0  0  0  0
    8.0461  -17.1445   22.9572 C   0  0  0  0  0  0  0  0  0  0  0  0
    8.3460  -18.3537   22.8038 O   0  0  0  0  0  0  0  0  0  0  0  0
    8.5666  -16.1766   22.0644 N   0  0  0  0  0  0  0  0  0  0  0  0
    9.4899  -16.4647   20.9952 C   0  0  1  0  0  0  0  0  0  0  0  0
    9.5447  -15.1881   20.1373 C   0  0  0  0  0  0  0  0  0  0  0  0
    8.4179  -15.1309   19.1689 C   0  0  0  0  0  0  0  0  0  0  0  0
    8.5859  -13.9543   18.2529 C   0  0  0  0  0  0  0  0  0  0  0  0
    7.4268  -13.7438   17.3368 C   0  0  0  0  0  0  0  0  0  0  0  0
    7.6281  -12.4994   16.5895 N   0  0  0  0  0  0  0  0  0  0  0  0
   10.8428  -16.5923   21.5792 C   0  0  0  0  0  0  0  0  0  0  0  0
   11.2252  -15.6888   22.3759 O   0  0  0  0  0  0  0  0  0  0  0  0
   12.7138  -19.9071   21.7170 O   0  0  0  0  0  0  0  0  0  0  0  0
   13.3392  -18.9410   22.5114 C   0  0  0  0  0  0  0  0  0  0  0  0
   13.0650  -17.5990   21.8275 C   0  0  2  0  0  0  0  0  0  0  0  0
   11.7209  -17.6478   21.3040 N   0  0  0  0  0  0  0  0  0  0  0  0
   14.0659  -17.3094   20.7968 C   0  0  0  0  0  0  0  0  0  0  0  0
   15.4079  -17.2570   21.1081 O   0  0  0  0  0  0  0  0  0  0  0  0
   13.7095  -17.1058   19.6190 O   0  0  0  0  0  0  0  0  0  0  0  0
  2 13  1  0
  2  1  1  1
  3  2  1  0
  3  4  1  0
  4  5  2  0
  4 12  1  0
  5  6  1  0
  6  7  1  0
  7  8  2  0
  8  9  1  0
 10  9  2  0
 11 10  1  0
 12 11  2  0
 12  7  1  0
 13 14  2  0
 15 16  1  0
 15 13  1  0
 16 22  1  0
 16 17  1  6
 18 17  1  0
 19 18  1  0
 20 19  1  0
 21 20  1  0
 22 23  2  0
 24 25  1  0
 26 25  1  6
 26 28  1  0
 27 22  1  0
 27 26  1  0
 28 30  2  0
 28 29  1  0
M  END
$$$$
