WKS.pdb
     RDKit          3D

 30 31  0  0  1  0  0  0  0  0999 V2000
    6.4644  -17.6580   25.3632 N   0  0  0  0  0  0  0  0  0  0  0  0
    7.1480  -16.5328   24.7775 C   0  0  1  0  0  0  0  0  0  0  0  0
    8.2421  -16.0646   25.6685 C   0  0  0  0  0  0  0  0  0  0  0  0
    7.7335  -15.0403   26.6081 C   0  0  0  0  0  0  0  0  0  0  0  0
    7.3763  -15.2336   27.9441 C   0  0  0  0  0  0  0  0  0  0  0  0
    6.9944  -14.0696   28.4903 N   0  0  0  0  0  0  0  0  0  0  0  0
    7.0975  -13.1392   27.5396 C   0  0  0  0  0  0  0  0  0  0  0  0
    6.8180  -11.7990   27.5970 C   0  0  0  0  0  0  0  0  0  0  0  0
    6.9854  -11.0047   26.4830 C   0  0  0  0  0  0  0  0  0  0  0  0
    7.4335  -11.5250   25.2888 C   0  0  0  0  0  0  0  0  0  0  0  0
    7.7108  -12.8959   25.2613 C   0  0  0  0  0  0  0  0  0  0  0  0
    7.5526  -13.7001   26.3545 C   0  0  0  0  0  0  0  0  0  0  0  0
    7.6161  -16.9432   23.4331 C   0  0  0  0  0  0  0  0  0  0  0  0
    8.0605  -18.0922   23.1924 O   0  0  0  0  0  0  0  0  0  0  0  0
    7.5507  -15.9866   22.3913 N   0  0  0  0  0  0  0  0  0  0  0  0
    8.2450  -16.1010   21.1328 C   0  0  1  0  0  0  0  0  0  0  0  0
    7.8233  -14.8696   20.3115 C   0  0  0  0  0  0  0  0  0  0  0  0
    8.4005  -14.9018   18.9417 C   0  0  0  0  0  0  0  0  0  0  0  0
    7.8256  -13.7894   18.1148 C   0  0  0  0  0  0  0  0  0  0  0  0
    8.2264  -13.8481   16.6784 C   0  0  0  0  0  0  0  0  0  0  0  0
    7.4623  -12.8479   15.9278 N   0  0  0  0  0  0  0  0  0  0  0  0
    9.6901  -15.9153   21.3876 C   0  0  0  0  0  0  0  0  0  0  0  0
   10.0326  -15.4551   22.5138 O   0  0  0  0  0  0  0  0  0  0  0  0
   12.7895  -18.6590   22.0563 O   0  0  0  0  0  0  0  0  0  0  0  0
   11.5707  -18.0674   21.7099 C   0  0  0  0  0  0  0  0  0  0  0  0
   11.9304  -16.8006   20.9289 C   0  0  2  0  0  0  0  0  0  0  0  0
   10.6961  -16.2166   20.4614 N   0  0  0  0  0  0  0  0  0  0  0  0
   12.8691  -17.0909   19.8415 C   0  0  0  0  0  0  0  0  0  0  0  0
   12.4224  -17.5792   18.6321 O   0  0  0  0  0  0  0  0  0  0  0  0
   14.0907  -16.8974   20.0019 O   0  0  0  0  0  0  0  0  0  0  0  0
  2 13  1  0
  2  1  1  1
  3  2  1  0
  3  4  1  0
  4  5  2  0
  4 12  1  0
  5  6  1  0
  6  7  1  0
  7  8  2  0
  8  9  1  0
 10  9  2  0
 11 10  1  0
 12 11  2  0
 12  7  1  0
 13 14  2  0
 15 16  1  0
 15 13  1  0
 16 22  1  0
 16 17  1  6
 18 17  1  0
 19 18  1  0
 20 19  1  0
 21 20  1  0
 22 23  2  0
 24 25  1  0
 26 25  1  6
 26 28  1  0
 27 22  1  0
 27 26  1  0
 28 30  2  0
 28 29  1  0
M  END
$$$$
