WKS.pdb
     RDKit          3D

 30 31  0  0  1  0  0  0  0  0999 V2000
    6.5570  -18.0282   24.7339 N   0  0  0  0  0  0  0  0  0  0  0  0
    7.0317  -16.7212   24.3560 C   0  0  1  0  0  0  0  0  0  0  0  0
    7.7530  -16.0802   25.4870 C   0  0  0  0  0  0  0  0  0  0  0  0
    6.9384  -14.9839   26.0574 C   0  0  0  0  0  0  0  0  0  0  0  0
    5.6527  -15.0872   26.5923 C   0  0  0  0  0  0  0  0  0  0  0  0
    5.2471  -13.8923   27.0470 N   0  0  0  0  0  0  0  0  0  0  0  0
    6.2383  -13.0294   26.8164 C   0  0  0  0  0  0  0  0  0  0  0  0
    6.3083  -11.6885   27.0896 C   0  0  0  0  0  0  0  0  0  0  0  0
    7.4353  -10.9681   26.7565 C   0  0  0  0  0  0  0  0  0  0  0  0
    8.5160  -11.5645   26.1449 C   0  0  0  0  0  0  0  0  0  0  0  0
    8.4151  -12.9343   25.8792 C   0  0  0  0  0  0  0  0  0  0  0  0
    7.3075  -13.6663   26.2024 C   0  0  0  0  0  0  0  0  0  0  0  0
    7.8630  -16.8806   23.1401 C   0  0  0  0  0  0  0  0  0  0  0  0
    8.4294  -17.9609   22.8439 O   0  0  0  0  0  0  0  0  0  0  0  0
    8.0115  -15.7576   22.2906 N   0  0  0  0  0  0  0  0  0  0  0  0
    8.8735  -15.7157   21.1356 C   0  0  1  0  0  0  0  0  0  0  0  0
    8.5105  -14.4178   20.3923 C   0  0  0  0  0  0  0  0  0  0  0  0
    7.7593  -14.6963   19.1399 C   0  0  0  0  0  0  0  0  0  0  0  0
    8.3027  -13.8617   18.0175 C   0  0  0  0  0  0  0  0  0  0  0  0
    7.6107  -14.0931   16.7156 C   0  0  0  0  0  0  0  0  0  0  0  0
    8.1952  -13.2124   15.7006 N   0  0  0  0  0  0  0  0  0  0  0  0
   10.2611  -15.5128   21.6059 C   0  0  0  0  0  0  0  0  0  0  0  0
   10.4248  -14.9338   22.7173 O   0  0  0  0  0  0  0  0  0  0  0  0
   12.9791  -18.5716   22.5648 O   0  0  0  0  0  0  0  0  0  0  0  0
   11.9643  -17.6116   22.5010 C   0  0  0  0  0  0  0  0  0  0  0  0
   12.5124  -16.4847   21.6214 C   0  0  2  0  0  0  0  0  0  0  0  0
   11.3981  -15.9210   20.8978 N   0  0  0  0  0  0  0  0  0  0  0  0
   13.5784  -16.9657   20.7382 C   0  0  0  0  0  0  0  0  0  0  0  0
   13.3781  -17.0689   19.3780 O   0  0  0  0  0  0  0  0  0  0  0  0
   14.6854  -17.2889   21.2130 O   0  0  0  0  0  0  0  0  0  0  0  0
  2 13  1  0
  2  1  1  1
  3  2  1  0
  3  4  1  0
  4  5  2  0
  4 12  1  0
  5  6  1  0
  6  7  1  0
  7  8  2  0
  8  9  1  0
 10  9  2  0
 11 10  1  0
 12 11  2  0
 12  7  1  0
 13 14  2  0
 15 16  1  0
 15 13  1  0
 16 22  1  0
 16 17  1  6
 18 17  1  0
 19 18  1  0
 20 19  1  0
 21 20  1  0
 22 23  2  0
 24 25  1  0
 26 25  1  6
 26 28  1  0
 27 22  1  0
 27 26  1  0
 28 30  2  0
 28 29  1  0
M  END
$$$$
