WKS.pdb
     RDKit          3D

 30 31  0  0  1  0  0  0  0  0999 V2000
    6.6864  -17.6770   24.5416 N   0  0  0  0  0  0  0  0  0  0  0  0
    7.1605  -16.4426   23.9690 C   0  0  1  0  0  0  0  0  0  0  0  0
    7.9781  -15.6890   24.9559 C   0  0  0  0  0  0  0  0  0  0  0  0
    7.1186  -14.7725   25.7383 C   0  0  0  0  0  0  0  0  0  0  0  0
    6.0637  -15.1291   26.5808 C   0  0  0  0  0  0  0  0  0  0  0  0
    5.5396  -14.0332   27.1494 N   0  0  0  0  0  0  0  0  0  0  0  0
    6.2305  -12.9872   26.6925 C   0  0  0  0  0  0  0  0  0  0  0  0
    6.0775  -11.6537   26.9676 C   0  0  0  0  0  0  0  0  0  0  0  0
    6.9013  -10.7215   26.3739 C   0  0  0  0  0  0  0  0  0  0  0  0
    7.8938  -11.0945   25.4945 C   0  0  0  0  0  0  0  0  0  0  0  0
    8.0258  -12.4626   25.2339 C   0  0  0  0  0  0  0  0  0  0  0  0
    7.2203  -13.4023   25.8128 C   0  0  0  0  0  0  0  0  0  0  0  0
    7.8953  -16.7779   22.7270 C   0  0  0  0  0  0  0  0  0  0  0  0
    8.5576  -17.8363   22.5968 O   0  0  0  0  0  0  0  0  0  0  0  0
    7.8348  -15.8548   21.6550 N   0  0  0  0  0  0  0  0  0  0  0  0
    8.5751  -15.9828   20.4244 C   0  0  1  0  0  0  0  0  0  0  0  0
    8.1136  -14.8127   19.5375 C   0  0  0  0  0  0  0  0  0  0  0  0
    8.8555  -14.7765   18.2496 C   0  0  0  0  0  0  0  0  0  0  0  0
    8.0667  -14.0187   17.2224 C   0  0  0  0  0  0  0  0  0  0  0  0
    8.7529  -13.9184   15.9010 C   0  0  0  0  0  0  0  0  0  0  0  0
    8.0119  -12.9858   15.0473 N   0  0  0  0  0  0  0  0  0  0  0  0
    9.9987  -15.7055   20.7145 C   0  0  0  0  0  0  0  0  0  0  0  0
   10.2748  -15.1427   21.8119 O   0  0  0  0  0  0  0  0  0  0  0  0
   13.3696  -18.0425   21.7092 O   0  0  0  0  0  0  0  0  0  0  0  0
   12.0990  -17.6215   21.3046 C   0  0  0  0  0  0  0  0  0  0  0  0
   12.3304  -16.4010   20.4098 C   0  0  2  0  0  0  0  0  0  0  0  0
   11.0534  -16.0269   19.8511 N   0  0  0  0  0  0  0  0  0  0  0  0
   13.3413  -16.6734   19.3842 C   0  0  0  0  0  0  0  0  0  0  0  0
   12.9772  -17.1272   18.1343 O   0  0  0  0  0  0  0  0  0  0  0  0
   14.5500  -16.4959   19.6352 O   0  0  0  0  0  0  0  0  0  0  0  0
  2 13  1  0
  2  1  1  1
  3  2  1  0
  3  4  1  0
  4  5  2  0
  4 12  1  0
  5  6  1  0
  6  7  1  0
  7  8  2  0
  8  9  1  0
 10  9  2  0
 11 10  1  0
 12 11  2  0
 12  7  1  0
 13 14  2  0
 15 16  1  0
 15 13  1  0
 16 22  1  0
 16 17  1  6
 18 17  1  0
 19 18  1  0
 20 19  1  0
 21 20  1  0
 22 23  2  0
 24 25  1  0
 26 25  1  6
 26 28  1  0
 27 22  1  0
 27 26  1  0
 28 30  2  0
 28 29  1  0
M  END
$$$$
