WKS.pdb
     RDKit          3D

 30 31  0  0  1  0  0  0  0  0999 V2000
    6.7435  -17.6375   26.0443 N   0  0  0  0  0  0  0  0  0  0  0  0
    6.7380  -17.2735   24.6501 C   0  0  1  0  0  0  0  0  0  0  0  0
    6.5337  -15.8092   24.4932 C   0  0  0  0  0  0  0  0  0  0  0  0
    7.2437  -15.0761   25.5652 C   0  0  0  0  0  0  0  0  0  0  0  0
    8.3047  -15.5478   26.3410 C   0  0  0  0  0  0  0  0  0  0  0  0
    8.7159  -14.5913   27.1866 N   0  0  0  0  0  0  0  0  0  0  0  0
    7.9463  -13.5227   26.9722 C   0  0  0  0  0  0  0  0  0  0  0  0
    7.9641  -12.2979   27.5863 C   0  0  0  0  0  0  0  0  0  0  0  0
    7.0638  -11.3213   27.2178 C   0  0  0  0  0  0  0  0  0  0  0  0
    6.1269  -11.5411   26.2322 C   0  0  0  0  0  0  0  0  0  0  0  0
    6.1336  -12.8007   25.6236 C   0  0  0  0  0  0  0  0  0  0  0  0
    7.0182  -13.7816   25.9734 C   0  0  0  0  0  0  0  0  0  0  0  0
    8.0045  -17.7600   24.0550 C   0  0  0  0  0  0  0  0  0  0  0  0
    8.8121  -18.4876   24.6828 O   0  0  0  0  0  0  0  0  0  0  0  0
    8.2971  -17.3784   22.7232 N   0  0  0  0  0  0  0  0  0  0  0  0
    9.3700  -17.9290   21.9329 C   0  0  1  0  0  0  0  0  0  0  0  0
    9.1463  -17.4034   20.5038 C   0  0  0  0  0  0  0  0  0  0  0  0
   10.0615  -18.0567   19.5310 C   0  0  0  0  0  0  0  0  0  0  0  0
    9.7032  -17.6474   18.1326 C   0  0  0  0  0  0  0  0  0  0  0  0
   10.6388  -18.1800   17.0991 C   0  0  0  0  0  0  0  0  0  0  0  0
   10.2059  -17.7162   15.7781 N   0  0  0  0  0  0  0  0  0  0  0  0
   10.6347  -17.3039   22.3776 C   0  0  0  0  0  0  0  0  0  0  0  0
   10.6866  -16.0414   22.4059 O   0  0  0  0  0  0  0  0  0  0  0  0
   13.5900  -19.4614   23.8242 O   0  0  0  0  0  0  0  0  0  0  0  0
   13.6162  -18.1446   24.2938 C   0  0  0  0  0  0  0  0  0  0  0  0
   12.9421  -17.3021   23.2076 C   0  0  2  0  0  0  0  0  0  0  0  0
   11.7718  -18.0225   22.7666 N   0  0  0  0  0  0  0  0  0  0  0  0
   13.8687  -16.9994   22.1132 C   0  0  0  0  0  0  0  0  0  0  0  0
   13.6161  -17.4367   20.8304 O   0  0  0  0  0  0  0  0  0  0  0  0
   14.9027  -16.3381   22.3345 O   0  0  0  0  0  0  0  0  0  0  0  0
  2 13  1  0
  2  1  1  1
  3  2  1  0
  3  4  1  0
  4  5  2  0
  4 12  1  0
  5  6  1  0
  6  7  1  0
  7  8  2  0
  8  9  1  0
 10  9  2  0
 11 10  1  0
 12 11  2  0
 12  7  1  0
 13 14  2  0
 15 16  1  0
 15 13  1  0
 16 22  1  0
 16 17  1  6
 18 17  1  0
 19 18  1  0
 20 19  1  0
 21 20  1  0
 22 23  2  0
 24 25  1  0
 26 25  1  1
 26 28  1  0
 27 22  1  0
 27 26  1  0
 28 30  2  0
 28 29  1  0
M  END
$$$$
