WKS.pdb
     RDKit          3D

 30 31  0  0  1  0  0  0  0  0999 V2000
    6.1784  -17.5135   24.7236 N   0  0  0  0  0  0  0  0  0  0  0  0
    6.8871  -16.3269   24.3160 C   0  0  1  0  0  0  0  0  0  0  0  0
    7.9620  -16.0001   25.2898 C   0  0  0  0  0  0  0  0  0  0  0  0
    7.4697  -15.0220   26.2857 C   0  0  0  0  0  0  0  0  0  0  0  0
    7.1719  -15.2709   27.6271 C   0  0  0  0  0  0  0  0  0  0  0  0
    6.7871  -14.1363   28.2301 N   0  0  0  0  0  0  0  0  0  0  0  0
    6.8305  -13.1706   27.3105 C   0  0  0  0  0  0  0  0  0  0  0  0
    6.5239  -11.8403   27.4278 C   0  0  0  0  0  0  0  0  0  0  0  0
    6.6278  -11.0033   26.3376 C   0  0  0  0  0  0  0  0  0  0  0  0
    7.0380  -11.4702   25.1082 C   0  0  0  0  0  0  0  0  0  0  0  0
    7.3443  -12.8323   25.0197 C   0  0  0  0  0  0  0  0  0  0  0  0
    7.2489  -13.6783   26.0885 C   0  0  0  0  0  0  0  0  0  0  0  0
    7.3862  -16.5535   22.9397 C   0  0  0  0  0  0  0  0  0  0  0  0
    7.6585  -17.6964   22.4978 O   0  0  0  0  0  0  0  0  0  0  0  0
    7.5553  -15.4226   22.1047 N   0  0  0  0  0  0  0  0  0  0  0  0
    8.0289  -15.4757   20.7439 C   0  0  1  0  0  0  0  0  0  0  0  0
    8.0651  -14.0157   20.2586 C   0  0  0  0  0  0  0  0  0  0  0  0
    8.8688  -13.8719   19.0160 C   0  0  0  0  0  0  0  0  0  0  0  0
    7.9615  -13.6974   17.8336 C   0  0  0  0  0  0  0  0  0  0  0  0
    8.6859  -13.6542   16.5296 C   0  0  0  0  0  0  0  0  0  0  0  0
    7.7073  -13.5768   15.4415 N   0  0  0  0  0  0  0  0  0  0  0  0
    9.4434  -15.9072   20.7670 C   0  0  0  0  0  0  0  0  0  0  0  0
   10.1850  -15.4377   21.6764 O   0  0  0  0  0  0  0  0  0  0  0  0
   10.7615  -19.3314   20.5189 O   0  0  0  0  0  0  0  0  0  0  0  0
   11.5377  -18.6278   19.5927 C   0  0  0  0  0  0  0  0  0  0  0  0
   11.4018  -17.1509   19.9727 C   0  0  2  0  0  0  0  0  0  0  0  0
   10.0078  -16.7993   19.8469 N   0  0  0  0  0  0  0  0  0  0  0  0
   12.2769  -16.3055   19.1556 C   0  0  0  0  0  0  0  0  0  0  0  0
   13.6485  -16.4080   19.2488 O   0  0  0  0  0  0  0  0  0  0  0  0
   11.7843  -15.4787   18.3623 O   0  0  0  0  0  0  0  0  0  0  0  0
  2 13  1  0
  2  1  1  1
  3  2  1  0
  3  4  1  0
  4  5  2  0
  4 12  1  0
  5  6  1  0
  6  7  1  0
  7  8  2  0
  8  9  1  0
 10  9  2  0
 11 10  1  0
 12 11  2  0
 12  7  1  0
 13 14  2  0
 15 16  1  0
 15 13  1  0
 16 22  1  0
 16 17  1  1
 18 17  1  0
 19 18  1  0
 20 19  1  0
 21 20  1  0
 22 23  2  0
 24 25  1  0
 26 25  1  6
 26 28  1  0
 27 22  1  0
 27 26  1  0
 28 30  2  0
 28 29  1  0
M  END
$$$$
