WKS.pdb
     RDKit          3D

 30 31  0  0  1  0  0  0  0  0999 V2000
    6.5420  -17.0360   24.9867 N   0  0  0  0  0  0  0  0  0  0  0  0
    7.1779  -15.8655   24.4373 C   0  0  1  0  0  0  0  0  0  0  0  0
    8.4481  -15.5762   25.1536 C   0  0  0  0  0  0  0  0  0  0  0  0
    8.1840  -14.7386   26.3450 C   0  0  0  0  0  0  0  0  0  0  0  0
    8.4697  -15.0591   27.6737 C   0  0  0  0  0  0  0  0  0  0  0  0
    8.1237  -14.0415   28.4761 N   0  0  0  0  0  0  0  0  0  0  0  0
    7.6245  -13.0810   27.6962 C   0  0  0  0  0  0  0  0  0  0  0  0
    7.1272  -11.8508   28.0378 C   0  0  0  0  0  0  0  0  0  0  0  0
    6.6440  -11.0009   27.0661 C   0  0  0  0  0  0  0  0  0  0  0  0
    6.6444  -11.3555   25.7350 C   0  0  0  0  0  0  0  0  0  0  0  0
    7.1585  -12.6171   25.4172 C   0  0  0  0  0  0  0  0  0  0  0  0
    7.6431  -13.4736   26.3652 C   0  0  0  0  0  0  0  0  0  0  0  0
    7.3580  -16.0935   22.9846 C   0  0  0  0  0  0  0  0  0  0  0  0
    7.3231  -17.2376   22.4693 O   0  0  0  0  0  0  0  0  0  0  0  0
    7.5763  -14.9624   22.1613 N   0  0  0  0  0  0  0  0  0  0  0  0
    7.8149  -15.0204   20.7405 C   0  0  1  0  0  0  0  0  0  0  0  0
    7.8813  -13.5567   20.2697 C   0  0  0  0  0  0  0  0  0  0  0  0
    8.5175  -13.4409   18.9309 C   0  0  0  0  0  0  0  0  0  0  0  0
    7.6316  -14.0524   17.8855 C   0  0  0  0  0  0  0  0  0  0  0  0
    8.2211  -14.0220   16.5148 C   0  0  0  0  0  0  0  0  0  0  0  0
    7.3128  -14.7040   15.5888 N   0  0  0  0  0  0  0  0  0  0  0  0
    9.1774  -15.5543   20.5256 C   0  0  0  0  0  0  0  0  0  0  0  0
   10.1150  -15.0649   21.2175 O   0  0  0  0  0  0  0  0  0  0  0  0
    9.7342  -18.9408   18.6965 O   0  0  0  0  0  0  0  0  0  0  0  0
   10.7637  -18.5946   19.5772 C   0  0  0  0  0  0  0  0  0  0  0  0
   10.8414  -17.0660   19.5460 C   0  0  2  0  0  0  0  0  0  0  0  0
    9.4897  -16.5637   19.6066 N   0  0  0  0  0  0  0  0  0  0  0  0
   11.5715  -16.5912   18.3673 C   0  0  0  0  0  0  0  0  0  0  0  0
   12.9074  -16.8858   18.1960 O   0  0  0  0  0  0  0  0  0  0  0  0
   10.9861  -15.9106   17.5015 O   0  0  0  0  0  0  0  0  0  0  0  0
  2 13  1  0
  2  1  1  1
  3  2  1  0
  3  4  1  0
  4  5  2  0
  4 12  1  0
  5  6  1  0
  6  7  1  0
  7  8  2  0
  8  9  1  0
 10  9  2  0
 11 10  1  0
 12 11  2  0
 12  7  1  0
 13 14  2  0
 15 16  1  0
 15 13  1  0
 16 22  1  0
 16 17  1  1
 18 17  1  0
 19 18  1  0
 20 19  1  0
 21 20  1  0
 22 23  2  0
 24 25  1  0
 26 25  1  6
 26 28  1  0
 27 22  1  0
 27 26  1  0
 28 30  2  0
 28 29  1  0
M  END
$$$$
