WKS.pdb
     RDKit          3D

 30 31  0  0  1  0  0  0  0  0999 V2000
    6.6762  -18.0127   24.2449 N   0  0  0  0  0  0  0  0  0  0  0  0
    6.9487  -16.6294   23.9478 C   0  0  1  0  0  0  0  0  0  0  0  0
    7.7697  -16.0156   25.0247 C   0  0  0  0  0  0  0  0  0  0  0  0
    6.9952  -14.9648   25.7222 C   0  0  0  0  0  0  0  0  0  0  0  0
    5.7987  -15.1322   26.4224 C   0  0  0  0  0  0  0  0  0  0  0  0
    5.4095  -13.9632   26.9526 N   0  0  0  0  0  0  0  0  0  0  0  0
    6.3243  -13.0545   26.6097 C   0  0  0  0  0  0  0  0  0  0  0  0
    6.3754  -11.7163   26.8994 C   0  0  0  0  0  0  0  0  0  0  0  0
    7.4168  -10.9425   26.4337 C   0  0  0  0  0  0  0  0  0  0  0  0
    8.4286  -11.4818   25.6702 C   0  0  0  0  0  0  0  0  0  0  0  0
    8.3491  -12.8504   25.3913 C   0  0  0  0  0  0  0  0  0  0  0  0
    7.3262  -13.6348   25.8444 C   0  0  0  0  0  0  0  0  0  0  0  0
    7.5897  -16.5754   22.6133 C   0  0  0  0  0  0  0  0  0  0  0  0
    8.2503  -17.5323   22.1402 O   0  0  0  0  0  0  0  0  0  0  0  0
    7.4389  -15.3883   21.8564 N   0  0  0  0  0  0  0  0  0  0  0  0
    8.0046  -15.1773   20.5471 C   0  0  1  0  0  0  0  0  0  0  0  0
    7.7899  -13.6852   20.2366 C   0  0  0  0  0  0  0  0  0  0  0  0
    8.4357  -13.2945   18.9556 C   0  0  0  0  0  0  0  0  0  0  0  0
    7.9087  -14.1411   17.8344 C   0  0  0  0  0  0  0  0  0  0  0  0
    8.4876  -13.7928   16.5037 C   0  0  0  0  0  0  0  0  0  0  0  0
    7.8574  -14.6256   15.4756 N   0  0  0  0  0  0  0  0  0  0  0  0
    9.4711  -15.3403   20.6492 C   0  0  0  0  0  0  0  0  0  0  0  0
   10.0921  -14.5778   21.4431 O   0  0  0  0  0  0  0  0  0  0  0  0
   11.2963  -18.5784   20.0313 O   0  0  0  0  0  0  0  0  0  0  0  0
   12.0840  -17.5955   20.6386 C   0  0  0  0  0  0  0  0  0  0  0  0
   11.6496  -16.2681   20.0115 C   0  0  2  0  0  0  0  0  0  0  0  0
   10.2092  -16.2833   19.9232 N   0  0  0  0  0  0  0  0  0  0  0  0
   12.2960  -16.0524   18.7140 C   0  0  0  0  0  0  0  0  0  0  0  0
   13.6673  -15.9506   18.6145 O   0  0  0  0  0  0  0  0  0  0  0  0
   11.6056  -15.9579   17.6797 O   0  0  0  0  0  0  0  0  0  0  0  0
  2 13  1  0
  2  1  1  1
  3  2  1  0
  3  4  1  0
  4  5  2  0
  4 12  1  0
  5  6  1  0
  6  7  1  0
  7  8  2  0
  8  9  1  0
 10  9  2  0
 11 10  1  0
 12 11  2  0
 12  7  1  0
 13 14  2  0
 15 16  1  0
 15 13  1  0
 16 22  1  0
 16 17  1  1
 18 17  1  0
 19 18  1  0
 20 19  1  0
 21 20  1  0
 22 23  2  0
 24 25  1  0
 26 25  1  6
 26 28  1  0
 27 22  1  0
 27 26  1  0
 28 30  2  0
 28 29  1  0
M  END
$$$$
