WKS.pdb
     RDKit          3D

 30 31  0  0  1  0  0  0  0  0999 V2000
    6.1808  -17.6850   24.1400 N   0  0  0  0  0  0  0  0  0  0  0  0
    6.9762  -16.5446   23.7618 C   0  0  1  0  0  0  0  0  0  0  0  0
    7.8247  -16.0994   24.8986 C   0  0  0  0  0  0  0  0  0  0  0  0
    7.1085  -15.0859   25.7052 C   0  0  0  0  0  0  0  0  0  0  0  0
    6.0555  -15.3144   26.5934 C   0  0  0  0  0  0  0  0  0  0  0  0
    5.6837  -14.1623   27.1709 N   0  0  0  0  0  0  0  0  0  0  0  0
    6.4698  -13.2050   26.6751 C   0  0  0  0  0  0  0  0  0  0  0  0
    6.4813  -11.8610   26.9417 C   0  0  0  0  0  0  0  0  0  0  0  0
    7.3807  -11.0328   26.3051 C   0  0  0  0  0  0  0  0  0  0  0  0
    8.2869  -11.5222   25.3904 C   0  0  0  0  0  0  0  0  0  0  0  0
    8.2513  -12.8980   25.1395 C   0  0  0  0  0  0  0  0  0  0  0  0
    7.3686  -13.7359   25.7606 C   0  0  0  0  0  0  0  0  0  0  0  0
    7.7525  -16.9194   22.5569 C   0  0  0  0  0  0  0  0  0  0  0  0
    8.0564  -18.1076   22.2898 O   0  0  0  0  0  0  0  0  0  0  0  0
    8.1578  -15.8810   21.6838 N   0  0  0  0  0  0  0  0  0  0  0  0
    8.9776  -16.0717   20.5132 C   0  0  1  0  0  0  0  0  0  0  0  0
    9.0573  -14.6939   19.8320 C   0  0  0  0  0  0  0  0  0  0  0  0
    8.3547  -14.6899   18.5217 C   0  0  0  0  0  0  0  0  0  0  0  0
    8.3828  -13.3125   17.9270 C   0  0  0  0  0  0  0  0  0  0  0  0
    7.6558  -13.2111   16.6276 C   0  0  0  0  0  0  0  0  0  0  0  0
    8.2094  -14.1942   15.6923 N   0  0  0  0  0  0  0  0  0  0  0  0
   10.3577  -16.3581   20.9615 C   0  0  0  0  0  0  0  0  0  0  0  0
   10.8996  -15.5358   21.7537 O   0  0  0  0  0  0  0  0  0  0  0  0
   11.8728  -19.8400   20.8636 O   0  0  0  0  0  0  0  0  0  0  0  0
   12.6689  -18.9601   21.6035 C   0  0  0  0  0  0  0  0  0  0  0  0
   12.4808  -17.5852   20.9569 C   0  0  2  0  0  0  0  0  0  0  0  0
   11.0964  -17.4790   20.5630 N   0  0  0  0  0  0  0  0  0  0  0  0
   13.4064  -17.3891   19.8377 C   0  0  0  0  0  0  0  0  0  0  0  0
   12.9374  -17.1092   18.5718 O   0  0  0  0  0  0  0  0  0  0  0  0
   14.6370  -17.4747   20.0218 O   0  0  0  0  0  0  0  0  0  0  0  0
  2 13  1  0
  2  1  1  1
  3  2  1  0
  3  4  1  0
  4  5  2  0
  4 12  1  0
  5  6  1  0
  6  7  1  0
  7  8  2  0
  8  9  1  0
 10  9  2  0
 11 10  1  0
 12 11  2  0
 12  7  1  0
 13 14  2  0
 15 16  1  0
 15 13  1  0
 16 22  1  0
 16 17  1  6
 18 17  1  0
 19 18  1  0
 20 19  1  0
 21 20  1  0
 22 23  2  0
 24 25  1  0
 26 25  1  6
 26 28  1  0
 27 22  1  0
 27 26  1  0
 28 30  2  0
 28 29  1  0
M  END
$$$$
