WKS.pdb
     RDKit          3D

 30 31  0  0  1  0  0  0  0  0999 V2000
    5.9040  -17.5728   23.4905 N   0  0  0  0  0  0  0  0  0  0  0  0
    6.6369  -16.3344   23.4161 C   0  0  1  0  0  0  0  0  0  0  0  0
    7.4128  -16.1107   24.6644 C   0  0  0  0  0  0  0  0  0  0  0  0
    6.7483  -15.0883   25.5033 C   0  0  0  0  0  0  0  0  0  0  0  0
    5.6733  -15.2878   26.3720 C   0  0  0  0  0  0  0  0  0  0  0  0
    5.3635  -14.1387   26.9906 N   0  0  0  0  0  0  0  0  0  0  0  0
    6.2107  -13.2115   26.5403 C   0  0  0  0  0  0  0  0  0  0  0  0
    6.2985  -11.8819   26.8595 C   0  0  0  0  0  0  0  0  0  0  0  0
    7.2528  -11.0848   26.2645 C   0  0  0  0  0  0  0  0  0  0  0  0
    8.1392  -11.5916   25.3399 C   0  0  0  0  0  0  0  0  0  0  0  0
    8.0252  -12.9521   25.0348 C   0  0  0  0  0  0  0  0  0  0  0  0
    7.0872  -13.7593   25.6142 C   0  0  0  0  0  0  0  0  0  0  0  0
    7.4791  -16.3846   22.1984 C   0  0  0  0  0  0  0  0  0  0  0  0
    7.7310  -17.4549   21.5929 O   0  0  0  0  0  0  0  0  0  0  0  0
    8.0113  -15.1653   21.7135 N   0  0  0  0  0  0  0  0  0  0  0  0
    8.8449  -15.0462   20.5432 C   0  0  1  0  0  0  0  0  0  0  0  0
    8.8363  -13.5515   20.1766 C   0  0  0  0  0  0  0  0  0  0  0  0
    7.9373  -13.2757   19.0249 C   0  0  0  0  0  0  0  0  0  0  0  0
    8.4028  -14.0326   17.8159 C   0  0  0  0  0  0  0  0  0  0  0  0
    7.5188  -13.8552   16.6266 C   0  0  0  0  0  0  0  0  0  0  0  0
    8.0493  -14.6482   15.5142 N   0  0  0  0  0  0  0  0  0  0  0  0
   10.2396  -15.3350   20.9420 C   0  0  0  0  0  0  0  0  0  0  0  0
   11.1452  -15.1576   20.0784 O   0  0  0  0  0  0  0  0  0  0  0  0
   11.1962  -17.1458   24.3564 O   0  0  0  0  0  0  0  0  0  0  0  0
   12.1434  -16.1739   24.0190 C   0  0  0  0  0  0  0  0  0  0  0  0
   12.0159  -15.9762   22.5063 C   0  0  2  0  0  0  0  0  0  0  0  0
   10.6152  -15.7910   22.2116 N   0  0  0  0  0  0  0  0  0  0  0  0
   12.6084  -17.0954   21.7686 C   0  0  0  0  0  0  0  0  0  0  0  0
   13.9697  -17.3128   21.7854 O   0  0  0  0  0  0  0  0  0  0  0  0
   11.8804  -17.8675   21.1133 O   0  0  0  0  0  0  0  0  0  0  0  0
  2 13  1  0
  2  1  1  1
  3  2  1  0
  3  4  1  0
  4  5  2  0
  4 12  1  0
  5  6  1  0
  6  7  1  0
  7  8  2  0
  8  9  1  0
 10  9  2  0
 11 10  1  0
 12 11  2  0
 12  7  1  0
 13 14  2  0
 15 16  1  0
 15 13  1  0
 16 22  1  0
 16 17  1  1
 18 17  1  0
 19 18  1  0
 20 19  1  0
 21 20  1  0
 22 23  2  0
 24 25  1  0
 26 25  1  1
 26 28  1  0
 27 22  1  0
 27 26  1  0
 28 30  2  0
 28 29  1  0
M  END
$$$$
