WKS.pdb
     RDKit          3D

 30 31  0  0  1  0  0  0  0  0999 V2000
    6.3429  -17.8209   24.6861 N   0  0  0  0  0  0  0  0  0  0  0  0
    6.9912  -16.6224   24.2174 C   0  0  1  0  0  0  0  0  0  0  0  0
    7.7691  -15.9865   25.3133 C   0  0  0  0  0  0  0  0  0  0  0  0
    6.9706  -14.9171   25.9533 C   0  0  0  0  0  0  0  0  0  0  0  0
    5.8827  -15.0849   26.8125 C   0  0  0  0  0  0  0  0  0  0  0  0
    5.4343  -13.8897   27.2244 N   0  0  0  0  0  0  0  0  0  0  0  0
    6.2056  -12.9641   26.6512 C   0  0  0  0  0  0  0  0  0  0  0  0
    6.1481  -11.5986   26.7492 C   0  0  0  0  0  0  0  0  0  0  0  0
    7.0451  -10.8128   26.0578 C   0  0  0  0  0  0  0  0  0  0  0  0
    8.0174  -11.3669   25.2545 C   0  0  0  0  0  0  0  0  0  0  0  0
    8.0512  -12.7631   25.1749 C   0  0  0  0  0  0  0  0  0  0  0  0
    7.1721  -13.5597   25.8529 C   0  0  0  0  0  0  0  0  0  0  0  0
    7.8168  -16.9894   23.0433 C   0  0  0  0  0  0  0  0  0  0  0  0
    8.3355  -18.1245   22.9085 O   0  0  0  0  0  0  0  0  0  0  0  0
    8.0162  -16.0065   22.0438 N   0  0  0  0  0  0  0  0  0  0  0  0
    8.9363  -16.1377   20.9416 C   0  0  1  0  0  0  0  0  0  0  0  0
    8.8559  -14.8074   20.1718 C   0  0  0  0  0  0  0  0  0  0  0  0
    8.2172  -14.9832   18.8407 C   0  0  0  0  0  0  0  0  0  0  0  0
    8.4295  -13.7572   18.0021 C   0  0  0  0  0  0  0  0  0  0  0  0
    7.6991  -13.7930   16.7012 C   0  0  0  0  0  0  0  0  0  0  0  0
    7.9580  -12.5476   15.9733 N   0  0  0  0  0  0  0  0  0  0  0  0
   10.3085  -16.1796   21.4921 C   0  0  0  0  0  0  0  0  0  0  0  0
   10.7071  -15.1772   22.1506 O   0  0  0  0  0  0  0  0  0  0  0  0
   12.2831  -19.4736   21.9099 O   0  0  0  0  0  0  0  0  0  0  0  0
   12.8139  -18.4164   22.6555 C   0  0  0  0  0  0  0  0  0  0  0  0
   12.5330  -17.1508   21.8411 C   0  0  2  0  0  0  0  0  0  0  0  0
   11.1881  -17.2568   21.3284 N   0  0  0  0  0  0  0  0  0  0  0  0
   13.5306  -16.9622   20.7841 C   0  0  0  0  0  0  0  0  0  0  0  0
   13.1538  -16.8883   19.4600 O   0  0  0  0  0  0  0  0  0  0  0  0
   14.7396  -16.8665   21.0755 O   0  0  0  0  0  0  0  0  0  0  0  0
  2 13  1  0
  2  1  1  1
  3  2  1  0
  3  4  1  0
  4  5  2  0
  4 12  1  0
  5  6  1  0
  6  7  1  0
  7  8  2  0
  8  9  1  0
 10  9  2  0
 11 10  1  0
 12 11  2  0
 12  7  1  0
 13 14  2  0
 15 16  1  0
 15 13  1  0
 16 22  1  0
 16 17  1  6
 18 17  1  0
 19 18  1  0
 20 19  1  0
 21 20  1  0
 22 23  2  0
 24 25  1  0
 26 25  1  6
 26 28  1  0
 27 22  1  0
 27 26  1  0
 28 30  2  0
 28 29  1  0
M  END
$$$$
