WKS.pdb
     RDKit          3D

 30 31  0  0  1  0  0  0  0  0999 V2000
    6.5208  -17.8358   24.5407 N   0  0  0  0  0  0  0  0  0  0  0  0
    7.0201  -16.6167   23.9570 C   0  0  1  0  0  0  0  0  0  0  0  0
    7.9215  -15.9133   24.9074 C   0  0  0  0  0  0  0  0  0  0  0  0
    7.1679  -14.8880   25.6633 C   0  0  0  0  0  0  0  0  0  0  0  0
    6.0284  -15.0926   26.4441 C   0  0  0  0  0  0  0  0  0  0  0  0
    5.6440  -13.9375   27.0070 N   0  0  0  0  0  0  0  0  0  0  0  0
    6.5062  -13.0014   26.6065 C   0  0  0  0  0  0  0  0  0  0  0  0
    6.5392  -11.6634   26.8997 C   0  0  0  0  0  0  0  0  0  0  0  0
    7.5229  -10.8580   26.3671 C   0  0  0  0  0  0  0  0  0  0  0  0
    8.4940  -11.3649   25.5319 C   0  0  0  0  0  0  0  0  0  0  0  0
    8.4344  -12.7341   25.2512 C   0  0  0  0  0  0  0  0  0  0  0  0
    7.4684  -13.5495   25.7699 C   0  0  0  0  0  0  0  0  0  0  0  0
    7.6730  -16.9685   22.6745 C   0  0  0  0  0  0  0  0  0  0  0  0
    8.1970  -18.0901   22.4668 O   0  0  0  0  0  0  0  0  0  0  0  0
    7.6958  -15.9867   21.6546 N   0  0  0  0  0  0  0  0  0  0  0  0
    8.2964  -16.1710   20.3569 C   0  0  1  0  0  0  0  0  0  0  0  0
    8.0568  -14.8545   19.5966 C   0  0  0  0  0  0  0  0  0  0  0  0
    8.6253  -14.9042   18.2236 C   0  0  0  0  0  0  0  0  0  0  0  0
    7.8236  -14.0319   17.3028 C   0  0  0  0  0  0  0  0  0  0  0  0
    8.2858  -14.0815   15.8847 C   0  0  0  0  0  0  0  0  0  0  0  0
    7.3772  -13.2825   15.0577 N   0  0  0  0  0  0  0  0  0  0  0  0
    9.7625  -16.2484   20.5368 C   0  0  0  0  0  0  0  0  0  0  0  0
   10.3185  -15.3402   21.2175 O   0  0  0  0  0  0  0  0  0  0  0  0
   11.7880  -19.4982   19.8732 O   0  0  0  0  0  0  0  0  0  0  0  0
   12.4682  -18.5648   20.6616 C   0  0  0  0  0  0  0  0  0  0  0  0
   11.9979  -17.1904   20.1782 C   0  0  2  0  0  0  0  0  0  0  0  0
   10.5673  -17.2613   20.0010 N   0  0  0  0  0  0  0  0  0  0  0  0
   12.7017  -16.7824   18.9591 C   0  0  0  0  0  0  0  0  0  0  0  0
   14.0676  -16.5951   18.9594 O   0  0  0  0  0  0  0  0  0  0  0  0
   12.0660  -16.5992   17.9019 O   0  0  0  0  0  0  0  0  0  0  0  0
  2 13  1  0
  2  1  1  1
  3  2  1  0
  3  4  1  0
  4  5  2  0
  4 12  1  0
  5  6  1  0
  6  7  1  0
  7  8  2  0
  8  9  1  0
 10  9  2  0
 11 10  1  0
 12 11  2  0
 12  7  1  0
 13 14  2  0
 15 16  1  0
 15 13  1  0
 16 22  1  0
 16 17  1  6
 18 17  1  0
 19 18  1  0
 20 19  1  0
 21 20  1  0
 22 23  2  0
 24 25  1  0
 26 25  1  6
 26 28  1  0
 27 22  1  0
 27 26  1  0
 28 30  2  0
 28 29  1  0
M  END
$$$$
