WKS.pdb
     RDKit          3D

 30 31  0  0  1  0  0  0  0  0999 V2000
    6.3110  -17.5264   25.1632 N   0  0  0  0  0  0  0  0  0  0  0  0
    7.0463  -16.4552   24.5402 C   0  0  1  0  0  0  0  0  0  0  0  0
    8.1846  -16.0343   25.3989 C   0  0  0  0  0  0  0  0  0  0  0  0
    7.7431  -15.0023   26.3637 C   0  0  0  0  0  0  0  0  0  0  0  0
    7.4854  -15.1837   27.7240 C   0  0  0  0  0  0  0  0  0  0  0  0
    7.1411  -14.0154   28.2859 N   0  0  0  0  0  0  0  0  0  0  0  0
    7.1714  -13.0939   27.3215 C   0  0  0  0  0  0  0  0  0  0  0  0
    6.8928  -11.7539   27.3867 C   0  0  0  0  0  0  0  0  0  0  0  0
    6.9757  -10.9698   26.2561 C   0  0  0  0  0  0  0  0  0  0  0  0
    7.3366  -11.5004   25.0372 C   0  0  0  0  0  0  0  0  0  0  0  0
    7.6153  -12.8709   25.0022 C   0  0  0  0  0  0  0  0  0  0  0  0
    7.5401  -13.6650   26.1116 C   0  0  0  0  0  0  0  0  0  0  0  0
    7.4609  -16.9190   23.1956 C   0  0  0  0  0  0  0  0  0  0  0  0
    7.6298  -18.1319   22.9200 O   0  0  0  0  0  0  0  0  0  0  0  0
    7.6693  -15.9391   22.1950 N   0  0  0  0  0  0  0  0  0  0  0  0
    8.1255  -16.2226   20.8569 C   0  0  1  0  0  0  0  0  0  0  0  0
    7.9586  -14.9086   20.0732 C   0  0  0  0  0  0  0  0  0  0  0  0
    8.5754  -14.9946   18.7231 C   0  0  0  0  0  0  0  0  0  0  0  0
    7.9389  -13.9956   17.8020 C   0  0  0  0  0  0  0  0  0  0  0  0
    8.4427  -14.0748   16.3995 C   0  0  0  0  0  0  0  0  0  0  0  0
    7.9011  -12.9494   15.6329 N   0  0  0  0  0  0  0  0  0  0  0  0
    9.5853  -16.4548   20.9095 C   0  0  0  0  0  0  0  0  0  0  0  0
   10.2821  -15.6543   21.5958 O   0  0  0  0  0  0  0  0  0  0  0  0
   11.1452  -19.7742   19.6688 O   0  0  0  0  0  0  0  0  0  0  0  0
   12.0309  -19.0753   20.4950 C   0  0  0  0  0  0  0  0  0  0  0  0
   11.6765  -17.5954   20.3272 C   0  0  2  0  0  0  0  0  0  0  0  0
   10.2385  -17.5021   20.2481 N   0  0  0  0  0  0  0  0  0  0  0  0
   12.3485  -17.0131   19.1622 C   0  0  0  0  0  0  0  0  0  0  0  0
   13.7241  -16.9496   19.0969 O   0  0  0  0  0  0  0  0  0  0  0  0
   11.6763  -16.5657   18.2117 O   0  0  0  0  0  0  0  0  0  0  0  0
  2 13  1  0
  2  1  1  1
  3  2  1  0
  3  4  1  0
  4  5  2  0
  4 12  1  0
  5  6  1  0
  6  7  1  0
  7  8  2  0
  8  9  1  0
 10  9  2  0
 11 10  1  0
 12 11  2  0
 12  7  1  0
 13 14  2  0
 15 16  1  0
 15 13  1  0
 16 22  1  0
 16 17  1  6
 18 17  1  0
 19 18  1  0
 20 19  1  0
 21 20  1  0
 22 23  2  0
 24 25  1  0
 26 25  1  6
 26 28  1  0
 27 22  1  0
 27 26  1  0
 28 30  2  0
 28 29  1  0
M  END
$$$$
