YIW.pdb
     RDKit          3D

 35 37  0  0  1  0  0  0  0  0999 V2000
    7.8312  -11.7782   17.1144 O   0  0  0  0  0  0  0  0  0  0  0  0
    7.9199  -12.6948   18.1609 C   0  0  0  0  0  0  0  0  0  0  0  0
    7.1438  -12.5504   19.2966 C   0  0  0  0  0  0  0  0  0  0  0  0
    7.2227  -13.4482   20.3356 C   0  0  0  0  0  0  0  0  0  0  0  0
    8.0892  -14.5349   20.2774 C   0  0  0  0  0  0  0  0  0  0  0  0
    8.1593  -15.4977   21.4135 C   0  0  0  0  0  0  0  0  0  0  0  0
    8.9602  -16.7423   21.0281 C   0  0  2  0  0  0  0  0  0  0  0  0
    8.1409  -17.6212   20.2547 N   0  0  0  0  0  0  0  0  0  0  0  0
    9.4480  -17.3626   22.2833 C   0  0  0  0  0  0  0  0  0  0  0  0
    8.7190  -18.1825   22.8843 O   0  0  0  0  0  0  0  0  0  0  0  0
    8.8614  -14.6947   19.1682 C   0  0  0  0  0  0  0  0  0  0  0  0
    8.7686  -13.7782   18.1288 C   0  0  0  0  0  0  0  0  0  0  0  0
   14.3486  -19.5788   22.7637 C   0  0  0  0  0  0  0  0  0  0  0  0
   12.9332  -19.1135   22.8397 C   0  0  0  0  0  0  0  0  0  0  0  0
   12.5867  -18.2450   24.0007 C   0  0  2  0  0  0  0  0  0  0  0  0
   12.9451  -19.0026   25.2728 C   0  0  0  0  0  0  0  0  0  0  0  0
   11.2169  -17.6812   24.0420 C   0  0  2  0  0  0  0  0  0  0  0  0
   10.7461  -17.0526   22.8444 N   0  0  0  0  0  0  0  0  0  0  0  0
   11.0664  -16.8198   25.2349 C   0  0  0  0  0  0  0  0  0  0  0  0
   11.6149  -15.6910   25.3411 O   0  0  0  0  0  0  0  0  0  0  0  0
   10.2808  -17.2351   26.3323 N   0  0  0  0  0  0  0  0  0  0  0  0
   10.1086  -16.3870   27.5223 C   0  0  1  0  0  0  0  0  0  0  0  0
    8.6405  -16.4835   27.8257 C   0  0  0  0  0  0  0  0  0  0  0  0
    7.7116  -15.8902   26.8794 C   0  0  0  0  0  0  0  0  0  0  0  0
    6.6828  -16.5178   26.1794 C   0  0  0  0  0  0  0  0  0  0  0  0
    6.1040  -15.6163   25.3925 N   0  0  0  0  0  0  0  0  0  0  0  0
    6.6933  -14.4088   25.5291 C   0  0  0  0  0  0  0  0  0  0  0  0
    6.4560  -13.1822   24.9619 C   0  0  0  0  0  0  0  0  0  0  0  0
    7.2312  -12.1017   25.3264 C   0  0  0  0  0  0  0  0  0  0  0  0
    8.2363  -12.2473   26.2512 C   0  0  0  0  0  0  0  0  0  0  0  0
    8.4814  -13.4692   26.8225 C   0  0  0  0  0  0  0  0  0  0  0  0
    7.7115  -14.5598   26.4645 C   0  0  0  0  0  0  0  0  0  0  0  0
   10.9168  -16.9468   28.5993 C   0  0  0  0  0  0  0  0  0  0  0  0
   11.1775  -16.2920   29.8000 O   0  0  0  0  0  0  0  0  0  0  0  0
   11.4280  -18.0968   28.4543 O   0  0  0  0  0  0  0  0  0  0  0  0
  2 12  2  0
  2  1  1  0
  3  2  1  0
  4  5  1  0
  4  3  2  0
  5 11  2  0
  6  5  1  0
  7  6  1  0
  7  8  1  1
  9  7  1  0
 10  9  2  0
 11 12  1  0
 13 14  1  0
 14 15  1  0
 15 17  1  0
 15 16  1  1
 17 18  1  6
 17 19  1  0
 18  9  1  0
 19 20  2  0
 21 19  1  0
 21 22  1  0
 22 23  1  1
 22 33  1  0
 24 23  1  0
 25 24  2  0
 26 25  1  0
 27 26  1  0
 27 32  2  0
 28 27  1  0
 29 28  2  0
 29 30  1  0
 30 31  2  0
 31 32  1  0
 32 24  1  0
 33 35  2  0
 33 34  1  0
M  END
$$$$
