YIW.pdb
     RDKit          3D

 35 37  0  0  1  0  0  0  0  0999 V2000
   10.5298  -25.3630   19.8808 O   0  0  0  0  0  0  0  0  0  0  0  0
   10.3096  -24.0675   20.3459 C   0  0  0  0  0  0  0  0  0  0  0  0
    9.0306  -23.5444   20.4062 C   0  0  0  0  0  0  0  0  0  0  0  0
    8.8010  -22.2676   20.8630 C   0  0  0  0  0  0  0  0  0  0  0  0
    9.8520  -21.4578   21.2809 C   0  0  0  0  0  0  0  0  0  0  0  0
    9.5823  -20.0770   21.7740 C   0  0  0  0  0  0  0  0  0  0  0  0
    9.2012  -19.1481   20.6202 C   0  0  2  0  0  0  0  0  0  0  0  0
    9.7939  -19.6185   19.4081 N   0  0  0  0  0  0  0  0  0  0  0  0
    9.6428  -17.7810   20.9865 C   0  0  0  0  0  0  0  0  0  0  0  0
   10.7636  -17.3772   20.6050 O   0  0  0  0  0  0  0  0  0  0  0  0
   11.1181  -21.9541   21.2294 C   0  0  0  0  0  0  0  0  0  0  0  0
   11.3313  -23.2457   20.7652 C   0  0  0  0  0  0  0  0  0  0  0  0
    6.4810  -13.3935   20.2874 C   0  0  0  0  0  0  0  0  0  0  0  0
    7.5979  -14.3696   20.4476 C   0  0  0  0  0  0  0  0  0  0  0  0
    8.1704  -14.4965   21.8182 C   0  0  2  0  0  0  0  0  0  0  0  0
    8.6295  -13.1131   22.2613 C   0  0  0  0  0  0  0  0  0  0  0  0
    9.2081  -15.5336   22.0273 C   0  0  2  0  0  0  0  0  0  0  0  0
    8.8197  -16.8888   21.7754 N   0  0  0  0  0  0  0  0  0  0  0  0
    9.8308  -15.3569   23.3573 C   0  0  0  0  0  0  0  0  0  0  0  0
   10.4754  -14.3249   23.6827 O   0  0  0  0  0  0  0  0  0  0  0  0
    9.7256  -16.3613   24.3442 N   0  0  0  0  0  0  0  0  0  0  0  0
   10.3056  -16.1885   25.6853 C   0  0  1  0  0  0  0  0  0  0  0  0
    9.1383  -16.3790   26.6114 C   0  0  0  0  0  0  0  0  0  0  0  0
    7.9028  -15.6819   26.2982 C   0  0  0  0  0  0  0  0  0  0  0  0
    6.7175  -16.2196   25.7996 C   0  0  0  0  0  0  0  0  0  0  0  0
    5.8525  -15.2263   25.6207 N   0  0  0  0  0  0  0  0  0  0  0  0
    6.3978  -14.0430   25.9760 C   0  0  0  0  0  0  0  0  0  0  0  0
    5.9165  -12.7582   25.9929 C   0  0  0  0  0  0  0  0  0  0  0  0
    6.7236  -11.7342   26.4417 C   0  0  0  0  0  0  0  0  0  0  0  0
    8.0025  -11.9936   26.8702 C   0  0  0  0  0  0  0  0  0  0  0  0
    8.4924  -13.2740   26.8560 C   0  0  0  0  0  0  0  0  0  0  0  0
    7.6932  -14.3085   26.4075 C   0  0  0  0  0  0  0  0  0  0  0  0
   11.3175  -17.2205   25.8786 C   0  0  0  0  0  0  0  0  0  0  0  0
   11.6125  -18.2084   24.9429 O   0  0  0  0  0  0  0  0  0  0  0  0
   11.9785  -17.2429   26.9590 O   0  0  0  0  0  0  0  0  0  0  0  0
  2 12  2  0
  2  1  1  0
  3  2  1  0
  4  5  1  0
  4  3  2  0
  5 11  2  0
  6  5  1  0
  7  6  1  0
  7  8  1  6
  9  7  1  0
 10  9  2  0
 11 12  1  0
 13 14  1  0
 14 15  1  0
 15 17  1  0
 15 16  1  6
 17 18  1  1
 17 19  1  0
 18  9  1  0
 19 20  2  0
 21 19  1  0
 21 22  1  0
 22 23  1  1
 22 33  1  0
 24 23  1  0
 25 24  2  0
 26 25  1  0
 27 26  1  0
 27 32  2  0
 28 27  1  0
 29 28  2  0
 29 30  1  0
 30 31  2  0
 31 32  1  0
 32 24  1  0
 33 35  2  0
 33 34  1  0
M  END
$$$$
