YIW.pdb
     RDKit          3D

 35 37  0  0  1  0  0  0  0  0999 V2000
   11.4820  -23.4888   15.8731 O   0  0  0  0  0  0  0  0  0  0  0  0
   11.5334  -22.4672   16.8203 C   0  0  0  0  0  0  0  0  0  0  0  0
   10.3773  -21.9888   17.4096 C   0  0  0  0  0  0  0  0  0  0  0  0
   10.4155  -20.9812   18.3451 C   0  0  0  0  0  0  0  0  0  0  0  0
   11.6233  -20.4086   18.7302 C   0  0  0  0  0  0  0  0  0  0  0  0
   11.6439  -19.3183   19.7468 C   0  0  0  0  0  0  0  0  0  0  0  0
   11.4041  -17.9561   19.0939 C   0  0  2  0  0  0  0  0  0  0  0  0
   12.5675  -17.5609   18.3644 N   0  0  0  0  0  0  0  0  0  0  0  0
   11.0476  -17.0035   20.1725 C   0  0  0  0  0  0  0  0  0  0  0  0
   11.9547  -16.3607   20.7459 O   0  0  0  0  0  0  0  0  0  0  0  0
   12.7724  -20.8655   18.1620 C   0  0  0  0  0  0  0  0  0  0  0  0
   12.7147  -21.8836   17.2190 C   0  0  0  0  0  0  0  0  0  0  0  0
    6.6189  -13.7054   19.9106 C   0  0  0  0  0  0  0  0  0  0  0  0
    7.9506  -14.3319   20.1553 C   0  0  0  0  0  0  0  0  0  0  0  0
    8.1049  -15.0705   21.4410 C   0  0  2  0  0  0  0  0  0  0  0  0
    7.8612  -14.0850   22.5767 C   0  0  0  0  0  0  0  0  0  0  0  0
    9.3472  -15.8566   21.6275 C   0  0  2  0  0  0  0  0  0  0  0  0
    9.6784  -16.7875   20.5909 N   0  0  0  0  0  0  0  0  0  0  0  0
    9.3507  -16.4748   22.9712 C   0  0  0  0  0  0  0  0  0  0  0  0
    9.0508  -17.6812   23.1735 O   0  0  0  0  0  0  0  0  0  0  0  0
    9.7006  -15.7211   24.1130 N   0  0  0  0  0  0  0  0  0  0  0  0
    9.7658  -16.3320   25.4500 C   0  0  1  0  0  0  0  0  0  0  0  0
    9.4230  -15.2034   26.3803 C   0  0  0  0  0  0  0  0  0  0  0  0
    8.1094  -14.5958   26.2549 C   0  0  0  0  0  0  0  0  0  0  0  0
    6.9015  -15.2201   25.9487 C   0  0  0  0  0  0  0  0  0  0  0  0
    5.9534  -14.2899   25.8968 N   0  0  0  0  0  0  0  0  0  0  0  0
    6.4643  -13.0667   26.1545 C   0  0  0  0  0  0  0  0  0  0  0  0
    5.9044  -11.8166   26.2349 C   0  0  0  0  0  0  0  0  0  0  0  0
    6.6986  -10.7331   26.5460 C   0  0  0  0  0  0  0  0  0  0  0  0
    8.0427  -10.8991   26.7751 C   0  0  0  0  0  0  0  0  0  0  0  0
    8.6111  -12.1442   26.6961 C   0  0  0  0  0  0  0  0  0  0  0  0
    7.8254  -13.2376   26.3841 C   0  0  0  0  0  0  0  0  0  0  0  0
    8.7724  -17.3978   25.5109 C   0  0  0  0  0  0  0  0  0  0  0  0
    7.7256  -17.5410   24.6041 O   0  0  0  0  0  0  0  0  0  0  0  0
    8.8426  -18.2554   26.4406 O   0  0  0  0  0  0  0  0  0  0  0  0
  2 12  2  0
  2  1  1  0
  3  2  1  0
  4  5  1  0
  4  3  2  0
  5 11  2  0
  6  5  1  0
  7  6  1  0
  7  8  1  1
  9  7  1  0
 10  9  2  0
 11 12  1  0
 13 14  1  0
 14 15  1  0
 15 17  1  0
 15 16  1  1
 17 18  1  6
 17 19  1  0
 18  9  1  0
 19 20  2  0
 21 19  1  0
 21 22  1  0
 22 23  1  1
 22 33  1  0
 24 23  1  0
 25 24  2  0
 26 25  1  0
 27 26  1  0
 27 32  2  0
 28 27  1  0
 29 28  2  0
 29 30  1  0
 30 31  2  0
 31 32  1  0
 32 24  1  0
 33 35  2  0
 33 34  1  0
M  END
$$$$
