YIW.pdb
     RDKit          3D

 35 37  0  0  1  0  0  0  0  0999 V2000
    9.5676  -24.1907   16.0488 O   0  0  0  0  0  0  0  0  0  0  0  0
    9.7109  -23.0219   16.7949 C   0  0  0  0  0  0  0  0  0  0  0  0
   10.9416  -22.6565   17.3094 C   0  0  0  0  0  0  0  0  0  0  0  0
   11.0953  -21.5058   18.0471 C   0  0  0  0  0  0  0  0  0  0  0  0
   10.0133  -20.6690   18.3004 C   0  0  0  0  0  0  0  0  0  0  0  0
   10.2006  -19.4255   19.1011 C   0  0  0  0  0  0  0  0  0  0  0  0
    9.8815  -18.1838   18.2671 C   0  0  2  0  0  0  0  0  0  0  0  0
   10.7883  -18.0977   17.1661 N   0  0  0  0  0  0  0  0  0  0  0  0
    9.9571  -17.0107   19.1706 C   0  0  0  0  0  0  0  0  0  0  0  0
   11.0754  -16.5260   19.4520 O   0  0  0  0  0  0  0  0  0  0  0  0
    8.7937  -21.0110   17.8027 C   0  0  0  0  0  0  0  0  0  0  0  0
    8.6572  -22.1767   17.0600 C   0  0  0  0  0  0  0  0  0  0  0  0
    7.0224  -12.5916   18.4626 C   0  0  0  0  0  0  0  0  0  0  0  0
    8.0443  -13.6105   18.8412 C   0  0  0  0  0  0  0  0  0  0  0  0
    7.9950  -14.1019   20.2478 C   0  0  2  0  0  0  0  0  0  0  0  0
    8.2130  -12.9068   21.1668 C   0  0  0  0  0  0  0  0  0  0  0  0
    8.8621  -15.2521   20.5960 C   0  0  2  0  0  0  0  0  0  0  0  0
    8.7763  -16.4004   19.7445 N   0  0  0  0  0  0  0  0  0  0  0  0
    8.6948  -15.5894   22.0264 C   0  0  0  0  0  0  0  0  0  0  0  0
    7.6889  -16.2001   22.4754 O   0  0  0  0  0  0  0  0  0  0  0  0
    9.6803  -15.2341   22.9732 N   0  0  0  0  0  0  0  0  0  0  0  0
    9.4244  -15.3144   24.4199 C   0  0  1  0  0  0  0  0  0  0  0  0
    7.9564  -15.6202   24.5109 C   0  0  0  0  0  0  0  0  0  0  0  0
    7.2066  -15.0285   25.6055 C   0  0  0  0  0  0  0  0  0  0  0  0
    6.2954  -15.6518   26.4563 C   0  0  0  0  0  0  0  0  0  0  0  0
    5.8114  -14.7368   27.2904 N   0  0  0  0  0  0  0  0  0  0  0  0
    6.3537  -13.5250   27.0432 C   0  0  0  0  0  0  0  0  0  0  0  0
    6.1974  -12.2931   27.6268 C   0  0  0  0  0  0  0  0  0  0  0  0
    6.9236  -11.2194   27.1566 C   0  0  0  0  0  0  0  0  0  0  0  0
    7.7995  -11.3769   26.1104 C   0  0  0  0  0  0  0  0  0  0  0  0
    7.9617  -12.6038   25.5204 C   0  0  0  0  0  0  0  0  0  0  0  0
    7.2385  -13.6872   25.9823 C   0  0  0  0  0  0  0  0  0  0  0  0
   10.2329  -16.3990   24.9643 C   0  0  0  0  0  0  0  0  0  0  0  0
   10.9702  -16.3069   26.1417 O   0  0  0  0  0  0  0  0  0  0  0  0
   10.2873  -17.5012   24.3422 O   0  0  0  0  0  0  0  0  0  0  0  0
  2 12  2  0
  2  1  1  0
  3  2  1  0
  4  5  1  0
  4  3  2  0
  5 11  2  0
  6  5  1  0
  7  6  1  0
  7  8  1  6
  9  7  1  0
 10  9  2  0
 11 12  1  0
 13 14  1  0
 14 15  1  0
 15 17  1  0
 15 16  1  1
 17 18  1  6
 17 19  1  0
 18  9  1  0
 19 20  2  0
 21 19  1  0
 21 22  1  0
 22 23  1  6
 22 33  1  0
 24 23  1  0
 25 24  2  0
 26 25  1  0
 27 26  1  0
 27 32  2  0
 28 27  1  0
 29 28  2  0
 29 30  1  0
 30 31  2  0
 31 32  1  0
 32 24  1  0
 33 35  2  0
 33 34  1  0
M  END
$$$$
