YIW.pdb
     RDKit          3D

 35 37  0  0  1  0  0  0  0  0999 V2000
    7.6203  -11.8946   16.9574 O   0  0  0  0  0  0  0  0  0  0  0  0
    7.8302  -12.6200   18.1292 C   0  0  0  0  0  0  0  0  0  0  0  0
    9.1076  -12.9745   18.5235 C   0  0  0  0  0  0  0  0  0  0  0  0
    9.3271  -13.6902   19.6774 C   0  0  0  0  0  0  0  0  0  0  0  0
    8.2670  -14.0821   20.4884 C   0  0  0  0  0  0  0  0  0  0  0  0
    8.5258  -14.8563   21.7358 C   0  0  0  0  0  0  0  0  0  0  0  0
    8.7012  -16.3446   21.4303 C   0  0  2  0  0  0  0  0  0  0  0  0
    7.4689  -16.8856   20.9499 N   0  0  0  0  0  0  0  0  0  0  0  0
    9.1742  -17.0002   22.6731 C   0  0  0  0  0  0  0  0  0  0  0  0
    8.3415  -17.3285   23.5469 O   0  0  0  0  0  0  0  0  0  0  0  0
    7.0023  -13.7429   20.1177 C   0  0  0  0  0  0  0  0  0  0  0  0
    6.7994  -13.0200   18.9493 C   0  0  0  0  0  0  0  0  0  0  0  0
   13.9487  -19.7142   22.5581 C   0  0  0  0  0  0  0  0  0  0  0  0
   12.5555  -19.5713   23.0721 C   0  0  0  0  0  0  0  0  0  0  0  0
   12.3428  -18.5309   24.1185 C   0  0  2  0  0  0  0  0  0  0  0  0
   12.7153  -19.1404   25.4640 C   0  0  0  0  0  0  0  0  0  0  0  0
   11.0242  -17.8554   24.1461 C   0  0  2  0  0  0  0  0  0  0  0  0
   10.5745  -17.2767   22.9157 N   0  0  0  0  0  0  0  0  0  0  0  0
   10.9743  -16.9022   25.2760 C   0  0  0  0  0  0  0  0  0  0  0  0
   11.5054  -15.7608   25.2363 O   0  0  0  0  0  0  0  0  0  0  0  0
   10.3116  -17.2382   26.4768 N   0  0  0  0  0  0  0  0  0  0  0  0
   10.2696  -16.3123   27.6196 C   0  0  1  0  0  0  0  0  0  0  0  0
    8.8300  -16.3325   28.0486 C   0  0  0  0  0  0  0  0  0  0  0  0
    7.8487  -15.7348   27.1598 C   0  0  0  0  0  0  0  0  0  0  0  0
    6.8601  -16.3780   26.4172 C   0  0  0  0  0  0  0  0  0  0  0  0
    6.2072  -15.4608   25.7104 N   0  0  0  0  0  0  0  0  0  0  0  0
    6.7080  -14.2282   25.9416 C   0  0  0  0  0  0  0  0  0  0  0  0
    6.3746  -12.9805   25.4782 C   0  0  0  0  0  0  0  0  0  0  0  0
    7.0730  -11.8787   25.9251 C   0  0  0  0  0  0  0  0  0  0  0  0
    8.0972  -12.0241   26.8286 C   0  0  0  0  0  0  0  0  0  0  0  0
    8.4382  -13.2668   27.2964 C   0  0  0  0  0  0  0  0  0  0  0  0
    7.7460  -14.3788   26.8551 C   0  0  0  0  0  0  0  0  0  0  0  0
   11.1467  -16.8358   28.6603 C   0  0  0  0  0  0  0  0  0  0  0  0
   11.5973  -16.0920   29.7476 O   0  0  0  0  0  0  0  0  0  0  0  0
   11.5405  -18.0378   28.5893 O   0  0  0  0  0  0  0  0  0  0  0  0
  2 12  2  0
  2  1  1  0
  3  2  1  0
  4  5  1  0
  4  3  2  0
  5 11  2  0
  6  5  1  0
  7  6  1  0
  7  8  1  1
  9  7  1  0
 10  9  2  0
 11 12  1  0
 13 14  1  0
 14 15  1  0
 15 17  1  0
 15 16  1  1
 17 18  1  6
 17 19  1  0
 18  9  1  0
 19 20  2  0
 21 19  1  0
 21 22  1  0
 22 23  1  1
 22 33  1  0
 24 23  1  0
 25 24  2  0
 26 25  1  0
 27 26  1  0
 27 32  2  0
 28 27  1  0
 29 28  2  0
 29 30  1  0
 30 31  2  0
 31 32  1  0
 32 24  1  0
 33 35  2  0
 33 34  1  0
M  END
$$$$
