YIW.pdb
     RDKit          3D

 35 37  0  0  1  0  0  0  0  0999 V2000
    9.7390  -24.0062   15.2960 O   0  0  0  0  0  0  0  0  0  0  0  0
   10.0144  -22.9451   16.1571 C   0  0  0  0  0  0  0  0  0  0  0  0
    9.8658  -21.6356   15.7375 C   0  0  0  0  0  0  0  0  0  0  0  0
   10.1347  -20.5805   16.5780 C   0  0  0  0  0  0  0  0  0  0  0  0
   10.5665  -20.7974   17.8824 C   0  0  0  0  0  0  0  0  0  0  0  0
   10.8515  -19.6404   18.7783 C   0  0  0  0  0  0  0  0  0  0  0  0
   10.6253  -18.3148   18.0497 C   0  0  2  0  0  0  0  0  0  0  0  0
   11.6968  -18.0804   17.1338 N   0  0  0  0  0  0  0  0  0  0  0  0
   10.5050  -17.2563   19.0808 C   0  0  0  0  0  0  0  0  0  0  0  0
   11.5417  -16.7883   19.6013 O   0  0  0  0  0  0  0  0  0  0  0  0
   10.7188  -22.0789   18.3144 C   0  0  0  0  0  0  0  0  0  0  0  0
   10.4427  -23.1319   17.4520 C   0  0  0  0  0  0  0  0  0  0  0  0
    7.3781  -12.2827   20.8534 C   0  0  0  0  0  0  0  0  0  0  0  0
    8.2710  -13.4329   21.1784 C   0  0  0  0  0  0  0  0  0  0  0  0
    8.2328  -14.5843   20.2323 C   0  0  2  0  0  0  0  0  0  0  0  0
    6.7769  -14.9987   20.0612 C   0  0  0  0  0  0  0  0  0  0  0  0
    9.1201  -15.7342   20.5261 C   0  0  2  0  0  0  0  0  0  0  0  0
    9.2229  -16.7401   19.5119 N   0  0  0  0  0  0  0  0  0  0  0  0
    8.7885  -16.2953   21.8538 C   0  0  0  0  0  0  0  0  0  0  0  0
    7.9807  -17.2480   22.0150 O   0  0  0  0  0  0  0  0  0  0  0  0
    9.3788  -15.7753   23.0265 N   0  0  0  0  0  0  0  0  0  0  0  0
    9.0619  -16.3201   24.3562 C   0  0  1  0  0  0  0  0  0  0  0  0
    9.4498  -15.2179   25.3003 C   0  0  0  0  0  0  0  0  0  0  0  0
    8.4452  -14.7395   26.2342 C   0  0  0  0  0  0  0  0  0  0  0  0
    7.8733  -15.4253   27.3043 C   0  0  0  0  0  0  0  0  0  0  0  0
    6.9709  -14.6320   27.8729 N   0  0  0  0  0  0  0  0  0  0  0  0
    6.9072  -13.4421   27.2374 C   0  0  0  0  0  0  0  0  0  0  0  0
    6.1643  -12.3078   27.4471 C   0  0  0  0  0  0  0  0  0  0  0  0
    6.3410  -11.2158   26.6238 C   0  0  0  0  0  0  0  0  0  0  0  0
    7.2540  -11.2584   25.5986 C   0  0  0  0  0  0  0  0  0  0  0  0
    8.0002  -12.3877   25.3808 C   0  0  0  0  0  0  0  0  0  0  0  0
    7.8312  -13.4889   26.1988 C   0  0  0  0  0  0  0  0  0  0  0  0
    7.6298  -16.5902   24.4064 C   0  0  0  0  0  0  0  0  0  0  0  0
    7.0441  -17.5407   25.2382 O   0  0  0  0  0  0  0  0  0  0  0  0
    6.8509  -15.9353   23.6519 O   0  0  0  0  0  0  0  0  0  0  0  0
  2 12  2  0
  2  1  1  0
  3  2  1  0
  4  5  1  0
  4  3  2  0
  5 11  2  0
  6  5  1  0
  7  6  1  0
  7  8  1  6
  9  7  1  0
 10  9  2  0
 11 12  1  0
 13 14  1  0
 14 15  1  0
 15 17  1  0
 15 16  1  1
 17 18  1  6
 17 19  1  0
 18  9  1  0
 19 20  2  0
 21 19  1  0
 21 22  1  0
 22 23  1  1
 22 33  1  0
 24 23  1  0
 25 24  2  0
 26 25  1  0
 27 26  1  0
 27 32  2  0
 28 27  1  0
 29 28  2  0
 29 30  1  0
 30 31  2  0
 31 32  1  0
 32 24  1  0
 33 35  2  0
 33 34  1  0
M  END
$$$$
