YIW.pdb
     RDKit          3D

 35 37  0  0  1  0  0  0  0  0999 V2000
    4.5512  -23.3597   16.2462 O   0  0  0  0  0  0  0  0  0  0  0  0
    5.2920  -22.4608   17.0120 C   0  0  0  0  0  0  0  0  0  0  0  0
    6.6126  -22.7214   17.3298 C   0  0  0  0  0  0  0  0  0  0  0  0
    7.3534  -21.8422   18.0848 C   0  0  0  0  0  0  0  0  0  0  0  0
    6.7959  -20.6576   18.5549 C   0  0  0  0  0  0  0  0  0  0  0  0
    7.6159  -19.7170   19.3707 C   0  0  0  0  0  0  0  0  0  0  0  0
    8.0650  -18.5165   18.5362 C   0  0  2  0  0  0  0  0  0  0  0  0
    8.9813  -18.9474   17.5279 N   0  0  0  0  0  0  0  0  0  0  0  0
    8.6549  -17.5246   19.4669 C   0  0  0  0  0  0  0  0  0  0  0  0
    9.7810  -17.7464   19.9644 O   0  0  0  0  0  0  0  0  0  0  0  0
    5.4978  -20.3827   18.2529 C   0  0  0  0  0  0  0  0  0  0  0  0
    4.7649  -21.2821   17.4894 C   0  0  0  0  0  0  0  0  0  0  0  0
    7.1412  -12.1043   19.3210 C   0  0  0  0  0  0  0  0  0  0  0  0
    7.9164  -13.3768   19.3960 C   0  0  0  0  0  0  0  0  0  0  0  0
    8.0330  -13.9986   20.7459 C   0  0  2  0  0  0  0  0  0  0  0  0
    8.8647  -13.0666   21.6179 C   0  0  0  0  0  0  0  0  0  0  0  0
    8.5009  -15.4033   20.8083 C   0  0  2  0  0  0  0  0  0  0  0  0
    7.9714  -16.2995   19.8247 N   0  0  0  0  0  0  0  0  0  0  0  0
    8.3537  -15.9185   22.1870 C   0  0  0  0  0  0  0  0  0  0  0  0
    7.2413  -16.0143   22.7697 O   0  0  0  0  0  0  0  0  0  0  0  0
    9.4813  -16.3370   22.9267 N   0  0  0  0  0  0  0  0  0  0  0  0
    9.6963  -15.9035   24.3163 C   0  0  1  0  0  0  0  0  0  0  0  0
    8.4290  -16.2997   25.0189 C   0  0  0  0  0  0  0  0  0  0  0  0
    7.7554  -15.2939   25.8220 C   0  0  0  0  0  0  0  0  0  0  0  0
    6.4208  -14.8974   25.7571 C   0  0  0  0  0  0  0  0  0  0  0  0
    6.2324  -13.9231   26.6416 N   0  0  0  0  0  0  0  0  0  0  0  0
    7.3771  -13.6437   27.3014 C   0  0  0  0  0  0  0  0  0  0  0  0
    7.6895  -12.7540   28.2981 C   0  0  0  0  0  0  0  0  0  0  0  0
    8.9738  -12.7150   28.7986 C   0  0  0  0  0  0  0  0  0  0  0  0
    9.9382  -13.5597   28.3057 C   0  0  0  0  0  0  0  0  0  0  0  0
    9.6356  -14.4514   27.3093 C   0  0  0  0  0  0  0  0  0  0  0  0
    8.3520  -14.4991   26.7990 C   0  0  0  0  0  0  0  0  0  0  0  0
   10.8494  -16.6239   24.8432 C   0  0  0  0  0  0  0  0  0  0  0  0
   11.5593  -16.2373   25.9769 O   0  0  0  0  0  0  0  0  0  0  0  0
   11.2520  -17.6663   24.2464 O   0  0  0  0  0  0  0  0  0  0  0  0
  2 12  2  0
  2  1  1  0
  3  2  1  0
  4  5  1  0
  4  3  2  0
  5 11  2  0
  6  5  1  0
  7  6  1  0
  7  8  1  6
  9  7  1  0
 10  9  2  0
 11 12  1  0
 13 14  1  0
 14 15  1  0
 15 17  1  0
 15 16  1  1
 17 18  1  6
 17 19  1  0
 18  9  1  0
 19 20  2  0
 21 19  1  0
 21 22  1  0
 22 23  1  1
 22 33  1  0
 24 23  1  0
 25 24  2  0
 26 25  1  0
 27 26  1  0
 27 32  2  0
 28 27  1  0
 29 28  2  0
 29 30  1  0
 30 31  2  0
 31 32  1  0
 32 24  1  0
 33 35  2  0
 33 34  1  0
M  END
$$$$
