YIW.pdb
     RDKit          3D

 35 37  0  0  1  0  0  0  0  0999 V2000
   17.7157  -17.0806   15.9733 O   0  0  0  0  0  0  0  0  0  0  0  0
   16.8471  -16.5239   16.9107 C   0  0  0  0  0  0  0  0  0  0  0  0
   15.9297  -17.3118   17.5820 C   0  0  0  0  0  0  0  0  0  0  0  0
   15.0675  -16.7738   18.5088 C   0  0  0  0  0  0  0  0  0  0  0  0
   15.0905  -15.4142   18.8021 C   0  0  0  0  0  0  0  0  0  0  0  0
   14.1486  -14.8505   19.8108 C   0  0  0  0  0  0  0  0  0  0  0  0
   12.7550  -14.6574   19.2110 C   0  0  2  0  0  0  0  0  0  0  0  0
   12.7955  -13.6266   18.2222 N   0  0  0  0  0  0  0  0  0  0  0  0
   11.8296  -14.3502   20.3279 C   0  0  0  0  0  0  0  0  0  0  0  0
   11.9243  -13.2503   20.9162 O   0  0  0  0  0  0  0  0  0  0  0  0
   15.9860  -14.6218   18.1523 C   0  0  0  0  0  0  0  0  0  0  0  0
   16.8490  -15.1823   17.2195 C   0  0  0  0  0  0  0  0  0  0  0  0
    6.7728  -13.9353   19.7161 C   0  0  0  0  0  0  0  0  0  0  0  0
    8.1787  -13.9293   20.2151 C   0  0  0  0  0  0  0  0  0  0  0  0
    8.4634  -14.7976   21.3931 C   0  0  2  0  0  0  0  0  0  0  0  0
    7.5713  -14.3361   22.5385 C   0  0  0  0  0  0  0  0  0  0  0  0
    9.8804  -14.9458   21.8007 C   0  0  2  0  0  0  0  0  0  0  0  0
   10.8128  -15.2825   20.7671 N   0  0  0  0  0  0  0  0  0  0  0  0
    9.9729  -15.8491   22.9683 C   0  0  0  0  0  0  0  0  0  0  0  0
   10.1500  -17.0916   22.8635 O   0  0  0  0  0  0  0  0  0  0  0  0
    9.8658  -15.3448   24.2829 N   0  0  0  0  0  0  0  0  0  0  0  0
   10.0857  -16.2025   25.4581 C   0  0  1  0  0  0  0  0  0  0  0  0
    9.5303  -15.4002   26.6003 C   0  0  0  0  0  0  0  0  0  0  0  0
    8.1464  -14.9667   26.5153 C   0  0  0  0  0  0  0  0  0  0  0  0
    7.0110  -15.7537   26.3308 C   0  0  0  0  0  0  0  0  0  0  0  0
    5.9528  -14.9512   26.2730 N   0  0  0  0  0  0  0  0  0  0  0  0
    6.3204  -13.6591   26.4107 C   0  0  0  0  0  0  0  0  0  0  0  0
    5.6142  -12.4830   26.4374 C   0  0  0  0  0  0  0  0  0  0  0  0
    6.2827  -11.2909   26.6203 C   0  0  0  0  0  0  0  0  0  0  0  0
    7.6474  -11.2756   26.7753 C   0  0  0  0  0  0  0  0  0  0  0  0
    8.3615  -12.4456   26.7491 C   0  0  0  0  0  0  0  0  0  0  0  0
    7.7026  -13.6466   26.5655 C   0  0  0  0  0  0  0  0  0  0  0  0
    9.3421  -17.4413   25.2613 C   0  0  0  0  0  0  0  0  0  0  0  0
    7.9568  -17.5084   25.1391 O   0  0  0  0  0  0  0  0  0  0  0  0
    9.9736  -18.5377   25.1997 O   0  0  0  0  0  0  0  0  0  0  0  0
  2 12  2  0
  2  1  1  0
  3  2  1  0
  4  5  1  0
  4  3  2  0
  5 11  2  0
  6  5  1  0
  7  6  1  0
  7  8  1  6
  9  7  1  0
 10  9  2  0
 11 12  1  0
 13 14  1  0
 14 15  1  0
 15 17  1  0
 15 16  1  1
 17 18  1  6
 17 19  1  0
 18  9  1  0
 19 20  2  0
 21 19  1  0
 21 22  1  0
 22 23  1  1
 22 33  1  0
 24 23  1  0
 25 24  2  0
 26 25  1  0
 27 26  1  0
 27 32  2  0
 28 27  1  0
 29 28  2  0
 29 30  1  0
 30 31  2  0
 31 32  1  0
 32 24  1  0
 33 35  2  0
 33 34  1  0
M  END
$$$$
