YIW.pdb
     RDKit          3D

 35 37  0  0  1  0  0  0  0  0999 V2000
    7.8163  -24.2564   18.1635 O   0  0  0  0  0  0  0  0  0  0  0  0
    8.2596  -22.9953   18.5587 C   0  0  0  0  0  0  0  0  0  0  0  0
    9.6079  -22.6867   18.5603 C   0  0  0  0  0  0  0  0  0  0  0  0
   10.0571  -21.4460   18.9483 C   0  0  0  0  0  0  0  0  0  0  0  0
    9.1662  -20.4573   19.3533 C   0  0  0  0  0  0  0  0  0  0  0  0
    9.6729  -19.1183   19.7691 C   0  0  0  0  0  0  0  0  0  0  0  0
    9.4780  -18.0889   18.6549 C   0  0  2  0  0  0  0  0  0  0  0  0
   10.3206  -18.4134   17.5474 N   0  0  0  0  0  0  0  0  0  0  0  0
    9.7678  -16.7530   19.2291 C   0  0  0  0  0  0  0  0  0  0  0  0
   10.9291  -16.2940   19.1553 O   0  0  0  0  0  0  0  0  0  0  0  0
    7.8352  -20.7412   19.3587 C   0  0  0  0  0  0  0  0  0  0  0  0
    7.3997  -21.9995   18.9638 C   0  0  0  0  0  0  0  0  0  0  0  0
    7.2525  -12.2342   17.8748 C   0  0  0  0  0  0  0  0  0  0  0  0
    8.2253  -13.2427   18.3870 C   0  0  0  0  0  0  0  0  0  0  0  0
    8.1523  -13.5476   19.8445 C   0  0  2  0  0  0  0  0  0  0  0  0
    8.3397  -12.2404   20.6039 C   0  0  0  0  0  0  0  0  0  0  0  0
    9.0234  -14.6318   20.3558 C   0  0  2  0  0  0  0  0  0  0  0  0
    8.7496  -15.9536   19.8774 N   0  0  0  0  0  0  0  0  0  0  0  0
    9.0933  -14.5629   21.8317 C   0  0  0  0  0  0  0  0  0  0  0  0
    8.6434  -13.5924   22.4965 O   0  0  0  0  0  0  0  0  0  0  0  0
    9.6803  -15.6086   22.5774 N   0  0  0  0  0  0  0  0  0  0  0  0
    9.4523  -15.7460   24.0245 C   0  0  1  0  0  0  0  0  0  0  0  0
    7.9585  -15.8471   24.1472 C   0  0  0  0  0  0  0  0  0  0  0  0
    7.3467  -15.3907   25.3832 C   0  0  0  0  0  0  0  0  0  0  0  0
    6.4958  -16.0977   26.2310 C   0  0  0  0  0  0  0  0  0  0  0  0
    6.1373  -15.2934   27.2267 N   0  0  0  0  0  0  0  0  0  0  0  0
    6.7070  -14.0764   27.0916 C   0  0  0  0  0  0  0  0  0  0  0  0
    6.6643  -12.9337   27.8498 C   0  0  0  0  0  0  0  0  0  0  0  0
    7.3889  -11.8281   27.4573 C   0  0  0  0  0  0  0  0  0  0  0  0
    8.1504  -11.8656   26.3148 C   0  0  0  0  0  0  0  0  0  0  0  0
    8.1986  -13.0026   25.5504 C   0  0  0  0  0  0  0  0  0  0  0  0
    7.4758  -14.1167   25.9331 C   0  0  0  0  0  0  0  0  0  0  0  0
   10.1111  -16.9668   24.4738 C   0  0  0  0  0  0  0  0  0  0  0  0
   10.6114  -17.9437   23.6171 O   0  0  0  0  0  0  0  0  0  0  0  0
   10.2436  -17.1760   25.7162 O   0  0  0  0  0  0  0  0  0  0  0  0
  2 12  2  0
  2  1  1  0
  3  2  1  0
  4  5  1  0
  4  3  2  0
  5 11  2  0
  6  5  1  0
  7  6  1  0
  7  8  1  6
  9  7  1  0
 10  9  2  0
 11 12  1  0
 13 14  1  0
 14 15  1  0
 15 17  1  0
 15 16  1  1
 17 18  1  1
 17 19  1  0
 18  9  1  0
 19 20  2  0
 21 19  1  0
 21 22  1  0
 22 23  1  6
 22 33  1  0
 24 23  1  0
 25 24  2  0
 26 25  1  0
 27 26  1  0
 27 32  2  0
 28 27  1  0
 29 28  2  0
 29 30  1  0
 30 31  2  0
 31 32  1  0
 32 24  1  0
 33 35  2  0
 33 34  1  0
M  END
$$$$
