YIW.pdb
     RDKit          3D

 35 37  0  0  1  0  0  0  0  0999 V2000
    3.7059  -23.5857   25.1381 O   0  0  0  0  0  0  0  0  0  0  0  0
    4.4476  -22.4660   24.7647 C   0  0  0  0  0  0  0  0  0  0  0  0
    3.8215  -21.3277   24.2903 C   0  0  0  0  0  0  0  0  0  0  0  0
    4.5427  -20.2170   23.9187 C   0  0  0  0  0  0  0  0  0  0  0  0
    5.9308  -20.2028   24.0084 C   0  0  0  0  0  0  0  0  0  0  0  0
    6.6944  -18.9886   23.6019 C   0  0  0  0  0  0  0  0  0  0  0  0
    6.7778  -18.8787   22.0787 C   0  0  2  0  0  0  0  0  0  0  0  0
    7.2293  -20.1188   21.5309 N   0  0  0  0  0  0  0  0  0  0  0  0
    7.6808  -17.7456   21.7642 C   0  0  0  0  0  0  0  0  0  0  0  0
    8.8333  -17.9813   21.3387 O   0  0  0  0  0  0  0  0  0  0  0  0
    6.5658  -21.3132   24.4729 C   0  0  0  0  0  0  0  0  0  0  0  0
    5.8214  -22.4256   24.8436 C   0  0  0  0  0  0  0  0  0  0  0  0
    6.2597  -12.8876   19.4118 C   0  0  0  0  0  0  0  0  0  0  0  0
    6.9714  -14.1165   19.8691 C   0  0  0  0  0  0  0  0  0  0  0  0
    7.6521  -14.0296   21.1925 C   0  0  2  0  0  0  0  0  0  0  0  0
    8.6957  -12.9230   21.1080 C   0  0  0  0  0  0  0  0  0  0  0  0
    8.1996  -15.2851   21.7581 C   0  0  2  0  0  0  0  0  0  0  0  0
    7.2762  -16.3658   21.9326 N   0  0  0  0  0  0  0  0  0  0  0  0
    8.9669  -14.9870   22.9870 C   0  0  0  0  0  0  0  0  0  0  0  0
    9.2273  -13.8149   23.3673 O   0  0  0  0  0  0  0  0  0  0  0  0
    9.4511  -16.0290   23.8078 N   0  0  0  0  0  0  0  0  0  0  0  0
   10.1681  -15.7526   25.0627 C   0  0  1  0  0  0  0  0  0  0  0  0
    9.1800  -16.1212   26.1324 C   0  0  0  0  0  0  0  0  0  0  0  0
    7.8836  -15.4659   26.1136 C   0  0  0  0  0  0  0  0  0  0  0  0
    6.6536  -16.0088   25.7463 C   0  0  0  0  0  0  0  0  0  0  0  0
    5.7330  -15.0543   25.8378 N   0  0  0  0  0  0  0  0  0  0  0  0
    6.2836  -13.8923   26.2506 C   0  0  0  0  0  0  0  0  0  0  0  0
    5.7624  -12.6498   26.5098 C   0  0  0  0  0  0  0  0  0  0  0  0
    6.5927  -11.6414   26.9516 C   0  0  0  0  0  0  0  0  0  0  0  0
    7.9342  -11.8743   27.1327 C   0  0  0  0  0  0  0  0  0  0  0  0
    8.4641  -13.1123   26.8753 C   0  0  0  0  0  0  0  0  0  0  0  0
    7.6420  -14.1306   26.4311 C   0  0  0  0  0  0  0  0  0  0  0  0
   11.3500  -16.6054   25.1073 C   0  0  0  0  0  0  0  0  0  0  0  0
   12.3449  -16.5094   26.0766 O   0  0  0  0  0  0  0  0  0  0  0  0
   11.5056  -17.4927   24.2166 O   0  0  0  0  0  0  0  0  0  0  0  0
  2 12  2  0
  2  1  1  0
  3  2  1  0
  4  5  1  0
  4  3  2  0
  5 11  2  0
  6  5  1  0
  7  6  1  0
  7  8  1  6
  9  7  1  0
 10  9  2  0
 11 12  1  0
 13 14  1  0
 14 15  1  0
 15 17  1  0
 15 16  1  6
 17 18  1  1
 17 19  1  0
 18  9  1  0
 19 20  2  0
 21 19  1  0
 21 22  1  0
 22 23  1  1
 22 33  1  0
 24 23  1  0
 25 24  2  0
 26 25  1  0
 27 26  1  0
 27 32  2  0
 28 27  1  0
 29 28  2  0
 29 30  1  0
 30 31  2  0
 31 32  1  0
 32 24  1  0
 33 35  2  0
 33 34  1  0
M  END
$$$$
