YIW.pdb
     RDKit          3D

 35 37  0  0  1  0  0  0  0  0999 V2000
    7.3911  -25.4982   21.3058 O   0  0  0  0  0  0  0  0  0  0  0  0
    7.8536  -24.1833   21.3293 C   0  0  0  0  0  0  0  0  0  0  0  0
    7.0077  -23.1408   21.6620 C   0  0  0  0  0  0  0  0  0  0  0  0
    7.4525  -21.8395   21.6884 C   0  0  0  0  0  0  0  0  0  0  0  0
    8.7729  -21.5288   21.3802 C   0  0  0  0  0  0  0  0  0  0  0  0
    9.2360  -20.1122   21.4157 C   0  0  0  0  0  0  0  0  0  0  0  0
    8.6491  -19.3147   20.2501 C   0  0  2  0  0  0  0  0  0  0  0  0
    9.0353  -19.9164   19.0128 N   0  0  0  0  0  0  0  0  0  0  0  0
    9.1235  -17.9166   20.3852 C   0  0  0  0  0  0  0  0  0  0  0  0
   10.2230  -17.5922   19.8845 O   0  0  0  0  0  0  0  0  0  0  0  0
    9.6212  -22.5406   21.0504 C   0  0  0  0  0  0  0  0  0  0  0  0
    9.1546  -23.8486   21.0288 C   0  0  0  0  0  0  0  0  0  0  0  0
    7.2614  -12.0394   20.5811 C   0  0  0  0  0  0  0  0  0  0  0  0
    8.2804  -13.0802   20.9040 C   0  0  0  0  0  0  0  0  0  0  0  0
    7.8192  -14.4963   20.8384 C   0  0  2  0  0  0  0  0  0  0  0  0
    6.5452  -14.6103   21.6659 C   0  0  0  0  0  0  0  0  0  0  0  0
    8.8085  -15.5485   21.1705 C   0  0  2  0  0  0  0  0  0  0  0  0
    8.3565  -16.9045   21.0806 N   0  0  0  0  0  0  0  0  0  0  0  0
    9.4443  -15.2446   22.4709 C   0  0  0  0  0  0  0  0  0  0  0  0
   10.0910  -14.1861   22.6890 O   0  0  0  0  0  0  0  0  0  0  0  0
    9.3500  -16.1494   23.5509 N   0  0  0  0  0  0  0  0  0  0  0  0
   10.0396  -15.9017   24.8269 C   0  0  1  0  0  0  0  0  0  0  0  0
    8.9862  -16.1670   25.8646 C   0  0  0  0  0  0  0  0  0  0  0  0
    7.8031  -15.3240   25.8614 C   0  0  0  0  0  0  0  0  0  0  0  0
    6.4879  -15.6931   25.5848 C   0  0  0  0  0  0  0  0  0  0  0  0
    5.7265  -14.6058   25.6556 N   0  0  0  0  0  0  0  0  0  0  0  0
    6.4658  -13.5198   25.9681 C   0  0  0  0  0  0  0  0  0  0  0  0
    6.1508  -12.1997   26.1700 C   0  0  0  0  0  0  0  0  0  0  0  0
    7.1448  -11.3061   26.5088 C   0  0  0  0  0  0  0  0  0  0  0  0
    8.4442  -11.7301   26.6446 C   0  0  0  0  0  0  0  0  0  0  0  0
    8.7687  -13.0469   26.4439 C   0  0  0  0  0  0  0  0  0  0  0  0
    7.7811  -13.9517   26.1030 C   0  0  0  0  0  0  0  0  0  0  0  0
   11.1475  -16.8438   24.9343 C   0  0  0  0  0  0  0  0  0  0  0  0
   12.1269  -16.7865   25.9222 O   0  0  0  0  0  0  0  0  0  0  0  0
   11.2488  -17.7776   24.0843 O   0  0  0  0  0  0  0  0  0  0  0  0
  2 12  2  0
  2  1  1  0
  3  2  1  0
  4  5  1  0
  4  3  2  0
  5 11  2  0
  6  5  1  0
  7  6  1  0
  7  8  1  6
  9  7  1  0
 10  9  2  0
 11 12  1  0
 13 14  1  0
 14 15  1  0
 15 17  1  0
 15 16  1  1
 17 18  1  1
 17 19  1  0
 18  9  1  0
 19 20  2  0
 21 19  1  0
 21 22  1  0
 22 23  1  1
 22 33  1  0
 24 23  1  0
 25 24  2  0
 26 25  1  0
 27 26  1  0
 27 32  2  0
 28 27  1  0
 29 28  2  0
 29 30  1  0
 30 31  2  0
 31 32  1  0
 32 24  1  0
 33 35  2  0
 33 34  1  0
M  END
$$$$
