YIW.pdb
     RDKit          3D

 35 37  0  0  1  0  0  0  0  0999 V2000
   -0.2299  -21.1452   21.9556 O   0  0  0  0  0  0  0  0  0  0  0  0
    0.9902  -20.4858   22.0959 C   0  0  0  0  0  0  0  0  0  0  0  0
    1.1880  -19.2357   21.5382 C   0  0  0  0  0  0  0  0  0  0  0  0
    2.3875  -18.5756   21.6698 C   0  0  0  0  0  0  0  0  0  0  0  0
    3.4447  -19.1464   22.3710 C   0  0  0  0  0  0  0  0  0  0  0  0
    4.7365  -18.4142   22.5035 C   0  0  0  0  0  0  0  0  0  0  0  0
    5.4356  -18.2874   21.1490 C   0  0  2  0  0  0  0  0  0  0  0  0
    5.7229  -19.5883   20.6324 N   0  0  0  0  0  0  0  0  0  0  0  0
    6.6525  -17.4653   21.3528 C   0  0  0  0  0  0  0  0  0  0  0  0
    7.7384  -18.0318   21.6068 O   0  0  0  0  0  0  0  0  0  0  0  0
    3.2700  -20.3760   22.9274 C   0  0  0  0  0  0  0  0  0  0  0  0
    2.0520  -21.0279   22.7844 C   0  0  0  0  0  0  0  0  0  0  0  0
    6.9651  -12.3120   19.0511 C   0  0  0  0  0  0  0  0  0  0  0  0
    7.2415  -13.7107   19.4905 C   0  0  0  0  0  0  0  0  0  0  0  0
    7.8003  -13.8717   20.8632 C   0  0  2  0  0  0  0  0  0  0  0  0
    9.1710  -13.2074   20.8892 C   0  0  0  0  0  0  0  0  0  0  0  0
    7.8212  -15.2401   21.4315 C   0  0  2  0  0  0  0  0  0  0  0  0
    6.6312  -16.0201   21.2685 N   0  0  0  0  0  0  0  0  0  0  0  0
    8.2829  -15.1913   22.8358 C   0  0  0  0  0  0  0  0  0  0  0  0
    7.8144  -14.3886   23.6858 O   0  0  0  0  0  0  0  0  0  0  0  0
    9.2924  -16.0649   23.2959 N   0  0  0  0  0  0  0  0  0  0  0  0
   10.0336  -15.8001   24.5391 C   0  0  1  0  0  0  0  0  0  0  0  0
    9.1277  -16.3213   25.6182 C   0  0  0  0  0  0  0  0  0  0  0  0
    7.9543  -15.5350   25.9574 C   0  0  0  0  0  0  0  0  0  0  0  0
    6.6186  -15.9323   25.9306 C   0  0  0  0  0  0  0  0  0  0  0  0
    5.8675  -14.8919   26.2776 N   0  0  0  0  0  0  0  0  0  0  0  0
    6.6335  -13.8107   26.5384 C   0  0  0  0  0  0  0  0  0  0  0  0
    6.3414  -12.5323   26.9420 C   0  0  0  0  0  0  0  0  0  0  0  0
    7.3659  -11.6338   27.1535 C   0  0  0  0  0  0  0  0  0  0  0  0
    8.6726  -12.0116   26.9627 C   0  0  0  0  0  0  0  0  0  0  0  0
    8.9740  -13.2865   26.5586 C   0  0  0  0  0  0  0  0  0  0  0  0
    7.9557  -14.1956   26.3425 C   0  0  0  0  0  0  0  0  0  0  0  0
   11.2876  -16.5426   24.4867 C   0  0  0  0  0  0  0  0  0  0  0  0
   12.3063  -16.4204   25.4279 O   0  0  0  0  0  0  0  0  0  0  0  0
   11.4873  -17.3510   23.5320 O   0  0  0  0  0  0  0  0  0  0  0  0
  2 12  2  0
  2  1  1  0
  3  2  1  0
  4  5  1  0
  4  3  2  0
  5 11  2  0
  6  5  1  0
  7  6  1  0
  7  8  1  1
  9  7  1  0
 10  9  2  0
 11 12  1  0
 13 14  1  0
 14 15  1  0
 15 17  1  0
 15 16  1  6
 17 18  1  1
 17 19  1  0
 18  9  1  0
 19 20  2  0
 21 19  1  0
 21 22  1  0
 22 23  1  1
 22 33  1  0
 24 23  1  0
 25 24  2  0
 26 25  1  0
 27 26  1  0
 27 32  2  0
 28 27  1  0
 29 28  2  0
 29 30  1  0
 30 31  2  0
 31 32  1  0
 32 24  1  0
 33 35  2  0
 33 34  1  0
M  END
$$$$
