AGD.pdb
     RDKit          3D

 18 17  0  0  1  0  0  0  0  0999 V2000
    8.2491  -12.3083   19.4610 C   0  0  0  0  0  0  0  0  0  0  0  0
    7.6069  -13.6524   19.1543 C   0  0  2  0  0  0  0  0  0  0  0  0
    6.1639  -13.5560   19.0635 N   0  0  0  0  0  0  0  0  0  0  0  0
    8.0348  -14.5882   20.2191 C   0  0  0  0  0  0  0  0  0  0  0  0
    7.3330  -14.6911   21.2454 O   0  0  0  0  0  0  0  0  0  0  0  0
    9.2142  -15.3602   20.0973 N   0  0  0  0  0  0  0  0  0  0  0  0
    9.5817  -16.3141   21.1345 C   0  0  0  0  0  0  0  0  0  0  0  0
   11.0187  -16.1674   21.4870 C   0  0  0  0  0  0  0  0  0  0  0  0
   11.8519  -15.8322   20.6015 O   0  0  0  0  0  0  0  0  0  0  0  0
   11.5106  -16.3877   22.7913 N   0  0  0  0  0  0  0  0  0  0  0  0
   12.9515  -16.4471   23.0569 C   0  0  1  0  0  0  0  0  0  0  0  0
   13.2408  -16.2608   24.5005 C   0  0  0  0  0  0  0  0  0  0  0  0
   14.6751  -16.2964   24.7840 C   0  0  0  0  0  0  0  0  0  0  0  0
   15.5312  -15.9960   23.9319 O   0  0  0  0  0  0  0  0  0  0  0  0
   13.4185  -17.8069   22.6382 C   0  0  0  0  0  0  0  0  0  0  0  0
   14.6024  -17.8998   21.8792 O   0  0  0  0  0  0  0  0  0  0  0  0
   15.0951  -16.6857   26.0707 O   0  0  0  0  0  0  0  0  0  0  0  0
   12.8436  -18.8618   22.9069 O   0  0  0  0  0  0  0  0  0  0  0  0
  2  1  1  1
  2  3  1  0
  4  5  2  0
  4  2  1  0
  6  4  1  0
  7  6  1  0
  8  7  1  0
  8 10  1  0
  9  8  2  0
 11 12  1  1
 11 10  1  0
 12 13  1  0
 13 14  2  0
 13 17  1  0
 15 11  1  0
 16 15  1  0
 18 15  2  0
M  END
$$$$
