AGD.pdb
     RDKit          3D

 18 17  0  0  1  0  0  0  0  0999 V2000
   -1.1418  -27.1960   32.7899 C   0  0  0  0  0  0  0  0  0  0  0  0
   -1.8210  -27.1753   31.4292 C   0  0  2  0  0  0  0  0  0  0  0  0
   -1.1863  -26.2419   30.5204 N   0  0  0  0  0  0  0  0  0  0  0  0
   -3.2447  -26.8419   31.6625 C   0  0  0  0  0  0  0  0  0  0  0  0
   -3.9320  -27.6060   32.3698 O   0  0  0  0  0  0  0  0  0  0  0  0
   -3.8361  -25.6848   31.1030 N   0  0  0  0  0  0  0  0  0  0  0  0
   -5.1760  -25.2757   31.5006 C   0  0  0  0  0  0  0  0  0  0  0  0
   -5.5798  -24.0453   30.7698 C   0  0  0  0  0  0  0  0  0  0  0  0
   -4.7085  -23.1935   30.4440 O   0  0  0  0  0  0  0  0  0  0  0  0
   -6.9180  -23.7747   30.4123 N   0  0  0  0  0  0  0  0  0  0  0  0
   -7.2638  -22.5973   29.6097 C   0  0  1  0  0  0  0  0  0  0  0  0
   -8.6249  -22.7211   29.0314 C   0  0  0  0  0  0  0  0  0  0  0  0
   -8.7439  -23.8782   28.1450 C   0  0  0  0  0  0  0  0  0  0  0  0
   -7.9200  -24.1145   27.2424 O   0  0  0  0  0  0  0  0  0  0  0  0
   -7.2308  -21.4154   30.5286 C   0  0  0  0  0  0  0  0  0  0  0  0
   -6.7403  -20.1940   30.0250 O   0  0  0  0  0  0  0  0  0  0  0  0
   -9.8333  -24.7523   28.3254 O   0  0  0  0  0  0  0  0  0  0  0  0
   -7.6018  -21.4264   31.7024 O   0  0  0  0  0  0  0  0  0  0  0  0
  2  1  1  1
  2  3  1  0
  4  5  2  0
  4  2  1  0
  6  4  1  0
  7  6  1  0
  8  7  1  0
  8 10  1  0
  9  8  2  0
 11 12  1  1
 11 10  1  0
 12 13  1  0
 13 14  2  0
 13 17  1  0
 15 11  1  0
 16 15  1  0
 18 15  2  0
M  END
$$$$
