AGD.pdb
     RDKit          3D

 18 17  0  0  1  0  0  0  0  0999 V2000
    7.0530  -13.7023   21.3404 C   0  0  0  0  0  0  0  0  0  0  0  0
    7.6216  -14.6517   20.2971 C   0  0  2  0  0  0  0  0  0  0  0  0
    8.1608  -15.8560   20.8963 N   0  0  0  0  0  0  0  0  0  0  0  0
    8.6496  -13.8987   19.5430 C   0  0  0  0  0  0  0  0  0  0  0  0
    8.2973  -12.9040   18.8775 O   0  0  0  0  0  0  0  0  0  0  0  0
   10.0113  -14.2824   19.5609 N   0  0  0  0  0  0  0  0  0  0  0  0
   11.0320  -13.4053   19.0045 C   0  0  0  0  0  0  0  0  0  0  0  0
   12.3873  -13.9615   19.2592 C   0  0  0  0  0  0  0  0  0  0  0  0
   13.4026  -13.3868   18.7802 O   0  0  0  0  0  0  0  0  0  0  0  0
   12.6021  -15.1256   20.0276 N   0  0  0  0  0  0  0  0  0  0  0  0
   13.9424  -15.7039   20.1670 C   0  0  1  0  0  0  0  0  0  0  0  0
   14.1119  -16.3571   21.4888 C   0  0  0  0  0  0  0  0  0  0  0  0
   14.2656  -15.3833   22.5690 C   0  0  0  0  0  0  0  0  0  0  0  0
   14.9701  -14.3638   22.4527 O   0  0  0  0  0  0  0  0  0  0  0  0
   14.0885  -16.7358   19.0916 C   0  0  0  0  0  0  0  0  0  0  0  0
   13.0005  -16.9493   18.2216 O   0  0  0  0  0  0  0  0  0  0  0  0
   13.5887  -15.6146   23.7821 O   0  0  0  0  0  0  0  0  0  0  0  0
   15.0946  -17.4203   18.9056 O   0  0  0  0  0  0  0  0  0  0  0  0
  2  1  1  1
  2  3  1  0
  4  5  2  0
  4  2  1  0
  6  4  1  0
  7  6  1  0
  8  7  1  0
  8 10  1  0
  9  8  2  0
 11 12  1  1
 11 10  1  0
 12 13  1  0
 13 14  2  0
 13 17  1  0
 15 11  1  0
 16 15  1  0
 18 15  2  0
M  END
$$$$
