AGD.pdb
     RDKit          3D

 18 17  0  0  1  0  0  0  0  0999 V2000
    7.4671  -12.7761   19.5044 C   0  0  0  0  0  0  0  0  0  0  0  0
    7.6769  -14.2474   19.8272 C   0  0  2  0  0  0  0  0  0  0  0  0
    6.4232  -14.9353   20.0620 N   0  0  0  0  0  0  0  0  0  0  0  0
    8.5721  -14.3075   21.0051 C   0  0  0  0  0  0  0  0  0  0  0  0
    9.7684  -13.9818   20.8670 O   0  0  0  0  0  0  0  0  0  0  0  0
    8.1020  -14.7247   22.2727 N   0  0  0  0  0  0  0  0  0  0  0  0
    8.9888  -14.7152   23.4278 C   0  0  0  0  0  0  0  0  0  0  0  0
    9.7308  -16.0004   23.5211 C   0  0  0  0  0  0  0  0  0  0  0  0
    9.3305  -16.9014   24.3076 O   0  0  0  0  0  0  0  0  0  0  0  0
   10.8861  -16.2715   22.7572 N   0  0  0  0  0  0  0  0  0  0  0  0
   11.5717  -17.5641   22.8543 C   0  0  1  0  0  0  0  0  0  0  0  0
   12.3904  -17.8312   21.6457 C   0  0  0  0  0  0  0  0  0  0  0  0
   11.5646  -18.0688   20.4623 C   0  0  0  0  0  0  0  0  0  0  0  0
   10.4331  -18.5828   20.5308 O   0  0  0  0  0  0  0  0  0  0  0  0
   12.4737  -17.4931   24.0476 C   0  0  0  0  0  0  0  0  0  0  0  0
   13.0219  -16.2420   24.3944 O   0  0  0  0  0  0  0  0  0  0  0  0
   12.0755  -17.7001   19.2028 O   0  0  0  0  0  0  0  0  0  0  0  0
   12.7781  -18.4519   24.7572 O   0  0  0  0  0  0  0  0  0  0  0  0
  2  1  1  1
  2  3  1  0
  4  5  2  0
  4  2  1  0
  6  4  1  0
  7  6  1  0
  8  7  1  0
  8 10  1  0
  9  8  2  0
 11 12  1  6
 11 10  1  0
 12 13  1  0
 13 14  2  0
 13 17  1  0
 15 11  1  0
 16 15  1  0
 18 15  2  0
M  END
$$$$
