AGD.pdb
     RDKit          3D

 18 17  0  0  1  0  0  0  0  0999 V2000
    6.7854  -13.0688   19.8683 C   0  0  0  0  0  0  0  0  0  0  0  0
    7.8222  -14.1584   19.6426 C   0  0  2  0  0  0  0  0  0  0  0  0
    7.2449  -15.4843   19.7366 N   0  0  0  0  0  0  0  0  0  0  0  0
    8.8943  -13.9476   20.6419 C   0  0  0  0  0  0  0  0  0  0  0  0
    9.5701  -12.9005   20.5854 O   0  0  0  0  0  0  0  0  0  0  0  0
    9.1659  -14.9025   21.6500 N   0  0  0  0  0  0  0  0  0  0  0  0
   10.1699  -14.6330   22.6698 C   0  0  0  0  0  0  0  0  0  0  0  0
   10.8398  -15.8945   23.0828 C   0  0  0  0  0  0  0  0  0  0  0  0
   10.2609  -17.0008   22.9048 O   0  0  0  0  0  0  0  0  0  0  0  0
   12.1198  -15.9196   23.6767 N   0  0  0  0  0  0  0  0  0  0  0  0
   12.7421  -17.1844   24.0809 C   0  0  1  0  0  0  0  0  0  0  0  0
   14.1973  -17.0165   24.3182 C   0  0  0  0  0  0  0  0  0  0  0  0
   14.8768  -16.4146   23.1716 C   0  0  0  0  0  0  0  0  0  0  0  0
   14.6514  -16.7706   22.0004 O   0  0  0  0  0  0  0  0  0  0  0  0
   12.0858  -17.6068   25.3590 C   0  0  0  0  0  0  0  0  0  0  0  0
   12.4076  -18.8738   25.8855 O   0  0  0  0  0  0  0  0  0  0  0  0
   15.8194  -15.3956   23.4094 O   0  0  0  0  0  0  0  0  0  0  0  0
   11.2781  -16.9276   25.9929 O   0  0  0  0  0  0  0  0  0  0  0  0
  2  1  1  1
  2  3  1  0
  4  5  2  0
  4  2  1  0
  6  4  1  0
  7  6  1  0
  8  7  1  0
  8 10  1  0
  9  8  2  0
 11 12  1  1
 11 10  1  0
 12 13  1  0
 13 14  2  0
 13 17  1  0
 15 11  1  0
 16 15  1  0
 18 15  2  0
M  END
$$$$
