AGD.pdb
     RDKit          3D

 18 17  0  0  1  0  0  0  0  0999 V2000
    7.3833  -12.7603   19.5412 C   0  0  0  0  0  0  0  0  0  0  0  0
    7.9561  -14.1618   19.6852 C   0  0  2  0  0  0  0  0  0  0  0  0
    6.9221  -15.1766   19.6508 N   0  0  0  0  0  0  0  0  0  0  0  0
    8.7178  -14.1884   20.9547 C   0  0  0  0  0  0  0  0  0  0  0  0
    9.7406  -13.4811   21.0559 O   0  0  0  0  0  0  0  0  0  0  0  0
    8.3131  -14.9940   22.0451 N   0  0  0  0  0  0  0  0  0  0  0  0
    9.0842  -15.0046   23.2804 C   0  0  0  0  0  0  0  0  0  0  0  0
   10.2697  -15.8916   23.1430 C   0  0  0  0  0  0  0  0  0  0  0  0
   10.4287  -16.5695   22.0914 O   0  0  0  0  0  0  0  0  0  0  0  0
   11.2497  -16.0168   24.1508 N   0  0  0  0  0  0  0  0  0  0  0  0
   12.4875  -16.7665   23.9139 C   0  0  1  0  0  0  0  0  0  0  0  0
   13.6767  -15.8828   23.9996 C   0  0  0  0  0  0  0  0  0  0  0  0
   14.9175  -16.5987   23.7057 C   0  0  0  0  0  0  0  0  0  0  0  0
   15.4172  -17.4199   24.4964 O   0  0  0  0  0  0  0  0  0  0  0  0
   12.5788  -17.8108   24.9833 C   0  0  0  0  0  0  0  0  0  0  0  0
   13.4022  -18.9308   24.7515 O   0  0  0  0  0  0  0  0  0  0  0  0
   15.5650  -16.3441   22.4811 O   0  0  0  0  0  0  0  0  0  0  0  0
   11.9845  -17.7682   26.0606 O   0  0  0  0  0  0  0  0  0  0  0  0
  2  1  1  1
  2  3  1  0
  4  5  2  0
  4  2  1  0
  6  4  1  0
  7  6  1  0
  8  7  1  0
  8 10  1  0
  9  8  2  0
 11 12  1  1
 11 10  1  0
 12 13  1  0
 13 14  2  0
 13 17  1  0
 15 11  1  0
 16 15  1  0
 18 15  2  0
M  END
$$$$
