AGD.pdb
     RDKit          3D

 18 17  0  0  1  0  0  0  0  0999 V2000
    6.8270  -12.9649   20.2531 C   0  0  0  0  0  0  0  0  0  0  0  0
    7.4275  -14.2928   19.8182 C   0  0  2  0  0  0  0  0  0  0  0  0
    6.7461  -15.4201   20.4223 N   0  0  0  0  0  0  0  0  0  0  0  0
    8.8636  -14.2551   20.1769 C   0  0  0  0  0  0  0  0  0  0  0  0
    9.5987  -13.4128   19.6230 O   0  0  0  0  0  0  0  0  0  0  0  0
    9.4142  -15.1483   21.1260 N   0  0  0  0  0  0  0  0  0  0  0  0
   10.8299  -15.0872   21.4617 C   0  0  0  0  0  0  0  0  0  0  0  0
   11.1575  -16.0912   22.5084 C   0  0  0  0  0  0  0  0  0  0  0  0
   10.3639  -17.0451   22.7344 O   0  0  0  0  0  0  0  0  0  0  0  0
   12.3379  -16.0319   23.2796 N   0  0  0  0  0  0  0  0  0  0  0  0
   12.7342  -17.1481   24.1441 C   0  0  1  0  0  0  0  0  0  0  0  0
   14.1618  -17.0448   24.5360 C   0  0  0  0  0  0  0  0  0  0  0  0
   15.0465  -16.9516   23.3752 C   0  0  0  0  0  0  0  0  0  0  0  0
   15.1882  -17.8880   22.5676 O   0  0  0  0  0  0  0  0  0  0  0  0
   11.8846  -17.0721   25.3749 C   0  0  0  0  0  0  0  0  0  0  0  0
   11.8865  -18.1734   26.2543 O   0  0  0  0  0  0  0  0  0  0  0  0
   15.7610  -15.7553   23.1706 O   0  0  0  0  0  0  0  0  0  0  0  0
   11.1764  -16.1133   25.6827 O   0  0  0  0  0  0  0  0  0  0  0  0
  2  1  1  1
  2  3  1  0
  4  5  2  0
  4  2  1  0
  6  4  1  0
  7  6  1  0
  8  7  1  0
  8 10  1  0
  9  8  2  0
 11 12  1  1
 11 10  1  0
 12 13  1  0
 13 14  2  0
 13 17  1  0
 15 11  1  0
 16 15  1  0
 18 15  2  0
M  END
$$$$
