AGD.pdb
     RDKit          3D

 18 17  0  0  1  0  0  0  0  0999 V2000
    7.5190  -12.6357   19.2867 C   0  0  0  0  0  0  0  0  0  0  0  0
    7.7060  -14.1101   19.6096 C   0  0  2  0  0  0  0  0  0  0  0  0
    6.4406  -14.8112   19.6955 N   0  0  0  0  0  0  0  0  0  0  0  0
    8.4671  -14.1810   20.8778 C   0  0  0  0  0  0  0  0  0  0  0  0
    9.7017  -14.0040   20.8475 O   0  0  0  0  0  0  0  0  0  0  0  0
    7.8277  -14.4446   22.1121 N   0  0  0  0  0  0  0  0  0  0  0  0
    8.5807  -14.3969   23.3577 C   0  0  0  0  0  0  0  0  0  0  0  0
    9.2666  -15.6941   23.5979 C   0  0  0  0  0  0  0  0  0  0  0  0
    8.6176  -16.7725   23.5169 O   0  0  0  0  0  0  0  0  0  0  0  0
   10.6381  -15.7841   23.9183 N   0  0  0  0  0  0  0  0  0  0  0  0
   11.2765  -17.0827   24.1553 C   0  0  1  0  0  0  0  0  0  0  0  0
   12.7075  -17.0586   23.7630 C   0  0  0  0  0  0  0  0  0  0  0  0
   12.8919  -16.6269   22.3779 C   0  0  0  0  0  0  0  0  0  0  0  0
   11.9340  -16.3609   21.6290 O   0  0  0  0  0  0  0  0  0  0  0  0
   11.1788  -17.3575   25.6241 C   0  0  0  0  0  0  0  0  0  0  0  0
   11.5852  -18.6227   26.0933 O   0  0  0  0  0  0  0  0  0  0  0  0
   14.2044  -16.5103   21.8807 O   0  0  0  0  0  0  0  0  0  0  0  0
   10.7665  -16.5569   26.4636 O   0  0  0  0  0  0  0  0  0  0  0  0
  2  1  1  1
  2  3  1  0
  4  5  2  0
  4  2  1  0
  6  4  1  0
  7  6  1  0
  8  7  1  0
  8 10  1  0
  9  8  2  0
 11 12  1  1
 11 10  1  0
 12 13  1  0
 13 14  2  0
 13 17  1  0
 15 11  1  0
 16 15  1  0
 18 15  2  0
M  END
$$$$
