AGD.pdb
     RDKit          3D

 18 17  0  0  1  0  0  0  0  0999 V2000
    6.6140  -17.9360   19.4020 C   0  0  0  0  0  0  0  0  0  0  0  0
    7.6968  -18.4515   20.3375 C   0  0  2  0  0  0  0  0  0  0  0  0
    7.1464  -18.9478   21.5828 N   0  0  0  0  0  0  0  0  0  0  0  0
    8.6458  -17.3360   20.5555 C   0  0  0  0  0  0  0  0  0  0  0  0
    9.3181  -16.9224   19.5894 O   0  0  0  0  0  0  0  0  0  0  0  0
    8.8048  -16.7361   21.8270 N   0  0  0  0  0  0  0  0  0  0  0  0
    9.7593  -15.6528   22.0171 C   0  0  0  0  0  0  0  0  0  0  0  0
   11.1214  -16.1992   22.2561 C   0  0  0  0  0  0  0  0  0  0  0  0
   11.6837  -16.8960   21.3679 O   0  0  0  0  0  0  0  0  0  0  0  0
   11.8351  -15.9729   23.4525 N   0  0  0  0  0  0  0  0  0  0  0  0
   13.1931  -16.4952   23.6341 C   0  0  1  0  0  0  0  0  0  0  0  0
   14.1845  -15.3951   23.7302 C   0  0  0  0  0  0  0  0  0  0  0  0
   15.5548  -15.8956   23.8330 C   0  0  0  0  0  0  0  0  0  0  0  0
   15.9244  -16.6429   24.7573 O   0  0  0  0  0  0  0  0  0  0  0  0
   13.1975  -17.2682   24.9167 C   0  0  0  0  0  0  0  0  0  0  0  0
   12.2680  -16.9094   25.9134 O   0  0  0  0  0  0  0  0  0  0  0  0
   16.4844  -15.5136   22.8465 O   0  0  0  0  0  0  0  0  0  0  0  0
   13.9575  -18.2023   25.1724 O   0  0  0  0  0  0  0  0  0  0  0  0
  2  1  1  6
  2  3  1  0
  4  5  2  0
  4  2  1  0
  6  4  1  0
  7  6  1  0
  8  7  1  0
  8 10  1  0
  9  8  2  0
 11 12  1  1
 11 10  1  0
 12 13  1  0
 13 14  2  0
 13 17  1  0
 15 11  1  0
 16 15  1  0
 18 15  2  0
M  END
$$$$
