VSE.pdb
     RDKit          3D

 23 22  0  0  1  0  0  0  0  0999 V2000
    7.0831  -12.8225   19.9991 C   0  0  0  0  0  0  0  0  0  0  0  0
    8.1403  -13.3247   19.0432 C   0  0  2  0  0  0  0  0  0  0  0  0
    7.4861  -13.5606   17.6937 C   0  0  0  0  0  0  0  0  0  0  0  0
    8.6846  -14.6601   19.5084 C   0  0  2  0  0  0  0  0  0  0  0  0
    7.6078  -15.6265   19.4194 N   0  0  0  0  0  0  0  0  0  0  0  0
    9.2001  -14.6255   20.8805 C   0  0  0  0  0  0  0  0  0  0  0  0
   10.3051  -14.1153   21.1234 O   0  0  0  0  0  0  0  0  0  0  0  0
    7.3710  -16.6939   24.0549 O   0  0  0  0  0  0  0  0  0  0  0  0
    8.0414  -15.5144   24.3841 C   0  0  0  0  0  0  0  0  0  0  0  0
    9.0343  -15.2219   23.3115 C   0  0  2  0  0  0  0  0  0  0  0  0
    8.4825  -15.1623   21.9939 N   0  0  0  0  0  0  0  0  0  0  0  0
   10.1639  -16.2123   23.3956 C   0  0  0  0  0  0  0  0  0  0  0  0
   10.3704  -17.0054   22.4586 O   0  0  0  0  0  0  0  0  0  0  0  0
   11.0014  -16.2678   24.5136 N   0  0  0  0  0  0  0  0  0  0  0  0
   12.1855  -17.0937   24.6372 C   0  0  1  0  0  0  0  0  0  0  0  0
   13.3737  -16.5385   23.9444 C   0  0  0  0  0  0  0  0  0  0  0  0
   14.6158  -17.3917   24.0369 C   0  0  0  0  0  0  0  0  0  0  0  0
   15.7582  -16.6930   23.3324 C   0  0  0  0  0  0  0  0  0  0  0  0
   16.5459  -15.9453   23.9571 O   0  0  0  0  0  0  0  0  0  0  0  0
   12.4217  -17.4616   26.0548 C   0  0  0  0  0  0  0  0  0  0  0  0
   13.2129  -18.5855   26.3862 O   0  0  0  0  0  0  0  0  0  0  0  0
   15.9509  -16.8698   21.9834 O   0  0  0  0  0  0  0  0  0  0  0  0
   11.9705  -16.8496   27.0507 O   0  0  0  0  0  0  0  0  0  0  0  0
  2  1  1  1
  2  3  1  0
  4  2  1  0
  4  6  1  0
  4  5  1  1
  6  7  2  0
  9  8  1  0
 10  9  1  1
 11  6  1  0
 11 10  1  0
 12 10  1  0
 12 14  1  0
 13 12  2  0
 15 20  1  0
 15 14  1  0
 15 16  1  1
 17 16  1  0
 17 18  1  0
 18 19  2  0
 18 22  1  0
 20 21  1  0
 23 20  2  0
M  END
$$$$
