VSE.pdb
     RDKit          3D

 23 22  0  0  1  0  0  0  0  0999 V2000
    8.0678  -14.8197   16.8454 C   0  0  0  0  0  0  0  0  0  0  0  0
    8.7306  -14.7818   18.2030 C   0  0  2  0  0  0  0  0  0  0  0  0
    8.7499  -16.1935   18.7610 C   0  0  0  0  0  0  0  0  0  0  0  0
    7.9194  -13.9386   19.1658 C   0  0  2  0  0  0  0  0  0  0  0  0
    7.8640  -12.5930   18.6294 N   0  0  0  0  0  0  0  0  0  0  0  0
    8.4845  -13.9043   20.5183 C   0  0  0  0  0  0  0  0  0  0  0  0
    9.6383  -13.4874   20.7063 O   0  0  0  0  0  0  0  0  0  0  0  0
    6.6374  -15.8088   23.8115 O   0  0  0  0  0  0  0  0  0  0  0  0
    7.4214  -14.6855   24.0803 C   0  0  0  0  0  0  0  0  0  0  0  0
    8.3787  -14.4986   22.9531 C   0  0  2  0  0  0  0  0  0  0  0  0
    7.7624  -14.3370   21.6733 N   0  0  0  0  0  0  0  0  0  0  0  0
    9.3725  -15.6284   22.9517 C   0  0  0  0  0  0  0  0  0  0  0  0
    9.3191  -16.5061   22.0705 O   0  0  0  0  0  0  0  0  0  0  0  0
   10.3696  -15.7218   23.9270 N   0  0  0  0  0  0  0  0  0  0  0  0
   11.4170  -16.7223   23.9658 C   0  0  1  0  0  0  0  0  0  0  0  0
   12.6760  -16.2919   23.3101 C   0  0  0  0  0  0  0  0  0  0  0  0
   13.8066  -17.2888   23.3958 C   0  0  0  0  0  0  0  0  0  0  0  0
   15.0577  -16.6812   22.7998 C   0  0  0  0  0  0  0  0  0  0  0  0
   15.6554  -15.7381   23.3681 O   0  0  0  0  0  0  0  0  0  0  0  0
   11.5932  -17.2430   25.3436 C   0  0  0  0  0  0  0  0  0  0  0  0
   12.3047  -18.4424   25.5761 O   0  0  0  0  0  0  0  0  0  0  0  0
   15.5621  -17.1595   21.6145 O   0  0  0  0  0  0  0  0  0  0  0  0
   11.1549  -16.7048   26.3868 O   0  0  0  0  0  0  0  0  0  0  0  0
  2  1  1  6
  2  3  1  0
  4  2  1  0
  4  6  1  0
  4  5  1  6
  6  7  2  0
  9  8  1  0
 10  9  1  1
 11  6  1  0
 11 10  1  0
 12 10  1  0
 12 14  1  0
 13 12  2  0
 15 20  1  0
 15 14  1  0
 15 16  1  1
 17 16  1  0
 17 18  1  0
 18 19  2  0
 18 22  1  0
 20 21  1  0
 23 20  2  0
M  END
$$$$
