VSE.pdb
     RDKit          3D

 23 22  0  0  1  0  0  0  0  0999 V2000
    7.6092  -12.1904   20.0696 C   0  0  0  0  0  0  0  0  0  0  0  0
    8.5703  -13.1522   19.4102 C   0  0  2  0  0  0  0  0  0  0  0  0
    8.3876  -13.0492   17.9066 C   0  0  0  0  0  0  0  0  0  0  0  0
    8.2410  -14.5797   19.7971 C   0  0  2  0  0  0  0  0  0  0  0  0
    6.9597  -14.9093   19.2049 N   0  0  0  0  0  0  0  0  0  0  0  0
    8.1774  -14.7831   21.2478 C   0  0  0  0  0  0  0  0  0  0  0  0
    7.2676  -14.2660   21.9150 O   0  0  0  0  0  0  0  0  0  0  0  0
    7.6822  -16.3958   25.2012 O   0  0  0  0  0  0  0  0  0  0  0  0
    7.6583  -16.2254   23.8158 C   0  0  0  0  0  0  0  0  0  0  0  0
    9.0226  -15.8264   23.3668 C   0  0  2  0  0  0  0  0  0  0  0  0
    9.1327  -15.5678   21.9650 N   0  0  0  0  0  0  0  0  0  0  0  0
   10.0178  -16.8599   23.8202 C   0  0  0  0  0  0  0  0  0  0  0  0
   10.1064  -17.9471   23.2205 O   0  0  0  0  0  0  0  0  0  0  0  0
   10.8589  -16.6300   24.9128 N   0  0  0  0  0  0  0  0  0  0  0  0
   11.8464  -17.5591   25.4241 C   0  0  1  0  0  0  0  0  0  0  0  0
   13.2446  -17.0920   25.2597 C   0  0  0  0  0  0  0  0  0  0  0  0
   13.7866  -17.2006   23.8548 C   0  0  0  0  0  0  0  0  0  0  0  0
   14.9268  -16.2214   23.6796 C   0  0  0  0  0  0  0  0  0  0  0  0
   16.1041  -16.5374   23.9691 O   0  0  0  0  0  0  0  0  0  0  0  0
   11.5023  -17.9826   26.8035 C   0  0  0  0  0  0  0  0  0  0  0  0
   12.2571  -18.9810   27.4611 O   0  0  0  0  0  0  0  0  0  0  0  0
   14.6857  -14.9581   23.1956 O   0  0  0  0  0  0  0  0  0  0  0  0
   10.5601  -17.5257   27.4917 O   0  0  0  0  0  0  0  0  0  0  0  0
  2  1  1  1
  2  3  1  0
  4  2  1  0
  4  6  1  0
  4  5  1  6
  6  7  2  0
  9  8  1  0
 10  9  1  6
 11  6  1  0
 11 10  1  0
 12 10  1  0
 12 14  1  0
 13 12  2  0
 15 20  1  0
 15 14  1  0
 15 16  1  1
 17 16  1  0
 17 18  1  0
 18 19  2  0
 18 22  1  0
 20 21  1  0
 23 20  2  0
M  END
$$$$
