VSE.pdb
     RDKit          3D

 23 22  0  0  1  0  0  0  0  0999 V2000
    7.5157  -11.9447   19.1585 C   0  0  0  0  0  0  0  0  0  0  0  0
    8.4724  -12.9145   19.8125 C   0  0  2  0  0  0  0  0  0  0  0  0
    9.8746  -12.3423   19.7064 C   0  0  0  0  0  0  0  0  0  0  0  0
    8.4784  -14.2355   19.0702 C   0  0  2  0  0  0  0  0  0  0  0  0
    7.1285  -14.7628   19.1043 N   0  0  0  0  0  0  0  0  0  0  0  0
    9.4025  -15.2164   19.6477 C   0  0  0  0  0  0  0  0  0  0  0  0
    9.0976  -15.8348   20.6797 O   0  0  0  0  0  0  0  0  0  0  0  0
   13.2093  -16.2636   17.9810 O   0  0  0  0  0  0  0  0  0  0  0  0
   12.4385  -17.1832   18.6944 C   0  0  0  0  0  0  0  0  0  0  0  0
   11.5952  -16.4349   19.6695 C   0  0  2  0  0  0  0  0  0  0  0  0
   10.6775  -15.5141   19.0745 N   0  0  0  0  0  0  0  0  0  0  0  0
   12.4828  -15.7593   20.6794 C   0  0  0  0  0  0  0  0  0  0  0  0
   12.9137  -14.6116   20.4635 O   0  0  0  0  0  0  0  0  0  0  0  0
   12.8427  -16.3940   21.8718 N   0  0  0  0  0  0  0  0  0  0  0  0
   13.6365  -15.8052   22.9315 C   0  0  1  0  0  0  0  0  0  0  0  0
   13.2098  -16.2138   24.2921 C   0  0  0  0  0  0  0  0  0  0  0  0
   13.4791  -17.6600   24.6318 C   0  0  0  0  0  0  0  0  0  0  0  0
   13.0296  -17.9344   26.0503 C   0  0  0  0  0  0  0  0  0  0  0  0
   13.7479  -17.6270   27.0297 O   0  0  0  0  0  0  0  0  0  0  0  0
   15.0842  -15.9881   22.6649 C   0  0  0  0  0  0  0  0  0  0  0  0
   16.0479  -15.2193   23.3569 O   0  0  0  0  0  0  0  0  0  0  0  0
   11.8148  -18.5310   26.2880 O   0  0  0  0  0  0  0  0  0  0  0  0
   15.5769  -16.7973   21.8448 O   0  0  0  0  0  0  0  0  0  0  0  0
  2  1  1  6
  2  3  1  0
  4  2  1  0
  4  6  1  0
  4  5  1  1
  6  7  2  0
  9  8  1  0
 10  9  1  6
 11  6  1  0
 11 10  1  0
 12 10  1  0
 12 14  1  0
 13 12  2  0
 15 20  1  0
 15 14  1  0
 15 16  1  1
 17 16  1  0
 17 18  1  0
 18 19  2  0
 18 22  1  0
 20 21  1  0
 23 20  2  0
M  END
$$$$
