VSE.pdb
     RDKit          3D

 23 22  0  0  1  0  0  0  0  0999 V2000
    9.9761  -20.8760   18.2223 C   0  0  0  0  0  0  0  0  0  0  0  0
   10.8466  -20.0462   19.1374 C   0  0  2  0  0  0  0  0  0  0  0  0
   10.8566  -20.7023   20.5064 C   0  0  0  0  0  0  0  0  0  0  0  0
   10.2584  -18.6614   19.3169 C   0  0  2  0  0  0  0  0  0  0  0  0
   10.2395  -18.0219   18.0161 N   0  0  0  0  0  0  0  0  0  0  0  0
   11.0151  -17.8320   20.2599 C   0  0  0  0  0  0  0  0  0  0  0  0
   12.2159  -17.5904   20.0601 O   0  0  0  0  0  0  0  0  0  0  0  0
    9.4620  -16.3494   23.9295 O   0  0  0  0  0  0  0  0  0  0  0  0
   10.2976  -15.5299   23.1686 C   0  0  0  0  0  0  0  0  0  0  0  0
   11.1562  -16.3975   22.3130 C   0  0  2  0  0  0  0  0  0  0  0  0
   10.4337  -17.2654   21.4362 N   0  0  0  0  0  0  0  0  0  0  0  0
   12.1155  -17.1622   23.1842 C   0  0  0  0  0  0  0  0  0  0  0  0
   11.8151  -18.2974   23.5975 O   0  0  0  0  0  0  0  0  0  0  0  0
   13.3540  -16.6256   23.5483 N   0  0  0  0  0  0  0  0  0  0  0  0
   14.3703  -17.3070   24.3245 C   0  0  1  0  0  0  0  0  0  0  0  0
   15.7355  -17.1817   23.7582 C   0  0  0  0  0  0  0  0  0  0  0  0
   16.2717  -15.7714   23.7060 C   0  0  0  0  0  0  0  0  0  0  0  0
   17.4770  -15.7261   22.7925 C   0  0  0  0  0  0  0  0  0  0  0  0
   18.5412  -15.1692   23.1490 O   0  0  0  0  0  0  0  0  0  0  0  0
   14.2679  -16.9403   25.7582 C   0  0  0  0  0  0  0  0  0  0  0  0
   13.3001  -16.0079   26.1971 O   0  0  0  0  0  0  0  0  0  0  0  0
   17.4220  -16.3009   21.5455 O   0  0  0  0  0  0  0  0  0  0  0  0
   14.9878  -17.3928   26.6786 O   0  0  0  0  0  0  0  0  0  0  0  0
  2  1  1  6
  2  3  1  0
  4  2  1  0
  4  6  1  0
  4  5  1  6
  6  7  2  0
  9  8  1  0
 10  9  1  1
 11  6  1  0
 11 10  1  0
 12 10  1  0
 12 14  1  0
 13 12  2  0
 15 20  1  0
 15 14  1  0
 15 16  1  6
 17 16  1  0
 17 18  1  0
 18 19  2  0
 18 22  1  0
 20 21  1  0
 23 20  2  0
M  END
$$$$
