VSE.pdb
     RDKit          3D

 23 22  0  0  1  0  0  0  0  0999 V2000
    6.1230  -10.8627   26.6963 C   0  0  0  0  0  0  0  0  0  0  0  0
    6.9275  -12.0229   26.1574 C   0  0  2  0  0  0  0  0  0  0  0  0
    7.9530  -11.4762   25.1806 C   0  0  0  0  0  0  0  0  0  0  0  0
    6.0369  -12.9689   25.3776 C   0  0  2  0  0  0  0  0  0  0  0  0
    5.0096  -13.4477   26.2812 N   0  0  0  0  0  0  0  0  0  0  0  0
    6.7638  -14.1101   24.8128 C   0  0  0  0  0  0  0  0  0  0  0  0
    7.2531  -14.9739   25.5578 O   0  0  0  0  0  0  0  0  0  0  0  0
    8.6094  -14.5654   20.8531 O   0  0  0  0  0  0  0  0  0  0  0  0
    7.6837  -15.4683   21.3791 C   0  0  0  0  0  0  0  0  0  0  0  0
    7.7216  -15.3692   22.8659 C   0  0  2  0  0  0  0  0  0  0  0  0
    6.9497  -14.2947   23.4078 N   0  0  0  0  0  0  0  0  0  0  0  0
    9.1536  -15.3099   23.3243 C   0  0  0  0  0  0  0  0  0  0  0  0
    9.7781  -14.2338   23.2845 O   0  0  0  0  0  0  0  0  0  0  0  0
    9.8126  -16.4467   23.8012 N   0  0  0  0  0  0  0  0  0  0  0  0
   11.1729  -16.4835   24.2990 C   0  0  1  0  0  0  0  0  0  0  0  0
   11.2816  -16.9583   25.7001 C   0  0  0  0  0  0  0  0  0  0  0  0
   10.5585  -18.2521   25.9872 C   0  0  0  0  0  0  0  0  0  0  0  0
   10.8247  -18.6692   27.4171 C   0  0  0  0  0  0  0  0  0  0  0  0
   11.9938  -18.7839   27.8528 O   0  0  0  0  0  0  0  0  0  0  0  0
   12.0612  -17.1903   23.3441 C   0  0  0  0  0  0  0  0  0  0  0  0
   13.4645  -17.1720   23.5153 O   0  0  0  0  0  0  0  0  0  0  0  0
    9.7778  -18.9310   28.2678 O   0  0  0  0  0  0  0  0  0  0  0  0
   11.6825  -17.8410   22.3425 O   0  0  0  0  0  0  0  0  0  0  0  0
  2  1  1  6
  2  3  1  0
  4  2  1  0
  4  6  1  0
  4  5  1  1
  6  7  2  0
  9  8  1  0
 10  9  1  6
 11  6  1  0
 11 10  1  0
 12 10  1  0
 12 14  1  0
 13 12  2  0
 15 20  1  0
 15 14  1  0
 15 16  1  1
 17 16  1  0
 17 18  1  0
 18 19  2  0
 18 22  1  0
 20 21  1  0
 23 20  2  0
M  END
$$$$
