VSE.pdb
     RDKit          3D

 23 22  0  0  1  0  0  0  0  0999 V2000
    9.7266  -18.8475   19.0017 C   0  0  0  0  0  0  0  0  0  0  0  0
    8.2990  -18.3521   19.0085 C   0  0  2  0  0  0  0  0  0  0  0  0
    7.5950  -18.9166   17.7876 C   0  0  0  0  0  0  0  0  0  0  0  0
    8.2608  -16.8427   18.8803 C   0  0  2  0  0  0  0  0  0  0  0  0
    8.8580  -16.4965   17.6056 N   0  0  0  0  0  0  0  0  0  0  0  0
    8.9760  -16.1548   19.9596 C   0  0  0  0  0  0  0  0  0  0  0  0
   10.1939  -15.9349   19.8655 O   0  0  0  0  0  0  0  0  0  0  0  0
    7.2518  -15.3130   23.7134 O   0  0  0  0  0  0  0  0  0  0  0  0
    8.1779  -14.3907   23.2229 C   0  0  0  0  0  0  0  0  0  0  0  0
    9.0449  -15.0792   22.2248 C   0  0  2  0  0  0  0  0  0  0  0  0
    8.3336  -15.7065   21.1551 N   0  0  0  0  0  0  0  0  0  0  0  0
    9.9475  -16.0506   22.9359 C   0  0  0  0  0  0  0  0  0  0  0  0
    9.6632  -17.2622   22.9634 O   0  0  0  0  0  0  0  0  0  0  0  0
   11.1147  -15.6245   23.5764 N   0  0  0  0  0  0  0  0  0  0  0  0
   11.9868  -16.4590   24.3780 C   0  0  1  0  0  0  0  0  0  0  0  0
   13.3674  -15.9309   24.5021 C   0  0  0  0  0  0  0  0  0  0  0  0
   14.4548  -16.9733   24.4005 C   0  0  0  0  0  0  0  0  0  0  0  0
   15.5493  -16.4692   23.4854 C   0  0  0  0  0  0  0  0  0  0  0  0
   15.5149  -15.3109   23.0090 O   0  0  0  0  0  0  0  0  0  0  0  0
   11.3441  -16.7977   25.6714 C   0  0  0  0  0  0  0  0  0  0  0  0
   11.8833  -17.8062   26.5026 O   0  0  0  0  0  0  0  0  0  0  0  0
   16.6080  -17.2824   23.1597 O   0  0  0  0  0  0  0  0  0  0  0  0
   10.3144  -16.2561   26.1365 O   0  0  0  0  0  0  0  0  0  0  0  0
  2  1  1  6
  2  3  1  0
  4  2  1  0
  4  6  1  0
  4  5  1  6
  6  7  2  0
  9  8  1  0
 10  9  1  1
 11  6  1  0
 11 10  1  0
 12 10  1  0
 12 14  1  0
 13 12  2  0
 15 20  1  0
 15 14  1  0
 15 16  1  1
 17 16  1  0
 17 18  1  0
 18 19  2  0
 18 22  1  0
 20 21  1  0
 23 20  2  0
M  END
$$$$
