VSE.pdb
     RDKit          3D

 23 22  0  0  1  0  0  0  0  0999 V2000
    7.8940  -19.3006   19.1448 C   0  0  0  0  0  0  0  0  0  0  0  0
    6.9095  -18.3008   18.5837 C   0  0  2  0  0  0  0  0  0  0  0  0
    6.3370  -18.8693   17.2977 C   0  0  0  0  0  0  0  0  0  0  0  0
    7.6141  -17.0098   18.2195 C   0  0  2  0  0  0  0  0  0  0  0  0
    8.4842  -17.2885   17.0941 N   0  0  0  0  0  0  0  0  0  0  0  0
    8.4028  -16.4530   19.3229 C   0  0  0  0  0  0  0  0  0  0  0  0
    9.6210  -16.6781   19.4000 O   0  0  0  0  0  0  0  0  0  0  0  0
    6.7604  -14.6685   22.8358 O   0  0  0  0  0  0  0  0  0  0  0  0
    7.9083  -14.1096   22.2713 C   0  0  0  0  0  0  0  0  0  0  0  0
    8.5936  -15.1577   21.4627 C   0  0  2  0  0  0  0  0  0  0  0  0
    7.8345  -15.6386   20.3507 N   0  0  0  0  0  0  0  0  0  0  0  0
    9.0256  -16.2804   22.3666 C   0  0  0  0  0  0  0  0  0  0  0  0
    8.5073  -17.4067   22.2553 O   0  0  0  0  0  0  0  0  0  0  0  0
   10.0080  -16.0915   23.3431 N   0  0  0  0  0  0  0  0  0  0  0  0
   10.9500  -17.0961   23.7938 C   0  0  1  0  0  0  0  0  0  0  0  0
   11.7783  -17.6672   22.7039 C   0  0  0  0  0  0  0  0  0  0  0  0
   12.7199  -18.7659   23.1345 C   0  0  0  0  0  0  0  0  0  0  0  0
   14.0443  -18.5997   22.4220 C   0  0  0  0  0  0  0  0  0  0  0  0
   15.1173  -18.9713   22.9514 O   0  0  0  0  0  0  0  0  0  0  0  0
   11.7274  -16.6011   24.9562 C   0  0  0  0  0  0  0  0  0  0  0  0
   12.1425  -15.2513   25.0245 O   0  0  0  0  0  0  0  0  0  0  0  0
   14.0907  -18.0329   21.1710 O   0  0  0  0  0  0  0  0  0  0  0  0
   12.0779  -17.2883   25.9436 O   0  0  0  0  0  0  0  0  0  0  0  0
  2  1  1  6
  2  3  1  0
  4  2  1  0
  4  6  1  0
  4  5  1  6
  6  7  2  0
  9  8  1  0
 10  9  1  1
 11  6  1  0
 11 10  1  0
 12 10  1  0
 12 14  1  0
 13 12  2  0
 15 20  1  0
 15 14  1  0
 15 16  1  6
 17 16  1  0
 17 18  1  0
 18 19  2  0
 18 22  1  0
 20 21  1  0
 23 20  2  0
M  END
$$$$
