VSE.pdb
     RDKit          3D

 23 22  0  0  1  0  0  0  0  0999 V2000
    7.9579  -14.7571   16.7470 C   0  0  0  0  0  0  0  0  0  0  0  0
    8.6737  -14.8235   18.0762 C   0  0  2  0  0  0  0  0  0  0  0  0
    8.5647  -16.2430   18.6033 C   0  0  0  0  0  0  0  0  0  0  0  0
    7.9953  -13.9240   19.0894 C   0  0  2  0  0  0  0  0  0  0  0  0
    8.0497  -12.5690   18.5774 N   0  0  0  0  0  0  0  0  0  0  0  0
    8.6222  -13.9731   20.4139 C   0  0  0  0  0  0  0  0  0  0  0  0
    9.7728  -13.5385   20.5805 O   0  0  0  0  0  0  0  0  0  0  0  0
    6.8762  -15.9194   23.7319 O   0  0  0  0  0  0  0  0  0  0  0  0
    7.6749  -14.8029   23.9857 C   0  0  0  0  0  0  0  0  0  0  0  0
    8.6078  -14.6205   22.8374 C   0  0  2  0  0  0  0  0  0  0  0  0
    7.9661  -14.5096   21.5647 N   0  0  0  0  0  0  0  0  0  0  0  0
    9.6318  -15.7230   22.8483 C   0  0  0  0  0  0  0  0  0  0  0  0
    9.6901  -16.5307   21.9029 O   0  0  0  0  0  0  0  0  0  0  0  0
   10.5338  -15.8680   23.9064 N   0  0  0  0  0  0  0  0  0  0  0  0
   11.6589  -16.7808   23.9333 C   0  0  1  0  0  0  0  0  0  0  0  0
   12.8832  -16.2357   23.2975 C   0  0  0  0  0  0  0  0  0  0  0  0
   14.0881  -17.1429   23.3644 C   0  0  0  0  0  0  0  0  0  0  0  0
   15.2898  -16.4243   22.7908 C   0  0  0  0  0  0  0  0  0  0  0  0
   15.2476  -15.2012   22.5226 O   0  0  0  0  0  0  0  0  0  0  0  0
   11.8674  -17.3149   25.3015 C   0  0  0  0  0  0  0  0  0  0  0  0
   11.3048  -16.6641   26.4234 O   0  0  0  0  0  0  0  0  0  0  0  0
   16.4571  -17.1092   22.5531 O   0  0  0  0  0  0  0  0  0  0  0  0
   12.5266  -18.3406   25.5899 O   0  0  0  0  0  0  0  0  0  0  0  0
  2  1  1  6
  2  3  1  0
  4  2  1  0
  4  6  1  0
  4  5  1  6
  6  7  2  0
  9  8  1  0
 10  9  1  1
 11  6  1  0
 11 10  1  0
 12 10  1  0
 12 14  1  0
 13 12  2  0
 15 20  1  0
 15 14  1  0
 15 16  1  1
 17 16  1  0
 17 18  1  0
 18 19  2  0
 18 22  1  0
 20 21  1  0
 23 20  2  0
M  END
$$$$
