VSE.pdb
     RDKit          3D

 23 22  0  0  1  0  0  0  0  0999 V2000
    7.7881  -12.2407   26.5984 C   0  0  0  0  0  0  0  0  0  0  0  0
    6.8998  -11.9513   25.4106 C   0  0  2  0  0  0  0  0  0  0  0  0
    5.9528  -10.8268   25.7893 C   0  0  0  0  0  0  0  0  0  0  0  0
    6.0430  -13.1573   25.0828 C   0  0  2  0  0  0  0  0  0  0  0  0
    5.3088  -13.5113   26.2815 N   0  0  0  0  0  0  0  0  0  0  0  0
    6.8237  -14.3118   24.6273 C   0  0  0  0  0  0  0  0  0  0  0  0
    7.1963  -15.1764   25.4360 O   0  0  0  0  0  0  0  0  0  0  0  0
    8.4762  -14.6878   20.7583 O   0  0  0  0  0  0  0  0  0  0  0  0
    7.9407  -15.8399   21.3368 C   0  0  0  0  0  0  0  0  0  0  0  0
    7.9195  -15.6579   22.8161 C   0  0  2  0  0  0  0  0  0  0  0  0
    7.1947  -14.5087   23.2612 N   0  0  0  0  0  0  0  0  0  0  0  0
    9.3308  -15.6602   23.3381 C   0  0  0  0  0  0  0  0  0  0  0  0
    9.9560  -14.5899   23.4530 O   0  0  0  0  0  0  0  0  0  0  0  0
    9.9696  -16.8487   23.7036 N   0  0  0  0  0  0  0  0  0  0  0  0
   11.3233  -16.9549   24.2092 C   0  0  1  0  0  0  0  0  0  0  0  0
   11.4846  -17.9808   25.2683 C   0  0  0  0  0  0  0  0  0  0  0  0
   10.6233  -17.7693   26.4901 C   0  0  0  0  0  0  0  0  0  0  0  0
   10.8622  -18.8942   27.4734 C   0  0  0  0  0  0  0  0  0  0  0  0
   11.7525  -18.8110   28.3510 O   0  0  0  0  0  0  0  0  0  0  0  0
   12.2920  -17.0732   23.0919 C   0  0  0  0  0  0  0  0  0  0  0  0
   13.6689  -16.8313   23.3022 O   0  0  0  0  0  0  0  0  0  0  0  0
   10.0987  -20.0354   27.4181 O   0  0  0  0  0  0  0  0  0  0  0  0
   12.0075  -17.3826   21.9115 O   0  0  0  0  0  0  0  0  0  0  0  0
  2  1  1  1
  2  3  1  0
  4  2  1  0
  4  6  1  0
  4  5  1  1
  6  7  2  0
  9  8  1  0
 10  9  1  6
 11  6  1  0
 11 10  1  0
 12 10  1  0
 12 14  1  0
 13 12  2  0
 15 20  1  0
 15 14  1  0
 15 16  1  1
 17 16  1  0
 17 18  1  0
 18 19  2  0
 18 22  1  0
 20 21  1  0
 23 20  2  0
M  END
$$$$
