VSE.pdb
     RDKit          3D

 23 22  0  0  1  0  0  0  0  0999 V2000
   10.0238  -19.7749   19.0884 C   0  0  0  0  0  0  0  0  0  0  0  0
    8.6708  -19.2537   18.6628 C   0  0  2  0  0  0  0  0  0  0  0  0
    8.2135  -20.0517   17.4549 C   0  0  0  0  0  0  0  0  0  0  0  0
    8.7743  -17.8077   18.2220 C   0  0  2  0  0  0  0  0  0  0  0  0
    9.6323  -17.7664   17.0543 N   0  0  0  0  0  0  0  0  0  0  0  0
    9.3170  -16.9264   19.2605 C   0  0  0  0  0  0  0  0  0  0  0  0
   10.5412  -16.7432   19.3518 O   0  0  0  0  0  0  0  0  0  0  0  0
    7.0153  -15.3337   22.4240 O   0  0  0  0  0  0  0  0  0  0  0  0
    8.0265  -14.5259   21.9009 C   0  0  0  0  0  0  0  0  0  0  0  0
    9.0301  -15.4018   21.2318 C   0  0  2  0  0  0  0  0  0  0  0  0
    8.4935  -16.2419   20.2070 N   0  0  0  0  0  0  0  0  0  0  0  0
    9.7677  -16.1991   22.2732 C   0  0  0  0  0  0  0  0  0  0  0  0
    9.4498  -17.3820   22.4953 O   0  0  0  0  0  0  0  0  0  0  0  0
   10.8162  -15.6403   23.0099 N   0  0  0  0  0  0  0  0  0  0  0  0
   11.5623  -16.3130   24.0541 C   0  0  1  0  0  0  0  0  0  0  0  0
   13.0168  -16.0230   24.0278 C   0  0  0  0  0  0  0  0  0  0  0  0
   13.7292  -16.4744   22.7755 C   0  0  0  0  0  0  0  0  0  0  0  0
   15.1982  -16.1278   22.8812 C   0  0  0  0  0  0  0  0  0  0  0  0
   15.6477  -15.5006   23.8683 O   0  0  0  0  0  0  0  0  0  0  0  0
   10.9214  -16.1017   25.3751 C   0  0  0  0  0  0  0  0  0  0  0  0
   11.3517  -16.8267   26.5100 O   0  0  0  0  0  0  0  0  0  0  0  0
   16.0701  -16.4993   21.8862 O   0  0  0  0  0  0  0  0  0  0  0  0
    9.9845  -15.3036   25.6104 O   0  0  0  0  0  0  0  0  0  0  0  0
  2  1  1  6
  2  3  1  0
  4  2  1  0
  4  6  1  0
  4  5  1  6
  6  7  2  0
  9  8  1  0
 10  9  1  1
 11  6  1  0
 11 10  1  0
 12 10  1  0
 12 14  1  0
 13 12  2  0
 15 20  1  0
 15 14  1  0
 15 16  1  1
 17 16  1  0
 17 18  1  0
 18 19  2  0
 18 22  1  0
 20 21  1  0
 23 20  2  0
M  END
$$$$
