VSE.pdb
     RDKit          3D

 23 22  0  0  1  0  0  0  0  0999 V2000
    7.2918  -12.6839   20.3877 C   0  0  0  0  0  0  0  0  0  0  0  0
    8.2871  -13.0562   19.3132 C   0  0  2  0  0  0  0  0  0  0  0  0
    7.5745  -13.0197   17.9732 C   0  0  0  0  0  0  0  0  0  0  0  0
    8.7769  -14.4761   19.5131 C   0  0  2  0  0  0  0  0  0  0  0  0
    7.6723  -15.3662   19.2149 N   0  0  0  0  0  0  0  0  0  0  0  0
    9.2596  -14.7327   20.8736 C   0  0  0  0  0  0  0  0  0  0  0  0
   10.2913  -14.1812   21.2883 O   0  0  0  0  0  0  0  0  0  0  0  0
    7.6252  -17.6651   23.4579 O   0  0  0  0  0  0  0  0  0  0  0  0
    8.0521  -16.4618   24.0223 C   0  0  0  0  0  0  0  0  0  0  0  0
    9.0599  -15.8463   23.1125 C   0  0  2  0  0  0  0  0  0  0  0  0
    8.5911  -15.6097   21.7828 N   0  0  0  0  0  0  0  0  0  0  0  0
   10.3118  -16.6811   23.1192 C   0  0  0  0  0  0  0  0  0  0  0  0
   10.5464  -17.4626   22.1791 O   0  0  0  0  0  0  0  0  0  0  0  0
   11.2333  -16.6026   24.1675 N   0  0  0  0  0  0  0  0  0  0  0  0
   12.4588  -17.3689   24.2692 C   0  0  1  0  0  0  0  0  0  0  0  0
   13.6687  -16.6140   23.8610 C   0  0  0  0  0  0  0  0  0  0  0  0
   14.9546  -17.4032   23.9147 C   0  0  0  0  0  0  0  0  0  0  0  0
   16.1143  -16.4976   23.5619 C   0  0  0  0  0  0  0  0  0  0  0  0
   15.9246  -15.3226   23.1707 O   0  0  0  0  0  0  0  0  0  0  0  0
   12.5630  -18.0161   25.5999 C   0  0  0  0  0  0  0  0  0  0  0  0
   13.4535  -19.0939   25.8102 O   0  0  0  0  0  0  0  0  0  0  0  0
   17.4059  -16.9549   23.6661 O   0  0  0  0  0  0  0  0  0  0  0  0
   11.9097  -17.6937   26.6194 O   0  0  0  0  0  0  0  0  0  0  0  0
  2  1  1  1
  2  3  1  0
  4  2  1  0
  4  6  1  0
  4  5  1  1
  6  7  2  0
  9  8  1  0
 10  9  1  1
 11  6  1  0
 11 10  1  0
 12 10  1  0
 12 14  1  0
 13 12  2  0
 15 20  1  0
 15 14  1  0
 15 16  1  1
 17 16  1  0
 17 18  1  0
 18 19  2  0
 18 22  1  0
 20 21  1  0
 23 20  2  0
M  END
$$$$
