VSE.pdb
     RDKit          3D

 23 22  0  0  1  0  0  0  0  0999 V2000
    7.7201  -12.3429   18.8584 C   0  0  0  0  0  0  0  0  0  0  0  0
    7.8847  -13.3993   19.9263 C   0  0  2  0  0  0  0  0  0  0  0  0
    8.8398  -12.8652   20.9787 C   0  0  0  0  0  0  0  0  0  0  0  0
    8.5213  -14.6457   19.3457 C   0  0  2  0  0  0  0  0  0  0  0  0
    7.6539  -15.1288   18.2895 N   0  0  0  0  0  0  0  0  0  0  0  0
    8.7221  -15.7058   20.3385 C   0  0  0  0  0  0  0  0  0  0  0  0
    7.7484  -16.2972   20.8312 O   0  0  0  0  0  0  0  0  0  0  0  0
   12.0581  -18.0560   20.7722 O   0  0  0  0  0  0  0  0  0  0  0  0
   10.8307  -18.3577   21.3650 C   0  0  0  0  0  0  0  0  0  0  0  0
   10.2027  -17.0851   21.8212 C   0  0  2  0  0  0  0  0  0  0  0  0
   10.0156  -16.1136   20.7891 N   0  0  0  0  0  0  0  0  0  0  0  0
   10.9922  -16.5255   22.9734 C   0  0  0  0  0  0  0  0  0  0  0  0
   11.9732  -15.7897   22.7595 O   0  0  0  0  0  0  0  0  0  0  0  0
   10.6500  -16.8130   24.2979 N   0  0  0  0  0  0  0  0  0  0  0  0
   11.3837  -16.3786   25.4694 C   0  0  1  0  0  0  0  0  0  0  0  0
   10.5521  -15.6453   26.4547 C   0  0  0  0  0  0  0  0  0  0  0  0
   11.2988  -15.1539   27.6714 C   0  0  0  0  0  0  0  0  0  0  0  0
   10.3193  -14.5389   28.6470 C   0  0  0  0  0  0  0  0  0  0  0  0
   10.7086  -14.0288   29.7231 O   0  0  0  0  0  0  0  0  0  0  0  0
   12.1643  -17.5012   26.0447 C   0  0  0  0  0  0  0  0  0  0  0  0
   13.3863  -17.2617   26.7141 O   0  0  0  0  0  0  0  0  0  0  0  0
    8.9745  -14.5306   28.3647 O   0  0  0  0  0  0  0  0  0  0  0  0
   11.8409  -18.7109   26.0001 O   0  0  0  0  0  0  0  0  0  0  0  0
  2  1  1  6
  2  3  1  0
  4  2  1  0
  4  6  1  0
  4  5  1  6
  6  7  2  0
  9  8  1  0
 10  9  1  6
 11  6  1  0
 11 10  1  0
 12 10  1  0
 12 14  1  0
 13 12  2  0
 15 20  1  0
 15 14  1  0
 15 16  1  1
 17 16  1  0
 17 18  1  0
 18 19  2  0
 18 22  1  0
 20 21  1  0
 23 20  2  0
M  END
$$$$
