LKM.pdb
     RDKit          3D

 26 25  0  0  1  0  0  0  0  0999 V2000
   17.5147  -16.5359  -16.2039 C   0  0  0  0  0  0  0  0  0  0  0  0
   19.0159  -16.6257  -16.3638 C   0  0  1  0  0  0  0  0  0  0  0  0
   19.6974  -15.3743  -15.8568 C   0  0  0  0  0  0  0  0  0  0  0  0
   19.5449  -17.8632  -15.6861 C   0  0  0  0  0  0  0  0  0  0  0  0
   21.0490  -17.9018  -15.8055 C   0  0  2  0  0  0  0  0  0  0  0  0
   21.5264  -17.8788  -17.1485 N   0  0  0  0  0  0  0  0  0  0  0  0
   21.6099  -19.0486  -15.0212 C   0  0  0  0  0  0  0  0  0  0  0  0
   21.1951  -19.2923  -13.8643 O   0  0  0  0  0  0  0  0  0  0  0  0
   22.6217  -19.9049  -15.5348 N   0  0  0  0  0  0  0  0  0  0  0  0
   23.1779  -21.0244  -14.8041 C   0  0  1  0  0  0  0  0  0  0  0  0
   23.7075  -22.0917  -15.7334 C   0  0  0  0  0  0  0  0  0  0  0  0
   24.2819  -23.2682  -15.0288 C   0  0  0  0  0  0  0  0  0  0  0  0
   24.8016  -24.3321  -15.9647 C   0  0  0  0  0  0  0  0  0  0  0  0
   24.8225  -25.6950  -15.3016 C   0  0  0  0  0  0  0  0  0  0  0  0
   25.3585  -26.7150  -16.1725 N   0  0  0  0  0  0  0  0  0  0  0  0
   24.3668  -20.5415  -14.0130 C   0  0  0  0  0  0  0  0  0  0  0  0
   25.1324  -19.6955  -14.5433 O   0  0  0  0  0  0  0  0  0  0  0  0
   25.0072  -20.3329   -7.6245 C   0  0  0  0  0  0  0  0  0  0  0  0
   26.7793  -20.5762   -8.0263 S   0  0  0  0  0  0  0  0  0  0  0  0
   26.9240  -20.2659   -9.8284 C   0  0  0  0  0  0  0  0  0  0  0  0
   25.7209  -20.7848  -10.5519 C   0  0  0  0  0  0  0  0  0  0  0  0
   25.7934  -20.5026  -12.0043 C   0  0  2  0  0  0  0  0  0  0  0  0
   24.6223  -21.0222  -12.7070 N   0  0  0  0  0  0  0  0  0  0  0  0
   26.9840  -21.0549  -12.6407 C   0  0  0  0  0  0  0  0  0  0  0  0
   28.1710  -20.3735  -12.6902 O   0  0  0  0  0  0  0  0  0  0  0  0
   26.9475  -22.2084  -13.1815 O   0  0  0  0  0  0  0  0  0  0  0  0
  2  3  1  1
  2  1  1  0
  4  2  1  0
  5  6  1  6
  5  4  1  0
  7  5  1  0
  8  7  2  0
  9  7  1  0
 10  9  1  0
 10 11  1  6
 11 12  1  0
 12 13  1  0
 13 14  1  0
 15 14  1  0
 16 10  1  0
 17 16  2  0
 19 20  1  0
 19 18  1  0
 20 21  1  0
 22 21  1  1
 22 24  1  0
 22 23  1  0
 23 16  1  0
 24 25  1  0
 26 24  2  0
M  END
$$$$
