LKM.pdb
     RDKit          3D

 26 25  0  0  1  0  0  0  0  0999 V2000
   28.3267  -17.5080  -17.3724 C   0  0  0  0  0  0  0  0  0  0  0  0
   28.1031  -18.7750  -16.5774 C   0  0  1  0  0  0  0  0  0  0  0  0
   29.2835  -19.7129  -16.6965 C   0  0  0  0  0  0  0  0  0  0  0  0
   27.7934  -18.4471  -15.1397 C   0  0  0  0  0  0  0  0  0  0  0  0
   27.6371  -19.7247  -14.3516 C   0  0  2  0  0  0  0  0  0  0  0  0
   27.1353  -20.8201  -15.1134 N   0  0  0  0  0  0  0  0  0  0  0  0
   26.8371  -19.4817  -13.1082 C   0  0  0  0  0  0  0  0  0  0  0  0
   26.9770  -18.4197  -12.4583 O   0  0  0  0  0  0  0  0  0  0  0  0
   25.8957  -20.4219  -12.6079 N   0  0  0  0  0  0  0  0  0  0  0  0
   25.0205  -20.1661  -11.4831 C   0  0  1  0  0  0  0  0  0  0  0  0
   23.6995  -20.8855  -11.6268 C   0  0  0  0  0  0  0  0  0  0  0  0
   22.7736  -20.2491  -12.6005 C   0  0  0  0  0  0  0  0  0  0  0  0
   21.4176  -20.9094  -12.6576 C   0  0  0  0  0  0  0  0  0  0  0  0
   20.3525  -20.0513  -12.0045 C   0  0  0  0  0  0  0  0  0  0  0  0
   19.2638  -20.8421  -11.4795 N   0  0  0  0  0  0  0  0  0  0  0  0
   25.6596  -20.7252  -10.2375 C   0  0  0  0  0  0  0  0  0  0  0  0
   26.2181  -21.8504  -10.3072 O   0  0  0  0  0  0  0  0  0  0  0  0
   29.4769  -18.3782   -5.9741 C   0  0  0  0  0  0  0  0  0  0  0  0
   28.4627  -19.2856   -4.7457 S   0  0  0  0  0  0  0  0  0  0  0  0
   27.4024  -20.4201   -5.7222 C   0  0  0  0  0  0  0  0  0  0  0  0
   26.9699  -19.7704   -6.9993 C   0  0  0  0  0  0  0  0  0  0  0  0
   26.1392  -20.6809   -7.8210 C   0  0  2  0  0  0  0  0  0  0  0  0
   25.6364  -20.0093   -9.0173 N   0  0  0  0  0  0  0  0  0  0  0  0
   24.9977  -21.2307   -7.0981 C   0  0  0  0  0  0  0  0  0  0  0  0
   25.1392  -22.1673   -6.1090 O   0  0  0  0  0  0  0  0  0  0  0  0
   23.8147  -20.8476   -7.3775 O   0  0  0  0  0  0  0  0  0  0  0  0
  2  3  1  1
  2  1  1  0
  4  2  1  0
  5  6  1  6
  5  4  1  0
  7  5  1  0
  8  7  2  0
  9  7  1  0
 10  9  1  0
 10 11  1  6
 11 12  1  0
 12 13  1  0
 13 14  1  0
 15 14  1  0
 16 10  1  0
 17 16  2  0
 19 20  1  0
 19 18  1  0
 20 21  1  0
 22 21  1  1
 22 24  1  0
 22 23  1  0
 23 16  1  0
 24 25  1  0
 26 24  2  0
M  END
$$$$
