LKM.pdb
     RDKit          3D

 26 25  0  0  1  0  0  0  0  0999 V2000
   26.8145  -15.5238  -18.2859 C   0  0  0  0  0  0  0  0  0  0  0  0
   26.2676  -16.8955  -17.9596 C   0  0  1  0  0  0  0  0  0  0  0  0
   27.3786  -17.9147  -17.8399 C   0  0  0  0  0  0  0  0  0  0  0  0
   25.4217  -16.8428  -16.7138 C   0  0  0  0  0  0  0  0  0  0  0  0
   24.8781  -18.2182  -16.4127 C   0  0  2  0  0  0  0  0  0  0  0  0
   24.8262  -19.0835  -17.5443 N   0  0  0  0  0  0  0  0  0  0  0  0
   23.5584  -18.1203  -15.7097 C   0  0  0  0  0  0  0  0  0  0  0  0
   23.4199  -17.3683  -14.7172 O   0  0  0  0  0  0  0  0  0  0  0  0
   22.4156  -18.8590  -16.1208 N   0  0  0  0  0  0  0  0  0  0  0  0
   21.1078  -18.7247  -15.5142 C   0  0  1  0  0  0  0  0  0  0  0  0
   20.0004  -18.8907  -16.5288 C   0  0  0  0  0  0  0  0  0  0  0  0
   18.6378  -18.7051  -15.9640 C   0  0  0  0  0  0  0  0  0  0  0  0
   18.2441  -17.2559  -15.8127 C   0  0  0  0  0  0  0  0  0  0  0  0
   16.8343  -17.1152  -15.2740 C   0  0  0  0  0  0  0  0  0  0  0  0
   15.8473  -17.6340  -16.1921 N   0  0  0  0  0  0  0  0  0  0  0  0
   20.9217  -19.8396  -14.5167 C   0  0  0  0  0  0  0  0  0  0  0  0
   21.1730  -21.0165  -14.8838 O   0  0  0  0  0  0  0  0  0  0  0  0
   23.6316  -20.7754   -9.0679 C   0  0  0  0  0  0  0  0  0  0  0  0
   21.9286  -21.1086   -8.4765 S   0  0  0  0  0  0  0  0  0  0  0  0
   20.9438  -21.4648   -9.9825 C   0  0  0  0  0  0  0  0  0  0  0  0
   21.1417  -20.3933  -11.0086 C   0  0  0  0  0  0  0  0  0  0  0  0
   20.4154  -20.6979  -12.2631 C   0  0  2  0  0  0  0  0  0  0  0  0
   20.4764  -19.5778  -13.1995 N   0  0  0  0  0  0  0  0  0  0  0  0
   19.0117  -21.0330  -12.0505 C   0  0  0  0  0  0  0  0  0  0  0  0
   18.0503  -20.0757  -11.8641 O   0  0  0  0  0  0  0  0  0  0  0  0
   18.6377  -22.2512  -12.0287 O   0  0  0  0  0  0  0  0  0  0  0  0
  2  3  1  1
  2  1  1  0
  4  2  1  0
  5  6  1  6
  5  4  1  0
  7  5  1  0
  8  7  2  0
  9  7  1  0
 10  9  1  0
 10 11  1  6
 11 12  1  0
 12 13  1  0
 13 14  1  0
 15 14  1  0
 16 10  1  0
 17 16  2  0
 19 20  1  0
 19 18  1  0
 20 21  1  0
 22 21  1  1
 22 24  1  0
 22 23  1  0
 23 16  1  0
 24 25  1  0
 26 24  2  0
M  END
$$$$
