LKM.pdb
     RDKit          3D

 26 25  0  0  1  0  0  0  0  0999 V2000
   28.2118  -18.2905  -18.2112 C   0  0  0  0  0  0  0  0  0  0  0  0
   28.0616  -19.4182  -17.2147 C   0  0  1  0  0  0  0  0  0  0  0  0
   29.1648  -20.4406  -17.3728 C   0  0  0  0  0  0  0  0  0  0  0  0
   28.0003  -18.8755  -15.8103 C   0  0  0  0  0  0  0  0  0  0  0  0
   27.8690  -20.0173  -14.8320 C   0  0  2  0  0  0  0  0  0  0  0  0
   27.4673  -21.2490  -15.4264 N   0  0  0  0  0  0  0  0  0  0  0  0
   26.9913  -19.6268  -13.6821 C   0  0  0  0  0  0  0  0  0  0  0  0
   27.1114  -18.5024  -13.1424 O   0  0  0  0  0  0  0  0  0  0  0  0
   25.9955  -20.4913  -13.1513 N   0  0  0  0  0  0  0  0  0  0  0  0
   25.1029  -20.1258  -12.0715 C   0  0  1  0  0  0  0  0  0  0  0  0
   23.7005  -20.6368  -12.3072 C   0  0  0  0  0  0  0  0  0  0  0  0
   22.7427  -20.2769  -11.2286 C   0  0  0  0  0  0  0  0  0  0  0  0
   21.3556  -20.8292  -11.4502 C   0  0  0  0  0  0  0  0  0  0  0  0
   20.3841  -20.3331  -10.3978 C   0  0  0  0  0  0  0  0  0  0  0  0
   19.0335  -20.7773  -10.6522 N   0  0  0  0  0  0  0  0  0  0  0  0
   25.5767  -20.7948  -10.8063 C   0  0  0  0  0  0  0  0  0  0  0  0
   25.8132  -22.0301  -10.8374 O   0  0  0  0  0  0  0  0  0  0  0  0
   28.7056  -18.1115   -6.0363 C   0  0  0  0  0  0  0  0  0  0  0  0
   28.9081  -19.8577   -5.5157 S   0  0  0  0  0  0  0  0  0  0  0  0
   27.6272  -20.7978   -6.4324 C   0  0  0  0  0  0  0  0  0  0  0  0
   27.2206  -20.0651   -7.6726 C   0  0  0  0  0  0  0  0  0  0  0  0
   26.1621  -20.7902   -8.4128 C   0  0  2  0  0  0  0  0  0  0  0  0
   25.7537  -20.0595   -9.6105 N   0  0  0  0  0  0  0  0  0  0  0  0
   24.9703  -21.0469   -7.6118 C   0  0  0  0  0  0  0  0  0  0  0  0
   24.9561  -21.9606   -6.5918 O   0  0  0  0  0  0  0  0  0  0  0  0
   23.8883  -20.4164   -7.8489 O   0  0  0  0  0  0  0  0  0  0  0  0
  2  3  1  1
  2  1  1  0
  4  2  1  0
  5  6  1  6
  5  4  1  0
  7  5  1  0
  8  7  2  0
  9  7  1  0
 10  9  1  0
 10 11  1  6
 11 12  1  0
 12 13  1  0
 13 14  1  0
 15 14  1  0
 16 10  1  0
 17 16  2  0
 19 20  1  0
 19 18  1  0
 20 21  1  0
 22 21  1  1
 22 24  1  0
 22 23  1  0
 23 16  1  0
 24 25  1  0
 26 24  2  0
M  END
$$$$
