LKM.pdb
     RDKit          3D

 26 25  0  0  1  0  0  0  0  0999 V2000
   30.1677  -20.2468  -11.5964 C   0  0  0  0  0  0  0  0  0  0  0  0
   28.9374  -21.1085  -11.4200 C   0  0  1  0  0  0  0  0  0  0  0  0
   28.8366  -21.6382  -10.0070 C   0  0  0  0  0  0  0  0  0  0  0  0
   27.6997  -20.3482  -11.8209 C   0  0  0  0  0  0  0  0  0  0  0  0
   26.4919  -21.2441  -11.6929 C   0  0  2  0  0  0  0  0  0  0  0  0
   26.6846  -22.5576  -12.2121 N   0  0  0  0  0  0  0  0  0  0  0  0
   25.2788  -20.5773  -12.2665 C   0  0  0  0  0  0  0  0  0  0  0  0
   24.8149  -19.5387  -11.7413 O   0  0  0  0  0  0  0  0  0  0  0  0
   24.6020  -21.0751  -13.4131 N   0  0  0  0  0  0  0  0  0  0  0  0
   23.4160  -20.4655  -13.9772 C   0  0  1  0  0  0  0  0  0  0  0  0
   23.4966  -20.3729  -15.4833 C   0  0  0  0  0  0  0  0  0  0  0  0
   22.3056  -19.7403  -16.1091 C   0  0  0  0  0  0  0  0  0  0  0  0
   22.4106  -19.6191  -17.6099 C   0  0  0  0  0  0  0  0  0  0  0  0
   21.1969  -18.9281  -18.1989 C   0  0  0  0  0  0  0  0  0  0  0  0
   21.2469  -18.8777  -19.6415 N   0  0  0  0  0  0  0  0  0  0  0  0
   22.2318  -21.3506  -13.6827 C   0  0  0  0  0  0  0  0  0  0  0  0
   22.3347  -22.5823  -13.9177 O   0  0  0  0  0  0  0  0  0  0  0  0
   17.8917  -24.2149   -8.3726 C   0  0  0  0  0  0  0  0  0  0  0  0
   19.1402  -22.9587   -8.8461 S   0  0  0  0  0  0  0  0  0  0  0  0
   19.0850  -22.8736  -10.6776 C   0  0  0  0  0  0  0  0  0  0  0  0
   20.1324  -21.9377  -11.1946 C   0  0  0  0  0  0  0  0  0  0  0  0
   20.0265  -21.7561  -12.6609 C   0  0  2  0  0  0  0  0  0  0  0  0
   21.0318  -20.8179  -13.1554 N   0  0  0  0  0  0  0  0  0  0  0  0
   18.7158  -21.2816  -13.0904 C   0  0  0  0  0  0  0  0  0  0  0  0
   17.5798  -22.0314  -12.9392 O   0  0  0  0  0  0  0  0  0  0  0  0
   18.5930  -20.1345  -13.6322 O   0  0  0  0  0  0  0  0  0  0  0  0
  2  3  1  1
  2  1  1  0
  4  2  1  0
  5  6  1  6
  5  4  1  0
  7  5  1  0
  8  7  2  0
  9  7  1  0
 10  9  1  0
 10 11  1  6
 11 12  1  0
 12 13  1  0
 13 14  1  0
 15 14  1  0
 16 10  1  0
 17 16  2  0
 19 20  1  0
 19 18  1  0
 20 21  1  0
 22 21  1  1
 22 24  1  0
 22 23  1  0
 23 16  1  0
 24 25  1  0
 26 24  2  0
M  END
$$$$
