LKM.pdb
     RDKit          3D

 26 25  0  0  1  0  0  0  0  0999 V2000
   18.9579  -15.4023  -14.8518 C   0  0  0  0  0  0  0  0  0  0  0  0
   19.3242  -15.4968  -16.3161 C   0  0  1  0  0  0  0  0  0  0  0  0
   18.1467  -15.9542  -17.1478 C   0  0  0  0  0  0  0  0  0  0  0  0
   19.8778  -14.1839  -16.8066 C   0  0  0  0  0  0  0  0  0  0  0  0
   18.8292  -13.4648  -17.6198 C   0  0  2  0  0  0  0  0  0  0  0  0
   18.7164  -13.9281  -18.9631 N   0  0  0  0  0  0  0  0  0  0  0  0
   19.0297  -11.9819  -17.5437 C   0  0  0  0  0  0  0  0  0  0  0  0
   20.0147  -11.4431  -18.0999 O   0  0  0  0  0  0  0  0  0  0  0  0
   18.1333  -11.1229  -16.8514 N   0  0  0  0  0  0  0  0  0  0  0  0
   18.3277   -9.6944  -16.7166 C   0  0  1  0  0  0  0  0  0  0  0  0
   17.0862   -9.0071  -16.1975 C   0  0  0  0  0  0  0  0  0  0  0  0
   17.1876   -7.5240  -16.1751 C   0  0  0  0  0  0  0  0  0  0  0  0
   15.9846   -6.8503  -15.5612 C   0  0  0  0  0  0  0  0  0  0  0  0
   16.1392   -5.3426  -15.5439 C   0  0  0  0  0  0  0  0  0  0  0  0
   15.0215   -4.6889  -14.9039 N   0  0  0  0  0  0  0  0  0  0  0  0
   19.3965   -9.4484  -15.6823 C   0  0  0  0  0  0  0  0  0  0  0  0
   19.5664  -10.3118  -14.7831 O   0  0  0  0  0  0  0  0  0  0  0  0
   26.4318  -10.3637  -14.7449 C   0  0  0  0  0  0  0  0  0  0  0  0
   24.8162  -10.5867  -15.5822 S   0  0  0  0  0  0  0  0  0  0  0  0
   23.7270   -9.2717  -14.9119 C   0  0  0  0  0  0  0  0  0  0  0  0
   22.3590   -9.3622  -15.5123 C   0  0  0  0  0  0  0  0  0  0  0  0
   21.4656   -8.2986  -14.9978 C   0  0  2  0  0  0  0  0  0  0  0  0
   20.1925   -8.2791  -15.7149 N   0  0  0  0  0  0  0  0  0  0  0  0
   22.0502   -6.9646  -15.0789 C   0  0  0  0  0  0  0  0  0  0  0  0
   21.7891   -6.1126  -16.1188 O   0  0  0  0  0  0  0  0  0  0  0  0
   22.8383   -6.5515  -14.1664 O   0  0  0  0  0  0  0  0  0  0  0  0
  2  3  1  6
  2  1  1  0
  4  2  1  0
  5  6  1  6
  5  4  1  0
  7  5  1  0
  8  7  2  0
  9  7  1  0
 10  9  1  0
 10 11  1  1
 11 12  1  0
 12 13  1  0
 13 14  1  0
 15 14  1  0
 16 10  1  0
 17 16  2  0
 19 20  1  0
 19 18  1  0
 20 21  1  0
 22 21  1  6
 22 24  1  0
 22 23  1  0
 23 16  1  0
 24 25  1  0
 26 24  2  0
M  END
$$$$
