LKM.pdb
     RDKit          3D

 26 25  0  0  1  0  0  0  0  0999 V2000
   28.0639  -10.2482  -16.6229 C   0  0  0  0  0  0  0  0  0  0  0  0
   26.8130  -11.0336  -16.2976 C   0  0  1  0  0  0  0  0  0  0  0  0
   26.7200  -11.3287  -14.8173 C   0  0  0  0  0  0  0  0  0  0  0  0
   25.5908  -10.3097  -16.8006 C   0  0  0  0  0  0  0  0  0  0  0  0
   24.3569  -11.1182  -16.4815 C   0  0  2  0  0  0  0  0  0  0  0  0
   24.3588  -12.4283  -17.0432 N   0  0  0  0  0  0  0  0  0  0  0  0
   23.1192  -10.3499  -16.8322 C   0  0  0  0  0  0  0  0  0  0  0  0
   22.8190  -10.1383  -18.0300 O   0  0  0  0  0  0  0  0  0  0  0  0
   22.2363   -9.8299  -15.8469 N   0  0  0  0  0  0  0  0  0  0  0  0
   21.0441   -9.0679  -16.1542 C   0  0  1  0  0  0  0  0  0  0  0  0
   19.8609   -9.5240  -15.3324 C   0  0  0  0  0  0  0  0  0  0  0  0
   18.5964   -8.8126  -15.6568 C   0  0  0  0  0  0  0  0  0  0  0  0
   17.4260   -9.2562  -14.8133 C   0  0  0  0  0  0  0  0  0  0  0  0
   16.1283   -8.6358  -15.2914 C   0  0  0  0  0  0  0  0  0  0  0  0
   14.9962   -9.0712  -14.5071 N   0  0  0  0  0  0  0  0  0  0  0  0
   21.2794   -7.6287  -15.7722 C   0  0  0  0  0  0  0  0  0  0  0  0
   21.9115   -7.3889  -14.7111 O   0  0  0  0  0  0  0  0  0  0  0  0
   23.2946   -0.5299  -17.8517 C   0  0  0  0  0  0  0  0  0  0  0  0
   22.9551   -2.2388  -18.4221 S   0  0  0  0  0  0  0  0  0  0  0  0
   22.1274   -3.0740  -17.0141 C   0  0  0  0  0  0  0  0  0  0  0  0
   21.7996   -4.4927  -17.3604 C   0  0  0  0  0  0  0  0  0  0  0  0
   21.1877   -5.2066  -16.2158 C   0  0  2  0  0  0  0  0  0  0  0  0
   20.8050   -6.5688  -16.5806 N   0  0  0  0  0  0  0  0  0  0  0  0
   20.0092   -4.5345  -15.6799 C   0  0  0  0  0  0  0  0  0  0  0  0
   20.0977   -3.5195  -14.7647 O   0  0  0  0  0  0  0  0  0  0  0  0
   18.8427   -4.8853  -16.0551 O   0  0  0  0  0  0  0  0  0  0  0  0
  2  3  1  1
  2  1  1  0
  4  2  1  0
  5  6  1  6
  5  4  1  0
  7  5  1  0
  8  7  2  0
  9  7  1  0
 10  9  1  0
 10 11  1  1
 11 12  1  0
 12 13  1  0
 13 14  1  0
 15 14  1  0
 16 10  1  0
 17 16  2  0
 19 20  1  0
 19 18  1  0
 20 21  1  0
 22 21  1  6
 22 24  1  0
 22 23  1  0
 23 16  1  0
 24 25  1  0
 26 24  2  0
M  END
$$$$
