LKM.pdb
     RDKit          3D

 26 25  0  0  1  0  0  0  0  0999 V2000
   28.6437  -15.8559  -16.0733 C   0  0  0  0  0  0  0  0  0  0  0  0
   27.8251  -17.1242  -16.1645 C   0  0  1  0  0  0  0  0  0  0  0  0
   28.6715  -18.2919  -16.6201 C   0  0  0  0  0  0  0  0  0  0  0  0
   27.1440  -17.4074  -14.8505 C   0  0  0  0  0  0  0  0  0  0  0  0
   26.3396  -18.6796  -14.9613 C   0  0  2  0  0  0  0  0  0  0  0  0
   25.4565  -18.7136  -16.0798 N   0  0  0  0  0  0  0  0  0  0  0  0
   25.6360  -18.9714  -13.6710 C   0  0  0  0  0  0  0  0  0  0  0  0
   24.9631  -18.0835  -13.0976 O   0  0  0  0  0  0  0  0  0  0  0  0
   25.6917  -20.2438  -13.0396 N   0  0  0  0  0  0  0  0  0  0  0  0
   24.8899  -20.6095  -11.8908 C   0  0  1  0  0  0  0  0  0  0  0  0
   24.1363  -21.8987  -12.1217 C   0  0  0  0  0  0  0  0  0  0  0  0
   23.1277  -21.8162  -13.2109 C   0  0  0  0  0  0  0  0  0  0  0  0
   21.8789  -21.0663  -12.8155 C   0  0  0  0  0  0  0  0  0  0  0  0
   20.8497  -21.0731  -13.9282 C   0  0  0  0  0  0  0  0  0  0  0  0
   20.6422  -19.7565  -14.4848 N   0  0  0  0  0  0  0  0  0  0  0  0
   25.8088  -20.8738  -10.7253 C   0  0  0  0  0  0  0  0  0  0  0  0
   26.6458  -21.8079  -10.8256 O   0  0  0  0  0  0  0  0  0  0  0  0
   29.4873  -18.3031   -6.4731 C   0  0  0  0  0  0  0  0  0  0  0  0
   28.4325  -19.1454   -5.2326 S   0  0  0  0  0  0  0  0  0  0  0  0
   27.4061  -20.3328   -6.1819 C   0  0  0  0  0  0  0  0  0  0  0  0
   26.9908  -19.7417   -7.4927 C   0  0  0  0  0  0  0  0  0  0  0  0
   26.2015  -20.7016   -8.2989 C   0  0  2  0  0  0  0  0  0  0  0  0
   25.7386  -20.0960   -9.5455 N   0  0  0  0  0  0  0  0  0  0  0  0
   25.0384  -21.2283   -7.5934 C   0  0  0  0  0  0  0  0  0  0  0  0
   23.7628  -21.0750   -8.0675 O   0  0  0  0  0  0  0  0  0  0  0  0
   25.1833  -21.8543   -6.4927 O   0  0  0  0  0  0  0  0  0  0  0  0
  2  3  1  1
  2  1  1  0
  4  2  1  0
  5  6  1  6
  5  4  1  0
  7  5  1  0
  8  7  2  0
  9  7  1  0
 10  9  1  0
 10 11  1  6
 11 12  1  0
 12 13  1  0
 13 14  1  0
 15 14  1  0
 16 10  1  0
 17 16  2  0
 19 20  1  0
 19 18  1  0
 20 21  1  0
 22 21  1  1
 22 24  1  0
 22 23  1  0
 23 16  1  0
 24 25  1  0
 26 24  2  0
M  END
$$$$
