LKM.pdb
     RDKit          3D

 26 25  0  0  1  0  0  0  0  0999 V2000
   28.7428  -14.5299  -16.9807 C   0  0  0  0  0  0  0  0  0  0  0  0
   27.6955  -15.5659  -17.3228 C   0  0  1  0  0  0  0  0  0  0  0  0
   28.3319  -16.8832  -17.7066 C   0  0  0  0  0  0  0  0  0  0  0  0
   26.7220  -15.7270  -16.1840 C   0  0  0  0  0  0  0  0  0  0  0  0
   25.7392  -16.8251  -16.5099 C   0  0  2  0  0  0  0  0  0  0  0  0
   24.7931  -16.4782  -17.5181 N   0  0  0  0  0  0  0  0  0  0  0  0
   25.0820  -17.3307  -15.2618 C   0  0  0  0  0  0  0  0  0  0  0  0
   24.7029  -16.5325  -14.3736 O   0  0  0  0  0  0  0  0  0  0  0  0
   24.8573  -18.7136  -15.0216 N   0  0  0  0  0  0  0  0  0  0  0  0
   24.1523  -19.2269  -13.8658 C   0  0  1  0  0  0  0  0  0  0  0  0
   23.1807  -20.3210  -14.2431 C   0  0  0  0  0  0  0  0  0  0  0  0
   22.4572  -20.9057  -13.0834 C   0  0  0  0  0  0  0  0  0  0  0  0
   21.5191  -22.0249  -13.4648 C   0  0  0  0  0  0  0  0  0  0  0  0
   20.6647  -22.4597  -12.2908 C   0  0  0  0  0  0  0  0  0  0  0  0
   19.7760  -23.5443  -12.6374 N   0  0  0  0  0  0  0  0  0  0  0  0
   25.1514  -19.8673  -12.9361 C   0  0  0  0  0  0  0  0  0  0  0  0
   26.1217  -20.4896  -13.4404 O   0  0  0  0  0  0  0  0  0  0  0  0
   27.7001  -18.5090   -6.4125 C   0  0  0  0  0  0  0  0  0  0  0  0
   26.7691  -20.0598   -6.7108 S   0  0  0  0  0  0  0  0  0  0  0  0
   27.0727  -20.4876   -8.4686 C   0  0  0  0  0  0  0  0  0  0  0  0
   26.1009  -19.7795   -9.3599 C   0  0  0  0  0  0  0  0  0  0  0  0
   26.0278  -20.4104  -10.6981 C   0  0  2  0  0  0  0  0  0  0  0  0
   25.0091  -19.7754  -11.5314 N   0  0  0  0  0  0  0  0  0  0  0  0
   25.7430  -21.8401  -10.6473 C   0  0  0  0  0  0  0  0  0  0  0  0
   26.7349  -22.7830  -10.5960 O   0  0  0  0  0  0  0  0  0  0  0  0
   24.5384  -22.2563  -10.6533 O   0  0  0  0  0  0  0  0  0  0  0  0
  2  3  1  1
  2  1  1  0
  4  2  1  0
  5  6  1  6
  5  4  1  0
  7  5  1  0
  8  7  2  0
  9  7  1  0
 10  9  1  0
 10 11  1  6
 11 12  1  0
 12 13  1  0
 13 14  1  0
 15 14  1  0
 16 10  1  0
 17 16  2  0
 19 20  1  0
 19 18  1  0
 20 21  1  0
 22 21  1  1
 22 24  1  0
 22 23  1  0
 23 16  1  0
 24 25  1  0
 26 24  2  0
M  END
$$$$
