LKM.pdb
     RDKit          3D

 26 25  0  0  1  0  0  0  0  0999 V2000
   19.5097  -19.3055  -19.0078 C   0  0  0  0  0  0  0  0  0  0  0  0
   20.3005  -18.4323  -18.0594 C   0  0  1  0  0  0  0  0  0  0  0  0
   19.3871  -17.5729  -17.2141 C   0  0  0  0  0  0  0  0  0  0  0  0
   21.2190  -19.2732  -17.2109 C   0  0  0  0  0  0  0  0  0  0  0  0
   22.1204  -18.3757  -16.3986 C   0  0  2  0  0  0  0  0  0  0  0  0
   22.6333  -17.2591  -17.1212 N   0  0  0  0  0  0  0  0  0  0  0  0
   23.2039  -19.1745  -15.7404 C   0  0  0  0  0  0  0  0  0  0  0  0
   22.9693  -20.3234  -15.2989 O   0  0  0  0  0  0  0  0  0  0  0  0
   24.5288  -18.6840  -15.5838 N   0  0  0  0  0  0  0  0  0  0  0  0
   25.6143  -19.4594  -15.0209 C   0  0  1  0  0  0  0  0  0  0  0  0
   26.9548  -19.0227  -15.5645 C   0  0  0  0  0  0  0  0  0  0  0  0
   27.1342  -19.3040  -17.0133 C   0  0  0  0  0  0  0  0  0  0  0  0
   28.5031  -18.9346  -17.5305 C   0  0  0  0  0  0  0  0  0  0  0  0
   28.6646  -19.3038  -18.9916 C   0  0  0  0  0  0  0  0  0  0  0  0
   29.9720  -18.9575  -19.4985 N   0  0  0  0  0  0  0  0  0  0  0  0
   25.6701  -19.2045  -13.5361 C   0  0  0  0  0  0  0  0  0  0  0  0
   25.1901  -18.1274  -13.0974 O   0  0  0  0  0  0  0  0  0  0  0  0
   21.4466  -20.9404  -11.5395 C   0  0  0  0  0  0  0  0  0  0  0  0
   21.8991  -20.3556   -9.8620 S   0  0  0  0  0  0  0  0  0  0  0  0
   23.7298  -20.2409   -9.8561 C   0  0  0  0  0  0  0  0  0  0  0  0
   24.2576  -20.1480  -11.2536 C   0  0  0  0  0  0  0  0  0  0  0  0
   25.7377  -20.1990  -11.2827 C   0  0  2  0  0  0  0  0  0  0  0  0
   26.2457  -20.1471  -12.6518 N   0  0  0  0  0  0  0  0  0  0  0  0
   26.2868  -21.3888  -10.6419 C   0  0  0  0  0  0  0  0  0  0  0  0
   26.2589  -21.5686   -9.2845 O   0  0  0  0  0  0  0  0  0  0  0  0
   26.8211  -22.3086  -11.3440 O   0  0  0  0  0  0  0  0  0  0  0  0
  2  3  1  1
  2  1  1  0
  4  2  1  0
  5  6  1  6
  5  4  1  0
  7  5  1  0
  8  7  2  0
  9  7  1  0
 10  9  1  0
 10 11  1  6
 11 12  1  0
 12 13  1  0
 13 14  1  0
 15 14  1  0
 16 10  1  0
 17 16  2  0
 19 20  1  0
 19 18  1  0
 20 21  1  0
 22 21  1  6
 22 24  1  0
 22 23  1  0
 23 16  1  0
 24 25  1  0
 26 24  2  0
M  END
$$$$
