LKM.pdb
     RDKit          3D

 26 25  0  0  1  0  0  0  0  0999 V2000
   24.5401  -27.8749  -16.7187 C   0  0  0  0  0  0  0  0  0  0  0  0
   24.9808  -26.4440  -16.9318 C   0  0  1  0  0  0  0  0  0  0  0  0
   24.2317  -25.8044  -18.0795 C   0  0  0  0  0  0  0  0  0  0  0  0
   24.8331  -25.6520  -15.6583 C   0  0  0  0  0  0  0  0  0  0  0  0
   25.3145  -24.2392  -15.8823 C   0  0  2  0  0  0  0  0  0  0  0  0
   26.7269  -24.0818  -15.7712 N   0  0  0  0  0  0  0  0  0  0  0  0
   24.5642  -23.2825  -15.0067 C   0  0  0  0  0  0  0  0  0  0  0  0
   24.8777  -23.1420  -13.8018 O   0  0  0  0  0  0  0  0  0  0  0  0
   23.4788  -22.4984  -15.4840 N   0  0  0  0  0  0  0  0  0  0  0  0
   22.7558  -21.5428  -14.6712 C   0  0  1  0  0  0  0  0  0  0  0  0
   22.3505  -20.3241  -15.4673 C   0  0  0  0  0  0  0  0  0  0  0  0
   21.5751  -19.3271  -14.6831 C   0  0  0  0  0  0  0  0  0  0  0  0
   21.2669  -18.0668  -15.4543 C   0  0  0  0  0  0  0  0  0  0  0  0
   20.5895  -17.0306  -14.5798 C   0  0  0  0  0  0  0  0  0  0  0  0
   20.1083  -15.9041  -15.3451 N   0  0  0  0  0  0  0  0  0  0  0  0
   21.4692  -22.1782  -14.2089 C   0  0  0  0  0  0  0  0  0  0  0  0
   20.7263  -22.7158  -15.0703 O   0  0  0  0  0  0  0  0  0  0  0  0
   17.0842  -25.2158   -8.4947 C   0  0  0  0  0  0  0  0  0  0  0  0
   18.6969  -24.4197   -8.8496 S   0  0  0  0  0  0  0  0  0  0  0  0
   18.6295  -23.9342  -10.6172 C   0  0  0  0  0  0  0  0  0  0  0  0
   19.9028  -23.2642  -11.0298 C   0  0  0  0  0  0  0  0  0  0  0  0
   19.8827  -22.8887  -12.4625 C   0  0  2  0  0  0  0  0  0  0  0  0
   21.0994  -22.1746  -12.8432 N   0  0  0  0  0  0  0  0  0  0  0  0
   18.7394  -22.0586  -12.8255 C   0  0  0  0  0  0  0  0  0  0  0  0
   18.7339  -20.7009  -12.6465 O   0  0  0  0  0  0  0  0  0  0  0  0
   17.6934  -22.5881  -13.3255 O   0  0  0  0  0  0  0  0  0  0  0  0
  2  3  1  6
  2  1  1  0
  4  2  1  0
  5  6  1  1
  5  4  1  0
  7  5  1  0
  8  7  2  0
  9  7  1  0
 10  9  1  0
 10 11  1  6
 11 12  1  0
 12 13  1  0
 13 14  1  0
 15 14  1  0
 16 10  1  0
 17 16  2  0
 19 20  1  0
 19 18  1  0
 20 21  1  0
 22 21  1  1
 22 24  1  0
 22 23  1  0
 23 16  1  0
 24 25  1  0
 26 24  2  0
M  END
$$$$
