LKM.pdb
     RDKit          3D

 26 25  0  0  1  0  0  0  0  0999 V2000
   18.4758  -19.7684  -18.1022 C   0  0  0  0  0  0  0  0  0  0  0  0
   19.5833  -18.8606  -17.6158 C   0  0  1  0  0  0  0  0  0  0  0  0
   19.0532  -17.8079  -16.6681 C   0  0  0  0  0  0  0  0  0  0  0  0
   20.6903  -19.6689  -16.9899 C   0  0  0  0  0  0  0  0  0  0  0  0
   21.7748  -18.7433  -16.4946 C   0  0  2  0  0  0  0  0  0  0  0  0
   22.2880  -17.8631  -17.4915 N   0  0  0  0  0  0  0  0  0  0  0  0
   22.8572  -19.5202  -15.8090 C   0  0  0  0  0  0  0  0  0  0  0  0
   22.5782  -20.5281  -15.1190 O   0  0  0  0  0  0  0  0  0  0  0  0
   24.2303  -19.1646  -15.9014 N   0  0  0  0  0  0  0  0  0  0  0  0
   25.3017  -19.9190  -15.2853 C   0  0  1  0  0  0  0  0  0  0  0  0
   26.6582  -19.4624  -15.7697 C   0  0  0  0  0  0  0  0  0  0  0  0
   27.7848  -20.2895  -15.2629 C   0  0  0  0  0  0  0  0  0  0  0  0
   28.0366  -21.5286  -16.0871 C   0  0  0  0  0  0  0  0  0  0  0  0
   29.1413  -22.3785  -15.4915 C   0  0  0  0  0  0  0  0  0  0  0  0
   29.3488  -23.5993  -16.2350 N   0  0  0  0  0  0  0  0  0  0  0  0
   25.2855  -19.6562  -13.8010 C   0  0  0  0  0  0  0  0  0  0  0  0
   24.9578  -18.5089  -13.4019 O   0  0  0  0  0  0  0  0  0  0  0  0
   20.8766  -19.2561  -11.2500 C   0  0  0  0  0  0  0  0  0  0  0  0
   21.4310  -20.3329   -9.8738 S   0  0  0  0  0  0  0  0  0  0  0  0
   23.2629  -20.3496   -9.9671 C   0  0  0  0  0  0  0  0  0  0  0  0
   23.7185  -20.4228  -11.3909 C   0  0  0  0  0  0  0  0  0  0  0  0
   25.1944  -20.5020  -11.4884 C   0  0  2  0  0  0  0  0  0  0  0  0
   25.6286  -20.6683  -12.8737 N   0  0  0  0  0  0  0  0  0  0  0  0
   25.7672  -21.5888  -10.7019 C   0  0  0  0  0  0  0  0  0  0  0  0
   25.9069  -21.5138   -9.3416 O   0  0  0  0  0  0  0  0  0  0  0  0
   26.1640  -22.6565  -11.2738 O   0  0  0  0  0  0  0  0  0  0  0  0
  2  3  1  1
  2  1  1  0
  4  2  1  0
  5  6  1  6
  5  4  1  0
  7  5  1  0
  8  7  2  0
  9  7  1  0
 10  9  1  0
 10 11  1  6
 11 12  1  0
 12 13  1  0
 13 14  1  0
 15 14  1  0
 16 10  1  0
 17 16  2  0
 19 20  1  0
 19 18  1  0
 20 21  1  0
 22 21  1  6
 22 24  1  0
 22 23  1  0
 23 16  1  0
 24 25  1  0
 26 24  2  0
M  END
$$$$
