LKM.pdb
     RDKit          3D

 26 25  0  0  1  0  0  0  0  0999 V2000
   23.0667  -36.3249  -12.2935 C   0  0  0  0  0  0  0  0  0  0  0  0
   23.3845  -35.7738  -13.6656 C   0  0  1  0  0  0  0  0  0  0  0  0
   22.2072  -35.9237  -14.6031 C   0  0  0  0  0  0  0  0  0  0  0  0
   23.8395  -34.3408  -13.5654 C   0  0  0  0  0  0  0  0  0  0  0  0
   24.0853  -33.7901  -14.9490 C   0  0  2  0  0  0  0  0  0  0  0  0
   25.3563  -34.1349  -15.4947 N   0  0  0  0  0  0  0  0  0  0  0  0
   23.8339  -32.3133  -14.9799 C   0  0  0  0  0  0  0  0  0  0  0  0
   24.7721  -31.5036  -14.7957 O   0  0  0  0  0  0  0  0  0  0  0  0
   22.5452  -31.7611  -15.2147 N   0  0  0  0  0  0  0  0  0  0  0  0
   22.2717  -30.3397  -15.2522 C   0  0  1  0  0  0  0  0  0  0  0  0
   21.8292  -29.8909  -16.6255 C   0  0  0  0  0  0  0  0  0  0  0  0
   21.6095  -28.4246  -16.7346 C   0  0  0  0  0  0  0  0  0  0  0  0
   21.2602  -27.9734  -18.1319 C   0  0  0  0  0  0  0  0  0  0  0  0
   21.0417  -26.4747  -18.1947 C   0  0  0  0  0  0  0  0  0  0  0  0
   20.5292  -26.0534  -19.4776 N   0  0  0  0  0  0  0  0  0  0  0  0
   21.1148  -30.0464  -14.3313 C   0  0  0  0  0  0  0  0  0  0  0  0
   20.1985  -30.9030  -14.2333 O   0  0  0  0  0  0  0  0  0  0  0  0
   17.9158  -25.8051   -8.5814 C   0  0  0  0  0  0  0  0  0  0  0  0
   19.1968  -25.7445   -9.8915 S   0  0  0  0  0  0  0  0  0  0  0  0
   18.9840  -27.2865  -10.8619 C   0  0  0  0  0  0  0  0  0  0  0  0
   20.1398  -27.4895  -11.7910 C   0  0  0  0  0  0  0  0  0  0  0  0
   19.9281  -28.6561  -12.6789 C   0  0  2  0  0  0  0  0  0  0  0  0
   21.0533  -28.8412  -13.5926 N   0  0  0  0  0  0  0  0  0  0  0  0
   18.7100  -28.5612  -13.4759 C   0  0  0  0  0  0  0  0  0  0  0  0
   17.5537  -29.2060  -13.1258 O   0  0  0  0  0  0  0  0  0  0  0  0
   18.6924  -27.8639  -14.5426 O   0  0  0  0  0  0  0  0  0  0  0  0
  2  3  1  6
  2  1  1  0
  4  2  1  0
  5  6  1  1
  5  4  1  0
  7  5  1  0
  8  7  2  0
  9  7  1  0
 10  9  1  0
 10 11  1  6
 11 12  1  0
 12 13  1  0
 13 14  1  0
 15 14  1  0
 16 10  1  0
 17 16  2  0
 19 20  1  0
 19 18  1  0
 20 21  1  0
 22 21  1  6
 22 24  1  0
 22 23  1  0
 23 16  1  0
 24 25  1  0
 26 24  2  0
M  END
$$$$
