LKM.pdb
     RDKit          3D

 26 25  0  0  1  0  0  0  0  0999 V2000
   26.6516  -12.6111  -17.9865 C   0  0  0  0  0  0  0  0  0  0  0  0
   25.2160  -12.9032  -17.6109 C   0  0  1  0  0  0  0  0  0  0  0  0
   25.1352  -13.6843  -16.3184 C   0  0  0  0  0  0  0  0  0  0  0  0
   24.4191  -11.6261  -17.5422 C   0  0  0  0  0  0  0  0  0  0  0  0
   22.9765  -11.9458  -17.2348 C   0  0  2  0  0  0  0  0  0  0  0  0
   22.3870  -12.8884  -18.1270 N   0  0  0  0  0  0  0  0  0  0  0  0
   22.1710  -10.6873  -17.1223 C   0  0  0  0  0  0  0  0  0  0  0  0
   22.0384   -9.9258  -18.1083 O   0  0  0  0  0  0  0  0  0  0  0  0
   21.5268  -10.2963  -15.9170 N   0  0  0  0  0  0  0  0  0  0  0  0
   20.6019   -9.1864  -15.8206 C   0  0  1  0  0  0  0  0  0  0  0  0
   19.5648   -9.4139  -14.7454 C   0  0  0  0  0  0  0  0  0  0  0  0
   18.1646   -9.3550  -15.2417 C   0  0  0  0  0  0  0  0  0  0  0  0
   17.4240  -10.6627  -15.1023 C   0  0  0  0  0  0  0  0  0  0  0  0
   15.9977  -10.5509  -15.6030 C   0  0  0  0  0  0  0  0  0  0  0  0
   15.2205  -11.7295  -15.2979 N   0  0  0  0  0  0  0  0  0  0  0  0
   21.3660   -7.9565  -15.4009 C   0  0  0  0  0  0  0  0  0  0  0  0
   22.2522   -8.0779  -14.5161 O   0  0  0  0  0  0  0  0  0  0  0  0
   23.5429   -0.5265  -16.4892 C   0  0  0  0  0  0  0  0  0  0  0  0
   22.5755   -1.8983  -17.2261 S   0  0  0  0  0  0  0  0  0  0  0  0
   22.5714   -3.2319  -15.9666 C   0  0  0  0  0  0  0  0  0  0  0  0
   21.7687   -4.4031  -16.4401 C   0  0  0  0  0  0  0  0  0  0  0  0
   21.8643   -5.5455  -15.5021 C   0  0  2  0  0  0  0  0  0  0  0  0
   21.0996   -6.6944  -15.9822 N   0  0  0  0  0  0  0  0  0  0  0  0
   21.4030   -5.2266  -14.1555 C   0  0  0  0  0  0  0  0  0  0  0  0
   22.2452   -4.7501  -13.1865 O   0  0  0  0  0  0  0  0  0  0  0  0
   20.1792   -5.3908  -13.8394 O   0  0  0  0  0  0  0  0  0  0  0  0
  2  3  1  1
  2  1  1  0
  4  2  1  0
  5  6  1  6
  5  4  1  0
  7  5  1  0
  8  7  2  0
  9  7  1  0
 10  9  1  0
 10 11  1  1
 11 12  1  0
 12 13  1  0
 13 14  1  0
 15 14  1  0
 16 10  1  0
 17 16  2  0
 19 20  1  0
 19 18  1  0
 20 21  1  0
 22 21  1  6
 22 24  1  0
 22 23  1  0
 23 16  1  0
 24 25  1  0
 26 24  2  0
M  END
$$$$
