LKM.pdb
     RDKit          3D

 26 25  0  0  1  0  0  0  0  0999 V2000
   19.3454  -19.0601  -12.6217 C   0  0  0  0  0  0  0  0  0  0  0  0
   19.6094  -20.5401  -12.7866 C   0  0  1  0  0  0  0  0  0  0  0  0
   20.0585  -20.8638  -14.1940 C   0  0  0  0  0  0  0  0  0  0  0  0
   20.6045  -21.0154  -11.7597 C   0  0  0  0  0  0  0  0  0  0  0  0
   21.6911  -19.9814  -11.5916 C   0  0  2  0  0  0  0  0  0  0  0  0
   21.9818  -19.2454  -12.7773 N   0  0  0  0  0  0  0  0  0  0  0  0
   22.9165  -20.5988  -10.9896 C   0  0  0  0  0  0  0  0  0  0  0  0
   22.8165  -21.4735  -10.0982 O   0  0  0  0  0  0  0  0  0  0  0  0
   24.2315  -20.2342  -11.3877 N   0  0  0  0  0  0  0  0  0  0  0  0
   25.4278  -20.9149  -10.9383 C   0  0  1  0  0  0  0  0  0  0  0  0
   26.5039  -20.9147  -11.9990 C   0  0  0  0  0  0  0  0  0  0  0  0
   26.2284  -21.8372  -13.1319 C   0  0  0  0  0  0  0  0  0  0  0  0
   27.3320  -21.8686  -14.1611 C   0  0  0  0  0  0  0  0  0  0  0  0
   26.9865  -22.7822  -15.3202 C   0  0  0  0  0  0  0  0  0  0  0  0
   28.0472  -22.8436  -16.2987 N   0  0  0  0  0  0  0  0  0  0  0  0
   26.0035  -20.1575   -9.7688 C   0  0  0  0  0  0  0  0  0  0  0  0
   25.8386  -18.9110   -9.7261 O   0  0  0  0  0  0  0  0  0  0  0  0
   25.8111  -20.3357   -3.6277 C   0  0  0  0  0  0  0  0  0  0  0  0
   27.6272  -20.0972   -3.7024 S   0  0  0  0  0  0  0  0  0  0  0  0
   27.9873  -19.5836   -5.4262 C   0  0  0  0  0  0  0  0  0  0  0  0
   27.1791  -20.3872   -6.3964 C   0  0  0  0  0  0  0  0  0  0  0  0
   27.4749  -20.0095   -7.7979 C   0  0  2  0  0  0  0  0  0  0  0  0
   26.7122  -20.8239   -8.7414 N   0  0  0  0  0  0  0  0  0  0  0  0
   28.8880  -20.1251   -8.1407 C   0  0  0  0  0  0  0  0  0  0  0  0
   29.8375  -19.2819   -7.6278 O   0  0  0  0  0  0  0  0  0  0  0  0
   29.2821  -21.0307   -8.9463 O   0  0  0  0  0  0  0  0  0  0  0  0
  2  3  1  6
  2  1  1  0
  4  2  1  0
  5  6  1  6
  5  4  1  0
  7  5  1  0
  8  7  2  0
  9  7  1  0
 10  9  1  0
 10 11  1  6
 11 12  1  0
 12 13  1  0
 13 14  1  0
 15 14  1  0
 16 10  1  0
 17 16  2  0
 19 20  1  0
 19 18  1  0
 20 21  1  0
 22 21  1  1
 22 24  1  0
 22 23  1  0
 23 16  1  0
 24 25  1  0
 26 24  2  0
M  END
$$$$
