LKM.pdb
     RDKit          3D

 26 25  0  0  1  0  0  0  0  0999 V2000
   13.4057  -11.8035  -18.7185 C   0  0  0  0  0  0  0  0  0  0  0  0
   13.2590  -12.4938  -17.3809 C   0  0  1  0  0  0  0  0  0  0  0  0
   13.5138  -13.9798  -17.4996 C   0  0  0  0  0  0  0  0  0  0  0  0
   14.1588  -11.8532  -16.3559 C   0  0  0  0  0  0  0  0  0  0  0  0
   15.5848  -11.8760  -16.8497 C   0  0  2  0  0  0  0  0  0  0  0  0
   16.2431  -13.1273  -16.6681 N   0  0  0  0  0  0  0  0  0  0  0  0
   16.3615  -10.7342  -16.2680 C   0  0  0  0  0  0  0  0  0  0  0  0
   16.0599  -10.2649  -15.1461 O   0  0  0  0  0  0  0  0  0  0  0  0
   17.4594  -10.1334  -16.9420 N   0  0  0  0  0  0  0  0  0  0  0  0
   18.2719   -9.0766  -16.3767 C   0  0  1  0  0  0  0  0  0  0  0  0
   19.7035   -9.1554  -16.8536 C   0  0  0  0  0  0  0  0  0  0  0  0
   20.5320   -7.9862  -16.4575 C   0  0  0  0  0  0  0  0  0  0  0  0
   20.9457   -8.0091  -15.0062 C   0  0  0  0  0  0  0  0  0  0  0  0
   21.7863   -6.7998  -14.6477 C   0  0  0  0  0  0  0  0  0  0  0  0
   22.0518   -6.7233  -13.2300 N   0  0  0  0  0  0  0  0  0  0  0  0
   17.7480   -7.7506  -16.8664 C   0  0  0  0  0  0  0  0  0  0  0  0
   17.6027   -7.5875  -18.1054 O   0  0  0  0  0  0  0  0  0  0  0  0
   13.3879   -1.4429  -16.2076 C   0  0  0  0  0  0  0  0  0  0  0  0
   13.8846   -2.9909  -15.3603 S   0  0  0  0  0  0  0  0  0  0  0  0
   15.4105   -3.5512  -16.2102 C   0  0  0  0  0  0  0  0  0  0  0  0
   15.7604   -4.9478  -15.8011 C   0  0  0  0  0  0  0  0  0  0  0  0
   16.9586   -5.4426  -16.5177 C   0  0  2  0  0  0  0  0  0  0  0  0
   17.4254   -6.7110  -15.9624 N   0  0  0  0  0  0  0  0  0  0  0  0
   18.0735   -4.5022  -16.4956 C   0  0  0  0  0  0  0  0  0  0  0  0
   18.9753   -4.4595  -15.4658 O   0  0  0  0  0  0  0  0  0  0  0  0
   18.2374   -3.6768  -17.4528 O   0  0  0  0  0  0  0  0  0  0  0  0
  2  3  1  6
  2  1  1  0
  4  2  1  0
  5  6  1  1
  5  4  1  0
  7  5  1  0
  8  7  2  0
  9  7  1  0
 10  9  1  0
 10 11  1  6
 11 12  1  0
 12 13  1  0
 13 14  1  0
 15 14  1  0
 16 10  1  0
 17 16  2  0
 19 20  1  0
 19 18  1  0
 20 21  1  0
 22 21  1  1
 22 24  1  0
 22 23  1  0
 23 16  1  0
 24 25  1  0
 26 24  2  0
M  END
$$$$
