LKM.pdb
     RDKit          3D

 26 25  0  0  1  0  0  0  0  0999 V2000
   28.3697  -16.9315  -18.5078 C   0  0  0  0  0  0  0  0  0  0  0  0
   28.3775  -18.1925  -17.6728 C   0  0  1  0  0  0  0  0  0  0  0  0
   29.7691  -18.7764  -17.5741 C   0  0  0  0  0  0  0  0  0  0  0  0
   27.7855  -17.9274  -16.3127 C   0  0  0  0  0  0  0  0  0  0  0  0
   28.0082  -19.1251  -15.4217 C   0  0  2  0  0  0  0  0  0  0  0  0
   28.0253  -20.3704  -16.1151 N   0  0  0  0  0  0  0  0  0  0  0  0
   27.0357  -19.1211  -14.2818 C   0  0  0  0  0  0  0  0  0  0  0  0
   26.7893  -18.0625  -13.6586 O   0  0  0  0  0  0  0  0  0  0  0  0
   26.3538  -20.2925  -13.8535 N   0  0  0  0  0  0  0  0  0  0  0  0
   25.3085  -20.2961  -12.8516 C   0  0  1  0  0  0  0  0  0  0  0  0
   24.2086  -21.2740  -13.1937 C   0  0  0  0  0  0  0  0  0  0  0  0
   23.2034  -20.7352  -14.1475 C   0  0  0  0  0  0  0  0  0  0  0  0
   21.8538  -20.4872  -13.5190 C   0  0  0  0  0  0  0  0  0  0  0  0
   20.8438  -20.0050  -14.5412 C   0  0  0  0  0  0  0  0  0  0  0  0
   19.5807  -19.6552  -13.9342 N   0  0  0  0  0  0  0  0  0  0  0  0
   25.8925  -20.7744  -11.5467 C   0  0  0  0  0  0  0  0  0  0  0  0
   26.5055  -21.8731  -11.5347 O   0  0  0  0  0  0  0  0  0  0  0  0
   29.8341  -18.9733   -7.1747 C   0  0  0  0  0  0  0  0  0  0  0  0
   28.4755  -19.3647   -6.0077 S   0  0  0  0  0  0  0  0  0  0  0  0
   27.2977  -20.4061   -6.9526 C   0  0  0  0  0  0  0  0  0  0  0  0
   27.0362  -19.8154   -8.3028 C   0  0  0  0  0  0  0  0  0  0  0  0
   26.1069  -20.6540   -9.0949 C   0  0  2  0  0  0  0  0  0  0  0  0
   25.7592  -20.0134  -10.3613 N   0  0  0  0  0  0  0  0  0  0  0  0
   24.8679  -20.9653   -8.3909 C   0  0  0  0  0  0  0  0  0  0  0  0
   24.8321  -21.7987   -7.3048 O   0  0  0  0  0  0  0  0  0  0  0  0
   23.7635  -20.4616   -8.7797 O   0  0  0  0  0  0  0  0  0  0  0  0
  2  3  1  1
  2  1  1  0
  4  2  1  0
  5  6  1  6
  5  4  1  0
  7  5  1  0
  8  7  2  0
  9  7  1  0
 10  9  1  0
 10 11  1  6
 11 12  1  0
 12 13  1  0
 13 14  1  0
 15 14  1  0
 16 10  1  0
 17 16  2  0
 19 20  1  0
 19 18  1  0
 20 21  1  0
 22 21  1  1
 22 24  1  0
 22 23  1  0
 23 16  1  0
 24 25  1  0
 26 24  2  0
M  END
$$$$
