WQQ.pdb
     RDKit          3D

 33 34  0  0  1  0  0  0  0  0999 V2000
   26.2268  -21.8223  -12.7504 N   0  0  0  0  0  0  0  0  0  0  0  0
   25.4449  -21.2176  -11.6730 C   0  0  1  0  0  0  0  0  0  0  0  0
   26.2637  -20.0768  -11.1457 C   0  0  0  0  0  0  0  0  0  0  0  0
   27.4730  -20.4812  -10.4042 C   0  0  0  0  0  0  0  0  0  0  0  0
   28.6701  -20.9208  -10.9778 C   0  0  0  0  0  0  0  0  0  0  0  0
   29.5683  -21.2222  -10.0087 N   0  0  0  0  0  0  0  0  0  0  0  0
   28.9823  -20.9883   -8.8123 C   0  0  0  0  0  0  0  0  0  0  0  0
   29.3826  -21.1053   -7.5275 C   0  0  0  0  0  0  0  0  0  0  0  0
   28.6039  -20.8023   -6.4538 C   0  0  0  0  0  0  0  0  0  0  0  0
   27.3007  -20.3402   -6.6778 C   0  0  0  0  0  0  0  0  0  0  0  0
   26.8735  -20.2151   -7.9819 C   0  0  0  0  0  0  0  0  0  0  0  0
   27.6747  -20.5252   -9.0505 C   0  0  0  0  0  0  0  0  0  0  0  0
   24.1174  -20.7486  -12.2082 C   0  0  0  0  0  0  0  0  0  0  0  0
   24.0388  -19.6172  -12.7464 O   0  0  0  0  0  0  0  0  0  0  0  0
   20.8871  -21.4848  -16.6181 N   0  0  0  0  0  0  0  0  0  0  0  0
   22.1424  -21.8607  -16.1198 C   0  0  0  0  0  0  0  0  0  0  0  0
   22.9255  -22.4798  -16.9378 O   0  0  0  0  0  0  0  0  0  0  0  0
   22.6372  -21.6043  -14.7278 C   0  0  0  0  0  0  0  0  0  0  0  0
   21.5507  -20.8996  -13.9658 C   0  0  0  0  0  0  0  0  0  0  0  0
   21.6572  -21.3587  -12.5036 C   0  0  2  0  0  0  0  0  0  0  0  0
   22.9961  -21.5981  -12.0873 N   0  0  0  0  0  0  0  0  0  0  0  0
   20.6788  -22.3970  -12.1906 C   0  0  0  0  0  0  0  0  0  0  0  0
   20.8594  -23.5880  -12.4390 O   0  0  0  0  0  0  0  0  0  0  0  0
   17.0597  -24.5864   -7.4903 N   0  0  0  0  0  0  0  0  0  0  0  0
   18.4415  -24.3357   -7.5993 C   0  0  0  0  0  0  0  0  0  0  0  0
   19.2120  -24.7856   -6.7007 O   0  0  0  0  0  0  0  0  0  0  0  0
   19.0472  -23.5811   -8.7126 C   0  0  0  0  0  0  0  0  0  0  0  0
   18.1511  -22.9831   -9.7012 C   0  0  0  0  0  0  0  0  0  0  0  0
   18.5049  -23.1333  -11.1376 C   0  0  2  0  0  0  0  0  0  0  0  0
   19.4182  -22.0724  -11.5521 N   0  0  0  0  0  0  0  0  0  0  0  0
   17.4110  -23.4090  -12.0430 C   0  0  0  0  0  0  0  0  0  0  0  0
   17.1094  -22.6302  -12.9429 O   0  0  0  0  0  0  0  0  0  0  0  0
   16.7081  -24.6015  -11.8691 O   0  0  0  0  0  0  0  0  0  0  0  0
  2  1  1  6
  2  3  1  0
  3  4  1  0
  4  5  2  0
  5  6  1  0
  7  6  1  0
  8  7  2  0
  9  8  1  0
 10 11  1  0
 10  9  2  0
 11 12  2  0
 12  4  1  0
 12  7  1  0
 13 14  2  0
 13  2  1  0
 15 16  1  0
 16 17  2  0
 18 19  1  0
 18 16  1  0
 20 19  1  6
 20 21  1  0
 21 13  1  0
 22 30  1  0
 22 20  1  0
 23 22  2  0
 24 25  1  0
 25 26  2  0
 27 28  1  0
 27 25  1  0
 29 28  1  1
 29 30  1  0
 29 31  1  0
 31 33  1  0
 32 31  2  0
M  END
$$$$
