WQQ.pdb
     RDKit          3D

 33 34  0  0  1  0  0  0  0  0999 V2000
   24.2865  -19.8470   -9.4092 N   0  0  0  0  0  0  0  0  0  0  0  0
   25.6761  -20.0298   -9.8256 C   0  0  1  0  0  0  0  0  0  0  0  0
   26.2023  -21.1954   -9.0416 C   0  0  0  0  0  0  0  0  0  0  0  0
   26.3411  -20.9483   -7.5941 C   0  0  0  0  0  0  0  0  0  0  0  0
   25.3435  -21.1489   -6.6351 C   0  0  0  0  0  0  0  0  0  0  0  0
   25.8037  -20.8110   -5.4060 N   0  0  0  0  0  0  0  0  0  0  0  0
   27.0829  -20.3934   -5.5421 C   0  0  0  0  0  0  0  0  0  0  0  0
   28.0246  -19.9450   -4.6837 C   0  0  0  0  0  0  0  0  0  0  0  0
   29.2800  -19.5725   -5.0529 C   0  0  0  0  0  0  0  0  0  0  0  0
   29.6337  -19.6509   -6.4060 C   0  0  0  0  0  0  0  0  0  0  0  0
   28.6860  -20.1049   -7.2974 C   0  0  0  0  0  0  0  0  0  0  0  0
   27.4260  -20.4764   -6.9046 C   0  0  0  0  0  0  0  0  0  0  0  0
   25.7341  -20.2855  -11.3089 C   0  0  0  0  0  0  0  0  0  0  0  0
   24.6697  -20.5170  -11.9329 O   0  0  0  0  0  0  0  0  0  0  0  0
   29.9935  -22.1994  -15.1297 N   0  0  0  0  0  0  0  0  0  0  0  0
   29.6260  -21.0109  -15.7761 C   0  0  0  0  0  0  0  0  0  0  0  0
   29.9445  -20.9104  -17.0228 O   0  0  0  0  0  0  0  0  0  0  0  0
   28.9034  -19.8623  -15.1382 C   0  0  0  0  0  0  0  0  0  0  0  0
   28.7647  -20.1519  -13.6705 C   0  0  0  0  0  0  0  0  0  0  0  0
   27.2649  -20.1001  -13.3421 C   0  0  2  0  0  0  0  0  0  0  0  0
   26.9888  -20.2585  -11.9558 N   0  0  0  0  0  0  0  0  0  0  0  0
   26.4814  -20.9192  -14.2633 C   0  0  0  0  0  0  0  0  0  0  0  0
   26.7985  -22.0644  -14.5808 O   0  0  0  0  0  0  0  0  0  0  0  0
   24.3614  -25.0847  -13.8457 N   0  0  0  0  0  0  0  0  0  0  0  0
   23.0578  -24.5659  -13.9697 C   0  0  0  0  0  0  0  0  0  0  0  0
   22.0851  -25.3753  -14.0174 O   0  0  0  0  0  0  0  0  0  0  0  0
   22.7583  -23.1232  -14.0390 C   0  0  0  0  0  0  0  0  0  0  0  0
   23.8785  -22.1871  -13.9561 C   0  0  0  0  0  0  0  0  0  0  0  0
   24.1449  -21.3192  -15.1336 C   0  0  2  0  0  0  0  0  0  0  0  0
   25.2597  -20.4168  -14.8610 N   0  0  0  0  0  0  0  0  0  0  0  0
   22.9896  -20.7172  -15.7623 C   0  0  0  0  0  0  0  0  0  0  0  0
   22.5996  -21.0771  -16.8694 O   0  0  0  0  0  0  0  0  0  0  0  0
   22.3186  -19.7133  -15.0635 O   0  0  0  0  0  0  0  0  0  0  0  0
  2  1  1  1
  2  3  1  0
  3  4  1  0
  4  5  2  0
  5  6  1  0
  7  6  1  0
  8  7  2  0
  9  8  1  0
 10 11  1  0
 10  9  2  0
 11 12  2  0
 12  4  1  0
 12  7  1  0
 13 14  2  0
 13  2  1  0
 15 16  1  0
 16 17  2  0
 18 19  1  0
 18 16  1  0
 20 19  1  1
 20 21  1  0
 21 13  1  0
 22 30  1  0
 22 20  1  0
 23 22  2  0
 24 25  1  0
 25 26  2  0
 27 28  1  0
 27 25  1  0
 29 28  1  1
 29 30  1  0
 29 31  1  0
 31 33  1  0
 32 31  2  0
M  END
$$$$
