WQQ.pdb
     RDKit          3D

 33 34  0  0  1  0  0  0  0  0999 V2000
   25.0280  -16.7157  -17.1916 N   0  0  0  0  0  0  0  0  0  0  0  0
   25.6615  -17.4452  -16.0941 C   0  0  1  0  0  0  0  0  0  0  0  0
   25.9541  -16.4324  -15.0270 C   0  0  0  0  0  0  0  0  0  0  0  0
   27.0233  -15.4748  -15.3669 C   0  0  0  0  0  0  0  0  0  0  0  0
   27.0037  -14.1032  -15.0952 C   0  0  0  0  0  0  0  0  0  0  0  0
   28.1384  -13.5210  -15.5535 N   0  0  0  0  0  0  0  0  0  0  0  0
   28.9001  -14.4848  -16.1195 C   0  0  0  0  0  0  0  0  0  0  0  0
   30.1063  -14.4975  -16.7274 C   0  0  0  0  0  0  0  0  0  0  0  0
   30.6954  -15.6147  -17.2333 C   0  0  0  0  0  0  0  0  0  0  0  0
   30.0201  -16.8373  -17.1270 C   0  0  0  0  0  0  0  0  0  0  0  0
   28.7875  -16.8445  -16.5111 C   0  0  0  0  0  0  0  0  0  0  0  0
   28.2113  -15.7070  -16.0069 C   0  0  0  0  0  0  0  0  0  0  0  0
   24.7352  -18.5242  -15.5978 C   0  0  0  0  0  0  0  0  0  0  0  0
   23.5173  -18.4721  -15.8978 O   0  0  0  0  0  0  0  0  0  0  0  0
   25.6370  -23.8215  -15.2213 N   0  0  0  0  0  0  0  0  0  0  0  0
   24.8691  -23.9097  -14.0517 C   0  0  0  0  0  0  0  0  0  0  0  0
   24.2816  -25.0376  -13.8314 O   0  0  0  0  0  0  0  0  0  0  0  0
   24.6786  -22.8085  -13.0520 C   0  0  0  0  0  0  0  0  0  0  0  0
   25.5149  -21.6360  -13.4802 C   0  0  0  0  0  0  0  0  0  0  0  0
   24.5795  -20.6593  -14.2090 C   0  0  2  0  0  0  0  0  0  0  0  0
   25.2657  -19.5657  -14.8057 N   0  0  0  0  0  0  0  0  0  0  0  0
   23.4044  -20.3344  -13.4045 C   0  0  0  0  0  0  0  0  0  0  0  0
   23.4750  -19.9020  -12.2552 O   0  0  0  0  0  0  0  0  0  0  0  0
   20.3480  -16.7433  -15.5773 N   0  0  0  0  0  0  0  0  0  0  0  0
   19.6907  -17.9506  -15.8843 C   0  0  0  0  0  0  0  0  0  0  0  0
   19.2092  -18.1004  -17.0459 O   0  0  0  0  0  0  0  0  0  0  0  0
   19.5376  -19.0615  -14.9259 C   0  0  0  0  0  0  0  0  0  0  0  0
   20.2256  -18.9553  -13.6401 C   0  0  0  0  0  0  0  0  0  0  0  0
   20.9014  -20.1706  -13.1134 C   0  0  2  0  0  0  0  0  0  0  0  0
   22.0642  -20.5031  -13.9312 N   0  0  0  0  0  0  0  0  0  0  0  0
   20.0436  -21.2809  -12.7614 C   0  0  0  0  0  0  0  0  0  0  0  0
   19.1209  -21.1521  -11.9619 O   0  0  0  0  0  0  0  0  0  0  0  0
   20.2910  -22.5117  -13.3698 O   0  0  0  0  0  0  0  0  0  0  0  0
  2  1  1  6
  2  3  1  0
  3  4  1  0
  4  5  2  0
  5  6  1  0
  7  6  1  0
  8  7  2  0
  9  8  1  0
 10 11  1  0
 10  9  2  0
 11 12  2  0
 12  4  1  0
 12  7  1  0
 13 14  2  0
 13  2  1  0
 15 16  1  0
 16 17  2  0
 18 19  1  0
 18 16  1  0
 20 19  1  1
 20 21  1  0
 21 13  1  0
 22 30  1  0
 22 20  1  0
 23 22  2  0
 24 25  1  0
 25 26  2  0
 27 28  1  0
 27 25  1  0
 29 28  1  6
 29 30  1  0
 29 31  1  0
 31 33  1  0
 32 31  2  0
M  END
$$$$
