WQQ.pdb
     RDKit          3D

 33 34  0  0  1  0  0  0  0  0999 V2000
   23.8916  -21.6089  -12.7838 N   0  0  0  0  0  0  0  0  0  0  0  0
   23.7325  -22.6835  -13.7625 C   0  0  1  0  0  0  0  0  0  0  0  0
   22.4942  -22.3618  -14.5456 C   0  0  0  0  0  0  0  0  0  0  0  0
   21.2384  -22.4709  -13.7795 C   0  0  0  0  0  0  0  0  0  0  0  0
   20.4429  -21.3985  -13.3643 C   0  0  0  0  0  0  0  0  0  0  0  0
   19.3703  -21.8542  -12.6726 N   0  0  0  0  0  0  0  0  0  0  0  0
   19.4485  -23.2038  -12.6271 C   0  0  0  0  0  0  0  0  0  0  0  0
   18.6806  -24.1749  -12.0870 C   0  0  0  0  0  0  0  0  0  0  0  0
   18.9592  -25.5040  -12.1693 C   0  0  0  0  0  0  0  0  0  0  0  0
   20.1135  -25.9076  -12.8525 C   0  0  0  0  0  0  0  0  0  0  0  0
   20.9106  -24.9313  -13.4096 C   0  0  0  0  0  0  0  0  0  0  0  0
   20.6113  -23.5965  -13.3159 C   0  0  0  0  0  0  0  0  0  0  0  0
   24.9490  -22.7502  -14.6482 C   0  0  0  0  0  0  0  0  0  0  0  0
   25.9423  -22.0309  -14.3802 O   0  0  0  0  0  0  0  0  0  0  0  0
   28.5805  -27.0070  -15.6990 N   0  0  0  0  0  0  0  0  0  0  0  0
   29.0154  -26.0043  -16.5771 C   0  0  0  0  0  0  0  0  0  0  0  0
   30.0549  -26.2754  -17.2923 O   0  0  0  0  0  0  0  0  0  0  0  0
   28.3756  -24.6587  -16.7449 C   0  0  0  0  0  0  0  0  0  0  0  0
   27.2187  -24.5667  -15.7907 C   0  0  0  0  0  0  0  0  0  0  0  0
   26.0238  -24.0174  -16.5848 C   0  0  2  0  0  0  0  0  0  0  0  0
   24.9356  -23.6222  -15.7586 N   0  0  0  0  0  0  0  0  0  0  0  0
   25.7019  -24.8635  -17.7311 C   0  0  0  0  0  0  0  0  0  0  0  0
   24.9201  -25.8111  -17.6688 O   0  0  0  0  0  0  0  0  0  0  0  0
   26.0767  -19.9956  -20.2713 N   0  0  0  0  0  0  0  0  0  0  0  0
   24.7966  -20.4273  -20.6701 C   0  0  0  0  0  0  0  0  0  0  0  0
   24.1010  -19.6649  -21.4040 O   0  0  0  0  0  0  0  0  0  0  0  0
   24.2195  -21.7293  -20.2859 C   0  0  0  0  0  0  0  0  0  0  0  0
   25.0179  -22.6056  -19.4300 C   0  0  0  0  0  0  0  0  0  0  0  0
   25.5817  -23.8405  -20.0367 C   0  0  2  0  0  0  0  0  0  0  0  0
   26.2955  -24.6230  -19.0318 N   0  0  0  0  0  0  0  0  0  0  0  0
   26.2583  -23.6818  -21.3053 C   0  0  0  0  0  0  0  0  0  0  0  0
   27.4699  -23.4938  -21.3687 O   0  0  0  0  0  0  0  0  0  0  0  0
   25.4888  -23.7592  -22.4664 O   0  0  0  0  0  0  0  0  0  0  0  0
  2  1  1  1
  2  3  1  0
  3  4  1  0
  4  5  2  0
  5  6  1  0
  7  6  1  0
  8  7  2  0
  9  8  1  0
 10 11  1  0
 10  9  2  0
 11 12  2  0
 12  4  1  0
 12  7  1  0
 13 14  2  0
 13  2  1  0
 15 16  1  0
 16 17  2  0
 18 19  1  0
 18 16  1  0
 20 19  1  1
 20 21  1  0
 21 13  1  0
 22 30  1  0
 22 20  1  0
 23 22  2  0
 24 25  1  0
 25 26  2  0
 27 28  1  0
 27 25  1  0
 29 28  1  1
 29 30  1  0
 29 31  1  0
 31 33  1  0
 32 31  2  0
M  END
$$$$
