WQQ.pdb
     RDKit          3D

 33 34  0  0  1  0  0  0  0  0999 V2000
   28.6725  -20.9428  -10.7313 N   0  0  0  0  0  0  0  0  0  0  0  0
   27.3211  -20.9080  -10.1739 C   0  0  1  0  0  0  0  0  0  0  0  0
   27.2566  -19.6920   -9.2980 C   0  0  0  0  0  0  0  0  0  0  0  0
   28.2399  -19.6752   -8.1987 C   0  0  0  0  0  0  0  0  0  0  0  0
   29.6159  -19.4714   -8.3409 C   0  0  0  0  0  0  0  0  0  0  0  0
   30.2235  -19.5310   -7.1309 N   0  0  0  0  0  0  0  0  0  0  0  0
   29.2719  -19.7697   -6.1999 C   0  0  0  0  0  0  0  0  0  0  0  0
   29.2837  -19.9258   -4.8582 C   0  0  0  0  0  0  0  0  0  0  0  0
   28.1747  -20.1623   -4.1065 C   0  0  0  0  0  0  0  0  0  0  0  0
   26.9339  -20.2545   -4.7498 C   0  0  0  0  0  0  0  0  0  0  0  0
   26.9014  -20.0992   -6.1187 C   0  0  0  0  0  0  0  0  0  0  0  0
   28.0311  -19.8606   -6.8581 C   0  0  0  0  0  0  0  0  0  0  0  0
   26.3113  -20.8439  -11.2897 C   0  0  0  0  0  0  0  0  0  0  0  0
   26.1584  -19.7671  -11.9167 O   0  0  0  0  0  0  0  0  0  0  0  0
   26.0826  -23.5164  -15.4673 N   0  0  0  0  0  0  0  0  0  0  0  0
   24.6828  -23.4832  -15.5384 C   0  0  0  0  0  0  0  0  0  0  0  0
   24.1699  -23.2513  -16.6998 O   0  0  0  0  0  0  0  0  0  0  0  0
   23.7488  -23.6914  -14.3840 C   0  0  0  0  0  0  0  0  0  0  0  0
   24.5562  -23.6693  -13.1171 C   0  0  0  0  0  0  0  0  0  0  0  0
   24.6493  -22.2028  -12.6691 C   0  0  2  0  0  0  0  0  0  0  0  0
   25.5629  -22.0008  -11.5978 N   0  0  0  0  0  0  0  0  0  0  0  0
   23.3281  -21.5967  -12.5257 C   0  0  0  0  0  0  0  0  0  0  0  0
   22.6644  -21.6673  -11.4926 O   0  0  0  0  0  0  0  0  0  0  0  0
   21.8653  -18.7833  -17.3436 N   0  0  0  0  0  0  0  0  0  0  0  0
   22.6504  -18.1674  -16.3496 C   0  0  0  0  0  0  0  0  0  0  0  0
   23.6087  -17.4218  -16.7093 O   0  0  0  0  0  0  0  0  0  0  0  0
   22.4132  -18.3359  -14.9034 C   0  0  0  0  0  0  0  0  0  0  0  0
   21.2611  -19.1345  -14.4877 C   0  0  0  0  0  0  0  0  0  0  0  0
   21.4661  -20.1376  -13.4094 C   0  0  2  0  0  0  0  0  0  0  0  0
   22.7182  -20.8596  -13.6152 N   0  0  0  0  0  0  0  0  0  0  0  0
   20.3217  -20.9520  -13.0637 C   0  0  0  0  0  0  0  0  0  0  0  0
   19.4257  -20.5274  -12.3397 O   0  0  0  0  0  0  0  0  0  0  0  0
   20.2596  -22.2426  -13.5898 O   0  0  0  0  0  0  0  0  0  0  0  0
  2  1  1  6
  2  3  1  0
  3  4  1  0
  4  5  2  0
  5  6  1  0
  7  6  1  0
  8  7  2  0
  9  8  1  0
 10 11  1  0
 10  9  2  0
 11 12  2  0
 12  4  1  0
 12  7  1  0
 13 14  2  0
 13  2  1  0
 15 16  1  0
 16 17  2  0
 18 19  1  0
 18 16  1  0
 20 19  1  1
 20 21  1  0
 21 13  1  0
 22 30  1  0
 22 20  1  0
 23 22  2  0
 24 25  1  0
 25 26  2  0
 27 28  1  0
 27 25  1  0
 29 28  1  6
 29 30  1  0
 29 31  1  0
 31 33  1  0
 32 31  2  0
M  END
$$$$
