WQQ.pdb
     RDKit          3D

 33 34  0  0  1  0  0  0  0  0999 V2000
   26.0812  -22.2537  -12.4517 N   0  0  0  0  0  0  0  0  0  0  0  0
   25.3982  -21.4290  -11.4561 C   0  0  1  0  0  0  0  0  0  0  0  0
   26.3354  -20.3063  -11.1226 C   0  0  0  0  0  0  0  0  0  0  0  0
   27.5436  -20.7155  -10.3820 C   0  0  0  0  0  0  0  0  0  0  0  0
   28.6450  -21.3827  -10.9270 C   0  0  0  0  0  0  0  0  0  0  0  0
   29.5712  -21.6161   -9.9655 N   0  0  0  0  0  0  0  0  0  0  0  0
   29.0973  -21.1146   -8.8022 C   0  0  0  0  0  0  0  0  0  0  0  0
   29.5709  -21.0558   -7.5385 C   0  0  0  0  0  0  0  0  0  0  0  0
   28.9047  -20.4853   -6.4985 C   0  0  0  0  0  0  0  0  0  0  0  0
   27.6453  -19.9201   -6.7361 C   0  0  0  0  0  0  0  0  0  0  0  0
   27.1445  -19.9712   -8.0188 C   0  0  0  0  0  0  0  0  0  0  0  0
   27.8326  -20.5505   -9.0537 C   0  0  0  0  0  0  0  0  0  0  0  0
   24.0986  -20.9191  -12.0216 C   0  0  0  0  0  0  0  0  0  0  0  0
   24.0773  -19.8056  -12.6010 O   0  0  0  0  0  0  0  0  0  0  0  0
   23.5938  -22.3053  -15.4413 N   0  0  0  0  0  0  0  0  0  0  0  0
   23.7789  -20.9791  -15.0262 C   0  0  0  0  0  0  0  0  0  0  0  0
   24.8180  -20.3697  -15.4894 O   0  0  0  0  0  0  0  0  0  0  0  0
   22.8759  -20.2255  -14.0961 C   0  0  0  0  0  0  0  0  0  0  0  0
   21.6377  -21.0475  -13.8754 C   0  0  0  0  0  0  0  0  0  0  0  0
   21.6351  -21.4679  -12.3979 C   0  0  2  0  0  0  0  0  0  0  0  0
   22.9381  -21.7110  -11.8819 N   0  0  0  0  0  0  0  0  0  0  0  0
   20.6235  -22.4863  -12.1276 C   0  0  0  0  0  0  0  0  0  0  0  0
   20.7742  -23.6746  -12.4073 O   0  0  0  0  0  0  0  0  0  0  0  0
   17.9970  -25.6726   -6.8602 N   0  0  0  0  0  0  0  0  0  0  0  0
   17.6342  -24.4813   -7.5181 C   0  0  0  0  0  0  0  0  0  0  0  0
   17.3277  -23.4713   -6.8184 O   0  0  0  0  0  0  0  0  0  0  0  0
   17.5988  -24.3395   -8.9860 C   0  0  0  0  0  0  0  0  0  0  0  0
   18.3760  -23.2569   -9.5876 C   0  0  0  0  0  0  0  0  0  0  0  0
   18.4410  -23.1925  -11.0717 C   0  0  2  0  0  0  0  0  0  0  0  0
   19.3635  -22.1440  -11.4973 N   0  0  0  0  0  0  0  0  0  0  0  0
   17.1765  -23.2382  -11.7727 C   0  0  0  0  0  0  0  0  0  0  0  0
   16.6649  -22.2260  -12.2426 O   0  0  0  0  0  0  0  0  0  0  0  0
   16.5538  -24.4791  -11.9094 O   0  0  0  0  0  0  0  0  0  0  0  0
  2  1  1  6
  2  3  1  0
  3  4  1  0
  4  5  2  0
  5  6  1  0
  7  6  1  0
  8  7  2  0
  9  8  1  0
 10 11  1  0
 10  9  2  0
 11 12  2  0
 12  4  1  0
 12  7  1  0
 13 14  2  0
 13  2  1  0
 15 16  1  0
 16 17  2  0
 18 19  1  0
 18 16  1  0
 20 19  1  6
 20 21  1  0
 21 13  1  0
 22 30  1  0
 22 20  1  0
 23 22  2  0
 24 25  1  0
 25 26  2  0
 27 28  1  0
 27 25  1  0
 29 28  1  1
 29 30  1  0
 29 31  1  0
 31 33  1  0
 32 31  2  0
M  END
$$$$
