WQQ.pdb
     RDKit          3D

 33 34  0  0  1  0  0  0  0  0999 V2000
   20.1643  -14.2923  -17.9207 N   0  0  0  0  0  0  0  0  0  0  0  0
   20.5212  -13.0635  -18.6283 C   0  0  1  0  0  0  0  0  0  0  0  0
   19.2625  -12.5686  -19.2768 C   0  0  0  0  0  0  0  0  0  0  0  0
   18.7271  -13.4516  -20.3301 C   0  0  0  0  0  0  0  0  0  0  0  0
   17.6005  -14.2712  -20.2097 C   0  0  0  0  0  0  0  0  0  0  0  0
   17.3979  -14.9570  -21.3609 N   0  0  0  0  0  0  0  0  0  0  0  0
   18.3698  -14.6022  -22.2321 C   0  0  0  0  0  0  0  0  0  0  0  0
   18.6712  -14.9512  -23.5017 C   0  0  0  0  0  0  0  0  0  0  0  0
   19.7249  -14.4510  -24.2021 C   0  0  0  0  0  0  0  0  0  0  0  0
   20.5614  -13.5150  -23.5807 C   0  0  0  0  0  0  0  0  0  0  0  0
   20.2710  -13.1471  -22.2849 C   0  0  0  0  0  0  0  0  0  0  0  0
   19.2031  -13.6627  -21.5965 C   0  0  0  0  0  0  0  0  0  0  0  0
   21.0776  -12.0581  -17.6546 C   0  0  0  0  0  0  0  0  0  0  0  0
   20.5733  -11.9711  -16.5082 O   0  0  0  0  0  0  0  0  0  0  0  0
   27.0979   -9.9044  -17.5585 N   0  0  0  0  0  0  0  0  0  0  0  0
   26.3411   -9.1025  -16.6927 C   0  0  0  0  0  0  0  0  0  0  0  0
   26.9992   -8.2857  -15.9407 O   0  0  0  0  0  0  0  0  0  0  0  0
   24.8466   -9.1223  -16.5733 C   0  0  0  0  0  0  0  0  0  0  0  0
   24.3185  -10.2061  -17.4699 C   0  0  0  0  0  0  0  0  0  0  0  0
   22.7878  -10.1904  -17.3401 C   0  0  2  0  0  0  0  0  0  0  0  0
   22.1533  -11.2391  -18.0617 N   0  0  0  0  0  0  0  0  0  0  0  0
   22.2437   -8.8473  -17.5232 C   0  0  0  0  0  0  0  0  0  0  0  0
   22.1689   -8.2959  -18.6201 O   0  0  0  0  0  0  0  0  0  0  0  0
   16.9248   -6.6667  -15.5038 N   0  0  0  0  0  0  0  0  0  0  0  0
   17.3986   -7.3791  -16.6226 C   0  0  0  0  0  0  0  0  0  0  0  0
   16.5663   -8.0180  -17.3316 O   0  0  0  0  0  0  0  0  0  0  0  0
   18.8178   -7.4169  -17.0231 C   0  0  0  0  0  0  0  0  0  0  0  0
   19.7799   -6.6822  -16.2031 C   0  0  0  0  0  0  0  0  0  0  0  0
   21.2119   -6.7356  -16.5997 C   0  0  2  0  0  0  0  0  0  0  0  0
   21.7476   -8.0787  -16.3984 N   0  0  0  0  0  0  0  0  0  0  0  0
   22.0479   -5.6504  -16.1353 C   0  0  0  0  0  0  0  0  0  0  0  0
   23.0788   -5.8587  -15.5019 O   0  0  0  0  0  0  0  0  0  0  0  0
   21.6508   -4.3480  -16.4394 O   0  0  0  0  0  0  0  0  0  0  0  0
  2  1  1  1
  2  3  1  0
  3  4  1  0
  4  5  2  0
  5  6  1  0
  7  6  1  0
  8  7  2  0
  9  8  1  0
 10 11  1  0
 10  9  2  0
 11 12  2  0
 12  4  1  0
 12  7  1  0
 13 14  2  0
 13  2  1  0
 15 16  1  0
 16 17  2  0
 18 19  1  0
 18 16  1  0
 20 19  1  6
 20 21  1  0
 21 13  1  0
 22 30  1  0
 22 20  1  0
 23 22  2  0
 24 25  1  0
 25 26  2  0
 27 28  1  0
 27 25  1  0
 29 28  1  1
 29 30  1  0
 29 31  1  0
 31 33  1  0
 32 31  2  0
M  END
$$$$
