WQQ.pdb
     RDKit          3D

 33 34  0  0  1  0  0  0  0  0999 V2000
   20.9437  -20.8683  -15.7041 N   0  0  0  0  0  0  0  0  0  0  0  0
   21.8109  -19.8461  -15.1202 C   0  0  1  0  0  0  0  0  0  0  0  0
   22.2894  -20.3964  -13.8094 C   0  0  0  0  0  0  0  0  0  0  0  0
   21.2498  -20.4891  -12.7670 C   0  0  0  0  0  0  0  0  0  0  0  0
   19.8935  -20.7450  -12.9911 C   0  0  0  0  0  0  0  0  0  0  0  0
   19.2195  -20.7493  -11.8154 N   0  0  0  0  0  0  0  0  0  0  0  0
   20.1082  -20.5012  -10.8265 C   0  0  0  0  0  0  0  0  0  0  0  0
   20.0172  -20.3886   -9.4835 C   0  0  0  0  0  0  0  0  0  0  0  0
   21.0728  -20.1305   -8.6649 C   0  0  0  0  0  0  0  0  0  0  0  0
   22.3414  -19.9665   -9.2356 C   0  0  0  0  0  0  0  0  0  0  0  0
   22.4545  -20.0765  -10.6045 C   0  0  0  0  0  0  0  0  0  0  0  0
   21.3776  -20.3380  -11.4121 C   0  0  0  0  0  0  0  0  0  0  0  0
   22.9573  -19.5567  -16.0534 C   0  0  0  0  0  0  0  0  0  0  0  0
   23.4551  -20.4953  -16.7221 O   0  0  0  0  0  0  0  0  0  0  0  0
   21.8044  -15.2564  -14.9768 N   0  0  0  0  0  0  0  0  0  0  0  0
   22.8528  -15.1878  -15.9051 C   0  0  0  0  0  0  0  0  0  0  0  0
   22.5487  -14.7725  -17.0886 O   0  0  0  0  0  0  0  0  0  0  0  0
   24.2803  -15.5573  -15.6327 C   0  0  0  0  0  0  0  0  0  0  0  0
   24.8111  -16.2938  -16.8299 C   0  0  0  0  0  0  0  0  0  0  0  0
   24.7464  -17.7928  -16.5003 C   0  0  2  0  0  0  0  0  0  0  0  0
   23.4407  -18.2334  -16.1481 N   0  0  0  0  0  0  0  0  0  0  0  0
   25.8352  -18.1991  -15.6155 C   0  0  0  0  0  0  0  0  0  0  0  0
   26.0336  -17.6874  -14.5148 O   0  0  0  0  0  0  0  0  0  0  0  0
   25.8358  -19.9187  -11.3794 N   0  0  0  0  0  0  0  0  0  0  0  0
   26.0822  -21.2454  -11.7830 C   0  0  0  0  0  0  0  0  0  0  0  0
   26.3271  -22.1139  -10.8945 O   0  0  0  0  0  0  0  0  0  0  0  0
   26.0627  -21.6857  -13.1907 C   0  0  0  0  0  0  0  0  0  0  0  0
   25.8980  -20.6649  -14.2245 C   0  0  0  0  0  0  0  0  0  0  0  0
   27.0832  -20.3213  -15.0540 C   0  0  2  0  0  0  0  0  0  0  0  0
   26.7563  -19.2530  -15.9938 N   0  0  0  0  0  0  0  0  0  0  0  0
   27.8275  -21.4337  -15.6027 C   0  0  0  0  0  0  0  0  0  0  0  0
   27.7405  -21.7436  -16.7874 O   0  0  0  0  0  0  0  0  0  0  0  0
   28.6629  -22.1449  -14.7409 O   0  0  0  0  0  0  0  0  0  0  0  0
  2  1  1  6
  2  3  1  0
  3  4  1  0
  4  5  2  0
  5  6  1  0
  7  6  1  0
  8  7  2  0
  9  8  1  0
 10 11  1  0
 10  9  2  0
 11 12  2  0
 12  4  1  0
 12  7  1  0
 13 14  2  0
 13  2  1  0
 15 16  1  0
 16 17  2  0
 18 19  1  0
 18 16  1  0
 20 19  1  1
 20 21  1  0
 21 13  1  0
 22 30  1  0
 22 20  1  0
 23 22  2  0
 24 25  1  0
 25 26  2  0
 27 28  1  0
 27 25  1  0
 29 28  1  6
 29 30  1  0
 29 31  1  0
 31 33  1  0
 32 31  2  0
M  END
$$$$
