WQQ.pdb
     RDKit          3D

 33 34  0  0  1  0  0  0  0  0999 V2000
   26.0793  -18.4849   -9.3523 N   0  0  0  0  0  0  0  0  0  0  0  0
   26.7905  -19.6974   -9.7547 C   0  0  1  0  0  0  0  0  0  0  0  0
   26.4077  -20.7593   -8.7669 C   0  0  0  0  0  0  0  0  0  0  0  0
   26.6959  -20.4211   -7.3604 C   0  0  0  0  0  0  0  0  0  0  0  0
   25.7719  -19.9200   -6.4382 C   0  0  0  0  0  0  0  0  0  0  0  0
   26.3743  -19.7084   -5.2428 N   0  0  0  0  0  0  0  0  0  0  0  0
   27.6742  -20.0613   -5.3647 C   0  0  0  0  0  0  0  0  0  0  0  0
   28.7323  -20.0671   -4.5251 C   0  0  0  0  0  0  0  0  0  0  0  0
   29.9817  -20.4781   -4.8729 C   0  0  0  0  0  0  0  0  0  0  0  0
   30.2021  -20.9248   -6.1820 C   0  0  0  0  0  0  0  0  0  0  0  0
   29.1352  -20.9253   -7.0540 C   0  0  0  0  0  0  0  0  0  0  0  0
   27.8829  -20.5075   -6.6832 C   0  0  0  0  0  0  0  0  0  0  0  0
   26.3976  -20.0762  -11.1586 C   0  0  0  0  0  0  0  0  0  0  0  0
   25.2486  -19.7862  -11.5729 O   0  0  0  0  0  0  0  0  0  0  0  0
   30.5198  -23.1914  -15.1970 N   0  0  0  0  0  0  0  0  0  0  0  0
   29.4943  -22.6077  -15.9540 C   0  0  0  0  0  0  0  0  0  0  0  0
   29.5751  -22.7425  -17.2350 O   0  0  0  0  0  0  0  0  0  0  0  0
   28.3281  -21.8471  -15.3972 C   0  0  0  0  0  0  0  0  0  0  0  0
   28.5110  -21.7298  -13.9105 C   0  0  0  0  0  0  0  0  0  0  0  0
   27.2404  -21.0710  -13.3522 C   0  0  2  0  0  0  0  0  0  0  0  0
   27.3365  -20.7500  -11.9699 N   0  0  0  0  0  0  0  0  0  0  0  0
   26.0342  -21.7762  -13.7782 C   0  0  0  0  0  0  0  0  0  0  0  0
   25.6757  -22.8484  -13.2936 O   0  0  0  0  0  0  0  0  0  0  0  0
   22.2760  -20.7599  -10.5737 N   0  0  0  0  0  0  0  0  0  0  0  0
   21.4163  -21.1524  -11.6180 C   0  0  0  0  0  0  0  0  0  0  0  0
   20.1992  -21.3764  -11.3496 O   0  0  0  0  0  0  0  0  0  0  0  0
   21.8540  -21.3102  -13.0178 C   0  0  0  0  0  0  0  0  0  0  0  0
   23.2778  -21.1530  -13.3112 C   0  0  0  0  0  0  0  0  0  0  0  0
   23.7242  -21.3682  -14.7131 C   0  0  2  0  0  0  0  0  0  0  0  0
   25.1747  -21.2356  -14.8131 N   0  0  0  0  0  0  0  0  0  0  0  0
   22.9603  -20.6956  -15.7409 C   0  0  0  0  0  0  0  0  0  0  0  0
   21.7478  -20.8552  -15.8489 O   0  0  0  0  0  0  0  0  0  0  0  0
   23.6457  -19.8444  -16.6080 O   0  0  0  0  0  0  0  0  0  0  0  0
  2  1  1  1
  2  3  1  0
  3  4  1  0
  4  5  2  0
  5  6  1  0
  7  6  1  0
  8  7  2  0
  9  8  1  0
 10 11  1  0
 10  9  2  0
 11 12  2  0
 12  4  1  0
 12  7  1  0
 13 14  2  0
 13  2  1  0
 15 16  1  0
 16 17  2  0
 18 19  1  0
 18 16  1  0
 20 19  1  1
 20 21  1  0
 21 13  1  0
 22 30  1  0
 22 20  1  0
 23 22  2  0
 24 25  1  0
 25 26  2  0
 27 28  1  0
 27 25  1  0
 29 28  1  1
 29 30  1  0
 29 31  1  0
 31 33  1  0
 32 31  2  0
M  END
$$$$
