WQQ.pdb
     RDKit          3D

 33 34  0  0  1  0  0  0  0  0999 V2000
   28.2033  -19.9942  -10.0180 N   0  0  0  0  0  0  0  0  0  0  0  0
   26.9667  -20.6951   -9.6755 C   0  0  1  0  0  0  0  0  0  0  0  0
   26.3793  -19.9671   -8.5029 C   0  0  0  0  0  0  0  0  0  0  0  0
   27.3627  -19.5457   -7.4874 C   0  0  0  0  0  0  0  0  0  0  0  0
   28.0390  -18.3219   -7.4684 C   0  0  0  0  0  0  0  0  0  0  0  0
   28.8767  -18.2689   -6.4044 N   0  0  0  0  0  0  0  0  0  0  0  0
   28.7616  -19.4338   -5.7269 C   0  0  0  0  0  0  0  0  0  0  0  0
   29.3363  -19.9374   -4.6130 C   0  0  0  0  0  0  0  0  0  0  0  0
   29.0592  -21.1661   -4.0987 C   0  0  0  0  0  0  0  0  0  0  0  0
   28.1220  -21.9737   -4.7554 C   0  0  0  0  0  0  0  0  0  0  0  0
   27.5256  -21.4780   -5.8945 C   0  0  0  0  0  0  0  0  0  0  0  0
   27.8184  -20.2359   -6.3962 C   0  0  0  0  0  0  0  0  0  0  0  0
   26.0335  -20.6892  -10.8579 C   0  0  0  0  0  0  0  0  0  0  0  0
   25.8504  -19.6195  -11.4888 O   0  0  0  0  0  0  0  0  0  0  0  0
   25.9935  -23.5710  -15.0704 N   0  0  0  0  0  0  0  0  0  0  0  0
   24.5953  -23.5946  -15.1702 C   0  0  0  0  0  0  0  0  0  0  0  0
   24.1019  -23.5682  -16.3625 O   0  0  0  0  0  0  0  0  0  0  0  0
   23.6422  -23.6448  -14.0137 C   0  0  0  0  0  0  0  0  0  0  0  0
   24.4426  -23.5934  -12.7433 C   0  0  0  0  0  0  0  0  0  0  0  0
   24.4957  -22.1219  -12.3050 C   0  0  2  0  0  0  0  0  0  0  0  0
   25.3889  -21.8914  -11.2224 N   0  0  0  0  0  0  0  0  0  0  0  0
   23.1590  -21.5453  -12.1849 C   0  0  0  0  0  0  0  0  0  0  0  0
   22.4620  -21.6673  -11.1789 O   0  0  0  0  0  0  0  0  0  0  0  0
   20.5572  -17.0027  -16.1406 N   0  0  0  0  0  0  0  0  0  0  0  0
   19.6283  -17.2771  -15.1180 C   0  0  0  0  0  0  0  0  0  0  0  0
   18.5484  -16.6165  -15.0866 O   0  0  0  0  0  0  0  0  0  0  0  0
   19.8395  -18.3030  -14.0793 C   0  0  0  0  0  0  0  0  0  0  0  0
   21.0738  -19.0850  -14.1312 C   0  0  0  0  0  0  0  0  0  0  0  0
   21.2741  -20.1332  -13.0957 C   0  0  2  0  0  0  0  0  0  0  0  0
   22.5727  -20.7780  -13.2664 N   0  0  0  0  0  0  0  0  0  0  0  0
   20.1583  -21.0225  -12.8578 C   0  0  0  0  0  0  0  0  0  0  0  0
   19.9884  -22.0351  -13.5310 O   0  0  0  0  0  0  0  0  0  0  0  0
   19.2779  -20.6989  -11.8251 O   0  0  0  0  0  0  0  0  0  0  0  0
  2  1  1  6
  2  3  1  0
  3  4  1  0
  4  5  2  0
  5  6  1  0
  7  6  1  0
  8  7  2  0
  9  8  1  0
 10 11  1  0
 10  9  2  0
 11 12  2  0
 12  4  1  0
 12  7  1  0
 13 14  2  0
 13  2  1  0
 15 16  1  0
 16 17  2  0
 18 19  1  0
 18 16  1  0
 20 19  1  1
 20 21  1  0
 21 13  1  0
 22 30  1  0
 22 20  1  0
 23 22  2  0
 24 25  1  0
 25 26  2  0
 27 28  1  0
 27 25  1  0
 29 28  1  6
 29 30  1  0
 29 31  1  0
 31 33  1  0
 32 31  2  0
M  END
$$$$
