ACD.pdb
     RDKit          3D

 20 19  0  0  1  0  0  0  0  0999 V2000
   16.3109  -10.8198  -12.1367 C   0  0  0  0  0  0  0  0  0  0  0  0
   15.4464  -10.7908  -10.8891 C   0  0  2  0  0  0  0  0  0  0  0  0
   14.2476  -11.5318  -11.1387 N   0  0  0  0  0  0  0  0  0  0  0  0
   15.1585   -9.3684  -10.6050 C   0  0  0  0  0  0  0  0  0  0  0  0
   14.5105   -8.7129  -11.4718 O   0  0  0  0  0  0  0  0  0  0  0  0
   15.5747   -8.7178   -9.4141 N   0  0  0  0  0  0  0  0  0  0  0  0
   15.1509   -7.3564   -9.1926 C   0  0  1  0  0  0  0  0  0  0  0  0
   15.1222   -7.1755   -7.6693 C   0  0  0  0  0  0  0  0  0  0  0  0
   13.7129   -8.0897   -7.0402 S   0  0  0  0  0  0  0  0  0  0  0  0
   16.1513   -6.3769   -9.6885 C   0  0  0  0  0  0  0  0  0  0  0  0
   17.3850   -6.5245   -9.5075 O   0  0  0  0  0  0  0  0  0  0  0  0
   15.7365   -5.2217  -10.3959 N   0  0  0  0  0  0  0  0  0  0  0  0
   16.6991   -4.3445  -11.0940 C   0  0  1  0  0  0  0  0  0  0  0  0
   17.3106   -5.2095  -12.1408 C   0  0  0  0  0  0  0  0  0  0  0  0
   18.1408   -4.5713  -13.1422 C   0  0  0  0  0  0  0  0  0  0  0  0
   17.9897   -4.9873  -14.3433 O   0  0  0  0  0  0  0  0  0  0  0  0
   16.0105   -3.1644  -11.6298 C   0  0  0  0  0  0  0  0  0  0  0  0
   16.6984   -1.9850  -11.8026 O   0  0  0  0  0  0  0  0  0  0  0  0
   19.0748   -3.5773  -12.9879 O   0  0  0  0  0  0  0  0  0  0  0  0
   14.7772   -3.1532  -11.9576 O   0  0  0  0  0  0  0  0  0  0  0  0
  2  1  1  6
  3  2  1  0
  4  5  2  0
  4  2  1  0
  6  4  1  0
  7  6  1  0
  7  8  1  1
  9  8  1  0
 10 12  1  0
 10  7  1  0
 11 10  2  0
 13 12  1  0
 13 14  1  6
 15 16  2  0
 15 14  1  0
 17 13  1  0
 18 17  1  0
 19 15  1  0
 20 17  2  0
M  END
$$$$
