ACD.pdb
     RDKit          3D

 20 19  0  0  1  0  0  0  0  0999 V2000
   18.8103  -11.7974  -17.6086 C   0  0  0  0  0  0  0  0  0  0  0  0
   20.3207  -11.8853  -17.7348 C   0  0  2  0  0  0  0  0  0  0  0  0
   20.7245  -13.2432  -17.5313 N   0  0  0  0  0  0  0  0  0  0  0  0
   20.8858  -10.9885  -16.7038 C   0  0  0  0  0  0  0  0  0  0  0  0
   20.2566  -10.8739  -15.6120 O   0  0  0  0  0  0  0  0  0  0  0  0
   22.0904  -10.2604  -16.8877 N   0  0  0  0  0  0  0  0  0  0  0  0
   22.5658   -9.4363  -15.8030 C   0  0  1  0  0  0  0  0  0  0  0  0
   24.0966   -9.4642  -15.9035 C   0  0  0  0  0  0  0  0  0  0  0  0
   24.6607  -11.0041  -15.1766 S   0  0  0  0  0  0  0  0  0  0  0  0
   22.1837   -8.0120  -15.9804 C   0  0  0  0  0  0  0  0  0  0  0  0
   22.1241   -7.4666  -17.1098 O   0  0  0  0  0  0  0  0  0  0  0  0
   21.8679   -7.2075  -14.8579 N   0  0  0  0  0  0  0  0  0  0  0  0
   21.5119   -5.7799  -14.9942 C   0  0  1  0  0  0  0  0  0  0  0  0
   20.0236   -5.7630  -15.0444 C   0  0  0  0  0  0  0  0  0  0  0  0
   19.3662   -4.4740  -15.1205 C   0  0  0  0  0  0  0  0  0  0  0  0
   20.0416   -3.5319  -15.6635 O   0  0  0  0  0  0  0  0  0  0  0  0
   22.0749   -5.0102  -13.8786 C   0  0  0  0  0  0  0  0  0  0  0  0
   22.2767   -3.6552  -14.0093 O   0  0  0  0  0  0  0  0  0  0  0  0
   18.1138   -4.1135  -14.6898 O   0  0  0  0  0  0  0  0  0  0  0  0
   22.4025   -5.5254  -12.7579 O   0  0  0  0  0  0  0  0  0  0  0  0
  2  1  1  1
  3  2  1  0
  4  5  2  0
  4  2  1  0
  6  4  1  0
  7  6  1  0
  7  8  1  6
  9  8  1  0
 10 12  1  0
 10  7  1  0
 11 10  2  0
 13 12  1  0
 13 14  1  1
 15 16  2  0
 15 14  1  0
 17 13  1  0
 18 17  1  0
 19 15  1  0
 20 17  2  0
M  END
$$$$
