ACD.pdb
     RDKit          3D

 20 19  0  0  1  0  0  0  0  0999 V2000
   18.4659  -13.3866  -17.0917 C   0  0  0  0  0  0  0  0  0  0  0  0
   18.6536  -11.9598  -17.5754 C   0  0  2  0  0  0  0  0  0  0  0  0
   19.4237  -11.9770  -18.7817 N   0  0  0  0  0  0  0  0  0  0  0  0
   19.3520  -11.2331  -16.4934 C   0  0  0  0  0  0  0  0  0  0  0  0
   18.7660  -11.1320  -15.3765 O   0  0  0  0  0  0  0  0  0  0  0  0
   20.6368  -10.6519  -16.6557 N   0  0  0  0  0  0  0  0  0  0  0  0
   21.2084   -9.9307  -15.5445 C   0  0  1  0  0  0  0  0  0  0  0  0
   22.6788  -10.3646  -15.4829 C   0  0  0  0  0  0  0  0  0  0  0  0
   23.4591   -9.4519  -14.1504 S   0  0  0  0  0  0  0  0  0  0  0  0
   21.2382   -8.4662  -15.7908 C   0  0  0  0  0  0  0  0  0  0  0  0
   21.7570   -7.9670  -16.8194 O   0  0  0  0  0  0  0  0  0  0  0  0
   20.6703   -7.5682  -14.8537 N   0  0  0  0  0  0  0  0  0  0  0  0
   20.7614   -6.1028  -15.0205 C   0  0  1  0  0  0  0  0  0  0  0  0
   19.4106   -5.5944  -14.6533 C   0  0  0  0  0  0  0  0  0  0  0  0
   19.1720   -4.1700  -14.7690 C   0  0  0  0  0  0  0  0  0  0  0  0
   18.1451   -3.7218  -14.1500 O   0  0  0  0  0  0  0  0  0  0  0  0
   21.8425   -5.5657  -14.1858 C   0  0  0  0  0  0  0  0  0  0  0  0
   22.7359   -4.6619  -14.7138 O   0  0  0  0  0  0  0  0  0  0  0  0
   19.8934   -3.2235  -15.4530 O   0  0  0  0  0  0  0  0  0  0  0  0
   22.0198   -5.8885  -12.9639 O   0  0  0  0  0  0  0  0  0  0  0  0
  2  1  1  1
  3  2  1  0
  4  5  2  0
  4  2  1  0
  6  4  1  0
  7  6  1  0
  7  8  1  6
  9  8  1  0
 10 12  1  0
 10  7  1  0
 11 10  2  0
 13 12  1  0
 13 14  1  1
 15 16  2  0
 15 14  1  0
 17 13  1  0
 18 17  1  0
 19 15  1  0
 20 17  2  0
M  END
$$$$
