ACD.pdb
     RDKit          3D

 20 19  0  0  1  0  0  0  0  0999 V2000
   20.6951  -13.4107  -17.1829 C   0  0  0  0  0  0  0  0  0  0  0  0
   20.6431  -12.0025  -17.7477 C   0  0  2  0  0  0  0  0  0  0  0  0
   21.4572  -11.9446  -18.9235 N   0  0  0  0  0  0  0  0  0  0  0  0
   21.1490  -11.1017  -16.6898 C   0  0  0  0  0  0  0  0  0  0  0  0
   20.5182  -11.0663  -15.5935 O   0  0  0  0  0  0  0  0  0  0  0  0
   22.2990  -10.2858  -16.8531 N   0  0  0  0  0  0  0  0  0  0  0  0
   22.6554   -9.3820  -15.7863 C   0  0  1  0  0  0  0  0  0  0  0  0
   24.1875   -9.3017  -15.8077 C   0  0  0  0  0  0  0  0  0  0  0  0
   24.8162  -10.6515  -14.8076 S   0  0  0  0  0  0  0  0  0  0  0  0
   22.1831   -7.9989  -16.0507 C   0  0  0  0  0  0  0  0  0  0  0  0
   22.3326   -7.4377  -17.1639 O   0  0  0  0  0  0  0  0  0  0  0  0
   21.5355   -7.2540  -15.0344 N   0  0  0  0  0  0  0  0  0  0  0  0
   21.0873   -5.8625  -15.2497 C   0  0  1  0  0  0  0  0  0  0  0  0
   19.6991   -5.8235  -14.7118 C   0  0  0  0  0  0  0  0  0  0  0  0
   19.0072   -4.5505  -14.7235 C   0  0  0  0  0  0  0  0  0  0  0  0
   19.2543   -3.7877  -15.7213 O   0  0  0  0  0  0  0  0  0  0  0  0
   22.0049   -4.9282  -14.5872 C   0  0  0  0  0  0  0  0  0  0  0  0
   22.6246   -5.2882  -13.4123 O   0  0  0  0  0  0  0  0  0  0  0  0
   18.1183   -4.0393  -13.8111 O   0  0  0  0  0  0  0  0  0  0  0  0
   22.2780   -3.7658  -15.0377 O   0  0  0  0  0  0  0  0  0  0  0  0
  2  1  1  1
  3  2  1  0
  4  5  2  0
  4  2  1  0
  6  4  1  0
  7  6  1  0
  7  8  1  6
  9  8  1  0
 10 12  1  0
 10  7  1  0
 11 10  2  0
 13 12  1  0
 13 14  1  1
 15 16  2  0
 15 14  1  0
 17 13  1  0
 18 17  1  0
 19 15  1  0
 20 17  2  0
M  END
$$$$
