ACD.pdb
     RDKit          3D

 20 19  0  0  1  0  0  0  0  0999 V2000
   22.6160  -12.8275  -16.2923 C   0  0  0  0  0  0  0  0  0  0  0  0
   21.2936  -12.7634  -17.0353 C   0  0  2  0  0  0  0  0  0  0  0  0
   21.3762  -13.5905  -18.2004 N   0  0  0  0  0  0  0  0  0  0  0  0
   21.0734  -11.3446  -17.3887 C   0  0  0  0  0  0  0  0  0  0  0  0
   22.0733  -10.6693  -17.7698 O   0  0  0  0  0  0  0  0  0  0  0  0
   19.8016  -10.7181  -17.3184 N   0  0  0  0  0  0  0  0  0  0  0  0
   19.6973   -9.3326  -17.7073 C   0  0  1  0  0  0  0  0  0  0  0  0
   18.3451   -9.2045  -18.4208 C   0  0  0  0  0  0  0  0  0  0  0  0
   18.5284   -9.9047  -20.0621 S   0  0  0  0  0  0  0  0  0  0  0  0
   19.6101   -8.4316  -16.5297 C   0  0  0  0  0  0  0  0  0  0  0  0
   19.0483   -8.7738  -15.4603 O   0  0  0  0  0  0  0  0  0  0  0  0
   20.1698   -7.1309  -16.5770 N   0  0  0  0  0  0  0  0  0  0  0  0
   20.2074   -6.2521  -15.3897 C   0  0  1  0  0  0  0  0  0  0  0  0
   21.6553   -5.9961  -15.1529 C   0  0  0  0  0  0  0  0  0  0  0  0
   22.0138   -5.1088  -14.0650 C   0  0  0  0  0  0  0  0  0  0  0  0
   21.0391   -4.6363  -13.3829 O   0  0  0  0  0  0  0  0  0  0  0  0
   19.4243   -5.0357  -15.6367 C   0  0  0  0  0  0  0  0  0  0  0  0
   19.4034   -4.4732  -16.8925 O   0  0  0  0  0  0  0  0  0  0  0  0
   23.2580   -4.6970  -13.6571 O   0  0  0  0  0  0  0  0  0  0  0  0
   18.7383   -4.4417  -14.7393 O   0  0  0  0  0  0  0  0  0  0  0  0
  2  1  1  6
  3  2  1  0
  4  5  2  0
  4  2  1  0
  6  4  1  0
  7  6  1  0
  7  8  1  6
  9  8  1  0
 10 12  1  0
 10  7  1  0
 11 10  2  0
 13 12  1  0
 13 14  1  6
 15 16  2  0
 15 14  1  0
 17 13  1  0
 18 17  1  0
 19 15  1  0
 20 17  2  0
M  END
$$$$
