ACD.pdb
     RDKit          3D

 20 19  0  0  1  0  0  0  0  0999 V2000
   12.5005  -11.2410  -11.0693 C   0  0  0  0  0  0  0  0  0  0  0  0
   13.9929  -11.1043  -11.3115 C   0  0  2  0  0  0  0  0  0  0  0  0
   14.6904  -11.9603  -10.4009 N   0  0  0  0  0  0  0  0  0  0  0  0
   14.3306   -9.6819  -11.0895 C   0  0  0  0  0  0  0  0  0  0  0  0
   13.8067   -8.8241  -11.8580 O   0  0  0  0  0  0  0  0  0  0  0  0
   15.2077   -9.2463  -10.0620 N   0  0  0  0  0  0  0  0  0  0  0  0
   15.5368   -7.8432   -9.9907 C   0  0  1  0  0  0  0  0  0  0  0  0
   15.5698   -7.5022   -8.4952 C   0  0  0  0  0  0  0  0  0  0  0  0
   13.8990   -7.6673   -7.8635 S   0  0  0  0  0  0  0  0  0  0  0  0
   16.9091   -7.5699  -10.4890 C   0  0  0  0  0  0  0  0  0  0  0  0
   17.9100   -8.2172  -10.0944 O   0  0  0  0  0  0  0  0  0  0  0  0
   17.1366   -6.5494  -11.4450 N   0  0  0  0  0  0  0  0  0  0  0  0
   18.4176   -6.4301  -12.1718 C   0  0  1  0  0  0  0  0  0  0  0  0
   18.5912   -7.7432  -12.8527 C   0  0  0  0  0  0  0  0  0  0  0  0
   19.6773   -7.8712  -13.8032 C   0  0  0  0  0  0  0  0  0  0  0  0
   20.6166   -7.0077  -13.7002 O   0  0  0  0  0  0  0  0  0  0  0  0
   18.3716   -5.2879  -13.0923 C   0  0  0  0  0  0  0  0  0  0  0  0
   17.1633   -4.8447  -13.5799 O   0  0  0  0  0  0  0  0  0  0  0  0
   19.8457   -8.7917  -14.8074 O   0  0  0  0  0  0  0  0  0  0  0  0
   19.4073   -4.6552  -13.4867 O   0  0  0  0  0  0  0  0  0  0  0  0
  2  1  1  1
  3  2  1  0
  4  5  2  0
  4  2  1  0
  6  4  1  0
  7  6  1  0
  7  8  1  1
  9  8  1  0
 10 12  1  0
 10  7  1  0
 11 10  2  0
 13 12  1  0
 13 14  1  6
 15 16  2  0
 15 14  1  0
 17 13  1  0
 18 17  1  0
 19 15  1  0
 20 17  2  0
M  END
$$$$
