ACD.pdb
     RDKit          3D

 20 19  0  0  1  0  0  0  0  0999 V2000
   18.5738  -12.9057  -17.2429 C   0  0  0  0  0  0  0  0  0  0  0  0
   18.8715  -11.4790  -17.6680 C   0  0  2  0  0  0  0  0  0  0  0  0
   19.5552  -11.5032  -18.9252 N   0  0  0  0  0  0  0  0  0  0  0  0
   19.7088  -10.8848  -16.6038 C   0  0  0  0  0  0  0  0  0  0  0  0
   19.1976  -10.7560  -15.4536 O   0  0  0  0  0  0  0  0  0  0  0  0
   21.0456  -10.4586  -16.8185 N   0  0  0  0  0  0  0  0  0  0  0  0
   21.7264   -9.7711  -15.7481 C   0  0  1  0  0  0  0  0  0  0  0  0
   23.1923  -10.2149  -15.8387 C   0  0  0  0  0  0  0  0  0  0  0  0
   24.0994   -9.3595  -14.5490 S   0  0  0  0  0  0  0  0  0  0  0  0
   21.7446   -8.3007  -15.9571 C   0  0  0  0  0  0  0  0  0  0  0  0
   22.0874   -7.7798  -17.0470 O   0  0  0  0  0  0  0  0  0  0  0  0
   21.3678   -7.4215  -14.9120 N   0  0  0  0  0  0  0  0  0  0  0  0
   21.3636   -5.9543  -15.0877 C   0  0  1  0  0  0  0  0  0  0  0  0
   19.9325   -5.6020  -15.3017 C   0  0  0  0  0  0  0  0  0  0  0  0
   19.5916   -4.1972  -15.4002 C   0  0  0  0  0  0  0  0  0  0  0  0
   20.5044   -3.4306  -15.8668 O   0  0  0  0  0  0  0  0  0  0  0  0
   21.9642   -5.3038  -13.9172 C   0  0  0  0  0  0  0  0  0  0  0  0
   22.4895   -6.0667  -12.8993 O   0  0  0  0  0  0  0  0  0  0  0  0
   18.4219   -3.5638  -15.0616 O   0  0  0  0  0  0  0  0  0  0  0  0
   22.0362   -4.0381  -13.7707 O   0  0  0  0  0  0  0  0  0  0  0  0
  2  1  1  1
  3  2  1  0
  4  5  2  0
  4  2  1  0
  6  4  1  0
  7  6  1  0
  7  8  1  6
  9  8  1  0
 10 12  1  0
 10  7  1  0
 11 10  2  0
 13 12  1  0
 13 14  1  1
 15 16  2  0
 15 14  1  0
 17 13  1  0
 18 17  1  0
 19 15  1  0
 20 17  2  0
M  END
$$$$
