ACD.pdb
     RDKit          3D

 20 19  0  0  1  0  0  0  0  0999 V2000
   27.4675  -19.1538  -15.8390 C   0  0  0  0  0  0  0  0  0  0  0  0
   28.0037  -20.3865  -15.1335 C   0  0  2  0  0  0  0  0  0  0  0  0
   28.3651  -21.3623  -16.1162 N   0  0  0  0  0  0  0  0  0  0  0  0
   26.9218  -20.8756  -14.2521 C   0  0  0  0  0  0  0  0  0  0  0  0
   26.1031  -21.7128  -14.7316 O   0  0  0  0  0  0  0  0  0  0  0  0
   26.7671  -20.4488  -12.9072 N   0  0  0  0  0  0  0  0  0  0  0  0
   25.6610  -20.9743  -12.1441 C   0  0  1  0  0  0  0  0  0  0  0  0
   25.9264  -20.5574  -10.6916 C   0  0  0  0  0  0  0  0  0  0  0  0
   24.5130  -21.0691   -9.7127 S   0  0  0  0  0  0  0  0  0  0  0  0
   24.3761  -20.3268  -12.5130 C   0  0  0  0  0  0  0  0  0  0  0  0
   24.2312  -19.0797  -12.5301 O   0  0  0  0  0  0  0  0  0  0  0  0
   23.2505  -21.1121  -12.8645 N   0  0  0  0  0  0  0  0  0  0  0  0
   21.9471  -20.5035  -13.2023 C   0  0  1  0  0  0  0  0  0  0  0  0
   21.4537  -21.2867  -14.3689 C   0  0  0  0  0  0  0  0  0  0  0  0
   20.1749  -20.9137  -14.9391 C   0  0  0  0  0  0  0  0  0  0  0  0
   19.6187  -19.8762  -14.4363 O   0  0  0  0  0  0  0  0  0  0  0  0
   21.0527  -20.5473  -12.0395 C   0  0  0  0  0  0  0  0  0  0  0  0
   20.9436  -21.7013  -11.2977 O   0  0  0  0  0  0  0  0  0  0  0  0
   19.4670  -21.5176  -15.9481 O   0  0  0  0  0  0  0  0  0  0  0  0
   20.3443  -19.5581  -11.6544 O   0  0  0  0  0  0  0  0  0  0  0  0
  2  1  1  6
  3  2  1  0
  4  5  2  0
  4  2  1  0
  6  4  1  0
  7  6  1  0
  7  8  1  1
  9  8  1  0
 10 12  1  0
 10  7  1  0
 11 10  2  0
 13 12  1  0
 13 14  1  6
 15 16  2  0
 15 14  1  0
 17 13  1  0
 18 17  1  0
 19 15  1  0
 20 17  2  0
M  END
$$$$
