ACD.pdb
     RDKit          3D

 20 19  0  0  1  0  0  0  0  0999 V2000
   22.9521  -12.8192  -18.4007 C   0  0  0  0  0  0  0  0  0  0  0  0
   22.8055  -11.3943  -18.9036 C   0  0  2  0  0  0  0  0  0  0  0  0
   23.7258  -11.1857  -19.9797 N   0  0  0  0  0  0  0  0  0  0  0  0
   23.0976  -10.5072  -17.7571 C   0  0  0  0  0  0  0  0  0  0  0  0
   22.3371  -10.5769  -16.7483 O   0  0  0  0  0  0  0  0  0  0  0  0
   24.1829   -9.5925  -17.7435 N   0  0  0  0  0  0  0  0  0  0  0  0
   24.3401   -8.7321  -16.5959 C   0  0  1  0  0  0  0  0  0  0  0  0
   25.8486   -8.6834  -16.3198 C   0  0  0  0  0  0  0  0  0  0  0  0
   26.2468  -10.0552  -15.2349 S   0  0  0  0  0  0  0  0  0  0  0  0
   23.9473   -7.3314  -16.8956 C   0  0  0  0  0  0  0  0  0  0  0  0
   24.2874   -6.7487  -17.9545 O   0  0  0  0  0  0  0  0  0  0  0  0
   23.1603   -6.5936  -15.9772 N   0  0  0  0  0  0  0  0  0  0  0  0
   22.7392   -5.2034  -16.2485 C   0  0  1  0  0  0  0  0  0  0  0  0
   21.5409   -4.9954  -15.3890 C   0  0  0  0  0  0  0  0  0  0  0  0
   20.2952   -5.6034  -15.8106 C   0  0  0  0  0  0  0  0  0  0  0  0
   19.5144   -5.9893  -14.8724 O   0  0  0  0  0  0  0  0  0  0  0  0
   23.8408   -4.2770  -15.9619 C   0  0  0  0  0  0  0  0  0  0  0  0
   24.7986   -4.6125  -15.0324 O   0  0  0  0  0  0  0  0  0  0  0  0
   19.8275   -5.8286  -17.0813 O   0  0  0  0  0  0  0  0  0  0  0  0
   23.9783   -3.1436  -16.5321 O   0  0  0  0  0  0  0  0  0  0  0  0
  2  1  1  1
  3  2  1  0
  4  5  2  0
  4  2  1  0
  6  4  1  0
  7  6  1  0
  7  8  1  6
  9  8  1  0
 10 12  1  0
 10  7  1  0
 11 10  2  0
 13 12  1  0
 13 14  1  1
 15 16  2  0
 15 14  1  0
 17 13  1  0
 18 17  1  0
 19 15  1  0
 20 17  2  0
M  END
$$$$
