ITG.pdb
     RDKit          3D

 20 19  0  0  1  0  0  0  0  0999 V2000
   10.4320  -16.3344   14.3217 C   0  0  0  0  0  0  0  0  0  0  0  0
    9.3631  -15.7180   15.1745 C   0  0  0  0  0  0  0  0  0  0  0  0
    9.9130  -15.2912   16.5440 C   0  0  2  0  0  0  0  0  0  0  0  0
   10.6021  -16.4798   17.1220 C   0  0  0  0  0  0  0  0  0  0  0  0
    8.7233  -14.7993   17.3214 C   0  0  2  0  0  0  0  0  0  0  0  0
    8.2030  -13.6462   16.5604 N   0  0  0  0  0  0  0  0  0  0  0  0
    9.0276  -14.2934   18.6664 C   0  0  0  0  0  0  0  0  0  0  0  0
    9.7327  -13.2595   18.8695 O   0  0  0  0  0  0  0  0  0  0  0  0
    6.9428  -13.0322   21.3408 C   0  0  0  0  0  0  0  0  0  0  0  0
    7.6342  -14.2422   21.9380 C   0  0  1  0  0  0  0  0  0  0  0  0
    6.7946  -15.3487   21.9485 O   0  0  0  0  0  0  0  0  0  0  0  0
    8.9156  -14.5179   21.1771 C   0  0  2  0  0  0  0  0  0  0  0  0
    8.5451  -14.9374   19.8400 N   0  0  0  0  0  0  0  0  0  0  0  0
    9.6249  -15.6048   21.9108 C   0  0  0  0  0  0  0  0  0  0  0  0
    9.5368  -16.7892   21.4995 O   0  0  0  0  0  0  0  0  0  0  0  0
   10.4044  -15.3594   23.0668 N   0  0  0  0  0  0  0  0  0  0  0  0
   11.0624  -16.3884   23.8346 C   0  0  0  0  0  0  0  0  0  0  0  0
   12.3695  -16.6872   23.2393 C   0  0  0  0  0  0  0  0  0  0  0  0
   12.4352  -17.2335   22.1210 O   0  0  0  0  0  0  0  0  0  0  0  0
   13.5650  -16.3799   23.8841 O   0  0  0  0  0  0  0  0  0  0  0  0
  1  2  1  0
  2  3  1  0
  3  4  1  1
  5  3  1  0
  5  6  1  6
  7  5  1  0
  7  8  2  0
 10  9  1  6
 10 12  1  0
 10 11  1  0
 12 13  1  6
 13  7  1  0
 14 12  1  0
 15 14  2  0
 16 14  1  0
 17 16  1  0
 18 20  1  0
 18 17  1  0
 19 18  2  0
M  END
$$$$
