ITG.pdb
     RDKit          3D

 20 19  0  0  1  0  0  0  0  0999 V2000
    7.9568  -12.2837   22.3219 C   0  0  0  0  0  0  0  0  0  0  0  0
    7.8212  -13.7160   21.8979 C   0  0  0  0  0  0  0  0  0  0  0  0
    8.3083  -13.9240   20.4558 C   0  0  2  0  0  0  0  0  0  0  0  0
    7.3999  -13.1356   19.5754 C   0  0  0  0  0  0  0  0  0  0  0  0
    8.2858  -15.4110   20.2324 C   0  0  2  0  0  0  0  0  0  0  0  0
    6.8983  -15.8316   20.5102 N   0  0  0  0  0  0  0  0  0  0  0  0
    9.1353  -16.1880   21.1447 C   0  0  0  0  0  0  0  0  0  0  0  0
    8.7169  -16.6502   22.2487 O   0  0  0  0  0  0  0  0  0  0  0  0
   10.5579  -19.3641   20.9335 C   0  0  0  0  0  0  0  0  0  0  0  0
   11.7777  -18.4780   21.0945 C   0  0  1  0  0  0  0  0  0  0  0  0
   12.4050  -18.2569   19.8751 O   0  0  0  0  0  0  0  0  0  0  0  0
   11.3728  -17.1783   21.7607 C   0  0  2  0  0  0  0  0  0  0  0  0
   10.4963  -16.4755   20.8448 N   0  0  0  0  0  0  0  0  0  0  0  0
   12.6284  -16.4129   22.0065 C   0  0  0  0  0  0  0  0  0  0  0  0
   12.8614  -15.3743   21.3381 O   0  0  0  0  0  0  0  0  0  0  0  0
   13.5840  -16.8090   22.9731 N   0  0  0  0  0  0  0  0  0  0  0  0
   14.7503  -16.0359   23.3246 C   0  0  0  0  0  0  0  0  0  0  0  0
   15.4677  -16.6974   24.4200 C   0  0  0  0  0  0  0  0  0  0  0  0
   15.0301  -17.7615   24.8992 O   0  0  0  0  0  0  0  0  0  0  0  0
   16.6414  -16.1761   24.9585 O   0  0  0  0  0  0  0  0  0  0  0  0
  1  2  1  0
  2  3  1  0
  3  4  1  6
  5  3  1  0
  5  6  1  1
  7  5  1  0
  7  8  2  0
 10  9  1  6
 10 12  1  0
 10 11  1  0
 12 13  1  6
 13  7  1  0
 14 12  1  0
 15 14  2  0
 16 14  1  0
 17 16  1  0
 18 20  1  0
 18 17  1  0
 19 18  2  0
M  END
$$$$
