ITG.pdb
     RDKit          3D

 20 19  0  0  1  0  0  0  0  0999 V2000
    6.9657  -10.7256   26.5671 C   0  0  0  0  0  0  0  0  0  0  0  0
    7.5484  -12.1032   26.6780 C   0  0  0  0  0  0  0  0  0  0  0  0
    6.6732  -13.1432   25.9621 C   0  0  2  0  0  0  0  0  0  0  0  0
    5.3487  -13.1371   26.6460 C   0  0  0  0  0  0  0  0  0  0  0  0
    7.4328  -14.4382   26.0480 C   0  0  2  0  0  0  0  0  0  0  0  0
    8.8513  -14.0557   26.1920 N   0  0  0  0  0  0  0  0  0  0  0  0
    7.3600  -15.2807   24.8469 C   0  0  0  0  0  0  0  0  0  0  0  0
    6.4348  -16.1258   24.6543 O   0  0  0  0  0  0  0  0  0  0  0  0
    6.9951  -14.0539   21.5337 C   0  0  0  0  0  0  0  0  0  0  0  0
    8.2302  -14.9283   21.4387 C   0  0  1  0  0  0  0  0  0  0  0  0
    9.3903  -14.1644   21.4414 O   0  0  0  0  0  0  0  0  0  0  0  0
    8.2214  -15.9386   22.5684 C   0  0  2  0  0  0  0  0  0  0  0  0
    8.3327  -15.2012   23.8114 N   0  0  0  0  0  0  0  0  0  0  0  0
    9.3986  -16.8286   22.3572 C   0  0  0  0  0  0  0  0  0  0  0  0
    9.4775  -17.5118   21.3051 O   0  0  0  0  0  0  0  0  0  0  0  0
   10.4470  -16.9406   23.3019 N   0  0  0  0  0  0  0  0  0  0  0  0
   11.6147  -17.7688   23.1232 C   0  0  0  0  0  0  0  0  0  0  0  0
   11.5123  -18.9558   23.9793 C   0  0  0  0  0  0  0  0  0  0  0  0
   10.6726  -19.8400   23.7215 O   0  0  0  0  0  0  0  0  0  0  0  0
   12.3305  -19.1404   25.0910 O   0  0  0  0  0  0  0  0  0  0  0  0
  1  2  1  0
  2  3  1  0
  3  4  1  1
  5  3  1  0
  5  6  1  6
  7  5  1  0
  7  8  2  0
 10  9  1  1
 10 12  1  0
 10 11  1  0
 12 13  1  1
 13  7  1  0
 14 12  1  0
 15 14  2  0
 16 14  1  0
 17 16  1  0
 18 20  1  0
 18 17  1  0
 19 18  2  0
M  END
$$$$
