ITG.pdb
     RDKit          3D

 20 19  0  0  1  0  0  0  0  0999 V2000
    6.6951  -11.7411   27.7440 C   0  0  0  0  0  0  0  0  0  0  0  0
    6.2154  -12.9243   26.9569 C   0  0  0  0  0  0  0  0  0  0  0  0
    7.3830  -13.6647   26.2870 C   0  0  2  0  0  0  0  0  0  0  0  0
    8.1357  -12.6536   25.4914 C   0  0  0  0  0  0  0  0  0  0  0  0
    6.7533  -14.7709   25.4860 C   0  0  2  0  0  0  0  0  0  0  0  0
    6.0690  -15.6319   26.4707 N   0  0  0  0  0  0  0  0  0  0  0  0
    7.7015  -15.6402   24.7770 C   0  0  0  0  0  0  0  0  0  0  0  0
    8.3267  -16.5851   25.3460 O   0  0  0  0  0  0  0  0  0  0  0  0
    7.1062  -17.0264   21.2489 C   0  0  0  0  0  0  0  0  0  0  0  0
    8.4976  -16.4238   21.2581 C   0  0  1  0  0  0  0  0  0  0  0  0
    8.5283  -15.2155   20.5739 O   0  0  0  0  0  0  0  0  0  0  0  0
    8.9713  -16.2699   22.6895 C   0  0  2  0  0  0  0  0  0  0  0  0
    7.9819  -15.4767   23.3915 N   0  0  0  0  0  0  0  0  0  0  0  0
   10.2874  -15.5717   22.6331 C   0  0  0  0  0  0  0  0  0  0  0  0
   10.3488  -14.3442   22.8962 O   0  0  0  0  0  0  0  0  0  0  0  0
   11.4885  -16.2387   22.2915 N   0  0  0  0  0  0  0  0  0  0  0  0
   12.7814  -15.6013   22.2323 C   0  0  0  0  0  0  0  0  0  0  0  0
   13.6850  -16.2294   23.2024 C   0  0  0  0  0  0  0  0  0  0  0  0
   13.2190  -16.8553   24.1742 O   0  0  0  0  0  0  0  0  0  0  0  0
   15.0703  -16.1546   23.0810 O   0  0  0  0  0  0  0  0  0  0  0  0
  1  2  1  0
  2  3  1  0
  3  4  1  6
  5  3  1  0
  5  6  1  1
  7  5  1  0
  7  8  2  0
 10  9  1  1
 10 12  1  0
 10 11  1  0
 12 13  1  1
 13  7  1  0
 14 12  1  0
 15 14  2  0
 16 14  1  0
 17 16  1  0
 18 20  1  0
 18 17  1  0
 19 18  2  0
M  END
$$$$
