ITG.pdb
     RDKit          3D

 20 19  0  0  1  0  0  0  0  0999 V2000
    7.3933  -11.8960   19.2852 C   0  0  0  0  0  0  0  0  0  0  0  0
    8.1015  -13.1506   18.8675 C   0  0  0  0  0  0  0  0  0  0  0  0
    8.1891  -14.1583   20.0238 C   0  0  2  0  0  0  0  0  0  0  0  0
    8.8612  -13.4591   21.1558 C   0  0  0  0  0  0  0  0  0  0  0  0
    8.9317  -15.3435   19.4712 C   0  0  2  0  0  0  0  0  0  0  0  0
    8.0818  -15.8715   18.3858 N   0  0  0  0  0  0  0  0  0  0  0  0
    9.1194  -16.4529   20.4154 C   0  0  0  0  0  0  0  0  0  0  0  0
    8.1712  -17.2077   20.7875 O   0  0  0  0  0  0  0  0  0  0  0  0
   10.6219  -19.5534   20.2826 C   0  0  0  0  0  0  0  0  0  0  0  0
   11.4125  -18.8778   21.3860 C   0  0  1  0  0  0  0  0  0  0  0  0
   12.6314  -18.4055   20.9165 O   0  0  0  0  0  0  0  0  0  0  0  0
   10.5795  -17.7690   21.9974 C   0  0  2  0  0  0  0  0  0  0  0  0
   10.3907  -16.7554   20.9785 N   0  0  0  0  0  0  0  0  0  0  0  0
   11.3548  -17.2384   23.1549 C   0  0  0  0  0  0  0  0  0  0  0  0
   11.9187  -16.1190   23.0616 O   0  0  0  0  0  0  0  0  0  0  0  0
   11.4864  -17.9489   24.3724 N   0  0  0  0  0  0  0  0  0  0  0  0
   12.1734  -17.4436   25.5360 C   0  0  0  0  0  0  0  0  0  0  0  0
   12.1078  -18.4347   26.6156 C   0  0  0  0  0  0  0  0  0  0  0  0
   11.3822  -19.4409   26.4952 O   0  0  0  0  0  0  0  0  0  0  0  0
   12.8371  -18.2963   27.7939 O   0  0  0  0  0  0  0  0  0  0  0  0
  1  2  1  0
  2  3  1  0
  3  4  1  1
  5  3  1  0
  5  6  1  6
  7  5  1  0
  7  8  2  0
 10  9  1  6
 10 12  1  0
 10 11  1  0
 12 13  1  6
 13  7  1  0
 14 12  1  0
 15 14  2  0
 16 14  1  0
 17 16  1  0
 18 20  1  0
 18 17  1  0
 19 18  2  0
M  END
$$$$
