ITG.pdb
     RDKit          3D

 20 19  0  0  1  0  0  0  0  0999 V2000
    6.1216  -11.5414   27.4284 C   0  0  0  0  0  0  0  0  0  0  0  0
    5.7595  -12.7399   26.6024 C   0  0  0  0  0  0  0  0  0  0  0  0
    7.0095  -13.5133   26.1557 C   0  0  2  0  0  0  0  0  0  0  0  0
    7.8871  -12.5413   25.4437 C   0  0  0  0  0  0  0  0  0  0  0  0
    6.5009  -14.6522   25.3154 C   0  0  2  0  0  0  0  0  0  0  0  0
    5.7291  -15.5093   26.2368 N   0  0  0  0  0  0  0  0  0  0  0  0
    7.5436  -15.5117   24.7395 C   0  0  0  0  0  0  0  0  0  0  0  0
    8.1593  -16.3919   25.4130 O   0  0  0  0  0  0  0  0  0  0  0  0
    7.3435  -16.7685   21.0545 C   0  0  0  0  0  0  0  0  0  0  0  0
    8.7579  -16.2845   21.3078 C   0  0  1  0  0  0  0  0  0  0  0  0
    8.9944  -15.0678   20.6809 O   0  0  0  0  0  0  0  0  0  0  0  0
    9.0035  -16.2029   22.8011 C   0  0  2  0  0  0  0  0  0  0  0  0
    7.9333  -15.4112   23.3747 N   0  0  0  0  0  0  0  0  0  0  0  0
   10.3268  -15.5407   22.9827 C   0  0  0  0  0  0  0  0  0  0  0  0
   10.3783  -14.2969   23.1558 O   0  0  0  0  0  0  0  0  0  0  0  0
   11.5459  -16.2603   22.9688 N   0  0  0  0  0  0  0  0  0  0  0  0
   12.8381  -15.6716   23.2241 C   0  0  0  0  0  0  0  0  0  0  0  0
   13.8858  -16.6796   23.0284 C   0  0  0  0  0  0  0  0  0  0  0  0
   13.5769  -17.8527   22.7423 O   0  0  0  0  0  0  0  0  0  0  0  0
   15.2392  -16.3752   23.1511 O   0  0  0  0  0  0  0  0  0  0  0  0
  1  2  1  0
  2  3  1  0
  3  4  1  6
  5  3  1  0
  5  6  1  1
  7  5  1  0
  7  8  2  0
 10  9  1  1
 10 12  1  0
 10 11  1  0
 12 13  1  1
 13  7  1  0
 14 12  1  0
 15 14  2  0
 16 14  1  0
 17 16  1  0
 18 20  1  0
 18 17  1  0
 19 18  2  0
M  END
$$$$
