ITG.pdb
     RDKit          3D

 20 19  0  0  1  0  0  0  0  0999 V2000
   -2.1166  -19.8847   22.2740 C   0  0  0  0  0  0  0  0  0  0  0  0
   -0.7767  -19.9045   21.6000 C   0  0  0  0  0  0  0  0  0  0  0  0
    0.3464  -20.2441   22.5916 C   0  0  2  0  0  0  0  0  0  0  0  0
    0.6087  -19.0103   23.3859 C   0  0  0  0  0  0  0  0  0  0  0  0
    1.4977  -20.7211   21.7499 C   0  0  2  0  0  0  0  0  0  0  0  0
    1.0412  -21.9828   21.1342 N   0  0  0  0  0  0  0  0  0  0  0  0
    2.7172  -21.0532   22.4983 C   0  0  0  0  0  0  0  0  0  0  0  0
    2.8249  -22.0966   23.2104 O   0  0  0  0  0  0  0  0  0  0  0  0
    5.7925  -22.1934   21.6378 C   0  0  0  0  0  0  0  0  0  0  0  0
    6.1581  -20.8844   22.3101 C   0  0  1  0  0  0  0  0  0  0  0  0
    6.4159  -19.8914   21.3738 O   0  0  0  0  0  0  0  0  0  0  0  0
    5.0522  -20.4814   23.2649 C   0  0  2  0  0  0  0  0  0  0  0  0
    3.8683  -20.2170   22.4714 N   0  0  0  0  0  0  0  0  0  0  0  0
    5.5198  -19.2535   23.9692 C   0  0  0  0  0  0  0  0  0  0  0  0
    5.2820  -18.1248   23.4700 O   0  0  0  0  0  0  0  0  0  0  0  0
    6.2301  -19.3021   25.1929 N   0  0  0  0  0  0  0  0  0  0  0  0
    6.5863  -18.1403   25.9706 C   0  0  0  0  0  0  0  0  0  0  0  0
    8.0310  -17.9052   25.8710 C   0  0  0  0  0  0  0  0  0  0  0  0
    8.5740  -17.0458   26.5921 O   0  0  0  0  0  0  0  0  0  0  0  0
    8.8382  -18.6162   24.9867 O   0  0  0  0  0  0  0  0  0  0  0  0
  1  2  1  0
  2  3  1  0
  3  4  1  6
  5  3  1  0
  5  6  1  1
  7  5  1  0
  7  8  2  0
 10  9  1  6
 10 12  1  0
 10 11  1  0
 12 13  1  6
 13  7  1  0
 14 12  1  0
 15 14  2  0
 16 14  1  0
 17 16  1  0
 18 20  1  0
 18 17  1  0
 19 18  2  0
M  END
$$$$
