ITG.pdb
     RDKit          3D

 20 19  0  0  1  0  0  0  0  0999 V2000
    6.3434  -11.5887   27.5204 C   0  0  0  0  0  0  0  0  0  0  0  0
    5.9802  -12.8194   26.7437 C   0  0  0  0  0  0  0  0  0  0  0  0
    7.2311  -13.5739   26.2684 C   0  0  2  0  0  0  0  0  0  0  0  0
    8.0867  -12.5843   25.5538 C   0  0  0  0  0  0  0  0  0  0  0  0
    6.7216  -14.7087   25.4234 C   0  0  2  0  0  0  0  0  0  0  0  0
    5.9501  -15.5698   26.3414 N   0  0  0  0  0  0  0  0  0  0  0  0
    7.7635  -15.5660   24.8428 C   0  0  0  0  0  0  0  0  0  0  0  0
    8.3881  -16.4410   25.5149 O   0  0  0  0  0  0  0  0  0  0  0  0
    7.6216  -16.9267   21.1874 C   0  0  0  0  0  0  0  0  0  0  0  0
    9.0001  -16.3397   21.4202 C   0  0  1  0  0  0  0  0  0  0  0  0
    9.1457  -15.1209   20.7701 O   0  0  0  0  0  0  0  0  0  0  0  0
    9.2501  -16.2140   22.9098 C   0  0  2  0  0  0  0  0  0  0  0  0
    8.1424  -15.4690   23.4747 N   0  0  0  0  0  0  0  0  0  0  0  0
   10.5370  -15.4784   23.0683 C   0  0  0  0  0  0  0  0  0  0  0  0
   10.5198  -14.2422   23.2949 O   0  0  0  0  0  0  0  0  0  0  0  0
   11.7961  -16.1187   22.9738 N   0  0  0  0  0  0  0  0  0  0  0  0
   13.0627  -15.4318   23.0461 C   0  0  0  0  0  0  0  0  0  0  0  0
   14.1554  -16.3931   22.8613 C   0  0  0  0  0  0  0  0  0  0  0  0
   14.2862  -16.9869   21.7734 O   0  0  0  0  0  0  0  0  0  0  0  0
   15.0719  -16.6762   23.8709 O   0  0  0  0  0  0  0  0  0  0  0  0
  1  2  1  0
  2  3  1  0
  3  4  1  6
  5  3  1  0
  5  6  1  1
  7  5  1  0
  7  8  2  0
 10  9  1  1
 10 12  1  0
 10 11  1  0
 12 13  1  1
 13  7  1  0
 14 12  1  0
 15 14  2  0
 16 14  1  0
 17 16  1  0
 18 20  1  0
 18 17  1  0
 19 18  2  0
M  END
$$$$
