ITG.pdb
     RDKit          3D

 20 19  0  0  1  0  0  0  0  0999 V2000
    6.3939  -11.5964   27.3318 C   0  0  0  0  0  0  0  0  0  0  0  0
    6.0225  -12.8667   26.6261 C   0  0  0  0  0  0  0  0  0  0  0  0
    7.2684  -13.6481   26.1821 C   0  0  2  0  0  0  0  0  0  0  0  0
    8.0809  -12.7236   25.3412 C   0  0  0  0  0  0  0  0  0  0  0  0
    6.7484  -14.8686   25.4737 C   0  0  2  0  0  0  0  0  0  0  0  0
    5.9866  -15.6210   26.4900 N   0  0  0  0  0  0  0  0  0  0  0  0
    7.7830  -15.7870   24.9803 C   0  0  0  0  0  0  0  0  0  0  0  0
    8.4356  -16.5619   25.7425 O   0  0  0  0  0  0  0  0  0  0  0  0
    7.6877  -18.0222   21.7820 C   0  0  0  0  0  0  0  0  0  0  0  0
    8.9008  -17.1149   21.7158 C   0  0  1  0  0  0  0  0  0  0  0  0
    8.6894  -16.0529   20.8459 O   0  0  0  0  0  0  0  0  0  0  0  0
    9.2496  -16.6362   23.1109 C   0  0  2  0  0  0  0  0  0  0  0  0
    8.1225  -15.8675   23.6007 N   0  0  0  0  0  0  0  0  0  0  0  0
   10.4698  -15.7894   22.9813 C   0  0  0  0  0  0  0  0  0  0  0  0
   10.3496  -14.5435   22.8676 O   0  0  0  0  0  0  0  0  0  0  0  0
   11.7768  -16.3334   22.9805 N   0  0  0  0  0  0  0  0  0  0  0  0
   12.9815  -15.5491   22.8587 C   0  0  0  0  0  0  0  0  0  0  0  0
   14.1521  -16.4308   22.9270 C   0  0  0  0  0  0  0  0  0  0  0  0
   14.0046  -17.6461   23.1606 O   0  0  0  0  0  0  0  0  0  0  0  0
   15.4482  -15.9576   22.7380 O   0  0  0  0  0  0  0  0  0  0  0  0
  1  2  1  0
  2  3  1  0
  3  4  1  6
  5  3  1  0
  5  6  1  1
  7  5  1  0
  7  8  2  0
 10  9  1  1
 10 12  1  0
 10 11  1  0
 12 13  1  6
 13  7  1  0
 14 12  1  0
 15 14  2  0
 16 14  1  0
 17 16  1  0
 18 20  1  0
 18 17  1  0
 19 18  2  0
M  END
$$$$
