ITG.pdb
     RDKit          3D

 20 19  0  0  1  0  0  0  0  0999 V2000
    6.6380  -11.5928   27.4521 C   0  0  0  0  0  0  0  0  0  0  0  0
    5.9918  -12.7817   26.8051 C   0  0  0  0  0  0  0  0  0  0  0  0
    7.0169  -13.6306   26.0378 C   0  0  2  0  0  0  0  0  0  0  0  0
    7.7184  -12.7130   25.0955 C   0  0  0  0  0  0  0  0  0  0  0  0
    6.2245  -14.7319   25.3890 C   0  0  2  0  0  0  0  0  0  0  0  0
    5.6297  -15.4990   26.5012 N   0  0  0  0  0  0  0  0  0  0  0  0
    7.0191  -15.6931   24.6129 C   0  0  0  0  0  0  0  0  0  0  0  0
    6.6487  -16.8889   24.4125 O   0  0  0  0  0  0  0  0  0  0  0  0
    6.7641  -16.4876   22.0186 C   0  0  0  0  0  0  0  0  0  0  0  0
    8.2236  -16.1518   21.7814 C   0  0  1  0  0  0  0  0  0  0  0  0
    8.3624  -14.9199   21.1550 O   0  0  0  0  0  0  0  0  0  0  0  0
    8.9726  -16.1988   23.0982 C   0  0  2  0  0  0  0  0  0  0  0  0
    8.2680  -15.3402   24.0295 N   0  0  0  0  0  0  0  0  0  0  0  0
   10.3487  -15.6933   22.8272 C   0  0  0  0  0  0  0  0  0  0  0  0
   10.5742  -14.4575   22.8707 O   0  0  0  0  0  0  0  0  0  0  0  0
   11.4288  -16.5550   22.5187 N   0  0  0  0  0  0  0  0  0  0  0  0
   12.7947  -16.1184   22.3601 C   0  0  0  0  0  0  0  0  0  0  0  0
   13.6606  -17.2815   22.1369 C   0  0  0  0  0  0  0  0  0  0  0  0
   13.3508  -18.1348   21.2830 O   0  0  0  0  0  0  0  0  0  0  0  0
   14.8386  -17.4766   22.8535 O   0  0  0  0  0  0  0  0  0  0  0  0
  1  2  1  0
  2  3  1  0
  3  4  1  6
  5  3  1  0
  5  6  1  1
  7  5  1  0
  7  8  2  0
 10  9  1  1
 10 12  1  0
 10 11  1  0
 12 13  1  1
 13  7  1  0
 14 12  1  0
 15 14  2  0
 16 14  1  0
 17 16  1  0
 18 20  1  0
 18 17  1  0
 19 18  2  0
M  END
$$$$
