ITG.pdb
     RDKit          3D

 20 19  0  0  1  0  0  0  0  0999 V2000
    6.1014  -11.8565   26.2299 C   0  0  0  0  0  0  0  0  0  0  0  0
    5.8889  -13.2599   25.7450 C   0  0  0  0  0  0  0  0  0  0  0  0
    6.6823  -14.2716   26.5858 C   0  0  2  0  0  0  0  0  0  0  0  0
    8.1170  -13.8774   26.4950 C   0  0  0  0  0  0  0  0  0  0  0  0
    6.3510  -15.6216   26.0120 C   0  0  2  0  0  0  0  0  0  0  0  0
    6.9914  -16.6015   26.9114 N   0  0  0  0  0  0  0  0  0  0  0  0
    6.9013  -15.8788   24.6746 C   0  0  0  0  0  0  0  0  0  0  0  0
    6.1975  -16.3103   23.7123 O   0  0  0  0  0  0  0  0  0  0  0  0
    6.7166  -15.3216   22.0777 C   0  0  0  0  0  0  0  0  0  0  0  0
    8.2214  -15.1407   22.0361 C   0  0  1  0  0  0  0  0  0  0  0  0
    8.5734  -13.8057   22.1883 O   0  0  0  0  0  0  0  0  0  0  0  0
    8.8641  -16.0143   23.0949 C   0  0  2  0  0  0  0  0  0  0  0  0
    8.2734  -15.6574   24.3696 N   0  0  0  0  0  0  0  0  0  0  0  0
   10.3243  -15.7148   23.0697 C   0  0  0  0  0  0  0  0  0  0  0  0
   10.7762  -14.7762   23.7730 O   0  0  0  0  0  0  0  0  0  0  0  0
   11.2384  -16.4508   22.2777 N   0  0  0  0  0  0  0  0  0  0  0  0
   12.6690  -16.4338   22.4634 C   0  0  0  0  0  0  0  0  0  0  0  0
   13.3014  -17.3418   21.5001 C   0  0  0  0  0  0  0  0  0  0  0  0
   12.5971  -18.0751   20.7793 O   0  0  0  0  0  0  0  0  0  0  0  0
   14.6840  -17.4208   21.3538 O   0  0  0  0  0  0  0  0  0  0  0  0
  1  2  1  0
  2  3  1  0
  3  4  1  6
  5  3  1  0
  5  6  1  1
  7  5  1  0
  7  8  2  0
 10  9  1  1
 10 12  1  0
 10 11  1  0
 12 13  1  1
 13  7  1  0
 14 12  1  0
 15 14  2  0
 16 14  1  0
 17 16  1  0
 18 20  1  0
 18 17  1  0
 19 18  2  0
M  END
$$$$
