ITG.pdb
     RDKit          3D

 20 19  0  0  1  0  0  0  0  0999 V2000
    6.4685  -11.3465   27.2470 C   0  0  0  0  0  0  0  0  0  0  0  0
    5.9777  -12.5405   26.4833 C   0  0  0  0  0  0  0  0  0  0  0  0
    7.1276  -13.4995   26.1395 C   0  0  2  0  0  0  0  0  0  0  0  0
    8.1914  -12.6825   25.4894 C   0  0  0  0  0  0  0  0  0  0  0  0
    6.5182  -14.5659   25.2717 C   0  0  2  0  0  0  0  0  0  0  0  0
    5.5851  -15.3025   26.1468 N   0  0  0  0  0  0  0  0  0  0  0  0
    7.4659  -15.5638   24.7581 C   0  0  0  0  0  0  0  0  0  0  0  0
    7.8577  -16.5567   25.4423 O   0  0  0  0  0  0  0  0  0  0  0  0
    7.4048  -16.8553   21.1329 C   0  0  0  0  0  0  0  0  0  0  0  0
    8.8438  -16.4980   21.4502 C   0  0  1  0  0  0  0  0  0  0  0  0
    9.2263  -15.3276   20.8076 O   0  0  0  0  0  0  0  0  0  0  0  0
    9.0191  -16.3962   22.9522 C   0  0  2  0  0  0  0  0  0  0  0  0
    8.0101  -15.4800   23.4460 N   0  0  0  0  0  0  0  0  0  0  0  0
   10.3937  -15.8699   23.1890 C   0  0  0  0  0  0  0  0  0  0  0  0
   10.5825  -14.6280   23.2315 O   0  0  0  0  0  0  0  0  0  0  0  0
   11.5124  -16.7183   23.3708 N   0  0  0  0  0  0  0  0  0  0  0  0
   12.8170  -16.2625   23.7850 C   0  0  0  0  0  0  0  0  0  0  0  0
   13.6655  -16.0605   22.6054 C   0  0  0  0  0  0  0  0  0  0  0  0
   13.2201  -16.3056   21.4675 O   0  0  0  0  0  0  0  0  0  0  0  0
   14.9749  -15.5968   22.7051 O   0  0  0  0  0  0  0  0  0  0  0  0
  1  2  1  0
  2  3  1  0
  3  4  1  6
  5  3  1  0
  5  6  1  1
  7  5  1  0
  7  8  2  0
 10  9  1  1
 10 12  1  0
 10 11  1  0
 12 13  1  6
 13  7  1  0
 14 12  1  0
 15 14  2  0
 16 14  1  0
 17 16  1  0
 18 20  1  0
 18 17  1  0
 19 18  2  0
M  END
$$$$
