ITG.pdb
     RDKit          3D

 20 19  0  0  1  0  0  0  0  0999 V2000
    7.8077  -11.2822   25.8251 C   0  0  0  0  0  0  0  0  0  0  0  0
    7.9248  -12.7775   25.8347 C   0  0  0  0  0  0  0  0  0  0  0  0
    6.5473  -13.4486   25.9453 C   0  0  2  0  0  0  0  0  0  0  0  0
    5.9717  -13.0390   27.2578 C   0  0  0  0  0  0  0  0  0  0  0  0
    6.8025  -14.9225   25.7894 C   0  0  2  0  0  0  0  0  0  0  0  0
    8.0239  -15.1972   26.5717 N   0  0  0  0  0  0  0  0  0  0  0  0
    7.0927  -15.3598   24.4176 C   0  0  0  0  0  0  0  0  0  0  0  0
    6.1861  -15.5774   23.5584 O   0  0  0  0  0  0  0  0  0  0  0  0
    6.7165  -14.6739   21.9221 C   0  0  0  0  0  0  0  0  0  0  0  0
    8.2067  -14.8367   21.6944 C   0  0  1  0  0  0  0  0  0  0  0  0
    8.8812  -13.6390   21.8944 O   0  0  0  0  0  0  0  0  0  0  0  0
    8.7374  -15.9359   22.5928 C   0  0  2  0  0  0  0  0  0  0  0  0
    8.4236  -15.5691   23.9596 N   0  0  0  0  0  0  0  0  0  0  0  0
   10.2104  -15.9975   22.3712 C   0  0  0  0  0  0  0  0  0  0  0  0
   10.6534  -16.2870   21.2311 O   0  0  0  0  0  0  0  0  0  0  0  0
   11.1463  -15.7408   23.4019 N   0  0  0  0  0  0  0  0  0  0  0  0
   12.5777  -15.7819   23.2262 C   0  0  0  0  0  0  0  0  0  0  0  0
   13.0802  -17.1119   23.5880 C   0  0  0  0  0  0  0  0  0  0  0  0
   12.2891  -18.0684   23.6990 O   0  0  0  0  0  0  0  0  0  0  0  0
   14.4319  -17.3561   23.8174 O   0  0  0  0  0  0  0  0  0  0  0  0
  1  2  1  0
  2  3  1  0
  3  4  1  1
  5  3  1  0
  5  6  1  1
  7  5  1  0
  7  8  2  0
 10  9  1  1
 10 12  1  0
 10 11  1  0
 12 13  1  1
 13  7  1  0
 14 12  1  0
 15 14  2  0
 16 14  1  0
 17 16  1  0
 18 20  1  0
 18 17  1  0
 19 18  2  0
M  END
$$$$
