PID.pdb
     RDKit          3D

 24 24  0  0  1  0  0  0  0  0999 V2000
    6.9539  -14.6885   20.6944 N   0  0  0  0  0  0  0  0  0  0  0  0
    6.7820  -14.3298   19.2784 C   0  0  0  0  0  0  0  0  0  0  0  0
    7.5229  -13.0238   19.0771 C   0  0  0  0  0  0  0  0  0  0  0  0
    8.0821  -12.7251   20.4752 C   0  0  0  0  0  0  0  0  0  0  0  0
    8.2546  -14.1587   20.9750 C   0  0  1  0  0  0  0  0  0  0  0  0
    8.6614  -14.2271   22.3692 C   0  0  0  0  0  0  0  0  0  0  0  0
    9.9110  -14.1038   22.6094 O   0  0  0  0  0  0  0  0  0  0  0  0
    6.0304  -11.7096   26.1493 C   0  0  0  0  0  0  0  0  0  0  0  0
    7.1094  -12.3559   25.2957 C   0  0  0  0  0  0  0  0  0  0  0  0
    7.4410  -13.7257   25.7889 C   0  0  2  0  0  0  0  0  0  0  0  0
    7.8518  -13.7591   27.2241 C   0  0  0  0  0  0  0  0  0  0  0  0
    8.3780  -14.4447   24.8539 C   0  0  2  0  0  0  0  0  0  0  0  0
    7.8289  -14.4146   23.4884 N   0  0  0  0  0  0  0  0  0  0  0  0
    8.7082  -15.8113   25.2623 C   0  0  0  0  0  0  0  0  0  0  0  0
    7.8430  -16.6796   25.5254 O   0  0  0  0  0  0  0  0  0  0  0  0
   10.0669  -16.1910   25.3715 N   0  0  0  0  0  0  0  0  0  0  0  0
   10.4821  -17.5742   25.7036 C   0  0  1  0  0  0  0  0  0  0  0  0
   11.8643  -17.7391   25.1573 C   0  0  0  0  0  0  0  0  0  0  0  0
   12.5252  -19.0057   25.4523 C   0  0  0  0  0  0  0  0  0  0  0  0
   12.0371  -19.9222   26.1183 O   0  0  0  0  0  0  0  0  0  0  0  0
   10.3838  -17.7763   27.1534 C   0  0  0  0  0  0  0  0  0  0  0  0
    9.9875  -18.8875   27.5899 O   0  0  0  0  0  0  0  0  0  0  0  0
   13.8217  -19.1979   24.9370 O   0  0  0  0  0  0  0  0  0  0  0  0
   10.7066  -16.8049   28.0642 O   0  0  0  0  0  0  0  0  0  0  0  0
  1  2  1  0
  1  5  1  0
  2  3  1  0
  4  3  1  0
  5  4  1  0
  5  6  1  1
  6 13  1  0
  7  6  2  0
  8  9  1  0
  9 10  1  0
 10 11  1  1
 10 12  1  0
 12 13  1  6
 14 12  1  0
 14 16  1  0
 15 14  2  0
 17 16  1  0
 17 21  1  0
 17 18  1  1
 19 18  1  0
 20 19  2  0
 21 22  2  0
 21 24  1  0
 23 19  1  0
M  END
$$$$
