PID.pdb
     RDKit          3D

 24 24  0  0  1  0  0  0  0  0999 V2000
    6.8923  -14.5716   20.5926 N   0  0  0  0  0  0  0  0  0  0  0  0
    6.7954  -14.0999   19.2029 C   0  0  0  0  0  0  0  0  0  0  0  0
    7.6148  -12.8279   19.1269 C   0  0  0  0  0  0  0  0  0  0  0  0
    8.1352  -12.6664   20.5621 C   0  0  0  0  0  0  0  0  0  0  0  0
    8.2086  -14.1406   20.9571 C   0  0  1  0  0  0  0  0  0  0  0  0
    8.5569  -14.3353   22.3553 C   0  0  0  0  0  0  0  0  0  0  0  0
    9.7922  -14.5346   22.6168 O   0  0  0  0  0  0  0  0  0  0  0  0
    6.0243  -11.5103   26.0656 C   0  0  0  0  0  0  0  0  0  0  0  0
    7.0453  -12.2513   25.2177 C   0  0  0  0  0  0  0  0  0  0  0  0
    7.3010  -13.6215   25.7534 C   0  0  2  0  0  0  0  0  0  0  0  0
    7.7212  -13.6322   27.1863 C   0  0  0  0  0  0  0  0  0  0  0  0
    8.1869  -14.4237   24.8365 C   0  0  2  0  0  0  0  0  0  0  0  0
    7.6814  -14.3286   23.4572 N   0  0  0  0  0  0  0  0  0  0  0  0
    8.3676  -15.8195   25.2398 C   0  0  0  0  0  0  0  0  0  0  0  0
    7.4221  -16.6373   25.3331 O   0  0  0  0  0  0  0  0  0  0  0  0
    9.6676  -16.2885   25.5436 N   0  0  0  0  0  0  0  0  0  0  0  0
    9.9329  -17.6878   25.9527 C   0  0  1  0  0  0  0  0  0  0  0  0
   11.0263  -18.1845   25.0617 C   0  0  0  0  0  0  0  0  0  0  0  0
   11.5782  -19.4943   25.3902 C   0  0  0  0  0  0  0  0  0  0  0  0
   10.9169  -20.4753   25.7395 O   0  0  0  0  0  0  0  0  0  0  0  0
   10.2637  -17.7220   27.3816 C   0  0  0  0  0  0  0  0  0  0  0  0
   10.3929  -18.8356   27.9523 O   0  0  0  0  0  0  0  0  0  0  0  0
   12.9749  -19.6518   25.3019 O   0  0  0  0  0  0  0  0  0  0  0  0
   10.4414  -16.5896   28.1322 O   0  0  0  0  0  0  0  0  0  0  0  0
  1  2  1  0
  1  5  1  0
  2  3  1  0
  4  3  1  0
  5  4  1  0
  5  6  1  1
  6 13  1  0
  7  6  2  0
  8  9  1  0
  9 10  1  0
 10 11  1  1
 10 12  1  0
 12 13  1  6
 14 12  1  0
 14 16  1  0
 15 14  2  0
 17 16  1  0
 17 21  1  0
 17 18  1  6
 19 18  1  0
 20 19  2  0
 21 22  2  0
 21 24  1  0
 23 19  1  0
M  END
$$$$
