PID.pdb
     RDKit          3D

 24 24  0  0  1  0  0  0  0  0999 V2000
    7.0806  -14.8588   20.1913 N   0  0  0  0  0  0  0  0  0  0  0  0
    6.9039  -14.4043   18.8036 C   0  0  0  0  0  0  0  0  0  0  0  0
    7.4464  -12.9911   18.7462 C   0  0  0  0  0  0  0  0  0  0  0  0
    7.9077  -12.7395   20.1886 C   0  0  0  0  0  0  0  0  0  0  0  0
    8.2769  -14.1711   20.5746 C   0  0  1  0  0  0  0  0  0  0  0  0
    8.6430  -14.3031   21.9756 C   0  0  0  0  0  0  0  0  0  0  0  0
    9.8807  -14.1604   22.2615 O   0  0  0  0  0  0  0  0  0  0  0  0
    6.3208  -11.6480   26.1282 C   0  0  0  0  0  0  0  0  0  0  0  0
    7.3915  -12.3299   25.2921 C   0  0  0  0  0  0  0  0  0  0  0  0
    7.2193  -13.8131   25.2979 C   0  0  2  0  0  0  0  0  0  0  0  0
    7.0598  -14.3891   26.6663 C   0  0  0  0  0  0  0  0  0  0  0  0
    8.2564  -14.4995   24.4480 C   0  0  2  0  0  0  0  0  0  0  0  0
    7.7823  -14.5716   23.0563 N   0  0  0  0  0  0  0  0  0  0  0  0
    8.6632  -15.8177   24.9384 C   0  0  0  0  0  0  0  0  0  0  0  0
    7.9123  -16.8212   24.9199 O   0  0  0  0  0  0  0  0  0  0  0  0
    9.9662  -15.9880   25.4633 N   0  0  0  0  0  0  0  0  0  0  0  0
   10.4748  -17.3035   25.9181 C   0  0  1  0  0  0  0  0  0  0  0  0
   11.9357  -17.3205   25.5995 C   0  0  0  0  0  0  0  0  0  0  0  0
   12.2890  -17.1594   24.1934 C   0  0  0  0  0  0  0  0  0  0  0  0
   11.8680  -17.8624   23.2713 O   0  0  0  0  0  0  0  0  0  0  0  0
   10.1712  -17.4758   27.3430 C   0  0  0  0  0  0  0  0  0  0  0  0
    9.8096  -16.4763   28.0159 O   0  0  0  0  0  0  0  0  0  0  0  0
   13.1801  -16.1204   23.8620 O   0  0  0  0  0  0  0  0  0  0  0  0
   10.2622  -18.6839   27.9830 O   0  0  0  0  0  0  0  0  0  0  0  0
  1  2  1  0
  1  5  1  0
  2  3  1  0
  4  3  1  0
  5  4  1  0
  5  6  1  1
  6 13  1  0
  7  6  2  0
  8  9  1  0
  9 10  1  0
 10 11  1  1
 10 12  1  0
 12 13  1  6
 14 12  1  0
 14 16  1  0
 15 14  2  0
 17 16  1  0
 17 21  1  0
 17 18  1  1
 19 18  1  0
 20 19  2  0
 21 22  2  0
 21 24  1  0
 23 19  1  0
M  END
$$$$
