PID.pdb
     RDKit          3D

 24 24  0  0  1  0  0  0  0  0999 V2000
    7.0518  -15.0489   20.4739 N   0  0  0  0  0  0  0  0  0  0  0  0
    6.8280  -14.7150   19.0590 C   0  0  0  0  0  0  0  0  0  0  0  0
    7.4236  -13.3383   18.8472 C   0  0  0  0  0  0  0  0  0  0  0  0
    7.9624  -12.9774   20.2386 C   0  0  0  0  0  0  0  0  0  0  0  0
    8.2916  -14.3829   20.7394 C   0  0  1  0  0  0  0  0  0  0  0  0
    8.7179  -14.4032   22.1293 C   0  0  0  0  0  0  0  0  0  0  0  0
    9.9782  -14.4015   22.3434 O   0  0  0  0  0  0  0  0  0  0  0  0
    7.4293  -11.8910   27.4555 C   0  0  0  0  0  0  0  0  0  0  0  0
    8.2376  -12.9450   26.7166 C   0  0  0  0  0  0  0  0  0  0  0  0
    7.6300  -13.2607   25.3897 C   0  0  2  0  0  0  0  0  0  0  0  0
    6.1738  -13.5832   25.4627 C   0  0  0  0  0  0  0  0  0  0  0  0
    8.4536  -14.2610   24.6215 C   0  0  2  0  0  0  0  0  0  0  0  0
    7.8938  -14.4245   23.2699 N   0  0  0  0  0  0  0  0  0  0  0  0
    8.6114  -15.5541   25.2899 C   0  0  0  0  0  0  0  0  0  0  0  0
    7.6574  -16.3374   25.5084 O   0  0  0  0  0  0  0  0  0  0  0  0
    9.8980  -15.9583   25.7182 N   0  0  0  0  0  0  0  0  0  0  0  0
   10.1627  -17.3031   26.2816 C   0  0  1  0  0  0  0  0  0  0  0  0
   11.4934  -17.7267   25.7469 C   0  0  0  0  0  0  0  0  0  0  0  0
   11.5556  -17.9918   24.3137 C   0  0  0  0  0  0  0  0  0  0  0  0
   10.5985  -18.3303   23.6130 O   0  0  0  0  0  0  0  0  0  0  0  0
   10.0997  -17.2376   27.7458 C   0  0  0  0  0  0  0  0  0  0  0  0
   10.0252  -18.3079   28.4026 O   0  0  0  0  0  0  0  0  0  0  0  0
   12.8053  -17.8505   23.6802 O   0  0  0  0  0  0  0  0  0  0  0  0
   10.1191  -16.0565   28.4400 O   0  0  0  0  0  0  0  0  0  0  0  0
  1  2  1  0
  1  5  1  0
  2  3  1  0
  4  3  1  0
  5  4  1  0
  5  6  1  1
  6 13  1  0
  7  6  2  0
  8  9  1  0
  9 10  1  0
 10 11  1  1
 10 12  1  0
 12 13  1  6
 14 12  1  0
 14 16  1  0
 15 14  2  0
 17 16  1  0
 17 21  1  0
 17 18  1  1
 19 18  1  0
 20 19  2  0
 21 22  2  0
 21 24  1  0
 23 19  1  0
M  END
$$$$
