PID.pdb
     RDKit          3D

 24 24  0  0  1  0  0  0  0  0999 V2000
    7.0791  -14.8562   20.7066 N   0  0  0  0  0  0  0  0  0  0  0  0
    6.8868  -14.4479   19.3067 C   0  0  0  0  0  0  0  0  0  0  0  0
    7.5538  -13.0954   19.1623 C   0  0  0  0  0  0  0  0  0  0  0  0
    8.0962  -12.8257   20.5728 C   0  0  0  0  0  0  0  0  0  0  0  0
    8.3485  -14.2674   21.0117 C   0  0  1  0  0  0  0  0  0  0  0  0
    8.7593  -14.3720   22.4025 C   0  0  0  0  0  0  0  0  0  0  0  0
   10.0113  -14.2716   22.6405 O   0  0  0  0  0  0  0  0  0  0  0  0
    5.9339  -11.8395   25.9668 C   0  0  0  0  0  0  0  0  0  0  0  0
    7.0562  -12.4781   25.1650 C   0  0  0  0  0  0  0  0  0  0  0  0
    7.4887  -13.7708   25.7747 C   0  0  2  0  0  0  0  0  0  0  0  0
    7.9197  -13.6433   27.1987 C   0  0  0  0  0  0  0  0  0  0  0  0
    8.4610  -14.5078   24.8912 C   0  0  2  0  0  0  0  0  0  0  0  0
    7.9282  -14.5724   23.5205 N   0  0  0  0  0  0  0  0  0  0  0  0
    8.8322  -15.8375   25.3789 C   0  0  0  0  0  0  0  0  0  0  0  0
    8.0032  -16.7595   25.5634 O   0  0  0  0  0  0  0  0  0  0  0  0
   10.1904  -16.1156   25.6618 N   0  0  0  0  0  0  0  0  0  0  0  0
   10.6446  -17.4342   26.1628 C   0  0  1  0  0  0  0  0  0  0  0  0
   12.0856  -17.5534   25.7815 C   0  0  0  0  0  0  0  0  0  0  0  0
   12.3750  -17.5457   24.3517 C   0  0  0  0  0  0  0  0  0  0  0  0
   13.3894  -17.0695   23.8360 O   0  0  0  0  0  0  0  0  0  0  0  0
   10.3992  -17.5164   27.6069 C   0  0  0  0  0  0  0  0  0  0  0  0
   10.2876  -16.4527   28.2691 O   0  0  0  0  0  0  0  0  0  0  0  0
   11.4226  -18.1272   23.4925 O   0  0  0  0  0  0  0  0  0  0  0  0
   10.2836  -18.7064   28.2761 O   0  0  0  0  0  0  0  0  0  0  0  0
  1  2  1  0
  1  5  1  0
  2  3  1  0
  4  3  1  0
  5  4  1  0
  5  6  1  1
  6 13  1  0
  7  6  2  0
  8  9  1  0
  9 10  1  0
 10 11  1  1
 10 12  1  0
 12 13  1  6
 14 12  1  0
 14 16  1  0
 15 14  2  0
 17 16  1  0
 17 21  1  0
 17 18  1  1
 19 18  1  0
 20 19  2  0
 21 22  2  0
 21 24  1  0
 23 19  1  0
M  END
$$$$
