PID.pdb
     RDKit          3D

 24 24  0  0  1  0  0  0  0  0999 V2000
    6.9194  -14.6080   20.5068 N   0  0  0  0  0  0  0  0  0  0  0  0
    6.7459  -14.0872   19.1423 C   0  0  0  0  0  0  0  0  0  0  0  0
    7.3925  -12.7173   19.1241 C   0  0  0  0  0  0  0  0  0  0  0  0
    7.9044  -12.5581   20.5626 C   0  0  0  0  0  0  0  0  0  0  0  0
    8.1729  -14.0274   20.8848 C   0  0  1  0  0  0  0  0  0  0  0  0
    8.5598  -14.2416   22.2699 C   0  0  0  0  0  0  0  0  0  0  0  0
    9.8111  -14.3555   22.5054 O   0  0  0  0  0  0  0  0  0  0  0  0
    6.1036  -11.5388   26.0519 C   0  0  0  0  0  0  0  0  0  0  0  0
    7.1261  -12.2634   25.1918 C   0  0  0  0  0  0  0  0  0  0  0  0
    7.3702  -13.6486   25.6932 C   0  0  2  0  0  0  0  0  0  0  0  0
    7.7987  -13.6979   27.1229 C   0  0  0  0  0  0  0  0  0  0  0  0
    8.2420  -14.4381   24.7521 C   0  0  2  0  0  0  0  0  0  0  0  0
    7.7062  -14.3378   23.3847 N   0  0  0  0  0  0  0  0  0  0  0  0
    8.4417  -15.8351   25.1420 C   0  0  0  0  0  0  0  0  0  0  0  0
    7.5027  -16.6561   25.2674 O   0  0  0  0  0  0  0  0  0  0  0  0
    9.7535  -16.3016   25.3943 N   0  0  0  0  0  0  0  0  0  0  0  0
   10.0391  -17.7047   25.7760 C   0  0  1  0  0  0  0  0  0  0  0  0
   11.1976  -18.1396   24.9366 C   0  0  0  0  0  0  0  0  0  0  0  0
   11.8287  -19.3993   25.3149 C   0  0  0  0  0  0  0  0  0  0  0  0
   11.2604  -20.4934   25.3542 O   0  0  0  0  0  0  0  0  0  0  0  0
   10.2871  -17.7747   27.2202 C   0  0  0  0  0  0  0  0  0  0  0  0
   10.3974  -18.9021   27.7673 O   0  0  0  0  0  0  0  0  0  0  0  0
   13.1930  -19.3642   25.6624 O   0  0  0  0  0  0  0  0  0  0  0  0
   10.4067  -16.6615   28.0101 O   0  0  0  0  0  0  0  0  0  0  0  0
  1  2  1  0
  1  5  1  0
  2  3  1  0
  4  3  1  0
  5  4  1  0
  5  6  1  1
  6 13  1  0
  7  6  2  0
  8  9  1  0
  9 10  1  0
 10 11  1  1
 10 12  1  0
 12 13  1  6
 14 12  1  0
 14 16  1  0
 15 14  2  0
 17 16  1  0
 17 21  1  0
 17 18  1  6
 19 18  1  0
 20 19  2  0
 21 22  2  0
 21 24  1  0
 23 19  1  0
M  END
$$$$
