PID.pdb
     RDKit          3D

 24 24  0  0  1  0  0  0  0  0999 V2000
    6.9170  -14.5545   20.6010 N   0  0  0  0  0  0  0  0  0  0  0  0
    6.7631  -14.0854   19.2155 C   0  0  0  0  0  0  0  0  0  0  0  0
    7.5835  -12.8169   19.1020 C   0  0  0  0  0  0  0  0  0  0  0  0
    8.1650  -12.6544   20.5134 C   0  0  0  0  0  0  0  0  0  0  0  0
    8.2492  -14.1281   20.9084 C   0  0  1  0  0  0  0  0  0  0  0  0
    8.6556  -14.3212   22.2910 C   0  0  0  0  0  0  0  0  0  0  0  0
    9.9109  -14.4185   22.5122 O   0  0  0  0  0  0  0  0  0  0  0  0
    6.1092  -11.5544   25.9370 C   0  0  0  0  0  0  0  0  0  0  0  0
    7.1626  -12.2766   25.1129 C   0  0  0  0  0  0  0  0  0  0  0  0
    7.4759  -13.6174   25.6907 C   0  0  2  0  0  0  0  0  0  0  0  0
    7.9276  -13.5625   27.1130 C   0  0  0  0  0  0  0  0  0  0  0  0
    8.3679  -14.4228   24.7826 C   0  0  2  0  0  0  0  0  0  0  0  0
    7.8171  -14.4132   23.4175 N   0  0  0  0  0  0  0  0  0  0  0  0
    8.6219  -15.7895   25.2421 C   0  0  0  0  0  0  0  0  0  0  0  0
    7.7209  -16.6514   25.3709 O   0  0  0  0  0  0  0  0  0  0  0  0
    9.9449  -16.1767   25.5617 N   0  0  0  0  0  0  0  0  0  0  0  0
   10.2916  -17.5564   25.9766 C   0  0  1  0  0  0  0  0  0  0  0  0
   11.5507  -17.9081   25.2506 C   0  0  0  0  0  0  0  0  0  0  0  0
   12.1999  -19.1505   25.6544 C   0  0  0  0  0  0  0  0  0  0  0  0
   11.7234  -19.9787   26.4346 O   0  0  0  0  0  0  0  0  0  0  0  0
   10.4090  -17.6094   27.4380 C   0  0  0  0  0  0  0  0  0  0  0  0
   10.7063  -16.5605   28.0655 O   0  0  0  0  0  0  0  0  0  0  0  0
   13.4697  -19.4266   25.1115 O   0  0  0  0  0  0  0  0  0  0  0  0
   10.2079  -18.7564   28.1601 O   0  0  0  0  0  0  0  0  0  0  0  0
  1  2  1  0
  1  5  1  0
  2  3  1  0
  4  3  1  0
  5  4  1  0
  5  6  1  1
  6 13  1  0
  7  6  2  0
  8  9  1  0
  9 10  1  0
 10 11  1  1
 10 12  1  0
 12 13  1  6
 14 12  1  0
 14 16  1  0
 15 14  2  0
 17 16  1  0
 17 21  1  0
 17 18  1  6
 19 18  1  0
 20 19  2  0
 21 22  2  0
 21 24  1  0
 23 19  1  0
M  END
$$$$
