PID.pdb
     RDKit          3D

 24 24  0  0  1  0  0  0  0  0999 V2000
    6.8767  -14.7987   20.8862 N   0  0  0  0  0  0  0  0  0  0  0  0
    6.6455  -14.5467   19.4557 C   0  0  0  0  0  0  0  0  0  0  0  0
    7.3885  -13.2692   19.1229 C   0  0  0  0  0  0  0  0  0  0  0  0
    8.0117  -12.8718   20.4684 C   0  0  0  0  0  0  0  0  0  0  0  0
    8.1932  -14.2653   21.0685 C   0  0  1  0  0  0  0  0  0  0  0  0
    8.6608  -14.2323   22.4449 C   0  0  0  0  0  0  0  0  0  0  0  0
    9.9166  -14.0705   22.6210 O   0  0  0  0  0  0  0  0  0  0  0  0
    5.4490  -11.8578   25.8719 C   0  0  0  0  0  0  0  0  0  0  0  0
    6.7180  -12.2703   25.1441 C   0  0  0  0  0  0  0  0  0  0  0  0
    7.3622  -13.4451   25.8035 C   0  0  2  0  0  0  0  0  0  0  0  0
    7.7776  -13.1832   27.2137 C   0  0  0  0  0  0  0  0  0  0  0  0
    8.4355  -14.0525   24.9385 C   0  0  2  0  0  0  0  0  0  0  0  0
    7.8811  -14.3590   23.6097 N   0  0  0  0  0  0  0  0  0  0  0  0
    9.0910  -15.2241   25.5226 C   0  0  0  0  0  0  0  0  0  0  0  0
    9.5998  -15.2290   26.6682 O   0  0  0  0  0  0  0  0  0  0  0  0
    9.1639  -16.4213   24.7718 N   0  0  0  0  0  0  0  0  0  0  0  0
    9.7785  -17.6592   25.3064 C   0  0  1  0  0  0  0  0  0  0  0  0
    9.3156  -18.7724   24.4218 C   0  0  0  0  0  0  0  0  0  0  0  0
    9.9204  -20.0781   24.6615 C   0  0  0  0  0  0  0  0  0  0  0  0
   10.1218  -20.5730   25.7733 O   0  0  0  0  0  0  0  0  0  0  0  0
   11.2359  -17.4979   25.3518 C   0  0  0  0  0  0  0  0  0  0  0  0
   11.7983  -16.7789   24.4861 O   0  0  0  0  0  0  0  0  0  0  0  0
   10.3046  -20.8330   23.5364 O   0  0  0  0  0  0  0  0  0  0  0  0
   12.0223  -18.0969   26.3006 O   0  0  0  0  0  0  0  0  0  0  0  0
  1  2  1  0
  1  5  1  0
  2  3  1  0
  4  3  1  0
  5  4  1  0
  5  6  1  1
  6 13  1  0
  7  6  2  0
  8  9  1  0
  9 10  1  0
 10 11  1  1
 10 12  1  0
 12 13  1  6
 14 12  1  0
 14 16  1  0
 15 14  2  0
 17 16  1  0
 17 21  1  0
 17 18  1  6
 19 18  1  0
 20 19  2  0
 21 22  2  0
 21 24  1  0
 23 19  1  0
M  END
$$$$
