PID.pdb
     RDKit          3D

 24 24  0  0  1  0  0  0  0  0999 V2000
    6.9342  -14.9364   20.7231 N   0  0  0  0  0  0  0  0  0  0  0  0
    6.7793  -14.6022   19.2991 C   0  0  0  0  0  0  0  0  0  0  0  0
    7.6153  -13.3617   19.0597 C   0  0  0  0  0  0  0  0  0  0  0  0
    8.2059  -13.0704   20.4464 C   0  0  0  0  0  0  0  0  0  0  0  0
    8.2732  -14.4998   20.9825 C   0  0  1  0  0  0  0  0  0  0  0  0
    8.6842  -14.5630   22.3758 C   0  0  0  0  0  0  0  0  0  0  0  0
    9.9362  -14.4550   22.6106 O   0  0  0  0  0  0  0  0  0  0  0  0
    5.8133  -11.8990   25.7675 C   0  0  0  0  0  0  0  0  0  0  0  0
    6.9267  -12.5852   24.9929 C   0  0  0  0  0  0  0  0  0  0  0  0
    7.4078  -13.8064   25.7050 C   0  0  2  0  0  0  0  0  0  0  0  0
    7.8668  -13.5403   27.1008 C   0  0  0  0  0  0  0  0  0  0  0  0
    8.3799  -14.5952   24.8673 C   0  0  2  0  0  0  0  0  0  0  0  0
    7.8533  -14.7303   23.4993 N   0  0  0  0  0  0  0  0  0  0  0  0
    8.7410  -15.8988   25.4274 C   0  0  0  0  0  0  0  0  0  0  0  0
    7.9095  -16.8141   25.6333 O   0  0  0  0  0  0  0  0  0  0  0  0
   10.0917  -16.1583   25.7597 N   0  0  0  0  0  0  0  0  0  0  0  0
   10.5347  -17.4485   26.3386 C   0  0  1  0  0  0  0  0  0  0  0  0
   11.9486  -17.6440   25.8929 C   0  0  0  0  0  0  0  0  0  0  0  0
   12.1473  -17.8701   24.4655 C   0  0  0  0  0  0  0  0  0  0  0  0
   11.2519  -18.1274   23.6568 O   0  0  0  0  0  0  0  0  0  0  0  0
   10.3666  -17.4107   27.7955 C   0  0  0  0  0  0  0  0  0  0  0  0
   10.3790  -18.4909   28.4401 O   0  0  0  0  0  0  0  0  0  0  0  0
   13.4635  -17.7886   23.9714 O   0  0  0  0  0  0  0  0  0  0  0  0
   10.1959  -16.2453   28.4955 O   0  0  0  0  0  0  0  0  0  0  0  0
  1  2  1  0
  1  5  1  0
  2  3  1  0
  4  3  1  0
  5  4  1  0
  5  6  1  1
  6 13  1  0
  7  6  2  0
  8  9  1  0
  9 10  1  0
 10 11  1  1
 10 12  1  0
 12 13  1  6
 14 12  1  0
 14 16  1  0
 15 14  2  0
 17 16  1  0
 17 21  1  0
 17 18  1  1
 19 18  1  0
 20 19  2  0
 21 22  2  0
 21 24  1  0
 23 19  1  0
M  END
$$$$
