PID.pdb
     RDKit          3D

 24 24  0  0  1  0  0  0  0  0999 V2000
    6.7953  -14.7082   20.3364 N   0  0  0  0  0  0  0  0  0  0  0  0
    6.6256  -14.4090   18.9064 C   0  0  0  0  0  0  0  0  0  0  0  0
    7.5145  -13.2180   18.6123 C   0  0  0  0  0  0  0  0  0  0  0  0
    8.1484  -12.9150   19.9772 C   0  0  0  0  0  0  0  0  0  0  0  0
    8.1590  -14.3294   20.5551 C   0  0  1  0  0  0  0  0  0  0  0  0
    8.5967  -14.3714   21.9410 C   0  0  0  0  0  0  0  0  0  0  0  0
    9.8527  -14.2577   22.1502 O   0  0  0  0  0  0  0  0  0  0  0  0
    7.2033  -11.9163   27.2036 C   0  0  0  0  0  0  0  0  0  0  0  0
    8.0363  -12.9816   26.5096 C   0  0  0  0  0  0  0  0  0  0  0  0
    7.4516  -13.3480   25.1854 C   0  0  2  0  0  0  0  0  0  0  0  0
    6.0131  -13.7423   25.2578 C   0  0  0  0  0  0  0  0  0  0  0  0
    8.3282  -14.3173   24.4363 C   0  0  2  0  0  0  0  0  0  0  0  0
    7.7878  -14.5238   23.0826 N   0  0  0  0  0  0  0  0  0  0  0  0
    8.5417  -15.5931   25.1221 C   0  0  0  0  0  0  0  0  0  0  0  0
    7.6337  -16.4380   25.3032 O   0  0  0  0  0  0  0  0  0  0  0  0
    9.8315  -15.9068   25.6124 N   0  0  0  0  0  0  0  0  0  0  0  0
   10.1603  -17.2280   26.1974 C   0  0  1  0  0  0  0  0  0  0  0  0
   11.5939  -17.4894   25.8620 C   0  0  0  0  0  0  0  0  0  0  0  0
   11.8840  -17.7806   24.4623 C   0  0  0  0  0  0  0  0  0  0  0  0
   11.0432  -17.8420   23.5617 O   0  0  0  0  0  0  0  0  0  0  0  0
    9.8770  -17.2064   27.6366 C   0  0  0  0  0  0  0  0  0  0  0  0
    9.7071  -18.2958   28.2423 O   0  0  0  0  0  0  0  0  0  0  0  0
   13.2284  -18.0097   24.1111 O   0  0  0  0  0  0  0  0  0  0  0  0
    9.7884  -16.0466   28.3609 O   0  0  0  0  0  0  0  0  0  0  0  0
  1  2  1  0
  1  5  1  0
  2  3  1  0
  4  3  1  0
  5  4  1  0
  5  6  1  1
  6 13  1  0
  7  6  2  0
  8  9  1  0
  9 10  1  0
 10 11  1  1
 10 12  1  0
 12 13  1  6
 14 12  1  0
 14 16  1  0
 15 14  2  0
 17 16  1  0
 17 21  1  0
 17 18  1  1
 19 18  1  0
 20 19  2  0
 21 22  2  0
 21 24  1  0
 23 19  1  0
M  END
$$$$
