PID.pdb
     RDKit          3D

 24 24  0  0  1  0  0  0  0  0999 V2000
    7.1677  -15.1809   20.6682 N   0  0  0  0  0  0  0  0  0  0  0  0
    6.9407  -14.9672   19.2308 C   0  0  0  0  0  0  0  0  0  0  0  0
    7.5530  -13.6219   18.8986 C   0  0  0  0  0  0  0  0  0  0  0  0
    8.1039  -13.1498   20.2514 C   0  0  0  0  0  0  0  0  0  0  0  0
    8.4175  -14.5113   20.8701 C   0  0  1  0  0  0  0  0  0  0  0  0
    8.8510  -14.4175   22.2548 C   0  0  0  0  0  0  0  0  0  0  0  0
   10.0651  -14.0705   22.4541 O   0  0  0  0  0  0  0  0  0  0  0  0
    6.6590  -11.7719   27.0824 C   0  0  0  0  0  0  0  0  0  0  0  0
    7.6902  -12.8043   26.6567 C   0  0  0  0  0  0  0  0  0  0  0  0
    7.3101  -13.4472   25.3637 C   0  0  2  0  0  0  0  0  0  0  0  0
    6.0669  -14.2700   25.4502 C   0  0  0  0  0  0  0  0  0  0  0  0
    8.4795  -14.1475   24.7226 C   0  0  2  0  0  0  0  0  0  0  0  0
    8.0792  -14.6672   23.4048 N   0  0  0  0  0  0  0  0  0  0  0  0
    9.0802  -15.1982   25.5466 C   0  0  0  0  0  0  0  0  0  0  0  0
    9.4845  -15.0082   26.7178 O   0  0  0  0  0  0  0  0  0  0  0  0
    9.2201  -16.5008   25.0119 N   0  0  0  0  0  0  0  0  0  0  0  0
    9.7910  -17.6238   25.7922 C   0  0  1  0  0  0  0  0  0  0  0  0
   11.1151  -17.9349   25.1709 C   0  0  0  0  0  0  0  0  0  0  0  0
   11.0910  -18.3158   23.7629 C   0  0  0  0  0  0  0  0  0  0  0  0
   10.1789  -18.9374   23.2119 O   0  0  0  0  0  0  0  0  0  0  0  0
    9.8688  -17.2428   27.2068 C   0  0  0  0  0  0  0  0  0  0  0  0
   10.2031  -16.0674   27.5055 O   0  0  0  0  0  0  0  0  0  0  0  0
   12.1946  -17.9455   22.9702 O   0  0  0  0  0  0  0  0  0  0  0  0
    9.5915  -18.1125   28.2286 O   0  0  0  0  0  0  0  0  0  0  0  0
  1  2  1  0
  1  5  1  0
  2  3  1  0
  4  3  1  0
  5  4  1  0
  5  6  1  1
  6 13  1  0
  7  6  2  0
  8  9  1  0
  9 10  1  0
 10 11  1  1
 10 12  1  0
 12 13  1  6
 14 12  1  0
 14 16  1  0
 15 14  2  0
 17 16  1  0
 17 21  1  0
 17 18  1  6
 19 18  1  0
 20 19  2  0
 21 22  2  0
 21 24  1  0
 23 19  1  0
M  END
$$$$
