PID.pdb
     RDKit          3D

 24 24  0  0  1  0  0  0  0  0999 V2000
    6.9058  -14.9326   20.6446 N   0  0  0  0  0  0  0  0  0  0  0  0
    6.6815  -14.5221   19.2502 C   0  0  0  0  0  0  0  0  0  0  0  0
    7.3771  -13.1868   19.0825 C   0  0  0  0  0  0  0  0  0  0  0  0
    7.9684  -12.9282   20.4754 C   0  0  0  0  0  0  0  0  0  0  0  0
    8.1979  -14.3750   20.9099 C   0  0  1  0  0  0  0  0  0  0  0  0
    8.6478  -14.4875   22.2880 C   0  0  0  0  0  0  0  0  0  0  0  0
    9.9068  -14.6094   22.4729 O   0  0  0  0  0  0  0  0  0  0  0  0
    5.9431  -11.7848   25.9143 C   0  0  0  0  0  0  0  0  0  0  0  0
    7.0552  -12.4116   25.0893 C   0  0  0  0  0  0  0  0  0  0  0  0
    7.5548  -13.6688   25.7215 C   0  0  2  0  0  0  0  0  0  0  0  0
    8.1155  -13.4655   27.0904 C   0  0  0  0  0  0  0  0  0  0  0  0
    8.4473  -14.4464   24.7899 C   0  0  2  0  0  0  0  0  0  0  0  0
    7.8477  -14.4769   23.4458 N   0  0  0  0  0  0  0  0  0  0  0  0
    8.7764  -15.7954   25.2542 C   0  0  0  0  0  0  0  0  0  0  0  0
    7.9234  -16.7035   25.3918 O   0  0  0  0  0  0  0  0  0  0  0  0
   10.1197  -16.1097   25.5685 N   0  0  0  0  0  0  0  0  0  0  0  0
   10.6211  -17.5035   25.6125 C   0  0  1  0  0  0  0  0  0  0  0  0
   10.3521  -18.0881   24.2627 C   0  0  0  0  0  0  0  0  0  0  0  0
   10.9184  -19.4085   24.0095 C   0  0  0  0  0  0  0  0  0  0  0  0
   10.8756  -20.3606   24.7927 O   0  0  0  0  0  0  0  0  0  0  0  0
   12.0386  -17.4984   25.9905 C   0  0  0  0  0  0  0  0  0  0  0  0
   12.7781  -16.5690   25.5762 O   0  0  0  0  0  0  0  0  0  0  0  0
   11.5645  -19.6128   22.7750 O   0  0  0  0  0  0  0  0  0  0  0  0
   12.6019  -18.4653   26.7812 O   0  0  0  0  0  0  0  0  0  0  0  0
  1  2  1  0
  1  5  1  0
  2  3  1  0
  4  3  1  0
  5  4  1  0
  5  6  1  1
  6 13  1  0
  7  6  2  0
  8  9  1  0
  9 10  1  0
 10 11  1  1
 10 12  1  0
 12 13  1  6
 14 12  1  0
 14 16  1  0
 15 14  2  0
 17 16  1  0
 17 21  1  0
 17 18  1  6
 19 18  1  0
 20 19  2  0
 21 22  2  0
 21 24  1  0
 23 19  1  0
M  END
$$$$
