PID.pdb
     RDKit          3D

 24 24  0  0  1  0  0  0  0  0999 V2000
    7.1431  -14.7829   20.3399 N   0  0  0  0  0  0  0  0  0  0  0  0
    6.9901  -14.4806   18.9086 C   0  0  0  0  0  0  0  0  0  0  0  0
    7.6822  -13.1529   18.6776 C   0  0  0  0  0  0  0  0  0  0  0  0
    8.1960  -12.7835   20.0762 C   0  0  0  0  0  0  0  0  0  0  0  0
    8.4144  -14.1907   20.6300 C   0  0  1  0  0  0  0  0  0  0  0  0
    8.7909  -14.1942   22.0344 C   0  0  0  0  0  0  0  0  0  0  0  0
   10.0337  -14.0485   22.2960 O   0  0  0  0  0  0  0  0  0  0  0  0
    7.2829  -11.8429   27.3141 C   0  0  0  0  0  0  0  0  0  0  0  0
    8.1434  -12.8705   26.5971 C   0  0  0  0  0  0  0  0  0  0  0  0
    7.5454  -13.2554   25.2841 C   0  0  2  0  0  0  0  0  0  0  0  0
    6.1208  -13.6918   25.3833 C   0  0  0  0  0  0  0  0  0  0  0  0
    8.4362  -14.1992   24.5194 C   0  0  2  0  0  0  0  0  0  0  0  0
    7.9356  -14.3407   23.1424 N   0  0  0  0  0  0  0  0  0  0  0  0
    8.6183  -15.5059   25.1542 C   0  0  0  0  0  0  0  0  0  0  0  0
    7.9152  -16.5075   24.8824 O   0  0  0  0  0  0  0  0  0  0  0  0
    9.6340  -15.6668   26.1261 N   0  0  0  0  0  0  0  0  0  0  0  0
   10.1401  -16.9983   26.5347 C   0  0  1  0  0  0  0  0  0  0  0  0
   11.3838  -17.2357   25.7392 C   0  0  0  0  0  0  0  0  0  0  0  0
   11.2664  -18.1720   24.6266 C   0  0  0  0  0  0  0  0  0  0  0  0
   10.2283  -18.7474   24.2905 O   0  0  0  0  0  0  0  0  0  0  0  0
   10.3467  -17.0150   27.9870 C   0  0  0  0  0  0  0  0  0  0  0  0
   10.5558  -15.9293   28.5869 O   0  0  0  0  0  0  0  0  0  0  0  0
   12.4284  -18.4404   23.8776 O   0  0  0  0  0  0  0  0  0  0  0  0
   10.3219  -18.1663   28.7295 O   0  0  0  0  0  0  0  0  0  0  0  0
  1  2  1  0
  1  5  1  0
  2  3  1  0
  4  3  1  0
  5  4  1  0
  5  6  1  1
  6 13  1  0
  7  6  2  0
  8  9  1  0
  9 10  1  0
 10 11  1  1
 10 12  1  0
 12 13  1  6
 14 12  1  0
 14 16  1  0
 15 14  2  0
 17 16  1  0
 17 21  1  0
 17 18  1  6
 19 18  1  0
 20 19  2  0
 21 22  2  0
 21 24  1  0
 23 19  1  0
M  END
$$$$
