PID.pdb
     RDKit          3D

 24 24  0  0  1  0  0  0  0  0999 V2000
    6.9221  -14.5991   20.6815 N   0  0  0  0  0  0  0  0  0  0  0  0
    6.7103  -14.1651   19.2922 C   0  0  0  0  0  0  0  0  0  0  0  0
    7.4280  -12.8389   19.1465 C   0  0  0  0  0  0  0  0  0  0  0  0
    8.0175  -12.6098   20.5452 C   0  0  0  0  0  0  0  0  0  0  0  0
    8.2220  -14.0662   20.9599 C   0  0  1  0  0  0  0  0  0  0  0  0
    8.6641  -14.2055   22.3380 C   0  0  0  0  0  0  0  0  0  0  0  0
    9.9045  -13.9976   22.5669 O   0  0  0  0  0  0  0  0  0  0  0  0
    5.7353  -11.9888   25.9919 C   0  0  0  0  0  0  0  0  0  0  0  0
    6.8947  -12.5309   25.1720 C   0  0  0  0  0  0  0  0  0  0  0  0
    7.3892  -13.8267   25.7253 C   0  0  2  0  0  0  0  0  0  0  0  0
    7.7958  -13.7457   27.1598 C   0  0  0  0  0  0  0  0  0  0  0  0
    8.4103  -14.4670   24.8217 C   0  0  2  0  0  0  0  0  0  0  0  0
    7.8749  -14.5453   23.4527 N   0  0  0  0  0  0  0  0  0  0  0  0
    8.8879  -15.7730   25.2796 C   0  0  0  0  0  0  0  0  0  0  0  0
    8.1229  -16.7202   25.5779 O   0  0  0  0  0  0  0  0  0  0  0  0
   10.2800  -15.9972   25.3980 N   0  0  0  0  0  0  0  0  0  0  0  0
   10.8396  -17.2649   25.9231 C   0  0  1  0  0  0  0  0  0  0  0  0
   12.2924  -17.2597   25.5692 C   0  0  0  0  0  0  0  0  0  0  0  0
   12.6071  -17.2529   24.1447 C   0  0  0  0  0  0  0  0  0  0  0  0
   13.6410  -16.7978   23.6490 O   0  0  0  0  0  0  0  0  0  0  0  0
   10.5752  -17.3532   27.3634 C   0  0  0  0  0  0  0  0  0  0  0  0
   10.2223  -18.4568   27.8533 O   0  0  0  0  0  0  0  0  0  0  0  0
   11.6570  -17.8090   23.2664 O   0  0  0  0  0  0  0  0  0  0  0  0
   10.6957  -16.2825   28.2097 O   0  0  0  0  0  0  0  0  0  0  0  0
  1  2  1  0
  1  5  1  0
  2  3  1  0
  4  3  1  0
  5  4  1  0
  5  6  1  1
  6 13  1  0
  7  6  2  0
  8  9  1  0
  9 10  1  0
 10 11  1  1
 10 12  1  0
 12 13  1  6
 14 12  1  0
 14 16  1  0
 15 14  2  0
 17 16  1  0
 17 21  1  0
 17 18  1  1
 19 18  1  0
 20 19  2  0
 21 22  2  0
 21 24  1  0
 23 19  1  0
M  END
$$$$
