PID.pdb
     RDKit          3D

 24 24  0  0  1  0  0  0  0  0999 V2000
    6.9406  -14.6448   20.5479 N   0  0  0  0  0  0  0  0  0  0  0  0
    6.7722  -14.2516   19.1406 C   0  0  0  0  0  0  0  0  0  0  0  0
    7.4075  -12.8833   19.0021 C   0  0  0  0  0  0  0  0  0  0  0  0
    7.9080  -12.5896   20.4232 C   0  0  0  0  0  0  0  0  0  0  0  0
    8.1865  -14.0211   20.8792 C   0  0  1  0  0  0  0  0  0  0  0  0
    8.5656  -14.1053   22.2804 C   0  0  0  0  0  0  0  0  0  0  0  0
    9.8069  -13.9598   22.5490 O   0  0  0  0  0  0  0  0  0  0  0  0
    5.9659  -11.6166   26.0775 C   0  0  0  0  0  0  0  0  0  0  0  0
    7.0213  -12.2862   25.2126 C   0  0  0  0  0  0  0  0  0  0  0  0
    7.3070  -13.6737   25.6850 C   0  0  2  0  0  0  0  0  0  0  0  0
    7.6930  -13.7450   27.1257 C   0  0  0  0  0  0  0  0  0  0  0  0
    8.2394  -14.4009   24.7517 C   0  0  2  0  0  0  0  0  0  0  0  0
    7.7143  -14.3299   23.3783 N   0  0  0  0  0  0  0  0  0  0  0  0
    8.5248  -15.7836   25.1392 C   0  0  0  0  0  0  0  0  0  0  0  0
    7.6344  -16.6500   25.3060 O   0  0  0  0  0  0  0  0  0  0  0  0
    9.8677  -16.1819   25.3402 N   0  0  0  0  0  0  0  0  0  0  0  0
   10.2445  -17.5814   25.6487 C   0  0  1  0  0  0  0  0  0  0  0  0
   11.5173  -17.8451   24.9094 C   0  0  0  0  0  0  0  0  0  0  0  0
   12.1841  -19.1080   25.2074 C   0  0  0  0  0  0  0  0  0  0  0  0
   11.7752  -19.9547   26.0059 O   0  0  0  0  0  0  0  0  0  0  0  0
   10.3519  -17.7467   27.1025 C   0  0  0  0  0  0  0  0  0  0  0  0
   10.0679  -18.8606   27.6134 O   0  0  0  0  0  0  0  0  0  0  0  0
   13.3884  -19.3825   24.5311 O   0  0  0  0  0  0  0  0  0  0  0  0
   10.7511  -16.7378   27.9392 O   0  0  0  0  0  0  0  0  0  0  0  0
  1  2  1  0
  1  5  1  0
  2  3  1  0
  4  3  1  0
  5  4  1  0
  5  6  1  1
  6 13  1  0
  7  6  2  0
  8  9  1  0
  9 10  1  0
 10 11  1  1
 10 12  1  0
 12 13  1  6
 14 12  1  0
 14 16  1  0
 15 14  2  0
 17 16  1  0
 17 21  1  0
 17 18  1  6
 19 18  1  0
 20 19  2  0
 21 22  2  0
 21 24  1  0
 23 19  1  0
M  END
$$$$
