PID.pdb
     RDKit          3D

 24 24  0  0  1  0  0  0  0  0999 V2000
    7.0725  -14.9201   20.7516 N   0  0  0  0  0  0  0  0  0  0  0  0
    6.8042  -14.5632   19.3502 C   0  0  0  0  0  0  0  0  0  0  0  0
    7.3224  -13.1519   19.1637 C   0  0  0  0  0  0  0  0  0  0  0  0
    7.8682  -12.7980   20.5541 C   0  0  0  0  0  0  0  0  0  0  0  0
    8.2805  -14.1962   21.0121 C   0  0  1  0  0  0  0  0  0  0  0  0
    8.7340  -14.2287   22.3931 C   0  0  0  0  0  0  0  0  0  0  0  0
    9.9805  -14.0274   22.5930 O   0  0  0  0  0  0  0  0  0  0  0  0
    6.1156  -11.7598   26.1551 C   0  0  0  0  0  0  0  0  0  0  0  0
    7.1702  -12.4049   25.2708 C   0  0  0  0  0  0  0  0  0  0  0  0
    7.6189  -13.7142   25.8314 C   0  0  2  0  0  0  0  0  0  0  0  0
    8.1180  -13.6215   27.2357 C   0  0  0  0  0  0  0  0  0  0  0  0
    8.5413  -14.4398   24.8870 C   0  0  2  0  0  0  0  0  0  0  0  0
    7.9499  -14.4580   23.5391 N   0  0  0  0  0  0  0  0  0  0  0  0
    8.9122  -15.7878   25.3214 C   0  0  0  0  0  0  0  0  0  0  0  0
    8.0997  -16.7407   25.3795 O   0  0  0  0  0  0  0  0  0  0  0  0
   10.2507  -16.0487   25.6989 N   0  0  0  0  0  0  0  0  0  0  0  0
   10.6987  -17.3794   26.1725 C   0  0  1  0  0  0  0  0  0  0  0  0
   12.1327  -17.5069   25.7684 C   0  0  0  0  0  0  0  0  0  0  0  0
   12.4125  -17.3809   24.3422 C   0  0  0  0  0  0  0  0  0  0  0  0
   11.8441  -18.0146   23.4494 O   0  0  0  0  0  0  0  0  0  0  0  0
   10.4733  -17.4819   27.6185 C   0  0  0  0  0  0  0  0  0  0  0  0
   10.2684  -16.4322   28.2808 O   0  0  0  0  0  0  0  0  0  0  0  0
   13.4088  -16.4646   23.9537 O   0  0  0  0  0  0  0  0  0  0  0  0
   10.4740  -18.6765   28.2895 O   0  0  0  0  0  0  0  0  0  0  0  0
  1  2  1  0
  1  5  1  0
  2  3  1  0
  4  3  1  0
  5  4  1  0
  5  6  1  1
  6 13  1  0
  7  6  2  0
  8  9  1  0
  9 10  1  0
 10 11  1  1
 10 12  1  0
 12 13  1  6
 14 12  1  0
 14 16  1  0
 15 14  2  0
 17 16  1  0
 17 21  1  0
 17 18  1  1
 19 18  1  0
 20 19  2  0
 21 22  2  0
 21 24  1  0
 23 19  1  0
M  END
$$$$
