AIM.pdb
     RDKit          3D

 22 21  0  0  1  0  0  0  0  0999 V2000
    4.7818  -18.5335   22.4892 C   0  0  0  0  0  0  0  0  0  0  0  0
    5.3073  -18.0122   21.1772 C   0  0  2  0  0  0  0  0  0  0  0  0
    5.5443  -19.1154   20.2953 N   0  0  0  0  0  0  0  0  0  0  0  0
    6.4949  -17.1451   21.3378 C   0  0  0  0  0  0  0  0  0  0  0  0
    7.6485  -17.5891   21.3270 O   0  0  0  0  0  0  0  0  0  0  0  0
    7.3768  -12.3492   18.7384 C   0  0  0  0  0  0  0  0  0  0  0  0
    7.4065  -13.7294   19.3788 C   0  0  0  0  0  0  0  0  0  0  0  0
    7.6549  -13.6539   20.8504 C   0  0  2  0  0  0  0  0  0  0  0  0
    8.9892  -12.9890   21.1223 C   0  0  0  0  0  0  0  0  0  0  0  0
    7.5206  -14.8595   21.6569 C   0  0  2  0  0  0  0  0  0  0  0  0
    6.4410  -15.7397   21.5179 N   0  0  0  0  0  0  0  0  0  0  0  0
    7.7779  -14.6867   23.1108 C   0  0  0  0  0  0  0  0  0  0  0  0
    7.3498  -13.6498   23.6722 O   0  0  0  0  0  0  0  0  0  0  0  0
    7.4897  -11.6744   27.3269 C   0  0  0  0  0  0  0  0  0  0  0  0
    6.3860  -12.9992   26.7924 S   0  0  0  0  0  0  0  0  0  0  0  0
    7.1858  -14.5895   27.1950 C   0  0  0  0  0  0  0  0  0  0  0  0
    7.2201  -15.3879   25.9268 C   0  0  0  0  0  0  0  0  0  0  0  0
    8.5896  -15.5227   25.3394 C   0  0  2  0  0  0  0  0  0  0  0  0
    8.4816  -15.6352   23.8886 N   0  0  0  0  0  0  0  0  0  0  0  0
    9.3353  -16.7044   25.8211 C   0  0  0  0  0  0  0  0  0  0  0  0
    9.3060  -17.8007   25.1804 O   0  0  0  0  0  0  0  0  0  0  0  0
   10.0868  -16.6471   26.9834 O   0  0  0  0  0  0  0  0  0  0  0  0
  2  1  1  1
  2  4  1  0
  3  2  1  0
  4 11  1  0
  5  4  2  0
  6  7  1  0
  8  9  1  6
  8  7  1  0
 10  8  1  0
 10 12  1  0
 10 11  1  1
 12 13  2  0
 12 19  1  0
 15 14  1  0
 16 15  1  0
 17 16  1  0
 18 17  1  1
 18 20  1  0
 19 18  1  0
 20 22  1  0
 21 20  2  0
M  END
$$$$
