AIM.pdb
     RDKit          3D

 22 21  0  0  1  0  0  0  0  0999 V2000
    6.9197  -16.8370   20.6730 C   0  0  0  0  0  0  0  0  0  0  0  0
    7.1628  -15.3596   20.8380 C   0  0  2  0  0  0  0  0  0  0  0  0
    7.7804  -14.8504   19.6504 N   0  0  0  0  0  0  0  0  0  0  0  0
    7.9277  -15.0364   22.0621 C   0  0  0  0  0  0  0  0  0  0  0  0
    9.1456  -14.8248   22.0484 O   0  0  0  0  0  0  0  0  0  0  0  0
    5.7076  -11.8353   26.1066 C   0  0  0  0  0  0  0  0  0  0  0  0
    6.5066  -12.4883   24.9880 C   0  0  0  0  0  0  0  0  0  0  0  0
    7.3396  -13.6231   25.4893 C   0  0  2  0  0  0  0  0  0  0  0  0
    8.3450  -13.1242   26.5075 C   0  0  0  0  0  0  0  0  0  0  0  0
    7.9910  -14.5048   24.5301 C   0  0  2  0  0  0  0  0  0  0  0  0
    7.3599  -14.9362   23.3574 N   0  0  0  0  0  0  0  0  0  0  0  0
    8.7010  -15.6721   25.1162 C   0  0  0  0  0  0  0  0  0  0  0  0
    8.0199  -16.5610   25.6813 O   0  0  0  0  0  0  0  0  0  0  0  0
   10.1614  -13.4616   29.3063 C   0  0  0  0  0  0  0  0  0  0  0  0
   11.3015  -14.7435   29.8682 S   0  0  0  0  0  0  0  0  0  0  0  0
   11.3074  -16.0731   28.6179 C   0  0  0  0  0  0  0  0  0  0  0  0
   10.8268  -15.4617   27.3363 C   0  0  0  0  0  0  0  0  0  0  0  0
   10.8636  -16.4013   26.1725 C   0  0  2  0  0  0  0  0  0  0  0  0
   10.1058  -15.8262   25.0660 N   0  0  0  0  0  0  0  0  0  0  0  0
   10.2891  -17.7328   26.4581 C   0  0  0  0  0  0  0  0  0  0  0  0
    9.0812  -17.9985   26.1688 O   0  0  0  0  0  0  0  0  0  0  0  0
   11.0532  -18.7266   27.0476 O   0  0  0  0  0  0  0  0  0  0  0  0
  2  1  1  6
  2  4  1  0
  3  2  1  0
  4 11  1  0
  5  4  2  0
  6  7  1  0
  8  9  1  1
  8  7  1  0
 10  8  1  0
 10 12  1  0
 10 11  1  6
 12 13  2  0
 12 19  1  0
 15 14  1  0
 16 15  1  0
 17 16  1  0
 18 17  1  1
 18 20  1  0
 19 18  1  0
 20 22  1  0
 21 20  2  0
M  END
$$$$
