AIM.pdb
     RDKit          3D

 22 21  0  0  1  0  0  0  0  0999 V2000
    6.8595  -16.6176   21.0428 C   0  0  0  0  0  0  0  0  0  0  0  0
    7.1677  -15.1554   21.2329 C   0  0  2  0  0  0  0  0  0  0  0  0
    7.8411  -14.6629   20.0688 N   0  0  0  0  0  0  0  0  0  0  0  0
    7.9132  -14.8829   22.4810 C   0  0  0  0  0  0  0  0  0  0  0  0
    9.1484  -14.8838   22.5312 O   0  0  0  0  0  0  0  0  0  0  0  0
    5.9914  -11.4623   26.5772 C   0  0  0  0  0  0  0  0  0  0  0  0
    6.8739  -12.0982   25.5128 C   0  0  0  0  0  0  0  0  0  0  0  0
    7.3918  -13.4318   25.9444 C   0  0  2  0  0  0  0  0  0  0  0  0
    8.3605  -13.2684   27.0983 C   0  0  0  0  0  0  0  0  0  0  0  0
    7.9472  -14.3357   24.9463 C   0  0  2  0  0  0  0  0  0  0  0  0
    7.3056  -14.5971   23.7298 N   0  0  0  0  0  0  0  0  0  0  0  0
    8.4624  -15.6275   25.4715 C   0  0  0  0  0  0  0  0  0  0  0  0
    7.6374  -16.5353   25.7337 O   0  0  0  0  0  0  0  0  0  0  0  0
   13.6432  -18.8596   23.4113 C   0  0  0  0  0  0  0  0  0  0  0  0
   13.9510  -18.7930   25.1889 S   0  0  0  0  0  0  0  0  0  0  0  0
   12.3363  -18.6781   26.0317 C   0  0  0  0  0  0  0  0  0  0  0  0
   11.6798  -17.4248   25.5365 C   0  0  0  0  0  0  0  0  0  0  0  0
   10.3272  -17.1819   26.1281 C   0  0  2  0  0  0  0  0  0  0  0  0
    9.8368  -15.8796   25.6887 N   0  0  0  0  0  0  0  0  0  0  0  0
   10.3093  -17.1863   27.6060 C   0  0  0  0  0  0  0  0  0  0  0  0
   10.3689  -18.2756   28.2565 O   0  0  0  0  0  0  0  0  0  0  0  0
   10.2283  -16.0025   28.3208 O   0  0  0  0  0  0  0  0  0  0  0  0
  2  1  1  6
  2  4  1  0
  3  2  1  0
  4 11  1  0
  5  4  2  0
  6  7  1  0
  8  9  1  1
  8  7  1  0
 10  8  1  0
 10 12  1  0
 10 11  1  6
 12 13  2  0
 12 19  1  0
 15 14  1  0
 16 15  1  0
 17 16  1  0
 18 17  1  1
 18 20  1  0
 19 18  1  0
 20 22  1  0
 21 20  2  0
M  END
$$$$
