AIM.pdb
     RDKit          3D

 22 21  0  0  1  0  0  0  0  0999 V2000
    8.5151  -20.6330   21.7274 C   0  0  0  0  0  0  0  0  0  0  0  0
    8.1478  -19.5220   20.7787 C   0  0  2  0  0  0  0  0  0  0  0  0
    8.4329  -19.9367   19.4379 N   0  0  0  0  0  0  0  0  0  0  0  0
    8.7882  -18.2347   21.1260 C   0  0  0  0  0  0  0  0  0  0  0  0
    9.9357  -17.9454   20.7685 O   0  0  0  0  0  0  0  0  0  0  0  0
    7.9586  -12.2518   21.3830 C   0  0  0  0  0  0  0  0  0  0  0  0
    8.7451  -13.4154   21.9690 C   0  0  0  0  0  0  0  0  0  0  0  0
    8.0310  -14.7156   21.7888 C   0  0  2  0  0  0  0  0  0  0  0  0
    6.6427  -14.6379   22.3915 C   0  0  0  0  0  0  0  0  0  0  0  0
    8.6877  -15.9500   22.1973 C   0  0  2  0  0  0  0  0  0  0  0  0
    8.1693  -17.2137   21.8906 N   0  0  0  0  0  0  0  0  0  0  0  0
    9.1598  -15.9856   23.6065 C   0  0  0  0  0  0  0  0  0  0  0  0
    8.3635  -16.3808   24.4915 O   0  0  0  0  0  0  0  0  0  0  0  0
    8.9638  -11.8916   27.3515 C   0  0  0  0  0  0  0  0  0  0  0  0
    8.9155  -13.4242   28.3041 S   0  0  0  0  0  0  0  0  0  0  0  0
   10.1659  -14.5556   27.6061 C   0  0  0  0  0  0  0  0  0  0  0  0
    9.8801  -14.6613   26.1383 C   0  0  0  0  0  0  0  0  0  0  0  0
   10.8625  -15.5108   25.3953 C   0  0  2  0  0  0  0  0  0  0  0  0
   10.4624  -15.5953   23.9946 N   0  0  0  0  0  0  0  0  0  0  0  0
   10.9702  -16.8923   25.9094 C   0  0  0  0  0  0  0  0  0  0  0  0
   11.8024  -17.1862   26.8228 O   0  0  0  0  0  0  0  0  0  0  0  0
   10.1654  -17.9030   25.4095 O   0  0  0  0  0  0  0  0  0  0  0  0
  2  1  1  1
  2  4  1  0
  3  2  1  0
  4 11  1  0
  5  4  2  0
  6  7  1  0
  8  9  1  1
  8  7  1  0
 10  8  1  0
 10 12  1  0
 10 11  1  1
 12 13  2  0
 12 19  1  0
 15 14  1  0
 16 15  1  0
 17 16  1  0
 18 17  1  1
 18 20  1  0
 19 18  1  0
 20 22  1  0
 21 20  2  0
M  END
$$$$
