AIM.pdb
     RDKit          3D

 22 21  0  0  1  0  0  0  0  0999 V2000
    7.9849  -17.6541   21.3203 C   0  0  0  0  0  0  0  0  0  0  0  0
    8.0066  -16.1513   21.2183 C   0  0  2  0  0  0  0  0  0  0  0  0
    8.7288  -15.7715   20.0413 N   0  0  0  0  0  0  0  0  0  0  0  0
    8.5254  -15.5000   22.4408 C   0  0  0  0  0  0  0  0  0  0  0  0
    9.7343  -15.3549   22.6548 O   0  0  0  0  0  0  0  0  0  0  0  0
    7.0786  -11.3129   26.8119 C   0  0  0  0  0  0  0  0  0  0  0  0
    7.9724  -12.4632   26.3716 C   0  0  0  0  0  0  0  0  0  0  0  0
    7.3797  -13.2214   25.2284 C   0  0  2  0  0  0  0  0  0  0  0  0
    5.9745  -13.6728   25.5724 C   0  0  0  0  0  0  0  0  0  0  0  0
    8.1309  -14.3216   24.6394 C   0  0  2  0  0  0  0  0  0  0  0  0
    7.7103  -14.9819   23.4788 N   0  0  0  0  0  0  0  0  0  0  0  0
    8.6089  -15.3530   25.5974 C   0  0  0  0  0  0  0  0  0  0  0  0
    7.8848  -16.3566   25.8023 O   0  0  0  0  0  0  0  0  0  0  0  0
   14.0177  -18.2815   25.1892 C   0  0  0  0  0  0  0  0  0  0  0  0
   14.1352  -17.8623   26.9412 S   0  0  0  0  0  0  0  0  0  0  0  0
   12.4385  -17.6587   27.5819 C   0  0  0  0  0  0  0  0  0  0  0  0
   11.7816  -16.6092   26.7368 C   0  0  0  0  0  0  0  0  0  0  0  0
   10.3571  -16.3435   27.1096 C   0  0  2  0  0  0  0  0  0  0  0  0
    9.8397  -15.2551   26.2869 N   0  0  0  0  0  0  0  0  0  0  0  0
   10.1692  -15.9576   28.5240 C   0  0  0  0  0  0  0  0  0  0  0  0
    9.9305  -14.7523   28.8458 O   0  0  0  0  0  0  0  0  0  0  0  0
   10.2470  -16.9005   29.5358 O   0  0  0  0  0  0  0  0  0  0  0  0
  2  1  1  1
  2  4  1  0
  3  2  1  0
  4 11  1  0
  5  4  2  0
  6  7  1  0
  8  9  1  1
  8  7  1  0
 10  8  1  0
 10 12  1  0
 10 11  1  6
 12 13  2  0
 12 19  1  0
 15 14  1  0
 16 15  1  0
 17 16  1  0
 18 17  1  1
 18 20  1  0
 19 18  1  0
 20 22  1  0
 21 20  2  0
M  END
$$$$
