AIM.pdb
     RDKit          3D

 22 21  0  0  1  0  0  0  0  0999 V2000
    7.1329  -16.7090   21.1044 C   0  0  0  0  0  0  0  0  0  0  0  0
    7.3377  -15.2352   21.3394 C   0  0  2  0  0  0  0  0  0  0  0  0
    8.0250  -14.6722   20.2162 N   0  0  0  0  0  0  0  0  0  0  0  0
    8.0122  -14.9466   22.6239 C   0  0  0  0  0  0  0  0  0  0  0  0
    9.2429  -14.9284   22.7391 O   0  0  0  0  0  0  0  0  0  0  0  0
    5.6634  -11.5368   26.5663 C   0  0  0  0  0  0  0  0  0  0  0  0
    6.5921  -12.1456   25.5257 C   0  0  0  0  0  0  0  0  0  0  0  0
    7.2056  -13.4206   26.0063 C   0  0  2  0  0  0  0  0  0  0  0  0
    8.0820  -13.1566   27.2141 C   0  0  0  0  0  0  0  0  0  0  0  0
    7.9035  -14.2762   25.0563 C   0  0  2  0  0  0  0  0  0  0  0  0
    7.3352  -14.6653   23.8375 N   0  0  0  0  0  0  0  0  0  0  0  0
    8.5737  -15.4667   25.6424 C   0  0  0  0  0  0  0  0  0  0  0  0
    7.8772  -16.4798   25.8914 O   0  0  0  0  0  0  0  0  0  0  0  0
   15.2224  -16.3989   26.1215 C   0  0  0  0  0  0  0  0  0  0  0  0
   14.3992  -17.9129   25.5840 S   0  0  0  0  0  0  0  0  0  0  0  0
   12.7655  -17.9788   26.3950 C   0  0  0  0  0  0  0  0  0  0  0  0
   11.9581  -16.8492   25.8302 C   0  0  0  0  0  0  0  0  0  0  0  0
   10.6045  -16.7094   26.4523 C   0  0  2  0  0  0  0  0  0  0  0  0
    9.9573  -15.5098   25.9314 N   0  0  0  0  0  0  0  0  0  0  0  0
   10.6304  -16.5945   27.9257 C   0  0  0  0  0  0  0  0  0  0  0  0
   10.5394  -15.4623   28.4940 O   0  0  0  0  0  0  0  0  0  0  0  0
   10.7533  -17.7188   28.7256 O   0  0  0  0  0  0  0  0  0  0  0  0
  2  1  1  6
  2  4  1  0
  3  2  1  0
  4 11  1  0
  5  4  2  0
  6  7  1  0
  8  9  1  1
  8  7  1  0
 10  8  1  0
 10 12  1  0
 10 11  1  6
 12 13  2  0
 12 19  1  0
 15 14  1  0
 16 15  1  0
 17 16  1  0
 18 17  1  6
 18 20  1  0
 19 18  1  0
 20 22  1  0
 21 20  2  0
M  END
$$$$
