AIM.pdb
     RDKit          3D

 22 21  0  0  1  0  0  0  0  0999 V2000
    8.1138  -18.5377   20.9519 C   0  0  0  0  0  0  0  0  0  0  0  0
    7.8676  -17.0614   20.7812 C   0  0  2  0  0  0  0  0  0  0  0  0
    8.2959  -16.6625   19.4741 N   0  0  0  0  0  0  0  0  0  0  0  0
    8.4803  -16.2489   21.8548 C   0  0  0  0  0  0  0  0  0  0  0  0
    9.6672  -15.9038   21.8321 O   0  0  0  0  0  0  0  0  0  0  0  0
    7.0361  -11.9162   26.0686 C   0  0  0  0  0  0  0  0  0  0  0  0
    8.0646  -12.8811   25.4969 C   0  0  0  0  0  0  0  0  0  0  0  0
    7.4286  -13.9299   24.6434 C   0  0  2  0  0  0  0  0  0  0  0  0
    6.3028  -14.6072   25.3988 C   0  0  0  0  0  0  0  0  0  0  0  0
    8.2706  -14.9269   23.9963 C   0  0  2  0  0  0  0  0  0  0  0  0
    7.7881  -15.7869   23.0027 N   0  0  0  0  0  0  0  0  0  0  0  0
    9.1278  -15.7279   24.9093 C   0  0  0  0  0  0  0  0  0  0  0  0
    8.5839  -16.6114   25.6145 O   0  0  0  0  0  0  0  0  0  0  0  0
    9.8636  -13.2436   29.2042 C   0  0  0  0  0  0  0  0  0  0  0  0
   10.6515  -14.6585   30.0017 S   0  0  0  0  0  0  0  0  0  0  0  0
   11.3103  -15.7437   28.6905 C   0  0  0  0  0  0  0  0  0  0  0  0
   10.8120  -15.1961   27.3871 C   0  0  0  0  0  0  0  0  0  0  0  0
   11.2760  -15.9709   26.1941 C   0  0  2  0  0  0  0  0  0  0  0  0
   10.5251  -15.5404   25.0193 N   0  0  0  0  0  0  0  0  0  0  0  0
   11.0986  -17.4326   26.3221 C   0  0  0  0  0  0  0  0  0  0  0  0
   10.0230  -17.9951   25.9479 O   0  0  0  0  0  0  0  0  0  0  0  0
   12.1012  -18.2280   26.8522 O   0  0  0  0  0  0  0  0  0  0  0  0
  2  1  1  1
  2  4  1  0
  3  2  1  0
  4 11  1  0
  5  4  2  0
  6  7  1  0
  8  9  1  1
  8  7  1  0
 10  8  1  0
 10 12  1  0
 10 11  1  1
 12 13  2  0
 12 19  1  0
 15 14  1  0
 16 15  1  0
 17 16  1  0
 18 17  1  1
 18 20  1  0
 19 18  1  0
 20 22  1  0
 21 20  2  0
M  END
$$$$
