AIM.pdb
     RDKit          3D

 22 21  0  0  1  0  0  0  0  0999 V2000
    6.0777  -18.8716   23.4400 C   0  0  0  0  0  0  0  0  0  0  0  0
    5.7998  -17.5034   22.8744 C   0  0  2  0  0  0  0  0  0  0  0  0
    5.6611  -17.6031   21.4525 N   0  0  0  0  0  0  0  0  0  0  0  0
    6.8066  -16.4986   23.2802 C   0  0  0  0  0  0  0  0  0  0  0  0
    7.8044  -16.2437   22.5965 O   0  0  0  0  0  0  0  0  0  0  0  0
    5.6016  -11.9058   26.2821 C   0  0  0  0  0  0  0  0  0  0  0  0
    6.1733  -12.7934   25.1861 C   0  0  0  0  0  0  0  0  0  0  0  0
    7.3177  -13.6181   25.6793 C   0  0  2  0  0  0  0  0  0  0  0  0
    8.5365  -12.7442   25.8976 C   0  0  0  0  0  0  0  0  0  0  0  0
    7.6886  -14.8255   24.9538 C   0  0  2  0  0  0  0  0  0  0  0  0
    6.7387  -15.7342   24.4725 N   0  0  0  0  0  0  0  0  0  0  0  0
    8.8032  -15.6098   25.5474 C   0  0  0  0  0  0  0  0  0  0  0  0
    8.5683  -16.2996   26.5685 O   0  0  0  0  0  0  0  0  0  0  0  0
   10.7564  -13.6311   29.5078 C   0  0  0  0  0  0  0  0  0  0  0  0
   11.6507  -15.1670   29.8244 S   0  0  0  0  0  0  0  0  0  0  0  0
   12.0853  -15.9031   28.2119 C   0  0  0  0  0  0  0  0  0  0  0  0
   11.0078  -15.5014   27.2503 C   0  0  0  0  0  0  0  0  0  0  0  0
   11.2838  -15.9063   25.8366 C   0  0  2  0  0  0  0  0  0  0  0  0
   10.1135  -15.6140   25.0154 N   0  0  0  0  0  0  0  0  0  0  0  0
   11.5919  -17.3426   25.6733 C   0  0  0  0  0  0  0  0  0  0  0  0
   10.7185  -18.1517   25.2309 O   0  0  0  0  0  0  0  0  0  0  0  0
   12.8420  -17.8441   25.9970 O   0  0  0  0  0  0  0  0  0  0  0  0
  2  1  1  6
  2  4  1  0
  3  2  1  0
  4 11  1  0
  5  4  2  0
  6  7  1  0
  8  9  1  6
  8  7  1  0
 10  8  1  0
 10 12  1  0
 10 11  1  1
 12 13  2  0
 12 19  1  0
 15 14  1  0
 16 15  1  0
 17 16  1  0
 18 17  1  1
 18 20  1  0
 19 18  1  0
 20 22  1  0
 21 20  2  0
M  END
$$$$
