AIM.pdb
     RDKit          3D

 22 21  0  0  1  0  0  0  0  0999 V2000
    9.2875  -18.1213   20.4602 C   0  0  0  0  0  0  0  0  0  0  0  0
    8.9284  -16.6623   20.3524 C   0  0  2  0  0  0  0  0  0  0  0  0
    9.6087  -16.0938   19.2276 N   0  0  0  0  0  0  0  0  0  0  0  0
    9.1753  -15.9158   21.6053 C   0  0  0  0  0  0  0  0  0  0  0  0
   10.2478  -15.3475   21.8401 O   0  0  0  0  0  0  0  0  0  0  0  0
    6.2867  -12.5777   25.9495 C   0  0  0  0  0  0  0  0  0  0  0  0
    7.5575  -13.2563   25.4591 C   0  0  0  0  0  0  0  0  0  0  0  0
    7.2667  -14.3131   24.4434 C   0  0  2  0  0  0  0  0  0  0  0  0
    6.2393  -15.2881   24.9824 C   0  0  0  0  0  0  0  0  0  0  0  0
    8.3739  -15.0362   23.8328 C   0  0  2  0  0  0  0  0  0  0  0  0
    8.2292  -15.7735   22.6516 N   0  0  0  0  0  0  0  0  0  0  0  0
    9.2040  -15.8403   24.7679 C   0  0  0  0  0  0  0  0  0  0  0  0
    9.2598  -17.0818   24.5976 O   0  0  0  0  0  0  0  0  0  0  0  0
   10.5039  -13.4654   30.2224 C   0  0  0  0  0  0  0  0  0  0  0  0
   11.6391  -14.8278   30.5596 S   0  0  0  0  0  0  0  0  0  0  0  0
   11.5337  -16.0011   29.1656 C   0  0  0  0  0  0  0  0  0  0  0  0
   11.0167  -15.2281   27.9899 C   0  0  0  0  0  0  0  0  0  0  0  0
   10.6141  -16.0902   26.8352 C   0  0  2  0  0  0  0  0  0  0  0  0
    9.9321  -15.2713   25.8384 N   0  0  0  0  0  0  0  0  0  0  0  0
    9.7021  -17.1946   27.2004 C   0  0  0  0  0  0  0  0  0  0  0  0
    8.4507  -17.0020   27.3004 O   0  0  0  0  0  0  0  0  0  0  0  0
   10.1880  -18.4692   27.4418 O   0  0  0  0  0  0  0  0  0  0  0  0
  2  1  1  1
  2  4  1  0
  3  2  1  0
  4 11  1  0
  5  4  2  0
  6  7  1  0
  8  9  1  1
  8  7  1  0
 10  8  1  0
 10 12  1  0
 10 11  1  6
 12 13  2  0
 12 19  1  0
 15 14  1  0
 16 15  1  0
 17 16  1  0
 18 17  1  1
 18 20  1  0
 19 18  1  0
 20 22  1  0
 21 20  2  0
M  END
$$$$
