AIM.pdb
     RDKit          3D

 22 21  0  0  1  0  0  0  0  0999 V2000
    6.8834  -19.6027   24.9977 C   0  0  0  0  0  0  0  0  0  0  0  0
    6.1984  -18.6044   24.1014 C   0  0  2  0  0  0  0  0  0  0  0  0
    5.9788  -19.2001   22.8176 N   0  0  0  0  0  0  0  0  0  0  0  0
    6.9220  -17.3171   24.0165 C   0  0  0  0  0  0  0  0  0  0  0  0
    7.8008  -17.1029   23.1739 O   0  0  0  0  0  0  0  0  0  0  0  0
    6.6234  -11.2379   25.3764 C   0  0  0  0  0  0  0  0  0  0  0  0
    7.4898  -12.4547   25.0855 C   0  0  0  0  0  0  0  0  0  0  0  0
    6.7117  -13.7268   25.1817 C   0  0  2  0  0  0  0  0  0  0  0  0
    6.0050  -13.8079   26.5199 C   0  0  0  0  0  0  0  0  0  0  0  0
    7.3746  -14.9898   24.8863 C   0  0  2  0  0  0  0  0  0  0  0  0
    6.6917  -16.2117   24.8741 N   0  0  0  0  0  0  0  0  0  0  0  0
    8.6735  -15.2055   25.5765 C   0  0  0  0  0  0  0  0  0  0  0  0
    8.7209  -15.0461   26.8198 O   0  0  0  0  0  0  0  0  0  0  0  0
   10.9046  -13.6142   28.6839 C   0  0  0  0  0  0  0  0  0  0  0  0
   10.4515  -15.3434   28.9358 S   0  0  0  0  0  0  0  0  0  0  0  0
   11.6187  -16.3717   27.9814 C   0  0  0  0  0  0  0  0  0  0  0  0
   10.9171  -16.7567   26.7139 C   0  0  0  0  0  0  0  0  0  0  0  0
   11.1209  -15.7836   25.5958 C   0  0  2  0  0  0  0  0  0  0  0  0
    9.8557  -15.5813   24.8975 N   0  0  0  0  0  0  0  0  0  0  0  0
   12.1151  -16.2212   24.5934 C   0  0  0  0  0  0  0  0  0  0  0  0
   13.3591  -16.0643   24.7959 O   0  0  0  0  0  0  0  0  0  0  0  0
   11.7163  -16.8155   23.4073 O   0  0  0  0  0  0  0  0  0  0  0  0
  2  1  1  1
  2  4  1  0
  3  2  1  0
  4 11  1  0
  5  4  2  0
  6  7  1  0
  8  9  1  1
  8  7  1  0
 10  8  1  0
 10 12  1  0
 10 11  1  1
 12 13  2  0
 12 19  1  0
 15 14  1  0
 16 15  1  0
 17 16  1  0
 18 17  1  1
 18 20  1  0
 19 18  1  0
 20 22  1  0
 21 20  2  0
M  END
$$$$
