AIM.pdb
     RDKit          3D

 22 21  0  0  1  0  0  0  0  0999 V2000
   13.0375  -18.9801   21.9445 C   0  0  0  0  0  0  0  0  0  0  0  0
   12.3160  -18.2590   20.8361 C   0  0  2  0  0  0  0  0  0  0  0  0
   13.2418  -17.9749   19.7809 N   0  0  0  0  0  0  0  0  0  0  0  0
   11.5995  -17.0533   21.3061 C   0  0  0  0  0  0  0  0  0  0  0  0
   12.1479  -15.9496   21.4030 O   0  0  0  0  0  0  0  0  0  0  0  0
    6.6503  -13.8761   20.2352 C   0  0  0  0  0  0  0  0  0  0  0  0
    7.7080  -14.1670   21.2900 C   0  0  0  0  0  0  0  0  0  0  0  0
    8.3489  -15.5007   21.0814 C   0  0  2  0  0  0  0  0  0  0  0  0
    7.2926  -16.5860   21.0281 C   0  0  0  0  0  0  0  0  0  0  0  0
    9.4437  -15.9073   21.9519 C   0  0  2  0  0  0  0  0  0  0  0  0
   10.2345  -17.0322   21.6888 N   0  0  0  0  0  0  0  0  0  0  0  0
    9.1385  -15.9004   23.4068 C   0  0  0  0  0  0  0  0  0  0  0  0
    9.2205  -16.9815   24.0376 O   0  0  0  0  0  0  0  0  0  0  0  0
    7.0244  -10.6803   26.6716 C   0  0  0  0  0  0  0  0  0  0  0  0
    6.0589  -12.0100   27.4188 S   0  0  0  0  0  0  0  0  0  0  0  0
    7.0052  -13.5595   27.2342 C   0  0  0  0  0  0  0  0  0  0  0  0
    7.4710  -13.6131   25.8103 C   0  0  0  0  0  0  0  0  0  0  0  0
    8.3786  -14.7664   25.5189 C   0  0  2  0  0  0  0  0  0  0  0  0
    8.7609  -14.7336   24.1111 N   0  0  0  0  0  0  0  0  0  0  0  0
    7.7725  -16.0883   25.7827 C   0  0  0  0  0  0  0  0  0  0  0  0
    8.1412  -16.7893   26.7756 O   0  0  0  0  0  0  0  0  0  0  0  0
    6.7852  -16.5971   24.9549 O   0  0  0  0  0  0  0  0  0  0  0  0
  2  1  1  1
  2  4  1  0
  3  2  1  0
  4 11  1  0
  5  4  2  0
  6  7  1  0
  8  9  1  1
  8  7  1  0
 10  8  1  0
 10 12  1  0
 10 11  1  6
 12 13  2  0
 12 19  1  0
 15 14  1  0
 16 15  1  0
 17 16  1  0
 18 17  1  6
 18 20  1  0
 19 18  1  0
 20 22  1  0
 21 20  2  0
M  END
$$$$
