AIM.pdb
     RDKit          3D

 22 21  0  0  1  0  0  0  0  0999 V2000
    6.6503  -17.6399   21.2096 C   0  0  0  0  0  0  0  0  0  0  0  0
    6.5920  -16.1378   21.3074 C   0  0  2  0  0  0  0  0  0  0  0  0
    6.7898  -15.5750   20.0054 N   0  0  0  0  0  0  0  0  0  0  0  0
    7.5283  -15.5908   22.3134 C   0  0  0  0  0  0  0  0  0  0  0  0
    8.7250  -15.3969   22.0716 O   0  0  0  0  0  0  0  0  0  0  0  0
    5.7944  -11.8765   26.0868 C   0  0  0  0  0  0  0  0  0  0  0  0
    6.5997  -12.5442   24.9816 C   0  0  0  0  0  0  0  0  0  0  0  0
    7.4951  -13.6148   25.5156 C   0  0  2  0  0  0  0  0  0  0  0  0
    8.6550  -12.9980   26.2712 C   0  0  0  0  0  0  0  0  0  0  0  0
    7.9774  -14.6530   24.6149 C   0  0  2  0  0  0  0  0  0  0  0  0
    7.1633  -15.2366   23.6369 N   0  0  0  0  0  0  0  0  0  0  0  0
    8.7623  -15.7403   25.2565 C   0  0  0  0  0  0  0  0  0  0  0  0
    8.1477  -16.5979   25.9348 O   0  0  0  0  0  0  0  0  0  0  0  0
   10.0581  -13.6250   29.5274 C   0  0  0  0  0  0  0  0  0  0  0  0
   11.2799  -14.8735   29.9825 S   0  0  0  0  0  0  0  0  0  0  0  0
   11.2192  -16.1980   28.7283 C   0  0  0  0  0  0  0  0  0  0  0  0
   10.6479  -15.5875   27.4841 C   0  0  0  0  0  0  0  0  0  0  0  0
   11.0032  -16.3293   26.2342 C   0  0  2  0  0  0  0  0  0  0  0  0
   10.1670  -15.8521   25.1376 N   0  0  0  0  0  0  0  0  0  0  0  0
   10.8150  -17.7921   26.3307 C   0  0  0  0  0  0  0  0  0  0  0  0
    9.6733  -18.2883   26.5823 O   0  0  0  0  0  0  0  0  0  0  0  0
   11.8787  -18.6606   26.1479 O   0  0  0  0  0  0  0  0  0  0  0  0
  2  1  1  6
  2  4  1  0
  3  2  1  0
  4 11  1  0
  5  4  2  0
  6  7  1  0
  8  9  1  6
  8  7  1  0
 10  8  1  0
 10 12  1  0
 10 11  1  1
 12 13  2  0
 12 19  1  0
 15 14  1  0
 16 15  1  0
 17 16  1  0
 18 17  1  1
 18 20  1  0
 19 18  1  0
 20 22  1  0
 21 20  2  0
M  END
$$$$
