AIM.pdb
     RDKit          3D

 22 21  0  0  1  0  0  0  0  0999 V2000
    8.9447  -18.4332   20.6643 C   0  0  0  0  0  0  0  0  0  0  0  0
    8.6436  -16.9682   20.4852 C   0  0  2  0  0  0  0  0  0  0  0  0
    9.2706  -16.5040   19.2842 N   0  0  0  0  0  0  0  0  0  0  0  0
    9.0072  -16.1581   21.6682 C   0  0  0  0  0  0  0  0  0  0  0  0
   10.1139  -15.6213   21.7916 O   0  0  0  0  0  0  0  0  0  0  0  0
    6.6244  -12.3428   25.9047 C   0  0  0  0  0  0  0  0  0  0  0  0
    7.8062  -13.1762   25.4308 C   0  0  0  0  0  0  0  0  0  0  0  0
    7.3873  -14.2343   24.4623 C   0  0  2  0  0  0  0  0  0  0  0  0
    6.2557  -15.0575   25.0439 C   0  0  0  0  0  0  0  0  0  0  0  0
    8.3984  -15.1083   23.8830 C   0  0  2  0  0  0  0  0  0  0  0  0
    8.1445  -15.9139   22.7666 N   0  0  0  0  0  0  0  0  0  0  0  0
    9.1752  -15.9191   24.8573 C   0  0  0  0  0  0  0  0  0  0  0  0
    8.7754  -17.0788   25.1197 O   0  0  0  0  0  0  0  0  0  0  0  0
    9.7184  -13.3699   29.8728 C   0  0  0  0  0  0  0  0  0  0  0  0
   11.0039  -14.5102   30.4260 S   0  0  0  0  0  0  0  0  0  0  0  0
   11.1958  -15.7986   29.1476 C   0  0  0  0  0  0  0  0  0  0  0  0
   10.8693  -15.1544   27.8341 C   0  0  0  0  0  0  0  0  0  0  0  0
   10.9018  -16.1020   26.6766 C   0  0  2  0  0  0  0  0  0  0  0  0
   10.3415  -15.4442   25.5007 N   0  0  0  0  0  0  0  0  0  0  0  0
   10.1331  -17.3450   26.8972 C   0  0  0  0  0  0  0  0  0  0  0  0
    8.8827  -17.3870   26.6786 O   0  0  0  0  0  0  0  0  0  0  0  0
   10.7565  -18.4975   27.3468 O   0  0  0  0  0  0  0  0  0  0  0  0
  2  1  1  1
  2  4  1  0
  3  2  1  0
  4 11  1  0
  5  4  2  0
  6  7  1  0
  8  9  1  1
  8  7  1  0
 10  8  1  0
 10 12  1  0
 10 11  1  6
 12 13  2  0
 12 19  1  0
 15 14  1  0
 16 15  1  0
 17 16  1  0
 18 17  1  1
 18 20  1  0
 19 18  1  0
 20 22  1  0
 21 20  2  0
M  END
$$$$
