AIM.pdb
     RDKit          3D

 22 21  0  0  1  0  0  0  0  0999 V2000
    7.3601  -17.2636   21.3170 C   0  0  0  0  0  0  0  0  0  0  0  0
    7.4344  -15.7623   21.2193 C   0  0  2  0  0  0  0  0  0  0  0  0
    8.0856  -15.4036   19.9952 N   0  0  0  0  0  0  0  0  0  0  0  0
    8.0643  -15.1398   22.4041 C   0  0  0  0  0  0  0  0  0  0  0  0
    9.2791  -14.9215   22.4734 O   0  0  0  0  0  0  0  0  0  0  0  0
    6.8982  -11.2495   27.1174 C   0  0  0  0  0  0  0  0  0  0  0  0
    7.8046  -12.3174   26.5225 C   0  0  0  0  0  0  0  0  0  0  0  0
    7.1316  -13.0650   25.4175 C   0  0  2  0  0  0  0  0  0  0  0  0
    5.8095  -13.6295   25.8972 C   0  0  0  0  0  0  0  0  0  0  0  0
    7.8779  -14.0825   24.6899 C   0  0  2  0  0  0  0  0  0  0  0  0
    7.3587  -14.7344   23.5651 N   0  0  0  0  0  0  0  0  0  0  0  0
    8.5518  -15.1048   25.5331 C   0  0  0  0  0  0  0  0  0  0  0  0
    7.9511  -16.1833   25.7553 O   0  0  0  0  0  0  0  0  0  0  0  0
   15.4968  -18.1433   27.2681 C   0  0  0  0  0  0  0  0  0  0  0  0
   14.5130  -16.8163   26.5402 S   0  0  0  0  0  0  0  0  0  0  0  0
   12.8055  -16.9801   27.1637 C   0  0  0  0  0  0  0  0  0  0  0  0
   11.9857  -15.9468   26.4515 C   0  0  0  0  0  0  0  0  0  0  0  0
   10.5332  -15.9823   26.8091 C   0  0  2  0  0  0  0  0  0  0  0  0
    9.8360  -14.9178   26.0950 N   0  0  0  0  0  0  0  0  0  0  0  0
   10.2657  -15.7975   28.2509 C   0  0  0  0  0  0  0  0  0  0  0  0
    9.9485  -14.6587   28.7155 O   0  0  0  0  0  0  0  0  0  0  0  0
   10.3526  -16.8616   29.1335 O   0  0  0  0  0  0  0  0  0  0  0  0
  2  1  1  1
  2  4  1  0
  3  2  1  0
  4 11  1  0
  5  4  2  0
  6  7  1  0
  8  9  1  1
  8  7  1  0
 10  8  1  0
 10 12  1  0
 10 11  1  6
 12 13  2  0
 12 19  1  0
 15 14  1  0
 16 15  1  0
 17 16  1  0
 18 17  1  1
 18 20  1  0
 19 18  1  0
 20 22  1  0
 21 20  2  0
M  END
$$$$
