MRF.pdb
     RDKit          3D

 31 31  0  0  1  0  0  0  0  0999 V2000
   27.1602  -14.4175  -13.9469 C   0  0  0  0  0  0  0  0  0  0  0  0
   25.7246  -14.1576  -14.9881 S   0  0  0  0  0  0  0  0  0  0  0  0
   24.8480  -15.6511  -15.4159 C   0  0  0  0  0  0  0  0  0  0  0  0
   25.2281  -16.8680  -14.6503 C   0  0  0  0  0  0  0  0  0  0  0  0
   24.4751  -18.1059  -15.0006 C   0  0  2  0  0  0  0  0  0  0  0  0
   23.0978  -17.8717  -15.3288 N   0  0  0  0  0  0  0  0  0  0  0  0
   24.5484  -19.1497  -13.9497 C   0  0  0  0  0  0  0  0  0  0  0  0
   23.6334  -19.2685  -13.0908 O   0  0  0  0  0  0  0  0  0  0  0  0
   25.0407  -25.9594  -15.1501 N   0  0  0  0  0  0  0  0  0  0  0  0
   25.5213  -25.4473  -16.3776 C   0  0  0  0  0  0  0  0  0  0  0  0
   25.0501  -25.7881  -17.5093 N   0  0  0  0  0  0  0  0  0  0  0  0
   26.5884  -24.5038  -16.3457 N   0  0  0  0  0  0  0  0  0  0  0  0
   27.1113  -23.9555  -15.1139 C   0  0  0  0  0  0  0  0  0  0  0  0
   26.1430  -22.9454  -14.5645 C   0  0  0  0  0  0  0  0  0  0  0  0
   26.6416  -22.1913  -13.3710 C   0  0  0  0  0  0  0  0  0  0  0  0
   25.7565  -21.0990  -12.8757 C   0  0  2  0  0  0  0  0  0  0  0  0
   25.6292  -20.0475  -13.8603 N   0  0  0  0  0  0  0  0  0  0  0  0
   26.2678  -20.6310  -11.5924 C   0  0  0  0  0  0  0  0  0  0  0  0
   27.4149  -20.1597  -11.5008 O   0  0  0  0  0  0  0  0  0  0  0  0
   25.3491  -25.3911  -18.4029 N   0  0  0  0  0  0  0  0  0  0  0  0
   25.4611  -20.7097  -10.4403 C   0  0  1  0  0  0  0  0  0  0  0  0
   26.0849  -20.9756   -9.1520 C   0  0  0  0  0  0  0  0  0  0  0  0
   27.1291  -19.9160   -8.9480 C   0  0  0  0  0  0  0  0  0  0  0  0
   27.7243  -19.8623   -7.6123 C   0  0  0  0  0  0  0  0  0  0  0  0
   27.2977  -18.9486   -6.6782 C   0  0  0  0  0  0  0  0  0  0  0  0
   27.8926  -18.9445   -5.4411 C   0  0  0  0  0  0  0  0  0  0  0  0
   28.8995  -19.8094   -5.0800 C   0  0  0  0  0  0  0  0  0  0  0  0
   29.3041  -20.7130   -6.0398 C   0  0  0  0  0  0  0  0  0  0  0  0
   28.7281  -20.7429   -7.2892 C   0  0  0  0  0  0  0  0  0  0  0  0
   25.1202  -20.9970   -8.0537 O   0  0  0  0  0  0  0  0  0  0  0  0
   23.9088  -20.6404   -8.1511 O   0  0  0  0  0  0  0  0  0  0  0  0
  1  2  1  0
  3  2  1  0
  4  3  1  0
  5  4  1  0
  5  6  1  1
  7  8  2  0
  7  5  1  0
 10 12  1  0
 10  9  1  0
 11 10  2  0
 13 12  1  0
 14 13  1  0
 14 15  1  0
 16 15  1  6
 16 17  1  0
 17  7  1  0
 18 20  1  0
 18 16  1  0
 19 18  2  0
 21 22  1  1
 21 20  1  0
 22 23  1  0
 23 24  2  0
 23 28  1  0
 24 25  1  0
 25 26  2  0
 27 26  1  0
 28 27  2  0
 29 21  1  0
 30 29  2  0
 31 29  1  0
M  END
$$$$
