MRF.pdb
     RDKit          3D

 31 31  0  0  1  0  0  0  0  0999 V2000
   21.8460  -18.3153  -19.1602 C   0  0  0  0  0  0  0  0  0  0  0  0
   22.1294  -16.6227  -18.6428 S   0  0  0  0  0  0  0  0  0  0  0  0
   20.7301  -15.5407  -18.8731 C   0  0  0  0  0  0  0  0  0  0  0  0
   20.9809  -14.0954  -18.6285 C   0  0  0  0  0  0  0  0  0  0  0  0
   19.8138  -13.1959  -18.8542 C   0  0  2  0  0  0  0  0  0  0  0  0
   19.1769  -13.3833  -20.1266 N   0  0  0  0  0  0  0  0  0  0  0  0
   20.1441  -11.7598  -18.6885 C   0  0  0  0  0  0  0  0  0  0  0  0
   20.7807  -11.1353  -19.5796 O   0  0  0  0  0  0  0  0  0  0  0  0
   14.4769   -6.8820  -15.1395 N   0  0  0  0  0  0  0  0  0  0  0  0
   14.5643   -8.1712  -15.7146 C   0  0  0  0  0  0  0  0  0  0  0  0
   13.6224   -9.0251  -15.6620 N   0  0  0  0  0  0  0  0  0  0  0  0
   15.7684   -8.5328  -16.3848 N   0  0  0  0  0  0  0  0  0  0  0  0
   16.8983   -7.6378  -16.5008 C   0  0  0  0  0  0  0  0  0  0  0  0
   17.9772   -8.2961  -17.3148 C   0  0  0  0  0  0  0  0  0  0  0  0
   19.0431   -8.9685  -16.5065 C   0  0  0  0  0  0  0  0  0  0  0  0
   20.1149   -9.6524  -17.2846 C   0  0  2  0  0  0  0  0  0  0  0  0
   19.7684  -11.0324  -17.5431 N   0  0  0  0  0  0  0  0  0  0  0  0
   21.3785   -9.4967  -16.5731 C   0  0  0  0  0  0  0  0  0  0  0  0
   21.6276  -10.1822  -15.5660 O   0  0  0  0  0  0  0  0  0  0  0  0
   13.6536   -9.9475  -16.1020 N   0  0  0  0  0  0  0  0  0  0  0  0
   22.3321   -8.5632  -17.0243 C   0  0  1  0  0  0  0  0  0  0  0  0
   23.6481   -8.5335  -16.4024 C   0  0  0  0  0  0  0  0  0  0  0  0
   24.2711   -9.8789  -16.6397 C   0  0  0  0  0  0  0  0  0  0  0  0
   25.6625  -10.0174  -16.2084 C   0  0  0  0  0  0  0  0  0  0  0  0
   25.9763  -10.4387  -14.9381 C   0  0  0  0  0  0  0  0  0  0  0  0
   27.2992  -10.5502  -14.5890 C   0  0  0  0  0  0  0  0  0  0  0  0
   28.3371  -10.2619  -15.4445 C   0  0  0  0  0  0  0  0  0  0  0  0
   27.9882   -9.8420  -16.7108 C   0  0  0  0  0  0  0  0  0  0  0  0
   26.6716   -9.7199  -17.0919 C   0  0  0  0  0  0  0  0  0  0  0  0
   24.4892   -7.4541  -16.9171 O   0  0  0  0  0  0  0  0  0  0  0  0
   24.3478   -6.9082  -18.0513 O   0  0  0  0  0  0  0  0  0  0  0  0
  1  2  1  0
  3  2  1  0
  4  3  1  0
  5  4  1  0
  5  6  1  6
  7  8  2  0
  7  5  1  0
 10 12  1  0
 10  9  1  0
 11 10  2  0
 13 12  1  0
 14 13  1  0
 14 15  1  0
 16 15  1  1
 16 17  1  0
 17  7  1  0
 18 20  1  0
 18 16  1  0
 19 18  2  0
 21 22  1  1
 21 20  1  0
 22 23  1  0
 23 24  2  0
 23 28  1  0
 24 25  1  0
 25 26  2  0
 27 26  1  0
 28 27  2  0
 29 21  1  0
 30 29  2  0
 31 29  1  0
M  END
$$$$
