MRF.pdb
     RDKit          3D

 31 31  0  0  1  0  0  0  0  0999 V2000
   27.8621  -17.0776  -18.2854 C   0  0  0  0  0  0  0  0  0  0  0  0
   26.2861  -17.4285  -19.0637 S   0  0  0  0  0  0  0  0  0  0  0  0
   25.7977  -19.1426  -18.9924 C   0  0  0  0  0  0  0  0  0  0  0  0
   25.7058  -19.7346  -17.6313 C   0  0  0  0  0  0  0  0  0  0  0  0
   26.9674  -20.3296  -17.1055 C   0  0  2  0  0  0  0  0  0  0  0  0
   27.4762  -21.4069  -17.9057 N   0  0  0  0  0  0  0  0  0  0  0  0
   26.8543  -20.7867  -15.6992 C   0  0  0  0  0  0  0  0  0  0  0  0
   25.7825  -21.2898  -15.2666 O   0  0  0  0  0  0  0  0  0  0  0  0
   33.0386  -21.9456   -9.1301 N   0  0  0  0  0  0  0  0  0  0  0  0
   31.7635  -21.8627   -8.5240 C   0  0  0  0  0  0  0  0  0  0  0  0
   31.5897  -21.8280   -7.2640 N   0  0  0  0  0  0  0  0  0  0  0  0
   30.6155  -21.8180   -9.3666 N   0  0  0  0  0  0  0  0  0  0  0  0
   30.6627  -21.3326  -10.7280 C   0  0  0  0  0  0  0  0  0  0  0  0
   29.2781  -21.3478  -11.3134 C   0  0  0  0  0  0  0  0  0  0  0  0
   29.2086  -20.9522  -12.7557 C   0  0  0  0  0  0  0  0  0  0  0  0
   27.8631  -21.0431  -13.3907 C   0  0  2  0  0  0  0  0  0  0  0  0
   27.9241  -20.6827  -14.7898 N   0  0  0  0  0  0  0  0  0  0  0  0
   26.9297  -20.2266  -12.6231 C   0  0  0  0  0  0  0  0  0  0  0  0
   27.0292  -18.9871  -12.6162 O   0  0  0  0  0  0  0  0  0  0  0  0
   30.6751  -21.8262   -6.8068 N   0  0  0  0  0  0  0  0  0  0  0  0
   25.9023  -20.8395  -11.8795 C   0  0  2  0  0  0  0  0  0  0  0  0
   25.0137  -20.0112  -11.0770 C   0  0  0  0  0  0  0  0  0  0  0  0
   23.6189  -20.2642  -11.5723 C   0  0  0  0  0  0  0  0  0  0  0  0
   23.3901  -19.9848  -12.9903 C   0  0  0  0  0  0  0  0  0  0  0  0
   23.5647  -18.7223  -13.5051 C   0  0  0  0  0  0  0  0  0  0  0  0
   23.3355  -18.5190  -14.8433 C   0  0  0  0  0  0  0  0  0  0  0  0
   22.9378  -19.5146  -15.7053 C   0  0  0  0  0  0  0  0  0  0  0  0
   22.7719  -20.7690  -15.1571 C   0  0  0  0  0  0  0  0  0  0  0  0
   22.9935  -21.0057  -13.8198 C   0  0  0  0  0  0  0  0  0  0  0  0
   25.1323  -20.2823   -9.6453 O   0  0  0  0  0  0  0  0  0  0  0  0
   25.8700  -21.1796   -9.1401 O   0  0  0  0  0  0  0  0  0  0  0  0
  1  2  1  0
  3  2  1  0
  4  3  1  0
  5  4  1  0
  5  6  1  6
  7  8  2  0
  7  5  1  0
 10 12  1  0
 10  9  1  0
 11 10  2  0
 13 12  1  0
 14 13  1  0
 14 15  1  0
 16 15  1  1
 16 17  1  0
 17  7  1  0
 18 20  1  0
 18 16  1  0
 19 18  2  0
 21 22  1  6
 21 20  1  0
 22 23  1  0
 23 24  2  0
 23 28  1  0
 24 25  1  0
 25 26  2  0
 27 26  1  0
 28 27  2  0
 29 21  1  0
 30 29  2  0
 31 29  1  0
M  END
$$$$
