MRF.pdb
     RDKit          3D

 31 31  0  0  1  0  0  0  0  0999 V2000
   23.1827  -36.8217  -10.2356 C   0  0  0  0  0  0  0  0  0  0  0  0
   24.5117  -35.7360  -10.7528 S   0  0  0  0  0  0  0  0  0  0  0  0
   24.9949  -34.5322   -9.5283 C   0  0  0  0  0  0  0  0  0  0  0  0
   26.1781  -33.6987   -9.8700 C   0  0  0  0  0  0  0  0  0  0  0  0
   26.5759  -32.6984   -8.8389 C   0  0  2  0  0  0  0  0  0  0  0  0
   27.7258  -31.9200   -9.2016 N   0  0  0  0  0  0  0  0  0  0  0  0
   26.8034  -33.2985   -7.5020 C   0  0  0  0  0  0  0  0  0  0  0  0
   25.9027  -33.9729   -6.9337 O   0  0  0  0  0  0  0  0  0  0  0  0
   34.7479  -35.8437   -5.1727 N   0  0  0  0  0  0  0  0  0  0  0  0
   33.8143  -36.8849   -5.3835 C   0  0  0  0  0  0  0  0  0  0  0  0
   34.1422  -38.1117   -5.4642 N   0  0  0  0  0  0  0  0  0  0  0  0
   32.4375  -36.5429   -5.5143 N   0  0  0  0  0  0  0  0  0  0  0  0
   31.9495  -35.1901   -5.3620 C   0  0  0  0  0  0  0  0  0  0  0  0
   30.4633  -35.1655   -5.5863 C   0  0  0  0  0  0  0  0  0  0  0  0
   29.8201  -33.8352   -5.3451 C   0  0  0  0  0  0  0  0  0  0  0  0
   28.3448  -33.7794   -5.5512 C   0  0  2  0  0  0  0  0  0  0  0  0
   28.0203  -33.1466   -6.8104 N   0  0  0  0  0  0  0  0  0  0  0  0
   27.7383  -33.1211   -4.3997 C   0  0  0  0  0  0  0  0  0  0  0  0
   28.1862  -32.0401   -3.9788 O   0  0  0  0  0  0  0  0  0  0  0  0
   33.4784  -38.8806   -5.5809 N   0  0  0  0  0  0  0  0  0  0  0  0
   26.6338  -33.7084   -3.7520 C   0  0  2  0  0  0  0  0  0  0  0  0
   26.0190  -33.0178   -2.6273 C   0  0  0  0  0  0  0  0  0  0  0  0
   25.0440  -32.0318   -3.2035 C   0  0  0  0  0  0  0  0  0  0  0  0
   24.2270  -31.3065   -2.2300 C   0  0  0  0  0  0  0  0  0  0  0  0
   24.7635  -30.8469   -1.0509 C   0  0  0  0  0  0  0  0  0  0  0  0
   23.9493  -30.1726   -0.1753 C   0  0  0  0  0  0  0  0  0  0  0  0
   22.6163  -29.9288   -0.4123 C   0  0  0  0  0  0  0  0  0  0  0  0
   22.1095  -30.4031   -1.6038 C   0  0  0  0  0  0  0  0  0  0  0  0
   22.8992  -31.0826   -2.5028 C   0  0  0  0  0  0  0  0  0  0  0  0
   25.3670  -33.9340   -1.6931 O   0  0  0  0  0  0  0  0  0  0  0  0
   24.6521  -34.9227   -2.0333 O   0  0  0  0  0  0  0  0  0  0  0  0
  1  2  1  0
  3  2  1  0
  4  3  1  0
  5  4  1  0
  5  6  1  6
  7  8  2  0
  7  5  1  0
 10 12  1  0
 10  9  1  0
 11 10  2  0
 13 12  1  0
 14 13  1  0
 14 15  1  0
 16 15  1  1
 16 17  1  0
 17  7  1  0
 18 20  1  0
 18 16  1  0
 19 18  2  0
 21 22  1  6
 21 20  1  0
 22 23  1  0
 23 24  2  0
 23 28  1  0
 24 25  1  0
 25 26  2  0
 27 26  1  0
 28 27  2  0
 29 21  1  0
 30 29  2  0
 31 29  1  0
M  END
$$$$
