MRF.pdb
     RDKit          3D

 31 31  0  0  1  0  0  0  0  0999 V2000
   27.3311  -24.8935  -22.3535 C   0  0  0  0  0  0  0  0  0  0  0  0
   27.8123  -26.6071  -22.5645 S   0  0  0  0  0  0  0  0  0  0  0  0
   28.5053  -27.3602  -21.1035 C   0  0  0  0  0  0  0  0  0  0  0  0
   28.6645  -26.4656  -19.9262 C   0  0  0  0  0  0  0  0  0  0  0  0
   29.3630  -27.0673  -18.7548 C   0  0  2  0  0  0  0  0  0  0  0  0
   28.7892  -28.3065  -18.3132 N   0  0  0  0  0  0  0  0  0  0  0  0
   29.4626  -26.1443  -17.5984 C   0  0  0  0  0  0  0  0  0  0  0  0
   28.5207  -26.0455  -16.7664 O   0  0  0  0  0  0  0  0  0  0  0  0
   36.0898  -25.7862  -12.5334 N   0  0  0  0  0  0  0  0  0  0  0  0
   35.9238  -26.2394  -13.8628 C   0  0  0  0  0  0  0  0  0  0  0  0
   36.4858  -27.2856  -14.3197 N   0  0  0  0  0  0  0  0  0  0  0  0
   35.0869  -25.4855  -14.7351 N   0  0  0  0  0  0  0  0  0  0  0  0
   33.8876  -24.8157  -14.2832 C   0  0  0  0  0  0  0  0  0  0  0  0
   32.7279  -25.2290  -15.1458 C   0  0  0  0  0  0  0  0  0  0  0  0
   32.1228  -24.1189  -15.9478 C   0  0  0  0  0  0  0  0  0  0  0  0
   30.7050  -24.3154  -16.3639 C   0  0  2  0  0  0  0  0  0  0  0  0
   30.5987  -25.3432  -17.3755 N   0  0  0  0  0  0  0  0  0  0  0  0
   30.1610  -23.0296  -16.7859 C   0  0  0  0  0  0  0  0  0  0  0  0
   30.7363  -22.3530  -17.6563 O   0  0  0  0  0  0  0  0  0  0  0  0
   36.3677  -27.6352  -15.2732 N   0  0  0  0  0  0  0  0  0  0  0  0
   28.9728  -22.5419  -16.2076 C   0  0  1  0  0  0  0  0  0  0  0  0
   28.5116  -21.2043  -16.5508 C   0  0  0  0  0  0  0  0  0  0  0  0
   28.3521  -21.1695  -18.0435 C   0  0  0  0  0  0  0  0  0  0  0  0
   27.2057  -21.9073  -18.5752 C   0  0  0  0  0  0  0  0  0  0  0  0
   25.9202  -21.4581  -18.3880 C   0  0  0  0  0  0  0  0  0  0  0  0
   24.8836  -22.1915  -18.9096 C   0  0  0  0  0  0  0  0  0  0  0  0
   25.0593  -23.3596  -19.6145 C   0  0  0  0  0  0  0  0  0  0  0  0
   26.3608  -23.7825  -19.7842 C   0  0  0  0  0  0  0  0  0  0  0  0
   27.4219  -23.0702  -19.2739 C   0  0  0  0  0  0  0  0  0  0  0  0
   27.2685  -20.8460  -15.8696 O   0  0  0  0  0  0  0  0  0  0  0  0
   26.6244  -21.6129  -15.0942 O   0  0  0  0  0  0  0  0  0  0  0  0
  1  2  1  0
  3  2  1  0
  4  3  1  0
  5  4  1  0
  5  6  1  1
  7  8  2  0
  7  5  1  0
 10 12  1  0
 10  9  1  0
 11 10  2  0
 13 12  1  0
 14 13  1  0
 14 15  1  0
 16 15  1  6
 16 17  1  0
 17  7  1  0
 18 20  1  0
 18 16  1  0
 19 18  2  0
 21 22  1  6
 21 20  1  0
 22 23  1  0
 23 24  2  0
 23 28  1  0
 24 25  1  0
 25 26  2  0
 27 26  1  0
 28 27  2  0
 29 21  1  0
 30 29  2  0
 31 29  1  0
M  END
$$$$
