MRF.pdb
     RDKit          3D

 31 31  0  0  1  0  0  0  0  0999 V2000
   21.7624  -20.8480  -18.8310 C   0  0  0  0  0  0  0  0  0  0  0  0
   22.3070  -19.2608  -18.2013 S   0  0  0  0  0  0  0  0  0  0  0  0
   23.6192  -19.3598  -16.9970 C   0  0  0  0  0  0  0  0  0  0  0  0
   24.1480  -18.0596  -16.5059 C   0  0  0  0  0  0  0  0  0  0  0  0
   25.2317  -18.1531  -15.4865 C   0  0  2  0  0  0  0  0  0  0  0  0
   26.3426  -18.9641  -15.8963 N   0  0  0  0  0  0  0  0  0  0  0  0
   24.7506  -18.6277  -14.1665 C   0  0  0  0  0  0  0  0  0  0  0  0
   23.7813  -18.0642  -13.5902 O   0  0  0  0  0  0  0  0  0  0  0  0
   23.8522  -24.0839  -16.4069 N   0  0  0  0  0  0  0  0  0  0  0  0
   25.0513  -24.6794  -15.9512 C   0  0  0  0  0  0  0  0  0  0  0  0
   25.8733  -25.2723  -16.7204 N   0  0  0  0  0  0  0  0  0  0  0  0
   25.3531  -24.6141  -14.5604 N   0  0  0  0  0  0  0  0  0  0  0  0
   24.5374  -23.8830  -13.6163 C   0  0  0  0  0  0  0  0  0  0  0  0
   25.1248  -22.5162  -13.4000 C   0  0  0  0  0  0  0  0  0  0  0  0
   24.3644  -21.6579  -12.4374 C   0  0  0  0  0  0  0  0  0  0  0  0
   24.8861  -20.2745  -12.2475 C   0  0  2  0  0  0  0  0  0  0  0  0
   25.3448  -19.7164  -13.5002 N   0  0  0  0  0  0  0  0  0  0  0  0
   25.9159  -20.3027  -11.2151 C   0  0  0  0  0  0  0  0  0  0  0  0
   27.0864  -20.6151  -11.4957 O   0  0  0  0  0  0  0  0  0  0  0  0
   26.7186  -25.7521  -16.4030 N   0  0  0  0  0  0  0  0  0  0  0  0
   25.5905  -19.9742   -9.8846 C   0  0  1  0  0  0  0  0  0  0  0  0
   26.5995  -20.1289   -8.8465 C   0  0  0  0  0  0  0  0  0  0  0  0
   26.2473  -19.1638   -7.7513 C   0  0  0  0  0  0  0  0  0  0  0  0
   27.0879  -19.2292   -6.5552 C   0  0  0  0  0  0  0  0  0  0  0  0
   27.0095  -20.2915   -5.6864 C   0  0  0  0  0  0  0  0  0  0  0  0
   27.8227  -20.2994   -4.5804 C   0  0  0  0  0  0  0  0  0  0  0  0
   28.7185  -19.2967   -4.2896 C   0  0  0  0  0  0  0  0  0  0  0  0
   28.7722  -18.2460   -5.1811 C   0  0  0  0  0  0  0  0  0  0  0  0
   27.9706  -18.2082   -6.2989 C   0  0  0  0  0  0  0  0  0  0  0  0
   26.6864  -21.4999   -8.3464 O   0  0  0  0  0  0  0  0  0  0  0  0
   25.7018  -22.2879   -8.2280 O   0  0  0  0  0  0  0  0  0  0  0  0
  1  2  1  0
  3  2  1  0
  4  3  1  0
  5  4  1  0
  5  6  1  6
  7  8  2  0
  7  5  1  0
 10 12  1  0
 10  9  1  0
 11 10  2  0
 13 12  1  0
 14 13  1  0
 14 15  1  0
 16 15  1  6
 16 17  1  0
 17  7  1  0
 18 20  1  0
 18 16  1  0
 19 18  2  0
 21 22  1  1
 21 20  1  0
 22 23  1  0
 23 24  2  0
 23 28  1  0
 24 25  1  0
 25 26  2  0
 27 26  1  0
 28 27  2  0
 29 21  1  0
 30 29  2  0
 31 29  1  0
M  END
$$$$
