MRF.pdb
     RDKit          3D

 31 31  0  0  1  0  0  0  0  0999 V2000
   25.4901  -18.0440  -17.8798 C   0  0  0  0  0  0  0  0  0  0  0  0
   27.2438  -18.3093  -18.1383 S   0  0  0  0  0  0  0  0  0  0  0  0
   28.0918  -19.0247  -16.7415 C   0  0  0  0  0  0  0  0  0  0  0  0
   27.4560  -18.8054  -15.4151 C   0  0  0  0  0  0  0  0  0  0  0  0
   27.8783  -19.7468  -14.3392 C   0  0  2  0  0  0  0  0  0  0  0  0
   27.7804  -21.1298  -14.7097 N   0  0  0  0  0  0  0  0  0  0  0  0
   27.1513  -19.5379  -13.0636 C   0  0  0  0  0  0  0  0  0  0  0  0
   27.0731  -18.3922  -12.5436 O   0  0  0  0  0  0  0  0  0  0  0  0
   23.6058  -24.0843  -13.8548 N   0  0  0  0  0  0  0  0  0  0  0  0
   22.4639  -23.2687  -13.6785 C   0  0  0  0  0  0  0  0  0  0  0  0
   21.3487  -23.7101  -13.2536 N   0  0  0  0  0  0  0  0  0  0  0  0
   22.5667  -21.8833  -13.9947 N   0  0  0  0  0  0  0  0  0  0  0  0
   23.7843  -21.1261  -13.8063 C   0  0  0  0  0  0  0  0  0  0  0  0
   23.6653  -20.2871  -12.5646 C   0  0  0  0  0  0  0  0  0  0  0  0
   24.3421  -20.8615  -11.3589 C   0  0  0  0  0  0  0  0  0  0  0  0
   25.7624  -20.4568  -11.1560 C   0  0  2  0  0  0  0  0  0  0  0  0
   26.5211  -20.5947  -12.3793 N   0  0  0  0  0  0  0  0  0  0  0  0
   26.3115  -21.2256  -10.0449 C   0  0  0  0  0  0  0  0  0  0  0  0
   26.6526  -22.4111  -10.2017 O   0  0  0  0  0  0  0  0  0  0  0  0
   20.5065  -23.1410  -13.1428 N   0  0  0  0  0  0  0  0  0  0  0  0
   26.4606  -20.6274   -8.7783 C   0  0  2  0  0  0  0  0  0  0  0  0
   26.8312  -21.4556   -7.6397 C   0  0  0  0  0  0  0  0  0  0  0  0
   28.2209  -21.0495   -7.2412 C   0  0  0  0  0  0  0  0  0  0  0  0
   28.3094  -20.1007   -6.1307 C   0  0  0  0  0  0  0  0  0  0  0  0
   27.8088  -18.8253   -6.2414 C   0  0  0  0  0  0  0  0  0  0  0  0
   27.9199  -17.9784   -5.1668 C   0  0  0  0  0  0  0  0  0  0  0  0
   28.5084  -18.3361   -3.9760 C   0  0  0  0  0  0  0  0  0  0  0  0
   29.0003  -19.6220   -3.8979 C   0  0  0  0  0  0  0  0  0  0  0  0
   28.9046  -20.4952   -4.9571 C   0  0  0  0  0  0  0  0  0  0  0  0
   25.8946  -21.3298   -6.5242 O   0  0  0  0  0  0  0  0  0  0  0  0
   24.8667  -20.5897   -6.5258 O   0  0  0  0  0  0  0  0  0  0  0  0
  1  2  1  0
  3  2  1  0
  4  3  1  0
  5  4  1  0
  5  6  1  6
  7  8  2  0
  7  5  1  0
 10 12  1  0
 10  9  1  0
 11 10  2  0
 13 12  1  0
 14 13  1  0
 14 15  1  0
 16 15  1  6
 16 17  1  0
 17  7  1  0
 18 20  1  0
 18 16  1  0
 19 18  2  0
 21 22  1  1
 21 20  1  0
 22 23  1  0
 23 24  2  0
 23 28  1  0
 24 25  1  0
 25 26  2  0
 27 26  1  0
 28 27  2  0
 29 21  1  0
 30 29  2  0
 31 29  1  0
M  END
$$$$
