MRF.pdb
     RDKit          3D

 31 31  0  0  1  0  0  0  0  0999 V2000
   27.4545  -14.6410  -14.6290 C   0  0  0  0  0  0  0  0  0  0  0  0
   28.3154  -14.8693  -16.1845 S   0  0  0  0  0  0  0  0  0  0  0  0
   27.8663  -16.3567  -17.0607 C   0  0  0  0  0  0  0  0  0  0  0  0
   26.9883  -17.3037  -16.3231 C   0  0  0  0  0  0  0  0  0  0  0  0
   26.7024  -18.5887  -17.0225 C   0  0  2  0  0  0  0  0  0  0  0  0
   26.1796  -18.4215  -18.3485 N   0  0  0  0  0  0  0  0  0  0  0  0
   25.7972  -19.4799  -16.2573 C   0  0  0  0  0  0  0  0  0  0  0  0
   24.6301  -19.1114  -15.9549 O   0  0  0  0  0  0  0  0  0  0  0  0
   24.6826  -26.7955  -17.4783 N   0  0  0  0  0  0  0  0  0  0  0  0
   25.9000  -26.4632  -16.8397 C   0  0  0  0  0  0  0  0  0  0  0  0
   27.0401  -26.8124  -17.2839 N   0  0  0  0  0  0  0  0  0  0  0  0
   25.8473  -25.7009  -15.6373 N   0  0  0  0  0  0  0  0  0  0  0  0
   24.6049  -25.3657  -14.9774 C   0  0  0  0  0  0  0  0  0  0  0  0
   24.6757  -23.9549  -14.4630 C   0  0  0  0  0  0  0  0  0  0  0  0
   25.4370  -23.0107  -15.3408 C   0  0  0  0  0  0  0  0  0  0  0  0
   25.4660  -21.5886  -14.8949 C   0  0  2  0  0  0  0  0  0  0  0  0
   26.1910  -20.7642  -15.8361 N   0  0  0  0  0  0  0  0  0  0  0  0
   26.0082  -21.5357  -13.5420 C   0  0  0  0  0  0  0  0  0  0  0  0
   27.2252  -21.6926  -13.3403 O   0  0  0  0  0  0  0  0  0  0  0  0
   27.9283  -26.6066  -16.8211 N   0  0  0  0  0  0  0  0  0  0  0  0
   25.1524  -21.3049  -12.4472 C   0  0  1  0  0  0  0  0  0  0  0  0
   25.6961  -21.3501  -11.0974 C   0  0  0  0  0  0  0  0  0  0  0  0
   26.8017  -20.3355  -11.0403 C   0  0  0  0  0  0  0  0  0  0  0  0
   27.3643  -20.0861   -9.7128 C   0  0  0  0  0  0  0  0  0  0  0  0
   26.7590  -19.2201   -8.8335 C   0  0  0  0  0  0  0  0  0  0  0  0
   27.3319  -19.0251   -7.6013 C   0  0  0  0  0  0  0  0  0  0  0  0
   28.4865  -19.6518   -7.1931 C   0  0  0  0  0  0  0  0  0  0  0  0
   29.0684  -20.5137   -8.0986 C   0  0  0  0  0  0  0  0  0  0  0  0
   28.5192  -20.7310   -9.3415 C   0  0  0  0  0  0  0  0  0  0  0  0
   24.6828  -21.0979  -10.0741 O   0  0  0  0  0  0  0  0  0  0  0  0
   23.6004  -20.4702  -10.2706 O   0  0  0  0  0  0  0  0  0  0  0  0
  1  2  1  0
  3  2  1  0
  4  3  1  0
  5  4  1  0
  5  6  1  6
  7  8  2  0
  7  5  1  0
 10 12  1  0
 10  9  1  0
 11 10  2  0
 13 12  1  0
 14 13  1  0
 14 15  1  0
 16 15  1  6
 16 17  1  0
 17  7  1  0
 18 20  1  0
 18 16  1  0
 19 18  2  0
 21 22  1  1
 21 20  1  0
 22 23  1  0
 23 24  2  0
 23 28  1  0
 24 25  1  0
 25 26  2  0
 27 26  1  0
 28 27  2  0
 29 21  1  0
 30 29  2  0
 31 29  1  0
M  END
$$$$
