MRF.pdb
     RDKit          3D

 31 31  0  0  1  0  0  0  0  0999 V2000
   21.2342  -14.1109  -20.4994 C   0  0  0  0  0  0  0  0  0  0  0  0
   22.1942  -14.4698  -21.9699 S   0  0  0  0  0  0  0  0  0  0  0  0
   22.6862  -16.1772  -22.1267 C   0  0  0  0  0  0  0  0  0  0  0  0
   22.1101  -17.1127  -21.1245 C   0  0  0  0  0  0  0  0  0  0  0  0
   22.3998  -16.7826  -19.7000 C   0  0  2  0  0  0  0  0  0  0  0  0
   23.8006  -16.7078  -19.3970 N   0  0  0  0  0  0  0  0  0  0  0  0
   21.7496  -17.7103  -18.7429 C   0  0  0  0  0  0  0  0  0  0  0  0
   20.6928  -18.3238  -19.0530 O   0  0  0  0  0  0  0  0  0  0  0  0
   25.4270  -21.8830  -11.9823 N   0  0  0  0  0  0  0  0  0  0  0  0
   24.6273  -22.6594  -12.8530 C   0  0  0  0  0  0  0  0  0  0  0  0
   24.7777  -23.9133  -13.0080 N   0  0  0  0  0  0  0  0  0  0  0  0
   23.6032  -22.0041  -13.5957 N   0  0  0  0  0  0  0  0  0  0  0  0
   23.2763  -20.6073  -13.4134 C   0  0  0  0  0  0  0  0  0  0  0  0
   22.2283  -20.2036  -14.4126 C   0  0  0  0  0  0  0  0  0  0  0  0
   22.7030  -19.2415  -15.4570 C   0  0  0  0  0  0  0  0  0  0  0  0
   21.6929  -18.8376  -16.4761 C   0  0  2  0  0  0  0  0  0  0  0  0
   22.2731  -17.9484  -17.4579 N   0  0  0  0  0  0  0  0  0  0  0  0
   20.5401  -18.2670  -15.7886 C   0  0  0  0  0  0  0  0  0  0  0  0
   20.6291  -17.1746  -15.2012 O   0  0  0  0  0  0  0  0  0  0  0  0
   24.2301  -24.4852  -13.6549 N   0  0  0  0  0  0  0  0  0  0  0  0
   19.3098  -18.9531  -15.7850 C   0  0  1  0  0  0  0  0  0  0  0  0
   18.1531  -18.3361  -15.1518 C   0  0  0  0  0  0  0  0  0  0  0  0
   17.5316  -17.4280  -16.1735 C   0  0  0  0  0  0  0  0  0  0  0  0
   18.0216  -16.0492  -16.1768 C   0  0  0  0  0  0  0  0  0  0  0  0
   17.8794  -15.2397  -15.0751 C   0  0  0  0  0  0  0  0  0  0  0  0
   18.3586  -13.9547  -15.1355 C   0  0  0  0  0  0  0  0  0  0  0  0
   18.9779  -13.4267  -16.2445 C   0  0  0  0  0  0  0  0  0  0  0  0
   19.1045  -14.2648  -17.3323 C   0  0  0  0  0  0  0  0  0  0  0  0
   18.6348  -15.5579  -17.3038 C   0  0  0  0  0  0  0  0  0  0  0  0
   17.1933  -19.3198  -14.6534 O   0  0  0  0  0  0  0  0  0  0  0  0
   17.3555  -20.5750  -14.7034 O   0  0  0  0  0  0  0  0  0  0  0  0
  1  2  1  0
  3  2  1  0
  4  3  1  0
  5  4  1  0
  5  6  1  6
  7  8  2  0
  7  5  1  0
 10 12  1  0
 10  9  1  0
 11 10  2  0
 13 12  1  0
 14 13  1  0
 14 15  1  0
 16 15  1  1
 16 17  1  0
 17  7  1  0
 18 20  1  0
 18 16  1  0
 19 18  2  0
 21 22  1  1
 21 20  1  0
 22 23  1  0
 23 24  2  0
 23 28  1  0
 24 25  1  0
 25 26  2  0
 27 26  1  0
 28 27  2  0
 29 21  1  0
 30 29  2  0
 31 29  1  0
M  END
$$$$
