MRF.pdb
     RDKit          3D

 31 31  0  0  1  0  0  0  0  0999 V2000
   22.6867  -13.5776  -18.6560 C   0  0  0  0  0  0  0  0  0  0  0  0
   23.6653  -13.7400  -20.1488 S   0  0  0  0  0  0  0  0  0  0  0  0
   24.9787  -14.9419  -20.0385 C   0  0  0  0  0  0  0  0  0  0  0  0
   24.7801  -16.0301  -19.0445 C   0  0  0  0  0  0  0  0  0  0  0  0
   25.9188  -16.9812  -18.9003 C   0  0  2  0  0  0  0  0  0  0  0  0
   26.1977  -17.7340  -20.0899 N   0  0  0  0  0  0  0  0  0  0  0  0
   25.7536  -17.9202  -17.7644 C   0  0  0  0  0  0  0  0  0  0  0  0
   25.0696  -18.9718  -17.8886 O   0  0  0  0  0  0  0  0  0  0  0  0
   26.6878  -20.9867  -10.3217 N   0  0  0  0  0  0  0  0  0  0  0  0
   26.1043  -21.5773  -11.4666 C   0  0  0  0  0  0  0  0  0  0  0  0
   25.0646  -22.3095  -11.4221 N   0  0  0  0  0  0  0  0  0  0  0  0
   26.7124  -21.3425  -12.7334 N   0  0  0  0  0  0  0  0  0  0  0  0
   27.6777  -20.2887  -12.9545 C   0  0  0  0  0  0  0  0  0  0  0  0
   26.9710  -18.9625  -12.9947 C   0  0  0  0  0  0  0  0  0  0  0  0
   27.1316  -18.2110  -14.2796 C   0  0  0  0  0  0  0  0  0  0  0  0
   26.0849  -18.4571  -15.3120 C   0  0  2  0  0  0  0  0  0  0  0  0
   26.3443  -17.6867  -16.5080 N   0  0  0  0  0  0  0  0  0  0  0  0
   24.7778  -18.1887  -14.7232 C   0  0  0  0  0  0  0  0  0  0  0  0
   24.5826  -17.1572  -14.0566 O   0  0  0  0  0  0  0  0  0  0  0  0
   24.6228  -22.7358  -12.2397 N   0  0  0  0  0  0  0  0  0  0  0  0
   23.7205  -19.1012  -14.9063 C   0  0  2  0  0  0  0  0  0  0  0  0
   22.4312  -18.8298  -14.2868 C   0  0  0  0  0  0  0  0  0  0  0  0
   21.9220  -17.5507  -14.8864 C   0  0  0  0  0  0  0  0  0  0  0  0
   21.4754  -17.6370  -16.2772 C   0  0  0  0  0  0  0  0  0  0  0  0
   22.1881  -17.0451  -17.2926 C   0  0  0  0  0  0  0  0  0  0  0  0
   21.7213  -17.1591  -18.5785 C   0  0  0  0  0  0  0  0  0  0  0  0
   20.5717  -17.8372  -18.9116 C   0  0  0  0  0  0  0  0  0  0  0  0
   19.8805  -18.4192  -17.8699 C   0  0  0  0  0  0  0  0  0  0  0  0
   20.3218  -18.3233  -16.5700 C   0  0  0  0  0  0  0  0  0  0  0  0
   21.4787  -19.9240  -14.4679 O   0  0  0  0  0  0  0  0  0  0  0  0
   21.7116  -20.9812  -15.1254 O   0  0  0  0  0  0  0  0  0  0  0  0
  1  2  1  0
  3  2  1  0
  4  3  1  0
  5  4  1  0
  5  6  1  6
  7  8  2  0
  7  5  1  0
 10 12  1  0
 10  9  1  0
 11 10  2  0
 13 12  1  0
 14 13  1  0
 14 15  1  0
 16 15  1  1
 16 17  1  0
 17  7  1  0
 18 20  1  0
 18 16  1  0
 19 18  2  0
 21 22  1  6
 21 20  1  0
 22 23  1  0
 23 24  2  0
 23 28  1  0
 24 25  1  0
 25 26  2  0
 27 26  1  0
 28 27  2  0
 29 21  1  0
 30 29  2  0
 31 29  1  0
M  END
$$$$
