MRF.pdb
     RDKit          3D

 31 31  0  0  1  0  0  0  0  0999 V2000
   27.6793  -17.8092   -6.0043 C   0  0  0  0  0  0  0  0  0  0  0  0
   28.6008  -19.3373   -6.1733 S   0  0  0  0  0  0  0  0  0  0  0  0
   27.8704  -20.5146   -7.2968 C   0  0  0  0  0  0  0  0  0  0  0  0
   27.1193  -19.9371   -8.4431 C   0  0  0  0  0  0  0  0  0  0  0  0
   26.5028  -20.9290   -9.3695 C   0  0  2  0  0  0  0  0  0  0  0  0
   27.4460  -21.8415   -9.9505 N   0  0  0  0  0  0  0  0  0  0  0  0
   25.7112  -20.2999  -10.4543 C   0  0  0  0  0  0  0  0  0  0  0  0
   24.9391  -19.3326  -10.2144 O   0  0  0  0  0  0  0  0  0  0  0  0
   26.5914  -22.5609  -16.5905 N   0  0  0  0  0  0  0  0  0  0  0  0
   27.8911  -22.5940  -16.0339 C   0  0  0  0  0  0  0  0  0  0  0  0
   28.5831  -23.6574  -15.9374 N   0  0  0  0  0  0  0  0  0  0  0  0
   28.4533  -21.3756  -15.5550 N   0  0  0  0  0  0  0  0  0  0  0  0
   27.7779  -20.1024  -15.6741 C   0  0  0  0  0  0  0  0  0  0  0  0
   27.0940  -19.7749  -14.3761 C   0  0  0  0  0  0  0  0  0  0  0  0
   25.7649  -20.4383  -14.1890 C   0  0  0  0  0  0  0  0  0  0  0  0
   25.0720  -20.1540  -12.9002 C   0  0  2  0  0  0  0  0  0  0  0  0
   25.7817  -20.7457  -11.7878 N   0  0  0  0  0  0  0  0  0  0  0  0
   23.6878  -20.6012  -13.0070 C   0  0  0  0  0  0  0  0  0  0  0  0
   23.3750  -21.7694  -12.7176 O   0  0  0  0  0  0  0  0  0  0  0  0
   29.5291  -23.6981  -15.5515 N   0  0  0  0  0  0  0  0  0  0  0  0
   22.6890  -19.7078  -13.4412 C   0  0  2  0  0  0  0  0  0  0  0  0
   21.2949  -20.1256  -13.4015 C   0  0  0  0  0  0  0  0  0  0  0  0
   20.4784  -18.8905  -13.1509 C   0  0  0  0  0  0  0  0  0  0  0  0
   20.4770  -17.9025  -14.2303 C   0  0  0  0  0  0  0  0  0  0  0  0
   19.4934  -17.8976  -15.1905 C   0  0  0  0  0  0  0  0  0  0  0  0
   19.5431  -16.9468  -16.1795 C   0  0  0  0  0  0  0  0  0  0  0  0
   20.5288  -15.9912  -16.2651 C   0  0  0  0  0  0  0  0  0  0  0  0
   21.5000  -16.0238  -15.2867 C   0  0  0  0  0  0  0  0  0  0  0  0
   21.4788  -16.9638  -14.2819 C   0  0  0  0  0  0  0  0  0  0  0  0
   20.8766  -20.8062  -14.6259 O   0  0  0  0  0  0  0  0  0  0  0  0
   21.5780  -20.8954  -15.6768 O   0  0  0  0  0  0  0  0  0  0  0  0
  1  2  1  0
  3  2  1  0
  4  3  1  0
  5  4  1  0
  5  6  1  6
  7  8  2  0
  7  5  1  0
 10 12  1  0
 10  9  1  0
 11 10  2  0
 13 12  1  0
 14 13  1  0
 14 15  1  0
 16 15  1  6
 16 17  1  0
 17  7  1  0
 18 20  1  0
 18 16  1  0
 19 18  2  0
 21 22  1  1
 21 20  1  0
 22 23  1  0
 23 24  2  0
 23 28  1  0
 24 25  1  0
 25 26  2  0
 27 26  1  0
 28 27  2  0
 29 21  1  0
 30 29  2  0
 31 29  1  0
M  END
$$$$
