MRF.pdb
     RDKit          3D

 31 31  0  0  1  0  0  0  0  0999 V2000
   29.9215  -20.0596   -4.6904 C   0  0  0  0  0  0  0  0  0  0  0  0
   28.2358  -20.0027   -4.0840 S   0  0  0  0  0  0  0  0  0  0  0  0
   27.0154  -19.6590   -5.3388 C   0  0  0  0  0  0  0  0  0  0  0  0
   27.2928  -20.2256   -6.6855 C   0  0  0  0  0  0  0  0  0  0  0  0
   26.3006  -19.8791   -7.7426 C   0  0  2  0  0  0  0  0  0  0  0  0
   24.9380  -20.1072   -7.3539 N   0  0  0  0  0  0  0  0  0  0  0  0
   26.5555  -20.5694   -9.0301 C   0  0  0  0  0  0  0  0  0  0  0  0
   27.6938  -21.0409   -9.2971 O   0  0  0  0  0  0  0  0  0  0  0  0
   25.2540  -23.1041  -16.3353 N   0  0  0  0  0  0  0  0  0  0  0  0
   23.9202  -23.4772  -16.0489 C   0  0  0  0  0  0  0  0  0  0  0  0
   23.0708  -23.7787  -16.9471 N   0  0  0  0  0  0  0  0  0  0  0  0
   23.5060  -23.5152  -14.6863 N   0  0  0  0  0  0  0  0  0  0  0  0
   24.3924  -23.1938  -13.5899 C   0  0  0  0  0  0  0  0  0  0  0  0
   24.6130  -21.7075  -13.5433 C   0  0  0  0  0  0  0  0  0  0  0  0
   24.5427  -21.1112  -12.1718 C   0  0  0  0  0  0  0  0  0  0  0  0
   25.7592  -21.2788  -11.3268 C   0  0  2  0  0  0  0  0  0  0  0  0
   25.5526  -20.7300  -10.0050 N   0  0  0  0  0  0  0  0  0  0  0  0
   26.8964  -20.6912  -12.0259 C   0  0  0  0  0  0  0  0  0  0  0  0
   27.0323  -19.4567  -12.0898 O   0  0  0  0  0  0  0  0  0  0  0  0
   22.0906  -24.0036  -16.7630 N   0  0  0  0  0  0  0  0  0  0  0  0
   27.8552  -21.5225  -12.6374 C   0  0  2  0  0  0  0  0  0  0  0  0
   28.9969  -20.9175  -13.3084 C   0  0  0  0  0  0  0  0  0  0  0  0
   30.1840  -21.7897  -13.0174 C   0  0  0  0  0  0  0  0  0  0  0  0
   30.7967  -21.6068  -11.7012 C   0  0  0  0  0  0  0  0  0  0  0  0
   31.8183  -22.4199  -11.2715 C   0  0  0  0  0  0  0  0  0  0  0  0
   32.3550  -22.2015  -10.0270 C   0  0  0  0  0  0  0  0  0  0  0  0
   31.9252  -21.2076   -9.1786 C   0  0  0  0  0  0  0  0  0  0  0  0
   30.8992  -20.4100   -9.6399 C   0  0  0  0  0  0  0  0  0  0  0  0
   30.3398  -20.6028  -10.8822 C   0  0  0  0  0  0  0  0  0  0  0  0
   28.7857  -20.7606  -14.7466 O   0  0  0  0  0  0  0  0  0  0  0  0
   27.7705  -21.1814  -15.3763 O   0  0  0  0  0  0  0  0  0  0  0  0
  1  2  1  0
  3  2  1  0
  4  3  1  0
  5  4  1  0
  5  6  1  1
  7  8  2  0
  7  5  1  0
 10 12  1  0
 10  9  1  0
 11 10  2  0
 13 12  1  0
 14 13  1  0
 14 15  1  0
 16 15  1  6
 16 17  1  0
 17  7  1  0
 18 20  1  0
 18 16  1  0
 19 18  2  0
 21 22  1  1
 21 20  1  0
 22 23  1  0
 23 24  2  0
 23 28  1  0
 24 25  1  0
 25 26  2  0
 27 26  1  0
 28 27  2  0
 29 21  1  0
 30 29  2  0
 31 29  1  0
M  END
$$$$
