MRF.pdb
     RDKit          3D

 31 31  0  0  1  0  0  0  0  0999 V2000
   32.5628  -22.0453  -10.2241 C   0  0  0  0  0  0  0  0  0  0  0  0
   32.9692  -22.6686  -11.8547 S   0  0  0  0  0  0  0  0  0  0  0  0
   31.8258  -22.1795  -13.1335 C   0  0  0  0  0  0  0  0  0  0  0  0
   30.8447  -21.1269  -12.7582 C   0  0  0  0  0  0  0  0  0  0  0  0
   29.4206  -21.5653  -12.7147 C   0  0  2  0  0  0  0  0  0  0  0  0
   28.8981  -21.9610  -13.9914 N   0  0  0  0  0  0  0  0  0  0  0  0
   28.5168  -20.5521  -12.1182 C   0  0  0  0  0  0  0  0  0  0  0  0
   28.9234  -19.7761  -11.2117 O   0  0  0  0  0  0  0  0  0  0  0  0
   22.5540  -21.0871  -14.9965 N   0  0  0  0  0  0  0  0  0  0  0  0
   22.0375  -22.0001  -14.0479 C   0  0  0  0  0  0  0  0  0  0  0  0
   21.7483  -23.2076  -14.3257 N   0  0  0  0  0  0  0  0  0  0  0  0
   21.8282  -21.5442  -12.7144 N   0  0  0  0  0  0  0  0  0  0  0  0
   22.3098  -20.2657  -12.2401 C   0  0  0  0  0  0  0  0  0  0  0  0
   23.5542  -20.4714  -11.4222 C   0  0  0  0  0  0  0  0  0  0  0  0
   24.7948  -20.7076  -12.2264 C   0  0  0  0  0  0  0  0  0  0  0  0
   26.0584  -20.1717  -11.6450 C   0  0  2  0  0  0  0  0  0  0  0  0
   27.1779  -20.4086  -12.5291 N   0  0  0  0  0  0  0  0  0  0  0  0
   26.2393  -20.7448  -10.3160 C   0  0  0  0  0  0  0  0  0  0  0  0
   26.4620  -21.9601  -10.1748 O   0  0  0  0  0  0  0  0  0  0  0  0
   21.4285  -23.8971  -13.6419 N   0  0  0  0  0  0  0  0  0  0  0  0
   26.1630  -19.9211   -9.1759 C   0  0  2  0  0  0  0  0  0  0  0  0
   26.6248  -20.4355   -7.8945 C   0  0  0  0  0  0  0  0  0  0  0  0
   27.7173  -19.5178   -7.4265 C   0  0  0  0  0  0  0  0  0  0  0  0
   28.1456  -19.6992   -6.0390 C   0  0  0  0  0  0  0  0  0  0  0  0
   29.2709  -20.4253   -5.7297 C   0  0  0  0  0  0  0  0  0  0  0  0
   29.6247  -20.5621   -4.4104 C   0  0  0  0  0  0  0  0  0  0  0  0
   28.9115  -20.0096   -3.3719 C   0  0  0  0  0  0  0  0  0  0  0  0
   27.7883  -19.2876   -3.7163 C   0  0  0  0  0  0  0  0  0  0  0  0
   27.4067  -19.1318   -5.0292 C   0  0  0  0  0  0  0  0  0  0  0  0
   25.5499  -20.5370   -6.9088 O   0  0  0  0  0  0  0  0  0  0  0  0
   24.4243  -19.9648   -7.0081 O   0  0  0  0  0  0  0  0  0  0  0  0
  1  2  1  0
  3  2  1  0
  4  3  1  0
  5  4  1  0
  5  6  1  6
  7  8  2  0
  7  5  1  0
 10 12  1  0
 10  9  1  0
 11 10  2  0
 13 12  1  0
 14 13  1  0
 14 15  1  0
 16 15  1  6
 16 17  1  0
 17  7  1  0
 18 20  1  0
 18 16  1  0
 19 18  2  0
 21 22  1  1
 21 20  1  0
 22 23  1  0
 23 24  2  0
 23 28  1  0
 24 25  1  0
 25 26  2  0
 27 26  1  0
 28 27  2  0
 29 21  1  0
 30 29  2  0
 31 29  1  0
M  END
$$$$
