MRF.pdb
     RDKit          3D

 31 31  0  0  1  0  0  0  0  0999 V2000
   32.5547  -22.3517  -11.5641 C   0  0  0  0  0  0  0  0  0  0  0  0
   33.2389  -23.4647  -12.7912 S   0  0  0  0  0  0  0  0  0  0  0  0
   32.3006  -23.5541  -14.3056 C   0  0  0  0  0  0  0  0  0  0  0  0
   30.9609  -22.9091  -14.2774 C   0  0  0  0  0  0  0  0  0  0  0  0
   30.2098  -22.9367  -15.5647 C   0  0  2  0  0  0  0  0  0  0  0  0
   30.8796  -22.2617  -16.6396 N   0  0  0  0  0  0  0  0  0  0  0  0
   28.8311  -22.4034  -15.4466 C   0  0  0  0  0  0  0  0  0  0  0  0
   28.6002  -21.1714  -15.5811 O   0  0  0  0  0  0  0  0  0  0  0  0
   23.1143  -25.1206  -17.7655 N   0  0  0  0  0  0  0  0  0  0  0  0
   23.2181  -26.0641  -16.7171 C   0  0  0  0  0  0  0  0  0  0  0  0
   23.0175  -27.3105  -16.8762 N   0  0  0  0  0  0  0  0  0  0  0  0
   23.5627  -25.5952  -15.4166 N   0  0  0  0  0  0  0  0  0  0  0  0
   22.9450  -24.4347  -14.8143 C   0  0  0  0  0  0  0  0  0  0  0  0
   23.9898  -23.3822  -14.5683 C   0  0  0  0  0  0  0  0  0  0  0  0
   25.3714  -23.7649  -14.9998 C   0  0  0  0  0  0  0  0  0  0  0  0
   26.4473  -22.7835  -14.6814 C   0  0  2  0  0  0  0  0  0  0  0  0
   27.7266  -23.2353  -15.1819 N   0  0  0  0  0  0  0  0  0  0  0  0
   26.4426  -22.5373  -13.2439 C   0  0  0  0  0  0  0  0  0  0  0  0
   27.2610  -23.1065  -12.5006 O   0  0  0  0  0  0  0  0  0  0  0  0
   23.0338  -27.9994  -16.1208 N   0  0  0  0  0  0  0  0  0  0  0  0
   25.5055  -21.6474  -12.6834 C   0  0  1  0  0  0  0  0  0  0  0  0
   25.5657  -21.3556  -11.2583 C   0  0  0  0  0  0  0  0  0  0  0  0
   26.9226  -20.7702  -10.9918 C   0  0  0  0  0  0  0  0  0  0  0  0
   27.1564  -20.3113   -9.6222 C   0  0  0  0  0  0  0  0  0  0  0  0
   26.4830  -19.2287   -9.1085 C   0  0  0  0  0  0  0  0  0  0  0  0
   26.7429  -18.8434   -7.8169 C   0  0  0  0  0  0  0  0  0  0  0  0
   27.6462  -19.4839   -7.0007 C   0  0  0  0  0  0  0  0  0  0  0  0
   28.3046  -20.5657   -7.5463 C   0  0  0  0  0  0  0  0  0  0  0  0
   28.0667  -20.9773   -8.8377 C   0  0  0  0  0  0  0  0  0  0  0  0
   24.4983  -20.4565  -10.8226 O   0  0  0  0  0  0  0  0  0  0  0  0
   23.9771  -19.5541  -11.5425 O   0  0  0  0  0  0  0  0  0  0  0  0
  1  2  1  0
  3  2  1  0
  4  3  1  0
  5  4  1  0
  5  6  1  6
  7  8  2  0
  7  5  1  0
 10 12  1  0
 10  9  1  0
 11 10  2  0
 13 12  1  0
 14 13  1  0
 14 15  1  0
 16 15  1  1
 16 17  1  0
 17  7  1  0
 18 20  1  0
 18 16  1  0
 19 18  2  0
 21 22  1  1
 21 20  1  0
 22 23  1  0
 23 24  2  0
 23 28  1  0
 24 25  1  0
 25 26  2  0
 27 26  1  0
 28 27  2  0
 29 21  1  0
 30 29  2  0
 31 29  1  0
M  END
$$$$
