MRF.pdb
     RDKit          3D

 31 31  0  0  1  0  0  0  0  0999 V2000
   25.1779  -18.1542  -20.3062 C   0  0  0  0  0  0  0  0  0  0  0  0
   26.8992  -18.2410  -20.7984 S   0  0  0  0  0  0  0  0  0  0  0  0
   27.5835  -19.8883  -20.7879 C   0  0  0  0  0  0  0  0  0  0  0  0
   26.6669  -20.9683  -20.3354 C   0  0  0  0  0  0  0  0  0  0  0  0
   27.2801  -22.3222  -20.2206 C   0  0  2  0  0  0  0  0  0  0  0  0
   27.9490  -22.7570  -21.4136 N   0  0  0  0  0  0  0  0  0  0  0  0
   26.3134  -23.3664  -19.8033 C   0  0  0  0  0  0  0  0  0  0  0  0
   25.7012  -24.0606  -20.6592 O   0  0  0  0  0  0  0  0  0  0  0  0
   26.5829  -29.7431  -17.4157 N   0  0  0  0  0  0  0  0  0  0  0  0
   27.9375  -29.3946  -17.2067 C   0  0  0  0  0  0  0  0  0  0  0  0
   28.9124  -30.0894  -17.6379 N   0  0  0  0  0  0  0  0  0  0  0  0
   28.2253  -28.2067  -16.4747 N   0  0  0  0  0  0  0  0  0  0  0  0
   27.1959  -27.2955  -16.0260 C   0  0  0  0  0  0  0  0  0  0  0  0
   26.7153  -26.4715  -17.1879 C   0  0  0  0  0  0  0  0  0  0  0  0
   25.7317  -25.4020  -16.8269 C   0  0  0  0  0  0  0  0  0  0  0  0
   25.1340  -24.6556  -17.9704 C   0  0  2  0  0  0  0  0  0  0  0  0
   26.0349  -23.6306  -18.4488 N   0  0  0  0  0  0  0  0  0  0  0  0
   23.8339  -24.1375  -17.5598 C   0  0  0  0  0  0  0  0  0  0  0  0
   23.7538  -23.1710  -16.7814 O   0  0  0  0  0  0  0  0  0  0  0  0
   29.8932  -29.8061  -17.5818 N   0  0  0  0  0  0  0  0  0  0  0  0
   22.6523  -24.7313  -18.0449 C   0  0  1  0  0  0  0  0  0  0  0  0
   21.3642  -24.2200  -17.5988 C   0  0  0  0  0  0  0  0  0  0  0  0
   20.5675  -23.9128  -18.8340 C   0  0  0  0  0  0  0  0  0  0  0  0
   21.0838  -22.8258  -19.6665 C   0  0  0  0  0  0  0  0  0  0  0  0
   21.9687  -23.0703  -20.6895 C   0  0  0  0  0  0  0  0  0  0  0  0
   22.4196  -22.0113  -21.4377 C   0  0  0  0  0  0  0  0  0  0  0  0
   22.0334  -20.7091  -21.2202 C   0  0  0  0  0  0  0  0  0  0  0  0
   21.1452  -20.4982  -20.1867 C   0  0  0  0  0  0  0  0  0  0  0  0
   20.6745  -21.5381  -19.4182 C   0  0  0  0  0  0  0  0  0  0  0  0
   20.6595  -25.1564  -16.7246 O   0  0  0  0  0  0  0  0  0  0  0  0
   21.0911  -26.3013  -16.3974 O   0  0  0  0  0  0  0  0  0  0  0  0
  1  2  1  0
  3  2  1  0
  4  3  1  0
  5  4  1  0
  5  6  1  6
  7  8  2  0
  7  5  1  0
 10 12  1  0
 10  9  1  0
 11 10  2  0
 13 12  1  0
 14 13  1  0
 14 15  1  0
 16 15  1  1
 16 17  1  0
 17  7  1  0
 18 20  1  0
 18 16  1  0
 19 18  2  0
 21 22  1  1
 21 20  1  0
 22 23  1  0
 23 24  2  0
 23 28  1  0
 24 25  1  0
 25 26  2  0
 27 26  1  0
 28 27  2  0
 29 21  1  0
 30 29  2  0
 31 29  1  0
M  END
$$$$
