FPK.pdb
     RDKit          3D

 28 29  0  0  1  0  0  0  0  0999 V2000
   26.2353  -18.6622   -8.0041 N   0  0  0  0  0  0  0  0  0  0  0  0
   26.4924  -19.8617   -8.6982 C   0  0  1  0  0  0  0  0  0  0  0  0
   26.7861  -21.0332   -7.7615 C   0  0  0  0  0  0  0  0  0  0  0  0
   27.7217  -20.6367   -6.6904 C   0  0  0  0  0  0  0  0  0  0  0  0
   27.2383  -20.3131   -5.4395 C   0  0  0  0  0  0  0  0  0  0  0  0
   28.1428  -19.9409   -4.4591 C   0  0  0  0  0  0  0  0  0  0  0  0
   29.5015  -19.8826   -4.6872 C   0  0  0  0  0  0  0  0  0  0  0  0
   29.9767  -20.2123   -5.9558 C   0  0  0  0  0  0  0  0  0  0  0  0
   29.0731  -20.5878   -6.9480 C   0  0  0  0  0  0  0  0  0  0  0  0
   25.5118  -20.2714   -9.7368 C   0  0  0  0  0  0  0  0  0  0  0  0
   24.3325  -20.4446   -9.2201 O   0  0  0  0  0  0  0  0  0  0  0  0
   25.7580  -20.4583  -11.0884 N   0  0  0  0  0  0  0  0  0  0  0  0
   27.0976  -20.4223  -11.7081 C   0  0  0  0  0  0  0  0  0  0  0  0
   27.0424  -21.6677  -12.5910 C   0  0  0  0  0  0  0  0  0  0  0  0
   25.5704  -22.1084  -12.6155 C   0  0  0  0  0  0  0  0  0  0  0  0
   24.9313  -20.7825  -12.1988 C   0  0  1  0  0  0  0  0  0  0  0  0
   23.5008  -20.7956  -12.0984 C   0  0  0  0  0  0  0  0  0  0  0  0
   22.8145  -19.7752  -11.8986 O   0  0  0  0  0  0  0  0  0  0  0  0
   22.7273  -22.0062  -12.2210 N   0  0  0  0  0  0  0  0  0  0  0  0
   21.3158  -22.0260  -12.4345 C   0  0  1  0  0  0  0  0  0  0  0  0
   20.7925  -20.6099  -12.5051 C   0  0  0  0  0  0  0  0  0  0  0  0
   20.4881  -20.1559  -13.9055 C   0  0  0  0  0  0  0  0  0  0  0  0
   19.0294  -20.1107  -14.2319 C   0  0  0  0  0  0  0  0  0  0  0  0
   18.7621  -19.5487  -15.6108 C   0  0  0  0  0  0  0  0  0  0  0  0
   17.3335  -19.5854  -15.8269 N   0  0  0  0  0  0  0  0  0  0  0  0
   20.9675  -22.6692  -13.7448 C   0  0  0  0  0  0  0  0  0  0  0  0
   21.6805  -22.4560  -14.9054 O   0  0  0  0  0  0  0  0  0  0  0  0
   19.9793  -23.4361  -13.7758 O   0  0  0  0  0  0  0  0  0  0  0  0
  2  1  1  1
  3  2  1  0
  3  4  1  0
  4  5  2  0
  4  9  1  0
  5  6  1  0
  6  7  2  0
  7  8  1  0
  9  8  2  0
 10 12  1  0
 10  2  1  0
 11 10  2  0
 12 16  1  0
 13 14  1  0
 13 12  1  0
 14 15  1  0
 15 16  1  0
 16 17  1  1
 17 18  2  0
 19 20  1  0
 19 17  1  0
 20 26  1  0
 20 21  1  6
 22 21  1  0
 23 22  1  0
 24 23  1  0
 25 24  1  0
 26 27  1  0
 28 26  2  0
M  END
$$$$
