FPK.pdb
     RDKit          3D

 28 29  0  0  1  0  0  0  0  0999 V2000
   23.7234  -20.2599  -10.9782 N   0  0  0  0  0  0  0  0  0  0  0  0
   25.0445  -20.0774  -11.4346 C   0  0  1  0  0  0  0  0  0  0  0  0
   26.0313  -21.0472  -10.7854 C   0  0  0  0  0  0  0  0  0  0  0  0
   26.3667  -20.6250   -9.4110 C   0  0  0  0  0  0  0  0  0  0  0  0
   25.4083  -20.6825   -8.4204 C   0  0  0  0  0  0  0  0  0  0  0  0
   25.7548  -20.2744   -7.1432 C   0  0  0  0  0  0  0  0  0  0  0  0
   27.0164  -19.8154   -6.8280 C   0  0  0  0  0  0  0  0  0  0  0  0
   27.9755  -19.7626   -7.8385 C   0  0  0  0  0  0  0  0  0  0  0  0
   27.6349  -20.1713   -9.1265 C   0  0  0  0  0  0  0  0  0  0  0  0
   25.2582  -20.0385  -12.9045 C   0  0  0  0  0  0  0  0  0  0  0  0
   24.3409  -20.7172  -13.5257 O   0  0  0  0  0  0  0  0  0  0  0  0
   26.2757  -19.3845  -13.5822 N   0  0  0  0  0  0  0  0  0  0  0  0
   27.1601  -18.3652  -12.9831 C   0  0  0  0  0  0  0  0  0  0  0  0
   28.5258  -18.8406  -13.4758 C   0  0  0  0  0  0  0  0  0  0  0  0
   28.2457  -19.8992  -14.5539 C   0  0  0  0  0  0  0  0  0  0  0  0
   26.8092  -19.4987  -14.8951 C   0  0  1  0  0  0  0  0  0  0  0  0
   26.1730  -20.2957  -15.9033 C   0  0  0  0  0  0  0  0  0  0  0  0
   26.6352  -21.3739  -16.3230 O   0  0  0  0  0  0  0  0  0  0  0  0
   24.9300  -19.9108  -16.5242 N   0  0  0  0  0  0  0  0  0  0  0  0
   24.2158  -20.7356  -17.4450 C   0  0  1  0  0  0  0  0  0  0  0  0
   23.7686  -22.0019  -16.7517 C   0  0  0  0  0  0  0  0  0  0  0  0
   24.7849  -23.1077  -16.8162 C   0  0  0  0  0  0  0  0  0  0  0  0
   24.3993  -24.3396  -16.0612 C   0  0  0  0  0  0  0  0  0  0  0  0
   25.4715  -25.4060  -16.1074 C   0  0  0  0  0  0  0  0  0  0  0  0
   24.9640  -26.5646  -15.4082 N   0  0  0  0  0  0  0  0  0  0  0  0
   22.9680  -20.0602  -17.9338 C   0  0  0  0  0  0  0  0  0  0  0  0
   22.5310  -18.8423  -17.4579 O   0  0  0  0  0  0  0  0  0  0  0  0
   22.2975  -20.6386  -18.8178 O   0  0  0  0  0  0  0  0  0  0  0  0
  2  1  1  6
  3  2  1  0
  3  4  1  0
  4  5  2  0
  4  9  1  0
  5  6  1  0
  6  7  2  0
  7  8  1  0
  9  8  2  0
 10 12  1  0
 10  2  1  0
 11 10  2  0
 12 16  1  0
 13 14  1  0
 13 12  1  0
 14 15  1  0
 15 16  1  0
 16 17  1  6
 17 18  2  0
 19 20  1  0
 19 17  1  0
 20 26  1  0
 20 21  1  1
 22 21  1  0
 23 22  1  0
 24 23  1  0
 25 24  1  0
 26 27  1  0
 28 26  2  0
M  END
$$$$
