FPK.pdb
     RDKit          3D

 28 29  0  0  1  0  0  0  0  0999 V2000
   25.3391  -19.9186   -7.6722 N   0  0  0  0  0  0  0  0  0  0  0  0
   26.5121  -20.0183   -8.4476 C   0  0  1  0  0  0  0  0  0  0  0  0
   27.5591  -20.9360   -7.8168 C   0  0  0  0  0  0  0  0  0  0  0  0
   28.0621  -20.3758   -6.5469 C   0  0  0  0  0  0  0  0  0  0  0  0
   28.6173  -19.1131   -6.5238 C   0  0  0  0  0  0  0  0  0  0  0  0
   29.0838  -18.6198   -5.3169 C   0  0  0  0  0  0  0  0  0  0  0  0
   29.0134  -19.3413   -4.1439 C   0  0  0  0  0  0  0  0  0  0  0  0
   28.4498  -20.6160   -4.1811 C   0  0  0  0  0  0  0  0  0  0  0  0
   27.9781  -21.1198   -5.3917 C   0  0  0  0  0  0  0  0  0  0  0  0
   26.3506  -20.3421   -9.8887 C   0  0  0  0  0  0  0  0  0  0  0  0
   25.1338  -20.7169  -10.1475 O   0  0  0  0  0  0  0  0  0  0  0  0
   27.3244  -20.2723  -10.8732 N   0  0  0  0  0  0  0  0  0  0  0  0
   28.6288  -19.5992  -10.7142 C   0  0  0  0  0  0  0  0  0  0  0  0
   29.5716  -20.6537  -11.2912 C   0  0  0  0  0  0  0  0  0  0  0  0
   28.6775  -21.6845  -11.9980 C   0  0  0  0  0  0  0  0  0  0  0  0
   27.4332  -20.8140  -12.1833 C   0  0  1  0  0  0  0  0  0  0  0  0
   26.3262  -21.4557  -12.8307 C   0  0  0  0  0  0  0  0  0  0  0  0
   26.1174  -22.6831  -12.7837 O   0  0  0  0  0  0  0  0  0  0  0  0
   25.3502  -20.7253  -13.6007 N   0  0  0  0  0  0  0  0  0  0  0  0
   24.1385  -21.2986  -14.0918 C   0  0  1  0  0  0  0  0  0  0  0  0
   22.9548  -20.5619  -13.5084 C   0  0  0  0  0  0  0  0  0  0  0  0
   21.6310  -21.0736  -14.0039 C   0  0  0  0  0  0  0  0  0  0  0  0
   20.4459  -20.3639  -13.4309 C   0  0  0  0  0  0  0  0  0  0  0  0
   19.1348  -20.9473  -13.9097 C   0  0  0  0  0  0  0  0  0  0  0  0
   18.3663  -21.3096  -12.7404 N   0  0  0  0  0  0  0  0  0  0  0  0
   24.0289  -21.1583  -15.5818 C   0  0  0  0  0  0  0  0  0  0  0  0
   24.8511  -20.3402  -16.3271 O   0  0  0  0  0  0  0  0  0  0  0  0
   23.1445  -21.8210  -16.1685 O   0  0  0  0  0  0  0  0  0  0  0  0
  2  1  1  1
  3  2  1  0
  3  4  1  0
  4  5  2  0
  4  9  1  0
  5  6  1  0
  6  7  2  0
  7  8  1  0
  9  8  2  0
 10 12  1  0
 10  2  1  0
 11 10  2  0
 12 16  1  0
 13 14  1  0
 13 12  1  0
 14 15  1  0
 15 16  1  0
 16 17  1  1
 17 18  2  0
 19 20  1  0
 19 17  1  0
 20 26  1  0
 20 21  1  1
 22 21  1  0
 23 22  1  0
 24 23  1  0
 25 24  1  0
 26 27  1  0
 28 26  2  0
M  END
$$$$
