FPK.pdb
     RDKit          3D

 28 29  0  0  1  0  0  0  0  0999 V2000
   24.1617  -20.2791  -10.4069 N   0  0  0  0  0  0  0  0  0  0  0  0
   25.4724  -20.3095  -10.9247 C   0  0  1  0  0  0  0  0  0  0  0  0
   26.3596  -21.3371  -10.2226 C   0  0  0  0  0  0  0  0  0  0  0  0
   26.9809  -20.7651   -9.0116 C   0  0  0  0  0  0  0  0  0  0  0  0
   28.2961  -21.0534   -8.7113 C   0  0  0  0  0  0  0  0  0  0  0  0
   28.8465  -20.5043   -7.5653 C   0  0  0  0  0  0  0  0  0  0  0  0
   28.1310  -19.6842   -6.7185 C   0  0  0  0  0  0  0  0  0  0  0  0
   26.8028  -19.4007   -7.0338 C   0  0  0  0  0  0  0  0  0  0  0  0
   26.2414  -19.9494   -8.1852 C   0  0  0  0  0  0  0  0  0  0  0  0
   25.6200  -20.4289  -12.3984 C   0  0  0  0  0  0  0  0  0  0  0  0
   24.6202  -21.0783  -12.9147 O   0  0  0  0  0  0  0  0  0  0  0  0
   26.6570  -19.9353  -13.1752 N   0  0  0  0  0  0  0  0  0  0  0  0
   27.4896  -18.7697  -12.8173 C   0  0  0  0  0  0  0  0  0  0  0  0
   28.8876  -19.3102  -13.1129 C   0  0  0  0  0  0  0  0  0  0  0  0
   28.6833  -20.6157  -13.8973 C   0  0  0  0  0  0  0  0  0  0  0  0
   27.2580  -20.3610  -14.3914 C   0  0  1  0  0  0  0  0  0  0  0  0
   26.6894  -21.4073  -15.1904 C   0  0  0  0  0  0  0  0  0  0  0  0
   27.1654  -22.5565  -15.2613 O   0  0  0  0  0  0  0  0  0  0  0  0
   25.5048  -21.2143  -15.9894 N   0  0  0  0  0  0  0  0  0  0  0  0
   24.7403  -22.2850  -16.5438 C   0  0  1  0  0  0  0  0  0  0  0  0
   24.1875  -23.1445  -15.4303 C   0  0  0  0  0  0  0  0  0  0  0  0
   23.3740  -24.3084  -15.9235 C   0  0  0  0  0  0  0  0  0  0  0  0
   23.3209  -25.4645  -14.9763 C   0  0  0  0  0  0  0  0  0  0  0  0
   22.6301  -26.6707  -15.5736 C   0  0  0  0  0  0  0  0  0  0  0  0
   22.6142  -27.7069  -14.5661 N   0  0  0  0  0  0  0  0  0  0  0  0
   23.5550  -21.7745  -17.3094 C   0  0  0  0  0  0  0  0  0  0  0  0
   23.0756  -22.3783  -18.4524 O   0  0  0  0  0  0  0  0  0  0  0  0
   22.9791  -20.7494  -16.8814 O   0  0  0  0  0  0  0  0  0  0  0  0
  2  1  1  6
  3  2  1  0
  3  4  1  0
  4  5  2  0
  4  9  1  0
  5  6  1  0
  6  7  2  0
  7  8  1  0
  9  8  2  0
 10 12  1  0
 10  2  1  0
 11 10  2  0
 12 16  1  0
 13 14  1  0
 13 12  1  0
 14 15  1  0
 15 16  1  0
 16 17  1  1
 17 18  2  0
 19 20  1  0
 19 17  1  0
 20 26  1  0
 20 21  1  1
 22 21  1  0
 23 22  1  0
 24 23  1  0
 25 24  1  0
 26 27  1  0
 28 26  2  0
M  END
$$$$
