FPK.pdb
     RDKit          3D

 28 29  0  0  1  0  0  0  0  0999 V2000
   24.8647  -18.5150  -18.3526 N   0  0  0  0  0  0  0  0  0  0  0  0
   25.3256  -17.9209  -17.1603 C   0  0  1  0  0  0  0  0  0  0  0  0
   24.5578  -16.6493  -16.8005 C   0  0  0  0  0  0  0  0  0  0  0  0
   24.4496  -15.7458  -17.9630 C   0  0  0  0  0  0  0  0  0  0  0  0
   25.5541  -15.0373  -18.3890 C   0  0  0  0  0  0  0  0  0  0  0  0
   25.4168  -14.1950  -19.4796 C   0  0  0  0  0  0  0  0  0  0  0  0
   24.2225  -14.0402  -20.1513 C   0  0  0  0  0  0  0  0  0  0  0  0
   23.1142  -14.7621  -19.7106 C   0  0  0  0  0  0  0  0  0  0  0  0
   23.2439  -15.6118  -18.6137 C   0  0  0  0  0  0  0  0  0  0  0  0
   25.4510  -18.7972  -15.9668 C   0  0  0  0  0  0  0  0  0  0  0  0
   24.2958  -18.9807  -15.4015 O   0  0  0  0  0  0  0  0  0  0  0  0
   26.6117  -19.3731  -15.4734 N   0  0  0  0  0  0  0  0  0  0  0  0
   27.7300  -19.8514  -16.3104 C   0  0  0  0  0  0  0  0  0  0  0  0
   28.9244  -19.2585  -15.5651 C   0  0  0  0  0  0  0  0  0  0  0  0
   28.3824  -18.7652  -14.2144 C   0  0  0  0  0  0  0  0  0  0  0  0
   27.1072  -19.6086  -14.1618 C   0  0  1  0  0  0  0  0  0  0  0  0
   26.2909  -19.4149  -12.9988 C   0  0  0  0  0  0  0  0  0  0  0  0
   26.1891  -18.3261  -12.4017 O   0  0  0  0  0  0  0  0  0  0  0  0
   25.5102  -20.4773  -12.4152 N   0  0  0  0  0  0  0  0  0  0  0  0
   24.6602  -20.3048  -11.2813 C   0  0  1  0  0  0  0  0  0  0  0  0
   23.2675  -20.7898  -11.6115 C   0  0  0  0  0  0  0  0  0  0  0  0
   22.2741  -20.5450  -10.5101 C   0  0  0  0  0  0  0  0  0  0  0  0
   20.8990  -21.0566  -10.7997 C   0  0  0  0  0  0  0  0  0  0  0  0
   19.9197  -20.7445   -9.6896 C   0  0  0  0  0  0  0  0  0  0  0  0
   18.6518  -21.3390  -10.0472 N   0  0  0  0  0  0  0  0  0  0  0  0
   25.1265  -21.1263  -10.1152 C   0  0  0  0  0  0  0  0  0  0  0  0
   25.0382  -20.7010   -8.8067 O   0  0  0  0  0  0  0  0  0  0  0  0
   25.6182  -22.2522  -10.3520 O   0  0  0  0  0  0  0  0  0  0  0  0
  2  1  1  6
  3  2  1  0
  3  4  1  0
  4  5  2  0
  4  9  1  0
  5  6  1  0
  6  7  2  0
  7  8  1  0
  9  8  2  0
 10 12  1  0
 10  2  1  0
 11 10  2  0
 12 16  1  0
 13 14  1  0
 13 12  1  0
 14 15  1  0
 15 16  1  0
 16 17  1  1
 17 18  2  0
 19 20  1  0
 19 17  1  0
 20 26  1  0
 20 21  1  6
 22 21  1  0
 23 22  1  0
 24 23  1  0
 25 24  1  0
 26 27  1  0
 28 26  2  0
M  END
$$$$
