FPK.pdb
     RDKit          3D

 28 29  0  0  1  0  0  0  0  0999 V2000
   27.2197  -19.7682   -9.4402 N   0  0  0  0  0  0  0  0  0  0  0  0
   27.5100  -19.7246   -8.0615 C   0  0  1  0  0  0  0  0  0  0  0  0
   26.5751  -18.7922   -7.2918 C   0  0  0  0  0  0  0  0  0  0  0  0
   27.1351  -18.4496   -5.9694 C   0  0  0  0  0  0  0  0  0  0  0  0
   28.2708  -17.6712   -5.8838 C   0  0  0  0  0  0  0  0  0  0  0  0
   28.7725  -17.3726   -4.6281 C   0  0  0  0  0  0  0  0  0  0  0  0
   28.1807  -17.8227   -3.4668 C   0  0  0  0  0  0  0  0  0  0  0  0
   27.0333  -18.6083   -3.5674 C   0  0  0  0  0  0  0  0  0  0  0  0
   26.5221  -18.9135   -4.8274 C   0  0  0  0  0  0  0  0  0  0  0  0
   27.6356  -21.0233   -7.3505 C   0  0  0  0  0  0  0  0  0  0  0  0
   26.5450  -21.7208   -7.4602 O   0  0  0  0  0  0  0  0  0  0  0  0
   28.7385  -21.4869   -6.6497 N   0  0  0  0  0  0  0  0  0  0  0  0
   30.1352  -21.1060   -6.9396 C   0  0  0  0  0  0  0  0  0  0  0  0
   30.6507  -20.8021   -5.5340 C   0  0  0  0  0  0  0  0  0  0  0  0
   29.5856  -21.3371   -4.5640 C   0  0  0  0  0  0  0  0  0  0  0  0
   28.8942  -22.3215   -5.5092 C   0  0  1  0  0  0  0  0  0  0  0  0
   27.7915  -23.0433   -4.9440 C   0  0  0  0  0  0  0  0  0  0  0  0
   26.8330  -22.4959   -4.3662 O   0  0  0  0  0  0  0  0  0  0  0  0
   27.6989  -24.4812   -4.9970 N   0  0  0  0  0  0  0  0  0  0  0  0
   26.5828  -25.2217   -4.5030 C   0  0  1  0  0  0  0  0  0  0  0  0
   26.6236  -26.6293   -5.0517 C   0  0  0  0  0  0  0  0  0  0  0  0
   25.5437  -27.5166   -4.4983 C   0  0  0  0  0  0  0  0  0  0  0  0
   25.5159  -28.8901   -5.0892 C   0  0  0  0  0  0  0  0  0  0  0  0
   24.4404  -29.7612   -4.4783 C   0  0  0  0  0  0  0  0  0  0  0  0
   24.5418  -31.0689   -5.0854 N   0  0  0  0  0  0  0  0  0  0  0  0
   26.6276  -25.3511   -3.0086 C   0  0  0  0  0  0  0  0  0  0  0  0
   25.4994  -25.3628   -2.2162 O   0  0  0  0  0  0  0  0  0  0  0  0
   27.7491  -25.4535   -2.4635 O   0  0  0  0  0  0  0  0  0  0  0  0
  2  1  1  6
  3  2  1  0
  3  4  1  0
  4  5  2  0
  4  9  1  0
  5  6  1  0
  6  7  2  0
  7  8  1  0
  9  8  2  0
 10 12  1  0
 10  2  1  0
 11 10  2  0
 12 16  1  0
 13 14  1  0
 13 12  1  0
 14 15  1  0
 15 16  1  0
 16 17  1  1
 17 18  2  0
 19 20  1  0
 19 17  1  0
 20 26  1  0
 20 21  1  6
 22 21  1  0
 23 22  1  0
 24 23  1  0
 25 24  1  0
 26 27  1  0
 28 26  2  0
M  END
$$$$
