FPK.pdb
     RDKit          3D

 28 29  0  0  1  0  0  0  0  0999 V2000
   20.3139   -6.2003  -16.7593 N   0  0  0  0  0  0  0  0  0  0  0  0
   21.0413   -7.4076  -16.7741 C   0  0  1  0  0  0  0  0  0  0  0  0
   21.8827   -7.6040  -15.5134 C   0  0  0  0  0  0  0  0  0  0  0  0
   22.7163   -6.4167  -15.2393 C   0  0  0  0  0  0  0  0  0  0  0  0
   22.2970   -5.4793  -14.3180 C   0  0  0  0  0  0  0  0  0  0  0  0
   23.1005   -4.3751  -14.0884 C   0  0  0  0  0  0  0  0  0  0  0  0
   24.2980   -4.1801  -14.7439 C   0  0  0  0  0  0  0  0  0  0  0  0
   24.7100   -5.1350  -15.6723 C   0  0  0  0  0  0  0  0  0  0  0  0
   23.9071   -6.2492  -15.9093 C   0  0  0  0  0  0  0  0  0  0  0  0
   20.2907   -8.6514  -17.0864 C   0  0  0  0  0  0  0  0  0  0  0  0
   19.5472   -9.0099  -16.0832 O   0  0  0  0  0  0  0  0  0  0  0  0
   20.3327   -9.3762  -18.2676 N   0  0  0  0  0  0  0  0  0  0  0  0
   20.7558   -8.8281  -19.5716 C   0  0  0  0  0  0  0  0  0  0  0  0
   21.6958   -9.9296  -20.0581 C   0  0  0  0  0  0  0  0  0  0  0  0
   21.4700  -11.1273  -19.1222 C   0  0  0  0  0  0  0  0  0  0  0  0
   20.0895  -10.7396  -18.5891 C   0  0  1  0  0  0  0  0  0  0  0  0
   19.5204  -11.6508  -17.6393 C   0  0  0  0  0  0  0  0  0  0  0  0
   20.0132  -11.8734  -16.5168 O   0  0  0  0  0  0  0  0  0  0  0  0
   18.3153  -12.3958  -17.9072 N   0  0  0  0  0  0  0  0  0  0  0  0
   17.7379  -13.3247  -16.9896 C   0  0  1  0  0  0  0  0  0  0  0  0
   16.3412  -13.6840  -17.4415 C   0  0  0  0  0  0  0  0  0  0  0  0
   15.6563  -14.6690  -16.5357 C   0  0  0  0  0  0  0  0  0  0  0  0
   14.6544  -14.0566  -15.6097 C   0  0  0  0  0  0  0  0  0  0  0  0
   13.9373  -15.0892  -14.7681 C   0  0  0  0  0  0  0  0  0  0  0  0
   12.9879  -14.3882  -13.9337 N   0  0  0  0  0  0  0  0  0  0  0  0
   18.5111  -14.6101  -16.9498 C   0  0  0  0  0  0  0  0  0  0  0  0
   19.0578  -15.1991  -18.0700 O   0  0  0  0  0  0  0  0  0  0  0  0
   18.6624  -15.1678  -15.8400 O   0  0  0  0  0  0  0  0  0  0  0  0
  2  1  1  1
  3  2  1  0
  3  4  1  0
  4  5  2  0
  4  9  1  0
  5  6  1  0
  6  7  2  0
  7  8  1  0
  9  8  2  0
 10 12  1  0
 10  2  1  0
 11 10  2  0
 12 16  1  0
 13 14  1  0
 13 12  1  0
 14 15  1  0
 15 16  1  0
 16 17  1  1
 17 18  2  0
 19 20  1  0
 19 17  1  0
 20 26  1  0
 20 21  1  6
 22 21  1  0
 23 22  1  0
 24 23  1  0
 25 24  1  0
 26 27  1  0
 28 26  2  0
M  END
$$$$
