FPK.pdb
     RDKit          3D

 28 29  0  0  1  0  0  0  0  0999 V2000
   25.0940  -20.0966   -7.7915 N   0  0  0  0  0  0  0  0  0  0  0  0
   26.2198  -20.1181   -8.6394 C   0  0  1  0  0  0  0  0  0  0  0  0
   27.3596  -20.9715   -8.0838 C   0  0  0  0  0  0  0  0  0  0  0  0
   27.8823  -20.4067   -6.8239 C   0  0  0  0  0  0  0  0  0  0  0  0
   28.8482  -19.4224   -6.8596 C   0  0  0  0  0  0  0  0  0  0  0  0
   29.3202  -18.9178   -5.6594 C   0  0  0  0  0  0  0  0  0  0  0  0
   28.8616  -19.3614   -4.4369 C   0  0  0  0  0  0  0  0  0  0  0  0
   27.8852  -20.3563   -4.4151 C   0  0  0  0  0  0  0  0  0  0  0  0
   27.4050  -20.8695   -5.6184 C   0  0  0  0  0  0  0  0  0  0  0  0
   25.9886  -20.4435  -10.0706 C   0  0  0  0  0  0  0  0  0  0  0  0
   24.9098  -21.1523  -10.2178 O   0  0  0  0  0  0  0  0  0  0  0  0
   26.7768  -20.0702  -11.1485 N   0  0  0  0  0  0  0  0  0  0  0  0
   27.9154  -19.1337  -11.0683 C   0  0  0  0  0  0  0  0  0  0  0  0
   28.9721  -19.8927  -11.8690 C   0  0  0  0  0  0  0  0  0  0  0  0
   28.2301  -21.0360  -12.5786 C   0  0  0  0  0  0  0  0  0  0  0  0
   26.8145  -20.4593  -12.5154 C   0  0  1  0  0  0  0  0  0  0  0  0
   25.7915  -21.2789  -13.0971 C   0  0  0  0  0  0  0  0  0  0  0  0
   25.6197  -22.4778  -12.8048 O   0  0  0  0  0  0  0  0  0  0  0  0
   24.8650  -20.7781  -14.0817 N   0  0  0  0  0  0  0  0  0  0  0  0
   23.6259  -21.4126  -14.3982 C   0  0  1  0  0  0  0  0  0  0  0  0
   22.7026  -21.3490  -13.2035 C   0  0  0  0  0  0  0  0  0  0  0  0
   21.3463  -21.9418  -13.4659 C   0  0  0  0  0  0  0  0  0  0  0  0
   20.3762  -21.7759  -12.3399 C   0  0  0  0  0  0  0  0  0  0  0  0
   19.0549  -22.4619  -12.6086 C   0  0  0  0  0  0  0  0  0  0  0  0
   19.0864  -23.7442  -11.9424 N   0  0  0  0  0  0  0  0  0  0  0  0
   22.9168  -20.7061  -15.5162 C   0  0  0  0  0  0  0  0  0  0  0  0
   22.7363  -19.3397  -15.5536 O   0  0  0  0  0  0  0  0  0  0  0  0
   22.4711  -21.3997  -16.4573 O   0  0  0  0  0  0  0  0  0  0  0  0
  2  1  1  1
  3  2  1  0
  3  4  1  0
  4  5  2  0
  4  9  1  0
  5  6  1  0
  6  7  2  0
  7  8  1  0
  9  8  2  0
 10 12  1  0
 10  2  1  0
 11 10  2  0
 12 16  1  0
 13 14  1  0
 13 12  1  0
 14 15  1  0
 15 16  1  0
 16 17  1  1
 17 18  2  0
 19 20  1  0
 19 17  1  0
 20 26  1  0
 20 21  1  1
 22 21  1  0
 23 22  1  0
 24 23  1  0
 25 24  1  0
 26 27  1  0
 28 26  2  0
M  END
$$$$
