FPK.pdb
     RDKit          3D

 28 29  0  0  1  0  0  0  0  0999 V2000
   25.5509  -20.7502   -7.8917 N   0  0  0  0  0  0  0  0  0  0  0  0
   26.6081  -20.0739   -8.5336 C   0  0  1  0  0  0  0  0  0  0  0  0
   27.9719  -20.4015   -7.9264 C   0  0  0  0  0  0  0  0  0  0  0  0
   28.0559  -19.9405   -6.5264 C   0  0  0  0  0  0  0  0  0  0  0  0
   28.4543  -18.6489   -6.2499 C   0  0  0  0  0  0  0  0  0  0  0  0
   28.5269  -18.2504   -4.9256 C   0  0  0  0  0  0  0  0  0  0  0  0
   28.2169  -19.0936   -3.8794 C   0  0  0  0  0  0  0  0  0  0  0  0
   27.8157  -20.3961   -4.1727 C   0  0  0  0  0  0  0  0  0  0  0  0
   27.7400  -20.8051   -5.5028 C   0  0  0  0  0  0  0  0  0  0  0  0
   26.6737  -20.1631  -10.0153 C   0  0  0  0  0  0  0  0  0  0  0  0
   27.6997  -19.5122  -10.4752 O   0  0  0  0  0  0  0  0  0  0  0  0
   25.7934  -20.8344  -10.8500 N   0  0  0  0  0  0  0  0  0  0  0  0
   25.0971  -22.0879  -10.4981 C   0  0  0  0  0  0  0  0  0  0  0  0
   23.6735  -21.7653  -10.9484 C   0  0  0  0  0  0  0  0  0  0  0  0
   23.7721  -20.4824  -11.7885 C   0  0  0  0  0  0  0  0  0  0  0  0
   25.2597  -20.5558  -12.1380 C   0  0  1  0  0  0  0  0  0  0  0  0
   25.7543  -19.4783  -12.9448 C   0  0  0  0  0  0  0  0  0  0  0  0
   25.8004  -18.2941  -12.5602 O   0  0  0  0  0  0  0  0  0  0  0  0
   26.2452  -19.6774  -14.2858 N   0  0  0  0  0  0  0  0  0  0  0  0
   26.5883  -18.6106  -15.1702 C   0  0  1  0  0  0  0  0  0  0  0  0
   28.0173  -18.7743  -15.6340 C   0  0  0  0  0  0  0  0  0  0  0  0
   28.4275  -17.7648  -16.6695 C   0  0  0  0  0  0  0  0  0  0  0  0
   29.8271  -17.9326  -17.1688 C   0  0  0  0  0  0  0  0  0  0  0  0
   30.2456  -16.8189  -18.1033 C   0  0  0  0  0  0  0  0  0  0  0  0
   31.6075  -17.0804  -18.5104 N   0  0  0  0  0  0  0  0  0  0  0  0
   25.7395  -18.6286  -16.4076 C   0  0  0  0  0  0  0  0  0  0  0  0
   24.9988  -19.7228  -16.8011 O   0  0  0  0  0  0  0  0  0  0  0  0
   25.7083  -17.5942  -17.1110 O   0  0  0  0  0  0  0  0  0  0  0  0
  2  1  1  1
  3  2  1  0
  3  4  1  0
  4  5  2  0
  4  9  1  0
  5  6  1  0
  6  7  2  0
  7  8  1  0
  9  8  2  0
 10 12  1  0
 10  2  1  0
 11 10  2  0
 12 16  1  0
 13 14  1  0
 13 12  1  0
 14 15  1  0
 15 16  1  0
 16 17  1  1
 17 18  2  0
 19 20  1  0
 19 17  1  0
 20 26  1  0
 20 21  1  6
 22 21  1  0
 23 22  1  0
 24 23  1  0
 25 24  1  0
 26 27  1  0
 28 26  2  0
M  END
$$$$
