FPK.pdb
     RDKit          3D

 28 29  0  0  1  0  0  0  0  0999 V2000
   25.4275  -19.2737   -8.6407 N   0  0  0  0  0  0  0  0  0  0  0  0
   26.4999  -19.9056   -9.3022 C   0  0  1  0  0  0  0  0  0  0  0  0
   27.1356  -21.0161   -8.4664 C   0  0  0  0  0  0  0  0  0  0  0  0
   27.7299  -20.4762   -7.2275 C   0  0  0  0  0  0  0  0  0  0  0  0
   26.9252  -19.8677   -6.2866 C   0  0  0  0  0  0  0  0  0  0  0  0
   27.5156  -19.3679   -5.1380 C   0  0  0  0  0  0  0  0  0  0  0  0
   28.8714  -19.4563   -4.9024 C   0  0  0  0  0  0  0  0  0  0  0  0
   29.6733  -20.0738   -5.8613 C   0  0  0  0  0  0  0  0  0  0  0  0
   29.0869  -20.5794   -7.0200 C   0  0  0  0  0  0  0  0  0  0  0  0
   26.2586  -20.3835  -10.6883 C   0  0  0  0  0  0  0  0  0  0  0  0
   25.2082  -21.1463  -10.7408 O   0  0  0  0  0  0  0  0  0  0  0  0
   27.0124  -20.0903  -11.8145 N   0  0  0  0  0  0  0  0  0  0  0  0
   28.0875  -19.0794  -11.8623 C   0  0  0  0  0  0  0  0  0  0  0  0
   29.1858  -19.8581  -12.5843 C   0  0  0  0  0  0  0  0  0  0  0  0
   28.5153  -21.1227  -13.1432 C   0  0  0  0  0  0  0  0  0  0  0  0
   27.0654  -20.6350  -13.1266 C   0  0  1  0  0  0  0  0  0  0  0  0
   26.0941  -21.5818  -13.5923 C   0  0  0  0  0  0  0  0  0  0  0  0
   26.0669  -22.7745  -13.2331 O   0  0  0  0  0  0  0  0  0  0  0  0
   25.0552  -21.2286  -14.5275 N   0  0  0  0  0  0  0  0  0  0  0  0
   23.9318  -22.0614  -14.8151 C   0  0  1  0  0  0  0  0  0  0  0  0
   22.8271  -21.7857  -13.8213 C   0  0  0  0  0  0  0  0  0  0  0  0
   21.6049  -22.6336  -14.0379 C   0  0  0  0  0  0  0  0  0  0  0  0
   20.5122  -22.3997  -13.0441 C   0  0  0  0  0  0  0  0  0  0  0  0
   19.3957  -23.4137  -13.1621 C   0  0  0  0  0  0  0  0  0  0  0  0
   18.3996  -23.0826  -12.1686 N   0  0  0  0  0  0  0  0  0  0  0  0
   23.3615  -21.7653  -16.1712 C   0  0  0  0  0  0  0  0  0  0  0  0
   23.7056  -20.6535  -16.9103 O   0  0  0  0  0  0  0  0  0  0  0  0
   22.5335  -22.5738  -16.6470 O   0  0  0  0  0  0  0  0  0  0  0  0
  2  1  1  1
  3  2  1  0
  3  4  1  0
  4  5  2  0
  4  9  1  0
  5  6  1  0
  6  7  2  0
  7  8  1  0
  9  8  2  0
 10 12  1  0
 10  2  1  0
 11 10  2  0
 12 16  1  0
 13 14  1  0
 13 12  1  0
 14 15  1  0
 15 16  1  0
 16 17  1  1
 17 18  2  0
 19 20  1  0
 19 17  1  0
 20 26  1  0
 20 21  1  1
 22 21  1  0
 23 22  1  0
 24 23  1  0
 25 24  1  0
 26 27  1  0
 28 26  2  0
M  END
$$$$
