FPK.pdb
     RDKit          3D

 28 29  0  0  1  0  0  0  0  0999 V2000
   27.9113  -20.8889  -15.9230 N   0  0  0  0  0  0  0  0  0  0  0  0
   27.1616  -20.2193  -14.9349 C   0  0  1  0  0  0  0  0  0  0  0  0
   26.6636  -18.8510  -15.3995 C   0  0  0  0  0  0  0  0  0  0  0  0
   27.6841  -18.1613  -16.2135 C   0  0  0  0  0  0  0  0  0  0  0  0
   28.8238  -17.6669  -15.6138 C   0  0  0  0  0  0  0  0  0  0  0  0
   29.7585  -17.0211  -16.4057 C   0  0  0  0  0  0  0  0  0  0  0  0
   29.5918  -16.8558  -17.7645 C   0  0  0  0  0  0  0  0  0  0  0  0
   28.4355  -17.3604  -18.3580 C   0  0  0  0  0  0  0  0  0  0  0  0
   27.4899  -18.0115  -17.5681 C   0  0  0  0  0  0  0  0  0  0  0  0
   26.0554  -20.9741  -14.2910 C   0  0  0  0  0  0  0  0  0  0  0  0
   25.1880  -21.3706  -15.1731 O   0  0  0  0  0  0  0  0  0  0  0  0
   25.9117  -21.2527  -12.9404 N   0  0  0  0  0  0  0  0  0  0  0  0
   26.9847  -21.7838  -12.0764 C   0  0  0  0  0  0  0  0  0  0  0  0
   26.8524  -20.8735  -10.8568 C   0  0  0  0  0  0  0  0  0  0  0  0
   25.5219  -20.1236  -11.0264 C   0  0  0  0  0  0  0  0  0  0  0  0
   24.8484  -21.0798  -12.0125 C   0  0  1  0  0  0  0  0  0  0  0  0
   23.5314  -20.6997  -12.4336 C   0  0  0  0  0  0  0  0  0  0  0  0
   23.2374  -19.5551  -12.8282 O   0  0  0  0  0  0  0  0  0  0  0  0
   22.4228  -21.6217  -12.4350 N   0  0  0  0  0  0  0  0  0  0  0  0
   21.0935  -21.2614  -12.8108 C   0  0  1  0  0  0  0  0  0  0  0  0
   20.3453  -22.4905  -13.2730 C   0  0  0  0  0  0  0  0  0  0  0  0
   18.9370  -22.2011  -13.7122 C   0  0  0  0  0  0  0  0  0  0  0  0
   18.1706  -23.4087  -14.1489 C   0  0  0  0  0  0  0  0  0  0  0  0
   16.7673  -23.0708  -14.6021 C   0  0  0  0  0  0  0  0  0  0  0  0
   16.1413  -24.2996  -15.0345 N   0  0  0  0  0  0  0  0  0  0  0  0
   20.3230  -20.7128  -11.6458 C   0  0  0  0  0  0  0  0  0  0  0  0
   19.3483  -19.7458  -11.7715 O   0  0  0  0  0  0  0  0  0  0  0  0
   20.5846  -21.1618  -10.5076 O   0  0  0  0  0  0  0  0  0  0  0  0
  2  1  1  6
  3  2  1  0
  3  4  1  0
  4  5  2  0
  4  9  1  0
  5  6  1  0
  6  7  2  0
  7  8  1  0
  9  8  2  0
 10 12  1  0
 10  2  1  0
 11 10  2  0
 12 16  1  0
 13 14  1  0
 13 12  1  0
 14 15  1  0
 15 16  1  0
 16 17  1  6
 17 18  2  0
 19 20  1  0
 19 17  1  0
 20 26  1  0
 20 21  1  1
 22 21  1  0
 23 22  1  0
 24 23  1  0
 25 24  1  0
 26 27  1  0
 28 26  2  0
M  END
$$$$
