FPK.pdb
     RDKit          3D

 28 29  0  0  1  0  0  0  0  0999 V2000
   25.6122  -21.4918  -10.7263 N   0  0  0  0  0  0  0  0  0  0  0  0
   24.8125  -21.1223  -11.8267 C   0  0  1  0  0  0  0  0  0  0  0  0
   23.5508  -20.3666  -11.4106 C   0  0  0  0  0  0  0  0  0  0  0  0
   22.7362  -21.1656  -10.4738 C   0  0  0  0  0  0  0  0  0  0  0  0
   22.9742  -21.0888   -9.1170 C   0  0  0  0  0  0  0  0  0  0  0  0
   22.1950  -21.8551   -8.2665 C   0  0  0  0  0  0  0  0  0  0  0  0
   21.1954  -22.6872   -8.7245 C   0  0  0  0  0  0  0  0  0  0  0  0
   20.9652  -22.7553  -10.0979 C   0  0  0  0  0  0  0  0  0  0  0  0
   21.7450  -21.9874  -10.9607 C   0  0  0  0  0  0  0  0  0  0  0  0
   25.4830  -20.4180  -12.9501 C   0  0  0  0  0  0  0  0  0  0  0  0
   24.9621  -19.2429  -13.1391 O   0  0  0  0  0  0  0  0  0  0  0  0
   26.5276  -20.8938  -13.7278 N   0  0  0  0  0  0  0  0  0  0  0  0
   27.7846  -21.4515  -13.1904 C   0  0  0  0  0  0  0  0  0  0  0  0
   27.9295  -22.7123  -14.0409 C   0  0  0  0  0  0  0  0  0  0  0  0
   26.9064  -22.5786  -15.1797 C   0  0  0  0  0  0  0  0  0  0  0  0
   26.7084  -21.0626  -15.1279 C   0  0  1  0  0  0  0  0  0  0  0  0
   25.7763  -20.5326  -16.0801 C   0  0  0  0  0  0  0  0  0  0  0  0
   24.5829  -20.8845  -16.1459 O   0  0  0  0  0  0  0  0  0  0  0  0
   26.1469  -19.5361  -17.0541 N   0  0  0  0  0  0  0  0  0  0  0  0
   25.2797  -19.0841  -18.0942 C   0  0  1  0  0  0  0  0  0  0  0  0
   25.1875  -17.5761  -18.0596 C   0  0  0  0  0  0  0  0  0  0  0  0
   24.1786  -17.0181  -19.0243 C   0  0  0  0  0  0  0  0  0  0  0  0
   24.0617  -15.5275  -18.9954 C   0  0  0  0  0  0  0  0  0  0  0  0
   22.9272  -15.0193  -19.8576 C   0  0  0  0  0  0  0  0  0  0  0  0
   22.8236  -13.5934  -19.6452 N   0  0  0  0  0  0  0  0  0  0  0  0
   25.8147  -19.4422  -19.4497 C   0  0  0  0  0  0  0  0  0  0  0  0
   27.1456  -19.3298  -19.7916 O   0  0  0  0  0  0  0  0  0  0  0  0
   25.0051  -19.8633  -20.3058 O   0  0  0  0  0  0  0  0  0  0  0  0
  2  1  1  1
  3  2  1  0
  3  4  1  0
  4  5  2  0
  4  9  1  0
  5  6  1  0
  6  7  2  0
  7  8  1  0
  9  8  2  0
 10 12  1  0
 10  2  1  0
 11 10  2  0
 12 16  1  0
 13 14  1  0
 13 12  1  0
 14 15  1  0
 15 16  1  0
 16 17  1  6
 17 18  2  0
 19 20  1  0
 19 17  1  0
 20 26  1  0
 20 21  1  6
 22 21  1  0
 23 22  1  0
 24 23  1  0
 25 24  1  0
 26 27  1  0
 28 26  2  0
M  END
$$$$
