FPK.pdb
     RDKit          3D

 28 29  0  0  1  0  0  0  0  0999 V2000
   24.6561  -22.5506  -19.3567 N   0  0  0  0  0  0  0  0  0  0  0  0
   24.2659  -23.5489  -18.4412 C   0  0  1  0  0  0  0  0  0  0  0  0
   22.7591  -23.5570  -18.1851 C   0  0  0  0  0  0  0  0  0  0  0  0
   22.2243  -22.1829  -18.1110 C   0  0  0  0  0  0  0  0  0  0  0  0
   22.5682  -21.3669  -17.0531 C   0  0  0  0  0  0  0  0  0  0  0  0
   22.0450  -20.0853  -17.0118 C   0  0  0  0  0  0  0  0  0  0  0  0
   21.1978  -19.5984  -17.9847 C   0  0  0  0  0  0  0  0  0  0  0  0
   20.8585  -20.4334  -19.0484 C   0  0  0  0  0  0  0  0  0  0  0  0
   21.3806  -21.7246  -19.0974 C   0  0  0  0  0  0  0  0  0  0  0  0
   24.7487  -24.9312  -18.6940 C   0  0  0  0  0  0  0  0  0  0  0  0
   23.8561  -25.6258  -19.3333 O   0  0  0  0  0  0  0  0  0  0  0  0
   25.9734  -25.4671  -18.3260 N   0  0  0  0  0  0  0  0  0  0  0  0
   27.2470  -24.7201  -18.3231 C   0  0  0  0  0  0  0  0  0  0  0  0
   27.8160  -25.1223  -16.9635 C   0  0  0  0  0  0  0  0  0  0  0  0
   26.9533  -26.2943  -16.4698 C   0  0  0  0  0  0  0  0  0  0  0  0
   26.3757  -26.7321  -17.8170 C   0  0  1  0  0  0  0  0  0  0  0  0
   25.4759  -27.8476  -17.7655 C   0  0  0  0  0  0  0  0  0  0  0  0
   24.4463  -27.8708  -17.0643 O   0  0  0  0  0  0  0  0  0  0  0  0
   25.6904  -29.0512  -18.5299 N   0  0  0  0  0  0  0  0  0  0  0  0
   24.7922  -30.1608  -18.5288 C   0  0  1  0  0  0  0  0  0  0  0  0
   25.1814  -31.1309  -19.6202 C   0  0  0  0  0  0  0  0  0  0  0  0
   24.2452  -32.3010  -19.7397 C   0  0  0  0  0  0  0  0  0  0  0  0
   23.1787  -32.1298  -20.7740 C   0  0  0  0  0  0  0  0  0  0  0  0
   22.3497  -33.3811  -20.9629 C   0  0  0  0  0  0  0  0  0  0  0  0
   21.3006  -33.0702  -21.9072 N   0  0  0  0  0  0  0  0  0  0  0  0
   24.8657  -30.9257  -17.2398 C   0  0  0  0  0  0  0  0  0  0  0  0
   25.8905  -30.7773  -16.3295 O   0  0  0  0  0  0  0  0  0  0  0  0
   23.9465  -31.7360  -16.9870 O   0  0  0  0  0  0  0  0  0  0  0  0
  2  1  1  6
  3  2  1  0
  3  4  1  0
  4  5  2  0
  4  9  1  0
  5  6  1  0
  6  7  2  0
  7  8  1  0
  9  8  2  0
 10 12  1  0
 10  2  1  0
 11 10  2  0
 12 16  1  0
 13 14  1  0
 13 12  1  0
 14 15  1  0
 15 16  1  0
 16 17  1  1
 17 18  2  0
 19 20  1  0
 19 17  1  0
 20 26  1  0
 20 21  1  6
 22 21  1  0
 23 22  1  0
 24 23  1  0
 25 24  1  0
 26 27  1  0
 28 26  2  0
M  END
$$$$
