FPK.pdb
     RDKit          3D

 28 29  0  0  1  0  0  0  0  0999 V2000
   24.3463  -19.8453   -9.6870 N   0  0  0  0  0  0  0  0  0  0  0  0
   25.6080  -20.0987  -10.2622 C   0  0  1  0  0  0  0  0  0  0  0  0
   26.3635  -21.2226   -9.5537 C   0  0  0  0  0  0  0  0  0  0  0  0
   27.0238  -20.7302   -8.3284 C   0  0  0  0  0  0  0  0  0  0  0  0
   26.2939  -20.0387   -7.3838 C   0  0  0  0  0  0  0  0  0  0  0  0
   26.9453  -19.5867   -6.2484 C   0  0  0  0  0  0  0  0  0  0  0  0
   28.2896  -19.8021   -6.0293 C   0  0  0  0  0  0  0  0  0  0  0  0
   29.0154  -20.5025   -6.9918 C   0  0  0  0  0  0  0  0  0  0  0  0
   28.3675  -20.9606   -8.1373 C   0  0  0  0  0  0  0  0  0  0  0  0
   25.6581  -20.2977  -11.7338 C   0  0  0  0  0  0  0  0  0  0  0  0
   24.5603  -20.8407  -12.1672 O   0  0  0  0  0  0  0  0  0  0  0  0
   26.7023  -19.9687  -12.5846 N   0  0  0  0  0  0  0  0  0  0  0  0
   27.8262  -19.0809  -12.2261 C   0  0  0  0  0  0  0  0  0  0  0  0
   29.0130  -19.8919  -12.7436 C   0  0  0  0  0  0  0  0  0  0  0  0
   28.4186  -21.0093  -13.6150 C   0  0  0  0  0  0  0  0  0  0  0  0
   27.0574  -20.3722  -13.9009 C   0  0  1  0  0  0  0  0  0  0  0  0
   26.1737  -21.1529  -14.7169 C   0  0  0  0  0  0  0  0  0  0  0  0
   25.9536  -22.3650  -14.5302 O   0  0  0  0  0  0  0  0  0  0  0  0
   25.4573  -20.5939  -15.8364 N   0  0  0  0  0  0  0  0  0  0  0  0
   24.4643  -21.3045  -16.5760 C   0  0  1  0  0  0  0  0  0  0  0  0
   23.1083  -21.0876  -15.9449 C   0  0  0  0  0  0  0  0  0  0  0  0
   22.5940  -19.6842  -16.1047 C   0  0  0  0  0  0  0  0  0  0  0  0
   21.2511  -19.4495  -15.4899 C   0  0  0  0  0  0  0  0  0  0  0  0
   20.7366  -18.0491  -15.7404 C   0  0  0  0  0  0  0  0  0  0  0  0
   19.4419  -17.9408  -15.1074 N   0  0  0  0  0  0  0  0  0  0  0  0
   24.3595  -20.7961  -17.9839 C   0  0  0  0  0  0  0  0  0  0  0  0
   23.6115  -21.4199  -18.9598 O   0  0  0  0  0  0  0  0  0  0  0  0
   24.9852  -19.7532  -18.2776 O   0  0  0  0  0  0  0  0  0  0  0  0
  2  1  1  1
  3  2  1  0
  3  4  1  0
  4  5  2  0
  4  9  1  0
  5  6  1  0
  6  7  2  0
  7  8  1  0
  9  8  2  0
 10 12  1  0
 10  2  1  0
 11 10  2  0
 12 16  1  0
 13 14  1  0
 13 12  1  0
 14 15  1  0
 15 16  1  0
 16 17  1  1
 17 18  2  0
 19 20  1  0
 19 17  1  0
 20 26  1  0
 20 21  1  1
 22 21  1  0
 23 22  1  0
 24 23  1  0
 25 24  1  0
 26 27  1  0
 28 26  2  0
M  END
$$$$
