FPK.pdb
     RDKit          3D

 28 29  0  0  1  0  0  0  0  0999 V2000
   20.8027  -15.9275  -19.6043 N   0  0  0  0  0  0  0  0  0  0  0  0
   20.5121  -15.7830  -18.2326 C   0  0  1  0  0  0  0  0  0  0  0  0
   19.8525  -14.4430  -17.9080 C   0  0  0  0  0  0  0  0  0  0  0  0
   20.5195  -13.3350  -18.6199 C   0  0  0  0  0  0  0  0  0  0  0  0
   21.6756  -12.7843  -18.1067 C   0  0  0  0  0  0  0  0  0  0  0  0
   22.2731  -11.7431  -18.7971 C   0  0  0  0  0  0  0  0  0  0  0  0
   21.7568  -11.2400  -19.9726 C   0  0  0  0  0  0  0  0  0  0  0  0
   20.5881  -11.8056  -20.4804 C   0  0  0  0  0  0  0  0  0  0  0  0
   19.9805  -12.8537  -19.7917 C   0  0  0  0  0  0  0  0  0  0  0  0
   19.7723  -16.8899  -17.5728 C   0  0  0  0  0  0  0  0  0  0  0  0
   18.5220  -16.8889  -17.9260 O   0  0  0  0  0  0  0  0  0  0  0  0
   20.2878  -17.8293  -16.6929 N   0  0  0  0  0  0  0  0  0  0  0  0
   21.6571  -18.3774  -16.7613 C   0  0  0  0  0  0  0  0  0  0  0  0
   22.0834  -18.2765  -15.2978 C   0  0  0  0  0  0  0  0  0  0  0  0
   20.8056  -17.9691  -14.5015 C   0  0  0  0  0  0  0  0  0  0  0  0
   19.7791  -18.4594  -15.5244 C   0  0  1  0  0  0  0  0  0  0  0  0
   18.4071  -18.3258  -15.1293 C   0  0  0  0  0  0  0  0  0  0  0  0
   17.8802  -17.2386  -14.8249 O   0  0  0  0  0  0  0  0  0  0  0  0
   17.5112  -19.4527  -15.0496 N   0  0  0  0  0  0  0  0  0  0  0  0
   16.1564  -19.3579  -14.6093 C   0  0  1  0  0  0  0  0  0  0  0  0
   15.2631  -20.1443  -15.5407 C   0  0  0  0  0  0  0  0  0  0  0  0
   13.7977  -19.9143  -15.2967 C   0  0  0  0  0  0  0  0  0  0  0  0
   12.8968  -20.6484  -16.2379 C   0  0  0  0  0  0  0  0  0  0  0  0
   11.4471  -20.2432  -16.0858 C   0  0  0  0  0  0  0  0  0  0  0  0
   10.6898  -20.9466  -17.0961 N   0  0  0  0  0  0  0  0  0  0  0  0
   15.9783  -19.9606  -13.2466 C   0  0  0  0  0  0  0  0  0  0  0  0
   16.9911  -20.6007  -12.5643 O   0  0  0  0  0  0  0  0  0  0  0  0
   14.8512  -19.8727  -12.7106 O   0  0  0  0  0  0  0  0  0  0  0  0
  2  1  1  6
  3  2  1  0
  3  4  1  0
  4  5  2  0
  4  9  1  0
  5  6  1  0
  6  7  2  0
  7  8  1  0
  9  8  2  0
 10 12  1  0
 10  2  1  0
 11 10  2  0
 12 16  1  0
 13 14  1  0
 13 12  1  0
 14 15  1  0
 15 16  1  0
 16 17  1  1
 17 18  2  0
 19 20  1  0
 19 17  1  0
 20 26  1  0
 20 21  1  6
 22 21  1  0
 23 22  1  0
 24 23  1  0
 25 24  1  0
 26 27  1  0
 28 26  2  0
M  END
$$$$
