LQT.pdb
     RDKit          3D

 25 24  0  0  1  0  0  0  0  0999 V2000
    9.6684  -13.3684   19.2222 C   0  0  0  0  0  0  0  0  0  0  0  0
    8.1575  -13.5298   19.3334 C   0  0  2  0  0  0  0  0  0  0  0  0
    7.5596  -12.1582   19.3076 C   0  0  0  0  0  0  0  0  0  0  0  0
    7.8774  -14.2642   20.6066 C   0  0  0  0  0  0  0  0  0  0  0  0
    8.5121  -15.6160   20.5576 C   0  0  2  0  0  0  0  0  0  0  0  0
    7.8031  -16.5051   19.6731 N   0  0  0  0  0  0  0  0  0  0  0  0
    8.6022  -16.1961   21.9292 C   0  0  0  0  0  0  0  0  0  0  0  0
    7.5676  -16.4710   22.5949 O   0  0  0  0  0  0  0  0  0  0  0  0
   12.9896  -20.0097   23.9664 N   0  0  0  0  0  0  0  0  0  0  0  0
   12.3984  -19.6165   25.1920 C   0  0  0  0  0  0  0  0  0  0  0  0
   12.8232  -20.1108   26.2775 O   0  0  0  0  0  0  0  0  0  0  0  0
   11.2951  -18.6364   25.1948 C   0  0  0  0  0  0  0  0  0  0  0  0
   11.1704  -17.9546   23.8474 C   0  0  0  0  0  0  0  0  0  0  0  0
    9.9853  -17.0156   23.8624 C   0  0  2  0  0  0  0  0  0  0  0  0
    9.8506  -16.4497   22.5116 N   0  0  0  0  0  0  0  0  0  0  0  0
   10.2246  -15.9176   24.8449 C   0  0  0  0  0  0  0  0  0  0  0  0
   11.0646  -15.0302   24.5780 O   0  0  0  0  0  0  0  0  0  0  0  0
    8.6544  -12.8986   28.1944 C   0  0  0  0  0  0  0  0  0  0  0  0
    8.3842  -14.0780   27.2848 C   0  0  1  0  0  0  0  0  0  0  0  0
    7.8523  -13.6621   26.0470 O   0  0  0  0  0  0  0  0  0  0  0  0
    9.7238  -14.7654   27.0258 C   0  0  2  0  0  0  0  0  0  0  0  0
    9.5308  -15.8422   26.0777 N   0  0  0  0  0  0  0  0  0  0  0  0
   10.2260  -15.2959   28.3188 C   0  0  0  0  0  0  0  0  0  0  0  0
   10.1997  -16.5300   28.5567 O   0  0  0  0  0  0  0  0  0  0  0  0
   10.7403  -14.4745   29.3122 O   0  0  0  0  0  0  0  0  0  0  0  0
  2  1  1  1
  2  3  1  0
  4  5  1  0
  4  2  1  0
  5  6  1  6
  7  8  2  0
  7  5  1  0
  9 10  1  0
 10 11  2  0
 12 10  1  0
 12 13  1  0
 14 13  1  6
 14 15  1  0
 15  7  1  0
 16 17  2  0
 16 14  1  0
 19 18  1  1
 20 19  1  0
 21 19  1  0
 21 22  1  6
 22 16  1  0
 23 21  1  0
 24 23  2  0
 25 23  1  0
M  END
$$$$
