LQT.pdb
     RDKit          3D

 25 24  0  0  1  0  0  0  0  0999 V2000
    9.6134  -13.2718   19.6182 C   0  0  0  0  0  0  0  0  0  0  0  0
    8.2199  -13.3949   19.0146 C   0  0  2  0  0  0  0  0  0  0  0  0
    7.6756  -12.0091   18.8636 C   0  0  0  0  0  0  0  0  0  0  0  0
    7.4046  -14.2443   19.9380 C   0  0  0  0  0  0  0  0  0  0  0  0
    8.1274  -15.5221   20.2158 C   0  0  2  0  0  0  0  0  0  0  0  0
    7.6666  -16.5899   19.3655 N   0  0  0  0  0  0  0  0  0  0  0  0
    7.9879  -15.8943   21.6539 C   0  0  0  0  0  0  0  0  0  0  0  0
    6.8632  -16.1604   22.1569 O   0  0  0  0  0  0  0  0  0  0  0  0
   12.0834  -19.0687   24.9623 N   0  0  0  0  0  0  0  0  0  0  0  0
   11.2827  -18.5347   26.0016 C   0  0  0  0  0  0  0  0  0  0  0  0
   11.5155  -18.8642   27.2017 O   0  0  0  0  0  0  0  0  0  0  0  0
   10.1864  -17.6011   25.6789 C   0  0  0  0  0  0  0  0  0  0  0  0
   10.1756  -17.2653   24.2013 C   0  0  0  0  0  0  0  0  0  0  0  0
    9.0248  -16.3310   23.9024 C   0  0  2  0  0  0  0  0  0  0  0  0
    9.1151  -15.9560   22.4832 N   0  0  0  0  0  0  0  0  0  0  0  0
    9.1339  -15.1088   24.7523 C   0  0  0  0  0  0  0  0  0  0  0  0
   10.1982  -14.4518   24.7453 O   0  0  0  0  0  0  0  0  0  0  0  0
    6.5214  -12.1336   25.2418 C   0  0  0  0  0  0  0  0  0  0  0  0
    6.7954  -12.8432   26.5505 C   0  0  1  0  0  0  0  0  0  0  0  0
    5.8425  -13.8525   26.7982 O   0  0  0  0  0  0  0  0  0  0  0  0
    8.1700  -13.4991   26.4300 C   0  0  2  0  0  0  0  0  0  0  0  0
    8.0693  -14.6615   25.5729 N   0  0  0  0  0  0  0  0  0  0  0  0
    8.6116  -13.8948   27.7916 C   0  0  0  0  0  0  0  0  0  0  0  0
    8.8954  -13.0218   28.6504 O   0  0  0  0  0  0  0  0  0  0  0  0
    8.7320  -15.2218   28.1799 O   0  0  0  0  0  0  0  0  0  0  0  0
  2  1  1  1
  2  3  1  0
  4  5  1  0
  4  2  1  0
  5  6  1  6
  7  8  2  0
  7  5  1  0
  9 10  1  0
 10 11  2  0
 12 10  1  0
 12 13  1  0
 14 13  1  1
 14 15  1  0
 15  7  1  0
 16 17  2  0
 16 14  1  0
 19 18  1  6
 20 19  1  0
 21 19  1  0
 21 22  1  6
 22 16  1  0
 23 21  1  0
 24 23  2  0
 25 23  1  0
M  END
$$$$
