LQT.pdb
     RDKit          3D

 25 24  0  0  1  0  0  0  0  0999 V2000
    9.4027  -13.5574   18.8842 C   0  0  0  0  0  0  0  0  0  0  0  0
    7.9970  -13.6706   19.4607 C   0  0  2  0  0  0  0  0  0  0  0  0
    7.4352  -12.2859   19.5408 C   0  0  0  0  0  0  0  0  0  0  0  0
    8.1128  -14.3312   20.7983 C   0  0  0  0  0  0  0  0  0  0  0  0
    8.5671  -15.7438   20.6240 C   0  0  2  0  0  0  0  0  0  0  0  0
    7.6396  -16.5069   19.8286 N   0  0  0  0  0  0  0  0  0  0  0  0
    8.7779  -16.3881   21.9532 C   0  0  0  0  0  0  0  0  0  0  0  0
    7.8410  -16.9842   22.5496 O   0  0  0  0  0  0  0  0  0  0  0  0
   13.6769  -19.5221   23.6728 N   0  0  0  0  0  0  0  0  0  0  0  0
   13.0491  -19.3539   24.9313 C   0  0  0  0  0  0  0  0  0  0  0  0
   13.5186  -19.9452   25.9477 O   0  0  0  0  0  0  0  0  0  0  0  0
   11.8560  -18.4934   25.0483 C   0  0  0  0  0  0  0  0  0  0  0  0
   11.5600  -17.7935   23.7374 C   0  0  0  0  0  0  0  0  0  0  0  0
   10.2909  -16.9824   23.8714 C   0  0  2  0  0  0  0  0  0  0  0  0
   10.0337  -16.3431   22.5721 N   0  0  0  0  0  0  0  0  0  0  0  0
   10.4705  -15.9346   24.9193 C   0  0  0  0  0  0  0  0  0  0  0  0
   11.0842  -14.8828   24.6337 O   0  0  0  0  0  0  0  0  0  0  0  0
    9.1347  -13.1781   28.4163 C   0  0  0  0  0  0  0  0  0  0  0  0
    8.8744  -14.2500   27.3798 C   0  0  1  0  0  0  0  0  0  0  0  0
    8.6005  -13.6883   26.1159 O   0  0  0  0  0  0  0  0  0  0  0  0
   10.1464  -15.0888   27.2675 C   0  0  2  0  0  0  0  0  0  0  0  0
    9.9684  -16.0878   26.2350 N   0  0  0  0  0  0  0  0  0  0  0  0
   10.3869  -15.7376   28.5816 C   0  0  0  0  0  0  0  0  0  0  0  0
   10.1891  -16.9700   28.7317 O   0  0  0  0  0  0  0  0  0  0  0  0
   10.8333  -15.0325   29.6904 O   0  0  0  0  0  0  0  0  0  0  0  0
  2  1  1  1
  2  3  1  0
  4  5  1  0
  4  2  1  0
  5  6  1  1
  7  8  2  0
  7  5  1  0
  9 10  1  0
 10 11  2  0
 12 10  1  0
 12 13  1  0
 14 13  1  6
 14 15  1  0
 15  7  1  0
 16 17  2  0
 16 14  1  0
 19 18  1  1
 20 19  1  0
 21 19  1  0
 21 22  1  6
 22 16  1  0
 23 21  1  0
 24 23  2  0
 25 23  1  0
M  END
$$$$
