LQT.pdb
     RDKit          3D

 25 24  0  0  1  0  0  0  0  0999 V2000
    8.3154  -12.3664   20.2599 C   0  0  0  0  0  0  0  0  0  0  0  0
    8.1781  -13.8278   19.8520 C   0  0  2  0  0  0  0  0  0  0  0  0
    7.9897  -13.8606   18.3678 C   0  0  0  0  0  0  0  0  0  0  0  0
    7.0131  -14.3948   20.6003 C   0  0  0  0  0  0  0  0  0  0  0  0
    7.2307  -15.8535   20.8396 C   0  0  2  0  0  0  0  0  0  0  0  0
    6.3420  -16.6617   20.0442 N   0  0  0  0  0  0  0  0  0  0  0  0
    7.0767  -16.1694   22.2896 C   0  0  0  0  0  0  0  0  0  0  0  0
    5.9450  -16.1696   22.8448 O   0  0  0  0  0  0  0  0  0  0  0  0
    7.0346  -20.6268   25.0145 N   0  0  0  0  0  0  0  0  0  0  0  0
    7.4042  -19.9186   26.1842 C   0  0  0  0  0  0  0  0  0  0  0  0
    6.9991  -20.3228   27.3136 O   0  0  0  0  0  0  0  0  0  0  0  0
    8.2563  -18.7184   26.0781 C   0  0  0  0  0  0  0  0  0  0  0  0
    8.4190  -18.2933   24.6328 C   0  0  0  0  0  0  0  0  0  0  0  0
    8.0881  -16.8241   24.4965 C   0  0  2  0  0  0  0  0  0  0  0  0
    8.1977  -16.4751   23.0720 N   0  0  0  0  0  0  0  0  0  0  0  0
    9.0596  -16.0131   25.2880 C   0  0  0  0  0  0  0  0  0  0  0  0
   10.2632  -15.9973   24.9482 O   0  0  0  0  0  0  0  0  0  0  0  0
    8.6151  -12.3291   26.6318 C   0  0  0  0  0  0  0  0  0  0  0  0
    8.8901  -13.2657   27.7888 C   0  0  1  0  0  0  0  0  0  0  0  0
    7.6940  -13.6916   28.4018 O   0  0  0  0  0  0  0  0  0  0  0  0
    9.6012  -14.4919   27.2186 C   0  0  2  0  0  0  0  0  0  0  0  0
    8.6668  -15.2547   26.4182 N   0  0  0  0  0  0  0  0  0  0  0  0
   10.0959  -15.3073   28.3570 C   0  0  0  0  0  0  0  0  0  0  0  0
    9.6464  -16.4640   28.5577 O   0  0  0  0  0  0  0  0  0  0  0  0
   11.0606  -14.8451   29.2412 O   0  0  0  0  0  0  0  0  0  0  0  0
  2  1  1  1
  2  3  1  0
  4  5  1  0
  4  2  1  0
  5  6  1  6
  7  8  2  0
  7  5  1  0
  9 10  1  0
 10 11  2  0
 12 10  1  0
 12 13  1  0
 14 13  1  6
 14 15  1  0
 15  7  1  0
 16 17  2  0
 16 14  1  0
 19 18  1  6
 20 19  1  0
 21 19  1  0
 21 22  1  1
 22 16  1  0
 23 21  1  0
 24 23  2  0
 25 23  1  0
M  END
$$$$
