LQT.pdb
     RDKit          3D

 25 24  0  0  1  0  0  0  0  0999 V2000
    7.9881  -13.5393   17.9565 C   0  0  0  0  0  0  0  0  0  0  0  0
    7.5281  -13.4443   19.4058 C   0  0  2  0  0  0  0  0  0  0  0  0
    6.7539  -12.1712   19.5452 C   0  0  0  0  0  0  0  0  0  0  0  0
    8.7507  -13.4806   20.2677 C   0  0  0  0  0  0  0  0  0  0  0  0
    9.4512  -14.7887   20.0921 C   0  0  2  0  0  0  0  0  0  0  0  0
    8.5722  -15.9014   20.3463 N   0  0  0  0  0  0  0  0  0  0  0  0
   10.6545  -14.8542   20.9718 C   0  0  0  0  0  0  0  0  0  0  0  0
   11.5536  -13.9722   20.9209 O   0  0  0  0  0  0  0  0  0  0  0  0
   11.4718  -19.1271   25.5983 N   0  0  0  0  0  0  0  0  0  0  0  0
   12.6335  -18.3231   25.6996 C   0  0  0  0  0  0  0  0  0  0  0  0
   13.4635  -18.5391   26.6310 O   0  0  0  0  0  0  0  0  0  0  0  0
   12.8673  -17.2430   24.7217 C   0  0  0  0  0  0  0  0  0  0  0  0
   11.7057  -17.1231   23.7562 C   0  0  0  0  0  0  0  0  0  0  0  0
   11.9769  -16.0065   22.7733 C   0  0  2  0  0  0  0  0  0  0  0  0
   10.8117  -15.9079   21.8813 N   0  0  0  0  0  0  0  0  0  0  0  0
   13.1960  -16.3245   21.9729 C   0  0  0  0  0  0  0  0  0  0  0  0
   13.2435  -17.3967   21.3305 O   0  0  0  0  0  0  0  0  0  0  0  0
   14.5792  -15.2482   19.0543 C   0  0  0  0  0  0  0  0  0  0  0  0
   15.7053  -14.9043   20.0056 C   0  0  1  0  0  0  0  0  0  0  0  0
   15.6375  -13.5578   20.4182 O   0  0  0  0  0  0  0  0  0  0  0  0
   15.5438  -15.7933   21.2376 C   0  0  2  0  0  0  0  0  0  0  0  0
   14.3099  -15.4512   21.9129 N   0  0  0  0  0  0  0  0  0  0  0  0
   16.7068  -15.5576   22.1305 C   0  0  0  0  0  0  0  0  0  0  0  0
   16.5447  -15.0595   23.2733 O   0  0  0  0  0  0  0  0  0  0  0  0
   18.0073  -15.8682   21.7583 O   0  0  0  0  0  0  0  0  0  0  0  0
  2  1  1  6
  2  3  1  0
  4  5  1  0
  4  2  1  0
  5  6  1  1
  7  8  2  0
  7  5  1  0
  9 10  1  0
 10 11  2  0
 12 10  1  0
 12 13  1  0
 14 13  1  1
 14 15  1  0
 15  7  1  0
 16 17  2  0
 16 14  1  0
 19 18  1  6
 20 19  1  0
 21 19  1  0
 21 22  1  1
 22 16  1  0
 23 21  1  0
 24 23  2  0
 25 23  1  0
M  END
$$$$
