LQT.pdb
     RDKit          3D

 25 24  0  0  1  0  0  0  0  0999 V2000
    7.8859  -11.8994   20.0284 C   0  0  0  0  0  0  0  0  0  0  0  0
    8.1783  -13.3745   19.7842 C   0  0  2  0  0  0  0  0  0  0  0  0
    8.3030  -13.5653   18.3052 C   0  0  0  0  0  0  0  0  0  0  0  0
    7.0527  -14.1595   20.3807 C   0  0  0  0  0  0  0  0  0  0  0  0
    7.4448  -15.5971   20.4902 C   0  0  2  0  0  0  0  0  0  0  0  0
    6.5155  -16.4562   19.8019 N   0  0  0  0  0  0  0  0  0  0  0  0
    7.5680  -15.9928   21.9235 C   0  0  0  0  0  0  0  0  0  0  0  0
    6.5619  -16.3459   22.5958 O   0  0  0  0  0  0  0  0  0  0  0  0
   12.2712  -19.0259   24.3935 N   0  0  0  0  0  0  0  0  0  0  0  0
   11.5693  -18.6465   25.5639 C   0  0  0  0  0  0  0  0  0  0  0  0
   11.9135  -19.1288   26.6828 O   0  0  0  0  0  0  0  0  0  0  0  0
   10.4453  -17.6948   25.4707 C   0  0  0  0  0  0  0  0  0  0  0  0
   10.2181  -17.2606   24.0369 C   0  0  0  0  0  0  0  0  0  0  0  0
    8.9873  -16.3855   23.9615 C   0  0  2  0  0  0  0  0  0  0  0  0
    8.8167  -15.9798   22.5582 N   0  0  0  0  0  0  0  0  0  0  0  0
    9.1764  -15.1750   24.8142 C   0  0  0  0  0  0  0  0  0  0  0  0
   10.2842  -14.5943   24.8150 O   0  0  0  0  0  0  0  0  0  0  0  0
    6.6636  -12.0956   25.5219 C   0  0  0  0  0  0  0  0  0  0  0  0
    7.0035  -12.8528   26.7878 C   0  0  1  0  0  0  0  0  0  0  0  0
    6.0320  -13.8327   27.0779 O   0  0  0  0  0  0  0  0  0  0  0  0
    8.3389  -13.5557   26.5495 C   0  0  2  0  0  0  0  0  0  0  0  0
    8.1406  -14.6552   25.6290 N   0  0  0  0  0  0  0  0  0  0  0  0
    8.8348  -14.0562   27.8568 C   0  0  0  0  0  0  0  0  0  0  0  0
    9.1825  -13.2525   28.7587 O   0  0  0  0  0  0  0  0  0  0  0  0
    8.9386  -15.4096   28.1461 O   0  0  0  0  0  0  0  0  0  0  0  0
  2  1  1  6
  2  3  1  0
  4  5  1  0
  4  2  1  0
  5  6  1  1
  7  8  2  0
  7  5  1  0
  9 10  1  0
 10 11  2  0
 12 10  1  0
 12 13  1  0
 14 13  1  6
 14 15  1  0
 15  7  1  0
 16 17  2  0
 16 14  1  0
 19 18  1  6
 20 19  1  0
 21 19  1  0
 21 22  1  6
 22 16  1  0
 23 21  1  0
 24 23  2  0
 25 23  1  0
M  END
$$$$
