LQT.pdb
     RDKit          3D

 25 24  0  0  1  0  0  0  0  0999 V2000
    9.4942  -13.7596   19.1253 C   0  0  0  0  0  0  0  0  0  0  0  0
    8.0322  -13.6917   19.5487 C   0  0  2  0  0  0  0  0  0  0  0  0
    7.6190  -12.2544   19.4956 C   0  0  0  0  0  0  0  0  0  0  0  0
    7.9358  -14.2759   20.9229 C   0  0  0  0  0  0  0  0  0  0  0  0
    8.3295  -15.7167   20.8857 C   0  0  2  0  0  0  0  0  0  0  0  0
    7.4285  -16.4939   20.0735 N   0  0  0  0  0  0  0  0  0  0  0  0
    8.4037  -16.2695   22.2695 C   0  0  0  0  0  0  0  0  0  0  0  0
    7.3656  -16.4454   22.9626 O   0  0  0  0  0  0  0  0  0  0  0  0
   12.2824  -20.6185   26.7194 N   0  0  0  0  0  0  0  0  0  0  0  0
   12.0488  -19.8581   25.5474 C   0  0  0  0  0  0  0  0  0  0  0  0
   12.7481  -20.0725   24.5139 O   0  0  0  0  0  0  0  0  0  0  0  0
   10.9954  -18.8247   25.5397 C   0  0  0  0  0  0  0  0  0  0  0  0
   10.8336  -18.2238   24.1581 C   0  0  0  0  0  0  0  0  0  0  0  0
    9.7592  -17.1603   24.1908 C   0  0  2  0  0  0  0  0  0  0  0  0
    9.6408  -16.6075   22.8330 N   0  0  0  0  0  0  0  0  0  0  0  0
   10.1503  -16.0776   25.1410 C   0  0  0  0  0  0  0  0  0  0  0  0
   10.8920  -15.1526   24.7426 O   0  0  0  0  0  0  0  0  0  0  0  0
    9.2789  -13.0975   28.7169 C   0  0  0  0  0  0  0  0  0  0  0  0
    8.8585  -14.1382   27.7012 C   0  0  1  0  0  0  0  0  0  0  0  0
    8.4543  -13.5411   26.4896 O   0  0  0  0  0  0  0  0  0  0  0  0
   10.0777  -15.0154   27.4215 C   0  0  2  0  0  0  0  0  0  0  0  0
    9.7097  -16.0581   26.4872 N   0  0  0  0  0  0  0  0  0  0  0  0
   10.5244  -15.6059   28.7089 C   0  0  0  0  0  0  0  0  0  0  0  0
   10.2846  -16.8105   28.9769 O   0  0  0  0  0  0  0  0  0  0  0  0
   11.2159  -14.8745   29.6644 O   0  0  0  0  0  0  0  0  0  0  0  0
  2  1  1  1
  2  3  1  0
  4  5  1  0
  4  2  1  0
  5  6  1  6
  7  8  2  0
  7  5  1  0
  9 10  1  0
 10 11  2  0
 12 10  1  0
 12 13  1  0
 14 13  1  6
 14 15  1  0
 15  7  1  0
 16 17  2  0
 16 14  1  0
 19 18  1  1
 20 19  1  0
 21 19  1  0
 21 22  1  6
 22 16  1  0
 23 21  1  0
 24 23  2  0
 25 23  1  0
M  END
$$$$
