LQT.pdb
     RDKit          3D

 25 24  0  0  1  0  0  0  0  0999 V2000
    8.7289  -11.8158   20.1404 C   0  0  0  0  0  0  0  0  0  0  0  0
    8.5157  -13.2496   19.6716 C   0  0  2  0  0  0  0  0  0  0  0  0
    7.2811  -13.2632   18.8261 C   0  0  0  0  0  0  0  0  0  0  0  0
    8.3964  -14.1073   20.8918 C   0  0  0  0  0  0  0  0  0  0  0  0
    8.8733  -15.4894   20.5838 C   0  0  2  0  0  0  0  0  0  0  0  0
    7.9321  -16.2063   19.7617 N   0  0  0  0  0  0  0  0  0  0  0  0
    9.1483  -16.2360   21.8459 C   0  0  0  0  0  0  0  0  0  0  0  0
    8.2236  -16.8035   22.4877 O   0  0  0  0  0  0  0  0  0  0  0  0
   14.4798  -18.9969   23.4628 N   0  0  0  0  0  0  0  0  0  0  0  0
   13.8264  -18.9159   24.7169 C   0  0  0  0  0  0  0  0  0  0  0  0
   14.3659  -19.4365   25.7372 O   0  0  0  0  0  0  0  0  0  0  0  0
   12.5257  -18.2273   24.8248 C   0  0  0  0  0  0  0  0  0  0  0  0
   12.0977  -17.6611   23.4861 C   0  0  0  0  0  0  0  0  0  0  0  0
   10.7570  -16.9769   23.6306 C   0  0  2  0  0  0  0  0  0  0  0  0
   10.4527  -16.3224   22.3492 N   0  0  0  0  0  0  0  0  0  0  0  0
   10.8283  -15.9518   24.7132 C   0  0  0  0  0  0  0  0  0  0  0  0
   11.4025  -14.8636   24.4883 O   0  0  0  0  0  0  0  0  0  0  0  0
    8.8115  -13.4818   28.1400 C   0  0  0  0  0  0  0  0  0  0  0  0
    8.7987  -14.5815   27.1000 C   0  0  1  0  0  0  0  0  0  0  0  0
    8.4424  -14.0845   25.8295 O   0  0  0  0  0  0  0  0  0  0  0  0
   10.2178  -15.1413   27.0165 C   0  0  2  0  0  0  0  0  0  0  0  0
   10.2658  -16.1665   25.9955 N   0  0  0  0  0  0  0  0  0  0  0  0
   10.5656  -15.7126   28.3425 C   0  0  0  0  0  0  0  0  0  0  0  0
   10.5256  -16.9544   28.5338 O   0  0  0  0  0  0  0  0  0  0  0  0
   10.9453  -14.9222   29.4182 O   0  0  0  0  0  0  0  0  0  0  0  0
  2  1  1  1
  2  3  1  0
  4  5  1  0
  4  2  1  0
  5  6  1  1
  7  8  2  0
  7  5  1  0
  9 10  1  0
 10 11  2  0
 12 10  1  0
 12 13  1  0
 14 13  1  6
 14 15  1  0
 15  7  1  0
 16 17  2  0
 16 14  1  0
 19 18  1  1
 20 19  1  0
 21 19  1  0
 21 22  1  6
 22 16  1  0
 23 21  1  0
 24 23  2  0
 25 23  1  0
M  END
$$$$
