LQT.pdb
     RDKit          3D

 25 24  0  0  1  0  0  0  0  0999 V2000
    8.2284  -11.8311   18.8877 C   0  0  0  0  0  0  0  0  0  0  0  0
    8.2068  -13.3325   18.6297 C   0  0  2  0  0  0  0  0  0  0  0  0
    7.3322  -13.5675   17.4384 C   0  0  0  0  0  0  0  0  0  0  0  0
    7.6929  -13.9933   19.8699 C   0  0  0  0  0  0  0  0  0  0  0  0
    8.7493  -14.8828   20.4404 C   0  0  2  0  0  0  0  0  0  0  0  0
    8.9218  -16.0769   19.6531 N   0  0  0  0  0  0  0  0  0  0  0  0
    8.4287  -15.2254   21.8567 C   0  0  0  0  0  0  0  0  0  0  0  0
    7.3403  -14.8743   22.3868 O   0  0  0  0  0  0  0  0  0  0  0  0
   12.4823  -18.8548   23.2931 N   0  0  0  0  0  0  0  0  0  0  0  0
   11.1987  -19.4081   23.5224 C   0  0  0  0  0  0  0  0  0  0  0  0
   11.0911  -20.6334   23.8226 O   0  0  0  0  0  0  0  0  0  0  0  0
    9.9999  -18.5549   23.4101 C   0  0  0  0  0  0  0  0  0  0  0  0
   10.0482  -17.4157   24.4080 C   0  0  0  0  0  0  0  0  0  0  0  0
    9.0425  -16.3565   24.0168 C   0  0  2  0  0  0  0  0  0  0  0  0
    9.3398  -15.9514   22.6345 N   0  0  0  0  0  0  0  0  0  0  0  0
    9.1725  -15.1783   24.9239 C   0  0  0  0  0  0  0  0  0  0  0  0
   10.2020  -14.4706   24.8637 O   0  0  0  0  0  0  0  0  0  0  0  0
    6.7533  -12.2085   25.6491 C   0  0  0  0  0  0  0  0  0  0  0  0
    6.9580  -13.0109   26.9162 C   0  0  1  0  0  0  0  0  0  0  0  0
    5.9507  -13.9844   27.0774 O   0  0  0  0  0  0  0  0  0  0  0  0
    8.3016  -13.7265   26.7863 C   0  0  2  0  0  0  0  0  0  0  0  0
    8.1661  -14.8286   25.8576 N   0  0  0  0  0  0  0  0  0  0  0  0
    8.6890  -14.2249   28.1305 C   0  0  0  0  0  0  0  0  0  0  0  0
    8.7849  -15.4587   28.3515 O   0  0  0  0  0  0  0  0  0  0  0  0
    8.9602  -13.3728   29.1918 O   0  0  0  0  0  0  0  0  0  0  0  0
  2  1  1  1
  2  3  1  0
  4  5  1  0
  4  2  1  0
  5  6  1  6
  7  8  2  0
  7  5  1  0
  9 10  1  0
 10 11  2  0
 12 10  1  0
 12 13  1  0
 14 13  1  1
 14 15  1  0
 15  7  1  0
 16 17  2  0
 16 14  1  0
 19 18  1  6
 20 19  1  0
 21 19  1  0
 21 22  1  6
 22 16  1  0
 23 21  1  0
 24 23  2  0
 25 23  1  0
M  END
$$$$
