LQT.pdb
     RDKit          3D

 25 24  0  0  1  0  0  0  0  0999 V2000
    9.1296  -13.8562   18.9689 C   0  0  0  0  0  0  0  0  0  0  0  0
    7.8495  -13.7046   19.7809 C   0  0  2  0  0  0  0  0  0  0  0  0
    7.5215  -12.2453   19.8279 C   0  0  0  0  0  0  0  0  0  0  0  0
    8.1053  -14.2887   21.1346 C   0  0  0  0  0  0  0  0  0  0  0  0
    8.2556  -15.7710   21.0226 C   0  0  2  0  0  0  0  0  0  0  0  0
    7.0685  -16.3875   20.4877 N   0  0  0  0  0  0  0  0  0  0  0  0
    8.6040  -16.3582   22.3492 C   0  0  0  0  0  0  0  0  0  0  0  0
    7.7262  -16.5485   23.2337 O   0  0  0  0  0  0  0  0  0  0  0  0
   11.1520  -20.7004   24.0309 N   0  0  0  0  0  0  0  0  0  0  0  0
   11.7341  -20.0533   25.1483 C   0  0  0  0  0  0  0  0  0  0  0  0
   11.9764  -20.7175   26.1987 O   0  0  0  0  0  0  0  0  0  0  0  0
   12.0531  -18.6141   25.0802 C   0  0  0  0  0  0  0  0  0  0  0  0
   11.6111  -18.0214   23.7577 C   0  0  0  0  0  0  0  0  0  0  0  0
   10.3214  -17.2560   23.9512 C   0  0  2  0  0  0  0  0  0  0  0  0
    9.9269  -16.7134   22.6424 N   0  0  0  0  0  0  0  0  0  0  0  0
   10.5393  -16.1361   24.9137 C   0  0  0  0  0  0  0  0  0  0  0  0
   11.1710  -15.1231   24.5405 O   0  0  0  0  0  0  0  0  0  0  0  0
    9.2537  -13.2185   28.3707 C   0  0  0  0  0  0  0  0  0  0  0  0
    8.9600  -14.3623   27.4238 C   0  0  1  0  0  0  0  0  0  0  0  0
    8.4950  -13.8929   26.1782 O   0  0  0  0  0  0  0  0  0  0  0  0
   10.2730  -15.1094   27.1961 C   0  0  2  0  0  0  0  0  0  0  0  0
   10.0541  -16.1776   26.2439 N   0  0  0  0  0  0  0  0  0  0  0  0
   10.7206  -15.6605   28.5006 C   0  0  0  0  0  0  0  0  0  0  0  0
   10.7356  -16.9018   28.6987 O   0  0  0  0  0  0  0  0  0  0  0  0
   11.1374  -14.8512   29.5481 O   0  0  0  0  0  0  0  0  0  0  0  0
  2  1  1  6
  2  3  1  0
  4  5  1  0
  4  2  1  0
  5  6  1  1
  7  8  2  0
  7  5  1  0
  9 10  1  0
 10 11  2  0
 12 10  1  0
 12 13  1  0
 14 13  1  6
 14 15  1  0
 15  7  1  0
 16 17  2  0
 16 14  1  0
 19 18  1  1
 20 19  1  0
 21 19  1  0
 21 22  1  6
 22 16  1  0
 23 21  1  0
 24 23  2  0
 25 23  1  0
M  END
$$$$
