LQT.pdb
     RDKit          3D

 25 24  0  0  1  0  0  0  0  0999 V2000
    8.0041  -12.4751   18.7218 C   0  0  0  0  0  0  0  0  0  0  0  0
    7.7385  -13.6075   19.7057 C   0  0  2  0  0  0  0  0  0  0  0  0
    7.4725  -12.9851   21.0404 C   0  0  0  0  0  0  0  0  0  0  0  0
    8.9441  -14.4938   19.7055 C   0  0  0  0  0  0  0  0  0  0  0  0
    8.6936  -15.6838   20.5737 C   0  0  2  0  0  0  0  0  0  0  0  0
    7.3081  -16.0780   20.5497 N   0  0  0  0  0  0  0  0  0  0  0  0
    9.1409  -15.4095   21.9704 C   0  0  0  0  0  0  0  0  0  0  0  0
   10.3320  -15.0865   22.2267 O   0  0  0  0  0  0  0  0  0  0  0  0
    5.6260  -12.8112   26.2896 N   0  0  0  0  0  0  0  0  0  0  0  0
    6.8422  -13.0213   26.9847 C   0  0  0  0  0  0  0  0  0  0  0  0
    7.0334  -12.4470   28.0968 O   0  0  0  0  0  0  0  0  0  0  0  0
    7.8743  -13.9053   26.4093 C   0  0  0  0  0  0  0  0  0  0  0  0
    7.5010  -14.3344   25.0049 C   0  0  0  0  0  0  0  0  0  0  0  0
    8.6154  -15.1708   24.4176 C   0  0  2  0  0  0  0  0  0  0  0  0
    8.2374  -15.5065   23.0365 N   0  0  0  0  0  0  0  0  0  0  0  0
    8.7775  -16.4240   25.2121 C   0  0  0  0  0  0  0  0  0  0  0  0
    7.7717  -17.1241   25.4624 O   0  0  0  0  0  0  0  0  0  0  0  0
   10.5437  -19.5370   24.6310 C   0  0  0  0  0  0  0  0  0  0  0  0
   11.2067  -18.9720   25.8690 C   0  0  1  0  0  0  0  0  0  0  0  0
   12.3625  -18.2335   25.5424 O   0  0  0  0  0  0  0  0  0  0  0  0
   10.2031  -18.0273   26.5281 C   0  0  2  0  0  0  0  0  0  0  0  0
   10.0373  -16.8536   25.6971 N   0  0  0  0  0  0  0  0  0  0  0  0
   10.7357  -17.6482   27.8616 C   0  0  0  0  0  0  0  0  0  0  0  0
   11.1706  -16.4872   28.0696 O   0  0  0  0  0  0  0  0  0  0  0  0
   10.7805  -18.5370   28.9266 O   0  0  0  0  0  0  0  0  0  0  0  0
  2  1  1  6
  2  3  1  0
  4  5  1  0
  4  2  1  0
  5  6  1  1
  7  8  2  0
  7  5  1  0
  9 10  1  0
 10 11  2  0
 12 10  1  0
 12 13  1  0
 14 13  1  1
 14 15  1  0
 15  7  1  0
 16 17  2  0
 16 14  1  0
 19 18  1  6
 20 19  1  0
 21 19  1  0
 21 22  1  6
 22 16  1  0
 23 21  1  0
 24 23  2  0
 25 23  1  0
M  END
$$$$
