WYQ.pdb
     RDKit          3D

 36 38  0  0  1  0  0  0  0  0999 V2000
   26.0429  -18.7501  -18.5598 N   0  0  0  0  0  0  0  0  0  0  0  0
   25.6494  -18.1968  -17.2791 C   0  0  1  0  0  0  0  0  0  0  0  0
   24.5084  -17.2325  -17.4792 C   0  0  0  0  0  0  0  0  0  0  0  0
   25.0417  -16.0632  -18.2150 C   0  0  0  0  0  0  0  0  0  0  0  0
   24.6007  -15.5670  -19.4171 C   0  0  0  0  0  0  0  0  0  0  0  0
   25.3564  -14.4853  -19.7487 N   0  0  0  0  0  0  0  0  0  0  0  0
   26.2721  -14.2651  -18.8005 C   0  0  0  0  0  0  0  0  0  0  0  0
   27.2602  -13.3346  -18.6357 C   0  0  0  0  0  0  0  0  0  0  0  0
   28.0928  -13.3455  -17.5126 C   0  0  0  0  0  0  0  0  0  0  0  0
   27.9157  -14.3123  -16.5519 C   0  0  0  0  0  0  0  0  0  0  0  0
   26.9171  -15.2394  -16.7349 C   0  0  0  0  0  0  0  0  0  0  0  0
   26.0893  -15.2367  -17.8416 C   0  0  0  0  0  0  0  0  0  0  0  0
   25.2495  -19.2503  -16.3255 C   0  0  0  0  0  0  0  0  0  0  0  0
   24.6344  -20.2722  -16.6708 O   0  0  0  0  0  0  0  0  0  0  0  0
   23.8352  -22.8291   -8.3509 O   0  0  0  0  0  0  0  0  0  0  0  0
   24.3478  -22.0665   -9.4150 C   0  0  0  0  0  0  0  0  0  0  0  0
   25.3875  -22.5193  -10.1755 C   0  0  0  0  0  0  0  0  0  0  0  0
   25.8810  -21.7629  -11.2155 C   0  0  0  0  0  0  0  0  0  0  0  0
   25.3474  -20.5123  -11.5369 C   0  0  0  0  0  0  0  0  0  0  0  0
   25.8943  -19.7139  -12.6578 C   0  0  0  0  0  0  0  0  0  0  0  0
   25.1253  -19.9752  -13.9307 C   0  0  2  0  0  0  0  0  0  0  0  0
   25.6000  -19.0578  -14.9479 N   0  0  0  0  0  0  0  0  0  0  0  0
   23.6666  -19.7494  -13.7458 C   0  0  0  0  0  0  0  0  0  0  0  0
   23.2101  -18.5781  -13.5878 O   0  0  0  0  0  0  0  0  0  0  0  0
   24.2937  -20.0838  -10.7450 C   0  0  0  0  0  0  0  0  0  0  0  0
   23.7956  -20.8373   -9.7022 C   0  0  0  0  0  0  0  0  0  0  0  0
   20.9934  -20.5214  -17.4139 N   0  0  0  0  0  0  0  0  0  0  0  0
   20.6710  -21.7763  -16.8373 C   0  0  0  0  0  0  0  0  0  0  0  0
   20.6364  -22.7901  -17.5636 O   0  0  0  0  0  0  0  0  0  0  0  0
   20.3864  -21.8164  -15.3816 C   0  0  0  0  0  0  0  0  0  0  0  0
   20.5003  -20.4913  -14.6922 C   0  0  0  0  0  0  0  0  0  0  0  0
   21.2885  -20.5892  -13.4361 C   0  0  2  0  0  0  0  0  0  0  0  0
   22.7174  -20.7914  -13.7334 N   0  0  0  0  0  0  0  0  0  0  0  0
   20.8619  -21.7867  -12.6812 C   0  0  0  0  0  0  0  0  0  0  0  0
   19.7129  -21.8625  -11.9180 O   0  0  0  0  0  0  0  0  0  0  0  0
   21.6150  -22.8168  -12.7427 O   0  0  0  0  0  0  0  0  0  0  0  0
  2  1  1  6
  3  2  1  0
  3  4  1  0
  4 12  1  0
  4  5  2  0
  5  6  1  0
  7  6  1  0
  7  8  2  0
  9  8  1  0
 10  9  2  0
 11 12  2  0
 11 10  1  0
 12  7  1  0
 13 14  2  0
 13  2  1  0
 15 16  1  0
 16 17  2  0
 17 18  1  0
 19 18  2  0
 19 20  1  0
 21 20  1  1
 21 22  1  0
 22 13  1  0
 23 21  1  0
 24 23  2  0
 25 19  1  0
 26 16  1  0
 26 25  2  0
 28 29  2  0
 28 27  1  0
 30 28  1  0
 32 31  1  6
 31 30  1  0
 32 33  1  0
 33 23  1  0
 34 35  1  0
 34 32  1  0
 36 34  2  0
M  END
$$$$
