WYQ.pdb
     RDKit          3D

 36 38  0  0  1  0  0  0  0  0999 V2000
   23.5287  -19.9428  -17.7909 N   0  0  0  0  0  0  0  0  0  0  0  0
   22.7392  -19.6304  -16.6160 C   0  0  1  0  0  0  0  0  0  0  0  0
   21.2775  -19.6167  -16.9838 C   0  0  0  0  0  0  0  0  0  0  0  0
   20.9879  -18.2994  -17.5951 C   0  0  0  0  0  0  0  0  0  0  0  0
   21.1443  -17.9428  -18.9121 C   0  0  0  0  0  0  0  0  0  0  0  0
   20.7670  -16.6443  -19.0625 N   0  0  0  0  0  0  0  0  0  0  0  0
   20.3714  -16.1487  -17.8861 C   0  0  0  0  0  0  0  0  0  0  0  0
   19.9057  -14.9289  -17.4803 C   0  0  0  0  0  0  0  0  0  0  0  0
   19.5583  -14.6868  -16.1480 C   0  0  0  0  0  0  0  0  0  0  0  0
   19.6871  -15.6961  -15.2239 C   0  0  0  0  0  0  0  0  0  0  0  0
   20.1569  -16.9157  -15.6505 C   0  0  0  0  0  0  0  0  0  0  0  0
   20.5029  -17.1645  -16.9652 C   0  0  0  0  0  0  0  0  0  0  0  0
   22.9693  -20.5993  -15.5263 C   0  0  0  0  0  0  0  0  0  0  0  0
   23.0056  -21.8263  -15.7135 O   0  0  0  0  0  0  0  0  0  0  0  0
   29.1658  -20.5579  -15.5576 O   0  0  0  0  0  0  0  0  0  0  0  0
   28.0169  -20.5599  -14.7473 C   0  0  0  0  0  0  0  0  0  0  0  0
   27.4771  -21.7259  -14.2852 C   0  0  0  0  0  0  0  0  0  0  0  0
   26.3510  -21.7149  -13.4920 C   0  0  0  0  0  0  0  0  0  0  0  0
   25.7164  -20.5247  -13.1275 C   0  0  0  0  0  0  0  0  0  0  0  0
   24.5051  -20.5352  -12.2756 C   0  0  0  0  0  0  0  0  0  0  0  0
   23.2925  -20.9603  -13.0685 C   0  0  2  0  0  0  0  0  0  0  0  0
   23.1555  -20.0715  -14.2056 N   0  0  0  0  0  0  0  0  0  0  0  0
   22.0487  -20.8719  -12.2573 C   0  0  0  0  0  0  0  0  0  0  0  0
   21.7067  -19.7776  -11.7181 O   0  0  0  0  0  0  0  0  0  0  0  0
   26.2906  -19.3608  -13.6137 C   0  0  0  0  0  0  0  0  0  0  0  0
   27.4183  -19.3661  -14.4085 C   0  0  0  0  0  0  0  0  0  0  0  0
   16.3949  -20.7109  -12.8003 N   0  0  0  0  0  0  0  0  0  0  0  0
   17.3651  -21.0600  -13.7738 C   0  0  0  0  0  0  0  0  0  0  0  0
   17.0118  -21.2071  -14.9612 O   0  0  0  0  0  0  0  0  0  0  0  0
   18.7673  -21.2359  -13.3214 C   0  0  0  0  0  0  0  0  0  0  0  0
   18.9932  -20.9284  -11.8727 C   0  0  0  0  0  0  0  0  0  0  0  0
   19.9468  -21.8823  -11.2487 C   0  0  2  0  0  0  0  0  0  0  0  0
   21.1885  -21.9667  -12.0373 N   0  0  0  0  0  0  0  0  0  0  0  0
   19.3651  -23.2414  -11.2688 C   0  0  0  0  0  0  0  0  0  0  0  0
   19.8786  -24.3019  -11.9901 O   0  0  0  0  0  0  0  0  0  0  0  0
   18.3141  -23.4391  -10.5701 O   0  0  0  0  0  0  0  0  0  0  0  0
  2  1  1  6
  3  2  1  0
  3  4  1  0
  4 12  1  0
  4  5  2  0
  5  6  1  0
  7  6  1  0
  7  8  2  0
  9  8  1  0
 10  9  2  0
 11 12  2  0
 11 10  1  0
 12  7  1  0
 13 14  2  0
 13  2  1  0
 15 16  1  0
 16 17  2  0
 17 18  1  0
 19 18  2  0
 19 20  1  0
 21 20  1  1
 21 22  1  0
 22 13  1  0
 23 21  1  0
 24 23  2  0
 25 19  1  0
 26 16  1  0
 26 25  2  0
 28 29  2  0
 28 27  1  0
 30 28  1  0
 32 31  1  6
 31 30  1  0
 32 33  1  0
 33 23  1  0
 34 35  1  0
 34 32  1  0
 36 34  2  0
M  END
$$$$
