WYQ.pdb
     RDKit          3D

 36 38  0  0  1  0  0  0  0  0999 V2000
   28.1933  -19.9644  -10.9358 N   0  0  0  0  0  0  0  0  0  0  0  0
   27.1368  -20.9312  -11.1602 C   0  0  1  0  0  0  0  0  0  0  0  0
   26.5760  -21.3774   -9.8342 C   0  0  0  0  0  0  0  0  0  0  0  0
   27.5827  -21.0542   -8.7973 C   0  0  0  0  0  0  0  0  0  0  0  0
   27.4277  -20.2123   -7.7235 C   0  0  0  0  0  0  0  0  0  0  0  0
   28.5879  -20.1896   -7.0131 N   0  0  0  0  0  0  0  0  0  0  0  0
   29.4887  -20.9893   -7.5920 C   0  0  0  0  0  0  0  0  0  0  0  0
   30.7817  -21.3261   -7.3016 C   0  0  0  0  0  0  0  0  0  0  0  0
   31.5030  -22.2129   -8.1065 C   0  0  0  0  0  0  0  0  0  0  0  0
   30.9009  -22.7593   -9.2146 C   0  0  0  0  0  0  0  0  0  0  0  0
   29.6004  -22.4088   -9.4905 C   0  0  0  0  0  0  0  0  0  0  0  0
   28.8794  -21.5331   -8.7009 C   0  0  0  0  0  0  0  0  0  0  0  0
   26.0545  -20.3773  -11.9975 C   0  0  0  0  0  0  0  0  0  0  0  0
   25.6142  -19.2254  -11.8525 O   0  0  0  0  0  0  0  0  0  0  0  0
   21.7003  -18.5634  -19.2819 O   0  0  0  0  0  0  0  0  0  0  0  0
   22.5754  -19.0709  -18.3055 C   0  0  0  0  0  0  0  0  0  0  0  0
   22.7078  -20.4146  -18.1016 C   0  0  0  0  0  0  0  0  0  0  0  0
   23.5685  -20.8998  -17.1418 C   0  0  0  0  0  0  0  0  0  0  0  0
   24.3369  -20.0501  -16.3419 C   0  0  0  0  0  0  0  0  0  0  0  0
   25.2547  -20.5924  -15.3140 C   0  0  0  0  0  0  0  0  0  0  0  0
   24.5588  -20.7108  -13.9792 C   0  0  2  0  0  0  0  0  0  0  0  0
   25.5077  -21.2294  -13.0136 N   0  0  0  0  0  0  0  0  0  0  0  0
   23.4041  -21.6464  -14.0444 C   0  0  0  0  0  0  0  0  0  0  0  0
   23.5891  -22.8889  -14.2100 O   0  0  0  0  0  0  0  0  0  0  0  0
   24.1778  -18.6933  -16.5756 C   0  0  0  0  0  0  0  0  0  0  0  0
   23.3172  -18.2020  -17.5355 C   0  0  0  0  0  0  0  0  0  0  0  0
   18.2638  -23.3398  -11.3672 N   0  0  0  0  0  0  0  0  0  0  0  0
   19.4840  -22.9038  -10.7910 C   0  0  0  0  0  0  0  0  0  0  0  0
   19.7511  -23.2225   -9.6149 O   0  0  0  0  0  0  0  0  0  0  0  0
   20.3890  -22.0788  -11.6289 C   0  0  0  0  0  0  0  0  0  0  0  0
   19.8859  -21.8234  -13.0166 C   0  0  0  0  0  0  0  0  0  0  0  0
   20.9122  -22.1433  -14.0428 C   0  0  2  0  0  0  0  0  0  0  0  0
   22.0625  -21.2295  -13.9301 N   0  0  0  0  0  0  0  0  0  0  0  0
   20.3474  -21.9139  -15.3898 C   0  0  0  0  0  0  0  0  0  0  0  0
   20.7842  -20.9393  -16.2660 O   0  0  0  0  0  0  0  0  0  0  0  0
   19.3882  -22.6723  -15.7597 O   0  0  0  0  0  0  0  0  0  0  0  0
  2  1  1  1
  3  2  1  0
  3  4  1  0
  4 12  1  0
  4  5  2  0
  5  6  1  0
  7  6  1  0
  7  8  2  0
  9  8  1  0
 10  9  2  0
 11 12  2  0
 11 10  1  0
 12  7  1  0
 13 14  2  0
 13  2  1  0
 15 16  1  0
 16 17  2  0
 17 18  1  0
 19 18  2  0
 19 20  1  0
 21 20  1  6
 21 22  1  0
 22 13  1  0
 23 21  1  0
 24 23  2  0
 25 19  1  0
 26 16  1  0
 26 25  2  0
 28 29  2  0
 28 27  1  0
 30 28  1  0
 32 31  1  1
 31 30  1  0
 32 33  1  0
 33 23  1  0
 34 35  1  0
 34 32  1  0
 36 34  2  0
M  END
$$$$
