WYQ.pdb
     RDKit          3D

 36 38  0  0  1  0  0  0  0  0999 V2000
   22.9597  -20.1859  -18.7271 N   0  0  0  0  0  0  0  0  0  0  0  0
   22.0776  -19.3550  -17.9317 C   0  0  1  0  0  0  0  0  0  0  0  0
   20.8274  -19.0551  -18.7183 C   0  0  0  0  0  0  0  0  0  0  0  0
   21.1824  -18.0500  -19.7463 C   0  0  0  0  0  0  0  0  0  0  0  0
   21.6883  -18.2883  -21.0006 C   0  0  0  0  0  0  0  0  0  0  0  0
   21.8777  -17.0972  -21.6305 N   0  0  0  0  0  0  0  0  0  0  0  0
   21.5109  -16.0959  -20.8250 C   0  0  0  0  0  0  0  0  0  0  0  0
   21.4944  -14.7347  -20.9529 C   0  0  0  0  0  0  0  0  0  0  0  0
   21.0458  -13.9099  -19.9171 C   0  0  0  0  0  0  0  0  0  0  0  0
   20.6114  -14.4779  -18.7433 C   0  0  0  0  0  0  0  0  0  0  0  0
   20.6354  -15.8482  -18.6331 C   0  0  0  0  0  0  0  0  0  0  0  0
   21.0770  -16.6716  -19.6514 C   0  0  0  0  0  0  0  0  0  0  0  0
   21.7189  -20.0013  -16.6538 C   0  0  0  0  0  0  0  0  0  0  0  0
   21.5720  -21.2289  -16.5388 O   0  0  0  0  0  0  0  0  0  0  0  0
   19.8458  -20.5851   -8.0326 O   0  0  0  0  0  0  0  0  0  0  0  0
   20.2827  -20.1414   -9.2931 C   0  0  0  0  0  0  0  0  0  0  0  0
   21.4635  -20.5724   -9.8264 C   0  0  0  0  0  0  0  0  0  0  0  0
   21.8809  -20.1305  -11.0624 C   0  0  0  0  0  0  0  0  0  0  0  0
   21.1249  -19.2315  -11.8190 C   0  0  0  0  0  0  0  0  0  0  0  0
   21.5931  -18.7670  -13.1449 C   0  0  0  0  0  0  0  0  0  0  0  0
   21.1318  -19.7022  -14.2370 C   0  0  2  0  0  0  0  0  0  0  0  0
   21.5386  -19.1495  -15.5139 N   0  0  0  0  0  0  0  0  0  0  0  0
   19.6513  -19.8479  -14.2444 C   0  0  0  0  0  0  0  0  0  0  0  0
   18.9157  -18.9353  -14.7252 O   0  0  0  0  0  0  0  0  0  0  0  0
   19.9328  -18.8149  -11.2479 C   0  0  0  0  0  0  0  0  0  0  0  0
   19.5100  -19.2544  -10.0103 C   0  0  0  0  0  0  0  0  0  0  0  0
   15.5110  -23.7869  -15.9822 N   0  0  0  0  0  0  0  0  0  0  0  0
   16.9122  -23.9775  -15.8757 C   0  0  0  0  0  0  0  0  0  0  0  0
   17.4270  -25.0028  -16.3657 O   0  0  0  0  0  0  0  0  0  0  0  0
   17.7014  -22.9339  -15.1757 C   0  0  0  0  0  0  0  0  0  0  0  0
   16.9051  -21.7397  -14.7470 C   0  0  0  0  0  0  0  0  0  0  0  0
   17.5191  -21.0584  -13.5776 C   0  0  2  0  0  0  0  0  0  0  0  0
   18.9822  -20.9778  -13.7321 N   0  0  0  0  0  0  0  0  0  0  0  0
   17.2875  -21.8668  -12.3615 C   0  0  0  0  0  0  0  0  0  0  0  0
   18.2740  -22.5481  -11.6751 O   0  0  0  0  0  0  0  0  0  0  0  0
   16.0894  -21.9363  -11.9237 O   0  0  0  0  0  0  0  0  0  0  0  0
  2  1  1  6
  3  2  1  0
  3  4  1  0
  4 12  1  0
  4  5  2  0
  5  6  1  0
  7  6  1  0
  7  8  2  0
  9  8  1  0
 10  9  2  0
 11 12  2  0
 11 10  1  0
 12  7  1  0
 13 14  2  0
 13  2  1  0
 15 16  1  0
 16 17  2  0
 17 18  1  0
 19 18  2  0
 19 20  1  0
 21 20  1  1
 21 22  1  0
 22 13  1  0
 23 21  1  0
 24 23  2  0
 25 19  1  0
 26 16  1  0
 26 25  2  0
 28 29  2  0
 28 27  1  0
 30 28  1  0
 32 31  1  6
 31 30  1  0
 32 33  1  0
 33 23  1  0
 34 35  1  0
 34 32  1  0
 36 34  2  0
M  END
$$$$
