WYQ.pdb
     RDKit          3D

 36 38  0  0  1  0  0  0  0  0999 V2000
   26.4086  -17.1736  -17.7999 N   0  0  0  0  0  0  0  0  0  0  0  0
   25.7117  -17.8610  -16.7307 C   0  0  1  0  0  0  0  0  0  0  0  0
   24.2541  -17.9978  -17.0895 C   0  0  0  0  0  0  0  0  0  0  0  0
   23.7400  -16.6389  -17.3758 C   0  0  0  0  0  0  0  0  0  0  0  0
   23.9733  -15.8822  -18.4978 C   0  0  0  0  0  0  0  0  0  0  0  0
   23.3206  -14.6952  -18.3697 N   0  0  0  0  0  0  0  0  0  0  0  0
   22.6724  -14.6590  -17.2015 C   0  0  0  0  0  0  0  0  0  0  0  0
   21.8826  -13.7287  -16.5849 C   0  0  0  0  0  0  0  0  0  0  0  0
   21.3212  -13.9668  -15.3268 C   0  0  0  0  0  0  0  0  0  0  0  0
   21.5675  -15.1619  -14.6942 C   0  0  0  0  0  0  0  0  0  0  0  0
   22.3640  -16.0849  -15.3298 C   0  0  0  0  0  0  0  0  0  0  0  0
   22.9233  -15.8586  -16.5731 C   0  0  0  0  0  0  0  0  0  0  0  0
   26.2873  -19.1950  -16.4689 C   0  0  0  0  0  0  0  0  0  0  0  0
   26.7934  -19.8960  -17.3600 O   0  0  0  0  0  0  0  0  0  0  0  0
   24.6460  -19.4540   -8.9383 O   0  0  0  0  0  0  0  0  0  0  0  0
   25.3689  -19.8316  -10.0836 C   0  0  0  0  0  0  0  0  0  0  0  0
   25.6322  -21.1435  -10.3553 C   0  0  0  0  0  0  0  0  0  0  0  0
   26.3415  -21.5010  -11.4807 C   0  0  0  0  0  0  0  0  0  0  0  0
   26.8189  -20.5495  -12.3856 C   0  0  0  0  0  0  0  0  0  0  0  0
   27.5816  -20.9550  -13.5885 C   0  0  0  0  0  0  0  0  0  0  0  0
   26.6823  -21.0206  -14.7996 C   0  0  2  0  0  0  0  0  0  0  0  0
   26.2457  -19.6754  -15.1180 N   0  0  0  0  0  0  0  0  0  0  0  0
   25.4758  -21.8519  -14.5420 C   0  0  0  0  0  0  0  0  0  0  0  0
   25.5784  -22.9777  -13.9698 O   0  0  0  0  0  0  0  0  0  0  0  0
   26.5338  -19.2283  -12.0791 C   0  0  0  0  0  0  0  0  0  0  0  0
   25.8238  -18.8647  -10.9533 C   0  0  0  0  0  0  0  0  0  0  0  0
   21.3981  -22.6887  -10.7303 N   0  0  0  0  0  0  0  0  0  0  0  0
   21.0221  -21.5123  -11.4272 C   0  0  0  0  0  0  0  0  0  0  0  0
   20.1724  -20.7504  -10.9233 O   0  0  0  0  0  0  0  0  0  0  0  0
   21.6668  -21.2482  -12.7373 C   0  0  0  0  0  0  0  0  0  0  0  0
   22.7126  -22.2482  -13.1250 C   0  0  0  0  0  0  0  0  0  0  0  0
   22.9655  -22.2420  -14.5895 C   0  0  2  0  0  0  0  0  0  0  0  0
   24.1722  -21.4578  -14.9054 N   0  0  0  0  0  0  0  0  0  0  0  0
   21.8500  -21.5573  -15.2772 C   0  0  0  0  0  0  0  0  0  0  0  0
   21.9254  -20.2886  -15.8187 O   0  0  0  0  0  0  0  0  0  0  0  0
   20.7434  -22.1888  -15.3703 O   0  0  0  0  0  0  0  0  0  0  0  0
  2  1  1  6
  3  2  1  0
  3  4  1  0
  4 12  1  0
  4  5  2  0
  5  6  1  0
  7  6  1  0
  7  8  2  0
  9  8  1  0
 10  9  2  0
 11 12  2  0
 11 10  1  0
 12  7  1  0
 13 14  2  0
 13  2  1  0
 15 16  1  0
 16 17  2  0
 17 18  1  0
 19 18  2  0
 19 20  1  0
 21 20  1  1
 21 22  1  0
 22 13  1  0
 23 21  1  0
 24 23  2  0
 25 19  1  0
 26 16  1  0
 26 25  2  0
 28 29  2  0
 28 27  1  0
 30 28  1  0
 32 31  1  1
 31 30  1  0
 32 33  1  0
 33 23  1  0
 34 35  1  0
 34 32  1  0
 36 34  2  0
M  END
$$$$
