WYQ.pdb
     RDKit          3D

 36 38  0  0  1  0  0  0  0  0999 V2000
   25.3219  -17.5813  -17.9031 N   0  0  0  0  0  0  0  0  0  0  0  0
   25.4602  -17.2006  -16.5113 C   0  0  1  0  0  0  0  0  0  0  0  0
   25.9091  -15.7641  -16.4272 C   0  0  0  0  0  0  0  0  0  0  0  0
   27.1369  -15.6361  -17.2451 C   0  0  0  0  0  0  0  0  0  0  0  0
   27.4190  -14.6632  -18.1723 C   0  0  0  0  0  0  0  0  0  0  0  0
   28.6488  -14.9055  -18.7017 N   0  0  0  0  0  0  0  0  0  0  0  0
   29.1718  -16.0033  -18.1474 C   0  0  0  0  0  0  0  0  0  0  0  0
   30.3507  -16.6767  -18.3095 C   0  0  0  0  0  0  0  0  0  0  0  0
   30.6390  -17.8305  -17.5744 C   0  0  0  0  0  0  0  0  0  0  0  0
   29.7183  -18.2998  -16.6683 C   0  0  0  0  0  0  0  0  0  0  0  0
   28.5387  -17.6094  -16.5190 C   0  0  0  0  0  0  0  0  0  0  0  0
   28.2448  -16.4682  -17.2410 C   0  0  0  0  0  0  0  0  0  0  0  0
   24.1968  -17.3719  -15.7672 C   0  0  0  0  0  0  0  0  0  0  0  0
   24.0346  -16.9497  -14.6108 O   0  0  0  0  0  0  0  0  0  0  0  0
   15.7794  -19.7388  -14.4186 O   0  0  0  0  0  0  0  0  0  0  0  0
   17.0160  -19.4250  -15.0092 C   0  0  0  0  0  0  0  0  0  0  0  0
   17.3529  -18.1355  -15.3066 C   0  0  0  0  0  0  0  0  0  0  0  0
   18.5676  -17.8406  -15.8853 C   0  0  0  0  0  0  0  0  0  0  0  0
   19.5003  -18.8348  -16.1913 C   0  0  0  0  0  0  0  0  0  0  0  0
   20.7999  -18.4964  -16.8155 C   0  0  0  0  0  0  0  0  0  0  0  0
   21.8622  -18.2803  -15.7646 C   0  0  2  0  0  0  0  0  0  0  0  0
   23.1290  -18.0594  -16.4340 N   0  0  0  0  0  0  0  0  0  0  0  0
   22.0058  -19.4666  -14.8785 C   0  0  0  0  0  0  0  0  0  0  0  0
   22.2837  -20.6038  -15.3631 O   0  0  0  0  0  0  0  0  0  0  0  0
   19.1261  -20.1315  -15.8762 C   0  0  0  0  0  0  0  0  0  0  0  0
   17.9107  -20.4325  -15.2966 C   0  0  0  0  0  0  0  0  0  0  0  0
   24.7776  -19.6175   -9.3976 N   0  0  0  0  0  0  0  0  0  0  0  0
   24.2789  -20.9436   -9.4611 C   0  0  0  0  0  0  0  0  0  0  0  0
   24.6491  -21.7756   -8.6084 O   0  0  0  0  0  0  0  0  0  0  0  0
   23.3323  -21.2753  -10.5545 C   0  0  0  0  0  0  0  0  0  0  0  0
   23.0709  -20.1507  -11.5090 C   0  0  0  0  0  0  0  0  0  0  0  0
   22.1218  -20.5473  -12.5818 C   0  0  2  0  0  0  0  0  0  0  0  0
   21.8474  -19.4112  -13.4790 N   0  0  0  0  0  0  0  0  0  0  0  0
   20.8207  -20.9057  -11.9780 C   0  0  0  0  0  0  0  0  0  0  0  0
   20.3759  -22.1998  -11.7886 O   0  0  0  0  0  0  0  0  0  0  0  0
   20.0610  -19.9464  -11.6113 O   0  0  0  0  0  0  0  0  0  0  0  0
  2  1  1  6
  3  2  1  0
  3  4  1  0
  4 12  1  0
  4  5  2  0
  5  6  1  0
  7  6  1  0
  7  8  2  0
  9  8  1  0
 10  9  2  0
 11 12  2  0
 11 10  1  0
 12  7  1  0
 13 14  2  0
 13  2  1  0
 15 16  1  0
 16 17  2  0
 17 18  1  0
 19 18  2  0
 19 20  1  0
 21 20  1  6
 21 22  1  0
 22 13  1  0
 23 21  1  0
 24 23  2  0
 25 19  1  0
 26 16  1  0
 26 25  2  0
 28 29  2  0
 28 27  1  0
 30 28  1  0
 32 31  1  1
 31 30  1  0
 32 33  1  0
 33 23  1  0
 34 35  1  0
 34 32  1  0
 36 34  2  0
M  END
$$$$
