WYQ.pdb
     RDKit          3D

 36 38  0  0  1  0  0  0  0  0999 V2000
   27.4054  -21.3970  -10.5002 N   0  0  0  0  0  0  0  0  0  0  0  0
   26.0661  -21.2323   -9.9708 C   0  0  1  0  0  0  0  0  0  0  0  0
   26.1155  -20.3528   -8.7477 C   0  0  0  0  0  0  0  0  0  0  0  0
   27.5038  -20.3885   -8.2334 C   0  0  0  0  0  0  0  0  0  0  0  0
   28.6619  -20.4140   -8.9709 C   0  0  0  0  0  0  0  0  0  0  0  0
   29.7231  -20.4434   -8.1198 N   0  0  0  0  0  0  0  0  0  0  0  0
   29.2896  -20.4378   -6.8557 C   0  0  0  0  0  0  0  0  0  0  0  0
   29.9147  -20.4582   -5.6398 C   0  0  0  0  0  0  0  0  0  0  0  0
   29.1880  -20.4454   -4.4455 C   0  0  0  0  0  0  0  0  0  0  0  0
   27.8148  -20.4115   -4.4925 C   0  0  0  0  0  0  0  0  0  0  0  0
   27.2041  -20.3914   -5.7241 C   0  0  0  0  0  0  0  0  0  0  0  0
   27.9138  -20.4039   -6.9099 C   0  0  0  0  0  0  0  0  0  0  0  0
   25.1495  -20.6463  -10.9687 C   0  0  0  0  0  0  0  0  0  0  0  0
   25.2847  -19.4943  -11.4117 O   0  0  0  0  0  0  0  0  0  0  0  0
   27.4715  -23.7683  -15.6338 O   0  0  0  0  0  0  0  0  0  0  0  0
   26.4851  -22.9246  -15.0936 C   0  0  0  0  0  0  0  0  0  0  0  0
   25.4185  -23.4298  -14.4069 C   0  0  0  0  0  0  0  0  0  0  0  0
   24.4584  -22.5929  -13.8823 C   0  0  0  0  0  0  0  0  0  0  0  0
   24.5301  -21.2051  -14.0267 C   0  0  0  0  0  0  0  0  0  0  0  0
   23.4858  -20.3232  -13.4568 C   0  0  0  0  0  0  0  0  0  0  0  0
   22.9575  -20.8836  -12.1580 C   0  0  2  0  0  0  0  0  0  0  0  0
   24.0657  -21.4664  -11.4275 N   0  0  0  0  0  0  0  0  0  0  0  0
   21.9445  -21.9475  -12.3921 C   0  0  0  0  0  0  0  0  0  0  0  0
   22.2601  -23.1708  -12.2964 O   0  0  0  0  0  0  0  0  0  0  0  0
   25.6251  -20.7268  -14.7288 C   0  0  0  0  0  0  0  0  0  0  0  0
   26.5897  -21.5605  -15.2563 C   0  0  0  0  0  0  0  0  0  0  0  0
   18.5367  -24.8055   -9.1231 N   0  0  0  0  0  0  0  0  0  0  0  0
   18.2975  -23.4129   -9.0026 C   0  0  0  0  0  0  0  0  0  0  0  0
   17.6795  -22.9843   -8.0074 O   0  0  0  0  0  0  0  0  0  0  0  0
   18.8004  -22.5284  -10.0827 C   0  0  0  0  0  0  0  0  0  0  0  0
   19.6417  -23.2227  -11.1096 C   0  0  0  0  0  0  0  0  0  0  0  0
   19.4914  -22.6067  -12.4537 C   0  0  2  0  0  0  0  0  0  0  0  0
   20.6021  -21.6781  -12.7270 N   0  0  0  0  0  0  0  0  0  0  0  0
   18.2635  -21.7837  -12.4817 C   0  0  0  0  0  0  0  0  0  0  0  0
   18.2476  -20.4026  -12.5109 O   0  0  0  0  0  0  0  0  0  0  0  0
   17.1447  -22.4004  -12.4760 O   0  0  0  0  0  0  0  0  0  0  0  0
  2  1  1  6
  3  2  1  0
  3  4  1  0
  4 12  1  0
  4  5  2  0
  5  6  1  0
  7  6  1  0
  7  8  2  0
  9  8  1  0
 10  9  2  0
 11 12  2  0
 11 10  1  0
 12  7  1  0
 13 14  2  0
 13  2  1  0
 15 16  1  0
 16 17  2  0
 17 18  1  0
 19 18  2  0
 19 20  1  0
 21 20  1  6
 21 22  1  0
 22 13  1  0
 23 21  1  0
 24 23  2  0
 25 19  1  0
 26 16  1  0
 26 25  2  0
 28 29  2  0
 28 27  1  0
 30 28  1  0
 32 31  1  1
 31 30  1  0
 32 33  1  0
 33 23  1  0
 34 35  1  0
 34 32  1  0
 36 34  2  0
M  END
$$$$
