WYQ.pdb
     RDKit          3D

 36 38  0  0  1  0  0  0  0  0999 V2000
   26.8574  -20.1977  -11.3347 N   0  0  0  0  0  0  0  0  0  0  0  0
   25.8197  -21.0509  -10.7901 C   0  0  1  0  0  0  0  0  0  0  0  0
   26.1181  -21.3402   -9.3413 C   0  0  0  0  0  0  0  0  0  0  0  0
   27.5851  -21.2430   -9.1642 C   0  0  0  0  0  0  0  0  0  0  0  0
   28.5567  -21.7455   -9.9944 C   0  0  0  0  0  0  0  0  0  0  0  0
   29.7771  -21.4424   -9.4748 N   0  0  0  0  0  0  0  0  0  0  0  0
   29.6272  -20.7600   -8.3355 C   0  0  0  0  0  0  0  0  0  0  0  0
   30.5006  -20.2243   -7.4302 C   0  0  0  0  0  0  0  0  0  0  0  0
   30.0492  -19.5433   -6.2958 C   0  0  0  0  0  0  0  0  0  0  0  0
   28.6979  -19.4082   -6.0841 C   0  0  0  0  0  0  0  0  0  0  0  0
   27.8351  -19.9535   -7.0052 C   0  0  0  0  0  0  0  0  0  0  0  0
   28.2718  -20.6283   -8.1294 C   0  0  0  0  0  0  0  0  0  0  0  0
   24.4835  -20.4349  -10.9100 C   0  0  0  0  0  0  0  0  0  0  0  0
   24.0959  -19.5188  -10.1668 O   0  0  0  0  0  0  0  0  0  0  0  0
   17.4629  -16.6033  -13.9825 O   0  0  0  0  0  0  0  0  0  0  0  0
   18.6885  -17.2643  -13.7890 C   0  0  0  0  0  0  0  0  0  0  0  0
   19.4562  -17.0259  -12.6852 C   0  0  0  0  0  0  0  0  0  0  0  0
   20.6553  -17.6798  -12.5068 C   0  0  0  0  0  0  0  0  0  0  0  0
   21.1364  -18.6061  -13.4355 C   0  0  0  0  0  0  0  0  0  0  0  0
   22.4296  -19.2965  -13.2257 C   0  0  0  0  0  0  0  0  0  0  0  0
   22.3093  -20.3507  -12.1514 C   0  0  2  0  0  0  0  0  0  0  0  0
   23.6179  -20.9368  -11.9378 N   0  0  0  0  0  0  0  0  0  0  0  0
   21.3738  -21.4360  -12.5510 C   0  0  0  0  0  0  0  0  0  0  0  0
   21.7179  -22.2998  -13.4117 O   0  0  0  0  0  0  0  0  0  0  0  0
   20.3324  -18.8237  -14.5433 C   0  0  0  0  0  0  0  0  0  0  0  0
   19.1305  -18.1715  -14.7269 C   0  0  0  0  0  0  0  0  0  0  0  0
   16.3253  -24.7157  -10.4503 N   0  0  0  0  0  0  0  0  0  0  0  0
   17.3939  -25.5130  -10.9335 C   0  0  0  0  0  0  0  0  0  0  0  0
   17.2542  -26.7515  -10.9881 O   0  0  0  0  0  0  0  0  0  0  0  0
   18.6385  -24.8220  -11.3520 C   0  0  0  0  0  0  0  0  0  0  0  0
   18.5966  -23.3314  -11.2095 C   0  0  0  0  0  0  0  0  0  0  0  0
   19.1444  -22.6470  -12.4095 C   0  0  2  0  0  0  0  0  0  0  0  0
   20.0770  -21.5760  -12.0167 N   0  0  0  0  0  0  0  0  0  0  0  0
   18.0456  -21.9762  -13.1363 C   0  0  0  0  0  0  0  0  0  0  0  0
   17.5324  -22.4027  -14.3460 O   0  0  0  0  0  0  0  0  0  0  0  0
   17.5436  -20.9295  -12.6029 O   0  0  0  0  0  0  0  0  0  0  0  0
  2  1  1  1
  3  2  1  0
  3  4  1  0
  4 12  1  0
  4  5  2  0
  5  6  1  0
  7  6  1  0
  7  8  2  0
  9  8  1  0
 10  9  2  0
 11 12  2  0
 11 10  1  0
 12  7  1  0
 13 14  2  0
 13  2  1  0
 15 16  1  0
 16 17  2  0
 17 18  1  0
 19 18  2  0
 19 20  1  0
 21 20  1  6
 21 22  1  0
 22 13  1  0
 23 21  1  0
 24 23  2  0
 25 19  1  0
 26 16  1  0
 26 25  2  0
 28 29  2  0
 28 27  1  0
 30 28  1  0
 32 31  1  1
 31 30  1  0
 32 33  1  0
 33 23  1  0
 34 35  1  0
 34 32  1  0
 36 34  2  0
M  END
$$$$
