WYQ.pdb
     RDKit          3D

 36 38  0  0  1  0  0  0  0  0999 V2000
   26.3471  -22.5456  -13.7130 N   0  0  0  0  0  0  0  0  0  0  0  0
   25.6820  -21.6735  -12.7652 C   0  0  1  0  0  0  0  0  0  0  0  0
   26.3812  -20.3386  -12.7367 C   0  0  0  0  0  0  0  0  0  0  0  0
   27.5367  -20.4643  -11.8190 C   0  0  0  0  0  0  0  0  0  0  0  0
   28.8631  -20.5575  -12.1621 C   0  0  0  0  0  0  0  0  0  0  0  0
   29.6040  -20.6586  -11.0254 N   0  0  0  0  0  0  0  0  0  0  0  0
   28.8004  -20.6338   -9.9578 C   0  0  0  0  0  0  0  0  0  0  0  0
   29.0148  -20.7010   -8.6091 C   0  0  0  0  0  0  0  0  0  0  0  0
   27.9552  -20.6502   -7.6985 C   0  0  0  0  0  0  0  0  0  0  0  0
   26.6688  -20.5302   -8.1674 C   0  0  0  0  0  0  0  0  0  0  0  0
   26.4729  -20.4641   -9.5267 C   0  0  0  0  0  0  0  0  0  0  0  0
   27.5138  -20.5136  -10.4344 C   0  0  0  0  0  0  0  0  0  0  0  0
   24.2573  -21.4823  -13.1014 C   0  0  0  0  0  0  0  0  0  0  0  0
   23.7863  -21.7582  -14.2167 O   0  0  0  0  0  0  0  0  0  0  0  0
   15.6351  -20.7074  -11.3962 O   0  0  0  0  0  0  0  0  0  0  0  0
   17.0358  -20.7160  -11.2759 C   0  0  0  0  0  0  0  0  0  0  0  0
   17.7509  -19.5536  -11.2326 C   0  0  0  0  0  0  0  0  0  0  0  0
   19.1231  -19.5750  -11.1147 C   0  0  0  0  0  0  0  0  0  0  0  0
   19.8387  -20.7724  -11.0348 C   0  0  0  0  0  0  0  0  0  0  0  0
   21.3143  -20.7732  -10.9107 C   0  0  0  0  0  0  0  0  0  0  0  0
   21.9688  -20.8997  -12.2655 C   0  0  2  0  0  0  0  0  0  0  0  0
   23.4050  -20.9534  -12.0760 N   0  0  0  0  0  0  0  0  0  0  0  0
   21.6583  -19.7334  -13.1351 C   0  0  0  0  0  0  0  0  0  0  0  0
   22.2341  -18.6199  -12.9508 O   0  0  0  0  0  0  0  0  0  0  0  0
   19.0817  -21.9324  -11.0817 C   0  0  0  0  0  0  0  0  0  0  0  0
   17.7072  -21.9167  -11.1998 C   0  0  0  0  0  0  0  0  0  0  0  0
   23.2273  -18.3788  -18.1773 N   0  0  0  0  0  0  0  0  0  0  0  0
   22.4289  -19.5490  -18.1121 C   0  0  0  0  0  0  0  0  0  0  0  0
   22.6102  -20.4580  -18.9470 O   0  0  0  0  0  0  0  0  0  0  0  0
   21.4052  -19.6295  -17.0409 C   0  0  0  0  0  0  0  0  0  0  0  0
   21.3763  -18.4464  -16.1226 C   0  0  0  0  0  0  0  0  0  0  0  0
   20.3835  -18.6202  -15.0304 C   0  0  2  0  0  0  0  0  0  0  0  0
   20.7291  -19.7828  -14.1939 N   0  0  0  0  0  0  0  0  0  0  0  0
   19.0599  -18.9247  -15.6144 C   0  0  0  0  0  0  0  0  0  0  0  0
   18.3351  -18.0553  -16.4063 O   0  0  0  0  0  0  0  0  0  0  0  0
   18.5584  -20.0723  -15.3621 O   0  0  0  0  0  0  0  0  0  0  0  0
  2  1  1  6
  3  2  1  0
  3  4  1  0
  4 12  1  0
  4  5  2  0
  5  6  1  0
  7  6  1  0
  7  8  2  0
  9  8  1  0
 10  9  2  0
 11 12  2  0
 11 10  1  0
 12  7  1  0
 13 14  2  0
 13  2  1  0
 15 16  1  0
 16 17  2  0
 17 18  1  0
 19 18  2  0
 19 20  1  0
 21 20  1  1
 21 22  1  0
 22 13  1  0
 23 21  1  0
 24 23  2  0
 25 19  1  0
 26 16  1  0
 26 25  2  0
 28 29  2  0
 28 27  1  0
 30 28  1  0
 32 31  1  6
 31 30  1  0
 32 33  1  0
 33 23  1  0
 34 35  1  0
 34 32  1  0
 36 34  2  0
M  END
$$$$
