WYQ.pdb
     RDKit          3D

 36 38  0  0  1  0  0  0  0  0999 V2000
   23.9893  -19.9079  -17.9995 N   0  0  0  0  0  0  0  0  0  0  0  0
   22.8655  -19.3527  -17.2716 C   0  0  1  0  0  0  0  0  0  0  0  0
   21.6299  -19.4171  -18.1324 C   0  0  0  0  0  0  0  0  0  0  0  0
   21.7121  -18.3055  -19.1074 C   0  0  0  0  0  0  0  0  0  0  0  0
   22.4968  -18.2446  -20.2328 C   0  0  0  0  0  0  0  0  0  0  0  0
   22.2788  -17.0546  -20.8555 N   0  0  0  0  0  0  0  0  0  0  0  0
   21.3785  -16.3434  -20.1700 C   0  0  0  0  0  0  0  0  0  0  0  0
   20.8117  -15.1116  -20.3455 C   0  0  0  0  0  0  0  0  0  0  0  0
   19.8705  -14.6063  -19.4436 C   0  0  0  0  0  0  0  0  0  0  0  0
   19.5056  -15.3630  -18.3558 C   0  0  0  0  0  0  0  0  0  0  0  0
   20.0862  -16.5990  -18.1960 C   0  0  0  0  0  0  0  0  0  0  0  0
   21.0174  -17.1069  -19.0820 C   0  0  0  0  0  0  0  0  0  0  0  0
   22.6260  -20.0679  -16.0026 C   0  0  0  0  0  0  0  0  0  0  0  0
   22.8171  -21.2878  -15.8714 O   0  0  0  0  0  0  0  0  0  0  0  0
   21.0900  -21.1375   -7.3821 O   0  0  0  0  0  0  0  0  0  0  0  0
   21.3079  -20.5760   -8.6525 C   0  0  0  0  0  0  0  0  0  0  0  0
   20.3048  -19.9442   -9.3301 C   0  0  0  0  0  0  0  0  0  0  0  0
   20.5306  -19.3981  -10.5743 C   0  0  0  0  0  0  0  0  0  0  0  0
   21.7812  -19.4642  -11.1936 C   0  0  0  0  0  0  0  0  0  0  0  0
   22.0022  -18.8724  -12.5330 C   0  0  0  0  0  0  0  0  0  0  0  0
   21.8942  -19.9241  -13.6111 C   0  0  2  0  0  0  0  0  0  0  0  0
   22.1525  -19.2946  -14.8911 N   0  0  0  0  0  0  0  0  0  0  0  0
   20.5344  -20.5259  -13.6553 C   0  0  0  0  0  0  0  0  0  0  0  0
   19.5724  -19.9066  -14.1996 O   0  0  0  0  0  0  0  0  0  0  0  0
   22.7758  -20.1121  -10.4782 C   0  0  0  0  0  0  0  0  0  0  0  0
   22.5551  -20.6609   -9.2317 C   0  0  0  0  0  0  0  0  0  0  0  0
   18.3553  -24.7622  -16.2045 N   0  0  0  0  0  0  0  0  0  0  0  0
   17.3640  -24.9459  -15.2072 C   0  0  0  0  0  0  0  0  0  0  0  0
   16.2908  -25.5052  -15.5099 O   0  0  0  0  0  0  0  0  0  0  0  0
   17.6598  -24.4543  -13.8387 C   0  0  0  0  0  0  0  0  0  0  0  0
   19.0051  -23.8125  -13.6891 C   0  0  0  0  0  0  0  0  0  0  0  0
   18.8974  -22.4144  -13.1969 C   0  0  2  0  0  0  0  0  0  0  0  0
   20.2291  -21.7897  -13.1108 N   0  0  0  0  0  0  0  0  0  0  0  0
   18.3662  -22.4194  -11.8172 C   0  0  0  0  0  0  0  0  0  0  0  0
   17.0274  -22.3120  -11.4937 O   0  0  0  0  0  0  0  0  0  0  0  0
   19.2106  -22.5286  -10.8648 O   0  0  0  0  0  0  0  0  0  0  0  0
  2  1  1  6
  3  2  1  0
  3  4  1  0
  4 12  1  0
  4  5  2  0
  5  6  1  0
  7  6  1  0
  7  8  2  0
  9  8  1  0
 10  9  2  0
 11 12  2  0
 11 10  1  0
 12  7  1  0
 13 14  2  0
 13  2  1  0
 15 16  1  0
 16 17  2  0
 17 18  1  0
 19 18  2  0
 19 20  1  0
 21 20  1  1
 21 22  1  0
 22 13  1  0
 23 21  1  0
 24 23  2  0
 25 19  1  0
 26 16  1  0
 26 25  2  0
 28 29  2  0
 28 27  1  0
 30 28  1  0
 32 31  1  1
 31 30  1  0
 32 33  1  0
 33 23  1  0
 34 35  1  0
 34 32  1  0
 36 34  2  0
M  END
$$$$
