WYQ.pdb
     RDKit          3D

 36 38  0  0  1  0  0  0  0  0999 V2000
   25.5894  -19.5536  -11.4087 N   0  0  0  0  0  0  0  0  0  0  0  0
   25.9014  -20.9574  -11.5916 C   0  0  1  0  0  0  0  0  0  0  0  0
   25.5026  -21.7242  -10.3567 C   0  0  0  0  0  0  0  0  0  0  0  0
   26.1303  -21.0511   -9.1966 C   0  0  0  0  0  0  0  0  0  0  0  0
   25.5064  -20.2806   -8.2463 C   0  0  0  0  0  0  0  0  0  0  0  0
   26.4368  -19.8479   -7.3528 N   0  0  0  0  0  0  0  0  0  0  0  0
   27.6424  -20.3132   -7.6936 C   0  0  0  0  0  0  0  0  0  0  0  0
   28.8934  -20.1860   -7.1567 C   0  0  0  0  0  0  0  0  0  0  0  0
   30.0046  -20.8001   -7.7421 C   0  0  0  0  0  0  0  0  0  0  0  0
   29.8378  -21.5488   -8.8826 C   0  0  0  0  0  0  0  0  0  0  0  0
   28.5726  -21.6653   -9.4078 C   0  0  0  0  0  0  0  0  0  0  0  0
   27.4683  -21.0620   -8.8364 C   0  0  0  0  0  0  0  0  0  0  0  0
   25.2172  -21.5226  -12.7713 C   0  0  0  0  0  0  0  0  0  0  0  0
   24.1099  -21.1205  -13.1637 O   0  0  0  0  0  0  0  0  0  0  0  0
   24.0934  -26.6889  -19.8629 O   0  0  0  0  0  0  0  0  0  0  0  0
   24.6296  -26.0625  -18.7242 C   0  0  0  0  0  0  0  0  0  0  0  0
   25.2392  -24.8434  -18.8065 C   0  0  0  0  0  0  0  0  0  0  0  0
   25.7608  -24.2396  -17.6836 C   0  0  0  0  0  0  0  0  0  0  0  0
   25.6914  -24.8391  -16.4235 C   0  0  0  0  0  0  0  0  0  0  0  0
   26.2607  -24.1739  -15.2292 C   0  0  0  0  0  0  0  0  0  0  0  0
   25.2876  -23.1719  -14.6555 C   0  0  2  0  0  0  0  0  0  0  0  0
   25.8841  -22.5804  -13.4741 N   0  0  0  0  0  0  0  0  0  0  0  0
   24.0081  -23.8173  -14.2565 C   0  0  0  0  0  0  0  0  0  0  0  0
   23.8703  -24.3154  -13.0996 O   0  0  0  0  0  0  0  0  0  0  0  0
   25.0665  -26.0752  -16.3764 C   0  0  0  0  0  0  0  0  0  0  0  0
   24.5423  -26.6844  -17.4979 C   0  0  0  0  0  0  0  0  0  0  0  0
   20.5509  -23.0047  -11.4562 N   0  0  0  0  0  0  0  0  0  0  0  0
   19.3790  -23.3052  -12.1959 C   0  0  0  0  0  0  0  0  0  0  0  0
   18.3299  -23.5936  -11.5856 O   0  0  0  0  0  0  0  0  0  0  0  0
   19.4652  -23.2619  -13.6766 C   0  0  0  0  0  0  0  0  0  0  0  0
   20.8364  -22.9774  -14.2085 C   0  0  0  0  0  0  0  0  0  0  0  0
   21.5288  -24.2194  -14.6407 C   0  0  2  0  0  0  0  0  0  0  0  0
   22.8920  -23.9176  -15.1115 N   0  0  0  0  0  0  0  0  0  0  0  0
   20.8210  -24.7965  -15.8034 C   0  0  0  0  0  0  0  0  0  0  0  0
   20.6749  -24.1648  -17.0232 O   0  0  0  0  0  0  0  0  0  0  0  0
   20.3103  -25.9588  -15.6604 O   0  0  0  0  0  0  0  0  0  0  0  0
  2  1  1  1
  3  2  1  0
  3  4  1  0
  4 12  1  0
  4  5  2  0
  5  6  1  0
  7  6  1  0
  7  8  2  0
  9  8  1  0
 10  9  2  0
 11 12  2  0
 11 10  1  0
 12  7  1  0
 13 14  2  0
 13  2  1  0
 15 16  1  0
 16 17  2  0
 17 18  1  0
 19 18  2  0
 19 20  1  0
 21 20  1  1
 21 22  1  0
 22 13  1  0
 23 21  1  0
 24 23  2  0
 25 19  1  0
 26 16  1  0
 26 25  2  0
 28 29  2  0
 28 27  1  0
 30 28  1  0
 32 31  1  6
 31 30  1  0
 32 33  1  0
 33 23  1  0
 34 35  1  0
 34 32  1  0
 36 34  2  0
M  END
$$$$
