HMD.pdb
     RDKit          3D

 27 27  0  0  1  0  0  0  0  0999 V2000
   10.3388  -15.9200   19.1264 N   0  0  0  0  0  0  0  0  0  0  0  0
    9.1299  -15.9881   19.8979 C   0  0  1  0  0  0  0  0  0  0  0  0
    8.3652  -17.2540   19.7249 C   0  0  0  0  0  0  0  0  0  0  0  0
    7.7702  -17.4294   18.3962 C   0  0  0  0  0  0  0  0  0  0  0  0
    7.8026  -16.6422   17.2667 C   0  0  0  0  0  0  0  0  0  0  0  0
    7.1030  -17.2164   16.2826 N   0  0  0  0  0  0  0  0  0  0  0  0
    6.6250  -18.3644   16.7773 C   0  0  0  0  0  0  0  0  0  0  0  0
    7.0261  -18.4988   18.0575 N   0  0  0  0  0  0  0  0  0  0  0  0
    9.3553  -15.6678   21.3300 C   0  0  0  0  0  0  0  0  0  0  0  0
   10.4743  -15.9513   21.8752 O   0  0  0  0  0  0  0  0  0  0  0  0
    6.6358  -11.8343   27.7767 C   0  0  0  0  0  0  0  0  0  0  0  0
    6.4064  -12.4398   26.1025 S   0  0  0  0  0  0  0  0  0  0  0  0
    7.7131  -13.5770   25.5759 C   0  0  0  0  0  0  0  0  0  0  0  0
    7.5665  -13.9635   24.1321 C   0  0  0  0  0  0  0  0  0  0  0  0
    8.6685  -14.8275   23.6016 C   0  0  2  0  0  0  0  0  0  0  0  0
    8.4060  -15.0555   22.1704 N   0  0  0  0  0  0  0  0  0  0  0  0
    8.8732  -16.0891   24.3141 C   0  0  0  0  0  0  0  0  0  0  0  0
    8.3805  -17.1421   23.8686 O   0  0  0  0  0  0  0  0  0  0  0  0
    9.6343  -16.0989   25.5101 N   0  0  0  0  0  0  0  0  0  0  0  0
   10.2265  -17.3376   26.0596 C   0  0  1  0  0  0  0  0  0  0  0  0
   11.5152  -17.6475   25.3620 C   0  0  0  0  0  0  0  0  0  0  0  0
   11.4221  -18.9599   24.6969 C   0  0  0  0  0  0  0  0  0  0  0  0
   10.3902  -19.6794   24.9540 O   0  0  0  0  0  0  0  0  0  0  0  0
   10.4001  -17.1702   27.5260 C   0  0  0  0  0  0  0  0  0  0  0  0
   10.9052  -16.1482   27.9962 O   0  0  0  0  0  0  0  0  0  0  0  0
   12.3291  -19.5054   23.8253 O   0  0  0  0  0  0  0  0  0  0  0  0
    9.9824  -18.1919   28.3850 O   0  0  0  0  0  0  0  0  0  0  0  0
  2  1  1  6
  2  3  1  0
  2  9  1  0
  4  3  1  0
  4  5  2  0
  6  5  1  0
  7  6  1  0
  8  7  2  0
  8  4  1  0
  9 10  2  0
 12 11  1  0
 13 12  1  0
 15 14  1  1
 14 13  1  0
 16 15  1  0
 16  9  1  0
 17 18  2  0
 17 15  1  0
 19 17  1  0
 20 24  1  0
 20 19  1  0
 20 21  1  6
 22 23  2  0
 22 21  1  0
 24 27  1  0
 25 24  2  0
 26 22  1  0
M  END
$$$$
