HMD.pdb
     RDKit          3D

 27 27  0  0  1  0  0  0  0  0999 V2000
    9.6353  -15.9280   19.2391 N   0  0  0  0  0  0  0  0  0  0  0  0
    8.5548  -16.1212   20.1645 C   0  0  1  0  0  0  0  0  0  0  0  0
    7.9215  -17.4669   20.0920 C   0  0  0  0  0  0  0  0  0  0  0  0
    7.4115  -17.8294   18.7658 C   0  0  0  0  0  0  0  0  0  0  0  0
    6.5678  -17.1728   17.8978 C   0  0  0  0  0  0  0  0  0  0  0  0
    6.3827  -17.9019   16.7924 N   0  0  0  0  0  0  0  0  0  0  0  0
    7.1028  -19.0189   16.9501 C   0  0  0  0  0  0  0  0  0  0  0  0
    7.7284  -18.9804   18.1439 N   0  0  0  0  0  0  0  0  0  0  0  0
    8.9304  -15.7593   21.5546 C   0  0  0  0  0  0  0  0  0  0  0  0
   10.0893  -16.0600   21.9975 O   0  0  0  0  0  0  0  0  0  0  0  0
    6.8893  -11.6427   28.0919 C   0  0  0  0  0  0  0  0  0  0  0  0
    6.5300  -12.2530   26.4425 S   0  0  0  0  0  0  0  0  0  0  0  0
    7.7723  -13.4209   25.8336 C   0  0  0  0  0  0  0  0  0  0  0  0
    7.5353  -13.7870   24.3966 C   0  0  0  0  0  0  0  0  0  0  0  0
    8.5226  -14.7592   23.8286 C   0  0  2  0  0  0  0  0  0  0  0  0
    8.0872  -15.0880   22.4605 N   0  0  0  0  0  0  0  0  0  0  0  0
    8.7402  -15.9677   24.6243 C   0  0  0  0  0  0  0  0  0  0  0  0
    7.8582  -16.8448   24.6771 O   0  0  0  0  0  0  0  0  0  0  0  0
    9.9591  -16.1277   25.3303 N   0  0  0  0  0  0  0  0  0  0  0  0
   10.2750  -17.3545   26.0934 C   0  0  1  0  0  0  0  0  0  0  0  0
   11.6134  -17.8874   25.6834 C   0  0  0  0  0  0  0  0  0  0  0  0
   12.0162  -18.9799   26.5875 C   0  0  0  0  0  0  0  0  0  0  0  0
   11.6582  -20.1711   26.2691 O   0  0  0  0  0  0  0  0  0  0  0  0
   10.2084  -17.0406   27.5444 C   0  0  0  0  0  0  0  0  0  0  0  0
   10.3271  -15.8832   27.9529 O   0  0  0  0  0  0  0  0  0  0  0  0
   12.7377  -18.8624   27.7476 O   0  0  0  0  0  0  0  0  0  0  0  0
   10.0078  -18.0788   28.4600 O   0  0  0  0  0  0  0  0  0  0  0  0
  2  1  1  6
  2  3  1  0
  2  9  1  0
  4  3  1  0
  4  5  2  0
  6  5  1  0
  7  6  1  0
  8  7  2  0
  8  4  1  0
  9 10  2  0
 12 11  1  0
 13 12  1  0
 15 14  1  1
 14 13  1  0
 16 15  1  0
 16  9  1  0
 17 18  2  0
 17 15  1  0
 19 17  1  0
 20 24  1  0
 20 19  1  0
 20 21  1  6
 22 23  2  0
 22 21  1  0
 24 27  1  0
 25 24  2  0
 26 22  1  0
M  END
$$$$
