HMD.pdb
     RDKit          3D

 27 27  0  0  1  0  0  0  0  0999 V2000
    9.2945  -15.7485   19.9801 N   0  0  0  0  0  0  0  0  0  0  0  0
    8.4838  -16.3463   21.0032 C   0  0  1  0  0  0  0  0  0  0  0  0
    8.3044  -17.8175   20.8588 C   0  0  0  0  0  0  0  0  0  0  0  0
    7.6117  -18.2292   19.6337 C   0  0  0  0  0  0  0  0  0  0  0  0
    7.1235  -17.5042   18.5695 C   0  0  0  0  0  0  0  0  0  0  0  0
    6.5596  -18.3208   17.6735 N   0  0  0  0  0  0  0  0  0  0  0  0
    6.6851  -19.5615   18.1594 C   0  0  0  0  0  0  0  0  0  0  0  0
    7.3219  -19.5121   19.3469 N   0  0  0  0  0  0  0  0  0  0  0  0
    8.9323  -15.9738   22.3686 C   0  0  0  0  0  0  0  0  0  0  0  0
   10.1647  -15.7204   22.5847 O   0  0  0  0  0  0  0  0  0  0  0  0
    6.4102  -10.9002   26.3974 C   0  0  0  0  0  0  0  0  0  0  0  0
    6.6183  -12.6519   26.7303 S   0  0  0  0  0  0  0  0  0  0  0  0
    7.2868  -13.5662   25.3178 C   0  0  0  0  0  0  0  0  0  0  0  0
    7.5360  -15.0082   25.6554 C   0  0  0  0  0  0  0  0  0  0  0  0
    8.6131  -15.6622   24.8463 C   0  0  2  0  0  0  0  0  0  0  0  0
    8.0841  -15.8721   23.4878 N   0  0  0  0  0  0  0  0  0  0  0  0
    9.1519  -16.9018   25.4066 C   0  0  0  0  0  0  0  0  0  0  0  0
    8.5254  -17.9692   25.2718 O   0  0  0  0  0  0  0  0  0  0  0  0
   10.3879  -16.8740   26.1004 N   0  0  0  0  0  0  0  0  0  0  0  0
   10.9195  -18.0547   26.8149 C   0  0  1  0  0  0  0  0  0  0  0  0
   12.4070  -18.1280   26.6558 C   0  0  0  0  0  0  0  0  0  0  0  0
   12.7426  -18.7074   25.3425 C   0  0  0  0  0  0  0  0  0  0  0  0
   11.7664  -19.0513   24.5827 O   0  0  0  0  0  0  0  0  0  0  0  0
   10.5036  -17.9738   28.2393 C   0  0  0  0  0  0  0  0  0  0  0  0
    9.9442  -16.9691   28.6846 O   0  0  0  0  0  0  0  0  0  0  0  0
   13.9986  -18.9254   24.8375 O   0  0  0  0  0  0  0  0  0  0  0  0
   10.7528  -19.0580   29.0870 O   0  0  0  0  0  0  0  0  0  0  0  0
  2  1  1  6
  2  3  1  0
  2  9  1  0
  4  3  1  0
  4  5  2  0
  6  5  1  0
  7  6  1  0
  8  7  2  0
  8  4  1  0
  9 10  2  0
 12 11  1  0
 13 12  1  0
 15 14  1  1
 14 13  1  0
 16 15  1  0
 16  9  1  0
 17 18  2  0
 17 15  1  0
 19 17  1  0
 20 24  1  0
 20 19  1  0
 20 21  1  1
 22 23  2  0
 22 21  1  0
 24 27  1  0
 25 24  2  0
 26 22  1  0
M  END
$$$$
