HMD.pdb
     RDKit          3D

 27 27  0  0  1  0  0  0  0  0999 V2000
    7.8412  -16.0984   21.1496 N   0  0  0  0  0  0  0  0  0  0  0  0
    8.7789  -15.0247   21.3203 C   0  0  1  0  0  0  0  0  0  0  0  0
    8.4690  -13.8095   20.5175 C   0  0  0  0  0  0  0  0  0  0  0  0
    8.4399  -14.0283   19.0678 C   0  0  0  0  0  0  0  0  0  0  0  0
    8.7077  -15.1423   18.3039 C   0  0  0  0  0  0  0  0  0  0  0  0
    8.5496  -14.8621   17.0061 N   0  0  0  0  0  0  0  0  0  0  0  0
    8.1828  -13.5768   16.9378 C   0  0  0  0  0  0  0  0  0  0  0  0
    8.1146  -13.0665   18.1840 N   0  0  0  0  0  0  0  0  0  0  0  0
    9.0116  -14.7002   22.7502 C   0  0  0  0  0  0  0  0  0  0  0  0
   10.0296  -14.0070   23.0861 O   0  0  0  0  0  0  0  0  0  0  0  0
    6.9899  -11.4880   27.6432 C   0  0  0  0  0  0  0  0  0  0  0  0
    7.0979  -11.6264   25.8567 S   0  0  0  0  0  0  0  0  0  0  0  0
    6.4531  -13.1971   25.2282 C   0  0  0  0  0  0  0  0  0  0  0  0
    7.1516  -14.3736   25.8475 C   0  0  0  0  0  0  0  0  0  0  0  0
    8.4551  -14.7352   25.2052 C   0  0  2  0  0  0  0  0  0  0  0  0
    8.1752  -15.1061   23.8076 N   0  0  0  0  0  0  0  0  0  0  0  0
    9.2231  -15.7757   25.8898 C   0  0  0  0  0  0  0  0  0  0  0  0
    9.4823  -15.6614   27.1022 O   0  0  0  0  0  0  0  0  0  0  0  0
    9.6659  -16.9086   25.1616 N   0  0  0  0  0  0  0  0  0  0  0  0
   10.5257  -17.9494   25.7656 C   0  0  1  0  0  0  0  0  0  0  0  0
    9.7348  -19.1991   26.0023 C   0  0  0  0  0  0  0  0  0  0  0  0
   10.2202  -19.8767   27.2182 C   0  0  0  0  0  0  0  0  0  0  0  0
   11.4913  -19.9648   27.3767 O   0  0  0  0  0  0  0  0  0  0  0  0
   11.6932  -18.1758   24.8744 C   0  0  0  0  0  0  0  0  0  0  0  0
   11.5825  -18.1076   23.6482 O   0  0  0  0  0  0  0  0  0  0  0  0
    9.4541  -20.4332   28.2099 O   0  0  0  0  0  0  0  0  0  0  0  0
   12.9378  -18.4715   25.4399 O   0  0  0  0  0  0  0  0  0  0  0  0
  2  1  1  1
  2  3  1  0
  2  9  1  0
  4  3  1  0
  4  5  2  0
  6  5  1  0
  7  6  1  0
  8  7  2  0
  8  4  1  0
  9 10  2  0
 12 11  1  0
 13 12  1  0
 15 14  1  1
 14 13  1  0
 16 15  1  0
 16  9  1  0
 17 18  2  0
 17 15  1  0
 19 17  1  0
 20 24  1  0
 20 19  1  0
 20 21  1  6
 22 23  2  0
 22 21  1  0
 24 27  1  0
 25 24  2  0
 26 22  1  0
M  END
$$$$
