HMD.pdb
     RDKit          3D

 27 27  0  0  1  0  0  0  0  0999 V2000
    9.8117  -16.2888   19.5490 N   0  0  0  0  0  0  0  0  0  0  0  0
    8.9744  -16.7253   20.6305 C   0  0  1  0  0  0  0  0  0  0  0  0
    8.8643  -18.2047   20.7591 C   0  0  0  0  0  0  0  0  0  0  0  0
    8.3595  -18.8842   19.5618 C   0  0  0  0  0  0  0  0  0  0  0  0
    7.3956  -18.5290   18.6445 C   0  0  0  0  0  0  0  0  0  0  0  0
    7.2739  -19.4780   17.7106 N   0  0  0  0  0  0  0  0  0  0  0  0
    8.1538  -20.4357   18.0264 C   0  0  0  0  0  0  0  0  0  0  0  0
    8.8144  -20.0813   19.1471 N   0  0  0  0  0  0  0  0  0  0  0  0
    9.3353  -16.0821   21.9191 C   0  0  0  0  0  0  0  0  0  0  0  0
   10.5636  -15.9523   22.2415 O   0  0  0  0  0  0  0  0  0  0  0  0
    6.8535  -11.7489   28.1329 C   0  0  0  0  0  0  0  0  0  0  0  0
    6.6012  -12.4872   26.5163 S   0  0  0  0  0  0  0  0  0  0  0  0
    7.9710  -13.5545   26.0040 C   0  0  0  0  0  0  0  0  0  0  0  0
    7.7682  -14.0937   24.6171 C   0  0  0  0  0  0  0  0  0  0  0  0
    8.8249  -15.0503   24.1580 C   0  0  2  0  0  0  0  0  0  0  0  0
    8.4049  -15.5843   22.8512 N   0  0  0  0  0  0  0  0  0  0  0  0
    9.1456  -16.1264   25.0961 C   0  0  0  0  0  0  0  0  0  0  0  0
    8.3514  -17.0723   25.2527 O   0  0  0  0  0  0  0  0  0  0  0  0
   10.3636  -16.0804   25.8202 N   0  0  0  0  0  0  0  0  0  0  0  0
   10.7867  -17.1713   26.7247 C   0  0  1  0  0  0  0  0  0  0  0  0
   12.2617  -17.4008   26.6021 C   0  0  0  0  0  0  0  0  0  0  0  0
   12.5774  -17.9268   25.2616 C   0  0  0  0  0  0  0  0  0  0  0  0
   11.7328  -18.7355   24.7315 O   0  0  0  0  0  0  0  0  0  0  0  0
   10.3789  -16.8231   28.1106 C   0  0  0  0  0  0  0  0  0  0  0  0
    9.9417  -15.7031   28.3848 O   0  0  0  0  0  0  0  0  0  0  0  0
   13.6896  -17.6465   24.5102 O   0  0  0  0  0  0  0  0  0  0  0  0
   10.4946  -17.7849   29.1194 O   0  0  0  0  0  0  0  0  0  0  0  0
  2  1  1  6
  2  3  1  0
  2  9  1  0
  4  3  1  0
  4  5  2  0
  6  5  1  0
  7  6  1  0
  8  7  2  0
  8  4  1  0
  9 10  2  0
 12 11  1  0
 13 12  1  0
 15 14  1  1
 14 13  1  0
 16 15  1  0
 16  9  1  0
 17 18  2  0
 17 15  1  0
 19 17  1  0
 20 24  1  0
 20 19  1  0
 20 21  1  1
 22 23  2  0
 22 21  1  0
 24 27  1  0
 25 24  2  0
 26 22  1  0
M  END
$$$$
