HMD.pdb
     RDKit          3D

 27 27  0  0  1  0  0  0  0  0999 V2000
    6.2912  -15.9096   20.9319 N   0  0  0  0  0  0  0  0  0  0  0  0
    7.6429  -16.3782   20.8113 C   0  0  1  0  0  0  0  0  0  0  0  0
    8.2123  -16.2551   19.4410 C   0  0  0  0  0  0  0  0  0  0  0  0
    8.1670  -14.9001   18.8822 C   0  0  0  0  0  0  0  0  0  0  0  0
    7.8769  -13.6819   19.4552 C   0  0  0  0  0  0  0  0  0  0  0  0
    7.9604  -12.7094   18.5415 N   0  0  0  0  0  0  0  0  0  0  0  0
    8.3017  -13.2996   17.3898 C   0  0  0  0  0  0  0  0  0  0  0  0
    8.4284  -14.6269   17.5902 N   0  0  0  0  0  0  0  0  0  0  0  0
    8.5384  -15.7895   21.8389 C   0  0  0  0  0  0  0  0  0  0  0  0
    9.6815  -16.3133   22.0596 O   0  0  0  0  0  0  0  0  0  0  0  0
    7.1221  -11.0457   27.0217 C   0  0  0  0  0  0  0  0  0  0  0  0
    6.1929  -12.5644   26.7921 S   0  0  0  0  0  0  0  0  0  0  0  0
    7.2117  -13.9327   26.1857 C   0  0  0  0  0  0  0  0  0  0  0  0
    7.1925  -14.0195   24.6865 C   0  0  0  0  0  0  0  0  0  0  0  0
    8.4067  -14.6538   24.0818 C   0  0  2  0  0  0  0  0  0  0  0  0
    8.2241  -14.6613   22.6203 N   0  0  0  0  0  0  0  0  0  0  0  0
    8.7327  -15.9882   24.5856 C   0  0  0  0  0  0  0  0  0  0  0  0
    7.9087  -16.9146   24.4718 O   0  0  0  0  0  0  0  0  0  0  0  0
    9.9899  -16.2132   25.2012 N   0  0  0  0  0  0  0  0  0  0  0  0
   10.4048  -17.5475   25.6856 C   0  0  1  0  0  0  0  0  0  0  0  0
   11.7053  -17.9437   25.0570 C   0  0  0  0  0  0  0  0  0  0  0  0
   12.2060  -19.1827   25.6795 C   0  0  0  0  0  0  0  0  0  0  0  0
   13.3268  -19.1183   26.3025 O   0  0  0  0  0  0  0  0  0  0  0  0
   10.4785  -17.5113   27.1694 C   0  0  0  0  0  0  0  0  0  0  0  0
   10.6300  -16.4478   27.7750 O   0  0  0  0  0  0  0  0  0  0  0  0
   11.6005  -20.4128   25.6637 O   0  0  0  0  0  0  0  0  0  0  0  0
   10.3742  -18.7064   27.8885 O   0  0  0  0  0  0  0  0  0  0  0  0
  2  1  1  6
  2  3  1  0
  2  9  1  0
  4  3  1  0
  4  5  2  0
  6  5  1  0
  7  6  1  0
  8  7  2  0
  8  4  1  0
  9 10  2  0
 12 11  1  0
 13 12  1  0
 15 14  1  1
 14 13  1  0
 16 15  1  0
 16  9  1  0
 17 18  2  0
 17 15  1  0
 19 17  1  0
 20 24  1  0
 20 19  1  0
 20 21  1  6
 22 23  2  0
 22 21  1  0
 24 27  1  0
 25 24  2  0
 26 22  1  0
M  END
$$$$
