HFA.pdb
     RDKit          3D

 27 28  0  0  1  0  0  0  0  0999 V2000
   24.8619  -23.2469  -16.1845 N   0  0  0  0  0  0  0  0  0  0  0  0
   23.4474  -23.0234  -16.3536 C   0  0  1  0  0  0  0  0  0  0  0  0
   22.8235  -24.0413  -17.2763 C   0  0  0  0  0  0  0  0  0  0  0  0
   23.4054  -23.8564  -18.6167 C   0  0  0  0  0  0  0  0  0  0  0  0
   24.1466  -24.7849  -19.2972 C   0  0  0  0  0  0  0  0  0  0  0  0
   24.5003  -24.2510  -20.4837 N   0  0  0  0  0  0  0  0  0  0  0  0
   23.9942  -23.0082  -20.5559 C   0  0  0  0  0  0  0  0  0  0  0  0
   23.3176  -22.7749  -19.3928 N   0  0  0  0  0  0  0  0  0  0  0  0
   22.7594  -22.9066  -15.0617 C   0  0  0  0  0  0  0  0  0  0  0  0
   23.1085  -23.7310  -14.1551 O   0  0  0  0  0  0  0  0  0  0  0  0
   21.7523  -21.9416  -14.7916 N   0  0  0  0  0  0  0  0  0  0  0  0
   21.2004  -21.8602  -13.4827 C   0  0  1  0  0  0  0  0  0  0  0  0
   20.9697  -20.4490  -13.0128 C   0  0  0  0  0  0  0  0  0  0  0  0
   21.7432  -19.4403  -13.7555 C   0  0  0  0  0  0  0  0  0  0  0  0
   21.2205  -18.6677  -14.7624 C   0  0  0  0  0  0  0  0  0  0  0  0
   21.9889  -17.7254  -15.4392 C   0  0  0  0  0  0  0  0  0  0  0  0
   23.3143  -17.5324  -15.1198 C   0  0  0  0  0  0  0  0  0  0  0  0
   23.8479  -18.3036  -14.1102 C   0  0  0  0  0  0  0  0  0  0  0  0
   23.0719  -19.2387  -13.4437 C   0  0  0  0  0  0  0  0  0  0  0  0
   20.0231  -22.7402  -13.3759 C   0  0  0  0  0  0  0  0  0  0  0  0
   19.2303  -22.9038  -14.3454 O   0  0  0  0  0  0  0  0  0  0  0  0
   18.6049  -25.1012  -10.8396 C   0  0  0  0  0  0  0  0  0  0  0  0
   18.5473  -24.2892  -12.1342 C   0  0  2  0  0  0  0  0  0  0  0  0
   19.7243  -23.4486  -12.1790 N   0  0  0  0  0  0  0  0  0  0  0  0
   17.3545  -23.4298  -12.0417 C   0  0  0  0  0  0  0  0  0  0  0  0
   17.4598  -22.2762  -11.6075 O   0  0  0  0  0  0  0  0  0  0  0  0
   16.1237  -23.9123  -12.4399 O   0  0  0  0  0  0  0  0  0  0  0  0
  2  1  1  1
  2  9  1  0
  2  3  1  0
  3  4  1  0
  4  5  2  0
  5  6  1  0
  7  6  1  0
  8  4  1  0
  8  7  2  0
  9 10  2  0
 11  9  1  0
 11 12  1  0
 12 13  1  6
 13 14  1  0
 14 15  2  0
 15 16  1  0
 17 16  2  0
 18 17  1  0
 19 14  1  0
 19 18  2  0
 20 21  2  0
 20 12  1  0
 23 22  1  1
 23 25  1  0
 23 24  1  0
 24 20  1  0
 25 27  1  0
 26 25  2  0
M  END
$$$$
