HFA.pdb
     RDKit          3D

 27 28  0  0  1  0  0  0  0  0999 V2000
   20.7977  -11.1074  -18.7862 N   0  0  0  0  0  0  0  0  0  0  0  0
   21.6582  -10.1319  -18.1638 C   0  0  1  0  0  0  0  0  0  0  0  0
   22.5295   -9.4253  -19.1729 C   0  0  0  0  0  0  0  0  0  0  0  0
   23.4069  -10.4298  -19.7979 C   0  0  0  0  0  0  0  0  0  0  0  0
   24.3772  -11.1496  -19.1537 C   0  0  0  0  0  0  0  0  0  0  0  0
   24.9639  -11.9627  -20.0550 N   0  0  0  0  0  0  0  0  0  0  0  0
   24.3784  -11.7638  -21.2481 C   0  0  0  0  0  0  0  0  0  0  0  0
   23.4149  -10.8114  -21.0761 N   0  0  0  0  0  0  0  0  0  0  0  0
   20.9024   -9.2153  -17.3008 C   0  0  0  0  0  0  0  0  0  0  0  0
   19.8679   -8.6757  -17.8127 O   0  0  0  0  0  0  0  0  0  0  0  0
   21.2675   -8.9164  -15.9608 N   0  0  0  0  0  0  0  0  0  0  0  0
   20.4461   -8.0429  -15.1947 C   0  0  1  0  0  0  0  0  0  0  0  0
   19.6877   -8.7383  -14.0961 C   0  0  0  0  0  0  0  0  0  0  0  0
   18.5807   -9.5808  -14.5780 C   0  0  0  0  0  0  0  0  0  0  0  0
   18.6866  -10.9332  -14.7868 C   0  0  0  0  0  0  0  0  0  0  0  0
   17.6134  -11.6918  -15.2444 C   0  0  0  0  0  0  0  0  0  0  0  0
   16.3948  -11.1069  -15.5065 C   0  0  0  0  0  0  0  0  0  0  0  0
   16.2789   -9.7495  -15.2997 C   0  0  0  0  0  0  0  0  0  0  0  0
   17.3554   -9.0052  -14.8437 C   0  0  0  0  0  0  0  0  0  0  0  0
   21.2271   -6.8738  -14.7530 C   0  0  0  0  0  0  0  0  0  0  0  0
   22.1915   -6.9902  -13.9456 O   0  0  0  0  0  0  0  0  0  0  0  0
   22.4735   -3.8547  -15.9234 C   0  0  0  0  0  0  0  0  0  0  0  0
   21.7272   -4.4513  -14.7294 C   0  0  2  0  0  0  0  0  0  0  0  0
   20.9352   -5.5606  -15.2154 N   0  0  0  0  0  0  0  0  0  0  0  0
   20.8194   -3.4034  -14.2315 C   0  0  0  0  0  0  0  0  0  0  0  0
   19.6052   -3.4848  -14.4539 O   0  0  0  0  0  0  0  0  0  0  0  0
   21.3247   -2.3346  -13.5182 O   0  0  0  0  0  0  0  0  0  0  0  0
  2  1  1  6
  2  9  1  0
  2  3  1  0
  3  4  1  0
  4  5  2  0
  5  6  1  0
  7  6  1  0
  8  4  1  0
  8  7  2  0
  9 10  2  0
 11  9  1  0
 11 12  1  0
 12 13  1  1
 13 14  1  0
 14 15  2  0
 15 16  1  0
 17 16  2  0
 18 17  1  0
 19 14  1  0
 19 18  2  0
 20 21  2  0
 20 12  1  0
 23 22  1  6
 23 25  1  0
 23 24  1  0
 24 20  1  0
 25 27  1  0
 26 25  2  0
M  END
$$$$
