HFA.pdb
     RDKit          3D

 27 28  0  0  1  0  0  0  0  0999 V2000
   18.9074  -14.2849    9.0391 N   0  0  0  0  0  0  0  0  0  0  0  0
   20.3478  -14.3528    9.0525 C   0  0  1  0  0  0  0  0  0  0  0  0
   20.9628  -13.1275    9.6827 C   0  0  0  0  0  0  0  0  0  0  0  0
   20.7216  -11.9852    8.7846 C   0  0  0  0  0  0  0  0  0  0  0  0
   21.4666  -11.6707    7.6798 C   0  0  0  0  0  0  0  0  0  0  0  0
   20.9391  -10.5635    7.1199 N   0  0  0  0  0  0  0  0  0  0  0  0
   19.8802  -10.1818    7.8539 C   0  0  0  0  0  0  0  0  0  0  0  0
   19.7553  -11.0708    8.8831 N   0  0  0  0  0  0  0  0  0  0  0  0
   20.8251  -15.6125    9.6369 C   0  0  0  0  0  0  0  0  0  0  0  0
   20.0938  -16.1328   10.5411 O   0  0  0  0  0  0  0  0  0  0  0  0
   22.0315  -16.2531    9.2461 N   0  0  0  0  0  0  0  0  0  0  0  0
   22.3414  -17.5359    9.7782 C   0  0  1  0  0  0  0  0  0  0  0  0
   22.4377  -18.6145    8.7327 C   0  0  0  0  0  0  0  0  0  0  0  0
   21.1734  -18.8700    8.0229 C   0  0  0  0  0  0  0  0  0  0  0  0
   20.8460  -18.2987    6.8186 C   0  0  0  0  0  0  0  0  0  0  0  0
   19.6380  -18.5682    6.1824 C   0  0  0  0  0  0  0  0  0  0  0  0
   18.7190  -19.4262    6.7437 C   0  0  0  0  0  0  0  0  0  0  0  0
   19.0391  -20.0046    7.9527 C   0  0  0  0  0  0  0  0  0  0  0  0
   20.2455  -19.7280    8.5763 C   0  0  0  0  0  0  0  0  0  0  0  0
   23.5108  -17.4431   10.6701 C   0  0  0  0  0  0  0  0  0  0  0  0
   24.6313  -17.0380   10.2508 O   0  0  0  0  0  0  0  0  0  0  0  0
   24.1777  -17.6434   14.3248 C   0  0  0  0  0  0  0  0  0  0  0  0
   24.6236  -17.7085   12.8635 C   0  0  2  0  0  0  0  0  0  0  0  0
   23.4342  -17.8022   12.0444 N   0  0  0  0  0  0  0  0  0  0  0  0
   25.4011  -18.9507   12.7135 C   0  0  0  0  0  0  0  0  0  0  0  0
   24.8277  -20.0013   12.4009 O   0  0  0  0  0  0  0  0  0  0  0  0
   26.7661  -18.9396   12.9209 O   0  0  0  0  0  0  0  0  0  0  0  0
  2  1  1  1
  2  9  1  0
  2  3  1  0
  3  4  1  0
  4  5  2  0
  5  6  1  0
  7  6  1  0
  8  4  1  0
  8  7  2  0
  9 10  2  0
 11  9  1  0
 11 12  1  0
 12 13  1  6
 13 14  1  0
 14 15  2  0
 15 16  1  0
 17 16  2  0
 18 17  1  0
 19 14  1  0
 19 18  2  0
 20 21  2  0
 20 12  1  0
 23 22  1  1
 23 25  1  0
 23 24  1  0
 24 20  1  0
 25 27  1  0
 26 25  2  0
M  END
$$$$
