HFA.pdb
     RDKit          3D

 27 28  0  0  1  0  0  0  0  0999 V2000
   13.9459  -18.2565    3.2865 N   0  0  0  0  0  0  0  0  0  0  0  0
   13.9948  -17.6753    4.6053 C   0  0  1  0  0  0  0  0  0  0  0  0
   12.8964  -18.2043    5.4942 C   0  0  0  0  0  0  0  0  0  0  0  0
   11.6212  -17.6313    5.0304 C   0  0  0  0  0  0  0  0  0  0  0  0
   11.0766  -16.4507    5.4597 C   0  0  0  0  0  0  0  0  0  0  0  0
    9.9106  -16.2658    4.8085 N   0  0  0  0  0  0  0  0  0  0  0  0
    9.7178  -17.3077    3.9820 C   0  0  0  0  0  0  0  0  0  0  0  0
   10.7848  -18.1475    4.1284 N   0  0  0  0  0  0  0  0  0  0  0  0
   15.3331  -17.7906    5.1986 C   0  0  0  0  0  0  0  0  0  0  0  0
   16.0563  -18.7552    4.7867 O   0  0  0  0  0  0  0  0  0  0  0  0
   15.8367  -16.8976    6.1821 N   0  0  0  0  0  0  0  0  0  0  0  0
   17.1641  -17.0711    6.6643 C   0  0  1  0  0  0  0  0  0  0  0  0
   18.0241  -15.8448    6.5161 C   0  0  0  0  0  0  0  0  0  0  0  0
   18.2243  -15.4233    5.1197 C   0  0  0  0  0  0  0  0  0  0  0  0
   18.6681  -16.2604    4.1266 C   0  0  0  0  0  0  0  0  0  0  0  0
   18.8442  -15.8192    2.8186 C   0  0  0  0  0  0  0  0  0  0  0  0
   18.5767  -14.5142    2.4704 C   0  0  0  0  0  0  0  0  0  0  0  0
   18.1306  -13.6663    3.4608 C   0  0  0  0  0  0  0  0  0  0  0  0
   17.9594  -14.1181    4.7599 C   0  0  0  0  0  0  0  0  0  0  0  0
   17.1369  -17.6378    8.0244 C   0  0  0  0  0  0  0  0  0  0  0  0
   16.2048  -17.3694    8.8335 O   0  0  0  0  0  0  0  0  0  0  0  0
   18.6662  -20.4448    9.8291 C   0  0  0  0  0  0  0  0  0  0  0  0
   18.0733  -19.0352    9.8382 C   0  0  2  0  0  0  0  0  0  0  0  0
   18.1554  -18.5147    8.4904 N   0  0  0  0  0  0  0  0  0  0  0  0
   18.9330  -18.2203   10.7139 C   0  0  0  0  0  0  0  0  0  0  0  0
   19.7412  -17.4266   10.2165 O   0  0  0  0  0  0  0  0  0  0  0  0
   18.8348  -18.3433   12.0855 O   0  0  0  0  0  0  0  0  0  0  0  0
  2  1  1  6
  2  9  1  0
  2  3  1  0
  3  4  1  0
  4  5  2  0
  5  6  1  0
  7  6  1  0
  8  4  1  0
  8  7  2  0
  9 10  2  0
 11  9  1  0
 11 12  1  0
 12 13  1  1
 13 14  1  0
 14 15  2  0
 15 16  1  0
 17 16  2  0
 18 17  1  0
 19 14  1  0
 19 18  2  0
 20 21  2  0
 20 12  1  0
 23 22  1  6
 23 25  1  0
 23 24  1  0
 24 20  1  0
 25 27  1  0
 26 25  2  0
M  END
$$$$
