HFA.pdb
     RDKit          3D

 27 28  0  0  1  0  0  0  0  0999 V2000
   15.8922  -24.8321   -6.3769 N   0  0  0  0  0  0  0  0  0  0  0  0
   15.4095  -25.8731   -5.5036 C   0  0  1  0  0  0  0  0  0  0  0  0
   14.5059  -26.8406   -6.2274 C   0  0  0  0  0  0  0  0  0  0  0  0
   13.2873  -26.1144   -6.6239 C   0  0  0  0  0  0  0  0  0  0  0  0
   13.0517  -25.5698   -7.8578 C   0  0  0  0  0  0  0  0  0  0  0  0
   11.8344  -24.9907   -7.8348 N   0  0  0  0  0  0  0  0  0  0  0  0
   11.3068  -25.1637   -6.6110 C   0  0  0  0  0  0  0  0  0  0  0  0
   12.2167  -25.8616   -5.8693 N   0  0  0  0  0  0  0  0  0  0  0  0
   16.5083  -26.5276   -4.7823 C   0  0  0  0  0  0  0  0  0  0  0  0
   17.6255  -26.5978   -5.3908 O   0  0  0  0  0  0  0  0  0  0  0  0
   16.3788  -27.0682   -3.4749 N   0  0  0  0  0  0  0  0  0  0  0  0
   17.5269  -27.6036   -2.8270 C   0  0  1  0  0  0  0  0  0  0  0  0
   18.1324  -26.6747   -1.8091 C   0  0  0  0  0  0  0  0  0  0  0  0
   17.1418  -25.8768   -1.0676 C   0  0  0  0  0  0  0  0  0  0  0  0
   16.5720  -24.7262   -1.5527 C   0  0  0  0  0  0  0  0  0  0  0  0
   15.6390  -24.0021   -0.8166 C   0  0  0  0  0  0  0  0  0  0  0  0
   15.2504  -24.4182    0.4370 C   0  0  0  0  0  0  0  0  0  0  0  0
   15.8171  -25.5724    0.9323 C   0  0  0  0  0  0  0  0  0  0  0  0
   16.7453  -26.2845    0.1892 C   0  0  0  0  0  0  0  0  0  0  0  0
   17.2363  -28.9573   -2.3223 C   0  0  0  0  0  0  0  0  0  0  0  0
   16.0821  -29.2801   -1.9234 O   0  0  0  0  0  0  0  0  0  0  0  0
   19.1496  -32.1398   -1.7951 C   0  0  0  0  0  0  0  0  0  0  0  0
   17.9087  -31.2523   -1.6895 C   0  0  2  0  0  0  0  0  0  0  0  0
   18.2385  -29.9650   -2.2625 N   0  0  0  0  0  0  0  0  0  0  0  0
   17.6362  -31.0755   -0.2527 C   0  0  0  0  0  0  0  0  0  0  0  0
   16.9999  -31.9391    0.3635 O   0  0  0  0  0  0  0  0  0  0  0  0
   18.0913  -29.9485    0.4024 O   0  0  0  0  0  0  0  0  0  0  0  0
  2  1  1  6
  2  9  1  0
  2  3  1  0
  3  4  1  0
  4  5  2  0
  5  6  1  0
  7  6  1  0
  8  4  1  0
  8  7  2  0
  9 10  2  0
 11  9  1  0
 11 12  1  0
 12 13  1  1
 13 14  1  0
 14 15  2  0
 15 16  1  0
 17 16  2  0
 18 17  1  0
 19 14  1  0
 19 18  2  0
 20 21  2  0
 20 12  1  0
 23 22  1  1
 23 25  1  0
 23 24  1  0
 24 20  1  0
 25 27  1  0
 26 25  2  0
M  END
$$$$
