HFA.pdb
     RDKit          3D

 27 28  0  0  1  0  0  0  0  0999 V2000
   18.6876  -11.1229  -16.5927 N   0  0  0  0  0  0  0  0  0  0  0  0
   18.5964   -9.8410  -17.2470 C   0  0  1  0  0  0  0  0  0  0  0  0
   17.3628   -9.7363  -18.1094 C   0  0  0  0  0  0  0  0  0  0  0  0
   17.5278  -10.6517  -19.2514 C   0  0  0  0  0  0  0  0  0  0  0  0
   18.2824  -10.4043  -20.3668 C   0  0  0  0  0  0  0  0  0  0  0  0
   18.1856  -11.4724  -21.1838 N   0  0  0  0  0  0  0  0  0  0  0  0
   17.3856  -12.3805  -20.5996 C   0  0  0  0  0  0  0  0  0  0  0  0
   16.9841  -11.8605  -19.4024 N   0  0  0  0  0  0  0  0  0  0  0  0
   18.7376   -8.7345  -16.2922 C   0  0  0  0  0  0  0  0  0  0  0  0
   18.0903   -8.8400  -15.1999 O   0  0  0  0  0  0  0  0  0  0  0  0
   19.5418   -7.5878  -16.5308 N   0  0  0  0  0  0  0  0  0  0  0  0
   19.6744   -6.6067  -15.5089 C   0  0  1  0  0  0  0  0  0  0  0  0
   21.0704   -6.4968  -14.9568 C   0  0  0  0  0  0  0  0  0  0  0  0
   21.5119   -7.6883  -14.2131 C   0  0  0  0  0  0  0  0  0  0  0  0
   22.3411   -8.6493  -14.7354 C   0  0  0  0  0  0  0  0  0  0  0  0
   22.7332   -9.7612  -13.9962 C   0  0  0  0  0  0  0  0  0  0  0  0
   22.2993   -9.9388  -12.7016 C   0  0  0  0  0  0  0  0  0  0  0  0
   21.4665   -8.9790  -12.1687 C   0  0  0  0  0  0  0  0  0  0  0  0
   21.0832   -7.8761  -12.9154 C   0  0  0  0  0  0  0  0  0  0  0  0
   19.0921   -5.3293  -15.9571 C   0  0  0  0  0  0  0  0  0  0  0  0
   19.5861   -4.6802  -16.9215 O   0  0  0  0  0  0  0  0  0  0  0  0
   15.9862   -3.3762  -15.3339 C   0  0  0  0  0  0  0  0  0  0  0  0
   17.4383   -3.4965  -15.7981 C   0  0  2  0  0  0  0  0  0  0  0  0
   17.9464   -4.7675  -15.3285 N   0  0  0  0  0  0  0  0  0  0  0  0
   18.1854   -2.4137  -15.1353 C   0  0  0  0  0  0  0  0  0  0  0  0
   17.9647   -1.2361  -15.4434 O   0  0  0  0  0  0  0  0  0  0  0  0
   19.1282   -2.7147  -14.1726 O   0  0  0  0  0  0  0  0  0  0  0  0
  2  1  1  1
  2  9  1  0
  2  3  1  0
  3  4  1  0
  4  5  2  0
  5  6  1  0
  7  6  1  0
  8  4  1  0
  8  7  2  0
  9 10  2  0
 11  9  1  0
 11 12  1  0
 12 13  1  6
 13 14  1  0
 14 15  2  0
 15 16  1  0
 17 16  2  0
 18 17  1  0
 19 14  1  0
 19 18  2  0
 20 21  2  0
 20 12  1  0
 23 22  1  1
 23 25  1  0
 23 24  1  0
 24 20  1  0
 25 27  1  0
 26 25  2  0
M  END
$$$$
