HFA.pdb
     RDKit          3D

 27 28  0  0  1  0  0  0  0  0999 V2000
   20.9677  -15.9310  -18.9369 N   0  0  0  0  0  0  0  0  0  0  0  0
   21.1362  -14.5574  -19.3422 C   0  0  1  0  0  0  0  0  0  0  0  0
   19.8127  -13.8817  -19.6034 C   0  0  0  0  0  0  0  0  0  0  0  0
   19.1747  -14.5583  -20.7456 C   0  0  0  0  0  0  0  0  0  0  0  0
   19.8083  -15.3806  -21.6383 C   0  0  0  0  0  0  0  0  0  0  0  0
   18.8969  -15.8061  -22.5361 N   0  0  0  0  0  0  0  0  0  0  0  0
   17.7079  -15.2652  -22.2206 C   0  0  0  0  0  0  0  0  0  0  0  0
   17.8927  -14.4937  -21.1090 N   0  0  0  0  0  0  0  0  0  0  0  0
   21.9953  -13.8187  -18.4082 C   0  0  0  0  0  0  0  0  0  0  0  0
   21.7378  -13.9573  -17.1681 O   0  0  0  0  0  0  0  0  0  0  0  0
   23.0675  -12.9825  -18.8197 N   0  0  0  0  0  0  0  0  0  0  0  0
   23.8225  -12.2850  -17.8357 C   0  0  1  0  0  0  0  0  0  0  0  0
   25.3096  -12.4726  -17.9726 C   0  0  0  0  0  0  0  0  0  0  0  0
   26.0997  -11.6893  -17.0083 C   0  0  0  0  0  0  0  0  0  0  0  0
   26.3541  -12.0958  -15.7222 C   0  0  0  0  0  0  0  0  0  0  0  0
   27.1062  -11.3225  -14.8430 C   0  0  0  0  0  0  0  0  0  0  0  0
   27.6272  -10.1100  -15.2357 C   0  0  0  0  0  0  0  0  0  0  0  0
   27.3770   -9.6937  -16.5252 C   0  0  0  0  0  0  0  0  0  0  0  0
   26.6264  -10.4732  -17.3912 C   0  0  0  0  0  0  0  0  0  0  0  0
   23.3874  -10.8786  -17.7691 C   0  0  0  0  0  0  0  0  0  0  0  0
   23.2325  -10.1847  -18.8130 O   0  0  0  0  0  0  0  0  0  0  0  0
   21.7436   -8.7339  -15.2519 C   0  0  0  0  0  0  0  0  0  0  0  0
   22.5601   -8.9014  -16.5340 C   0  0  2  0  0  0  0  0  0  0  0  0
   23.1188  -10.2362  -16.5286 N   0  0  0  0  0  0  0  0  0  0  0  0
   23.6621   -7.9263  -16.4640 C   0  0  0  0  0  0  0  0  0  0  0  0
   24.7800   -8.2883  -16.0769 O   0  0  0  0  0  0  0  0  0  0  0  0
   23.4458   -6.6129  -16.8306 O   0  0  0  0  0  0  0  0  0  0  0  0
  2  1  1  1
  2  9  1  0
  2  3  1  0
  3  4  1  0
  4  5  2  0
  5  6  1  0
  7  6  1  0
  8  4  1  0
  8  7  2  0
  9 10  2  0
 11  9  1  0
 11 12  1  0
 12 13  1  6
 13 14  1  0
 14 15  2  0
 15 16  1  0
 17 16  2  0
 18 17  1  0
 19 14  1  0
 19 18  2  0
 20 21  2  0
 20 12  1  0
 23 22  1  1
 23 25  1  0
 23 24  1  0
 24 20  1  0
 25 27  1  0
 26 25  2  0
M  END
$$$$
