HFA.pdb
     RDKit          3D

 27 28  0  0  1  0  0  0  0  0999 V2000
   27.5180  -21.4776  -15.0484 N   0  0  0  0  0  0  0  0  0  0  0  0
   26.5785  -20.4117  -14.8024 C   0  0  1  0  0  0  0  0  0  0  0  0
   26.1869  -19.7021  -16.0751 C   0  0  0  0  0  0  0  0  0  0  0  0
   27.0577  -18.5236  -16.2246 C   0  0  0  0  0  0  0  0  0  0  0  0
   27.0243  -17.4046  -15.4364 C   0  0  0  0  0  0  0  0  0  0  0  0
   27.9672  -16.5500  -15.8816 N   0  0  0  0  0  0  0  0  0  0  0  0
   28.5877  -17.1144  -16.9316 C   0  0  0  0  0  0  0  0  0  0  0  0
   28.0152  -18.3375  -17.1346 N   0  0  0  0  0  0  0  0  0  0  0  0
   25.4294  -20.8739  -14.0138 C   0  0  0  0  0  0  0  0  0  0  0  0
   24.9559  -22.0176  -14.3155 O   0  0  0  0  0  0  0  0  0  0  0  0
   24.8437  -20.1202  -12.9615 N   0  0  0  0  0  0  0  0  0  0  0  0
   23.8127  -20.7074  -12.1760 C   0  0  1  0  0  0  0  0  0  0  0  0
   23.7009  -20.1220  -10.7938 C   0  0  0  0  0  0  0  0  0  0  0  0
   24.9048  -20.3117   -9.9678 C   0  0  0  0  0  0  0  0  0  0  0  0
   25.4012  -19.3592   -9.1134 C   0  0  0  0  0  0  0  0  0  0  0  0
   26.5441  -19.5808   -8.3509 C   0  0  0  0  0  0  0  0  0  0  0  0
   27.2243  -20.7755   -8.4271 C   0  0  0  0  0  0  0  0  0  0  0  0
   26.7333  -21.7379   -9.2822 C   0  0  0  0  0  0  0  0  0  0  0  0
   25.5940  -21.5048  -10.0363 C   0  0  0  0  0  0  0  0  0  0  0  0
   22.5497  -20.7280  -12.9350 C   0  0  0  0  0  0  0  0  0  0  0  0
   22.1604  -19.7254  -13.5973 O   0  0  0  0  0  0  0  0  0  0  0  0
   19.9549  -23.2262  -13.8953 C   0  0  0  0  0  0  0  0  0  0  0  0
   20.4297  -21.7971  -13.6293 C   0  0  2  0  0  0  0  0  0  0  0  0
   21.7106  -21.8764  -12.9607 N   0  0  0  0  0  0  0  0  0  0  0  0
   19.4519  -21.1908  -12.7094 C   0  0  0  0  0  0  0  0  0  0  0  0
   19.7577  -20.9984  -11.5262 O   0  0  0  0  0  0  0  0  0  0  0  0
   18.1985  -20.8385  -13.1689 O   0  0  0  0  0  0  0  0  0  0  0  0
  2  1  1  6
  2  9  1  0
  2  3  1  0
  3  4  1  0
  4  5  2  0
  5  6  1  0
  7  6  1  0
  8  4  1  0
  8  7  2  0
  9 10  2  0
 11  9  1  0
 11 12  1  0
 12 13  1  1
 13 14  1  0
 14 15  2  0
 15 16  1  0
 17 16  2  0
 18 17  1  0
 19 14  1  0
 19 18  2  0
 20 21  2  0
 20 12  1  0
 23 22  1  1
 23 25  1  0
 23 24  1  0
 24 20  1  0
 25 27  1  0
 26 25  2  0
M  END
$$$$
