HFA.pdb
     RDKit          3D

 27 28  0  0  1  0  0  0  0  0999 V2000
   24.6173  -13.6771  -19.7623 N   0  0  0  0  0  0  0  0  0  0  0  0
   24.2784  -12.2778  -19.6823 C   0  0  1  0  0  0  0  0  0  0  0  0
   23.3041  -11.8726  -20.7608 C   0  0  0  0  0  0  0  0  0  0  0  0
   23.9988  -11.9599  -22.0567 C   0  0  0  0  0  0  0  0  0  0  0  0
   24.6300  -10.9245  -22.6924 C   0  0  0  0  0  0  0  0  0  0  0  0
   25.1440  -11.3927  -23.8475 N   0  0  0  0  0  0  0  0  0  0  0  0
   24.8455  -12.6994  -23.9442 C   0  0  0  0  0  0  0  0  0  0  0  0
   24.1355  -13.0395  -22.8283 N   0  0  0  0  0  0  0  0  0  0  0  0
   23.8436  -11.9023  -18.3310 C   0  0  0  0  0  0  0  0  0  0  0  0
   23.0776  -12.7249  -17.7312 O   0  0  0  0  0  0  0  0  0  0  0  0
   24.2311  -10.6967  -17.6870 N   0  0  0  0  0  0  0  0  0  0  0  0
   23.8336  -10.4692  -16.3398 C   0  0  1  0  0  0  0  0  0  0  0  0
   24.9745  -10.5146  -15.3592 C   0  0  0  0  0  0  0  0  0  0  0  0
   25.5757  -11.8499  -15.2067 C   0  0  0  0  0  0  0  0  0  0  0  0
   24.9730  -12.8857  -14.5377 C   0  0  0  0  0  0  0  0  0  0  0  0
   25.5784  -14.1329  -14.4170 C   0  0  0  0  0  0  0  0  0  0  0  0
   26.8160  -14.3747  -14.9700 C   0  0  0  0  0  0  0  0  0  0  0  0
   27.4289  -13.3407  -15.6437 C   0  0  0  0  0  0  0  0  0  0  0  0
   26.8153  -12.1031  -15.7568 C   0  0  0  0  0  0  0  0  0  0  0  0
   23.0043   -9.2539  -16.2569 C   0  0  0  0  0  0  0  0  0  0  0  0
   23.3609   -8.1720  -16.8026 O   0  0  0  0  0  0  0  0  0  0  0  0
   19.5380   -8.3764  -15.2794 C   0  0  0  0  0  0  0  0  0  0  0  0
   21.0065   -8.0089  -15.4963 C   0  0  2  0  0  0  0  0  0  0  0  0
   21.7633   -9.2406  -15.5617 N   0  0  0  0  0  0  0  0  0  0  0  0
   21.4336   -7.2531  -14.3062 C   0  0  0  0  0  0  0  0  0  0  0  0
   22.1283   -7.8047  -13.4439 O   0  0  0  0  0  0  0  0  0  0  0  0
   21.0591   -5.9327  -14.1562 O   0  0  0  0  0  0  0  0  0  0  0  0
  2  1  1  1
  2  9  1  0
  2  3  1  0
  3  4  1  0
  4  5  2  0
  5  6  1  0
  7  6  1  0
  8  4  1  0
  8  7  2  0
  9 10  2  0
 11  9  1  0
 11 12  1  0
 12 13  1  1
 13 14  1  0
 14 15  2  0
 15 16  1  0
 17 16  2  0
 18 17  1  0
 19 14  1  0
 19 18  2  0
 20 21  2  0
 20 12  1  0
 23 22  1  1
 23 25  1  0
 23 24  1  0
 24 20  1  0
 25 27  1  0
 26 25  2  0
M  END
$$$$
