HFA.pdb
     RDKit          3D

 27 28  0  0  1  0  0  0  0  0999 V2000
   23.6544  -11.5365  -18.8715 N   0  0  0  0  0  0  0  0  0  0  0  0
   22.8700  -10.3816  -19.2326 C   0  0  1  0  0  0  0  0  0  0  0  0
   21.7095  -10.7466  -20.1251 C   0  0  0  0  0  0  0  0  0  0  0  0
   22.2547  -11.2115  -21.4120 C   0  0  0  0  0  0  0  0  0  0  0  0
   22.1134  -12.4722  -21.9270 C   0  0  0  0  0  0  0  0  0  0  0  0
   22.7474  -12.5126  -23.1162 N   0  0  0  0  0  0  0  0  0  0  0  0
   23.2810  -11.3020  -23.3524 C   0  0  0  0  0  0  0  0  0  0  0  0
   22.9689  -10.5041  -22.2890 N   0  0  0  0  0  0  0  0  0  0  0  0
   22.4765   -9.6033  -18.0513 C   0  0  0  0  0  0  0  0  0  0  0  0
   21.9334  -10.2516  -17.0984 O   0  0  0  0  0  0  0  0  0  0  0  0
   22.6713   -8.2010  -17.9330 N   0  0  0  0  0  0  0  0  0  0  0  0
   22.4412   -7.5704  -16.6784 C   0  0  1  0  0  0  0  0  0  0  0  0
   23.7018   -7.1203  -15.9901 C   0  0  0  0  0  0  0  0  0  0  0  0
   24.6647   -8.2060  -15.7418 C   0  0  0  0  0  0  0  0  0  0  0  0
   25.7621   -8.4471  -16.5301 C   0  0  0  0  0  0  0  0  0  0  0  0
   26.6471   -9.4862  -16.2587 C   0  0  0  0  0  0  0  0  0  0  0  0
   26.4515  -10.3178  -15.1789 C   0  0  0  0  0  0  0  0  0  0  0  0
   25.3523  -10.0834  -14.3817 C   0  0  0  0  0  0  0  0  0  0  0  0
   24.4784   -9.0451  -14.6628 C   0  0  0  0  0  0  0  0  0  0  0  0
   21.4151   -6.5224  -16.8211 C   0  0  0  0  0  0  0  0  0  0  0  0
   21.6194   -5.4879  -17.5164 O   0  0  0  0  0  0  0  0  0  0  0  0
   17.7802   -6.2027  -16.2120 C   0  0  0  0  0  0  0  0  0  0  0  0
   19.1656   -5.5832  -16.3999 C   0  0  2  0  0  0  0  0  0  0  0  0
   20.1463   -6.6257  -16.1862 N   0  0  0  0  0  0  0  0  0  0  0  0
   19.3199   -4.5647  -15.3469 C   0  0  0  0  0  0  0  0  0  0  0  0
   20.1236   -4.7500  -14.4249 O   0  0  0  0  0  0  0  0  0  0  0  0
   18.5690   -3.4069  -15.3915 O   0  0  0  0  0  0  0  0  0  0  0  0
  2  1  1  1
  2  9  1  0
  2  3  1  0
  3  4  1  0
  4  5  2  0
  5  6  1  0
  7  6  1  0
  8  4  1  0
  8  7  2  0
  9 10  2  0
 11  9  1  0
 11 12  1  0
 12 13  1  6
 13 14  1  0
 14 15  2  0
 15 16  1  0
 17 16  2  0
 18 17  1  0
 19 14  1  0
 19 18  2  0
 20 21  2  0
 20 12  1  0
 23 22  1  1
 23 25  1  0
 23 24  1  0
 24 20  1  0
 25 27  1  0
 26 25  2  0
M  END
$$$$
