HFA.pdb
     RDKit          3D

 27 28  0  0  1  0  0  0  0  0999 V2000
   26.0242  -21.7720  -12.5513 N   0  0  0  0  0  0  0  0  0  0  0  0
   25.6227  -20.7077  -11.6651 C   0  0  1  0  0  0  0  0  0  0  0  0
   24.1344  -20.4646  -11.7161 C   0  0  0  0  0  0  0  0  0  0  0  0
   23.8072  -19.9284  -13.0484 C   0  0  0  0  0  0  0  0  0  0  0  0
   24.3365  -18.7931  -13.6011 C   0  0  0  0  0  0  0  0  0  0  0  0
   23.7950  -18.6310  -14.8251 N   0  0  0  0  0  0  0  0  0  0  0  0
   22.9387  -19.6429  -15.0461 C   0  0  0  0  0  0  0  0  0  0  0  0
   22.9548  -20.4405  -13.9377 N   0  0  0  0  0  0  0  0  0  0  0  0
   26.1347  -20.9139  -10.3044 C   0  0  0  0  0  0  0  0  0  0  0  0
   25.8719  -22.0364   -9.7621 O   0  0  0  0  0  0  0  0  0  0  0  0
   26.8874  -19.9422   -9.5919 N   0  0  0  0  0  0  0  0  0  0  0  0
   27.3405  -20.2409   -8.2766 C   0  0  1  0  0  0  0  0  0  0  0  0
   28.4813  -19.3715   -7.8204 C   0  0  0  0  0  0  0  0  0  0  0  0
   28.8327  -19.5464   -6.4014 C   0  0  0  0  0  0  0  0  0  0  0  0
   28.3614  -18.7418   -5.3943 C   0  0  0  0  0  0  0  0  0  0  0  0
   28.7203  -18.9430   -4.0649 C   0  0  0  0  0  0  0  0  0  0  0  0
   29.5695  -19.9667   -3.7088 C   0  0  0  0  0  0  0  0  0  0  0  0
   30.0478  -20.7798   -4.7132 C   0  0  0  0  0  0  0  0  0  0  0  0
   29.6826  -20.5689   -6.0335 C   0  0  0  0  0  0  0  0  0  0  0  0
   26.1976  -20.2868   -7.3475 C   0  0  0  0  0  0  0  0  0  0  0  0
   25.3306  -19.3687   -7.3206 O   0  0  0  0  0  0  0  0  0  0  0  0
   24.3843  -22.7703   -5.3666 C   0  0  0  0  0  0  0  0  0  0  0  0
   24.8900  -21.3362   -5.5285 C   0  0  2  0  0  0  0  0  0  0  0  0
   26.0141  -21.3663   -6.4394 N   0  0  0  0  0  0  0  0  0  0  0  0
   25.3657  -20.9033   -4.2032 C   0  0  0  0  0  0  0  0  0  0  0  0
   26.4831  -21.2552   -3.8057 O   0  0  0  0  0  0  0  0  0  0  0  0
   24.5652  -20.1065   -3.4092 O   0  0  0  0  0  0  0  0  0  0  0  0
  2  1  1  6
  2  9  1  0
  2  3  1  0
  3  4  1  0
  4  5  2  0
  5  6  1  0
  7  6  1  0
  8  4  1  0
  8  7  2  0
  9 10  2  0
 11  9  1  0
 11 12  1  0
 12 13  1  1
 13 14  1  0
 14 15  2  0
 15 16  1  0
 17 16  2  0
 18 17  1  0
 19 14  1  0
 19 18  2  0
 20 21  2  0
 20 12  1  0
 23 22  1  1
 23 25  1  0
 23 24  1  0
 24 20  1  0
 25 27  1  0
 26 25  2  0
M  END
$$$$
