NFN.pdb
     RDKit          3D

 28 28  0  0  1  0  0  0  0  0999 V2000
   28.3809  -21.4715  -19.7043 N   0  0  0  0  0  0  0  0  0  0  0  0
   27.1105  -22.0769  -19.5468 C   0  0  0  0  0  0  0  0  0  0  0  0
   26.6469  -22.7331  -20.5114 O   0  0  0  0  0  0  0  0  0  0  0  0
   26.2960  -21.9810  -18.3102 C   0  0  0  0  0  0  0  0  0  0  0  0
   27.2244  -22.0471  -17.1037 C   0  0  2  0  0  0  0  0  0  0  0  0
   27.8600  -23.3657  -17.1940 N   0  0  0  0  0  0  0  0  0  0  0  0
   26.4535  -22.0007  -15.8377 C   0  0  0  0  0  0  0  0  0  0  0  0
   25.2566  -22.3883  -15.7699 O   0  0  0  0  0  0  0  0  0  0  0  0
   27.0547  -21.5084  -14.6435 N   0  0  0  0  0  0  0  0  0  0  0  0
   26.2937  -21.3286  -13.4183 C   0  0  1  0  0  0  0  0  0  0  0  0
   27.1721  -20.8266  -12.2980 C   0  0  0  0  0  0  0  0  0  0  0  0
   26.4693  -20.6377  -11.0148 C   0  0  0  0  0  0  0  0  0  0  0  0
   26.1969  -19.3568  -10.5997 C   0  0  0  0  0  0  0  0  0  0  0  0
   25.5434  -19.1437   -9.4087 C   0  0  0  0  0  0  0  0  0  0  0  0
   25.1608  -20.2327   -8.6286 C   0  0  0  0  0  0  0  0  0  0  0  0
   25.4267  -21.5216   -9.0307 C   0  0  0  0  0  0  0  0  0  0  0  0
   26.0806  -21.7300  -10.2227 C   0  0  0  0  0  0  0  0  0  0  0  0
   25.0858  -20.5038  -13.6547 C   0  0  0  0  0  0  0  0  0  0  0  0
   25.2114  -19.3766  -14.1833 O   0  0  0  0  0  0  0  0  0  0  0  0
   20.5543  -18.1541  -15.4448 N   0  0  0  0  0  0  0  0  0  0  0  0
   20.6763  -19.4211  -14.7849 C   0  0  0  0  0  0  0  0  0  0  0  0
   19.6641  -19.9072  -14.2287 O   0  0  0  0  0  0  0  0  0  0  0  0
   21.9491  -20.1614  -14.7431 C   0  0  0  0  0  0  0  0  0  0  0  0
   22.5861  -20.0671  -13.4121 C   0  0  2  0  0  0  0  0  0  0  0  0
   23.7835  -20.9080  -13.3203 N   0  0  0  0  0  0  0  0  0  0  0  0
   21.6337  -20.6352  -12.3879 C   0  0  0  0  0  0  0  0  0  0  0  0
   20.8311  -19.8388  -11.6169 O   0  0  0  0  0  0  0  0  0  0  0  0
   21.5549  -21.8868  -12.2162 O   0  0  0  0  0  0  0  0  0  0  0  0
  2  1  1  0
  2  3  2  0
  4  5  1  0
  4  2  1  0
  5  7  1  0
  5  6  1  6
  7  8  2  0
  9  7  1  0
  9 10  1  0
 11 12  1  0
 10 11  1  1
 12 17  2  0
 13 14  2  0
 13 12  1  0
 14 15  1  0
 15 16  2  0
 17 16  1  0
 18 10  1  0
 18 19  2  0
 20 21  1  0
 21 23  1  0
 21 22  2  0
 24 23  1  6
 24 25  1  0
 24 26  1  0
 25 18  1  0
 26 27  1  0
 28 26  2  0
M  END
$$$$
