NFN.pdb
     RDKit          3D

 28 28  0  0  1  0  0  0  0  0999 V2000
   27.6644  -23.1218  -15.3495 N   0  0  0  0  0  0  0  0  0  0  0  0
   26.5140  -23.0838  -16.1743 C   0  0  0  0  0  0  0  0  0  0  0  0
   26.3705  -23.9936  -17.0274 O   0  0  0  0  0  0  0  0  0  0  0  0
   25.4698  -22.0331  -16.0896 C   0  0  0  0  0  0  0  0  0  0  0  0
   25.9048  -20.9888  -15.0686 C   0  0  2  0  0  0  0  0  0  0  0  0
   25.3760  -21.4745  -13.7899 N   0  0  0  0  0  0  0  0  0  0  0  0
   25.2752  -19.6762  -15.3510 C   0  0  0  0  0  0  0  0  0  0  0  0
   24.0307  -19.5000  -15.2650 O   0  0  0  0  0  0  0  0  0  0  0  0
   26.0733  -18.5596  -15.7336 N   0  0  0  0  0  0  0  0  0  0  0  0
   25.4822  -17.2862  -16.1096 C   0  0  1  0  0  0  0  0  0  0  0  0
   26.4802  -16.1610  -15.9799 C   0  0  0  0  0  0  0  0  0  0  0  0
   26.0188  -14.8745  -16.5352 C   0  0  0  0  0  0  0  0  0  0  0  0
   25.1949  -14.0877  -15.7676 C   0  0  0  0  0  0  0  0  0  0  0  0
   24.7457  -12.8823  -16.2537 C   0  0  0  0  0  0  0  0  0  0  0  0
   25.1310  -12.4662  -17.5261 C   0  0  0  0  0  0  0  0  0  0  0  0
   25.9557  -13.2431  -18.3071 C   0  0  0  0  0  0  0  0  0  0  0  0
   26.4026  -14.4480  -17.8168 C   0  0  0  0  0  0  0  0  0  0  0  0
   24.8344  -17.3686  -17.4396 C   0  0  0  0  0  0  0  0  0  0  0  0
   25.4105  -17.9897  -18.3606 O   0  0  0  0  0  0  0  0  0  0  0  0
   20.2190  -18.2421  -20.7046 N   0  0  0  0  0  0  0  0  0  0  0  0
   20.7343  -17.0244  -20.1503 C   0  0  0  0  0  0  0  0  0  0  0  0
   20.5832  -15.9609  -20.7956 O   0  0  0  0  0  0  0  0  0  0  0  0
   21.4311  -16.9894  -18.8531 C   0  0  0  0  0  0  0  0  0  0  0  0
   22.8967  -16.9016  -19.0286 C   0  0  2  0  0  0  0  0  0  0  0  0
   23.5935  -16.7868  -17.7438 N   0  0  0  0  0  0  0  0  0  0  0  0
   23.2122  -15.6177  -19.7571 C   0  0  0  0  0  0  0  0  0  0  0  0
   23.4758  -15.5862  -21.0996 O   0  0  0  0  0  0  0  0  0  0  0  0
   23.2405  -14.5191  -19.1290 O   0  0  0  0  0  0  0  0  0  0  0  0
  2  1  1  0
  2  3  2  0
  4  5  1  0
  4  2  1  0
  5  7  1  0
  5  6  1  1
  7  8  2  0
  9  7  1  0
  9 10  1  0
 11 12  1  0
 10 11  1  6
 12 17  2  0
 13 14  2  0
 13 12  1  0
 14 15  1  0
 15 16  2  0
 17 16  1  0
 18 10  1  0
 18 19  2  0
 20 21  1  0
 21 23  1  0
 21 22  2  0
 24 23  1  1
 24 25  1  0
 24 26  1  0
 25 18  1  0
 26 27  1  0
 28 26  2  0
M  END
$$$$
