NFN.pdb
     RDKit          3D

 28 28  0  0  1  0  0  0  0  0999 V2000
   28.8096  -21.3658  -19.6622 N   0  0  0  0  0  0  0  0  0  0  0  0
   27.8097  -22.3680  -19.6355 C   0  0  0  0  0  0  0  0  0  0  0  0
   27.6133  -23.0324  -20.6825 O   0  0  0  0  0  0  0  0  0  0  0  0
   26.9812  -22.6784  -18.4443 C   0  0  0  0  0  0  0  0  0  0  0  0
   27.8629  -22.6179  -17.2029 C   0  0  2  0  0  0  0  0  0  0  0  0
   28.7020  -23.8180  -17.2825 N   0  0  0  0  0  0  0  0  0  0  0  0
   27.0477  -22.7151  -15.9679 C   0  0  0  0  0  0  0  0  0  0  0  0
   26.4781  -23.7856  -15.6260 O   0  0  0  0  0  0  0  0  0  0  0  0
   26.8834  -21.5821  -15.1198 N   0  0  0  0  0  0  0  0  0  0  0  0
   26.0286  -21.6198  -13.9449 C   0  0  1  0  0  0  0  0  0  0  0  0
   26.4410  -20.5760  -12.9353 C   0  0  0  0  0  0  0  0  0  0  0  0
   25.6165  -20.5566  -11.7122 C   0  0  0  0  0  0  0  0  0  0  0  0
   26.1123  -21.1537  -10.5787 C   0  0  0  0  0  0  0  0  0  0  0  0
   25.3706  -21.1545   -9.4207 C   0  0  0  0  0  0  0  0  0  0  0  0
   24.1168  -20.5474   -9.4054 C   0  0  0  0  0  0  0  0  0  0  0  0
   23.6065  -19.9453  -10.5326 C   0  0  0  0  0  0  0  0  0  0  0  0
   24.3518  -19.9469  -11.6887 C   0  0  0  0  0  0  0  0  0  0  0  0
   24.5970  -21.5626  -14.3224 C   0  0  0  0  0  0  0  0  0  0  0  0
   24.2067  -20.6610  -15.0975 O   0  0  0  0  0  0  0  0  0  0  0  0
   23.0073  -25.9466  -15.0441 N   0  0  0  0  0  0  0  0  0  0  0  0
   22.3883  -24.6919  -15.3574 C   0  0  0  0  0  0  0  0  0  0  0  0
   22.4388  -24.2769  -16.5386 O   0  0  0  0  0  0  0  0  0  0  0  0
   21.6999  -23.8835  -14.3365 C   0  0  0  0  0  0  0  0  0  0  0  0
   22.2279  -22.5030  -14.2931 C   0  0  2  0  0  0  0  0  0  0  0  0
   23.6287  -22.4688  -13.8617 N   0  0  0  0  0  0  0  0  0  0  0  0
   21.4758  -21.7395  -13.2300 C   0  0  0  0  0  0  0  0  0  0  0  0
   20.1484  -21.4307  -13.3546 O   0  0  0  0  0  0  0  0  0  0  0  0
   22.0689  -21.3602  -12.1780 O   0  0  0  0  0  0  0  0  0  0  0  0
  2  1  1  0
  2  3  2  0
  4  5  1  0
  4  2  1  0
  5  7  1  0
  5  6  1  6
  7  8  2  0
  9  7  1  0
  9 10  1  0
 11 12  1  0
 10 11  1  1
 12 17  2  0
 13 14  2  0
 13 12  1  0
 14 15  1  0
 15 16  2  0
 17 16  1  0
 18 10  1  0
 18 19  2  0
 20 21  1  0
 21 23  1  0
 21 22  2  0
 24 23  1  1
 24 25  1  0
 24 26  1  0
 25 18  1  0
 26 27  1  0
 28 26  2  0
M  END
$$$$
