NFN.pdb
     RDKit          3D

 28 28  0  0  1  0  0  0  0  0999 V2000
   18.6137  -23.2003  -12.0964 N   0  0  0  0  0  0  0  0  0  0  0  0
   18.5309  -21.9788  -12.8079 C   0  0  0  0  0  0  0  0  0  0  0  0
   17.5069  -21.7706  -13.5036 O   0  0  0  0  0  0  0  0  0  0  0  0
   19.5823  -20.9321  -12.7796 C   0  0  0  0  0  0  0  0  0  0  0  0
   20.6590  -21.3436  -11.7830 C   0  0  2  0  0  0  0  0  0  0  0  0
   20.1005  -21.0058  -10.4697 N   0  0  0  0  0  0  0  0  0  0  0  0
   21.8916  -20.5410  -11.9720 C   0  0  0  0  0  0  0  0  0  0  0  0
   21.9186  -19.2990  -11.7627 O   0  0  0  0  0  0  0  0  0  0  0  0
   23.0992  -21.1625  -12.4027 N   0  0  0  0  0  0  0  0  0  0  0  0
   24.3509  -20.4291  -12.4917 C   0  0  1  0  0  0  0  0  0  0  0  0
   25.4548  -21.1396  -11.7464 C   0  0  0  0  0  0  0  0  0  0  0  0
   25.5056  -20.8353  -10.3038 C   0  0  0  0  0  0  0  0  0  0  0  0
   24.8396  -21.6658   -9.4355 C   0  0  0  0  0  0  0  0  0  0  0  0
   24.8655  -21.4122   -8.0842 C   0  0  0  0  0  0  0  0  0  0  0  0
   25.5698  -20.3104   -7.6037 C   0  0  0  0  0  0  0  0  0  0  0  0
   26.2417  -19.4692   -8.4607 C   0  0  0  0  0  0  0  0  0  0  0  0
   26.2131  -19.7268   -9.8116 C   0  0  0  0  0  0  0  0  0  0  0  0
   24.6830  -20.1060  -13.8990 C   0  0  0  0  0  0  0  0  0  0  0  0
   24.6214  -21.0095  -14.7626 O   0  0  0  0  0  0  0  0  0  0  0  0
   24.7629  -16.3691  -18.2355 N   0  0  0  0  0  0  0  0  0  0  0  0
   25.7917  -16.6132  -17.2672 C   0  0  0  0  0  0  0  0  0  0  0  0
   26.9881  -16.5083  -17.6244 O   0  0  0  0  0  0  0  0  0  0  0  0
   25.4830  -16.9810  -15.8747 C   0  0  0  0  0  0  0  0  0  0  0  0
   25.2352  -18.4325  -15.7409 C   0  0  2  0  0  0  0  0  0  0  0  0
   25.0694  -18.8302  -14.3396 N   0  0  0  0  0  0  0  0  0  0  0  0
   26.4658  -19.1702  -16.2104 C   0  0  0  0  0  0  0  0  0  0  0  0
   26.6334  -19.5548  -17.5130 O   0  0  0  0  0  0  0  0  0  0  0  0
   27.3888  -19.4550  -15.3924 O   0  0  0  0  0  0  0  0  0  0  0  0
  2  1  1  0
  2  3  2  0
  4  5  1  0
  4  2  1  0
  5  7  1  0
  5  6  1  1
  7  8  2  0
  9  7  1  0
  9 10  1  0
 11 12  1  0
 10 11  1  6
 12 17  2  0
 13 14  2  0
 13 12  1  0
 14 15  1  0
 15 16  2  0
 17 16  1  0
 18 10  1  0
 18 19  2  0
 20 21  1  0
 21 23  1  0
 21 22  2  0
 24 23  1  1
 24 25  1  0
 24 26  1  0
 25 18  1  0
 26 27  1  0
 28 26  2  0
M  END
$$$$
