NFN.pdb
     RDKit          3D

 28 28  0  0  1  0  0  0  0  0999 V2000
   25.0898  -21.9226  -19.1495 N   0  0  0  0  0  0  0  0  0  0  0  0
   25.0604  -21.1459  -17.9658 C   0  0  0  0  0  0  0  0  0  0  0  0
   25.3300  -19.9232  -18.0566 O   0  0  0  0  0  0  0  0  0  0  0  0
   24.7303  -21.6920  -16.6262 C   0  0  0  0  0  0  0  0  0  0  0  0
   25.8116  -21.2648  -15.6411 C   0  0  2  0  0  0  0  0  0  0  0  0
   26.9851  -22.0655  -16.0050 N   0  0  0  0  0  0  0  0  0  0  0  0
   25.4335  -21.6192  -14.2516 C   0  0  0  0  0  0  0  0  0  0  0  0
   25.3546  -22.8157  -13.8653 O   0  0  0  0  0  0  0  0  0  0  0  0
   25.1441  -20.5996  -13.2994 N   0  0  0  0  0  0  0  0  0  0  0  0
   24.7953  -20.9107  -11.9232 C   0  0  1  0  0  0  0  0  0  0  0  0
   25.6766  -20.1615  -10.9532 C   0  0  0  0  0  0  0  0  0  0  0  0
   27.1216  -20.3809  -11.1533 C   0  0  0  0  0  0  0  0  0  0  0  0
   27.7615  -19.6697  -12.1392 C   0  0  0  0  0  0  0  0  0  0  0  0
   29.1080  -19.8492  -12.3535 C   0  0  0  0  0  0  0  0  0  0  0  0
   29.8161  -20.7544  -11.5662 C   0  0  0  0  0  0  0  0  0  0  0  0
   29.1893  -21.4742  -10.5749 C   0  0  0  0  0  0  0  0  0  0  0  0
   27.8424  -21.2915  -10.3641 C   0  0  0  0  0  0  0  0  0  0  0  0
   23.3442  -20.7295  -11.6848 C   0  0  0  0  0  0  0  0  0  0  0  0
   22.9111  -20.7589  -10.5111 O   0  0  0  0  0  0  0  0  0  0  0  0
   18.2723  -19.6997  -12.1608 N   0  0  0  0  0  0  0  0  0  0  0  0
   19.0701  -18.8353  -12.9806 C   0  0  0  0  0  0  0  0  0  0  0  0
   18.5112  -17.8758  -13.5612 O   0  0  0  0  0  0  0  0  0  0  0  0
   20.5176  -19.0427  -13.1576 C   0  0  0  0  0  0  0  0  0  0  0  0
   20.9700  -20.2878  -12.5007 C   0  0  2  0  0  0  0  0  0  0  0  0
   22.4026  -20.5224  -12.7053 N   0  0  0  0  0  0  0  0  0  0  0  0
   20.2861  -21.4546  -13.1713 C   0  0  0  0  0  0  0  0  0  0  0  0
   19.2263  -22.1056  -12.6004 O   0  0  0  0  0  0  0  0  0  0  0  0
   20.6863  -21.8649  -14.2998 O   0  0  0  0  0  0  0  0  0  0  0  0
  2  1  1  0
  2  3  2  0
  4  5  1  0
  4  2  1  0
  5  7  1  0
  5  6  1  6
  7  8  2  0
  9  7  1  0
  9 10  1  0
 11 12  1  0
 10 11  1  1
 12 17  2  0
 13 14  2  0
 13 12  1  0
 14 15  1  0
 15 16  2  0
 17 16  1  0
 18 10  1  0
 18 19  2  0
 20 21  1  0
 21 23  1  0
 21 22  2  0
 24 23  1  6
 24 25  1  0
 24 26  1  0
 25 18  1  0
 26 27  1  0
 28 26  2  0
M  END
$$$$
