NFN.pdb
     RDKit          3D

 28 28  0  0  1  0  0  0  0  0999 V2000
   27.7479  -16.3805  -18.9837 N   0  0  0  0  0  0  0  0  0  0  0  0
   26.5791  -17.1135  -19.3029 C   0  0  0  0  0  0  0  0  0  0  0  0
   26.0644  -16.9381  -20.4344 O   0  0  0  0  0  0  0  0  0  0  0  0
   25.9279  -18.0752  -18.3795 C   0  0  0  0  0  0  0  0  0  0  0  0
   26.9714  -19.0734  -17.8931 C   0  0  2  0  0  0  0  0  0  0  0  0
   27.1513  -20.0011  -19.0146 N   0  0  0  0  0  0  0  0  0  0  0  0
   26.4633  -19.8516  -16.7375 C   0  0  0  0  0  0  0  0  0  0  0  0
   25.5918  -20.7517  -16.8696 O   0  0  0  0  0  0  0  0  0  0  0  0
   26.9546  -19.5986  -15.4242 N   0  0  0  0  0  0  0  0  0  0  0  0
   26.2991  -20.1342  -14.2427 C   0  0  1  0  0  0  0  0  0  0  0  0
   27.1006  -19.8478  -12.9960 C   0  0  0  0  0  0  0  0  0  0  0  0
   26.4084  -20.1888  -11.7386 C   0  0  0  0  0  0  0  0  0  0  0  0
   26.1539  -19.1834  -10.8378 C   0  0  0  0  0  0  0  0  0  0  0  0
   25.5106  -19.4653   -9.6555 C   0  0  0  0  0  0  0  0  0  0  0  0
   25.1201  -20.7737   -9.3789 C   0  0  0  0  0  0  0  0  0  0  0  0
   25.3680  -21.7916  -10.2711 C   0  0  0  0  0  0  0  0  0  0  0  0
   26.0117  -21.5050  -11.4524 C   0  0  0  0  0  0  0  0  0  0  0  0
   24.8868  -19.6925  -14.1676 C   0  0  0  0  0  0  0  0  0  0  0  0
   24.6310  -18.4676  -14.1599 O   0  0  0  0  0  0  0  0  0  0  0  0
   19.6924  -19.5594  -13.6989 N   0  0  0  0  0  0  0  0  0  0  0  0
   20.1429  -20.2464  -14.8739 C   0  0  0  0  0  0  0  0  0  0  0  0
   19.3026  -20.5398  -15.7559 O   0  0  0  0  0  0  0  0  0  0  0  0
   21.5556  -20.6140  -15.0712 C   0  0  0  0  0  0  0  0  0  0  0  0
   22.3935  -20.1699  -13.9368 C   0  0  2  0  0  0  0  0  0  0  0  0
   23.7937  -20.5711  -14.1037 N   0  0  0  0  0  0  0  0  0  0  0  0
   21.9296  -20.8889  -12.6931 C   0  0  0  0  0  0  0  0  0  0  0  0
   21.2076  -20.2618  -11.7141 O   0  0  0  0  0  0  0  0  0  0  0  0
   22.2040  -22.1130  -12.5250 O   0  0  0  0  0  0  0  0  0  0  0  0
  2  1  1  0
  2  3  2  0
  4  5  1  0
  4  2  1  0
  5  7  1  0
  5  6  1  6
  7  8  2  0
  9  7  1  0
  9 10  1  0
 11 12  1  0
 10 11  1  1
 12 17  2  0
 13 14  2  0
 13 12  1  0
 14 15  1  0
 15 16  2  0
 17 16  1  0
 18 10  1  0
 18 19  2  0
 20 21  1  0
 21 23  1  0
 21 22  2  0
 24 23  1  6
 24 25  1  0
 24 26  1  0
 25 18  1  0
 26 27  1  0
 28 26  2  0
M  END
$$$$
