NFN.pdb
     RDKit          3D

 28 28  0  0  1  0  0  0  0  0999 V2000
   21.1549   -7.6714  -21.1983 N   0  0  0  0  0  0  0  0  0  0  0  0
   19.9003   -7.6354  -20.5426 C   0  0  0  0  0  0  0  0  0  0  0  0
   18.8653   -7.6032  -21.2523 O   0  0  0  0  0  0  0  0  0  0  0  0
   19.7376   -7.6334  -19.0677 C   0  0  0  0  0  0  0  0  0  0  0  0
   21.1166   -7.6777  -18.4209 C   0  0  2  0  0  0  0  0  0  0  0  0
   21.5002   -9.0927  -18.4568 N   0  0  0  0  0  0  0  0  0  0  0  0
   21.0494   -7.2616  -16.9991 C   0  0  0  0  0  0  0  0  0  0  0  0
   20.3466   -7.8787  -16.1550 O   0  0  0  0  0  0  0  0  0  0  0  0
   21.7899   -6.1340  -16.5407 N   0  0  0  0  0  0  0  0  0  0  0  0
   21.7191   -5.6774  -15.1627 C   0  0  1  0  0  0  0  0  0  0  0  0
   23.0440   -5.8518  -14.4604 C   0  0  0  0  0  0  0  0  0  0  0  0
   23.5696   -7.2298  -14.4910 C   0  0  0  0  0  0  0  0  0  0  0  0
   23.0425   -8.1512  -13.6190 C   0  0  0  0  0  0  0  0  0  0  0  0
   23.5089   -9.4449  -13.6201 C   0  0  0  0  0  0  0  0  0  0  0  0
   24.5164   -9.8131  -14.5089 C   0  0  0  0  0  0  0  0  0  0  0  0
   25.0545   -8.9017  -15.3883 C   0  0  0  0  0  0  0  0  0  0  0  0
   24.5850   -7.6088  -15.3838 C   0  0  0  0  0  0  0  0  0  0  0  0
   21.1685   -4.3043  -15.0814 C   0  0  0  0  0  0  0  0  0  0  0  0
   21.9026   -3.3349  -15.3768 O   0  0  0  0  0  0  0  0  0  0  0  0
   17.7930   -0.5133  -15.9304 N   0  0  0  0  0  0  0  0  0  0  0  0
   18.5187   -1.2914  -16.8914 C   0  0  0  0  0  0  0  0  0  0  0  0
   18.5566   -0.8937  -18.0791 O   0  0  0  0  0  0  0  0  0  0  0  0
   19.2157   -2.5359  -16.5237 C   0  0  0  0  0  0  0  0  0  0  0  0
   19.1021   -2.8118  -15.0755 C   0  0  2  0  0  0  0  0  0  0  0  0
   19.8533   -4.0097  -14.6884 N   0  0  0  0  0  0  0  0  0  0  0  0
   17.6616   -3.1402  -14.7657 C   0  0  0  0  0  0  0  0  0  0  0  0
   16.9001   -2.3675  -13.9315 O   0  0  0  0  0  0  0  0  0  0  0  0
   17.1152   -4.1587  -15.2815 O   0  0  0  0  0  0  0  0  0  0  0  0
  2  1  1  0
  2  3  2  0
  4  5  1  0
  4  2  1  0
  5  7  1  0
  5  6  1  1
  7  8  2  0
  9  7  1  0
  9 10  1  0
 11 12  1  0
 10 11  1  6
 12 17  2  0
 13 14  2  0
 13 12  1  0
 14 15  1  0
 15 16  2  0
 17 16  1  0
 18 10  1  0
 18 19  2  0
 20 21  1  0
 21 23  1  0
 21 22  2  0
 24 23  1  6
 24 25  1  0
 24 26  1  0
 25 18  1  0
 26 27  1  0
 28 26  2  0
M  END
$$$$
