NFN.pdb
     RDKit          3D

 28 28  0  0  1  0  0  0  0  0999 V2000
   21.5848   -9.6800  -21.6614 N   0  0  0  0  0  0  0  0  0  0  0  0
   20.3426   -9.5650  -20.9915 C   0  0  0  0  0  0  0  0  0  0  0  0
   19.3088   -9.9364  -21.5992 O   0  0  0  0  0  0  0  0  0  0  0  0
   20.1913   -9.0315  -19.6151 C   0  0  0  0  0  0  0  0  0  0  0  0
   21.3358   -9.5554  -18.7563 C   0  0  2  0  0  0  0  0  0  0  0  0
   20.9831  -10.9510  -18.4758 N   0  0  0  0  0  0  0  0  0  0  0  0
   21.4007   -8.8348  -17.4618 C   0  0  0  0  0  0  0  0  0  0  0  0
   20.6497   -9.1304  -16.4943 O   0  0  0  0  0  0  0  0  0  0  0  0
   22.3292   -7.7707  -17.2732 N   0  0  0  0  0  0  0  0  0  0  0  0
   22.3977   -7.0228  -16.0288 C   0  0  1  0  0  0  0  0  0  0  0  0
   23.7297   -7.2187  -15.3460 C   0  0  0  0  0  0  0  0  0  0  0  0
   24.0317   -8.6198  -14.9969 C   0  0  0  0  0  0  0  0  0  0  0  0
   23.3308   -9.2045  -13.9703 C   0  0  0  0  0  0  0  0  0  0  0  0
   23.5865  -10.5090  -13.6179 C   0  0  0  0  0  0  0  0  0  0  0  0
   24.5583  -11.2308  -14.3073 C   0  0  0  0  0  0  0  0  0  0  0  0
   25.2688  -10.6590  -15.3378 C   0  0  0  0  0  0  0  0  0  0  0  0
   25.0098   -9.3541  -15.6869 C   0  0  0  0  0  0  0  0  0  0  0  0
   22.0285   -5.6030  -16.2367 C   0  0  0  0  0  0  0  0  0  0  0  0
   22.7843   -4.8694  -16.9123 O   0  0  0  0  0  0  0  0  0  0  0  0
   19.5329   -1.0372  -16.3801 N   0  0  0  0  0  0  0  0  0  0  0  0
   18.6067   -2.1260  -16.4915 C   0  0  0  0  0  0  0  0  0  0  0  0
   17.4180   -1.8731  -16.7965 O   0  0  0  0  0  0  0  0  0  0  0  0
   19.0112   -3.5232  -16.2589 C   0  0  0  0  0  0  0  0  0  0  0  0
   20.4511   -3.6231  -15.9376 C   0  0  2  0  0  0  0  0  0  0  0  0
   20.8653   -5.0121  -15.7180 N   0  0  0  0  0  0  0  0  0  0  0  0
   20.6925   -2.9329  -14.6169 C   0  0  0  0  0  0  0  0  0  0  0  0
   20.5208   -3.5704  -13.4182 O   0  0  0  0  0  0  0  0  0  0  0  0
   21.0667   -1.7240  -14.5888 O   0  0  0  0  0  0  0  0  0  0  0  0
  2  1  1  0
  2  3  2  0
  4  5  1  0
  4  2  1  0
  5  7  1  0
  5  6  1  1
  7  8  2  0
  9  7  1  0
  9 10  1  0
 11 12  1  0
 10 11  1  6
 12 17  2  0
 13 14  2  0
 13 12  1  0
 14 15  1  0
 15 16  2  0
 17 16  1  0
 18 10  1  0
 18 19  2  0
 20 21  1  0
 21 23  1  0
 21 22  2  0
 24 23  1  1
 24 25  1  0
 24 26  1  0
 25 18  1  0
 26 27  1  0
 28 26  2  0
M  END
$$$$
