NFN.pdb
     RDKit          3D

 28 28  0  0  1  0  0  0  0  0999 V2000
   22.7786  -22.5456   -6.8619 N   0  0  0  0  0  0  0  0  0  0  0  0
   21.8977  -22.3011   -7.9433 C   0  0  0  0  0  0  0  0  0  0  0  0
   20.7646  -22.8407   -7.9137 O   0  0  0  0  0  0  0  0  0  0  0  0
   22.2352  -21.4460   -9.1081 C   0  0  0  0  0  0  0  0  0  0  0  0
   23.7135  -21.0831   -9.0396 C   0  0  2  0  0  0  0  0  0  0  0  0
   23.8335  -20.2295   -7.8532 N   0  0  0  0  0  0  0  0  0  0  0  0
   24.1180  -20.2803  -10.2191 C   0  0  0  0  0  0  0  0  0  0  0  0
   23.6352  -19.1394  -10.4479 O   0  0  0  0  0  0  0  0  0  0  0  0
   25.0795  -20.7853  -11.1413 N   0  0  0  0  0  0  0  0  0  0  0  0
   25.4884  -20.0310  -12.3144 C   0  0  1  0  0  0  0  0  0  0  0  0
   26.9891  -20.0437  -12.4766 C   0  0  0  0  0  0  0  0  0  0  0  0
   27.4719  -19.3815  -13.7033 C   0  0  0  0  0  0  0  0  0  0  0  0
   28.1289  -20.1399  -14.6416 C   0  0  0  0  0  0  0  0  0  0  0  0
   28.5926  -19.5554  -15.7968 C   0  0  0  0  0  0  0  0  0  0  0  0
   28.3919  -18.1931  -16.0079 C   0  0  0  0  0  0  0  0  0  0  0  0
   27.7358  -17.4201  -15.0775 C   0  0  0  0  0  0  0  0  0  0  0  0
   27.2737  -18.0089  -13.9235 C   0  0  0  0  0  0  0  0  0  0  0  0
   24.7469  -20.4715  -13.5192 C   0  0  0  0  0  0  0  0  0  0  0  0
   24.4564  -21.6819  -13.6473 O   0  0  0  0  0  0  0  0  0  0  0  0
   20.9346  -21.3292  -16.0552 N   0  0  0  0  0  0  0  0  0  0  0  0
   20.7975  -20.3620  -15.0058 C   0  0  0  0  0  0  0  0  0  0  0  0
   19.6984  -20.2753  -14.4103 O   0  0  0  0  0  0  0  0  0  0  0  0
   21.9048  -19.4742  -14.6115 C   0  0  0  0  0  0  0  0  0  0  0  0
   23.1374  -19.7773  -15.3700 C   0  0  2  0  0  0  0  0  0  0  0  0
   24.3390  -19.6071  -14.5475 N   0  0  0  0  0  0  0  0  0  0  0  0
   23.2771  -18.7597  -16.4762 C   0  0  0  0  0  0  0  0  0  0  0  0
   23.2606  -19.1123  -17.7984 O   0  0  0  0  0  0  0  0  0  0  0  0
   23.4156  -17.5324  -16.1993 O   0  0  0  0  0  0  0  0  0  0  0  0
  2  1  1  0
  2  3  2  0
  4  5  1  0
  4  2  1  0
  5  7  1  0
  5  6  1  1
  7  8  2  0
  9  7  1  0
  9 10  1  0
 11 12  1  0
 10 11  1  6
 12 17  2  0
 13 14  2  0
 13 12  1  0
 14 15  1  0
 15 16  2  0
 17 16  1  0
 18 10  1  0
 18 19  2  0
 20 21  1  0
 21 23  1  0
 21 22  2  0
 24 23  1  1
 24 25  1  0
 24 26  1  0
 25 18  1  0
 26 27  1  0
 28 26  2  0
M  END
$$$$
