NFN.pdb
     RDKit          3D

 28 28  0  0  1  0  0  0  0  0999 V2000
   26.2162  -21.4523  -19.8676 N   0  0  0  0  0  0  0  0  0  0  0  0
   25.7777  -20.8633  -18.6569 C   0  0  0  0  0  0  0  0  0  0  0  0
   25.5490  -19.6289  -18.6512 O   0  0  0  0  0  0  0  0  0  0  0  0
   25.5732  -21.6185  -17.3961 C   0  0  0  0  0  0  0  0  0  0  0  0
   26.1772  -20.8247  -16.2441 C   0  0  2  0  0  0  0  0  0  0  0  0
   27.6054  -21.1567  -16.2707 N   0  0  0  0  0  0  0  0  0  0  0  0
   25.6299  -21.2784  -14.9426 C   0  0  0  0  0  0  0  0  0  0  0  0
   25.5043  -22.4997  -14.6601 O   0  0  0  0  0  0  0  0  0  0  0  0
   25.2241  -20.3302  -13.9597 N   0  0  0  0  0  0  0  0  0  0  0  0
   24.6488  -20.7395  -12.6893 C   0  0  1  0  0  0  0  0  0  0  0  0
   25.3922  -20.1235  -11.5288 C   0  0  0  0  0  0  0  0  0  0  0  0
   26.8427  -20.3924  -11.5268 C   0  0  0  0  0  0  0  0  0  0  0  0
   27.3287  -21.3571  -10.6781 C   0  0  0  0  0  0  0  0  0  0  0  0
   28.6754  -21.6338  -10.6498 C   0  0  0  0  0  0  0  0  0  0  0  0
   29.5406  -20.9309  -11.4854 C   0  0  0  0  0  0  0  0  0  0  0  0
   29.0691  -19.9616  -12.3409 C   0  0  0  0  0  0  0  0  0  0  0  0
   27.7213  -19.6882  -12.3658 C   0  0  0  0  0  0  0  0  0  0  0  0
   23.1862  -20.5036  -12.6633 C   0  0  0  0  0  0  0  0  0  0  0  0
   22.7594  -19.3445  -12.4624 O   0  0  0  0  0  0  0  0  0  0  0  0
   18.2368  -19.4569  -13.4221 N   0  0  0  0  0  0  0  0  0  0  0  0
   18.9666  -20.3441  -14.2800 C   0  0  0  0  0  0  0  0  0  0  0  0
   18.3376  -20.9855  -15.1535 O   0  0  0  0  0  0  0  0  0  0  0  0
   20.4243  -20.5208  -14.1635 C   0  0  0  0  0  0  0  0  0  0  0  0
   20.7805  -21.2942  -12.9546 C   0  0  2  0  0  0  0  0  0  0  0  0
   22.2268  -21.5109  -12.8528 N   0  0  0  0  0  0  0  0  0  0  0  0
   20.1892  -22.6772  -13.0838 C   0  0  0  0  0  0  0  0  0  0  0  0
   20.7614  -23.6456  -13.8633 O   0  0  0  0  0  0  0  0  0  0  0  0
   19.1291  -22.9776  -12.4609 O   0  0  0  0  0  0  0  0  0  0  0  0
  2  1  1  0
  2  3  2  0
  4  5  1  0
  4  2  1  0
  5  7  1  0
  5  6  1  1
  7  8  2  0
  9  7  1  0
  9 10  1  0
 11 12  1  0
 10 11  1  1
 12 17  2  0
 13 14  2  0
 13 12  1  0
 14 15  1  0
 15 16  2  0
 17 16  1  0
 18 10  1  0
 18 19  2  0
 20 21  1  0
 21 23  1  0
 21 22  2  0
 24 23  1  6
 24 25  1  0
 24 26  1  0
 25 18  1  0
 26 27  1  0
 28 26  2  0
M  END
$$$$
