NFN.pdb
     RDKit          3D

 28 28  0  0  1  0  0  0  0  0999 V2000
   28.5923  -21.5708  -19.7648 N   0  0  0  0  0  0  0  0  0  0  0  0
   29.1381  -22.3594  -18.7230 C   0  0  0  0  0  0  0  0  0  0  0  0
   30.3197  -22.7646  -18.8482 O   0  0  0  0  0  0  0  0  0  0  0  0
   28.3963  -22.7348  -17.4940 C   0  0  0  0  0  0  0  0  0  0  0  0
   27.5106  -21.5665  -17.0783 C   0  0  2  0  0  0  0  0  0  0  0  0
   28.4343  -20.4401  -16.9085 N   0  0  0  0  0  0  0  0  0  0  0  0
   26.8680  -21.8280  -15.7676 C   0  0  0  0  0  0  0  0  0  0  0  0
   26.0506  -22.7721  -15.6009 O   0  0  0  0  0  0  0  0  0  0  0  0
   27.1620  -21.0053  -14.6421 N   0  0  0  0  0  0  0  0  0  0  0  0
   26.4012  -21.0935  -13.4068 C   0  0  1  0  0  0  0  0  0  0  0  0
   27.2211  -20.6328  -12.2260 C   0  0  0  0  0  0  0  0  0  0  0  0
   26.4664  -20.5446  -10.9615 C   0  0  0  0  0  0  0  0  0  0  0  0
   26.2122  -19.3010  -10.4360 C   0  0  0  0  0  0  0  0  0  0  0  0
   25.5116  -19.1815   -9.2587 C   0  0  0  0  0  0  0  0  0  0  0  0
   25.0629  -20.3270   -8.6050 C   0  0  0  0  0  0  0  0  0  0  0  0
   25.3096  -21.5795   -9.1187 C   0  0  0  0  0  0  0  0  0  0  0  0
   26.0108  -21.6943  -10.2965 C   0  0  0  0  0  0  0  0  0  0  0  0
   25.0914  -20.4130  -13.5351 C   0  0  0  0  0  0  0  0  0  0  0  0
   25.0610  -19.2082  -13.8720 O   0  0  0  0  0  0  0  0  0  0  0  0
   19.4321  -20.6258  -15.4763 N   0  0  0  0  0  0  0  0  0  0  0  0
   20.5205  -20.0895  -14.7125 C   0  0  0  0  0  0  0  0  0  0  0  0
   20.3530  -19.0028  -14.1116 O   0  0  0  0  0  0  0  0  0  0  0  0
   21.8203  -20.7757  -14.6157 C   0  0  0  0  0  0  0  0  0  0  0  0
   22.5467  -20.3875  -13.3877 C   0  0  2  0  0  0  0  0  0  0  0  0
   23.8570  -21.0393  -13.3006 N   0  0  0  0  0  0  0  0  0  0  0  0
   21.7765  -20.9039  -12.1965 C   0  0  0  0  0  0  0  0  0  0  0  0
   21.0896  -20.0715  -11.3550 O   0  0  0  0  0  0  0  0  0  0  0  0
   21.7487  -22.1440  -11.9446 O   0  0  0  0  0  0  0  0  0  0  0  0
  2  1  1  0
  2  3  2  0
  4  5  1  0
  4  2  1  0
  5  7  1  0
  5  6  1  1
  7  8  2  0
  9  7  1  0
  9 10  1  0
 11 12  1  0
 10 11  1  1
 12 17  2  0
 13 14  2  0
 13 12  1  0
 14 15  1  0
 15 16  2  0
 17 16  1  0
 18 10  1  0
 18 19  2  0
 20 21  1  0
 21 23  1  0
 21 22  2  0
 24 23  1  6
 24 25  1  0
 24 26  1  0
 25 18  1  0
 26 27  1  0
 28 26  2  0
M  END
$$$$
