NFN.pdb
     RDKit          3D

 28 28  0  0  1  0  0  0  0  0999 V2000
   22.9607  -14.8077  -19.1743 N   0  0  0  0  0  0  0  0  0  0  0  0
   21.5924  -14.5498  -18.9165 C   0  0  0  0  0  0  0  0  0  0  0  0
   20.7391  -15.1220  -19.6379 O   0  0  0  0  0  0  0  0  0  0  0  0
   21.1088  -13.6440  -17.8454 C   0  0  0  0  0  0  0  0  0  0  0  0
   22.3119  -13.0179  -17.1507 C   0  0  2  0  0  0  0  0  0  0  0  0
   22.8247  -14.0725  -16.2700 N   0  0  0  0  0  0  0  0  0  0  0  0
   21.8982  -11.8766  -16.2989 C   0  0  0  0  0  0  0  0  0  0  0  0
   20.9650  -11.9745  -15.4582 O   0  0  0  0  0  0  0  0  0  0  0  0
   22.5552  -10.6173  -16.4095 N   0  0  0  0  0  0  0  0  0  0  0  0
   22.1558   -9.4700  -15.6115 C   0  0  1  0  0  0  0  0  0  0  0  0
   23.3538   -8.6540  -15.1897 C   0  0  0  0  0  0  0  0  0  0  0  0
   23.0175   -7.3470  -14.5939 C   0  0  0  0  0  0  0  0  0  0  0  0
   23.2390   -6.2125  -15.3362 C   0  0  0  0  0  0  0  0  0  0  0  0
   22.9373   -4.9775  -14.8121 C   0  0  0  0  0  0  0  0  0  0  0  0
   22.4071   -4.8854  -13.5272 C   0  0  0  0  0  0  0  0  0  0  0  0
   22.1797   -6.0125  -12.7712 C   0  0  0  0  0  0  0  0  0  0  0  0
   22.4829   -7.2458  -13.2994 C   0  0  0  0  0  0  0  0  0  0  0  0
   21.1001   -8.6852  -16.2933 C   0  0  0  0  0  0  0  0  0  0  0  0
   21.2067   -8.4561  -17.5189 O   0  0  0  0  0  0  0  0  0  0  0  0
   17.5569   -7.7662  -18.7151 N   0  0  0  0  0  0  0  0  0  0  0  0
   16.9546   -8.2787  -17.5192 C   0  0  0  0  0  0  0  0  0  0  0  0
   15.8530   -8.8692  -17.6084 O   0  0  0  0  0  0  0  0  0  0  0  0
   17.5903   -8.1312  -16.1987 C   0  0  0  0  0  0  0  0  0  0  0  0
   18.8850   -7.4239  -16.2977 C   0  0  2  0  0  0  0  0  0  0  0  0
   19.9653   -8.1709  -15.6463 N   0  0  0  0  0  0  0  0  0  0  0  0
   18.7825   -6.1336  -15.5209 C   0  0  0  0  0  0  0  0  0  0  0  0
   18.5790   -6.1106  -14.1678 O   0  0  0  0  0  0  0  0  0  0  0  0
   18.8844   -5.0214  -16.1166 O   0  0  0  0  0  0  0  0  0  0  0  0
  2  1  1  0
  2  3  2  0
  4  5  1  0
  4  2  1  0
  5  7  1  0
  5  6  1  1
  7  8  2  0
  9  7  1  0
  9 10  1  0
 11 12  1  0
 10 11  1  6
 12 17  2  0
 13 14  2  0
 13 12  1  0
 14 15  1  0
 15 16  2  0
 17 16  1  0
 18 10  1  0
 18 19  2  0
 20 21  1  0
 21 23  1  0
 21 22  2  0
 24 23  1  1
 24 25  1  0
 24 26  1  0
 25 18  1  0
 26 27  1  0
 28 26  2  0
M  END
$$$$
