NFN.pdb
     RDKit          3D

 28 28  0  0  1  0  0  0  0  0999 V2000
   29.1561  -21.1617  -16.9314 N   0  0  0  0  0  0  0  0  0  0  0  0
   28.5986  -20.4147  -15.8654 C   0  0  0  0  0  0  0  0  0  0  0  0
   29.0106  -19.2420  -15.6892 O   0  0  0  0  0  0  0  0  0  0  0  0
   27.5576  -20.9361  -14.9455 C   0  0  0  0  0  0  0  0  0  0  0  0
   28.0177  -20.7193  -13.5091 C   0  0  2  0  0  0  0  0  0  0  0  0
   29.1291  -21.6586  -13.3275 N   0  0  0  0  0  0  0  0  0  0  0  0
   26.9499  -21.0885  -12.5485 C   0  0  0  0  0  0  0  0  0  0  0  0
   26.3707  -22.2066  -12.5909 O   0  0  0  0  0  0  0  0  0  0  0  0
   26.5426  -20.1742  -11.5346 N   0  0  0  0  0  0  0  0  0  0  0  0
   25.3251  -20.3722  -10.7660 C   0  0  1  0  0  0  0  0  0  0  0  0
   25.3241  -19.5259   -9.5159 C   0  0  0  0  0  0  0  0  0  0  0  0
   26.3744  -19.8810   -8.5427 C   0  0  0  0  0  0  0  0  0  0  0  0
   27.5878  -19.2423   -8.6266 C   0  0  0  0  0  0  0  0  0  0  0  0
   28.5897  -19.5486   -7.7358 C   0  0  0  0  0  0  0  0  0  0  0  0
   28.3659  -20.5081   -6.7509 C   0  0  0  0  0  0  0  0  0  0  0  0
   27.1561  -21.1565   -6.6541 C   0  0  0  0  0  0  0  0  0  0  0  0
   26.1568  -20.8470   -7.5472 C   0  0  0  0  0  0  0  0  0  0  0  0
   24.1226  -20.1983  -11.6140 C   0  0  0  0  0  0  0  0  0  0  0  0
   24.1344  -19.3335  -12.5183 O   0  0  0  0  0  0  0  0  0  0  0  0
   20.8843  -21.6388  -15.5397 N   0  0  0  0  0  0  0  0  0  0  0  0
   20.8592  -22.3046  -14.2702 C   0  0  0  0  0  0  0  0  0  0  0  0
   19.8487  -22.9811  -13.9680 O   0  0  0  0  0  0  0  0  0  0  0  0
   21.9801  -22.2157  -13.3187 C   0  0  0  0  0  0  0  0  0  0  0  0
   21.8611  -21.0231  -12.4527 C   0  0  2  0  0  0  0  0  0  0  0  0
   22.9471  -20.9525  -11.4703 N   0  0  0  0  0  0  0  0  0  0  0  0
   20.6023  -21.1565  -11.6303 C   0  0  0  0  0  0  0  0  0  0  0  0
   19.4639  -20.4541  -11.9194 O   0  0  0  0  0  0  0  0  0  0  0  0
   20.5715  -21.9372  -10.6344 O   0  0  0  0  0  0  0  0  0  0  0  0
  2  1  1  0
  2  3  2  0
  4  5  1  0
  4  2  1  0
  5  7  1  0
  5  6  1  1
  7  8  2  0
  9  7  1  0
  9 10  1  0
 11 12  1  0
 10 11  1  1
 12 17  2  0
 13 14  2  0
 13 12  1  0
 14 15  1  0
 15 16  2  0
 17 16  1  0
 18 10  1  0
 18 19  2  0
 20 21  1  0
 21 23  1  0
 21 22  2  0
 24 23  1  6
 24 25  1  0
 24 26  1  0
 25 18  1  0
 26 27  1  0
 28 26  2  0
M  END
$$$$
