NFN.pdb
     RDKit          3D

 28 28  0  0  1  0  0  0  0  0999 V2000
   27.7512  -20.2143  -20.0706 N   0  0  0  0  0  0  0  0  0  0  0  0
   27.2217  -19.8250  -18.8163 C   0  0  0  0  0  0  0  0  0  0  0  0
   27.4958  -18.6756  -18.3922 O   0  0  0  0  0  0  0  0  0  0  0  0
   26.3634  -20.6950  -17.9747 C   0  0  0  0  0  0  0  0  0  0  0  0
   27.2547  -21.6193  -17.1543 C   0  0  2  0  0  0  0  0  0  0  0  0
   27.3298  -22.8569  -17.9375 N   0  0  0  0  0  0  0  0  0  0  0  0
   26.6255  -21.9443  -15.8513 C   0  0  0  0  0  0  0  0  0  0  0  0
   26.1093  -23.0702  -15.6212 O   0  0  0  0  0  0  0  0  0  0  0  0
   26.5866  -20.9763  -14.8066 N   0  0  0  0  0  0  0  0  0  0  0  0
   26.0683  -21.2922  -13.4860 C   0  0  1  0  0  0  0  0  0  0  0  0
   26.5750  -20.3160  -12.4521 C   0  0  0  0  0  0  0  0  0  0  0  0
   26.0412  -20.5387  -11.0950 C   0  0  0  0  0  0  0  0  0  0  0  0
   24.7413  -20.1781  -10.8353 C   0  0  0  0  0  0  0  0  0  0  0  0
   24.2110  -20.3713   -9.5814 C   0  0  0  0  0  0  0  0  0  0  0  0
   24.9989  -20.9336   -8.5795 C   0  0  0  0  0  0  0  0  0  0  0  0
   26.3026  -21.2998   -8.8240 C   0  0  0  0  0  0  0  0  0  0  0  0
   26.8290  -21.1048  -10.0797 C   0  0  0  0  0  0  0  0  0  0  0  0
   24.5937  -21.4353  -13.5099 C   0  0  0  0  0  0  0  0  0  0  0  0
   24.0153  -21.9491  -12.5264 O   0  0  0  0  0  0  0  0  0  0  0  0
   19.9519  -21.9118  -13.4785 N   0  0  0  0  0  0  0  0  0  0  0  0
   20.6023  -20.8152  -12.8227 C   0  0  0  0  0  0  0  0  0  0  0  0
   20.0922  -20.3558  -11.7745 O   0  0  0  0  0  0  0  0  0  0  0  0
   21.8443  -20.2185  -13.3435 C   0  0  0  0  0  0  0  0  0  0  0  0
   22.3218  -20.9291  -14.5490 C   0  0  2  0  0  0  0  0  0  0  0  0
   23.7843  -21.0255  -14.5813 N   0  0  0  0  0  0  0  0  0  0  0  0
   21.9605  -20.1048  -15.7610 C   0  0  0  0  0  0  0  0  0  0  0  0
   20.7362  -20.1945  -16.3660 O   0  0  0  0  0  0  0  0  0  0  0  0
   22.7996  -19.2959  -16.2546 O   0  0  0  0  0  0  0  0  0  0  0  0
  2  1  1  0
  2  3  2  0
  4  5  1  0
  4  2  1  0
  5  7  1  0
  5  6  1  6
  7  8  2  0
  9  7  1  0
  9 10  1  0
 11 12  1  0
 10 11  1  1
 12 17  2  0
 13 14  2  0
 13 12  1  0
 14 15  1  0
 15 16  2  0
 17 16  1  0
 18 10  1  0
 18 19  2  0
 20 21  1  0
 21 23  1  0
 21 22  2  0
 24 23  1  1
 24 25  1  0
 24 26  1  0
 25 18  1  0
 26 27  1  0
 28 26  2  0
M  END
$$$$
