NFN.pdb
     RDKit          3D

 28 28  0  0  1  0  0  0  0  0999 V2000
   28.0519  -17.3795  -15.2796 N   0  0  0  0  0  0  0  0  0  0  0  0
   28.1504  -18.7454  -15.6398 C   0  0  0  0  0  0  0  0  0  0  0  0
   28.9182  -19.0515  -16.5847 O   0  0  0  0  0  0  0  0  0  0  0  0
   27.4001  -19.8346  -14.9671 C   0  0  0  0  0  0  0  0  0  0  0  0
   28.0338  -20.1007  -13.6071 C   0  0  2  0  0  0  0  0  0  0  0  0
   29.0408  -21.1362  -13.8610 N   0  0  0  0  0  0  0  0  0  0  0  0
   27.0394  -20.6577  -12.6583 C   0  0  0  0  0  0  0  0  0  0  0  0
   26.5702  -21.8197  -12.7881 O   0  0  0  0  0  0  0  0  0  0  0  0
   26.5795  -19.8815  -11.5556 N   0  0  0  0  0  0  0  0  0  0  0  0
   25.4417  -20.2913  -10.7494 C   0  0  1  0  0  0  0  0  0  0  0  0
   25.3450  -19.4730   -9.4846 C   0  0  0  0  0  0  0  0  0  0  0  0
   26.3591  -19.8078   -8.4669 C   0  0  0  0  0  0  0  0  0  0  0  0
   27.6052  -19.2391   -8.5723 C   0  0  0  0  0  0  0  0  0  0  0  0
   28.5749  -19.5290   -7.6413 C   0  0  0  0  0  0  0  0  0  0  0  0
   28.2854  -20.4007   -6.5939 C   0  0  0  0  0  0  0  0  0  0  0  0
   27.0421  -20.9784   -6.4748 C   0  0  0  0  0  0  0  0  0  0  0  0
   26.0752  -20.6856   -7.4083 C   0  0  0  0  0  0  0  0  0  0  0  0
   24.1966  -20.3119  -11.5522 C   0  0  0  0  0  0  0  0  0  0  0  0
   23.9704  -19.3748  -12.3501 O   0  0  0  0  0  0  0  0  0  0  0  0
   20.0811  -22.1428  -14.2031 N   0  0  0  0  0  0  0  0  0  0  0  0
   21.0013  -23.1833  -13.8478 C   0  0  0  0  0  0  0  0  0  0  0  0
   20.8674  -24.3096  -14.3805 O   0  0  0  0  0  0  0  0  0  0  0  0
   22.0913  -22.9664  -12.8812 C   0  0  0  0  0  0  0  0  0  0  0  0
   22.1599  -21.5532  -12.4514 C   0  0  2  0  0  0  0  0  0  0  0  0
   23.2338  -21.3310  -11.4785 N   0  0  0  0  0  0  0  0  0  0  0  0
   20.8885  -21.2200  -11.7088 C   0  0  0  0  0  0  0  0  0  0  0  0
   20.8919  -20.8129  -10.4023 O   0  0  0  0  0  0  0  0  0  0  0  0
   19.7681  -21.3118  -12.2906 O   0  0  0  0  0  0  0  0  0  0  0  0
  2  1  1  0
  2  3  2  0
  4  5  1  0
  4  2  1  0
  5  7  1  0
  5  6  1  6
  7  8  2  0
  9  7  1  0
  9 10  1  0
 11 12  1  0
 10 11  1  1
 12 17  2  0
 13 14  2  0
 13 12  1  0
 14 15  1  0
 15 16  2  0
 17 16  1  0
 18 10  1  0
 18 19  2  0
 20 21  1  0
 21 23  1  0
 21 22  2  0
 24 23  1  1
 24 25  1  0
 24 26  1  0
 25 18  1  0
 26 27  1  0
 28 26  2  0
M  END
$$$$
