LEC.pdb
     RDKit          3D

 24 23  0  0  1  0  0  0  0  0999 V2000
    7.9649  -13.1907   17.1395 C   0  0  0  0  0  0  0  0  0  0  0  0
    7.3869  -13.2544   18.5378 C   0  0  2  0  0  0  0  0  0  0  0  0
    7.8771  -12.0807   19.3445 C   0  0  0  0  0  0  0  0  0  0  0  0
    7.6939  -14.5722   19.1943 C   0  0  0  0  0  0  0  0  0  0  0  0
    9.1124  -14.6245   19.6638 C   0  0  2  0  0  0  0  0  0  0  0  0
   10.0616  -14.8924   18.6293 N   0  0  0  0  0  0  0  0  0  0  0  0
    9.2152  -15.5996   20.8161 C   0  0  0  0  0  0  0  0  0  0  0  0
    8.3000  -15.5250   21.6687 O   0  0  0  0  0  0  0  0  0  0  0  0
   10.2526  -16.5166   20.9242 N   0  0  0  0  0  0  0  0  0  0  0  0
   10.3654  -17.4624   21.9963 C   0  0  1  0  0  0  0  0  0  0  0  0
   11.3288  -18.5987   21.7481 C   0  0  0  0  0  0  0  0  0  0  0  0
   11.0018  -19.4636   20.5734 C   0  0  0  0  0  0  0  0  0  0  0  0
   12.1592  -20.1760   19.9853 C   0  0  0  0  0  0  0  0  0  0  0  0
   12.1857  -20.5466   18.8023 O   0  0  0  0  0  0  0  0  0  0  0  0
   10.6562  -16.7571   23.2538 C   0  0  0  0  0  0  0  0  0  0  0  0
   11.7194  -16.1107   23.4593 O   0  0  0  0  0  0  0  0  0  0  0  0
   13.2646  -20.4457   20.7800 O   0  0  0  0  0  0  0  0  0  0  0  0
    9.7072  -16.7787   24.3308 N   0  0  0  0  0  0  0  0  0  0  0  0
    9.9857  -16.2473   25.6329 C   0  0  1  0  0  0  0  0  0  0  0  0
    8.6431  -15.7686   26.1995 C   0  0  0  0  0  0  0  0  0  0  0  0
    7.9639  -14.4261   25.1895 S   0  0  0  0  0  0  0  0  0  0  0  0
   10.4388  -17.3386   26.5234 C   0  0  0  0  0  0  0  0  0  0  0  0
   10.7777  -17.0541   27.8360 O   0  0  0  0  0  0  0  0  0  0  0  0
   10.5341  -18.5399   26.1397 O   0  0  0  0  0  0  0  0  0  0  0  0
  2  1  1  6
  3  2  1  0
  4  5  1  0
  4  2  1  0
  5  6  1  6
  7  5  1  0
  7  8  2  0
  9  7  1  0
 10  9  1  0
 11 12  1  0
 10 11  1  6
 12 13  1  0
 13 17  1  0
 13 14  2  0
 15 10  1  0
 16 15  2  0
 18 15  1  0
 19 18  1  0
 19 20  1  1
 20 21  1  0
 22 19  1  0
 23 22  1  0
 24 22  2  0
M  END
$$$$
