LEC.pdb
     RDKit          3D

 24 23  0  0  1  0  0  0  0  0999 V2000
    5.6898  -12.6421   26.4854 C   0  0  0  0  0  0  0  0  0  0  0  0
    7.0016  -13.0768   25.8661 C   0  0  2  0  0  0  0  0  0  0  0  0
    7.9528  -11.9101   25.8185 C   0  0  0  0  0  0  0  0  0  0  0  0
    6.7855  -13.6987   24.5138 C   0  0  0  0  0  0  0  0  0  0  0  0
    6.5052  -15.1626   24.6310 C   0  0  2  0  0  0  0  0  0  0  0  0
    5.5479  -15.4962   25.6386 N   0  0  0  0  0  0  0  0  0  0  0  0
    7.8132  -15.9037   24.8014 C   0  0  0  0  0  0  0  0  0  0  0  0
    7.9916  -16.4313   25.9238 O   0  0  0  0  0  0  0  0  0  0  0  0
    8.7544  -15.9947   23.7843 N   0  0  0  0  0  0  0  0  0  0  0  0
   10.0243  -16.6437   23.9359 C   0  0  1  0  0  0  0  0  0  0  0  0
   10.8559  -16.7237   22.6777 C   0  0  0  0  0  0  0  0  0  0  0  0
   12.1841  -17.3914   22.8357 C   0  0  0  0  0  0  0  0  0  0  0  0
   13.0079  -17.4343   21.6058 C   0  0  0  0  0  0  0  0  0  0  0  0
   14.2016  -17.0988   21.5883 O   0  0  0  0  0  0  0  0  0  0  0  0
   10.7658  -16.0326   25.0495 C   0  0  0  0  0  0  0  0  0  0  0  0
   11.1723  -14.8388   25.0429 O   0  0  0  0  0  0  0  0  0  0  0  0
   12.4322  -17.8653   20.4188 O   0  0  0  0  0  0  0  0  0  0  0  0
   11.0638  -16.7990   26.2263 N   0  0  0  0  0  0  0  0  0  0  0  0
   11.4855  -16.2074   27.4622 C   0  0  1  0  0  0  0  0  0  0  0  0
   10.3346  -15.3038   27.9225 C   0  0  0  0  0  0  0  0  0  0  0  0
   10.7168  -14.5453   29.5232 S   0  0  0  0  0  0  0  0  0  0  0  0
   11.6152  -17.2606   28.4933 C   0  0  0  0  0  0  0  0  0  0  0  0
   11.0298  -18.4984   28.2839 O   0  0  0  0  0  0  0  0  0  0  0  0
   12.2450  -17.0846   29.5758 O   0  0  0  0  0  0  0  0  0  0  0  0
  2  1  1  6
  3  2  1  0
  4  5  1  0
  4  2  1  0
  5  6  1  1
  7  5  1  0
  7  8  2  0
  9  7  1  0
 10  9  1  0
 11 12  1  0
 10 11  1  6
 12 13  1  0
 13 17  1  0
 13 14  2  0
 15 10  1  0
 16 15  2  0
 18 15  1  0
 19 18  1  0
 19 20  1  1
 20 21  1  0
 22 19  1  0
 23 22  1  0
 24 22  2  0
M  END
$$$$
