LEC.pdb
     RDKit          3D

 24 23  0  0  1  0  0  0  0  0999 V2000
    8.7541  -13.4826   17.9166 C   0  0  0  0  0  0  0  0  0  0  0  0
    7.6102  -13.4576   18.9087 C   0  0  2  0  0  0  0  0  0  0  0  0
    7.3117  -12.0355   19.3048 C   0  0  0  0  0  0  0  0  0  0  0  0
    7.8987  -14.3368   20.0944 C   0  0  0  0  0  0  0  0  0  0  0  0
    8.1358  -15.7515   19.6730 C   0  0  2  0  0  0  0  0  0  0  0  0
    6.9711  -16.4189   19.1822 N   0  0  0  0  0  0  0  0  0  0  0  0
    8.8017  -16.4994   20.8072 C   0  0  0  0  0  0  0  0  0  0  0  0
    8.0276  -16.9518   21.6825 O   0  0  0  0  0  0  0  0  0  0  0  0
   10.1777  -16.6743   20.8761 N   0  0  0  0  0  0  0  0  0  0  0  0
   10.8281  -17.4454   21.8955 C   0  0  1  0  0  0  0  0  0  0  0  0
   12.1934  -17.9740   21.5245 C   0  0  0  0  0  0  0  0  0  0  0  0
   12.8185  -18.8826   22.5336 C   0  0  0  0  0  0  0  0  0  0  0  0
   14.1677  -19.3759   22.1738 C   0  0  0  0  0  0  0  0  0  0  0  0
   15.0984  -18.6156   21.8683 O   0  0  0  0  0  0  0  0  0  0  0  0
   10.8542  -16.6851   23.1543 C   0  0  0  0  0  0  0  0  0  0  0  0
   11.6213  -15.7055   23.3599 O   0  0  0  0  0  0  0  0  0  0  0  0
   14.4126  -20.7420   22.1747 O   0  0  0  0  0  0  0  0  0  0  0  0
    9.9762  -17.0421   24.2327 N   0  0  0  0  0  0  0  0  0  0  0  0
   10.0244  -16.4190   25.5230 C   0  0  1  0  0  0  0  0  0  0  0  0
    8.5810  -16.0323   25.8692 C   0  0  0  0  0  0  0  0  0  0  0  0
    7.9139  -14.8807   24.6393 S   0  0  0  0  0  0  0  0  0  0  0  0
   10.4342  -17.4163   26.5363 C   0  0  0  0  0  0  0  0  0  0  0  0
   10.5807  -17.0280   27.8578 O   0  0  0  0  0  0  0  0  0  0  0  0
   10.6616  -18.6273   26.2516 O   0  0  0  0  0  0  0  0  0  0  0  0
  2  1  1  6
  3  2  1  0
  4  5  1  0
  4  2  1  0
  5  6  1  1
  7  5  1  0
  7  8  2  0
  9  7  1  0
 10  9  1  0
 11 12  1  0
 10 11  1  6
 12 13  1  0
 13 17  1  0
 13 14  2  0
 15 10  1  0
 16 15  2  0
 18 15  1  0
 19 18  1  0
 19 20  1  1
 20 21  1  0
 22 19  1  0
 23 22  1  0
 24 22  2  0
M  END
$$$$
