LEC.pdb
     RDKit          3D

 24 23  0  0  1  0  0  0  0  0999 V2000
    8.7381  -13.9260   18.7030 C   0  0  0  0  0  0  0  0  0  0  0  0
    7.6179  -13.5988   19.6681 C   0  0  2  0  0  0  0  0  0  0  0  0
    7.4519  -12.1051   19.7671 C   0  0  0  0  0  0  0  0  0  0  0  0
    7.8483  -14.2423   21.0078 C   0  0  0  0  0  0  0  0  0  0  0  0
    7.9776  -15.7262   20.8794 C   0  0  2  0  0  0  0  0  0  0  0  0
    6.7969  -16.3776   20.4055 N   0  0  0  0  0  0  0  0  0  0  0  0
    8.4697  -16.2943   22.1925 C   0  0  0  0  0  0  0  0  0  0  0  0
    7.5764  -16.5968   23.0175 O   0  0  0  0  0  0  0  0  0  0  0  0
    9.8196  -16.4699   22.4676 N   0  0  0  0  0  0  0  0  0  0  0  0
   10.3111  -17.0559   23.6808 C   0  0  1  0  0  0  0  0  0  0  0  0
   11.5298  -17.9332   23.5195 C   0  0  0  0  0  0  0  0  0  0  0  0
   12.8377  -17.2578   23.7801 C   0  0  0  0  0  0  0  0  0  0  0  0
   14.0065  -17.8965   23.1328 C   0  0  0  0  0  0  0  0  0  0  0  0
   14.4865  -18.9694   23.5279 O   0  0  0  0  0  0  0  0  0  0  0  0
   10.5156  -16.0079   24.6925 C   0  0  0  0  0  0  0  0  0  0  0  0
   11.0459  -14.8918   24.4409 O   0  0  0  0  0  0  0  0  0  0  0  0
   14.5973  -17.2790   22.0392 O   0  0  0  0  0  0  0  0  0  0  0  0
   10.1041  -16.2243   26.0508 N   0  0  0  0  0  0  0  0  0  0  0  0
   10.2850  -15.2532   27.0898 C   0  0  1  0  0  0  0  0  0  0  0  0
    8.9469  -14.5165   27.2291 C   0  0  0  0  0  0  0  0  0  0  0  0
    9.0268  -13.2897   28.5605 S   0  0  0  0  0  0  0  0  0  0  0  0
   10.5057  -15.9461   28.3783 C   0  0  0  0  0  0  0  0  0  0  0  0
   11.0805  -15.2589   29.4348 O   0  0  0  0  0  0  0  0  0  0  0  0
   10.1904  -17.1562   28.5674 O   0  0  0  0  0  0  0  0  0  0  0  0
  2  1  1  6
  3  2  1  0
  4  5  1  0
  4  2  1  0
  5  6  1  1
  7  5  1  0
  7  8  2  0
  9  7  1  0
 10  9  1  0
 11 12  1  0
 10 11  1  6
 12 13  1  0
 13 17  1  0
 13 14  2  0
 15 10  1  0
 16 15  2  0
 18 15  1  0
 19 18  1  0
 19 20  1  1
 20 21  1  0
 22 19  1  0
 23 22  1  0
 24 22  2  0
M  END
$$$$
