LEC.pdb
     RDKit          3D

 24 23  0  0  1  0  0  0  0  0999 V2000
    6.9540  -12.3513   24.3803 C   0  0  0  0  0  0  0  0  0  0  0  0
    6.2835  -12.7710   25.6717 C   0  0  2  0  0  0  0  0  0  0  0  0
    6.4658  -11.6970   26.7118 C   0  0  0  0  0  0  0  0  0  0  0  0
    6.7847  -14.1114   26.1347 C   0  0  0  0  0  0  0  0  0  0  0  0
    6.5727  -15.1582   25.0885 C   0  0  2  0  0  0  0  0  0  0  0  0
    5.3413  -15.8725   25.2165 N   0  0  0  0  0  0  0  0  0  0  0  0
    7.7769  -16.0736   25.0551 C   0  0  0  0  0  0  0  0  0  0  0  0
    7.8558  -16.8952   25.9978 O   0  0  0  0  0  0  0  0  0  0  0  0
    8.7318  -16.0100   24.0487 N   0  0  0  0  0  0  0  0  0  0  0  0
    9.8353  -16.9201   23.9451 C   0  0  1  0  0  0  0  0  0  0  0  0
   10.6700  -16.7736   22.6949 C   0  0  0  0  0  0  0  0  0  0  0  0
   11.8508  -17.6863   22.6091 C   0  0  0  0  0  0  0  0  0  0  0  0
   12.6515  -17.5513   21.3706 C   0  0  0  0  0  0  0  0  0  0  0  0
   13.0561  -18.5300   20.7256 O   0  0  0  0  0  0  0  0  0  0  0  0
   10.6532  -16.8518   25.1657 C   0  0  0  0  0  0  0  0  0  0  0  0
   11.2814  -15.8192   25.5255 O   0  0  0  0  0  0  0  0  0  0  0  0
   12.9683  -16.2835   20.9029 O   0  0  0  0  0  0  0  0  0  0  0  0
   10.7699  -17.9977   26.0226 N   0  0  0  0  0  0  0  0  0  0  0  0
   11.6710  -18.0565   27.1361 C   0  0  1  0  0  0  0  0  0  0  0  0
   10.8286  -17.7797   28.3876 C   0  0  0  0  0  0  0  0  0  0  0  0
    9.5148  -19.0157   28.5616 S   0  0  0  0  0  0  0  0  0  0  0  0
   12.1810  -19.4375   27.2843 C   0  0  0  0  0  0  0  0  0  0  0  0
   11.7794  -20.4148   26.3886 O   0  0  0  0  0  0  0  0  0  0  0  0
   12.9797  -19.7769   28.2043 O   0  0  0  0  0  0  0  0  0  0  0  0
  2  1  1  6
  3  2  1  0
  4  5  1  0
  4  2  1  0
  5  6  1  1
  7  5  1  0
  7  8  2  0
  9  7  1  0
 10  9  1  0
 11 12  1  0
 10 11  1  6
 12 13  1  0
 13 17  1  0
 13 14  2  0
 15 10  1  0
 16 15  2  0
 18 15  1  0
 19 18  1  0
 19 20  1  1
 20 21  1  0
 22 19  1  0
 23 22  1  0
 24 22  2  0
M  END
$$$$
