LEC.pdb
     RDKit          3D

 24 23  0  0  1  0  0  0  0  0999 V2000
    9.3482  -13.7051   18.6588 C   0  0  0  0  0  0  0  0  0  0  0  0
    7.9223  -13.5788   19.1530 C   0  0  2  0  0  0  0  0  0  0  0  0
    7.5116  -12.1297   19.1558 C   0  0  0  0  0  0  0  0  0  0  0  0
    7.7533  -14.2275   20.4993 C   0  0  0  0  0  0  0  0  0  0  0  0
    8.2140  -15.6496   20.4755 C   0  0  2  0  0  0  0  0  0  0  0  0
    7.3499  -16.5326   19.7567 N   0  0  0  0  0  0  0  0  0  0  0  0
    8.4685  -16.1099   21.8941 C   0  0  0  0  0  0  0  0  0  0  0  0
    7.4476  -16.2476   22.6075 O   0  0  0  0  0  0  0  0  0  0  0  0
    9.7461  -16.3636   22.3758 N   0  0  0  0  0  0  0  0  0  0  0  0
   10.0189  -16.7625   23.7261 C   0  0  1  0  0  0  0  0  0  0  0  0
   11.2399  -17.6340   23.9013 C   0  0  0  0  0  0  0  0  0  0  0  0
   11.5649  -17.9951   25.3150 C   0  0  0  0  0  0  0  0  0  0  0  0
   12.7834  -18.8203   25.4809 C   0  0  0  0  0  0  0  0  0  0  0  0
   12.8034  -19.8531   26.1669 O   0  0  0  0  0  0  0  0  0  0  0  0
   10.0570  -15.5778   24.5971 C   0  0  0  0  0  0  0  0  0  0  0  0
   10.7815  -14.5707   24.3708 O   0  0  0  0  0  0  0  0  0  0  0  0
   13.9562  -18.4324   24.8484 O   0  0  0  0  0  0  0  0  0  0  0  0
    9.2419  -15.5222   25.7776 N   0  0  0  0  0  0  0  0  0  0  0  0
    9.2434  -14.4086   26.6805 C   0  0  1  0  0  0  0  0  0  0  0  0
    7.7859  -13.9448   26.7956 C   0  0  0  0  0  0  0  0  0  0  0  0
    7.6414  -12.5722   27.9699 S   0  0  0  0  0  0  0  0  0  0  0  0
    9.6329  -14.8704   28.0311 C   0  0  0  0  0  0  0  0  0  0  0  0
   10.0799  -13.9511   28.9658 O   0  0  0  0  0  0  0  0  0  0  0  0
    9.5772  -16.0843   28.3817 O   0  0  0  0  0  0  0  0  0  0  0  0
  2  1  1  1
  3  2  1  0
  4  5  1  0
  4  2  1  0
  5  6  1  1
  7  5  1  0
  7  8  2  0
  9  7  1  0
 10  9  1  0
 11 12  1  0
 10 11  1  6
 12 13  1  0
 13 17  1  0
 13 14  2  0
 15 10  1  0
 16 15  2  0
 18 15  1  0
 19 18  1  0
 19 20  1  1
 20 21  1  0
 22 19  1  0
 23 22  1  0
 24 22  2  0
M  END
$$$$
