LEC.pdb
     RDKit          3D

 24 23  0  0  1  0  0  0  0  0999 V2000
    6.6817  -12.1438   24.3771 C   0  0  0  0  0  0  0  0  0  0  0  0
    6.1220  -12.9872   25.5035 C   0  0  2  0  0  0  0  0  0  0  0  0
    5.8164  -12.1120   26.6906 C   0  0  0  0  0  0  0  0  0  0  0  0
    7.0490  -14.1205   25.8476 C   0  0  0  0  0  0  0  0  0  0  0  0
    6.9251  -15.2380   24.8621 C   0  0  2  0  0  0  0  0  0  0  0  0
    5.6865  -15.9475   24.9347 N   0  0  0  0  0  0  0  0  0  0  0  0
    8.1267  -16.1478   24.9938 C   0  0  0  0  0  0  0  0  0  0  0  0
    8.0713  -16.9823   25.9269 O   0  0  0  0  0  0  0  0  0  0  0  0
    9.2187  -16.0660   24.1397 N   0  0  0  0  0  0  0  0  0  0  0  0
   10.4377  -16.7946   24.3403 C   0  0  1  0  0  0  0  0  0  0  0  0
   11.3654  -16.8294   23.1491 C   0  0  0  0  0  0  0  0  0  0  0  0
   12.5813  -17.6831   23.3158 C   0  0  0  0  0  0  0  0  0  0  0  0
   13.4976  -17.6929   22.1524 C   0  0  0  0  0  0  0  0  0  0  0  0
   14.7106  -17.4565   22.2544 O   0  0  0  0  0  0  0  0  0  0  0  0
   11.1142  -16.3087   25.5527 C   0  0  0  0  0  0  0  0  0  0  0  0
   11.6199  -15.1579   25.6535 O   0  0  0  0  0  0  0  0  0  0  0  0
   12.9902  -17.9765   20.8921 O   0  0  0  0  0  0  0  0  0  0  0  0
   11.2270  -17.1559   26.7062 N   0  0  0  0  0  0  0  0  0  0  0  0
   11.7142  -16.6955   27.9734 C   0  0  1  0  0  0  0  0  0  0  0  0
   10.6999  -15.6598   28.4749 C   0  0  0  0  0  0  0  0  0  0  0  0
   11.1387  -15.0863   30.1369 S   0  0  0  0  0  0  0  0  0  0  0  0
   11.6781  -17.8077   28.9485 C   0  0  0  0  0  0  0  0  0  0  0  0
   12.4296  -17.7245   30.1091 O   0  0  0  0  0  0  0  0  0  0  0  0
   10.9830  -18.8495   28.7727 O   0  0  0  0  0  0  0  0  0  0  0  0
  2  1  1  6
  3  2  1  0
  4  5  1  0
  4  2  1  0
  5  6  1  1
  7  5  1  0
  7  8  2  0
  9  7  1  0
 10  9  1  0
 11 12  1  0
 10 11  1  6
 12 13  1  0
 13 17  1  0
 13 14  2  0
 15 10  1  0
 16 15  2  0
 18 15  1  0
 19 18  1  0
 19 20  1  1
 20 21  1  0
 22 19  1  0
 23 22  1  0
 24 22  2  0
M  END
$$$$
