HRY.pdb
     RDKit          3D

 34 35  0  0  1  0  0  0  0  0999 V2000
   26.0812  -15.7291  -19.4429 N   0  0  0  0  0  0  0  0  0  0  0  0
   26.1832  -16.0575  -18.0405 C   0  0  1  0  0  0  0  0  0  0  0  0
   25.6196  -14.9218  -17.2186 C   0  0  0  0  0  0  0  0  0  0  0  0
   26.4883  -13.7503  -17.3397 C   0  0  0  0  0  0  0  0  0  0  0  0
   27.7511  -13.6101  -16.8059 C   0  0  0  0  0  0  0  0  0  0  0  0
   28.2466  -12.3932  -17.1243 N   0  0  0  0  0  0  0  0  0  0  0  0
   27.3116  -11.7719  -17.8490 C   0  0  0  0  0  0  0  0  0  0  0  0
   26.2531  -12.5863  -17.9799 N   0  0  0  0  0  0  0  0  0  0  0  0
   25.4681  -17.3298  -17.7961 C   0  0  0  0  0  0  0  0  0  0  0  0
   24.3228  -17.4795  -18.2330 O   0  0  0  0  0  0  0  0  0  0  0  0
   24.8784  -25.2894  -15.6062 N   0  0  0  0  0  0  0  0  0  0  0  0
   25.8318  -24.9200  -16.5956 C   0  0  0  0  0  0  0  0  0  0  0  0
   25.9028  -25.6605  -17.6549 N   0  0  0  0  0  0  0  0  0  0  0  0
   26.6823  -23.7897  -16.4506 N   0  0  0  0  0  0  0  0  0  0  0  0
   26.4921  -22.9509  -15.3059 C   0  0  0  0  0  0  0  0  0  0  0  0
   25.4804  -21.8485  -15.5566 C   0  0  0  0  0  0  0  0  0  0  0  0
   26.2650  -20.7122  -16.2271 C   0  0  0  0  0  0  0  0  0  0  0  0
   25.3569  -19.6035  -16.6608 C   0  0  2  0  0  0  0  0  0  0  0  0
   26.0384  -18.4077  -17.0729 N   0  0  0  0  0  0  0  0  0  0  0  0
   24.3803  -19.3533  -15.5721 C   0  0  0  0  0  0  0  0  0  0  0  0
   24.7306  -18.8083  -14.4896 O   0  0  0  0  0  0  0  0  0  0  0  0
   26.5861  -25.5020  -18.4089 O   0  0  0  0  0  0  0  0  0  0  0  0
   16.7538  -17.1853  -11.8692 C   0  0  0  0  0  0  0  0  0  0  0  0
   17.8767  -17.4323  -12.6465 C   0  0  0  0  0  0  0  0  0  0  0  0
   19.0959  -16.8634  -12.3572 C   0  0  0  0  0  0  0  0  0  0  0  0
   20.1799  -17.1459  -13.1671 C   0  0  0  0  0  0  0  0  0  0  0  0
   20.0837  -17.9794  -14.2578 C   0  0  0  0  0  0  0  0  0  0  0  0
   21.2411  -18.2785  -15.1242 C   0  0  1  0  0  0  0  0  0  0  0  0
   22.0256  -19.4895  -14.6987 N   0  0  0  0  0  0  0  0  0  0  0  0
   23.0223  -19.7318  -15.7446 C   0  0  0  0  0  0  0  0  0  0  0  0
   21.2070  -20.7202  -14.5885 O   0  0  0  0  0  0  0  0  0  0  0  0
   21.0390  -21.4769  -15.5860 C   0  0  0  0  0  0  0  0  0  0  0  0
   18.8432  -18.5557  -14.5487 C   0  0  0  0  0  0  0  0  0  0  0  0
   17.7610  -18.2672  -13.7311 O   0  0  0  0  0  0  0  0  0  0  0  0
  2  1  1  6
  2  9  1  0
  2  3  1  0
  4  3  1  0
  4  5  2  0
  6  5  1  0
  7  8  2  0
  7  6  1  0
  8  4  1  0
  9 19  1  0
  9 10  2  0
 11 12  1  0
 12 14  1  0
 13 12  2  0
 15 14  1  0
 16 17  1  0
 16 15  1  0
 18 17  1  1
 19 18  1  0
 20 29  1  0
 20 18  1  0
 21 20  2  0
 22 23  1  0
 23 24  2  0
 24 25  1  0
 26 27  1  0
 26 25  2  0
 28 27  1  1
 28 30  1  0
 28 29  1  0
 30 34  1  0
 31 30  2  0
 32 26  1  0
 33 32  2  0
 33 23  1  0
M  END
$$$$
