HRY.pdb
     RDKit          3D

 34 35  0  0  1  0  0  0  0  0999 V2000
   25.2497  -14.3135  -19.5392 N   0  0  0  0  0  0  0  0  0  0  0  0
   25.4962  -13.0934  -20.2709 C   0  0  1  0  0  0  0  0  0  0  0  0
   24.2606  -12.7242  -21.0584 C   0  0  0  0  0  0  0  0  0  0  0  0
   24.0181  -13.7316  -22.0918 C   0  0  0  0  0  0  0  0  0  0  0  0
   22.8945  -14.5196  -22.2178 C   0  0  0  0  0  0  0  0  0  0  0  0
   23.0269  -15.3316  -23.2906 N   0  0  0  0  0  0  0  0  0  0  0  0
   24.2167  -15.0619  -23.8359 C   0  0  0  0  0  0  0  0  0  0  0  0
   24.8146  -14.0998  -23.1165 N   0  0  0  0  0  0  0  0  0  0  0  0
   25.8833  -12.0337  -19.3134 C   0  0  0  0  0  0  0  0  0  0  0  0
   25.4000  -12.0321  -18.1770 O   0  0  0  0  0  0  0  0  0  0  0  0
   33.4805   -8.4243  -18.4600 N   0  0  0  0  0  0  0  0  0  0  0  0
   32.7863   -9.6202  -18.1255 C   0  0  0  0  0  0  0  0  0  0  0  0
   33.4921  -10.6972  -17.9936 N   0  0  0  0  0  0  0  0  0  0  0  0
   31.3772   -9.6572  -17.9385 N   0  0  0  0  0  0  0  0  0  0  0  0
   30.6533   -8.4276  -18.0581 C   0  0  0  0  0  0  0  0  0  0  0  0
   29.1622   -8.6096  -17.8451 C   0  0  0  0  0  0  0  0  0  0  0  0
   28.7271   -9.6766  -18.8592 C   0  0  0  0  0  0  0  0  0  0  0  0
   27.2642   -9.9744  -18.7447 C   0  0  2  0  0  0  0  0  0  0  0  0
   26.7976  -10.9995  -19.6367 N   0  0  0  0  0  0  0  0  0  0  0  0
   26.5195   -8.7011  -18.9048 C   0  0  0  0  0  0  0  0  0  0  0  0
   26.5550   -8.0522  -19.9862 O   0  0  0  0  0  0  0  0  0  0  0  0
   33.0788  -11.6247  -17.8216 O   0  0  0  0  0  0  0  0  0  0  0  0
   19.7290  -10.3867  -16.2792 C   0  0  0  0  0  0  0  0  0  0  0  0
   20.7072   -9.6216  -16.8988 C   0  0  0  0  0  0  0  0  0  0  0  0
   20.7850   -8.2601  -16.7144 C   0  0  0  0  0  0  0  0  0  0  0  0
   21.7810   -7.5494  -17.3576 C   0  0  0  0  0  0  0  0  0  0  0  0
   22.7022   -8.1569  -18.1798 C   0  0  0  0  0  0  0  0  0  0  0  0
   23.7641   -7.3970  -18.8688 C   0  0  1  0  0  0  0  0  0  0  0  0
   24.9106   -7.0046  -17.9776 N   0  0  0  0  0  0  0  0  0  0  0  0
   25.7488   -8.1963  -17.8240 C   0  0  0  0  0  0  0  0  0  0  0  0
   24.4923   -6.5922  -16.6167 O   0  0  0  0  0  0  0  0  0  0  0  0
   24.7435   -7.3191  -15.6147 C   0  0  0  0  0  0  0  0  0  0  0  0
   22.6200   -9.5406  -18.3648 C   0  0  0  0  0  0  0  0  0  0  0  0
   21.6178  -10.2460  -17.7158 O   0  0  0  0  0  0  0  0  0  0  0  0
  2  1  1  1
  2  9  1  0
  2  3  1  0
  4  3  1  0
  4  5  2  0
  6  5  1  0
  7  8  2  0
  7  6  1  0
  8  4  1  0
  9 19  1  0
  9 10  2  0
 11 12  1  0
 12 14  1  0
 13 12  2  0
 15 14  1  0
 16 17  1  0
 16 15  1  0
 18 17  1  6
 19 18  1  0
 20 29  1  0
 20 18  1  0
 21 20  2  0
 22 23  1  0
 23 24  2  0
 24 25  1  0
 26 27  1  0
 26 25  2  0
 28 27  1  6
 28 30  1  0
 28 29  1  0
 30 34  1  0
 31 30  2  0
 32 26  1  0
 33 32  2  0
 33 23  1  0
M  END
$$$$
