HRY.pdb
     RDKit          3D

 34 35  0  0  1  0  0  0  0  0999 V2000
   45.6075   -9.1282  -11.8159 N   0  0  0  0  0  0  0  0  0  0  0  0
   44.5818   -9.5553  -12.7381 C   0  0  1  0  0  0  0  0  0  0  0  0
   45.0761  -10.7522  -13.5166 C   0  0  0  0  0  0  0  0  0  0  0  0
   46.0465  -10.3170  -14.5219 C   0  0  0  0  0  0  0  0  0  0  0  0
   47.2938  -10.8599  -14.7431 C   0  0  0  0  0  0  0  0  0  0  0  0
   47.9047  -10.1990  -15.7519 N   0  0  0  0  0  0  0  0  0  0  0  0
   47.0570   -9.2516  -16.1636 C   0  0  0  0  0  0  0  0  0  0  0  0
   45.9387   -9.3207  -15.4251 N   0  0  0  0  0  0  0  0  0  0  0  0
   43.3507   -9.8576  -11.9746 C   0  0  0  0  0  0  0  0  0  0  0  0
   42.4336  -10.4811  -12.5179 O   0  0  0  0  0  0  0  0  0  0  0  0
   45.5167   -9.8676   -4.6876 N   0  0  0  0  0  0  0  0  0  0  0  0
   45.9057  -11.0287   -5.4118 C   0  0  0  0  0  0  0  0  0  0  0  0
   47.0661  -11.5342   -5.1408 N   0  0  0  0  0  0  0  0  0  0  0  0
   45.0732  -11.6278   -6.3966 N   0  0  0  0  0  0  0  0  0  0  0  0
   43.8366  -10.9790   -6.7128 C   0  0  0  0  0  0  0  0  0  0  0  0
   43.6204  -10.8403   -8.2082 C   0  0  0  0  0  0  0  0  0  0  0  0
   42.3433  -10.0030   -8.3651 C   0  0  0  0  0  0  0  0  0  0  0  0
   42.0218   -9.7629   -9.8076 C   0  0  2  0  0  0  0  0  0  0  0  0
   43.1637   -9.4621  -10.6261 N   0  0  0  0  0  0  0  0  0  0  0  0
   40.9789   -8.7099   -9.8796 C   0  0  0  0  0  0  0  0  0  0  0  0
   41.2790   -7.5037  -10.0958 O   0  0  0  0  0  0  0  0  0  0  0  0
   47.4353  -12.3779   -5.6019 O   0  0  0  0  0  0  0  0  0  0  0  0
   36.7551  -12.1312   -5.0811 C   0  0  0  0  0  0  0  0  0  0  0  0
   36.8670  -11.2766   -6.1689 C   0  0  0  0  0  0  0  0  0  0  0  0
   36.5806   -9.9345   -6.0666 C   0  0  0  0  0  0  0  0  0  0  0  0
   36.7102   -9.1313   -7.1842 C   0  0  0  0  0  0  0  0  0  0  0  0
   37.1171   -9.6275   -8.4015 C   0  0  0  0  0  0  0  0  0  0  0  0
   37.2526   -8.7698   -9.5955 C   0  0  1  0  0  0  0  0  0  0  0  0
   38.5640   -8.0372   -9.6755 N   0  0  0  0  0  0  0  0  0  0  0  0
   39.6136   -9.0588   -9.7029 C   0  0  0  0  0  0  0  0  0  0  0  0
   38.8343   -7.1712   -8.5034 O   0  0  0  0  0  0  0  0  0  0  0  0
   39.6611   -7.5235   -7.6157 C   0  0  0  0  0  0  0  0  0  0  0  0
   37.4073  -10.9918   -8.5016 C   0  0  0  0  0  0  0  0  0  0  0  0
   37.2748  -11.7904   -7.3757 O   0  0  0  0  0  0  0  0  0  0  0  0
  2  1  1  1
  2  9  1  0
  2  3  1  0
  4  3  1  0
  4  5  2  0
  6  5  1  0
  7  8  2  0
  7  6  1  0
  8  4  1  0
  9 19  1  0
  9 10  2  0
 11 12  1  0
 12 14  1  0
 13 12  2  0
 15 14  1  0
 16 17  1  0
 16 15  1  0
 18 17  1  1
 19 18  1  0
 20 29  1  0
 20 18  1  0
 21 20  2  0
 22 23  1  0
 23 24  2  0
 24 25  1  0
 26 27  1  0
 26 25  2  0
 28 27  1  6
 28 30  1  0
 28 29  1  0
 30 34  1  0
 31 30  2  0
 32 26  1  0
 33 32  2  0
 33 23  1  0
M  END
$$$$
