HRY.pdb
     RDKit          3D

 34 35  0  0  1  0  0  0  0  0999 V2000
   20.6651  -26.5557  -13.5396 N   0  0  0  0  0  0  0  0  0  0  0  0
   20.7402  -25.8090  -14.7732 C   0  0  1  0  0  0  0  0  0  0  0  0
   19.4760  -24.9996  -14.9456 C   0  0  0  0  0  0  0  0  0  0  0  0
   18.3548  -25.8956  -15.2317 C   0  0  0  0  0  0  0  0  0  0  0  0
   18.0719  -26.4903  -16.4423 C   0  0  0  0  0  0  0  0  0  0  0  0
   16.9595  -27.2499  -16.3265 N   0  0  0  0  0  0  0  0  0  0  0  0
   16.5442  -27.1380  -15.0613 C   0  0  0  0  0  0  0  0  0  0  0  0
   17.3819  -26.3239  -14.4010 N   0  0  0  0  0  0  0  0  0  0  0  0
   21.9480  -24.9547  -14.7401 C   0  0  0  0  0  0  0  0  0  0  0  0
   22.1229  -24.1820  -13.7928 O   0  0  0  0  0  0  0  0  0  0  0  0
   29.7434  -26.3883  -18.0362 N   0  0  0  0  0  0  0  0  0  0  0  0
   29.0790  -26.6736  -16.8109 C   0  0  0  0  0  0  0  0  0  0  0  0
   29.5099  -27.6831  -16.1249 N   0  0  0  0  0  0  0  0  0  0  0  0
   27.9852  -25.8977  -16.3379 N   0  0  0  0  0  0  0  0  0  0  0  0
   27.6484  -24.7065  -17.0573 C   0  0  0  0  0  0  0  0  0  0  0  0
   26.5402  -23.9173  -16.3858 C   0  0  0  0  0  0  0  0  0  0  0  0
   25.3075  -24.8316  -16.4119 C   0  0  0  0  0  0  0  0  0  0  0  0
   24.1147  -24.1574  -15.8081 C   0  0  2  0  0  0  0  0  0  0  0  0
   22.9350  -24.9760  -15.7576 N   0  0  0  0  0  0  0  0  0  0  0  0
   23.8895  -22.8817  -16.5315 C   0  0  0  0  0  0  0  0  0  0  0  0
   23.3569  -22.8616  -17.6750 O   0  0  0  0  0  0  0  0  0  0  0  0
   29.0727  -27.9960  -15.2465 O   0  0  0  0  0  0  0  0  0  0  0  0
   18.3961  -20.3099  -13.5938 C   0  0  0  0  0  0  0  0  0  0  0  0
   19.6935  -20.0980  -14.0385 C   0  0  0  0  0  0  0  0  0  0  0  0
   20.7825  -20.3361  -13.2316 C   0  0  0  0  0  0  0  0  0  0  0  0
   22.0518  -20.1069  -13.7287 C   0  0  0  0  0  0  0  0  0  0  0  0
   22.2672  -19.6469  -15.0076 C   0  0  0  0  0  0  0  0  0  0  0  0
   23.6230  -19.3996  -15.5373 C   0  0  2  0  0  0  0  0  0  0  0  0
   24.0494  -20.3726  -16.6023 N   0  0  0  0  0  0  0  0  0  0  0  0
   24.2781  -21.6546  -15.9313 C   0  0  0  0  0  0  0  0  0  0  0  0
   25.3188  -20.0029  -17.2723 O   0  0  0  0  0  0  0  0  0  0  0  0
   25.3318  -19.1615  -18.2144 C   0  0  0  0  0  0  0  0  0  0  0  0
   21.1582  -19.4061  -15.8248 C   0  0  0  0  0  0  0  0  0  0  0  0
   19.8883  -19.6387  -15.3183 O   0  0  0  0  0  0  0  0  0  0  0  0
  2  1  1  1
  2  9  1  0
  2  3  1  0
  4  3  1  0
  4  5  2  0
  6  5  1  0
  7  8  2  0
  7  6  1  0
  8  4  1  0
  9 19  1  0
  9 10  2  0
 11 12  1  0
 12 14  1  0
 13 12  2  0
 15 14  1  0
 16 17  1  0
 16 15  1  0
 18 17  1  6
 19 18  1  0
 20 29  1  0
 20 18  1  0
 21 20  2  0
 22 23  1  0
 23 24  2  0
 24 25  1  0
 26 27  1  0
 26 25  2  0
 28 27  1  6
 28 30  1  0
 28 29  1  0
 30 34  1  0
 31 30  2  0
 32 26  1  0
 33 32  2  0
 33 23  1  0
M  END
$$$$
