HRY.pdb
     RDKit          3D

 34 35  0  0  1  0  0  0  0  0999 V2000
   32.7039  -32.4707  -17.3395 N   0  0  0  0  0  0  0  0  0  0  0  0
   31.7616  -33.3618  -16.7049 C   0  0  1  0  0  0  0  0  0  0  0  0
   32.4998  -34.2765  -15.7554 C   0  0  0  0  0  0  0  0  0  0  0  0
   33.3121  -35.2244  -16.5192 C   0  0  0  0  0  0  0  0  0  0  0  0
   34.6419  -35.5178  -16.3074 C   0  0  0  0  0  0  0  0  0  0  0  0
   35.0529  -36.4393  -17.2072 N   0  0  0  0  0  0  0  0  0  0  0  0
   33.9991  -36.7253  -17.9774 C   0  0  0  0  0  0  0  0  0  0  0  0
   32.9510  -35.9958  -17.5654 N   0  0  0  0  0  0  0  0  0  0  0  0
   30.7335  -32.5535  -16.0127 C   0  0  0  0  0  0  0  0  0  0  0  0
   31.0349  -31.4482  -15.5516 O   0  0  0  0  0  0  0  0  0  0  0  0
   24.1189  -30.0067  -19.3358 N   0  0  0  0  0  0  0  0  0  0  0  0
   25.2687  -30.7765  -19.6671 C   0  0  0  0  0  0  0  0  0  0  0  0
   25.3598  -31.2111  -20.8830 N   0  0  0  0  0  0  0  0  0  0  0  0
   26.2887  -31.0697  -18.7209 N   0  0  0  0  0  0  0  0  0  0  0  0
   26.7275  -30.0131  -17.8600 C   0  0  0  0  0  0  0  0  0  0  0  0
   27.8452  -30.4483  -16.9309 C   0  0  0  0  0  0  0  0  0  0  0  0
   27.3234  -31.7025  -16.2159 C   0  0  0  0  0  0  0  0  0  0  0  0
   28.3297  -32.2351  -15.2435 C   0  0  2  0  0  0  0  0  0  0  0  0
   29.3942  -32.9881  -15.8469 N   0  0  0  0  0  0  0  0  0  0  0  0
   27.6049  -33.0090  -14.2056 C   0  0  0  0  0  0  0  0  0  0  0  0
   27.2068  -34.1860  -14.4239 O   0  0  0  0  0  0  0  0  0  0  0  0
   26.1632  -31.7549  -21.2287 O   0  0  0  0  0  0  0  0  0  0  0  0
   24.1937  -34.5071   -6.0994 C   0  0  0  0  0  0  0  0  0  0  0  0
   24.8319  -34.0006   -7.2229 C   0  0  0  0  0  0  0  0  0  0  0  0
   25.6062  -34.7969   -8.0353 C   0  0  0  0  0  0  0  0  0  0  0  0
   26.2179  -34.2371   -9.1413 C   0  0  0  0  0  0  0  0  0  0  0  0
   26.0803  -32.9058   -9.4610 C   0  0  0  0  0  0  0  0  0  0  0  0
   26.7361  -32.3078  -10.6408 C   0  0  1  0  0  0  0  0  0  0  0  0
   26.6693  -33.1637  -11.8760 N   0  0  0  0  0  0  0  0  0  0  0  0
   27.3507  -32.4200  -12.9385 C   0  0  0  0  0  0  0  0  0  0  0  0
   25.2879  -33.4221  -12.3469 O   0  0  0  0  0  0  0  0  0  0  0  0
   24.7946  -34.5840  -12.2984 C   0  0  0  0  0  0  0  0  0  0  0  0
   25.2926  -32.0997   -8.6331 C   0  0  0  0  0  0  0  0  0  0  0  0
   24.6824  -32.6692   -7.5257 O   0  0  0  0  0  0  0  0  0  0  0  0
  2  1  1  1
  2  9  1  0
  2  3  1  0
  4  3  1  0
  4  5  2  0
  6  5  1  0
  7  8  2  0
  7  6  1  0
  8  4  1  0
  9 19  1  0
  9 10  2  0
 11 12  1  0
 12 14  1  0
 13 12  2  0
 15 14  1  0
 16 17  1  0
 16 15  1  0
 18 17  1  6
 19 18  1  0
 20 29  1  0
 20 18  1  0
 21 20  2  0
 22 23  1  0
 23 24  2  0
 24 25  1  0
 26 27  1  0
 26 25  2  0
 28 27  1  1
 28 30  1  0
 28 29  1  0
 30 34  1  0
 31 30  2  0
 32 26  1  0
 33 32  2  0
 33 23  1  0
M  END
$$$$
