HRY.pdb
     RDKit          3D

 34 35  0  0  1  0  0  0  0  0999 V2000
   20.2967  -21.7875  -15.5938 N   0  0  0  0  0  0  0  0  0  0  0  0
   21.2031  -20.7879  -15.0798 C   0  0  1  0  0  0  0  0  0  0  0  0
   20.4430  -19.8358  -14.1861 C   0  0  0  0  0  0  0  0  0  0  0  0
   19.6248  -18.9410  -15.0055 C   0  0  0  0  0  0  0  0  0  0  0  0
   18.2579  -19.0040  -15.1695 C   0  0  0  0  0  0  0  0  0  0  0  0
   17.8535  -18.0147  -15.9975 N   0  0  0  0  0  0  0  0  0  0  0  0
   18.9479  -17.3354  -16.3527 C   0  0  0  0  0  0  0  0  0  0  0  0
   20.0145  -17.8907  -15.7572 N   0  0  0  0  0  0  0  0  0  0  0  0
   22.3037  -21.4675  -14.3610 C   0  0  0  0  0  0  0  0  0  0  0  0
   22.0399  -22.3146  -13.5020 O   0  0  0  0  0  0  0  0  0  0  0  0
   29.3988  -23.2988  -18.1836 N   0  0  0  0  0  0  0  0  0  0  0  0
   28.3962  -22.2896  -18.2073 C   0  0  0  0  0  0  0  0  0  0  0  0
   28.4473  -21.4269  -19.1709 N   0  0  0  0  0  0  0  0  0  0  0  0
   27.3705  -22.2105  -17.2256 N   0  0  0  0  0  0  0  0  0  0  0  0
   27.2649  -23.2802  -16.2797 C   0  0  0  0  0  0  0  0  0  0  0  0
   25.9719  -23.2283  -15.4876 C   0  0  0  0  0  0  0  0  0  0  0  0
   26.0273  -21.9168  -14.6917 C   0  0  0  0  0  0  0  0  0  0  0  0
   24.7877  -21.7211  -13.8750 C   0  0  2  0  0  0  0  0  0  0  0  0
   23.6721  -21.1930  -14.6104 N   0  0  0  0  0  0  0  0  0  0  0  0
   25.1366  -20.8882  -12.6977 C   0  0  0  0  0  0  0  0  0  0  0  0
   24.9884  -19.6354  -12.7138 O   0  0  0  0  0  0  0  0  0  0  0  0
   27.7234  -20.7109  -19.3257 O   0  0  0  0  0  0  0  0  0  0  0  0
   28.9193  -19.2252   -4.8095 C   0  0  0  0  0  0  0  0  0  0  0  0
   28.3092  -19.7998   -5.9157 C   0  0  0  0  0  0  0  0  0  0  0  0
   27.0626  -19.4024   -6.3419 C   0  0  0  0  0  0  0  0  0  0  0  0
   26.5044  -20.0109   -7.4505 C   0  0  0  0  0  0  0  0  0  0  0  0
   27.1532  -21.0046   -8.1470 C   0  0  0  0  0  0  0  0  0  0  0  0
   26.5554  -21.6561   -9.3293 C   0  0  2  0  0  0  0  0  0  0  0  0
   26.3341  -20.7273  -10.4917 N   0  0  0  0  0  0  0  0  0  0  0  0
   25.6477  -21.5060  -11.5255 C   0  0  0  0  0  0  0  0  0  0  0  0
   27.5891  -20.2195  -11.0950 O   0  0  0  0  0  0  0  0  0  0  0  0
   28.3717  -20.9969  -11.7106 C   0  0  0  0  0  0  0  0  0  0  0  0
   28.4199  -21.4058   -7.7110 C   0  0  0  0  0  0  0  0  0  0  0  0
   28.9726  -20.7903   -6.5981 O   0  0  0  0  0  0  0  0  0  0  0  0
  2  1  1  1
  2  9  1  0
  2  3  1  0
  4  3  1  0
  4  5  2  0
  6  5  1  0
  7  8  2  0
  7  6  1  0
  8  4  1  0
  9 19  1  0
  9 10  2  0
 11 12  1  0
 12 14  1  0
 13 12  2  0
 15 14  1  0
 16 17  1  0
 16 15  1  0
 18 17  1  6
 19 18  1  0
 20 29  1  0
 20 18  1  0
 21 20  2  0
 22 23  1  0
 23 24  2  0
 24 25  1  0
 26 27  1  0
 26 25  2  0
 28 27  1  1
 28 30  1  0
 28 29  1  0
 30 34  1  0
 31 30  2  0
 32 26  1  0
 33 32  2  0
 33 23  1  0
M  END
$$$$
