HRY.pdb
     RDKit          3D

 34 35  0  0  1  0  0  0  0  0999 V2000
   21.8172   -9.0671  -24.3793 N   0  0  0  0  0  0  0  0  0  0  0  0
   22.6237   -9.1689  -23.1860 C   0  0  1  0  0  0  0  0  0  0  0  0
   23.7326   -8.1443  -23.2429 C   0  0  0  0  0  0  0  0  0  0  0  0
   24.7168   -8.5418  -24.2504 C   0  0  0  0  0  0  0  0  0  0  0  0
   25.8599   -9.2796  -24.0304 C   0  0  0  0  0  0  0  0  0  0  0  0
   26.5222   -9.4503  -25.1965 N   0  0  0  0  0  0  0  0  0  0  0  0
   25.8092   -8.8298  -26.1412 C   0  0  0  0  0  0  0  0  0  0  0  0
   24.7229   -8.2827  -25.5744 N   0  0  0  0  0  0  0  0  0  0  0  0
   21.7524   -8.9812  -22.0047 C   0  0  0  0  0  0  0  0  0  0  0  0
   20.9211   -8.0680  -21.9988 O   0  0  0  0  0  0  0  0  0  0  0  0
   18.9476  -14.5264  -15.7363 N   0  0  0  0  0  0  0  0  0  0  0  0
   18.1429  -13.3620  -15.5926 C   0  0  0  0  0  0  0  0  0  0  0  0
   17.0848  -13.4611  -14.8537 N   0  0  0  0  0  0  0  0  0  0  0  0
   18.4658  -12.1292  -16.2235 N   0  0  0  0  0  0  0  0  0  0  0  0
   19.4078  -12.1552  -17.3015 C   0  0  0  0  0  0  0  0  0  0  0  0
   19.7513  -10.7658  -17.8050 C   0  0  0  0  0  0  0  0  0  0  0  0
   20.6471  -10.9810  -19.0329 C   0  0  0  0  0  0  0  0  0  0  0  0
   21.0221   -9.6790  -19.6701 C   0  0  2  0  0  0  0  0  0  0  0  0
   21.8220   -9.8098  -20.8564 N   0  0  0  0  0  0  0  0  0  0  0  0
   21.6698   -8.8300  -18.6400 C   0  0  0  0  0  0  0  0  0  0  0  0
   22.8806   -8.9909  -18.3242 O   0  0  0  0  0  0  0  0  0  0  0  0
   16.4104  -12.6929  -14.7284 O   0  0  0  0  0  0  0  0  0  0  0  0
   22.5704   -1.4804  -13.7507 C   0  0  0  0  0  0  0  0  0  0  0  0
   22.1485   -2.4810  -14.6150 C   0  0  0  0  0  0  0  0  0  0  0  0
   21.0753   -3.2890  -14.3168 C   0  0  0  0  0  0  0  0  0  0  0  0
   20.7003   -4.2696  -15.2161 C   0  0  0  0  0  0  0  0  0  0  0  0
   21.3646   -4.4682  -16.4047 C   0  0  0  0  0  0  0  0  0  0  0  0
   20.9656   -5.5174  -17.3637 C   0  0  1  0  0  0  0  0  0  0  0  0
   21.5522   -6.8705  -17.0674 N   0  0  0  0  0  0  0  0  0  0  0  0
   20.9186   -7.8135  -17.9923 C   0  0  0  0  0  0  0  0  0  0  0  0
   21.2690   -7.3545  -15.6954 O   0  0  0  0  0  0  0  0  0  0  0  0
   22.0251   -7.0458  -14.7317 C   0  0  0  0  0  0  0  0  0  0  0  0
   22.4548   -3.6451  -16.7044 C   0  0  0  0  0  0  0  0  0  0  0  0
   22.8242   -2.6639  -15.7968 O   0  0  0  0  0  0  0  0  0  0  0  0
  2  1  1  6
  2  9  1  0
  2  3  1  0
  4  3  1  0
  4  5  2  0
  6  5  1  0
  7  8  2  0
  7  6  1  0
  8  4  1  0
  9 19  1  0
  9 10  2  0
 11 12  1  0
 12 14  1  0
 13 12  2  0
 15 14  1  0
 16 17  1  0
 16 15  1  0
 18 17  1  1
 19 18  1  0
 20 29  1  0
 20 18  1  0
 21 20  2  0
 22 23  1  0
 23 24  2  0
 24 25  1  0
 26 27  1  0
 26 25  2  0
 28 27  1  6
 28 30  1  0
 28 29  1  0
 30 34  1  0
 31 30  2  0
 32 26  1  0
 33 32  2  0
 33 23  1  0
M  END
$$$$
