HRY.pdb
     RDKit          3D

 34 35  0  0  1  0  0  0  0  0999 V2000
   20.4827  -12.8925  -17.2019 N   0  0  0  0  0  0  0  0  0  0  0  0
   19.5098  -11.8255  -17.2031 C   0  0  1  0  0  0  0  0  0  0  0  0
   18.5217  -12.0484  -16.0819 C   0  0  0  0  0  0  0  0  0  0  0  0
   17.6201  -13.1463  -16.4333 C   0  0  0  0  0  0  0  0  0  0  0  0
   17.2957  -14.2242  -15.6382 C   0  0  0  0  0  0  0  0  0  0  0  0
   16.4351  -15.0322  -16.2972 N   0  0  0  0  0  0  0  0  0  0  0  0
   16.2177  -14.4744  -17.4918 C   0  0  0  0  0  0  0  0  0  0  0  0
   16.9294  -13.3399  -17.5759 N   0  0  0  0  0  0  0  0  0  0  0  0
   20.2194  -10.5337  -17.0712 C   0  0  0  0  0  0  0  0  0  0  0  0
   21.0764  -10.3954  -16.1929 O   0  0  0  0  0  0  0  0  0  0  0  0
   20.6788   -3.6539  -22.5936 N   0  0  0  0  0  0  0  0  0  0  0  0
   21.5512   -3.2700  -21.5374 C   0  0  0  0  0  0  0  0  0  0  0  0
   22.2651   -2.2052  -21.7168 N   0  0  0  0  0  0  0  0  0  0  0  0
   21.6530   -4.0077  -20.3261 N   0  0  0  0  0  0  0  0  0  0  0  0
   20.8550   -5.1890  -20.1924 C   0  0  0  0  0  0  0  0  0  0  0  0
   21.1593   -5.9531  -18.9174 C   0  0  0  0  0  0  0  0  0  0  0  0
   20.3206   -7.2365  -18.9946 C   0  0  0  0  0  0  0  0  0  0  0  0
   20.5811   -8.1303  -17.8220 C   0  0  2  0  0  0  0  0  0  0  0  0
   19.9633   -9.4241  -17.9156 N   0  0  0  0  0  0  0  0  0  0  0  0
   20.1890   -7.4023  -16.5899 C   0  0  0  0  0  0  0  0  0  0  0  0
   18.9765   -7.2044  -16.3031 O   0  0  0  0  0  0  0  0  0  0  0  0
   22.9127   -1.8344  -21.0071 O   0  0  0  0  0  0  0  0  0  0  0  0
   19.7116   -5.8279   -8.1154 C   0  0  0  0  0  0  0  0  0  0  0  0
   20.0614   -6.1600   -9.4167 C   0  0  0  0  0  0  0  0  0  0  0  0
   19.5228   -5.5041  -10.5000 C   0  0  0  0  0  0  0  0  0  0  0  0
   19.9088   -5.8780  -11.7736 C   0  0  0  0  0  0  0  0  0  0  0  0
   20.8164   -6.8875  -11.9988 C   0  0  0  0  0  0  0  0  0  0  0  0
   21.2262   -7.2885  -13.3593 C   0  0  2  0  0  0  0  0  0  0  0  0
   20.8476   -6.2994  -14.4275 N   0  0  0  0  0  0  0  0  0  0  0  0
   21.1928   -6.9159  -15.7108 C   0  0  0  0  0  0  0  0  0  0  0  0
   21.5945   -5.0216  -14.3471 O   0  0  0  0  0  0  0  0  0  0  0  0
   22.7803   -4.9376  -14.7742 C   0  0  0  0  0  0  0  0  0  0  0  0
   21.3616   -7.5518  -10.8955 C   0  0  0  0  0  0  0  0  0  0  0  0
   20.9691   -7.1704   -9.6214 O   0  0  0  0  0  0  0  0  0  0  0  0
  2  1  1  1
  2  9  1  0
  2  3  1  0
  4  3  1  0
  4  5  2  0
  6  5  1  0
  7  8  2  0
  7  6  1  0
  8  4  1  0
  9 19  1  0
  9 10  2  0
 11 12  1  0
 12 14  1  0
 13 12  2  0
 15 14  1  0
 16 17  1  0
 16 15  1  0
 18 17  1  6
 19 18  1  0
 20 29  1  0
 20 18  1  0
 21 20  2  0
 22 23  1  0
 23 24  2  0
 24 25  1  0
 26 27  1  0
 26 25  2  0
 28 27  1  6
 28 30  1  0
 28 29  1  0
 30 34  1  0
 31 30  2  0
 32 26  1  0
 33 32  2  0
 33 23  1  0
M  END
$$$$
