HRY.pdb
     RDKit          3D

 34 35  0  0  1  0  0  0  0  0999 V2000
   22.7528  -16.6969  -20.6432 N   0  0  0  0  0  0  0  0  0  0  0  0
   23.1730  -16.6821  -19.2619 C   0  0  1  0  0  0  0  0  0  0  0  0
   22.9807  -15.2946  -18.6955 C   0  0  0  0  0  0  0  0  0  0  0  0
   23.9436  -14.3774  -19.3064 C   0  0  0  0  0  0  0  0  0  0  0  0
   23.6466  -13.2790  -20.0840 C   0  0  0  0  0  0  0  0  0  0  0  0
   24.7916  -12.6733  -20.4712 N   0  0  0  0  0  0  0  0  0  0  0  0
   25.7988  -13.3776  -19.9466 C   0  0  0  0  0  0  0  0  0  0  0  0
   25.2911  -14.4030  -19.2456 N   0  0  0  0  0  0  0  0  0  0  0  0
   22.3982  -17.6995  -18.5174 C   0  0  0  0  0  0  0  0  0  0  0  0
   21.2054  -17.8744  -18.7852 O   0  0  0  0  0  0  0  0  0  0  0  0
   24.9763  -24.8037  -13.9972 N   0  0  0  0  0  0  0  0  0  0  0  0
   23.5673  -24.8078  -13.8006 C   0  0  0  0  0  0  0  0  0  0  0  0
   23.0650  -25.7998  -13.1378 N   0  0  0  0  0  0  0  0  0  0  0  0
   22.7245  -23.7776  -14.3008 N   0  0  0  0  0  0  0  0  0  0  0  0
   23.3439  -22.6616  -14.9497 C   0  0  0  0  0  0  0  0  0  0  0  0
   22.3357  -21.6245  -15.4079 C   0  0  0  0  0  0  0  0  0  0  0  0
   23.1548  -20.5369  -16.1168 C   0  0  0  0  0  0  0  0  0  0  0  0
   22.2687  -19.4870  -16.7121 C   0  0  2  0  0  0  0  0  0  0  0  0
   22.9627  -18.5005  -17.4928 N   0  0  0  0  0  0  0  0  0  0  0  0
   21.4675  -18.8840  -15.6184 C   0  0  0  0  0  0  0  0  0  0  0  0
   22.0113  -18.2037  -14.7057 O   0  0  0  0  0  0  0  0  0  0  0  0
   22.0621  -25.8810  -12.9181 O   0  0  0  0  0  0  0  0  0  0  0  0
   14.7185  -14.7944  -11.8460 C   0  0  0  0  0  0  0  0  0  0  0  0
   15.6871  -15.3842  -12.6461 C   0  0  0  0  0  0  0  0  0  0  0  0
   17.0163  -15.0434  -12.5425 C   0  0  0  0  0  0  0  0  0  0  0  0
   17.9367  -15.6643  -13.3660 C   0  0  0  0  0  0  0  0  0  0  0  0
   17.5703  -16.6156  -14.2903 C   0  0  0  0  0  0  0  0  0  0  0  0
   18.5533  -17.2765  -15.1716 C   0  0  1  0  0  0  0  0  0  0  0  0
   19.2306  -18.4657  -14.5473 N   0  0  0  0  0  0  0  0  0  0  0  0
   20.0600  -19.0717  -15.5917 C   0  0  0  0  0  0  0  0  0  0  0  0
   18.2882  -19.5113  -14.0828 O   0  0  0  0  0  0  0  0  0  0  0  0
   17.9439  -20.4570  -14.8462 C   0  0  0  0  0  0  0  0  0  0  0  0
   16.2187  -16.9594  -14.3928 C   0  0  0  0  0  0  0  0  0  0  0  0
   15.3019  -16.3317  -13.5629 O   0  0  0  0  0  0  0  0  0  0  0  0
  2  1  1  6
  2  9  1  0
  2  3  1  0
  4  3  1  0
  4  5  2  0
  6  5  1  0
  7  8  2  0
  7  6  1  0
  8  4  1  0
  9 19  1  0
  9 10  2  0
 11 12  1  0
 12 14  1  0
 13 12  2  0
 15 14  1  0
 16 17  1  0
 16 15  1  0
 18 17  1  1
 19 18  1  0
 20 29  1  0
 20 18  1  0
 21 20  2  0
 22 23  1  0
 23 24  2  0
 24 25  1  0
 26 27  1  0
 26 25  2  0
 28 27  1  1
 28 30  1  0
 28 29  1  0
 30 34  1  0
 31 30  2  0
 32 26  1  0
 33 32  2  0
 33 23  1  0
M  END
$$$$
