HRY.pdb
     RDKit          3D

 34 35  0  0  1  0  0  0  0  0999 V2000
   21.8425  -19.3904  -20.6182 N   0  0  0  0  0  0  0  0  0  0  0  0
   22.4705  -19.0495  -19.3635 C   0  0  1  0  0  0  0  0  0  0  0  0
   21.6399  -18.0040  -18.6563 C   0  0  0  0  0  0  0  0  0  0  0  0
   21.8586  -16.6987  -19.2808 C   0  0  0  0  0  0  0  0  0  0  0  0
   20.9136  -15.9348  -19.9311 C   0  0  0  0  0  0  0  0  0  0  0  0
   21.4817  -14.7922  -20.3777 N   0  0  0  0  0  0  0  0  0  0  0  0
   22.7674  -14.8318  -20.0157 C   0  0  0  0  0  0  0  0  0  0  0  0
   22.9963  -15.9776  -19.3558 N   0  0  0  0  0  0  0  0  0  0  0  0
   22.6209  -20.2805  -18.5562 C   0  0  0  0  0  0  0  0  0  0  0  0
   21.7901  -21.1875  -18.6661 O   0  0  0  0  0  0  0  0  0  0  0  0
   28.2654  -19.4633  -13.3644 N   0  0  0  0  0  0  0  0  0  0  0  0
   27.8779  -20.8303  -13.2916 C   0  0  0  0  0  0  0  0  0  0  0  0
   27.8017  -21.3620  -12.1139 N   0  0  0  0  0  0  0  0  0  0  0  0
   27.5816  -21.6015  -14.4489 N   0  0  0  0  0  0  0  0  0  0  0  0
   27.4137  -20.9086  -15.6905 C   0  0  0  0  0  0  0  0  0  0  0  0
   25.9673  -20.5345  -15.9548 C   0  0  0  0  0  0  0  0  0  0  0  0
   25.2631  -21.8460  -16.3297 C   0  0  0  0  0  0  0  0  0  0  0  0
   23.8512  -21.6026  -16.7647 C   0  0  2  0  0  0  0  0  0  0  0  0
   23.6889  -20.4788  -17.6450 N   0  0  0  0  0  0  0  0  0  0  0  0
   23.0049  -21.4988  -15.5504 C   0  0  0  0  0  0  0  0  0  0  0  0
   22.8836  -22.4673  -14.7510 O   0  0  0  0  0  0  0  0  0  0  0  0
   27.5939  -22.3585  -11.9575 O   0  0  0  0  0  0  0  0  0  0  0  0
   26.3795  -20.8457   -9.9198 C   0  0  0  0  0  0  0  0  0  0  0  0
   25.3268  -20.4144  -10.7147 C   0  0  0  0  0  0  0  0  0  0  0  0
   24.0158  -20.6458  -10.3665 C   0  0  0  0  0  0  0  0  0  0  0  0
   23.0084  -20.1927  -11.1976 C   0  0  0  0  0  0  0  0  0  0  0  0
   23.2702  -19.5153  -12.3664 C   0  0  0  0  0  0  0  0  0  0  0  0
   22.1940  -19.0340  -13.2552 C   0  0  2  0  0  0  0  0  0  0  0  0
   21.5271  -20.1222  -14.0513 N   0  0  0  0  0  0  0  0  0  0  0  0
   22.3146  -20.2885  -15.2753 C   0  0  0  0  0  0  0  0  0  0  0  0
   20.1439  -19.7915  -14.4690 O   0  0  0  0  0  0  0  0  0  0  0  0
   19.1882  -19.8487  -13.6449 C   0  0  0  0  0  0  0  0  0  0  0  0
   24.6037  -19.2820  -12.7170 C   0  0  0  0  0  0  0  0  0  0  0  0
   25.6082  -19.7399  -11.8777 O   0  0  0  0  0  0  0  0  0  0  0  0
  2  1  1  6
  2  9  1  0
  2  3  1  0
  4  3  1  0
  4  5  2  0
  6  5  1  0
  7  8  2  0
  7  6  1  0
  8  4  1  0
  9 19  1  0
  9 10  2  0
 11 12  1  0
 12 14  1  0
 13 12  2  0
 15 14  1  0
 16 17  1  0
 16 15  1  0
 18 17  1  1
 19 18  1  0
 20 29  1  0
 20 18  1  0
 21 20  2  0
 22 23  1  0
 23 24  2  0
 24 25  1  0
 26 27  1  0
 26 25  2  0
 28 27  1  1
 28 30  1  0
 28 29  1  0
 30 34  1  0
 31 30  2  0
 32 26  1  0
 33 32  2  0
 33 23  1  0
M  END
$$$$
