HRY.pdb
     RDKit          3D

 34 35  0  0  1  0  0  0  0  0999 V2000
   21.9576  -14.5441  -19.7864 N   0  0  0  0  0  0  0  0  0  0  0  0
   22.6273  -14.7135  -18.5185 C   0  0  1  0  0  0  0  0  0  0  0  0
   21.7810  -14.1107  -17.4214 C   0  0  0  0  0  0  0  0  0  0  0  0
   21.7394  -12.6561  -17.5769 C   0  0  0  0  0  0  0  0  0  0  0  0
   22.6583  -11.7546  -17.0847 C   0  0  0  0  0  0  0  0  0  0  0  0
   22.2907  -10.4991  -17.4256 N   0  0  0  0  0  0  0  0  0  0  0  0
   21.1559  -10.6038  -18.1233 C   0  0  0  0  0  0  0  0  0  0  0  0
   20.8224  -11.9003  -18.2156 N   0  0  0  0  0  0  0  0  0  0  0  0
   22.8766  -16.1557  -18.3004 C   0  0  0  0  0  0  0  0  0  0  0  0
   21.9578  -16.9649  -18.4619 O   0  0  0  0  0  0  0  0  0  0  0  0
   27.0152  -22.3827  -15.3573 N   0  0  0  0  0  0  0  0  0  0  0  0
   27.4921  -22.4608  -16.6954 C   0  0  0  0  0  0  0  0  0  0  0  0
   27.5907  -23.6397  -17.2208 N   0  0  0  0  0  0  0  0  0  0  0  0
   27.8517  -21.3075  -17.4454 N   0  0  0  0  0  0  0  0  0  0  0  0
   27.5524  -20.0242  -16.8852 C   0  0  0  0  0  0  0  0  0  0  0  0
   26.0602  -19.7646  -16.7953 C   0  0  0  0  0  0  0  0  0  0  0  0
   25.8564  -18.3383  -17.3251 C   0  0  0  0  0  0  0  0  0  0  0  0
   24.4020  -18.0038  -17.4468 C   0  0  2  0  0  0  0  0  0  0  0  0
   24.1387  -16.6689  -17.9083 N   0  0  0  0  0  0  0  0  0  0  0  0
   23.7507  -18.2930  -16.1454 C   0  0  0  0  0  0  0  0  0  0  0  0
   24.0458  -17.6422  -15.1057 O   0  0  0  0  0  0  0  0  0  0  0  0
   27.9689  -23.8068  -18.1641 O   0  0  0  0  0  0  0  0  0  0  0  0
   17.7534  -19.0309  -10.1075 C   0  0  0  0  0  0  0  0  0  0  0  0
   18.5966  -18.8759  -11.1989 C   0  0  0  0  0  0  0  0  0  0  0  0
   18.1637  -19.1032  -12.4852 C   0  0  0  0  0  0  0  0  0  0  0  0
   19.0485  -18.9327  -13.5334 C   0  0  0  0  0  0  0  0  0  0  0  0
   20.3533  -18.5422  -13.3365 C   0  0  0  0  0  0  0  0  0  0  0  0
   21.2988  -18.3630  -14.4561 C   0  0  1  0  0  0  0  0  0  0  0  0
   22.0739  -19.6040  -14.8053 N   0  0  0  0  0  0  0  0  0  0  0  0
   22.7746  -19.3211  -16.0604 C   0  0  0  0  0  0  0  0  0  0  0  0
   21.2197  -20.7913  -15.0454 O   0  0  0  0  0  0  0  0  0  0  0  0
   20.8209  -21.0764  -16.2096 C   0  0  0  0  0  0  0  0  0  0  0  0
   20.7896  -18.3121  -12.0279 C   0  0  0  0  0  0  0  0  0  0  0  0
   19.8955  -18.4853  -10.9822 O   0  0  0  0  0  0  0  0  0  0  0  0
  2  1  1  6
  2  9  1  0
  2  3  1  0
  4  3  1  0
  4  5  2  0
  6  5  1  0
  7  8  2  0
  7  6  1  0
  8  4  1  0
  9 19  1  0
  9 10  2  0
 11 12  1  0
 12 14  1  0
 13 12  2  0
 15 14  1  0
 16 17  1  0
 16 15  1  0
 18 17  1  1
 19 18  1  0
 20 29  1  0
 20 18  1  0
 21 20  2  0
 22 23  1  0
 23 24  2  0
 24 25  1  0
 26 27  1  0
 26 25  2  0
 28 27  1  1
 28 30  1  0
 28 29  1  0
 30 34  1  0
 31 30  2  0
 32 26  1  0
 33 32  2  0
 33 23  1  0
M  END
$$$$
