HRY.pdb
     RDKit          3D

 34 35  0  0  1  0  0  0  0  0999 V2000
   27.2141  -19.8679  -17.8271 N   0  0  0  0  0  0  0  0  0  0  0  0
   27.4003  -19.0414  -16.6578 C   0  0  1  0  0  0  0  0  0  0  0  0
   26.2776  -18.0337  -16.5737 C   0  0  0  0  0  0  0  0  0  0  0  0
   26.4165  -17.0533  -17.6514 C   0  0  0  0  0  0  0  0  0  0  0  0
   27.5439  -16.3181  -17.9476 C   0  0  0  0  0  0  0  0  0  0  0  0
   27.2982  -15.5168  -19.0083 N   0  0  0  0  0  0  0  0  0  0  0  0
   26.0339  -15.7410  -19.3784 C   0  0  0  0  0  0  0  0  0  0  0  0
   25.5017  -16.6649  -18.5636 N   0  0  0  0  0  0  0  0  0  0  0  0
   27.4571  -19.9125  -15.4630 C   0  0  0  0  0  0  0  0  0  0  0  0
   26.5382  -20.7077  -15.2435 O   0  0  0  0  0  0  0  0  0  0  0  0
   32.1822  -24.1503  -12.6461 N   0  0  0  0  0  0  0  0  0  0  0  0
   32.7612  -23.1548  -11.8108 C   0  0  0  0  0  0  0  0  0  0  0  0
   33.7137  -23.5282  -11.0178 N   0  0  0  0  0  0  0  0  0  0  0  0
   32.3298  -21.8000  -11.8275 N   0  0  0  0  0  0  0  0  0  0  0  0
   31.3719  -21.3901  -10.8454 C   0  0  0  0  0  0  0  0  0  0  0  0
   29.9478  -21.4456  -11.3657 C   0  0  0  0  0  0  0  0  0  0  0  0
   29.9526  -20.6362  -12.6700 C   0  0  0  0  0  0  0  0  0  0  0  0
   28.5893  -20.5874  -13.2873 C   0  0  2  0  0  0  0  0  0  0  0  0
   28.5312  -19.8828  -14.5381 N   0  0  0  0  0  0  0  0  0  0  0  0
   27.6463  -20.0378  -12.2822 C   0  0  0  0  0  0  0  0  0  0  0  0
   27.4834  -18.7940  -12.1473 O   0  0  0  0  0  0  0  0  0  0  0  0
   34.2119  -22.8807  -10.3907 O   0  0  0  0  0  0  0  0  0  0  0  0
   19.2650  -19.7904  -10.4902 C   0  0  0  0  0  0  0  0  0  0  0  0
   20.5677  -20.0205  -10.9099 C   0  0  0  0  0  0  0  0  0  0  0  0
   20.8554  -20.3957  -12.2022 C   0  0  0  0  0  0  0  0  0  0  0  0
   22.1722  -20.6112  -12.5633 C   0  0  0  0  0  0  0  0  0  0  0  0
   23.2111  -20.4637  -11.6731 C   0  0  0  0  0  0  0  0  0  0  0  0
   24.6171  -20.6967  -12.0585 C   0  0  1  0  0  0  0  0  0  0  0  0
   25.5934  -20.5526  -10.9232 N   0  0  0  0  0  0  0  0  0  0  0  0
   26.9085  -20.9229  -11.4520 C   0  0  0  0  0  0  0  0  0  0  0  0
   25.3164  -21.4566   -9.7818 O   0  0  0  0  0  0  0  0  0  0  0  0
   24.9304  -20.9960   -8.6707 C   0  0  0  0  0  0  0  0  0  0  0  0
   22.9148  -20.0822  -10.3607 C   0  0  0  0  0  0  0  0  0  0  0  0
   21.5913  -19.8680  -10.0067 O   0  0  0  0  0  0  0  0  0  0  0  0
  2  1  1  6
  2  9  1  0
  2  3  1  0
  4  3  1  0
  4  5  2  0
  6  5  1  0
  7  8  2  0
  7  6  1  0
  8  4  1  0
  9 19  1  0
  9 10  2  0
 11 12  1  0
 12 14  1  0
 13 12  2  0
 15 14  1  0
 16 17  1  0
 16 15  1  0
 18 17  1  1
 19 18  1  0
 20 29  1  0
 20 18  1  0
 21 20  2  0
 22 23  1  0
 23 24  2  0
 24 25  1  0
 26 27  1  0
 26 25  2  0
 28 27  1  6
 28 30  1  0
 28 29  1  0
 30 34  1  0
 31 30  2  0
 32 26  1  0
 33 32  2  0
 33 23  1  0
M  END
$$$$
