HRY.pdb
     RDKit          3D

 34 35  0  0  1  0  0  0  0  0999 V2000
   27.7879  -29.8874  -18.7506 N   0  0  0  0  0  0  0  0  0  0  0  0
   26.7875  -29.8873  -17.7095 C   0  0  1  0  0  0  0  0  0  0  0  0
   27.4616  -30.0584  -16.3681 C   0  0  0  0  0  0  0  0  0  0  0  0
   28.0552  -31.3934  -16.2839 C   0  0  0  0  0  0  0  0  0  0  0  0
   27.3816  -32.5752  -16.0625 C   0  0  0  0  0  0  0  0  0  0  0  0
   28.2595  -33.6031  -16.0494 N   0  0  0  0  0  0  0  0  0  0  0  0
   29.4712  -33.0802  -16.2594 C   0  0  0  0  0  0  0  0  0  0  0  0
   29.3506  -31.7513  -16.4007 N   0  0  0  0  0  0  0  0  0  0  0  0
   26.0177  -28.6260  -17.7887 C   0  0  0  0  0  0  0  0  0  0  0  0
   26.4507  -27.6885  -18.4660 O   0  0  0  0  0  0  0  0  0  0  0  0
   21.7614  -25.4128  -22.8552 N   0  0  0  0  0  0  0  0  0  0  0  0
   23.0815  -25.4573  -22.3264 C   0  0  0  0  0  0  0  0  0  0  0  0
   24.0600  -25.3629  -23.1685 N   0  0  0  0  0  0  0  0  0  0  0  0
   23.3415  -25.5989  -20.9356 N   0  0  0  0  0  0  0  0  0  0  0  0
   22.2478  -25.4226  -20.0285 C   0  0  0  0  0  0  0  0  0  0  0  0
   22.6540  -25.6351  -18.5822 C   0  0  0  0  0  0  0  0  0  0  0  0
   23.5049  -26.9127  -18.5753 C   0  0  0  0  0  0  0  0  0  0  0  0
   23.9562  -27.2607  -17.1908 C   0  0  2  0  0  0  0  0  0  0  0  0
   24.7850  -28.4319  -17.1157 N   0  0  0  0  0  0  0  0  0  0  0  0
   22.7557  -27.3588  -16.3243 C   0  0  0  0  0  0  0  0  0  0  0  0
   21.8670  -28.2298  -16.5315 O   0  0  0  0  0  0  0  0  0  0  0  0
   25.0441  -25.5210  -22.9094 O   0  0  0  0  0  0  0  0  0  0  0  0
   17.8789  -25.7505   -9.0640 C   0  0  0  0  0  0  0  0  0  0  0  0
   18.8271  -25.7056  -10.0765 C   0  0  0  0  0  0  0  0  0  0  0  0
   18.7914  -24.7422  -11.0585 C   0  0  0  0  0  0  0  0  0  0  0  0
   19.7627  -24.7469  -12.0420 C   0  0  0  0  0  0  0  0  0  0  0  0
   20.7691  -25.6848  -12.0752 C   0  0  0  0  0  0  0  0  0  0  0  0
   21.8047  -25.6912  -13.1275 C   0  0  1  0  0  0  0  0  0  0  0  0
   21.4952  -26.6029  -14.2832 N   0  0  0  0  0  0  0  0  0  0  0  0
   22.5969  -26.4580  -15.2379 C   0  0  0  0  0  0  0  0  0  0  0  0
   20.2495  -26.2483  -15.0039 O   0  0  0  0  0  0  0  0  0  0  0  0
   20.2343  -25.3053  -15.8441 C   0  0  0  0  0  0  0  0  0  0  0  0
   20.8022  -26.6623  -11.0756 C   0  0  0  0  0  0  0  0  0  0  0  0
   19.8241  -26.6503  -10.0927 O   0  0  0  0  0  0  0  0  0  0  0  0
  2  1  1  6
  2  9  1  0
  2  3  1  0
  4  3  1  0
  4  5  2  0
  6  5  1  0
  7  8  2  0
  7  6  1  0
  8  4  1  0
  9 19  1  0
  9 10  2  0
 11 12  1  0
 12 14  1  0
 13 12  2  0
 15 14  1  0
 16 17  1  0
 16 15  1  0
 18 17  1  6
 19 18  1  0
 20 29  1  0
 20 18  1  0
 21 20  2  0
 22 23  1  0
 23 24  2  0
 24 25  1  0
 26 27  1  0
 26 25  2  0
 28 27  1  1
 28 30  1  0
 28 29  1  0
 30 34  1  0
 31 30  2  0
 32 26  1  0
 33 32  2  0
 33 23  1  0
M  END
$$$$
