DGN.pdb
     RDKit          3D

 21 20  0  0  1  0  0  0  0  0999 V2000
    9.2355  -16.6473   20.1301 N   0  0  0  0  0  0  0  0  0  0  0  0
    8.1284  -15.9420   19.5382 C   0  0  1  0  0  0  0  0  0  0  0  0
    7.0067  -16.8881   19.1537 C   0  0  0  0  0  0  0  0  0  0  0  0
    7.4051  -17.8505   18.1299 C   0  0  0  0  0  0  0  0  0  0  0  0
    8.0812  -17.4655   17.1436 O   0  0  0  0  0  0  0  0  0  0  0  0
    7.5856  -14.9775   20.5254 C   0  0  0  0  0  0  0  0  0  0  0  0
    6.7531  -14.0909   20.2051 O   0  0  0  0  0  0  0  0  0  0  0  0
    7.0648  -19.1882   18.2053 O   0  0  0  0  0  0  0  0  0  0  0  0
    7.9860  -15.0141   21.8879 N   0  0  0  0  0  0  0  0  0  0  0  0
    7.3207  -14.2056   22.8482 C   0  0  0  0  0  0  0  0  0  0  0  0
    7.9289  -14.2630   24.1998 C   0  0  0  0  0  0  0  0  0  0  0  0
    7.2838  -13.8109   25.1674 O   0  0  0  0  0  0  0  0  0  0  0  0
    7.6873  -18.8255   26.4243 N   0  0  0  0  0  0  0  0  0  0  0  0
    8.2380  -17.5704   26.7239 C   0  0  0  0  0  0  0  0  0  0  0  0
    8.8613  -17.3181   27.8115 O   0  0  0  0  0  0  0  0  0  0  0  0
    8.0962  -16.4698   25.7351 C   0  0  0  0  0  0  0  0  0  0  0  0
    9.4644  -15.9518   25.3147 C   0  0  2  0  0  0  0  0  0  0  0  0
    9.2153  -14.8120   24.4216 N   0  0  0  0  0  0  0  0  0  0  0  0
   10.3089  -16.9599   24.6755 C   0  0  0  0  0  0  0  0  0  0  0  0
   10.0063  -17.4791   23.4277 O   0  0  0  0  0  0  0  0  0  0  0  0
   11.3734  -17.4316   25.2099 O   0  0  0  0  0  0  0  0  0  0  0  0
  2  3  1  0
  2  1  1  1
  3  4  1  0
  4  8  1  0
  4  5  2  0
  6  9  1  0
  6  2  1  0
  7  6  2  0
 10  9  1  0
 11 10  1  0
 11 18  1  0
 12 11  2  0
 13 14  1  0
 14 15  2  0
 14 16  1  0
 17 16  1  6
 17 18  1  0
 17 19  1  0
 19 21  2  0
 19 20  1  0
M  END
$$$$
