DGN.pdb
     RDKit          3D

 21 20  0  0  1  0  0  0  0  0999 V2000
    8.6070  -17.7077   19.7210 N   0  0  0  0  0  0  0  0  0  0  0  0
    7.9770  -16.6659   18.9521 C   0  0  1  0  0  0  0  0  0  0  0  0
    6.7791  -17.1887   18.1821 C   0  0  0  0  0  0  0  0  0  0  0  0
    7.1423  -18.1917   17.1846 C   0  0  0  0  0  0  0  0  0  0  0  0
    8.1775  -18.0328   16.4908 O   0  0  0  0  0  0  0  0  0  0  0  0
    7.4939  -15.6091   19.8736 C   0  0  0  0  0  0  0  0  0  0  0  0
    6.9557  -14.5524   19.4548 O   0  0  0  0  0  0  0  0  0  0  0  0
    6.3825  -19.3268   16.9721 O   0  0  0  0  0  0  0  0  0  0  0  0
    7.6191  -15.7461   21.2819 N   0  0  0  0  0  0  0  0  0  0  0  0
    7.0922  -14.7480   22.1449 C   0  0  0  0  0  0  0  0  0  0  0  0
    7.3253  -15.0206   23.5841 C   0  0  0  0  0  0  0  0  0  0  0  0
    6.8292  -14.2480   24.4288 O   0  0  0  0  0  0  0  0  0  0  0  0
    6.6871  -16.6955   26.0174 N   0  0  0  0  0  0  0  0  0  0  0  0
    7.7029  -17.6174   26.3118 C   0  0  0  0  0  0  0  0  0  0  0  0
    7.5058  -18.6913   26.9773 O   0  0  0  0  0  0  0  0  0  0  0  0
    9.0824  -17.3430   25.8314 C   0  0  0  0  0  0  0  0  0  0  0  0
    9.1275  -16.0301   25.0625 C   0  0  2  0  0  0  0  0  0  0  0  0
    8.0925  -16.1266   24.0241 N   0  0  0  0  0  0  0  0  0  0  0  0
   10.4370  -15.7244   24.4883 C   0  0  0  0  0  0  0  0  0  0  0  0
   10.7020  -15.9051   23.1410 O   0  0  0  0  0  0  0  0  0  0  0  0
   11.4214  -15.2743   25.1737 O   0  0  0  0  0  0  0  0  0  0  0  0
  2  3  1  0
  2  1  1  1
  3  4  1  0
  4  8  1  0
  4  5  2  0
  6  9  1  0
  6  2  1  0
  7  6  2  0
 10  9  1  0
 11 10  1  0
 11 18  1  0
 12 11  2  0
 13 14  1  0
 14 15  2  0
 14 16  1  0
 17 16  1  6
 17 18  1  0
 17 19  1  0
 19 21  2  0
 19 20  1  0
M  END
$$$$
