DGN.pdb
     RDKit          3D

 21 20  0  0  1  0  0  0  0  0999 V2000
    9.6499  -13.8024   17.5969 N   0  0  0  0  0  0  0  0  0  0  0  0
    8.2336  -14.0320   17.4747 C   0  0  1  0  0  0  0  0  0  0  0  0
    7.9176  -14.9594   16.3167 C   0  0  0  0  0  0  0  0  0  0  0  0
    8.4445  -14.4742   15.0439 C   0  0  0  0  0  0  0  0  0  0  0  0
    9.5849  -14.8386   14.6632 O   0  0  0  0  0  0  0  0  0  0  0  0
    7.7389  -14.6761   18.7156 C   0  0  0  0  0  0  0  0  0  0  0  0
    6.5304  -14.9876   18.8706 O   0  0  0  0  0  0  0  0  0  0  0  0
    7.7268  -13.6194   14.2284 O   0  0  0  0  0  0  0  0  0  0  0  0
    8.6169  -14.9720   19.7924 N   0  0  0  0  0  0  0  0  0  0  0  0
    8.0943  -15.4141   21.0374 C   0  0  0  0  0  0  0  0  0  0  0  0
    9.1377  -15.7440   22.0386 C   0  0  0  0  0  0  0  0  0  0  0  0
   10.3049  -15.3506   21.8402 O   0  0  0  0  0  0  0  0  0  0  0  0
    8.6011  -13.2811   25.1724 N   0  0  0  0  0  0  0  0  0  0  0  0
    7.3808  -13.9647   25.0630 C   0  0  0  0  0  0  0  0  0  0  0  0
    6.2428  -13.3959   25.1914 O   0  0  0  0  0  0  0  0  0  0  0  0
    7.3984  -15.4245   24.7838 C   0  0  0  0  0  0  0  0  0  0  0  0
    8.8241  -15.9058   24.5542 C   0  0  2  0  0  0  0  0  0  0  0  0
    8.8481  -16.4907   23.2066 N   0  0  0  0  0  0  0  0  0  0  0  0
    9.2981  -16.8556   25.5599 C   0  0  0  0  0  0  0  0  0  0  0  0
   10.4387  -16.6160   26.3080 O   0  0  0  0  0  0  0  0  0  0  0  0
    8.7063  -17.9613   25.8218 O   0  0  0  0  0  0  0  0  0  0  0  0
  2  3  1  0
  2  1  1  1
  3  4  1  0
  4  8  1  0
  4  5  2  0
  6  9  1  0
  6  2  1  0
  7  6  2  0
 10  9  1  0
 11 10  1  0
 11 18  1  0
 12 11  2  0
 13 14  1  0
 14 15  2  0
 14 16  1  0
 17 16  1  1
 17 18  1  0
 17 19  1  0
 19 21  2  0
 19 20  1  0
M  END
$$$$
