DGN.pdb
     RDKit          3D

 21 20  0  0  1  0  0  0  0  0999 V2000
    7.1718  -17.9020   21.6052 N   0  0  0  0  0  0  0  0  0  0  0  0
    8.1260  -17.7186   20.5425 C   0  0  1  0  0  0  0  0  0  0  0  0
    7.4533  -17.2591   19.2629 C   0  0  0  0  0  0  0  0  0  0  0  0
    7.0955  -18.3682   18.3826 C   0  0  0  0  0  0  0  0  0  0  0  0
    7.3420  -19.5480   18.7367 O   0  0  0  0  0  0  0  0  0  0  0  0
    9.0989  -16.6725   20.9407 C   0  0  0  0  0  0  0  0  0  0  0  0
    9.9211  -16.1801   20.1265 O   0  0  0  0  0  0  0  0  0  0  0  0
    6.4851  -18.1685   17.1584 O   0  0  0  0  0  0  0  0  0  0  0  0
    9.1441  -16.1768   22.2712 N   0  0  0  0  0  0  0  0  0  0  0  0
   10.1095  -15.2002   22.6355 C   0  0  0  0  0  0  0  0  0  0  0  0
    9.9343  -14.6727   24.0107 C   0  0  0  0  0  0  0  0  0  0  0  0
   10.7720  -13.8607   24.4528 O   0  0  0  0  0  0  0  0  0  0  0  0
    5.6543  -12.8546   25.8345 N   0  0  0  0  0  0  0  0  0  0  0  0
    6.9882  -13.1344   26.1672 C   0  0  0  0  0  0  0  0  0  0  0  0
    7.9237  -12.2644   26.1114 O   0  0  0  0  0  0  0  0  0  0  0  0
    7.3449  -14.5082   26.6083 C   0  0  0  0  0  0  0  0  0  0  0  0
    8.7996  -14.8126   26.2792 C   0  0  2  0  0  0  0  0  0  0  0  0
    8.8493  -15.0641   24.8324 N   0  0  0  0  0  0  0  0  0  0  0  0
    9.3573  -15.9312   27.0379 C   0  0  0  0  0  0  0  0  0  0  0  0
    9.6329  -15.8283   28.3913 O   0  0  0  0  0  0  0  0  0  0  0  0
    9.6288  -17.0708   26.5195 O   0  0  0  0  0  0  0  0  0  0  0  0
  2  3  1  0
  2  1  1  1
  3  4  1  0
  4  8  1  0
  4  5  2  0
  6  9  1  0
  6  2  1  0
  7  6  2  0
 10  9  1  0
 11 10  1  0
 11 18  1  0
 12 11  2  0
 13 14  1  0
 14 15  2  0
 14 16  1  0
 17 16  1  1
 17 18  1  0
 17 19  1  0
 19 21  2  0
 19 20  1  0
M  END
$$$$
