DGN.pdb
     RDKit          3D

 21 20  0  0  1  0  0  0  0  0999 V2000
    8.5517  -15.8576   18.3660 N   0  0  0  0  0  0  0  0  0  0  0  0
    8.5360  -14.4370   18.6002 C   0  0  1  0  0  0  0  0  0  0  0  0
    7.6501  -13.7174   17.6011 C   0  0  0  0  0  0  0  0  0  0  0  0
    8.0879  -13.9041   16.2203 C   0  0  0  0  0  0  0  0  0  0  0  0
    8.7474  -14.9273   15.9097 O   0  0  0  0  0  0  0  0  0  0  0  0
    7.9917  -14.1758   19.9548 C   0  0  0  0  0  0  0  0  0  0  0  0
    8.0124  -13.0305   20.4738 O   0  0  0  0  0  0  0  0  0  0  0  0
    7.7992  -12.9876   15.2265 O   0  0  0  0  0  0  0  0  0  0  0  0
    7.4178  -15.2176   20.7315 N   0  0  0  0  0  0  0  0  0  0  0  0
    6.9117  -14.9425   22.0302 C   0  0  0  0  0  0  0  0  0  0  0  0
    7.9596  -14.8839   23.0783 C   0  0  0  0  0  0  0  0  0  0  0  0
    9.1533  -15.0183   22.7411 O   0  0  0  0  0  0  0  0  0  0  0  0
    7.9367  -12.0860   25.2882 N   0  0  0  0  0  0  0  0  0  0  0  0
    7.6089  -12.6794   26.5166 C   0  0  0  0  0  0  0  0  0  0  0  0
    7.0134  -12.0564   27.4611 O   0  0  0  0  0  0  0  0  0  0  0  0
    7.9669  -14.1039   26.7438 C   0  0  0  0  0  0  0  0  0  0  0  0
    8.6518  -14.6837   25.5143 C   0  0  2  0  0  0  0  0  0  0  0  0
    7.6449  -14.6823   24.4443 N   0  0  0  0  0  0  0  0  0  0  0  0
    9.2122  -16.0182   25.7220 C   0  0  0  0  0  0  0  0  0  0  0  0
   10.4676  -16.2030   26.2771 O   0  0  0  0  0  0  0  0  0  0  0  0
    8.5973  -17.0987   25.4128 O   0  0  0  0  0  0  0  0  0  0  0  0
  2  3  1  0
  2  1  1  6
  3  4  1  0
  4  8  1  0
  4  5  2  0
  6  9  1  0
  6  2  1  0
  7  6  2  0
 10  9  1  0
 11 10  1  0
 11 18  1  0
 12 11  2  0
 13 14  1  0
 14 15  2  0
 14 16  1  0
 17 16  1  1
 17 18  1  0
 17 19  1  0
 19 21  2  0
 19 20  1  0
M  END
$$$$
