DGN.pdb
     RDKit          3D

 21 20  0  0  1  0  0  0  0  0999 V2000
    9.9387  -13.9097   18.8316 N   0  0  0  0  0  0  0  0  0  0  0  0
    8.7048  -13.2026   19.0572 C   0  0  1  0  0  0  0  0  0  0  0  0
    7.6719  -13.5319   17.9962 C   0  0  0  0  0  0  0  0  0  0  0  0
    8.2190  -14.3328   16.9042 C   0  0  0  0  0  0  0  0  0  0  0  0
    8.8466  -15.3901   17.1620 O   0  0  0  0  0  0  0  0  0  0  0  0
    8.1472  -13.6089   20.3700 C   0  0  0  0  0  0  0  0  0  0  0  0
    7.2148  -12.9735   20.9254 O   0  0  0  0  0  0  0  0  0  0  0  0
    8.0694  -13.9696   15.5788 O   0  0  0  0  0  0  0  0  0  0  0  0
    8.6466  -14.7439   21.0630 N   0  0  0  0  0  0  0  0  0  0  0  0
    8.0113  -15.1889   22.2533 C   0  0  0  0  0  0  0  0  0  0  0  0
    8.6454  -14.6796   23.4937 C   0  0  0  0  0  0  0  0  0  0  0  0
    9.8295  -14.2897   23.4454 O   0  0  0  0  0  0  0  0  0  0  0  0
    5.8932  -14.4131   26.3076 N   0  0  0  0  0  0  0  0  0  0  0  0
    6.4402  -13.1648   26.6408 C   0  0  0  0  0  0  0  0  0  0  0  0
    5.7526  -12.2045   27.1307 O   0  0  0  0  0  0  0  0  0  0  0  0
    7.8916  -12.9346   26.4177 C   0  0  0  0  0  0  0  0  0  0  0  0
    8.5765  -14.2255   25.9921 C   0  0  2  0  0  0  0  0  0  0  0  0
    7.9485  -14.6253   24.7253 N   0  0  0  0  0  0  0  0  0  0  0  0
    8.5013  -15.2928   26.9887 C   0  0  0  0  0  0  0  0  0  0  0  0
    7.8179  -16.4722   26.7431 O   0  0  0  0  0  0  0  0  0  0  0  0
    9.0509  -15.2210   28.1437 O   0  0  0  0  0  0  0  0  0  0  0  0
  2  3  1  0
  2  1  1  6
  3  4  1  0
  4  8  1  0
  4  5  2  0
  6  9  1  0
  6  2  1  0
  7  6  2  0
 10  9  1  0
 11 10  1  0
 11 18  1  0
 12 11  2  0
 13 14  1  0
 14 15  2  0
 14 16  1  0
 17 16  1  1
 17 18  1  0
 17 19  1  0
 19 21  2  0
 19 20  1  0
M  END
$$$$
