DGN.pdb
     RDKit          3D

 21 20  0  0  1  0  0  0  0  0999 V2000
    8.9452  -18.9820   17.3669 N   0  0  0  0  0  0  0  0  0  0  0  0
    8.3158  -17.8712   16.7011 C   0  0  1  0  0  0  0  0  0  0  0  0
    6.9117  -18.2186   16.2442 C   0  0  0  0  0  0  0  0  0  0  0  0
    6.8538  -19.4739   15.5000 C   0  0  0  0  0  0  0  0  0  0  0  0
    7.5772  -19.6291   14.4846 O   0  0  0  0  0  0  0  0  0  0  0  0
    8.2130  -16.7345   17.6481 C   0  0  0  0  0  0  0  0  0  0  0  0
    7.2809  -15.8927   17.5828 O   0  0  0  0  0  0  0  0  0  0  0  0
    6.0245  -20.5142   15.8753 O   0  0  0  0  0  0  0  0  0  0  0  0
    9.1715  -16.5459   18.6794 N   0  0  0  0  0  0  0  0  0  0  0  0
    9.0001  -15.5040   19.6300 C   0  0  0  0  0  0  0  0  0  0  0  0
   10.0976  -15.4174   20.6240 C   0  0  0  0  0  0  0  0  0  0  0  0
   10.0200  -14.5633   21.5301 O   0  0  0  0  0  0  0  0  0  0  0  0
   10.0464  -17.4200   25.0801 N   0  0  0  0  0  0  0  0  0  0  0  0
   11.0107  -17.1847   24.0885 C   0  0  0  0  0  0  0  0  0  0  0  0
   12.2310  -16.9043   24.3477 O   0  0  0  0  0  0  0  0  0  0  0  0
   10.6055  -17.2621   22.6606 C   0  0  0  0  0  0  0  0  0  0  0  0
   11.7856  -16.9428   21.7539 C   0  0  2  0  0  0  0  0  0  0  0  0
   11.2261  -16.2714   20.5728 N   0  0  0  0  0  0  0  0  0  0  0  0
   12.5796  -18.1125   21.3804 C   0  0  0  0  0  0  0  0  0  0  0  0
   13.9031  -18.2479   21.7652 O   0  0  0  0  0  0  0  0  0  0  0  0
   12.1212  -19.0838   20.6820 O   0  0  0  0  0  0  0  0  0  0  0  0
  2  3  1  0
  2  1  1  1
  3  4  1  0
  4  8  1  0
  4  5  2  0
  6  9  1  0
  6  2  1  0
  7  6  2  0
 10  9  1  0
 11 10  1  0
 11 18  1  0
 12 11  2  0
 13 14  1  0
 14 15  2  0
 14 16  1  0
 17 16  1  1
 17 18  1  0
 17 19  1  0
 19 21  2  0
 19 20  1  0
M  END
$$$$
