DGN.pdb
     RDKit          3D

 21 20  0  0  1  0  0  0  0  0999 V2000
    6.5563  -20.2011   22.1176 N   0  0  0  0  0  0  0  0  0  0  0  0
    5.6517  -19.5146   23.0029 C   0  0  1  0  0  0  0  0  0  0  0  0
    5.9162  -19.8690   24.4539 C   0  0  0  0  0  0  0  0  0  0  0  0
    6.1781  -21.2924   24.6495 C   0  0  0  0  0  0  0  0  0  0  0  0
    6.1863  -22.0653   23.6591 O   0  0  0  0  0  0  0  0  0  0  0  0
    5.8456  -18.0519   22.8539 C   0  0  0  0  0  0  0  0  0  0  0  0
    5.1437  -17.2176   23.4807 O   0  0  0  0  0  0  0  0  0  0  0  0
    6.4233  -21.8306   25.8989 O   0  0  0  0  0  0  0  0  0  0  0  0
    6.8418  -17.5252   21.9890 N   0  0  0  0  0  0  0  0  0  0  0  0
    7.0916  -16.1269   21.9574 C   0  0  0  0  0  0  0  0  0  0  0  0
    8.2725  -15.7142   22.7543 C   0  0  0  0  0  0  0  0  0  0  0  0
    8.5910  -14.5080   22.7738 O   0  0  0  0  0  0  0  0  0  0  0  0
    8.2217  -15.8466   25.8493 N   0  0  0  0  0  0  0  0  0  0  0  0
    9.1396  -16.8081   26.2980 C   0  0  0  0  0  0  0  0  0  0  0  0
    9.0122  -17.4395   27.4026 O   0  0  0  0  0  0  0  0  0  0  0  0
   10.3243  -17.1174   25.4555 C   0  0  0  0  0  0  0  0  0  0  0  0
   10.2967  -16.2952   24.1749 C   0  0  2  0  0  0  0  0  0  0  0  0
    9.0458  -16.6460   23.4886 N   0  0  0  0  0  0  0  0  0  0  0  0
   11.4587  -16.5030   23.3120 C   0  0  0  0  0  0  0  0  0  0  0  0
   11.3861  -17.2772   22.1659 O   0  0  0  0  0  0  0  0  0  0  0  0
   12.6115  -15.9949   23.5449 O   0  0  0  0  0  0  0  0  0  0  0  0
  2  3  1  0
  2  1  1  6
  3  4  1  0
  4  8  1  0
  4  5  2  0
  6  9  1  0
  6  2  1  0
  7  6  2  0
 10  9  1  0
 11 10  1  0
 11 18  1  0
 12 11  2  0
 13 14  1  0
 14 15  2  0
 14 16  1  0
 17 16  1  1
 17 18  1  0
 17 19  1  0
 19 21  2  0
 19 20  1  0
M  END
$$$$
