DGN.pdb
     RDKit          3D

 21 20  0  0  1  0  0  0  0  0999 V2000
   10.2652  -16.3547   20.1952 N   0  0  0  0  0  0  0  0  0  0  0  0
    8.8869  -16.4279   19.7849 C   0  0  1  0  0  0  0  0  0  0  0  0
    8.5388  -17.8018   19.2444 C   0  0  0  0  0  0  0  0  0  0  0  0
    9.2598  -18.8755   19.9230 C   0  0  0  0  0  0  0  0  0  0  0  0
    8.6381  -19.6586   20.6836 O   0  0  0  0  0  0  0  0  0  0  0  0
    8.0181  -16.1724   20.9594 C   0  0  0  0  0  0  0  0  0  0  0  0
    6.7800  -15.9831   20.8459 O   0  0  0  0  0  0  0  0  0  0  0  0
   10.6186  -19.0686   19.7573 O   0  0  0  0  0  0  0  0  0  0  0  0
    8.5517  -16.1306   22.2752 N   0  0  0  0  0  0  0  0  0  0  0  0
    7.6947  -15.9016   23.3850 C   0  0  0  0  0  0  0  0  0  0  0  0
    8.2491  -14.9517   24.3802 C   0  0  0  0  0  0  0  0  0  0  0  0
    9.3862  -14.4761   24.1867 O   0  0  0  0  0  0  0  0  0  0  0  0
    6.6333  -11.9201   25.1146 N   0  0  0  0  0  0  0  0  0  0  0  0
    6.1488  -12.1397   26.4128 C   0  0  0  0  0  0  0  0  0  0  0  0
    5.1084  -11.5627   26.8814 O   0  0  0  0  0  0  0  0  0  0  0  0
    6.8728  -13.0891   27.2981 C   0  0  0  0  0  0  0  0  0  0  0  0
    8.0726  -13.6833   26.5741 C   0  0  2  0  0  0  0  0  0  0  0  0
    7.5283  -14.5727   25.5388 N   0  0  0  0  0  0  0  0  0  0  0  0
    9.0046  -14.3892   27.4521 C   0  0  0  0  0  0  0  0  0  0  0  0
    9.0700  -15.7723   27.4842 O   0  0  0  0  0  0  0  0  0  0  0  0
    9.8171  -13.7946   28.2443 O   0  0  0  0  0  0  0  0  0  0  0  0
  2  3  1  0
  2  1  1  1
  3  4  1  0
  4  8  1  0
  4  5  2  0
  6  9  1  0
  6  2  1  0
  7  6  2  0
 10  9  1  0
 11 10  1  0
 11 18  1  0
 12 11  2  0
 13 14  1  0
 14 15  2  0
 14 16  1  0
 17 16  1  1
 17 18  1  0
 17 19  1  0
 19 21  2  0
 19 20  1  0
M  END
$$$$
