DGN.pdb
     RDKit          3D

 21 20  0  0  1  0  0  0  0  0999 V2000
    7.1156  -15.3857   18.1513 N   0  0  0  0  0  0  0  0  0  0  0  0
    8.2437  -14.4916   18.1139 C   0  0  1  0  0  0  0  0  0  0  0  0
    8.1667  -13.5471   16.9294 C   0  0  0  0  0  0  0  0  0  0  0  0
    8.3161  -14.2331   15.6487 C   0  0  0  0  0  0  0  0  0  0  0  0
    8.4681  -15.4800   15.6249 O   0  0  0  0  0  0  0  0  0  0  0  0
    8.2496  -13.6680   19.3472 C   0  0  0  0  0  0  0  0  0  0  0  0
    9.2424  -12.9720   19.6810 O   0  0  0  0  0  0  0  0  0  0  0  0
    8.2940  -13.5555   14.4441 O   0  0  0  0  0  0  0  0  0  0  0  0
    7.1236  -13.6291   20.2123 N   0  0  0  0  0  0  0  0  0  0  0  0
    7.1800  -12.8874   21.4228 C   0  0  0  0  0  0  0  0  0  0  0  0
    7.6014  -13.6917   22.5957 C   0  0  0  0  0  0  0  0  0  0  0  0
    7.5996  -13.1556   23.7223 O   0  0  0  0  0  0  0  0  0  0  0  0
    8.5407  -18.3036   21.6119 N   0  0  0  0  0  0  0  0  0  0  0  0
    7.4724  -17.6325   22.2255 C   0  0  0  0  0  0  0  0  0  0  0  0
    6.3451  -17.4362   21.6546 O   0  0  0  0  0  0  0  0  0  0  0  0
    7.6472  -17.1189   23.6092 C   0  0  0  0  0  0  0  0  0  0  0  0
    8.4862  -15.8488   23.6040 C   0  0  2  0  0  0  0  0  0  0  0  0
    8.0051  -15.0435   22.4731 N   0  0  0  0  0  0  0  0  0  0  0  0
    9.9258  -16.0899   23.5172 C   0  0  0  0  0  0  0  0  0  0  0  0
   10.6654  -15.6953   22.4147 O   0  0  0  0  0  0  0  0  0  0  0  0
   10.6011  -16.6734   24.4363 O   0  0  0  0  0  0  0  0  0  0  0  0
  2  3  1  0
  2  1  1  1
  3  4  1  0
  4  8  1  0
  4  5  2  0
  6  9  1  0
  6  2  1  0
  7  6  2  0
 10  9  1  0
 11 10  1  0
 11 18  1  0
 12 11  2  0
 13 14  1  0
 14 15  2  0
 14 16  1  0
 17 16  1  6
 17 18  1  0
 17 19  1  0
 19 21  2  0
 19 20  1  0
M  END
$$$$
