DGN.pdb
     RDKit          3D

 21 20  0  0  1  0  0  0  0  0999 V2000
    8.8073  -18.1292   20.8054 N   0  0  0  0  0  0  0  0  0  0  0  0
    7.8232  -17.2726   20.1961 C   0  0  1  0  0  0  0  0  0  0  0  0
    6.9641  -18.0304   19.2019 C   0  0  0  0  0  0  0  0  0  0  0  0
    7.7103  -18.4598   18.0220 C   0  0  0  0  0  0  0  0  0  0  0  0
    8.4121  -17.6289   17.3934 O   0  0  0  0  0  0  0  0  0  0  0  0
    6.9273  -16.7385   21.2504 C   0  0  0  0  0  0  0  0  0  0  0  0
    5.9956  -15.9345   20.9911 O   0  0  0  0  0  0  0  0  0  0  0  0
    7.6763  -19.7638   17.5643 O   0  0  0  0  0  0  0  0  0  0  0  0
    7.0841  -17.1157   22.6109 N   0  0  0  0  0  0  0  0  0  0  0  0
    6.2541  -16.5403   23.6103 C   0  0  0  0  0  0  0  0  0  0  0  0
    6.4275  -17.1484   24.9519 C   0  0  0  0  0  0  0  0  0  0  0  0
    5.7116  -16.7446   25.8905 O   0  0  0  0  0  0  0  0  0  0  0  0
    7.4167  -21.3196   28.5993 N   0  0  0  0  0  0  0  0  0  0  0  0
    8.3218  -20.7741   27.6765 C   0  0  0  0  0  0  0  0  0  0  0  0
    9.5872  -20.7569   27.8596 O   0  0  0  0  0  0  0  0  0  0  0  0
    7.7955  -20.1832   26.4184 C   0  0  0  0  0  0  0  0  0  0  0  0
    7.6993  -18.6690   26.5405 C   0  0  2  0  0  0  0  0  0  0  0  0
    7.3792  -18.1682   25.1968 N   0  0  0  0  0  0  0  0  0  0  0  0
    8.9064  -18.0397   27.0743 C   0  0  0  0  0  0  0  0  0  0  0  0
    9.2205  -18.0923   28.4222 O   0  0  0  0  0  0  0  0  0  0  0  0
    9.7505  -17.4033   26.3505 O   0  0  0  0  0  0  0  0  0  0  0  0
  2  3  1  0
  2  1  1  1
  3  4  1  0
  4  8  1  0
  4  5  2  0
  6  9  1  0
  6  2  1  0
  7  6  2  0
 10  9  1  0
 11 10  1  0
 11 18  1  0
 12 11  2  0
 13 14  1  0
 14 15  2  0
 14 16  1  0
 17 16  1  6
 17 18  1  0
 17 19  1  0
 19 21  2  0
 19 20  1  0
M  END
$$$$
