HQD.pdb
     RDKit          3D

 28 28  0  0  1  0  0  0  0  0999 V2000
   11.1118  -15.8127   19.9206 N   0  0  0  0  0  0  0  0  0  0  0  0
    9.7872  -15.9019   20.5254 C   0  0  1  0  0  0  0  0  0  0  0  0
    9.3123  -17.3468   20.3480 C   0  0  0  0  0  0  0  0  0  0  0  0
    8.8319  -17.5649   18.9560 C   0  0  0  0  0  0  0  0  0  0  0  0
    9.2101  -16.9106   17.8239 C   0  0  0  0  0  0  0  0  0  0  0  0
    8.5102  -17.4443   16.7921 N   0  0  0  0  0  0  0  0  0  0  0  0
    7.7066  -18.4183   17.2754 C   0  0  0  0  0  0  0  0  0  0  0  0
    7.9252  -18.4691   18.6016 N   0  0  0  0  0  0  0  0  0  0  0  0
    9.9235  -15.6974   21.9925 C   0  0  0  0  0  0  0  0  0  0  0  0
   10.9876  -16.0669   22.5322 O   0  0  0  0  0  0  0  0  0  0  0  0
    6.0216  -12.3629   25.4997 N   0  0  0  0  0  0  0  0  0  0  0  0
    6.8099  -12.9571   26.5298 C   0  0  0  0  0  0  0  0  0  0  0  0
    6.6688  -12.5031   27.6929 O   0  0  0  0  0  0  0  0  0  0  0  0
    7.7484  -14.0648   26.2050 C   0  0  0  0  0  0  0  0  0  0  0  0
    7.8077  -14.1927   24.7177 C   0  0  0  0  0  0  0  0  0  0  0  0
    8.9356  -15.0471   24.2194 C   0  0  2  0  0  0  0  0  0  0  0  0
    8.9076  -15.1076   22.7937 N   0  0  0  0  0  0  0  0  0  0  0  0
    8.9892  -16.3763   24.8682 C   0  0  0  0  0  0  0  0  0  0  0  0
    8.5762  -17.3989   24.2633 O   0  0  0  0  0  0  0  0  0  0  0  0
    9.4829  -16.6216   26.1638 N   0  0  0  0  0  0  0  0  0  0  0  0
   10.2378  -17.7367   26.5754 C   0  0  1  0  0  0  0  0  0  0  0  0
   11.4508  -18.0982   25.8122 C   0  0  0  0  0  0  0  0  0  0  0  0
   11.4419  -19.5285   25.3517 C   0  0  0  0  0  0  0  0  0  0  0  0
   12.2678  -20.3774   25.7742 O   0  0  0  0  0  0  0  0  0  0  0  0
   10.6098  -17.5943   28.0092 C   0  0  0  0  0  0  0  0  0  0  0  0
   10.3077  -16.4259   28.6951 O   0  0  0  0  0  0  0  0  0  0  0  0
   10.5150  -19.9928   24.4287 O   0  0  0  0  0  0  0  0  0  0  0  0
   11.1999  -18.4900   28.6674 O   0  0  0  0  0  0  0  0  0  0  0  0
  2  9  1  0
  2  1  1  6
  3  4  1  0
  3  2  1  0
  4  8  1  0
  5  6  1  0
  5  4  2  0
  6  7  1  0
  7  8  2  0
  9 17  1  0
 10  9  2  0
 12 14  1  0
 12 11  1  0
 13 12  2  0
 16 15  1  1
 15 14  1  0
 17 16  1  0
 18 20  1  0
 18 16  1  0
 19 18  2  0
 21 20  1  0
 21 22  1  6
 23 27  1  0
 23 22  1  0
 24 23  2  0
 25 21  1  0
 26 25  1  0
 28 25  2  0
M  END
$$$$
