HQD.pdb
     RDKit          3D

 28 28  0  0  1  0  0  0  0  0999 V2000
    8.1998  -17.4093   21.0988 N   0  0  0  0  0  0  0  0  0  0  0  0
    8.7678  -16.0823   21.3101 C   0  0  1  0  0  0  0  0  0  0  0  0
    7.5924  -15.1099   21.4430 C   0  0  0  0  0  0  0  0  0  0  0  0
    7.4948  -14.2498   20.2320 C   0  0  0  0  0  0  0  0  0  0  0  0
    7.4084  -14.6375   18.9300 C   0  0  0  0  0  0  0  0  0  0  0  0
    7.3391  -13.5136   18.1742 N   0  0  0  0  0  0  0  0  0  0  0  0
    7.3819  -12.4399   18.9947 C   0  0  0  0  0  0  0  0  0  0  0  0
    7.4771  -12.9213   20.2470 N   0  0  0  0  0  0  0  0  0  0  0  0
    9.4564  -16.0682   22.6287 C   0  0  0  0  0  0  0  0  0  0  0  0
   10.0841  -15.0351   22.9430 O   0  0  0  0  0  0  0  0  0  0  0  0
    8.0023  -19.0898   27.6959 N   0  0  0  0  0  0  0  0  0  0  0  0
    9.3379  -18.7470   28.0623 C   0  0  0  0  0  0  0  0  0  0  0  0
    9.7096  -19.0519   29.2232 O   0  0  0  0  0  0  0  0  0  0  0  0
   10.2251  -18.0586   27.0864 C   0  0  0  0  0  0  0  0  0  0  0  0
    9.4407  -17.8330   25.8352 C   0  0  0  0  0  0  0  0  0  0  0  0
   10.2443  -17.2719   24.6995 C   0  0  2  0  0  0  0  0  0  0  0  0
    9.4298  -17.1657   23.5323 N   0  0  0  0  0  0  0  0  0  0  0  0
   11.5146  -17.9963   24.4719 C   0  0  0  0  0  0  0  0  0  0  0  0
   11.5066  -19.2066   24.1291 O   0  0  0  0  0  0  0  0  0  0  0  0
   12.7986  -17.4348   24.6086 N   0  0  0  0  0  0  0  0  0  0  0  0
   14.0241  -18.0671   24.3239 C   0  0  1  0  0  0  0  0  0  0  0  0
   14.7117  -17.7517   23.0541 C   0  0  0  0  0  0  0  0  0  0  0  0
   15.1341  -16.3124   22.9648 C   0  0  0  0  0  0  0  0  0  0  0  0
   14.9721  -15.5027   23.9130 O   0  0  0  0  0  0  0  0  0  0  0  0
   14.9794  -17.8457   25.4432 C   0  0  0  0  0  0  0  0  0  0  0  0
   14.6064  -17.0756   26.5361 O   0  0  0  0  0  0  0  0  0  0  0  0
   15.7299  -15.7958   21.8224 O   0  0  0  0  0  0  0  0  0  0  0  0
   16.1431  -18.3243   25.4700 O   0  0  0  0  0  0  0  0  0  0  0  0
  2  9  1  0
  2  1  1  1
  3  4  1  0
  3  2  1  0
  4  8  1  0
  5  6  1  0
  5  4  2  0
  6  7  1  0
  7  8  2  0
  9 17  1  0
 10  9  2  0
 12 14  1  0
 12 11  1  0
 13 12  2  0
 16 15  1  1
 15 14  1  0
 17 16  1  0
 18 20  1  0
 18 16  1  0
 19 18  2  0
 21 20  1  0
 21 22  1  6
 23 27  1  0
 23 22  1  0
 24 23  2  0
 25 21  1  0
 26 25  1  0
 28 25  2  0
M  END
$$$$
