HQD.pdb
     RDKit          3D

 28 28  0  0  1  0  0  0  0  0999 V2000
   12.9342  -18.1811   16.6538 N   0  0  0  0  0  0  0  0  0  0  0  0
   12.7430  -18.9053   17.9056 C   0  0  1  0  0  0  0  0  0  0  0  0
   13.8215  -19.9908   17.9623 C   0  0  0  0  0  0  0  0  0  0  0  0
   13.4791  -21.1072   17.0390 C   0  0  0  0  0  0  0  0  0  0  0  0
   12.2498  -21.6214   16.7611 C   0  0  0  0  0  0  0  0  0  0  0  0
   12.4213  -22.6249   15.8652 N   0  0  0  0  0  0  0  0  0  0  0  0
   13.7402  -22.7343   15.5886 C   0  0  0  0  0  0  0  0  0  0  0  0
   14.3620  -21.7931   16.3213 N   0  0  0  0  0  0  0  0  0  0  0  0
   13.0373  -17.9824   19.0346 C   0  0  0  0  0  0  0  0  0  0  0  0
   13.8583  -17.0632   18.8320 O   0  0  0  0  0  0  0  0  0  0  0  0
    9.2131  -16.6772   23.5998 N   0  0  0  0  0  0  0  0  0  0  0  0
   10.3368  -15.9204   24.0474 C   0  0  0  0  0  0  0  0  0  0  0  0
   10.1598  -15.1600   25.0319 O   0  0  0  0  0  0  0  0  0  0  0  0
   11.6469  -16.0507   23.3545 C   0  0  0  0  0  0  0  0  0  0  0  0
   11.4709  -17.0054   22.2191 C   0  0  0  0  0  0  0  0  0  0  0  0
   12.7208  -17.2564   21.4285 C   0  0  2  0  0  0  0  0  0  0  0  0
   12.4317  -18.1018   20.3155 N   0  0  0  0  0  0  0  0  0  0  0  0
   13.8484  -17.7349   22.2592 C   0  0  0  0  0  0  0  0  0  0  0  0
   13.8925  -18.9304   22.6479 O   0  0  0  0  0  0  0  0  0  0  0  0
   14.9336  -16.9420   22.6792 N   0  0  0  0  0  0  0  0  0  0  0  0
   16.0372  -17.3691   23.4423 C   0  0  1  0  0  0  0  0  0  0  0  0
   17.2225  -16.4912   23.5360 C   0  0  0  0  0  0  0  0  0  0  0  0
   17.7976  -16.1471   22.1910 C   0  0  0  0  0  0  0  0  0  0  0  0
   18.4675  -15.1017   21.9923 O   0  0  0  0  0  0  0  0  0  0  0  0
   15.5962  -17.7119   24.8216 C   0  0  0  0  0  0  0  0  0  0  0  0
   16.4893  -18.2839   25.7171 O   0  0  0  0  0  0  0  0  0  0  0  0
   17.6189  -16.9707   21.0880 O   0  0  0  0  0  0  0  0  0  0  0  0
   14.4293  -17.5129   25.2488 O   0  0  0  0  0  0  0  0  0  0  0  0
  2  9  1  0
  2  1  1  6
  3  4  1  0
  3  2  1  0
  4  8  1  0
  5  6  1  0
  5  4  2  0
  6  7  1  0
  7  8  2  0
  9 17  1  0
 10  9  2  0
 12 14  1  0
 12 11  1  0
 13 12  2  0
 16 15  1  1
 15 14  1  0
 17 16  1  0
 18 20  1  0
 18 16  1  0
 19 18  2  0
 21 20  1  0
 21 22  1  1
 23 27  1  0
 23 22  1  0
 24 23  2  0
 25 21  1  0
 26 25  1  0
 28 25  2  0
M  END
$$$$
