HQD.pdb
     RDKit          3D

 28 28  0  0  1  0  0  0  0  0999 V2000
    9.8423  -15.7538   17.9976 N   0  0  0  0  0  0  0  0  0  0  0  0
   10.7626  -14.7363   18.4938 C   0  0  1  0  0  0  0  0  0  0  0  0
   10.1737  -14.2023   19.8025 C   0  0  0  0  0  0  0  0  0  0  0  0
    8.8371  -13.5947   19.5570 C   0  0  0  0  0  0  0  0  0  0  0  0
    8.5535  -12.3540   19.0742 C   0  0  0  0  0  0  0  0  0  0  0  0
    7.2035  -12.2375   19.0187 N   0  0  0  0  0  0  0  0  0  0  0  0
    6.6535  -13.3906   19.4612 C   0  0  0  0  0  0  0  0  0  0  0  0
    7.6770  -14.2016   19.7832 N   0  0  0  0  0  0  0  0  0  0  0  0
   12.0420  -15.3980   18.8654 C   0  0  0  0  0  0  0  0  0  0  0  0
   12.0192  -16.6304   19.0675 O   0  0  0  0  0  0  0  0  0  0  0  0
   17.4884  -13.3149   16.3083 N   0  0  0  0  0  0  0  0  0  0  0  0
   17.0708  -12.9640   17.6267 C   0  0  0  0  0  0  0  0  0  0  0  0
   17.9356  -12.4599   18.3863 O   0  0  0  0  0  0  0  0  0  0  0  0
   15.6641  -13.1988   18.0502 C   0  0  0  0  0  0  0  0  0  0  0  0
   15.3418  -14.6342   17.7906 C   0  0  0  0  0  0  0  0  0  0  0  0
   14.5614  -15.2963   18.8874 C   0  0  2  0  0  0  0  0  0  0  0  0
   13.2713  -14.6959   18.9981 N   0  0  0  0  0  0  0  0  0  0  0  0
   15.2981  -15.3591   20.1695 C   0  0  0  0  0  0  0  0  0  0  0  0
   16.4567  -15.8465   20.2166 O   0  0  0  0  0  0  0  0  0  0  0  0
   14.8037  -14.9030   21.4064 N   0  0  0  0  0  0  0  0  0  0  0  0
   14.8018  -15.6144   22.6216 C   0  0  1  0  0  0  0  0  0  0  0  0
   14.1011  -16.9142   22.6863 C   0  0  0  0  0  0  0  0  0  0  0  0
   12.8542  -16.8602   23.5231 C   0  0  0  0  0  0  0  0  0  0  0  0
   12.1474  -15.8241   23.6129 O   0  0  0  0  0  0  0  0  0  0  0  0
   16.1988  -15.8096   23.0957 C   0  0  0  0  0  0  0  0  0  0  0  0
   17.2648  -15.5817   22.2363 O   0  0  0  0  0  0  0  0  0  0  0  0
   12.4125  -17.9592   24.2472 O   0  0  0  0  0  0  0  0  0  0  0  0
   16.4927  -16.1798   24.2620 O   0  0  0  0  0  0  0  0  0  0  0  0
  2  9  1  0
  2  1  1  1
  3  4  1  0
  3  2  1  0
  4  8  1  0
  5  6  1  0
  5  4  2  0
  6  7  1  0
  7  8  2  0
  9 17  1  0
 10  9  2  0
 12 14  1  0
 12 11  1  0
 13 12  2  0
 16 15  1  6
 15 14  1  0
 17 16  1  0
 18 20  1  0
 18 16  1  0
 19 18  2  0
 21 20  1  0
 21 22  1  6
 23 27  1  0
 23 22  1  0
 24 23  2  0
 25 21  1  0
 26 25  1  0
 28 25  2  0
M  END
$$$$
