HQD.pdb
     RDKit          3D

 28 28  0  0  1  0  0  0  0  0999 V2000
    9.6630  -16.6131   16.5088 N   0  0  0  0  0  0  0  0  0  0  0  0
   10.2042  -15.7176   17.5253 C   0  0  1  0  0  0  0  0  0  0  0  0
    9.1105  -15.5267   18.5798 C   0  0  0  0  0  0  0  0  0  0  0  0
    8.3576  -14.2690   18.3205 C   0  0  0  0  0  0  0  0  0  0  0  0
    8.5583  -13.3581   17.3291 C   0  0  0  0  0  0  0  0  0  0  0  0
    7.6365  -12.3758   17.4860 N   0  0  0  0  0  0  0  0  0  0  0  0
    6.8717  -12.6710   18.5611 C   0  0  0  0  0  0  0  0  0  0  0  0
    7.3362  -13.8344   19.0508 N   0  0  0  0  0  0  0  0  0  0  0  0
   11.3205  -16.4128   18.2207 C   0  0  0  0  0  0  0  0  0  0  0  0
   11.4675  -17.6339   18.0027 O   0  0  0  0  0  0  0  0  0  0  0  0
   16.8561  -13.8531   19.0247 N   0  0  0  0  0  0  0  0  0  0  0  0
   15.7023  -13.8081   18.1866 C   0  0  0  0  0  0  0  0  0  0  0  0
   15.8504  -13.3327   17.0330 O   0  0  0  0  0  0  0  0  0  0  0  0
   14.3957  -14.3112   18.6898 C   0  0  0  0  0  0  0  0  0  0  0  0
   14.6084  -15.6950   19.2109 C   0  0  0  0  0  0  0  0  0  0  0  0
   13.3594  -16.3643   19.7035 C   0  0  2  0  0  0  0  0  0  0  0  0
   12.2136  -15.7545   19.1101 N   0  0  0  0  0  0  0  0  0  0  0  0
   13.2882  -16.4493   21.1793 C   0  0  0  0  0  0  0  0  0  0  0  0
   12.8412  -15.4858   21.8533 O   0  0  0  0  0  0  0  0  0  0  0  0
   13.6928  -17.5606   21.9433 N   0  0  0  0  0  0  0  0  0  0  0  0
   13.7847  -17.6236   23.3470 C   0  0  1  0  0  0  0  0  0  0  0  0
   14.7571  -16.7513   24.0383 C   0  0  0  0  0  0  0  0  0  0  0  0
   16.1826  -17.1078   23.7238 C   0  0  0  0  0  0  0  0  0  0  0  0
   16.4997  -17.7907   22.7167 O   0  0  0  0  0  0  0  0  0  0  0  0
   12.4431  -17.4036   23.9520 C   0  0  0  0  0  0  0  0  0  0  0  0
   11.8940  -16.1292   23.9856 O   0  0  0  0  0  0  0  0  0  0  0  0
   17.2333  -16.6996   24.5339 O   0  0  0  0  0  0  0  0  0  0  0  0
   11.7462  -18.3239   24.4532 O   0  0  0  0  0  0  0  0  0  0  0  0
  2  9  1  0
  2  1  1  6
  3  4  1  0
  3  2  1  0
  4  8  1  0
  5  6  1  0
  5  4  2  0
  6  7  1  0
  7  8  2  0
  9 17  1  0
 10  9  2  0
 12 14  1  0
 12 11  1  0
 13 12  2  0
 16 15  1  1
 15 14  1  0
 17 16  1  0
 18 20  1  0
 18 16  1  0
 19 18  2  0
 21 20  1  0
 21 22  1  1
 23 27  1  0
 23 22  1  0
 24 23  2  0
 25 21  1  0
 26 25  1  0
 28 25  2  0
M  END
$$$$
