HQD.pdb
     RDKit          3D

 28 28  0  0  1  0  0  0  0  0999 V2000
    8.7971  -15.6414   20.9549 N   0  0  0  0  0  0  0  0  0  0  0  0
    7.5154  -15.0587   21.3368 C   0  0  1  0  0  0  0  0  0  0  0  0
    6.5821  -15.2046   20.1316 C   0  0  0  0  0  0  0  0  0  0  0  0
    7.0939  -14.4077   18.9831 C   0  0  0  0  0  0  0  0  0  0  0  0
    8.2798  -13.7474   18.8800 C   0  0  0  0  0  0  0  0  0  0  0  0
    8.3149  -13.1623   17.6571 N   0  0  0  0  0  0  0  0  0  0  0  0
    7.1660  -13.4544   17.0070 C   0  0  0  0  0  0  0  0  0  0  0  0
    6.4391  -14.2173   17.8429 N   0  0  0  0  0  0  0  0  0  0  0  0
    6.9195  -15.8938   22.4140 C   0  0  0  0  0  0  0  0  0  0  0  0
    5.8520  -15.4994   22.9288 O   0  0  0  0  0  0  0  0  0  0  0  0
    4.7336  -21.1257   23.9972 N   0  0  0  0  0  0  0  0  0  0  0  0
    5.9695  -21.2679   23.2986 C   0  0  0  0  0  0  0  0  0  0  0  0
    6.2258  -22.3977   22.8121 O   0  0  0  0  0  0  0  0  0  0  0  0
    6.8913  -20.1071   23.1709 C   0  0  0  0  0  0  0  0  0  0  0  0
    6.2119  -18.9161   23.7639 C   0  0  0  0  0  0  0  0  0  0  0  0
    7.1348  -17.7759   24.0781 C   0  0  2  0  0  0  0  0  0  0  0  0
    7.5063  -17.1042   22.8749 N   0  0  0  0  0  0  0  0  0  0  0  0
    8.2886  -18.1749   24.9148 C   0  0  0  0  0  0  0  0  0  0  0  0
    8.1073  -18.7088   26.0392 O   0  0  0  0  0  0  0  0  0  0  0  0
    9.6400  -18.0069   24.5572 N   0  0  0  0  0  0  0  0  0  0  0  0
   10.6519  -18.9839   24.6236 C   0  0  1  0  0  0  0  0  0  0  0  0
   10.4377  -20.2801   23.9464 C   0  0  0  0  0  0  0  0  0  0  0  0
   11.5856  -21.2309   24.1366 C   0  0  0  0  0  0  0  0  0  0  0  0
   12.0292  -21.5326   25.2738 O   0  0  0  0  0  0  0  0  0  0  0  0
   11.9398  -18.4115   24.1461 C   0  0  0  0  0  0  0  0  0  0  0  0
   11.9647  -17.1659   23.5340 O   0  0  0  0  0  0  0  0  0  0  0  0
   12.2226  -21.8315   23.0593 O   0  0  0  0  0  0  0  0  0  0  0  0
   13.0475  -18.9976   24.2621 O   0  0  0  0  0  0  0  0  0  0  0  0
  2  9  1  0
  2  1  1  6
  3  4  1  0
  3  2  1  0
  4  8  1  0
  5  6  1  0
  5  4  2  0
  6  7  1  0
  7  8  2  0
  9 17  1  0
 10  9  2  0
 12 14  1  0
 12 11  1  0
 13 12  2  0
 16 15  1  6
 15 14  1  0
 17 16  1  0
 18 20  1  0
 18 16  1  0
 19 18  2  0
 21 20  1  0
 21 22  1  6
 23 27  1  0
 23 22  1  0
 24 23  2  0
 25 21  1  0
 26 25  1  0
 28 25  2  0
M  END
$$$$
