HQD.pdb
     RDKit          3D

 28 28  0  0  1  0  0  0  0  0999 V2000
    9.1610  -15.8196   14.9140 N   0  0  0  0  0  0  0  0  0  0  0  0
   10.0726  -16.9343   14.6800 C   0  0  1  0  0  0  0  0  0  0  0  0
   11.0922  -16.4656   13.6381 C   0  0  0  0  0  0  0  0  0  0  0  0
   10.4675  -16.4227   12.2876 C   0  0  0  0  0  0  0  0  0  0  0  0
    9.1867  -16.0947   11.9637 C   0  0  0  0  0  0  0  0  0  0  0  0
    9.0693  -16.1940   10.6163 N   0  0  0  0  0  0  0  0  0  0  0  0
   10.2613  -16.5788   10.1076 C   0  0  0  0  0  0  0  0  0  0  0  0
   11.0967  -16.7109   11.1535 N   0  0  0  0  0  0  0  0  0  0  0  0
   10.8489  -17.1785   15.9252 C   0  0  0  0  0  0  0  0  0  0  0  0
   11.0923  -16.1965   16.6578 O   0  0  0  0  0  0  0  0  0  0  0  0
   12.4762  -22.1530   21.0916 N   0  0  0  0  0  0  0  0  0  0  0  0
   12.0114  -21.6466   19.8414 C   0  0  0  0  0  0  0  0  0  0  0  0
   11.2013  -22.3611   19.1995 O   0  0  0  0  0  0  0  0  0  0  0  0
   12.4863  -20.3252   19.3496 C   0  0  0  0  0  0  0  0  0  0  0  0
   11.7130  -19.9916   18.1157 C   0  0  0  0  0  0  0  0  0  0  0  0
   12.1402  -18.7174   17.4491 C   0  0  2  0  0  0  0  0  0  0  0  0
   11.3183  -18.4643   16.3100 N   0  0  0  0  0  0  0  0  0  0  0  0
   13.5902  -18.6722   17.1556 C   0  0  0  0  0  0  0  0  0  0  0  0
   14.0297  -19.0712   16.0466 O   0  0  0  0  0  0  0  0  0  0  0  0
   14.5778  -18.2018   18.0421 N   0  0  0  0  0  0  0  0  0  0  0  0
   15.9605  -18.1200   17.7888 C   0  0  1  0  0  0  0  0  0  0  0  0
   16.6385  -16.8159   17.9445 C   0  0  0  0  0  0  0  0  0  0  0  0
   17.4954  -16.4625   16.7618 C   0  0  0  0  0  0  0  0  0  0  0  0
   18.6945  -16.8288   16.6652 O   0  0  0  0  0  0  0  0  0  0  0  0
   16.6855  -19.1275   18.6096 C   0  0  0  0  0  0  0  0  0  0  0  0
   16.0043  -19.8689   19.5652 O   0  0  0  0  0  0  0  0  0  0  0  0
   17.0059  -15.7074   15.7049 O   0  0  0  0  0  0  0  0  0  0  0  0
   17.9164  -19.3634   18.4948 O   0  0  0  0  0  0  0  0  0  0  0  0
  2  9  1  0
  2  1  1  1
  3  4  1  0
  3  2  1  0
  4  8  1  0
  5  6  1  0
  5  4  2  0
  6  7  1  0
  7  8  2  0
  9 17  1  0
 10  9  2  0
 12 14  1  0
 12 11  1  0
 13 12  2  0
 16 15  1  6
 15 14  1  0
 17 16  1  0
 18 20  1  0
 18 16  1  0
 19 18  2  0
 21 20  1  0
 21 22  1  1
 23 27  1  0
 23 22  1  0
 24 23  2  0
 25 21  1  0
 26 25  1  0
 28 25  2  0
M  END
$$$$
