HQD.pdb
     RDKit          3D

 28 28  0  0  1  0  0  0  0  0999 V2000
    8.0853  -15.9656   20.5180 N   0  0  0  0  0  0  0  0  0  0  0  0
    8.7222  -14.9275   21.3212 C   0  0  1  0  0  0  0  0  0  0  0  0
    8.0271  -13.6074   20.9766 C   0  0  0  0  0  0  0  0  0  0  0  0
    8.0504  -13.3805   19.5055 C   0  0  0  0  0  0  0  0  0  0  0  0
    7.0168  -13.0287   18.6926 C   0  0  0  0  0  0  0  0  0  0  0  0
    7.5049  -12.9353   17.4308 N   0  0  0  0  0  0  0  0  0  0  0  0
    8.8252  -13.2252   17.4574 C   0  0  0  0  0  0  0  0  0  0  0  0
    9.1302  -13.4934   18.7396 N   0  0  0  0  0  0  0  0  0  0  0  0
    8.4158  -15.1848   22.7539 C   0  0  0  0  0  0  0  0  0  0  0  0
    8.4239  -14.2079   23.5322 O   0  0  0  0  0  0  0  0  0  0  0  0
    6.5195  -19.5743   26.0546 N   0  0  0  0  0  0  0  0  0  0  0  0
    5.9457  -19.4268   24.7566 C   0  0  0  0  0  0  0  0  0  0  0  0
    5.4491  -20.4538   24.2299 O   0  0  0  0  0  0  0  0  0  0  0  0
    5.9527  -18.0993   24.0851 C   0  0  0  0  0  0  0  0  0  0  0  0
    6.6038  -17.1227   25.0092 C   0  0  0  0  0  0  0  0  0  0  0  0
    8.0241  -16.7948   24.6545 C   0  0  2  0  0  0  0  0  0  0  0  0
    8.1186  -16.4775   23.2662 N   0  0  0  0  0  0  0  0  0  0  0  0
    8.9869  -17.8297   25.0929 C   0  0  0  0  0  0  0  0  0  0  0  0
    9.6103  -18.5209   24.2468 O   0  0  0  0  0  0  0  0  0  0  0  0
    9.2897  -18.1327   26.4342 N   0  0  0  0  0  0  0  0  0  0  0  0
   10.5010  -18.6606   26.9210 C   0  0  1  0  0  0  0  0  0  0  0  0
   11.7738  -18.0621   26.4667 C   0  0  0  0  0  0  0  0  0  0  0  0
   12.7430  -19.0855   25.9457 C   0  0  0  0  0  0  0  0  0  0  0  0
   12.4026  -19.9840   25.1345 O   0  0  0  0  0  0  0  0  0  0  0  0
   10.4888  -18.6658   28.4090 C   0  0  0  0  0  0  0  0  0  0  0  0
    9.7111  -17.7489   29.1029 O   0  0  0  0  0  0  0  0  0  0  0  0
   14.0755  -19.0939   26.3346 O   0  0  0  0  0  0  0  0  0  0  0  0
   11.1573  -19.4711   29.1077 O   0  0  0  0  0  0  0  0  0  0  0  0
  2  9  1  0
  2  1  1  6
  3  4  1  0
  3  2  1  0
  4  8  1  0
  5  6  1  0
  5  4  2  0
  6  7  1  0
  7  8  2  0
  9 17  1  0
 10  9  2  0
 12 14  1  0
 12 11  1  0
 13 12  2  0
 16 15  1  6
 15 14  1  0
 17 16  1  0
 18 20  1  0
 18 16  1  0
 19 18  2  0
 21 20  1  0
 21 22  1  1
 23 27  1  0
 23 22  1  0
 24 23  2  0
 25 21  1  0
 26 25  1  0
 28 25  2  0
M  END
$$$$
