HQD.pdb
     RDKit          3D

 28 28  0  0  1  0  0  0  0  0999 V2000
    7.8630  -16.0113   19.1562 N   0  0  0  0  0  0  0  0  0  0  0  0
    8.4774  -14.7301   19.4869 C   0  0  1  0  0  0  0  0  0  0  0  0
    7.8045  -13.6725   18.6075 C   0  0  0  0  0  0  0  0  0  0  0  0
    7.9784  -14.0113   17.1684 C   0  0  0  0  0  0  0  0  0  0  0  0
    8.6791  -15.0450   16.6267 C   0  0  0  0  0  0  0  0  0  0  0  0
    8.5577  -14.9571   15.2789 N   0  0  0  0  0  0  0  0  0  0  0  0
    7.7914  -13.8828   14.9849 C   0  0  0  0  0  0  0  0  0  0  0  0
    7.4519  -13.3243   16.1605 N   0  0  0  0  0  0  0  0  0  0  0  0
    8.1171  -14.3813   20.8874 C   0  0  0  0  0  0  0  0  0  0  0  0
    6.9371  -14.0402   21.1139 O   0  0  0  0  0  0  0  0  0  0  0  0
    7.4394  -12.4683   25.3372 N   0  0  0  0  0  0  0  0  0  0  0  0
    7.0930  -13.7326   25.9003 C   0  0  0  0  0  0  0  0  0  0  0  0
    6.9344  -13.7808   27.1459 O   0  0  0  0  0  0  0  0  0  0  0  0
    6.9346  -14.9220   25.0208 C   0  0  0  0  0  0  0  0  0  0  0  0
    7.3339  -14.5242   23.6373 C   0  0  0  0  0  0  0  0  0  0  0  0
    8.7440  -14.8874   23.2768 C   0  0  2  0  0  0  0  0  0  0  0  0
    9.0467  -14.4197   21.9627 N   0  0  0  0  0  0  0  0  0  0  0  0
    9.0452  -16.3222   23.4793 C   0  0  0  0  0  0  0  0  0  0  0  0
    8.4863  -17.1979   22.7701 O   0  0  0  0  0  0  0  0  0  0  0  0
    9.9427  -16.8300   24.4379 N   0  0  0  0  0  0  0  0  0  0  0  0
   11.2970  -17.1543   24.2287 C   0  0  1  0  0  0  0  0  0  0  0  0
   12.1373  -16.2320   23.4364 C   0  0  0  0  0  0  0  0  0  0  0  0
   13.5391  -16.7399   23.2494 C   0  0  0  0  0  0  0  0  0  0  0  0
   13.7883  -17.9365   22.9541 O   0  0  0  0  0  0  0  0  0  0  0  0
   11.9670  -17.3955   25.5353 C   0  0  0  0  0  0  0  0  0  0  0  0
   11.3175  -17.0794   26.7207 O   0  0  0  0  0  0  0  0  0  0  0  0
   14.6420  -15.9094   23.3934 O   0  0  0  0  0  0  0  0  0  0  0  0
   13.1220  -17.8830   25.6457 O   0  0  0  0  0  0  0  0  0  0  0  0
  2  9  1  0
  2  1  1  6
  3  4  1  0
  3  2  1  0
  4  8  1  0
  5  6  1  0
  5  4  2  0
  6  7  1  0
  7  8  2  0
  9 17  1  0
 10  9  2  0
 12 14  1  0
 12 11  1  0
 13 12  2  0
 16 15  1  6
 15 14  1  0
 17 16  1  0
 18 20  1  0
 18 16  1  0
 19 18  2  0
 21 20  1  0
 21 22  1  1
 23 27  1  0
 23 22  1  0
 24 23  2  0
 25 21  1  0
 26 25  1  0
 28 25  2  0
M  END
$$$$
