HQD.pdb
     RDKit          3D

 28 28  0  0  1  0  0  0  0  0999 V2000
   10.9455  -14.6408   20.7359 N   0  0  0  0  0  0  0  0  0  0  0  0
    9.6234  -14.3525   21.2811 C   0  0  1  0  0  0  0  0  0  0  0  0
    8.6365  -15.2867   20.5754 C   0  0  0  0  0  0  0  0  0  0  0  0
    8.1063  -14.6415   19.3431 C   0  0  0  0  0  0  0  0  0  0  0  0
    8.4342  -13.4275   18.8219 C   0  0  0  0  0  0  0  0  0  0  0  0
    7.7018  -13.2576   17.6933 N   0  0  0  0  0  0  0  0  0  0  0  0
    6.9278  -14.3515   17.5138 C   0  0  0  0  0  0  0  0  0  0  0  0
    7.1968  -15.1805   18.5383 N   0  0  0  0  0  0  0  0  0  0  0  0
    9.6061  -14.7525   22.7138 C   0  0  0  0  0  0  0  0  0  0  0  0
   10.4727  -15.5655   23.0984 O   0  0  0  0  0  0  0  0  0  0  0  0
    5.4450  -12.7407   26.9739 N   0  0  0  0  0  0  0  0  0  0  0  0
    6.4925  -11.8832   26.5231 C   0  0  0  0  0  0  0  0  0  0  0  0
    6.3651  -10.6543   26.7517 O   0  0  0  0  0  0  0  0  0  0  0  0
    7.6705  -12.4540   25.8161 C   0  0  0  0  0  0  0  0  0  0  0  0
    7.4661  -13.9296   25.7041 C   0  0  0  0  0  0  0  0  0  0  0  0
    8.5859  -14.6543   25.0176 C   0  0  2  0  0  0  0  0  0  0  0  0
    8.6580  -14.2548   23.6493 N   0  0  0  0  0  0  0  0  0  0  0  0
    8.5305  -16.1214   25.2046 C   0  0  0  0  0  0  0  0  0  0  0  0
    7.9234  -16.8479   24.3765 O   0  0  0  0  0  0  0  0  0  0  0  0
    9.1216  -16.8205   26.2743 N   0  0  0  0  0  0  0  0  0  0  0  0
    9.6610  -18.1205   26.2293 C   0  0  1  0  0  0  0  0  0  0  0  0
   10.6188  -18.4588   25.1557 C   0  0  0  0  0  0  0  0  0  0  0  0
   11.1005  -19.8799   25.2343 C   0  0  0  0  0  0  0  0  0  0  0  0
   12.0498  -20.2292   25.9813 O   0  0  0  0  0  0  0  0  0  0  0  0
   10.2850  -18.4547   27.5382 C   0  0  0  0  0  0  0  0  0  0  0  0
   10.9842  -17.4859   28.2449 O   0  0  0  0  0  0  0  0  0  0  0  0
   10.5192  -20.8907   24.4810 O   0  0  0  0  0  0  0  0  0  0  0  0
   10.2214  -19.5941   28.0689 O   0  0  0  0  0  0  0  0  0  0  0  0
  2  9  1  0
  2  1  1  6
  3  4  1  0
  3  2  1  0
  4  8  1  0
  5  6  1  0
  5  4  2  0
  6  7  1  0
  7  8  2  0
  9 17  1  0
 10  9  2  0
 12 14  1  0
 12 11  1  0
 13 12  2  0
 16 15  1  6
 15 14  1  0
 17 16  1  0
 18 20  1  0
 18 16  1  0
 19 18  2  0
 21 20  1  0
 21 22  1  6
 23 27  1  0
 23 22  1  0
 24 23  2  0
 25 21  1  0
 26 25  1  0
 28 25  2  0
M  END
$$$$
