HQD.pdb
     RDKit          3D

 28 28  0  0  1  0  0  0  0  0999 V2000
    9.6253  -18.5285   15.8684 N   0  0  0  0  0  0  0  0  0  0  0  0
    9.2698  -17.1503   16.1882 C   0  0  1  0  0  0  0  0  0  0  0  0
    8.2769  -16.6861   15.1189 C   0  0  0  0  0  0  0  0  0  0  0  0
    8.9386  -16.6383   13.7863 C   0  0  0  0  0  0  0  0  0  0  0  0
   10.2247  -16.9568   13.4742 C   0  0  0  0  0  0  0  0  0  0  0  0
   10.3806  -16.7617   12.1413 N   0  0  0  0  0  0  0  0  0  0  0  0
    9.2068  -16.3273   11.6298 C   0  0  0  0  0  0  0  0  0  0  0  0
    8.3439  -16.2616   12.6594 N   0  0  0  0  0  0  0  0  0  0  0  0
    8.5166  -17.1426   17.4710 C   0  0  0  0  0  0  0  0  0  0  0  0
    7.2722  -17.0540   17.4113 O   0  0  0  0  0  0  0  0  0  0  0  0
    7.3019  -21.7765   19.2968 N   0  0  0  0  0  0  0  0  0  0  0  0
    6.2845  -20.7828   19.1817 C   0  0  0  0  0  0  0  0  0  0  0  0
    5.1048  -21.1863   19.0258 O   0  0  0  0  0  0  0  0  0  0  0  0
    6.6411  -19.3400   19.2480 C   0  0  0  0  0  0  0  0  0  0  0  0
    8.1053  -19.2431   19.5281 C   0  0  0  0  0  0  0  0  0  0  0  0
    8.5719  -17.8632   19.8867 C   0  0  2  0  0  0  0  0  0  0  0  0
    9.1456  -17.2305   18.7432 N   0  0  0  0  0  0  0  0  0  0  0  0
    9.4467  -17.8366   21.0802 C   0  0  0  0  0  0  0  0  0  0  0  0
    9.0729  -18.3675   22.1575 O   0  0  0  0  0  0  0  0  0  0  0  0
   10.7232  -17.2446   21.1311 N   0  0  0  0  0  0  0  0  0  0  0  0
   11.9346  -17.8910   21.4433 C   0  0  1  0  0  0  0  0  0  0  0  0
   11.8895  -19.1895   22.1478 C   0  0  0  0  0  0  0  0  0  0  0  0
   13.2497  -19.6673   22.5717 C   0  0  0  0  0  0  0  0  0  0  0  0
   14.2943  -19.0003   22.3596 O   0  0  0  0  0  0  0  0  0  0  0  0
   12.7537  -18.0528   20.2115 C   0  0  0  0  0  0  0  0  0  0  0  0
   13.8503  -17.2309   19.9906 O   0  0  0  0  0  0  0  0  0  0  0  0
   13.4271  -20.8792   23.2249 O   0  0  0  0  0  0  0  0  0  0  0  0
   12.5141  -18.9126   19.3243 O   0  0  0  0  0  0  0  0  0  0  0  0
  2  9  1  0
  2  1  1  6
  3  4  1  0
  3  2  1  0
  4  8  1  0
  5  6  1  0
  5  4  2  0
  6  7  1  0
  7  8  2  0
  9 17  1  0
 10  9  2  0
 12 14  1  0
 12 11  1  0
 13 12  2  0
 16 15  1  6
 15 14  1  0
 17 16  1  0
 18 20  1  0
 18 16  1  0
 19 18  2  0
 21 20  1  0
 21 22  1  6
 23 27  1  0
 23 22  1  0
 24 23  2  0
 25 21  1  0
 26 25  1  0
 28 25  2  0
M  END
$$$$
