HQD.pdb
     RDKit          3D

 28 28  0  0  1  0  0  0  0  0999 V2000
   10.4579  -16.0112   15.9867 N   0  0  0  0  0  0  0  0  0  0  0  0
   10.7081  -15.1594   17.1443 C   0  0  1  0  0  0  0  0  0  0  0  0
    9.5895  -15.4368   18.1525 C   0  0  0  0  0  0  0  0  0  0  0  0
    8.5723  -14.3509   18.1066 C   0  0  0  0  0  0  0  0  0  0  0  0
    8.5285  -13.2746   17.2744 C   0  0  0  0  0  0  0  0  0  0  0  0
    7.4241  -12.5561   17.5958 N   0  0  0  0  0  0  0  0  0  0  0  0
    6.7884  -13.1768   18.6149 C   0  0  0  0  0  0  0  0  0  0  0  0
    7.5140  -14.2714   18.9058 N   0  0  0  0  0  0  0  0  0  0  0  0
   11.9651  -15.6107   17.7996 C   0  0  0  0  0  0  0  0  0  0  0  0
   12.4931  -16.6611   17.3777 O   0  0  0  0  0  0  0  0  0  0  0  0
   17.2701  -14.7698   19.0601 N   0  0  0  0  0  0  0  0  0  0  0  0
   16.6249  -14.1149   17.9690 C   0  0  0  0  0  0  0  0  0  0  0  0
   17.2839  -13.9870   16.9069 O   0  0  0  0  0  0  0  0  0  0  0  0
   15.2307  -13.6172   18.1177 C   0  0  0  0  0  0  0  0  0  0  0  0
   14.7358  -14.0380   19.4629 C   0  0  0  0  0  0  0  0  0  0  0  0
   13.8451  -15.2448   19.4396 C   0  0  2  0  0  0  0  0  0  0  0  0
   12.5809  -14.9061   18.8702 N   0  0  0  0  0  0  0  0  0  0  0  0
   13.7421  -15.9173   20.7540 C   0  0  0  0  0  0  0  0  0  0  0  0
   12.9932  -15.4529   21.6516 O   0  0  0  0  0  0  0  0  0  0  0  0
   14.4362  -17.0871   21.1176 N   0  0  0  0  0  0  0  0  0  0  0  0
   14.3186  -17.7873   22.3336 C   0  0  1  0  0  0  0  0  0  0  0  0
   14.5066  -19.2533   22.3339 C   0  0  0  0  0  0  0  0  0  0  0  0
   13.5998  -19.9549   21.3626 C   0  0  0  0  0  0  0  0  0  0  0  0
   12.7264  -19.3446   20.6950 O   0  0  0  0  0  0  0  0  0  0  0  0
   15.2327  -17.1961   23.3481 C   0  0  0  0  0  0  0  0  0  0  0  0
   16.1295  -16.2015   22.9830 O   0  0  0  0  0  0  0  0  0  0  0  0
   13.6783  -21.3242   21.1487 O   0  0  0  0  0  0  0  0  0  0  0  0
   15.2509  -17.5464   24.5567 O   0  0  0  0  0  0  0  0  0  0  0  0
  2  9  1  0
  2  1  1  6
  3  4  1  0
  3  2  1  0
  4  8  1  0
  5  6  1  0
  5  4  2  0
  6  7  1  0
  7  8  2  0
  9 17  1  0
 10  9  2  0
 12 14  1  0
 12 11  1  0
 13 12  2  0
 16 15  1  1
 15 14  1  0
 17 16  1  0
 18 20  1  0
 18 16  1  0
 19 18  2  0
 21 20  1  0
 21 22  1  6
 23 27  1  0
 23 22  1  0
 24 23  2  0
 25 21  1  0
 26 25  1  0
 28 25  2  0
M  END
$$$$
