HQD.pdb
     RDKit          3D

 28 28  0  0  1  0  0  0  0  0999 V2000
    8.4300  -16.7927   20.4981 N   0  0  0  0  0  0  0  0  0  0  0  0
    9.5484  -15.8827   20.7207 C   0  0  1  0  0  0  0  0  0  0  0  0
    8.9502  -14.5035   21.0117 C   0  0  0  0  0  0  0  0  0  0  0  0
    8.2316  -13.9894   19.8137 C   0  0  0  0  0  0  0  0  0  0  0  0
    8.0740  -14.5938   18.6042 C   0  0  0  0  0  0  0  0  0  0  0  0
    7.3505  -13.7555   17.8213 N   0  0  0  0  0  0  0  0  0  0  0  0
    7.0611  -12.6435   18.5339 C   0  0  0  0  0  0  0  0  0  0  0  0
    7.6131  -12.8154   19.7484 N   0  0  0  0  0  0  0  0  0  0  0  0
   10.2487  -16.2918   21.9677 C   0  0  0  0  0  0  0  0  0  0  0  0
   11.0103  -15.4595   22.5038 O   0  0  0  0  0  0  0  0  0  0  0  0
    8.8855  -21.1295   20.2501 N   0  0  0  0  0  0  0  0  0  0  0  0
   10.2733  -21.3937   20.0502 C   0  0  0  0  0  0  0  0  0  0  0  0
   10.5850  -22.5398   19.6402 O   0  0  0  0  0  0  0  0  0  0  0  0
   11.2808  -20.3342   20.3254 C   0  0  0  0  0  0  0  0  0  0  0  0
   10.5497  -19.1176   20.7913 C   0  0  0  0  0  0  0  0  0  0  0  0
   10.8442  -18.7300   22.2102 C   0  0  2  0  0  0  0  0  0  0  0  0
   10.0893  -17.5721   22.5656 N   0  0  0  0  0  0  0  0  0  0  0  0
   12.2920  -18.6026   22.4900 C   0  0  0  0  0  0  0  0  0  0  0  0
   13.0499  -19.6024   22.3997 O   0  0  0  0  0  0  0  0  0  0  0  0
   12.9383  -17.4098   22.8670 N   0  0  0  0  0  0  0  0  0  0  0  0
   14.3064  -17.2557   23.1626 C   0  0  1  0  0  0  0  0  0  0  0  0
   14.9560  -15.9588   22.8784 C   0  0  0  0  0  0  0  0  0  0  0  0
   16.4561  -16.0441   22.8999 C   0  0  0  0  0  0  0  0  0  0  0  0
   17.0811  -17.0349   22.4429 O   0  0  0  0  0  0  0  0  0  0  0  0
   14.5587  -17.6056   24.5868 C   0  0  0  0  0  0  0  0  0  0  0  0
   13.7397  -17.0966   25.5853 O   0  0  0  0  0  0  0  0  0  0  0  0
   17.2379  -15.0265   23.4291 O   0  0  0  0  0  0  0  0  0  0  0  0
   15.4953  -18.3570   24.9635 O   0  0  0  0  0  0  0  0  0  0  0  0
  2  9  1  0
  2  1  1  1
  3  4  1  0
  3  2  1  0
  4  8  1  0
  5  6  1  0
  5  4  2  0
  6  7  1  0
  7  8  2  0
  9 17  1  0
 10  9  2  0
 12 14  1  0
 12 11  1  0
 13 12  2  0
 16 15  1  6
 15 14  1  0
 17 16  1  0
 18 20  1  0
 18 16  1  0
 19 18  2  0
 21 20  1  0
 21 22  1  1
 23 27  1  0
 23 22  1  0
 24 23  2  0
 25 21  1  0
 26 25  1  0
 28 25  2  0
M  END
$$$$
