ERM.pdb
     RDKit          3D

 29 28  0  0  1  0  0  0  0  0999 V2000
    6.5964  -19.5397   24.0235 N   0  0  0  0  0  0  0  0  0  0  0  0
    7.9246  -19.8545   24.4007 C   0  0  1  0  0  0  0  0  0  0  0  0
    8.4910  -21.1477   23.9426 C   0  0  0  0  0  0  0  0  0  0  0  0
    8.3437  -21.4848   22.5059 C   0  0  0  0  0  0  0  0  0  0  0  0
    8.9307  -22.7602   22.1349 C   0  0  0  0  0  0  0  0  0  0  0  0
    8.8510  -23.1283   20.9306 O   0  0  0  0  0  0  0  0  0  0  0  0
    8.7936  -18.6918   23.9897 C   0  0  0  0  0  0  0  0  0  0  0  0
   10.0564  -18.7217   24.1140 O   0  0  0  0  0  0  0  0  0  0  0  0
    9.5682  -23.5728   23.0443 O   0  0  0  0  0  0  0  0  0  0  0  0
    7.8963  -12.5067   19.5349 N   0  0  0  0  0  0  0  0  0  0  0  0
    7.9031  -13.5813   18.5727 C   0  0  0  0  0  0  0  0  0  0  0  0
    8.6018  -13.4728   17.4919 N   0  0  0  0  0  0  0  0  0  0  0  0
    7.1456  -14.7411   18.8159 N   0  0  0  0  0  0  0  0  0  0  0  0
    6.9572  -15.2232   20.1611 C   0  0  0  0  0  0  0  0  0  0  0  0
    8.2260  -15.8817   20.7187 C   0  0  0  0  0  0  0  0  0  0  0  0
    8.3478  -15.4136   22.1363 C   0  0  0  0  0  0  0  0  0  0  0  0
    9.0070  -16.3543   23.0755 C   0  0  2  0  0  0  0  0  0  0  0  0
    8.2533  -17.5042   23.4436 N   0  0  0  0  0  0  0  0  0  0  0  0
    9.4067  -15.5387   24.2802 C   0  0  0  0  0  0  0  0  0  0  0  0
    9.6991  -14.3369   24.1000 O   0  0  0  0  0  0  0  0  0  0  0  0
    8.5618  -14.2218   16.7755 C   0  0  0  0  0  0  0  0  0  0  0  0
    5.9697  -12.3147   26.1141 S   0  0  0  0  0  0  0  0  0  0  0  0
    7.2164  -12.1104   27.4403 C   0  0  0  0  0  0  0  0  0  0  0  0
    7.7442  -13.7841   27.9675 C   0  0  0  0  0  0  0  0  0  0  0  0
    7.9661  -14.5873   26.7409 C   0  0  1  0  0  0  0  0  0  0  0  0
    9.3639  -15.1598   26.7194 N   0  0  0  0  0  0  0  0  0  0  0  0
    9.4563  -16.0878   25.5675 C   0  0  0  0  0  0  0  0  0  0  0  0
    9.5887  -15.9161   27.9750 O   0  0  0  0  0  0  0  0  0  0  0  0
    9.7572  -17.2765   28.0721 O   0  0  0  0  0  0  0  0  0  0  0  0
  2  7  1  0
  2  1  1  6
  3  2  1  0
  4  3  1  0
  4  5  1  0
  5  6  2  0
  5  9  1  0
  7  8  2  0
 10 11  1  0
 11 13  1  0
 12 11  2  0
 13 14  1  0
 14 15  1  0
 15 16  1  0
 17 19  1  0
 17 16  1  6
 18 17  1  0
 18  7  1  0
 19 26  1  0
 19 20  2  0
 22 21  1  0
 23 24  1  0
 23 22  1  0
 25 24  1  6
 26 25  1  0
 27 28  1  0
 27 25  1  0
 29 27  2  0
M  END
$$$$
