ERM.pdb
     RDKit          3D

 29 28  0  0  1  0  0  0  0  0999 V2000
    9.4614  -18.2776   20.3724 N   0  0  0  0  0  0  0  0  0  0  0  0
   10.7512  -17.6961   20.3112 C   0  0  1  0  0  0  0  0  0  0  0  0
   11.4886  -17.7708   19.0253 C   0  0  0  0  0  0  0  0  0  0  0  0
   10.9254  -18.6439   17.9670 C   0  0  0  0  0  0  0  0  0  0  0  0
   11.4925  -18.4169   16.6496 C   0  0  0  0  0  0  0  0  0  0  0  0
   12.7386  -18.2419   16.5561 O   0  0  0  0  0  0  0  0  0  0  0  0
   10.6235  -16.2730   20.7953 C   0  0  0  0  0  0  0  0  0  0  0  0
   11.6353  -15.5888   21.1402 O   0  0  0  0  0  0  0  0  0  0  0  0
   10.7235  -18.3894   15.5086 O   0  0  0  0  0  0  0  0  0  0  0  0
    7.7465  -12.7809   15.8505 N   0  0  0  0  0  0  0  0  0  0  0  0
    8.0705  -14.0142   16.5249 C   0  0  0  0  0  0  0  0  0  0  0  0
    8.2746  -15.0887   15.8380 N   0  0  0  0  0  0  0  0  0  0  0  0
    8.1596  -14.0400   17.9283 N   0  0  0  0  0  0  0  0  0  0  0  0
    7.4149  -15.0104   18.6909 C   0  0  0  0  0  0  0  0  0  0  0  0
    6.9545  -14.4486   20.0424 C   0  0  0  0  0  0  0  0  0  0  0  0
    8.0625  -13.5624   20.5227 C   0  0  0  0  0  0  0  0  0  0  0  0
    9.1879  -14.2447   21.2078 C   0  0  2  0  0  0  0  0  0  0  0  0
    9.3725  -15.6204   20.8930 N   0  0  0  0  0  0  0  0  0  0  0  0
    8.9736  -14.0334   22.6862 C   0  0  0  0  0  0  0  0  0  0  0  0
    8.6534  -12.8883   23.0715 O   0  0  0  0  0  0  0  0  0  0  0  0
    8.3994  -15.0269   14.8102 C   0  0  0  0  0  0  0  0  0  0  0  0
    6.2229  -12.1011   28.3890 S   0  0  0  0  0  0  0  0  0  0  0  0
    7.1483  -12.4865   26.8561 C   0  0  0  0  0  0  0  0  0  0  0  0
    6.7666  -14.2194   26.3992 C   0  0  0  0  0  0  0  0  0  0  0  0
    7.2573  -14.4332   25.0163 C   0  0  1  0  0  0  0  0  0  0  0  0
    8.7211  -14.8062   25.0174 N   0  0  0  0  0  0  0  0  0  0  0  0
    9.1230  -15.0705   23.6155 C   0  0  0  0  0  0  0  0  0  0  0  0
    8.8975  -16.0424   25.8172 O   0  0  0  0  0  0  0  0  0  0  0  0
    8.9454  -16.1097   27.1890 O   0  0  0  0  0  0  0  0  0  0  0  0
  2  7  1  0
  2  1  1  6
  3  2  1  0
  4  3  1  0
  4  5  1  0
  5  6  2  0
  5  9  1  0
  7  8  2  0
 10 11  1  0
 11 13  1  0
 12 11  2  0
 13 14  1  0
 14 15  1  0
 15 16  1  0
 17 19  1  0
 17 16  1  6
 18 17  1  0
 18  7  1  0
 19 26  1  0
 19 20  2  0
 22 21  1  0
 23 24  1  0
 23 22  1  0
 25 24  1  6
 26 25  1  0
 27 28  1  0
 27 25  1  0
 29 27  2  0
M  END
$$$$
