ERM.pdb
     RDKit          3D

 29 28  0  0  1  0  0  0  0  0999 V2000
    8.9327  -17.8828   18.1981 N   0  0  0  0  0  0  0  0  0  0  0  0
    9.2872  -16.7033   18.8971 C   0  0  1  0  0  0  0  0  0  0  0  0
    8.7367  -15.4134   18.4112 C   0  0  0  0  0  0  0  0  0  0  0  0
    8.7508  -15.1753   16.9474 C   0  0  0  0  0  0  0  0  0  0  0  0
    8.3302  -13.8400   16.5617 C   0  0  0  0  0  0  0  0  0  0  0  0
    8.2192  -12.9636   17.4626 O   0  0  0  0  0  0  0  0  0  0  0  0
    8.9627  -16.9315   20.3527 C   0  0  0  0  0  0  0  0  0  0  0  0
    7.8356  -16.6187   20.8453 O   0  0  0  0  0  0  0  0  0  0  0  0
    8.0539  -13.5002   15.2571 O   0  0  0  0  0  0  0  0  0  0  0  0
   13.2632  -20.9937   23.2962 N   0  0  0  0  0  0  0  0  0  0  0  0
   12.1168  -21.8177   23.5921 C   0  0  0  0  0  0  0  0  0  0  0  0
   11.9921  -22.9730   23.0283 N   0  0  0  0  0  0  0  0  0  0  0  0
   11.1390  -21.3566   24.4916 N   0  0  0  0  0  0  0  0  0  0  0  0
   11.2957  -20.0865   25.1549 C   0  0  0  0  0  0  0  0  0  0  0  0
   10.2358  -19.0706   24.7092 C   0  0  0  0  0  0  0  0  0  0  0  0
   10.5503  -18.7417   23.2821 C   0  0  0  0  0  0  0  0  0  0  0  0
    9.6522  -17.7566   22.6306 C   0  0  2  0  0  0  0  0  0  0  0  0
    9.8928  -17.5055   21.2503 N   0  0  0  0  0  0  0  0  0  0  0  0
    9.7416  -16.4945   23.4522 C   0  0  0  0  0  0  0  0  0  0  0  0
   10.7616  -15.7839   23.3209 O   0  0  0  0  0  0  0  0  0  0  0  0
   11.1819  -23.5762   23.2639 C   0  0  0  0  0  0  0  0  0  0  0  0
    6.0813  -10.4589   26.6100 S   0  0  0  0  0  0  0  0  0  0  0  0
    5.9808  -12.0534   25.7141 C   0  0  0  0  0  0  0  0  0  0  0  0
    7.6179  -12.8661   25.8438 C   0  0  0  0  0  0  0  0  0  0  0  0
    7.5506  -14.1281   25.0680 C   0  0  1  0  0  0  0  0  0  0  0  0
    8.8903  -14.8260   25.0606 N   0  0  0  0  0  0  0  0  0  0  0  0
    8.7285  -16.1109   24.3397 C   0  0  0  0  0  0  0  0  0  0  0  0
    9.2931  -15.0994   26.4614 O   0  0  0  0  0  0  0  0  0  0  0  0
    9.4218  -16.3438   27.0300 O   0  0  0  0  0  0  0  0  0  0  0  0
  2  7  1  0
  2  1  1  6
  3  2  1  0
  4  3  1  0
  4  5  1  0
  5  6  2  0
  5  9  1  0
  7  8  2  0
 10 11  1  0
 11 13  1  0
 12 11  2  0
 13 14  1  0
 14 15  1  0
 15 16  1  0
 17 19  1  0
 17 16  1  1
 18 17  1  0
 18  7  1  0
 19 26  1  0
 19 20  2  0
 22 21  1  0
 23 24  1  0
 23 22  1  0
 25 24  1  6
 26 25  1  0
 27 28  1  0
 27 25  1  0
 29 27  2  0
M  END
$$$$
