ERM.pdb
     RDKit          3D

 29 28  0  0  1  0  0  0  0  0999 V2000
   10.9938  -19.4876   21.1956 N   0  0  0  0  0  0  0  0  0  0  0  0
   12.0627  -18.5626   21.1096 C   0  0  1  0  0  0  0  0  0  0  0  0
   12.7085  -18.3652   19.7879 C   0  0  0  0  0  0  0  0  0  0  0  0
   11.8500  -17.8940   18.6742 C   0  0  0  0  0  0  0  0  0  0  0  0
   12.5217  -17.8513   17.3874 C   0  0  0  0  0  0  0  0  0  0  0  0
   13.7825  -17.8977   17.3682 O   0  0  0  0  0  0  0  0  0  0  0  0
   11.5728  -17.2581   21.6878 C   0  0  0  0  0  0  0  0  0  0  0  0
   12.3474  -16.2671   21.8575 O   0  0  0  0  0  0  0  0  0  0  0  0
   11.8351  -17.7656   16.1978 O   0  0  0  0  0  0  0  0  0  0  0  0
    8.9618  -13.8469   17.8050 N   0  0  0  0  0  0  0  0  0  0  0  0
    8.2444  -12.8794   18.5988 C   0  0  0  0  0  0  0  0  0  0  0  0
    8.6223  -11.6444   18.6042 N   0  0  0  0  0  0  0  0  0  0  0  0
    7.1380  -13.2875   19.3652 N   0  0  0  0  0  0  0  0  0  0  0  0
    7.3220  -13.8046   20.6980 C   0  0  0  0  0  0  0  0  0  0  0  0
    8.3540  -14.9393   20.7370 C   0  0  0  0  0  0  0  0  0  0  0  0
    8.3827  -15.4258   22.1533 C   0  0  0  0  0  0  0  0  0  0  0  0
    9.7034  -15.8761   22.6576 C   0  0  2  0  0  0  0  0  0  0  0  0
   10.2260  -17.0643   22.0735 N   0  0  0  0  0  0  0  0  0  0  0  0
    9.5635  -16.0040   24.1544 C   0  0  0  0  0  0  0  0  0  0  0  0
    8.7918  -16.8829   24.5952 O   0  0  0  0  0  0  0  0  0  0  0  0
    8.1610  -10.9675   19.2406 C   0  0  0  0  0  0  0  0  0  0  0  0
    6.7146  -11.1736   26.7103 S   0  0  0  0  0  0  0  0  0  0  0  0
    6.1866  -12.8934   27.0547 C   0  0  0  0  0  0  0  0  0  0  0  0
    7.6908  -13.8706   27.4285 C   0  0  0  0  0  0  0  0  0  0  0  0
    8.3659  -14.1583   26.1400 C   0  0  1  0  0  0  0  0  0  0  0  0
    9.6563  -14.9104   26.3660 N   0  0  0  0  0  0  0  0  0  0  0  0
   10.2643  -15.1765   25.0407 C   0  0  0  0  0  0  0  0  0  0  0  0
    9.3466  -16.2003   27.0289 O   0  0  0  0  0  0  0  0  0  0  0  0
    9.4258  -17.4414   26.4442 O   0  0  0  0  0  0  0  0  0  0  0  0
  2  7  1  0
  2  1  1  6
  3  2  1  0
  4  3  1  0
  4  5  1  0
  5  6  2  0
  5  9  1  0
  7  8  2  0
 10 11  1  0
 11 13  1  0
 12 11  2  0
 13 14  1  0
 14 15  1  0
 15 16  1  0
 17 19  1  0
 17 16  1  6
 18 17  1  0
 18  7  1  0
 19 26  1  0
 19 20  2  0
 22 21  1  0
 23 24  1  0
 23 22  1  0
 25 24  1  1
 26 25  1  0
 27 28  1  0
 27 25  1  0
 29 27  2  0
M  END
$$$$
