ERM.pdb
     RDKit          3D

 29 28  0  0  1  0  0  0  0  0999 V2000
   11.9878  -19.1827   21.6379 N   0  0  0  0  0  0  0  0  0  0  0  0
   12.8264  -18.2837   22.3410 C   0  0  1  0  0  0  0  0  0  0  0  0
   14.1508  -17.9622   21.7532 C   0  0  0  0  0  0  0  0  0  0  0  0
   14.3591  -18.2920   20.3224 C   0  0  0  0  0  0  0  0  0  0  0  0
   15.1858  -17.3345   19.6093 C   0  0  0  0  0  0  0  0  0  0  0  0
   15.3507  -17.4929   18.3684 O   0  0  0  0  0  0  0  0  0  0  0  0
   12.0206  -17.0365   22.6079 C   0  0  0  0  0  0  0  0  0  0  0  0
   12.5055  -16.0471   23.2379 O   0  0  0  0  0  0  0  0  0  0  0  0
   15.7882  -16.2674   20.2356 O   0  0  0  0  0  0  0  0  0  0  0  0
    8.4864  -12.7916   18.1115 N   0  0  0  0  0  0  0  0  0  0  0  0
    8.2391  -14.2121   18.0698 C   0  0  0  0  0  0  0  0  0  0  0  0
    8.5472  -14.8881   17.0133 N   0  0  0  0  0  0  0  0  0  0  0  0
    7.6607  -14.8530   19.1801 N   0  0  0  0  0  0  0  0  0  0  0  0
    7.1630  -14.0828   20.2922 C   0  0  0  0  0  0  0  0  0  0  0  0
    8.0714  -14.1980   21.5233 C   0  0  0  0  0  0  0  0  0  0  0  0
    8.8510  -15.4647   21.3469 C   0  0  0  0  0  0  0  0  0  0  0  0
    9.8632  -15.7542   22.3924 C   0  0  2  0  0  0  0  0  0  0  0  0
   10.6819  -16.8978   22.1733 N   0  0  0  0  0  0  0  0  0  0  0  0
    9.1098  -15.8477   23.6962 C   0  0  0  0  0  0  0  0  0  0  0  0
    9.2799  -16.8690   24.3963 O   0  0  0  0  0  0  0  0  0  0  0  0
    8.3199  -15.8990   16.9643 C   0  0  0  0  0  0  0  0  0  0  0  0
    7.7514  -10.8481   28.2190 S   0  0  0  0  0  0  0  0  0  0  0  0
    7.4034  -11.5991   26.5850 C   0  0  0  0  0  0  0  0  0  0  0  0
    6.7071  -13.2683   26.8792 C   0  0  0  0  0  0  0  0  0  0  0  0
    6.5230  -13.9129   25.5565 C   0  0  2  0  0  0  0  0  0  0  0  0
    7.4848  -15.0646   25.3819 N   0  0  0  0  0  0  0  0  0  0  0  0
    8.2428  -14.8365   24.1288 C   0  0  0  0  0  0  0  0  0  0  0  0
    6.7068  -16.3212   25.2601 O   0  0  0  0  0  0  0  0  0  0  0  0
    6.5664  -17.0693   24.1160 O   0  0  0  0  0  0  0  0  0  0  0  0
  2  7  1  0
  2  1  1  6
  3  2  1  0
  4  3  1  0
  4  5  1  0
  5  6  2  0
  5  9  1  0
  7  8  2  0
 10 11  1  0
 11 13  1  0
 12 11  2  0
 13 14  1  0
 14 15  1  0
 15 16  1  0
 17 19  1  0
 17 16  1  6
 18 17  1  0
 18  7  1  0
 19 26  1  0
 19 20  2  0
 22 21  1  0
 23 24  1  0
 23 22  1  0
 25 24  1  1
 26 25  1  0
 27 28  1  0
 27 25  1  0
 29 27  2  0
M  END
$$$$
