ERM.pdb
     RDKit          3D

 29 28  0  0  1  0  0  0  0  0999 V2000
    8.0374  -20.5641   22.3981 N   0  0  0  0  0  0  0  0  0  0  0  0
    7.4859  -19.5405   23.2065 C   0  0  1  0  0  0  0  0  0  0  0  0
    7.3905  -19.7822   24.6678 C   0  0  0  0  0  0  0  0  0  0  0  0
    8.6615  -19.9007   25.4228 C   0  0  0  0  0  0  0  0  0  0  0  0
    8.4872  -20.2397   26.8241 C   0  0  0  0  0  0  0  0  0  0  0  0
    7.3133  -20.3124   27.2810 O   0  0  0  0  0  0  0  0  0  0  0  0
    8.2452  -18.2728   22.9026 C   0  0  0  0  0  0  0  0  0  0  0  0
    9.5116  -18.2534   22.8197 O   0  0  0  0  0  0  0  0  0  0  0  0
    9.5503  -20.4853   27.6627 O   0  0  0  0  0  0  0  0  0  0  0  0
    8.3076  -12.6786   17.8296 N   0  0  0  0  0  0  0  0  0  0  0  0
    8.2519  -13.9413   17.1343 C   0  0  0  0  0  0  0  0  0  0  0  0
    8.8543  -14.0783   16.0002 N   0  0  0  0  0  0  0  0  0  0  0  0
    7.5386  -15.0161   17.6947 N   0  0  0  0  0  0  0  0  0  0  0  0
    7.0301  -14.9341   19.0410 C   0  0  0  0  0  0  0  0  0  0  0  0
    8.1536  -14.7497   20.0695 C   0  0  0  0  0  0  0  0  0  0  0  0
    7.5182  -14.9268   21.4143 C   0  0  0  0  0  0  0  0  0  0  0  0
    8.2398  -15.8128   22.3608 C   0  0  2  0  0  0  0  0  0  0  0  0
    7.5921  -17.0359   22.6930 N   0  0  0  0  0  0  0  0  0  0  0  0
    8.5244  -14.9801   23.5864 C   0  0  0  0  0  0  0  0  0  0  0  0
    8.1657  -13.7828   23.5743 O   0  0  0  0  0  0  0  0  0  0  0  0
    8.8875  -15.0093   15.5439 C   0  0  0  0  0  0  0  0  0  0  0  0
    6.5712  -11.5390   28.9321 S   0  0  0  0  0  0  0  0  0  0  0  0
    6.7795  -12.4453   27.3540 C   0  0  0  0  0  0  0  0  0  0  0  0
    7.4970  -14.0849   27.7471 C   0  0  0  0  0  0  0  0  0  0  0  0
    7.6551  -14.8193   26.4686 C   0  0  1  0  0  0  0  0  0  0  0  0
    9.0825  -14.7455   25.9799 N   0  0  0  0  0  0  0  0  0  0  0  0
    9.1680  -15.5088   24.7122 C   0  0  0  0  0  0  0  0  0  0  0  0
    9.9656  -15.3766   26.9903 O   0  0  0  0  0  0  0  0  0  0  0  0
   10.3654  -14.8051   28.1744 O   0  0  0  0  0  0  0  0  0  0  0  0
  2  7  1  0
  2  1  1  6
  3  2  1  0
  4  3  1  0
  4  5  1  0
  5  6  2  0
  5  9  1  0
  7  8  2  0
 10 11  1  0
 11 13  1  0
 12 11  2  0
 13 14  1  0
 14 15  1  0
 15 16  1  0
 17 19  1  0
 17 16  1  6
 18 17  1  0
 18  7  1  0
 19 26  1  0
 19 20  2  0
 22 21  1  0
 23 24  1  0
 23 22  1  0
 25 24  1  6
 26 25  1  0
 27 28  1  0
 27 25  1  0
 29 27  2  0
M  END
$$$$
