ERM.pdb
     RDKit          3D

 29 28  0  0  1  0  0  0  0  0999 V2000
   12.7113  -19.0017   21.2341 N   0  0  0  0  0  0  0  0  0  0  0  0
   13.4416  -17.9098   21.7632 C   0  0  1  0  0  0  0  0  0  0  0  0
   14.6047  -17.4091   20.9890 C   0  0  0  0  0  0  0  0  0  0  0  0
   14.8220  -17.9831   19.6388 C   0  0  0  0  0  0  0  0  0  0  0  0
   16.1627  -18.4981   19.4243 C   0  0  0  0  0  0  0  0  0  0  0  0
   17.1058  -17.6721   19.2817 O   0  0  0  0  0  0  0  0  0  0  0  0
   12.4521  -16.8082   22.0521 C   0  0  0  0  0  0  0  0  0  0  0  0
   12.8175  -15.6814   22.5079 O   0  0  0  0  0  0  0  0  0  0  0  0
   16.4375  -19.8457   19.3746 O   0  0  0  0  0  0  0  0  0  0  0  0
    8.2018  -12.6171   17.7909 N   0  0  0  0  0  0  0  0  0  0  0  0
    7.8432  -13.9478   18.2169 C   0  0  0  0  0  0  0  0  0  0  0  0
    8.4939  -14.9664   17.7617 N   0  0  0  0  0  0  0  0  0  0  0  0
    6.7839  -14.1287   19.1242 N   0  0  0  0  0  0  0  0  0  0  0  0
    6.8553  -15.1510   20.1378 C   0  0  0  0  0  0  0  0  0  0  0  0
    7.9546  -14.8626   21.1686 C   0  0  0  0  0  0  0  0  0  0  0  0
    8.9463  -15.9779   21.0408 C   0  0  0  0  0  0  0  0  0  0  0  0
   10.0873  -15.9429   21.9887 C   0  0  2  0  0  0  0  0  0  0  0  0
   11.0639  -16.9666   21.8327 N   0  0  0  0  0  0  0  0  0  0  0  0
    9.4874  -15.9489   23.3730 C   0  0  0  0  0  0  0  0  0  0  0  0
    9.7211  -16.9341   24.1058 O   0  0  0  0  0  0  0  0  0  0  0  0
    8.2347  -15.9224   18.0695 C   0  0  0  0  0  0  0  0  0  0  0  0
    7.5536  -10.5747   27.5265 S   0  0  0  0  0  0  0  0  0  0  0  0
    6.3394  -11.9118   27.2218 C   0  0  0  0  0  0  0  0  0  0  0  0
    7.2759  -13.4715   27.0032 C   0  0  0  0  0  0  0  0  0  0  0  0
    7.5358  -13.6347   25.5524 C   0  0  2  0  0  0  0  0  0  0  0  0
    8.3825  -14.8584   25.2928 N   0  0  0  0  0  0  0  0  0  0  0  0
    8.6916  -14.8971   23.8437 C   0  0  0  0  0  0  0  0  0  0  0  0
    7.6012  -16.0649   25.6577 O   0  0  0  0  0  0  0  0  0  0  0  0
    7.7326  -16.7831   26.8220 O   0  0  0  0  0  0  0  0  0  0  0  0
  2  7  1  0
  2  1  1  6
  3  2  1  0
  4  3  1  0
  4  5  1  0
  5  6  2  0
  5  9  1  0
  7  8  2  0
 10 11  1  0
 11 13  1  0
 12 11  2  0
 13 14  1  0
 14 15  1  0
 15 16  1  0
 17 19  1  0
 17 16  1  6
 18 17  1  0
 18  7  1  0
 19 26  1  0
 19 20  2  0
 22 21  1  0
 23 24  1  0
 23 22  1  0
 25 24  1  1
 26 25  1  0
 27 28  1  0
 27 25  1  0
 29 27  2  0
M  END
$$$$
