ERM.pdb
     RDKit          3D

 29 28  0  0  1  0  0  0  0  0999 V2000
    8.7887  -12.7915   18.4895 N   0  0  0  0  0  0  0  0  0  0  0  0
    9.1683  -14.1235   18.7848 C   0  0  1  0  0  0  0  0  0  0  0  0
   10.6174  -14.4403   18.8338 C   0  0  0  0  0  0  0  0  0  0  0  0
   11.5184  -13.4191   19.4210 C   0  0  0  0  0  0  0  0  0  0  0  0
   12.9116  -13.8240   19.4806 C   0  0  0  0  0  0  0  0  0  0  0  0
   13.7102  -13.3490   18.6269 O   0  0  0  0  0  0  0  0  0  0  0  0
    8.4718  -14.5134   20.0651 C   0  0  0  0  0  0  0  0  0  0  0  0
    7.5903  -13.7739   20.6007 O   0  0  0  0  0  0  0  0  0  0  0  0
   13.3870  -14.6987   20.4307 O   0  0  0  0  0  0  0  0  0  0  0  0
    8.9750  -19.8504   18.5333 N   0  0  0  0  0  0  0  0  0  0  0  0
    7.6227  -20.3516   18.5049 C   0  0  0  0  0  0  0  0  0  0  0  0
    7.0638  -20.6313   17.3747 N   0  0  0  0  0  0  0  0  0  0  0  0
    6.9189  -20.5304   19.7093 N   0  0  0  0  0  0  0  0  0  0  0  0
    7.2939  -19.7964   20.8918 C   0  0  0  0  0  0  0  0  0  0  0  0
    7.4467  -18.2955   20.6124 C   0  0  0  0  0  0  0  0  0  0  0  0
    7.7997  -17.6630   21.9235 C   0  0  0  0  0  0  0  0  0  0  0  0
    8.0693  -16.2044   21.8881 C   0  0  2  0  0  0  0  0  0  0  0  0
    8.7601  -15.7219   20.7409 N   0  0  0  0  0  0  0  0  0  0  0  0
    8.8081  -15.8798   23.1629 C   0  0  0  0  0  0  0  0  0  0  0  0
   10.0489  -16.0301   23.1726 O   0  0  0  0  0  0  0  0  0  0  0  0
    6.0476  -20.8360   17.3394 C   0  0  0  0  0  0  0  0  0  0  0  0
    6.1457  -10.4455   25.4565 S   0  0  0  0  0  0  0  0  0  0  0  0
    6.6715  -11.8634   26.4900 C   0  0  0  0  0  0  0  0  0  0  0  0
    7.8072  -12.8912   25.4843 C   0  0  0  0  0  0  0  0  0  0  0  0
    8.1951  -14.0616   26.3081 C   0  0  2  0  0  0  0  0  0  0  0  0
    8.9735  -15.0622   25.4866 N   0  0  0  0  0  0  0  0  0  0  0  0
    8.1473  -15.4242   24.3105 C   0  0  0  0  0  0  0  0  0  0  0  0
    9.2094  -16.2735   26.3090 O   0  0  0  0  0  0  0  0  0  0  0  0
   10.1199  -16.3826   27.3325 O   0  0  0  0  0  0  0  0  0  0  0  0
  2  7  1  0
  2  1  1  1
  3  2  1  0
  4  3  1  0
  4  5  1  0
  5  6  2  0
  5  9  1  0
  7  8  2  0
 10 11  1  0
 11 13  1  0
 12 11  2  0
 13 14  1  0
 14 15  1  0
 15 16  1  0
 17 19  1  0
 17 16  1  6
 18 17  1  0
 18  7  1  0
 19 26  1  0
 19 20  2  0
 22 21  1  0
 23 24  1  0
 23 22  1  0
 25 24  1  6
 26 25  1  0
 27 28  1  0
 27 25  1  0
 29 27  2  0
M  END
$$$$
