ERM.pdb
     RDKit          3D

 29 28  0  0  1  0  0  0  0  0999 V2000
   11.2500  -19.3884   21.2033 N   0  0  0  0  0  0  0  0  0  0  0  0
   12.1787  -18.3394   20.9966 C   0  0  1  0  0  0  0  0  0  0  0  0
   12.7482  -18.1712   19.6364 C   0  0  0  0  0  0  0  0  0  0  0  0
   11.7950  -18.1092   18.5019 C   0  0  0  0  0  0  0  0  0  0  0  0
   12.4307  -18.0774   17.1967 C   0  0  0  0  0  0  0  0  0  0  0  0
   13.6909  -18.1103   17.1436 O   0  0  0  0  0  0  0  0  0  0  0  0
   11.5335  -17.0677   21.4889 C   0  0  0  0  0  0  0  0  0  0  0  0
   12.0928  -15.9364   21.3538 O   0  0  0  0  0  0  0  0  0  0  0  0
   11.7109  -18.0161   16.0254 O   0  0  0  0  0  0  0  0  0  0  0  0
    8.6739  -14.5566   16.7175 N   0  0  0  0  0  0  0  0  0  0  0  0
    7.9150  -13.6261   17.5168 C   0  0  0  0  0  0  0  0  0  0  0  0
    7.0033  -12.8973   16.9639 N   0  0  0  0  0  0  0  0  0  0  0  0
    8.1745  -13.5157   18.8947 N   0  0  0  0  0  0  0  0  0  0  0  0
    8.0679  -14.6682   19.7539 C   0  0  0  0  0  0  0  0  0  0  0  0
    8.2179  -14.2968   21.2350 C   0  0  0  0  0  0  0  0  0  0  0  0
    8.2947  -15.5927   21.9821 C   0  0  0  0  0  0  0  0  0  0  0  0
    9.6025  -15.9023   22.6107 C   0  0  2  0  0  0  0  0  0  0  0  0
   10.2717  -17.0621   22.1277 N   0  0  0  0  0  0  0  0  0  0  0  0
    9.3500  -15.9806   24.0961 C   0  0  0  0  0  0  0  0  0  0  0  0
    8.3128  -16.5619   24.4816 O   0  0  0  0  0  0  0  0  0  0  0  0
    6.5151  -12.1720   17.5221 C   0  0  0  0  0  0  0  0  0  0  0  0
    5.8471  -11.3506   27.8986 S   0  0  0  0  0  0  0  0  0  0  0  0
    6.5801  -12.1761   26.4369 C   0  0  0  0  0  0  0  0  0  0  0  0
    7.8653  -13.3340   27.0409 C   0  0  0  0  0  0  0  0  0  0  0  0
    8.5132  -13.9389   25.8521 C   0  0  1  0  0  0  0  0  0  0  0  0
    9.6569  -14.8364   26.2622 N   0  0  0  0  0  0  0  0  0  0  0  0
   10.2335  -15.4275   25.0313 C   0  0  0  0  0  0  0  0  0  0  0  0
    9.1265  -15.9215   27.1227 O   0  0  0  0  0  0  0  0  0  0  0  0
    9.0168  -17.2446   26.7680 O   0  0  0  0  0  0  0  0  0  0  0  0
  2  7  1  0
  2  1  1  6
  3  2  1  0
  4  3  1  0
  4  5  1  0
  5  6  2  0
  5  9  1  0
  7  8  2  0
 10 11  1  0
 11 13  1  0
 12 11  2  0
 13 14  1  0
 14 15  1  0
 15 16  1  0
 17 19  1  0
 17 16  1  6
 18 17  1  0
 18  7  1  0
 19 26  1  0
 19 20  2  0
 22 21  1  0
 23 24  1  0
 23 22  1  0
 25 24  1  6
 26 25  1  0
 27 28  1  0
 27 25  1  0
 29 27  2  0
M  END
$$$$
