ERM.pdb
     RDKit          3D

 29 28  0  0  1  0  0  0  0  0999 V2000
   13.3984  -17.6566   18.5797 N   0  0  0  0  0  0  0  0  0  0  0  0
   12.7262  -18.3853   19.5910 C   0  0  1  0  0  0  0  0  0  0  0  0
   13.5131  -19.3594   20.3877 C   0  0  0  0  0  0  0  0  0  0  0  0
   14.3308  -20.3466   19.6417 C   0  0  0  0  0  0  0  0  0  0  0  0
   13.5816  -21.4963   19.1668 C   0  0  0  0  0  0  0  0  0  0  0  0
   12.3474  -21.5540   19.4227 O   0  0  0  0  0  0  0  0  0  0  0  0
   12.0269  -17.3825   20.4749 C   0  0  0  0  0  0  0  0  0  0  0  0
   12.5155  -16.2333   20.7020 O   0  0  0  0  0  0  0  0  0  0  0  0
   14.1669  -22.5152   18.4504 O   0  0  0  0  0  0  0  0  0  0  0  0
    7.8852  -13.5893   17.8738 N   0  0  0  0  0  0  0  0  0  0  0  0
    7.8370  -13.3395   19.2937 C   0  0  0  0  0  0  0  0  0  0  0  0
    7.5374  -12.1613   19.7299 N   0  0  0  0  0  0  0  0  0  0  0  0
    8.1196  -14.3808   20.1958 N   0  0  0  0  0  0  0  0  0  0  0  0
    8.6304  -15.6421   19.7206 C   0  0  0  0  0  0  0  0  0  0  0  0
    7.9752  -16.8327   20.4328 C   0  0  0  0  0  0  0  0  0  0  0  0
    8.5643  -16.8682   21.8095 C   0  0  0  0  0  0  0  0  0  0  0  0
   10.0408  -16.7435   21.8864 C   0  0  2  0  0  0  0  0  0  0  0  0
   10.7898  -17.6637   21.1001 N   0  0  0  0  0  0  0  0  0  0  0  0
   10.3977  -16.8384   23.3492 C   0  0  0  0  0  0  0  0  0  0  0  0
   10.9521  -17.8854   23.7477 O   0  0  0  0  0  0  0  0  0  0  0  0
    7.6367  -11.9454   20.7396 C   0  0  0  0  0  0  0  0  0  0  0  0
   11.1666  -12.9167   29.8596 S   0  0  0  0  0  0  0  0  0  0  0  0
    9.8143  -13.3911   28.7188 C   0  0  0  0  0  0  0  0  0  0  0  0
   10.3071  -14.9511   27.8935 C   0  0  0  0  0  0  0  0  0  0  0  0
    9.9778  -14.8160   26.4540 C   0  0  2  0  0  0  0  0  0  0  0  0
   10.4473  -16.0252   25.6798 N   0  0  0  0  0  0  0  0  0  0  0  0
   10.1264  -15.8012   24.2502 C   0  0  0  0  0  0  0  0  0  0  0  0
    9.7104  -17.2172   26.1647 O   0  0  0  0  0  0  0  0  0  0  0  0
   10.1910  -18.1510   27.0511 O   0  0  0  0  0  0  0  0  0  0  0  0
  2  7  1  0
  2  1  1  6
  3  2  1  0
  4  3  1  0
  4  5  1  0
  5  6  2  0
  5  9  1  0
  7  8  2  0
 10 11  1  0
 11 13  1  0
 12 11  2  0
 13 14  1  0
 14 15  1  0
 15 16  1  0
 17 19  1  0
 17 16  1  1
 18 17  1  0
 18  7  1  0
 19 26  1  0
 19 20  2  0
 22 21  1  0
 23 24  1  0
 23 22  1  0
 25 24  1  6
 26 25  1  0
 27 28  1  0
 27 25  1  0
 29 27  2  0
M  END
$$$$
