ERM.pdb
     RDKit          3D

 29 28  0  0  1  0  0  0  0  0999 V2000
   10.5481  -19.2141   20.7897 N   0  0  0  0  0  0  0  0  0  0  0  0
   11.7084  -18.4220   20.9681 C   0  0  1  0  0  0  0  0  0  0  0  0
   12.6268  -18.2619   19.8132 C   0  0  0  0  0  0  0  0  0  0  0  0
   12.0227  -18.2542   18.4587 C   0  0  0  0  0  0  0  0  0  0  0  0
   12.9824  -18.0704   17.3845 C   0  0  0  0  0  0  0  0  0  0  0  0
   12.5864  -17.5347   16.3129 O   0  0  0  0  0  0  0  0  0  0  0  0
   11.2596  -17.0870   21.5090 C   0  0  0  0  0  0  0  0  0  0  0  0
   12.0761  -16.1362   21.7095 O   0  0  0  0  0  0  0  0  0  0  0  0
   14.2991  -18.4548   17.4960 O   0  0  0  0  0  0  0  0  0  0  0  0
    9.5525  -14.0763   17.8942 N   0  0  0  0  0  0  0  0  0  0  0  0
    8.2402  -13.4939   18.0341 C   0  0  0  0  0  0  0  0  0  0  0  0
    8.0145  -12.3023   17.5900 N   0  0  0  0  0  0  0  0  0  0  0  0
    7.2138  -14.2268   18.6563 N   0  0  0  0  0  0  0  0  0  0  0  0
    7.5027  -15.0804   19.7813 C   0  0  0  0  0  0  0  0  0  0  0  0
    7.7487  -14.2764   21.0647 C   0  0  0  0  0  0  0  0  0  0  0  0
    8.0013  -15.2840   22.1438 C   0  0  0  0  0  0  0  0  0  0  0  0
    9.4247  -15.6119   22.4045 C   0  0  2  0  0  0  0  0  0  0  0  0
    9.9071  -16.8183   21.8233 N   0  0  0  0  0  0  0  0  0  0  0  0
    9.5919  -15.6079   23.9039 C   0  0  0  0  0  0  0  0  0  0  0  0
   10.4713  -14.8651   24.3909 O   0  0  0  0  0  0  0  0  0  0  0  0
    7.0848  -11.8660   17.7358 C   0  0  0  0  0  0  0  0  0  0  0  0
    7.6330  -10.9285   27.5429 S   0  0  0  0  0  0  0  0  0  0  0  0
    6.9170  -12.4888   26.9042 C   0  0  0  0  0  0  0  0  0  0  0  0
    8.2381  -13.7582   26.9350 C   0  0  0  0  0  0  0  0  0  0  0  0
    7.6721  -15.0032   26.3619 C   0  0  2  0  0  0  0  0  0  0  0  0
    8.7474  -16.0487   26.1816 N   0  0  0  0  0  0  0  0  0  0  0  0
    8.8001  -16.4018   24.7431 C   0  0  0  0  0  0  0  0  0  0  0  0
    8.3789  -17.2518   26.9664 O   0  0  0  0  0  0  0  0  0  0  0  0
    8.5711  -17.4177   28.3170 O   0  0  0  0  0  0  0  0  0  0  0  0
  2  7  1  0
  2  1  1  6
  3  2  1  0
  4  3  1  0
  4  5  1  0
  5  6  2  0
  5  9  1  0
  7  8  2  0
 10 11  1  0
 11 13  1  0
 12 11  2  0
 13 14  1  0
 14 15  1  0
 15 16  1  0
 17 19  1  0
 17 16  1  1
 18 17  1  0
 18  7  1  0
 19 26  1  0
 19 20  2  0
 22 21  1  0
 23 24  1  0
 23 22  1  0
 25 24  1  6
 26 25  1  0
 27 28  1  0
 27 25  1  0
 29 27  2  0
M  END
$$$$
