ERM.pdb
     RDKit          3D

 29 28  0  0  1  0  0  0  0  0999 V2000
    9.1514  -20.4235   22.1513 N   0  0  0  0  0  0  0  0  0  0  0  0
    9.8413  -20.2157   20.9320 C   0  0  1  0  0  0  0  0  0  0  0  0
    9.1387  -20.5509   19.6683 C   0  0  0  0  0  0  0  0  0  0  0  0
    7.6599  -20.4397   19.6612 C   0  0  0  0  0  0  0  0  0  0  0  0
    7.0466  -20.7941   18.3935 C   0  0  0  0  0  0  0  0  0  0  0  0
    7.7999  -21.0992   17.4284 O   0  0  0  0  0  0  0  0  0  0  0  0
   10.3307  -18.7887   20.9328 C   0  0  0  0  0  0  0  0  0  0  0  0
   11.2168  -18.3834   20.1195 O   0  0  0  0  0  0  0  0  0  0  0  0
    5.6826  -20.8112   18.2116 O   0  0  0  0  0  0  0  0  0  0  0  0
    7.2287  -12.4628   20.1575 N   0  0  0  0  0  0  0  0  0  0  0  0
    8.3466  -12.6332   19.2619 C   0  0  0  0  0  0  0  0  0  0  0  0
    9.0356  -11.6060   18.8901 N   0  0  0  0  0  0  0  0  0  0  0  0
    8.6785  -13.9181   18.7960 N   0  0  0  0  0  0  0  0  0  0  0  0
    7.8896  -15.0618   19.1798 C   0  0  0  0  0  0  0  0  0  0  0  0
    8.1872  -15.5093   20.6169 C   0  0  0  0  0  0  0  0  0  0  0  0
    9.6770  -15.6309   20.7137 C   0  0  0  0  0  0  0  0  0  0  0  0
   10.1891  -16.4445   21.8438 C   0  0  2  0  0  0  0  0  0  0  0  0
    9.8321  -17.8223   21.8372 N   0  0  0  0  0  0  0  0  0  0  0  0
    9.7299  -15.7541   23.1042 C   0  0  0  0  0  0  0  0  0  0  0  0
    8.8343  -14.8883   23.0019 O   0  0  0  0  0  0  0  0  0  0  0  0
    9.7521  -11.7081   18.1470 C   0  0  0  0  0  0  0  0  0  0  0  0
    6.1248  -11.7429   27.0453 S   0  0  0  0  0  0  0  0  0  0  0  0
    6.7596  -12.6855   25.6087 C   0  0  0  0  0  0  0  0  0  0  0  0
    7.6840  -14.1284   26.2574 C   0  0  0  0  0  0  0  0  0  0  0  0
    8.3677  -14.7714   25.1093 C   0  0  1  0  0  0  0  0  0  0  0  0
    9.6515  -15.4337   25.5510 N   0  0  0  0  0  0  0  0  0  0  0  0
   10.2744  -16.0560   24.3587 C   0  0  0  0  0  0  0  0  0  0  0  0
    9.3271  -16.4901   26.5399 O   0  0  0  0  0  0  0  0  0  0  0  0
    9.4749  -17.8425   26.3456 O   0  0  0  0  0  0  0  0  0  0  0  0
  2  7  1  0
  2  1  1  1
  3  2  1  0
  4  3  1  0
  4  5  1  0
  5  6  2  0
  5  9  1  0
  7  8  2  0
 10 11  1  0
 11 13  1  0
 12 11  2  0
 13 14  1  0
 14 15  1  0
 15 16  1  0
 17 19  1  0
 17 16  1  6
 18 17  1  0
 18  7  1  0
 19 26  1  0
 19 20  2  0
 22 21  1  0
 23 24  1  0
 23 22  1  0
 25 24  1  6
 26 25  1  0
 27 28  1  0
 27 25  1  0
 29 27  2  0
M  END
$$$$
