ERM.pdb
     RDKit          3D

 29 28  0  0  1  0  0  0  0  0999 V2000
   10.7811  -19.5579   21.6070 N   0  0  0  0  0  0  0  0  0  0  0  0
   11.8497  -18.6635   21.8593 C   0  0  1  0  0  0  0  0  0  0  0  0
   12.9808  -18.6409   20.8985 C   0  0  0  0  0  0  0  0  0  0  0  0
   12.6659  -18.3300   19.4830 C   0  0  0  0  0  0  0  0  0  0  0  0
   13.8130  -18.3924   18.5948 C   0  0  0  0  0  0  0  0  0  0  0  0
   13.6190  -18.2546   17.3557 O   0  0  0  0  0  0  0  0  0  0  0  0
   11.2504  -17.2912   22.0426 C   0  0  0  0  0  0  0  0  0  0  0  0
   11.9672  -16.2750   22.2962 O   0  0  0  0  0  0  0  0  0  0  0  0
   15.0943  -18.5920   19.0554 O   0  0  0  0  0  0  0  0  0  0  0  0
    7.6548  -12.4031   17.2820 N   0  0  0  0  0  0  0  0  0  0  0  0
    8.3553  -13.6113   17.6429 C   0  0  0  0  0  0  0  0  0  0  0  0
    9.0382  -14.2497   16.7518 N   0  0  0  0  0  0  0  0  0  0  0  0
    8.2883  -14.0892   18.9640 N   0  0  0  0  0  0  0  0  0  0  0  0
    7.2200  -13.6750   19.8385 C   0  0  0  0  0  0  0  0  0  0  0  0
    7.3846  -14.2411   21.2550 C   0  0  0  0  0  0  0  0  0  0  0  0
    8.0988  -15.5484   21.0991 C   0  0  0  0  0  0  0  0  0  0  0  0
    9.2336  -15.7820   22.0260 C   0  0  2  0  0  0  0  0  0  0  0  0
    9.8590  -17.0580   21.9429 N   0  0  0  0  0  0  0  0  0  0  0  0
    8.7102  -15.5053   23.4137 C   0  0  0  0  0  0  0  0  0  0  0  0
    7.6089  -16.0034   23.7318 O   0  0  0  0  0  0  0  0  0  0  0  0
    9.5309  -15.1251   17.0102 C   0  0  0  0  0  0  0  0  0  0  0  0
    7.3874  -11.0098   26.7080 S   0  0  0  0  0  0  0  0  0  0  0  0
    5.9994  -12.2049   26.6987 C   0  0  0  0  0  0  0  0  0  0  0  0
    6.7169  -13.8884   26.7915 C   0  0  0  0  0  0  0  0  0  0  0  0
    7.3641  -14.1685   25.4871 C   0  0  2  0  0  0  0  0  0  0  0  0
    8.8209  -14.5208   25.6751 N   0  0  0  0  0  0  0  0  0  0  0  0
    9.4166  -14.7191   24.3324 C   0  0  0  0  0  0  0  0  0  0  0  0
    8.9102  -15.7877   26.4407 O   0  0  0  0  0  0  0  0  0  0  0  0
    8.8682  -15.9016   27.8096 O   0  0  0  0  0  0  0  0  0  0  0  0
  2  7  1  0
  2  1  1  6
  3  2  1  0
  4  3  1  0
  4  5  1  0
  5  6  2  0
  5  9  1  0
  7  8  2  0
 10 11  1  0
 11 13  1  0
 12 11  2  0
 13 14  1  0
 14 15  1  0
 15 16  1  0
 17 19  1  0
 17 16  1  6
 18 17  1  0
 18  7  1  0
 19 26  1  0
 19 20  2  0
 22 21  1  0
 23 24  1  0
 23 22  1  0
 25 24  1  6
 26 25  1  0
 27 28  1  0
 27 25  1  0
 29 27  2  0
M  END
$$$$
