ERM.pdb
     RDKit          3D

 29 28  0  0  1  0  0  0  0  0999 V2000
    8.9104  -12.9505   18.7631 N   0  0  0  0  0  0  0  0  0  0  0  0
    7.6688  -13.6002   18.5586 C   0  0  1  0  0  0  0  0  0  0  0  0
    7.3683  -14.1167   17.2000 C   0  0  0  0  0  0  0  0  0  0  0  0
    8.4520  -14.0474   16.1900 C   0  0  0  0  0  0  0  0  0  0  0  0
    8.0492  -14.4710   14.8607 C   0  0  0  0  0  0  0  0  0  0  0  0
    6.8552  -14.8396   14.6859 O   0  0  0  0  0  0  0  0  0  0  0  0
    7.5542  -14.6839   19.6019 C   0  0  0  0  0  0  0  0  0  0  0  0
    6.6108  -15.5329   19.5858 O   0  0  0  0  0  0  0  0  0  0  0  0
    8.9179  -14.4811   13.7934 O   0  0  0  0  0  0  0  0  0  0  0  0
    9.8512  -18.3745   17.2239 N   0  0  0  0  0  0  0  0  0  0  0  0
   11.1830  -18.6789   17.6868 C   0  0  0  0  0  0  0  0  0  0  0  0
   12.1445  -18.8160   16.8354 N   0  0  0  0  0  0  0  0  0  0  0  0
   11.4267  -18.8275   19.0639 N   0  0  0  0  0  0  0  0  0  0  0  0
   10.3597  -18.6580   20.0182 C   0  0  0  0  0  0  0  0  0  0  0  0
   10.0376  -17.1781   20.2633 C   0  0  0  0  0  0  0  0  0  0  0  0
    8.9498  -17.1551   21.2928 C   0  0  0  0  0  0  0  0  0  0  0  0
    8.4429  -15.8129   21.6708 C   0  0  2  0  0  0  0  0  0  0  0  0
    8.4884  -14.8164   20.6555 N   0  0  0  0  0  0  0  0  0  0  0  0
    9.2183  -15.3976   22.8966 C   0  0  0  0  0  0  0  0  0  0  0  0
   10.0252  -14.4498   22.7831 O   0  0  0  0  0  0  0  0  0  0  0  0
   13.0979  -19.0521   17.1688 C   0  0  0  0  0  0  0  0  0  0  0  0
    6.8291  -11.0047   27.1434 S   0  0  0  0  0  0  0  0  0  0  0  0
    7.3852  -12.0656   25.7576 C   0  0  0  0  0  0  0  0  0  0  0  0
    6.8198  -13.7734   26.1057 C   0  0  0  0  0  0  0  0  0  0  0  0
    7.2863  -14.6323   24.9904 C   0  0  2  0  0  0  0  0  0  0  0  0
    8.6488  -15.2106   25.2916 N   0  0  0  0  0  0  0  0  0  0  0  0
    9.0570  -16.0380   24.1316 C   0  0  0  0  0  0  0  0  0  0  0  0
    8.5458  -16.0725   26.4939 O   0  0  0  0  0  0  0  0  0  0  0  0
    8.0876  -17.3680   26.5146 O   0  0  0  0  0  0  0  0  0  0  0  0
  2  7  1  0
  2  1  1  6
  3  2  1  0
  4  3  1  0
  4  5  1  0
  5  6  2  0
  5  9  1  0
  7  8  2  0
 10 11  1  0
 11 13  1  0
 12 11  2  0
 13 14  1  0
 14 15  1  0
 15 16  1  0
 17 19  1  0
 17 16  1  6
 18 17  1  0
 18  7  1  0
 19 26  1  0
 19 20  2  0
 22 21  1  0
 23 24  1  0
 23 22  1  0
 25 24  1  6
 26 25  1  0
 27 28  1  0
 27 25  1  0
 29 27  2  0
M  END
$$$$
