ERM.pdb
     RDKit          3D

 29 28  0  0  1  0  0  0  0  0999 V2000
    8.8955  -13.7649   17.9050 N   0  0  0  0  0  0  0  0  0  0  0  0
    9.6762  -14.5100   18.8220 C   0  0  1  0  0  0  0  0  0  0  0  0
   10.9081  -13.8810   19.3601 C   0  0  0  0  0  0  0  0  0  0  0  0
   11.9743  -13.5323   18.3900 C   0  0  0  0  0  0  0  0  0  0  0  0
   13.3053  -13.9409   18.8023 C   0  0  0  0  0  0  0  0  0  0  0  0
   13.6109  -13.8422   20.0226 O   0  0  0  0  0  0  0  0  0  0  0  0
    8.7558  -14.9624   19.9284 C   0  0  0  0  0  0  0  0  0  0  0  0
    7.7422  -14.2828   20.2772 O   0  0  0  0  0  0  0  0  0  0  0  0
   14.2360  -14.4310   17.9149 O   0  0  0  0  0  0  0  0  0  0  0  0
   11.2710  -20.6183   20.2226 N   0  0  0  0  0  0  0  0  0  0  0  0
   11.2258  -21.3263   21.4787 C   0  0  0  0  0  0  0  0  0  0  0  0
   12.2069  -22.0935   21.8204 N   0  0  0  0  0  0  0  0  0  0  0  0
   10.1112  -21.1788   22.3236 N   0  0  0  0  0  0  0  0  0  0  0  0
    9.0023  -20.3448   21.9331 C   0  0  0  0  0  0  0  0  0  0  0  0
    9.3225  -18.8524   22.0898 C   0  0  0  0  0  0  0  0  0  0  0  0
    8.0417  -18.1230   21.8235 C   0  0  0  0  0  0  0  0  0  0  0  0
    8.1490  -16.6484   21.6988 C   0  0  2  0  0  0  0  0  0  0  0  0
    8.9683  -16.1665   20.6393 N   0  0  0  0  0  0  0  0  0  0  0  0
    8.6171  -16.1434   23.0413 C   0  0  0  0  0  0  0  0  0  0  0  0
    9.8405  -16.1988   23.2913 O   0  0  0  0  0  0  0  0  0  0  0  0
   12.1907  -22.5710   22.7411 C   0  0  0  0  0  0  0  0  0  0  0  0
    6.8655  -10.9824   28.6586 S   0  0  0  0  0  0  0  0  0  0  0  0
    6.3347  -11.8916   27.1597 C   0  0  0  0  0  0  0  0  0  0  0  0
    7.6120  -13.1540   26.7960 C   0  0  0  0  0  0  0  0  0  0  0  0
    7.1899  -13.8734   25.5699 C   0  0  1  0  0  0  0  0  0  0  0  0
    8.2896  -14.7836   25.0758 N   0  0  0  0  0  0  0  0  0  0  0  0
    7.7291  -15.6255   23.9924 C   0  0  0  0  0  0  0  0  0  0  0  0
    8.7265  -15.6540   26.1941 O   0  0  0  0  0  0  0  0  0  0  0  0
    8.5282  -17.0112   26.2782 O   0  0  0  0  0  0  0  0  0  0  0  0
  2  7  1  0
  2  1  1  6
  3  2  1  0
  4  3  1  0
  4  5  1  0
  5  6  2  0
  5  9  1  0
  7  8  2  0
 10 11  1  0
 11 13  1  0
 12 11  2  0
 13 14  1  0
 14 15  1  0
 15 16  1  0
 17 19  1  0
 17 16  1  1
 18 17  1  0
 18  7  1  0
 19 26  1  0
 19 20  2  0
 22 21  1  0
 23 24  1  0
 23 22  1  0
 25 24  1  6
 26 25  1  0
 27 28  1  0
 27 25  1  0
 29 27  2  0
M  END
$$$$
