ERM.pdb
     RDKit          3D

 29 28  0  0  1  0  0  0  0  0999 V2000
   11.3469  -19.3872   21.1490 N   0  0  0  0  0  0  0  0  0  0  0  0
   12.3390  -18.4153   21.4261 C   0  0  1  0  0  0  0  0  0  0  0  0
   13.1733  -17.9304   20.2984 C   0  0  0  0  0  0  0  0  0  0  0  0
   12.6219  -18.0802   18.9298 C   0  0  0  0  0  0  0  0  0  0  0  0
   13.0419  -17.0412   18.0064 C   0  0  0  0  0  0  0  0  0  0  0  0
   12.1686  -16.5070   17.2687 O   0  0  0  0  0  0  0  0  0  0  0  0
   11.6600  -17.2752   22.1438 C   0  0  0  0  0  0  0  0  0  0  0  0
   12.2974  -16.2428   22.5161 O   0  0  0  0  0  0  0  0  0  0  0  0
   14.3489  -16.6209   17.9115 O   0  0  0  0  0  0  0  0  0  0  0  0
    8.6860  -11.9901   19.5051 N   0  0  0  0  0  0  0  0  0  0  0  0
    8.3396  -13.2892   18.9824 C   0  0  0  0  0  0  0  0  0  0  0  0
    8.8762  -13.7046   17.8835 N   0  0  0  0  0  0  0  0  0  0  0  0
    7.4163  -14.0956   19.6718 N   0  0  0  0  0  0  0  0  0  0  0  0
    7.6182  -14.4133   21.0632 C   0  0  0  0  0  0  0  0  0  0  0  0
    7.8770  -15.9101   21.2793 C   0  0  0  0  0  0  0  0  0  0  0  0
    8.1502  -16.0770   22.7425 C   0  0  0  0  0  0  0  0  0  0  0  0
    9.5739  -16.2553   23.1202 C   0  0  2  0  0  0  0  0  0  0  0  0
   10.2777  -17.2906   22.4428 N   0  0  0  0  0  0  0  0  0  0  0  0
    9.5933  -16.4523   24.6159 C   0  0  0  0  0  0  0  0  0  0  0  0
    8.6162  -17.0281   25.1412 O   0  0  0  0  0  0  0  0  0  0  0  0
    8.6410  -14.6471   17.5197 C   0  0  0  0  0  0  0  0  0  0  0  0
    7.5999  -11.5092   27.0900 S   0  0  0  0  0  0  0  0  0  0  0  0
    9.0334  -12.3159   27.8957 C   0  0  0  0  0  0  0  0  0  0  0  0
    8.6889  -14.1141   27.9682 C   0  0  0  0  0  0  0  0  0  0  0  0
    9.0604  -14.6914   26.6539 C   0  0  2  0  0  0  0  0  0  0  0  0
   10.3446  -15.4801   26.7573 N   0  0  0  0  0  0  0  0  0  0  0  0
   10.6595  -16.0129   25.4106 C   0  0  0  0  0  0  0  0  0  0  0  0
   10.1354  -16.6112   27.6933 O   0  0  0  0  0  0  0  0  0  0  0  0
    9.7402  -17.8796   27.3421 O   0  0  0  0  0  0  0  0  0  0  0  0
  2  7  1  0
  2  1  1  6
  3  2  1  0
  4  3  1  0
  4  5  1  0
  5  6  2  0
  5  9  1  0
  7  8  2  0
 10 11  1  0
 11 13  1  0
 12 11  2  0
 13 14  1  0
 14 15  1  0
 15 16  1  0
 17 19  1  0
 17 16  1  6
 18 17  1  0
 18  7  1  0
 19 26  1  0
 19 20  2  0
 22 21  1  0
 23 24  1  0
 23 22  1  0
 25 24  1  6
 26 25  1  0
 27 28  1  0
 27 25  1  0
 29 27  2  0
M  END
$$$$
