FKF.pdb
     RDKit          3D

 32 33  0  0  1  0  0  0  0  0999 V2000
   24.9715  -40.2656   -3.0710 N   0  0  0  0  0  0  0  0  0  0  0  0
   25.0533  -38.8246   -3.1697 C   0  0  1  0  0  0  0  0  0  0  0  0
   24.1015  -38.1182   -2.2619 C   0  0  0  0  0  0  0  0  0  0  0  0
   22.6899  -38.2651   -2.5764 C   0  0  0  0  0  0  0  0  0  0  0  0
   21.9214  -39.3318   -2.1595 C   0  0  0  0  0  0  0  0  0  0  0  0
   20.5733  -39.4328   -2.4853 C   0  0  0  0  0  0  0  0  0  0  0  0
   19.9602  -38.4689   -3.2365 C   0  0  0  0  0  0  0  0  0  0  0  0
   20.7048  -37.3994   -3.6619 C   0  0  0  0  0  0  0  0  0  0  0  0
   22.0515  -37.3054   -3.3323 C   0  0  0  0  0  0  0  0  0  0  0  0
   26.4699  -38.4390   -3.0111 C   0  0  0  0  0  0  0  0  0  0  0  0
   27.2731  -39.1728   -2.3685 O   0  0  0  0  0  0  0  0  0  0  0  0
   27.0372  -37.2401   -3.5553 N   0  0  0  0  0  0  0  0  0  0  0  0
   28.4361  -36.8924   -3.3606 C   0  0  1  0  0  0  0  0  0  0  0  0
   28.7755  -35.9442   -4.5224 C   0  0  0  0  0  0  0  0  0  0  0  0
   30.2873  -35.7631   -4.5047 C   0  0  0  0  0  0  0  0  0  0  0  0
   30.7359  -34.8774   -5.6415 C   0  0  0  0  0  0  0  0  0  0  0  0
   32.2675  -34.8947   -5.6221 C   0  0  0  0  0  0  0  0  0  0  0  0
   32.7070  -34.1701   -6.8166 N   0  0  0  0  0  0  0  0  0  0  0  0
   28.7296  -36.2919   -2.0679 C   0  0  0  0  0  0  0  0  0  0  0  0
   28.3100  -35.1552   -1.7463 O   0  0  0  0  0  0  0  0  0  0  0  0
   29.5155  -36.9978   -1.1223 N   0  0  0  0  0  0  0  0  0  0  0  0
   29.7873  -36.4931    0.2090 C   0  0  1  0  0  0  0  0  0  0  0  0
   29.5989  -37.5723    1.2585 C   0  0  0  0  0  0  0  0  0  0  0  0
   28.1574  -37.7994    1.5241 C   0  0  0  0  0  0  0  0  0  0  0  0
   27.6399  -39.0750    1.3670 C   0  0  0  0  0  0  0  0  0  0  0  0
   26.2913  -39.3037    1.6120 C   0  0  0  0  0  0  0  0  0  0  0  0
   25.4409  -38.3033    2.0086 C   0  0  0  0  0  0  0  0  0  0  0  0
   25.9459  -37.0315    2.1676 C   0  0  0  0  0  0  0  0  0  0  0  0
   27.2894  -36.8119    1.9217 C   0  0  0  0  0  0  0  0  0  0  0  0
   31.1607  -35.9465    0.2423 C   0  0  0  0  0  0  0  0  0  0  0  0
   31.9884  -35.9594   -0.8726 O   0  0  0  0  0  0  0  0  0  0  0  0
   31.6188  -35.4485    1.3001 O   0  0  0  0  0  0  0  0  0  0  0  0
  2  1  1  1
  2 10  1  0
  2  3  1  0
  3  4  1  0
  4  9  1  0
  4  5  2  0
  5  6  1  0
  6  7  2  0
  8  7  1  0
  9  8  2  0
 10 12  1  0
 10 11  2  0
 12 13  1  0
 13 19  1  0
 13 14  1  6
 15 14  1  0
 16 15  1  0
 17 16  1  0
 18 17  1  0
 19 20  2  0
 19 21  1  0
 21 22  1  0
 22 30  1  0
 22 23  1  1
 23 24  1  0
 24 25  2  0
 24 29  1  0
 25 26  1  0
 26 27  2  0
 28 27  1  0
 29 28  2  0
 30 31  1  0
 32 30  2  0
M  END
$$$$
