FKF.pdb
     RDKit          3D

 32 33  0  0  1  0  0  0  0  0999 V2000
   26.7780  -16.8195  -18.3433 N   0  0  0  0  0  0  0  0  0  0  0  0
   27.6454  -17.6205  -17.5072 C   0  0  1  0  0  0  0  0  0  0  0  0
   27.9004  -17.0094  -16.1691 C   0  0  0  0  0  0  0  0  0  0  0  0
   28.6156  -15.7437  -16.1703 C   0  0  0  0  0  0  0  0  0  0  0  0
   29.7666  -15.5176  -16.8955 C   0  0  0  0  0  0  0  0  0  0  0  0
   30.4197  -14.2902  -16.8659 C   0  0  0  0  0  0  0  0  0  0  0  0
   29.9374  -13.2583  -16.1098 C   0  0  0  0  0  0  0  0  0  0  0  0
   28.7943  -13.4606  -15.3806 C   0  0  0  0  0  0  0  0  0  0  0  0
   28.1472  -14.6899  -15.4153 C   0  0  0  0  0  0  0  0  0  0  0  0
   27.1014  -18.9929  -17.4732 C   0  0  0  0  0  0  0  0  0  0  0  0
   25.8642  -19.1958  -17.3153 O   0  0  0  0  0  0  0  0  0  0  0  0
   27.9026  -20.1735  -17.6129 N   0  0  0  0  0  0  0  0  0  0  0  0
   27.4482  -21.4731  -17.1434 C   0  0  1  0  0  0  0  0  0  0  0  0
   28.5936  -22.4410  -17.4823 C   0  0  0  0  0  0  0  0  0  0  0  0
   28.1227  -23.8290  -17.0697 C   0  0  0  0  0  0  0  0  0  0  0  0
   29.1894  -24.8616  -17.3417 C   0  0  0  0  0  0  0  0  0  0  0  0
   28.5834  -26.2166  -16.9634 C   0  0  0  0  0  0  0  0  0  0  0  0
   29.5608  -27.2340  -17.3568 N   0  0  0  0  0  0  0  0  0  0  0  0
   27.1057  -21.5127  -15.7295 C   0  0  0  0  0  0  0  0  0  0  0  0
   27.9243  -21.2003  -14.8328 O   0  0  0  0  0  0  0  0  0  0  0  0
   25.8073  -21.9155  -15.3273 N   0  0  0  0  0  0  0  0  0  0  0  0
   25.3849  -21.9407  -13.9411 C   0  0  1  0  0  0  0  0  0  0  0  0
   25.5743  -20.5881  -13.2806 C   0  0  0  0  0  0  0  0  0  0  0  0
   25.0898  -20.6167  -11.8789 C   0  0  0  0  0  0  0  0  0  0  0  0
   23.7671  -20.2952  -11.6204 C   0  0  0  0  0  0  0  0  0  0  0  0
   23.2982  -20.3174  -10.3125 C   0  0  0  0  0  0  0  0  0  0  0  0
   24.1036  -20.6494   -9.2532 C   0  0  0  0  0  0  0  0  0  0  0  0
   25.4204  -20.9707   -9.4999 C   0  0  0  0  0  0  0  0  0  0  0  0
   25.8796  -20.9463  -10.8046 C   0  0  0  0  0  0  0  0  0  0  0  0
   23.9728  -22.3748  -13.8790 C   0  0  0  0  0  0  0  0  0  0  0  0
   23.4796  -23.1373  -12.8284 O   0  0  0  0  0  0  0  0  0  0  0  0
   23.1719  -22.0578  -14.7926 O   0  0  0  0  0  0  0  0  0  0  0  0
  2  1  1  1
  2 10  1  0
  2  3  1  0
  3  4  1  0
  4  9  1  0
  4  5  2  0
  5  6  1  0
  6  7  2  0
  8  7  1  0
  9  8  2  0
 10 12  1  0
 10 11  2  0
 12 13  1  0
 13 19  1  0
 13 14  1  1
 15 14  1  0
 16 15  1  0
 17 16  1  0
 18 17  1  0
 19 20  2  0
 19 21  1  0
 21 22  1  0
 22 30  1  0
 22 23  1  6
 23 24  1  0
 24 25  2  0
 24 29  1  0
 25 26  1  0
 26 27  2  0
 28 27  1  0
 29 28  2  0
 30 31  1  0
 32 30  2  0
M  END
$$$$
