FKF.pdb
     RDKit          3D

 32 33  0  0  1  0  0  0  0  0999 V2000
   14.4465   -9.0653  -17.5559 N   0  0  0  0  0  0  0  0  0  0  0  0
   15.6888   -9.0565  -18.2972 C   0  0  1  0  0  0  0  0  0  0  0  0
   15.7442   -7.9886  -19.3392 C   0  0  0  0  0  0  0  0  0  0  0  0
   14.7825   -8.1030  -20.4233 C   0  0  0  0  0  0  0  0  0  0  0  0
   14.8590   -9.0590  -21.4145 C   0  0  0  0  0  0  0  0  0  0  0  0
   13.9168   -9.1308  -22.4347 C   0  0  0  0  0  0  0  0  0  0  0  0
   12.8743   -8.2479  -22.4888 C   0  0  0  0  0  0  0  0  0  0  0  0
   12.7783   -7.2891  -21.5138 C   0  0  0  0  0  0  0  0  0  0  0  0
   13.7238   -7.2235  -20.4974 C   0  0  0  0  0  0  0  0  0  0  0  0
   16.7981   -9.0358  -17.3227 C   0  0  0  0  0  0  0  0  0  0  0  0
   16.6542   -8.4976  -16.1885 O   0  0  0  0  0  0  0  0  0  0  0  0
   18.0898   -9.6063  -17.5704 N   0  0  0  0  0  0  0  0  0  0  0  0
   19.1932   -9.4499  -16.6356 C   0  0  1  0  0  0  0  0  0  0  0  0
   20.2123  -10.5278  -17.0396 C   0  0  0  0  0  0  0  0  0  0  0  0
   19.6355  -11.8608  -16.5823 C   0  0  0  0  0  0  0  0  0  0  0  0
   20.5766  -12.9945  -16.9096 C   0  0  0  0  0  0  0  0  0  0  0  0
   19.9215  -14.2681  -16.3665 C   0  0  0  0  0  0  0  0  0  0  0  0
   20.7676  -15.3853  -16.7923 N   0  0  0  0  0  0  0  0  0  0  0  0
   19.7857   -8.1207  -16.6257 C   0  0  0  0  0  0  0  0  0  0  0  0
   19.9030   -7.4316  -17.6665 O   0  0  0  0  0  0  0  0  0  0  0  0
   20.2541   -7.5641  -15.4088 N   0  0  0  0  0  0  0  0  0  0  0  0
   20.8795   -6.2591  -15.3291 C   0  0  1  0  0  0  0  0  0  0  0  0
   20.4564   -5.5188  -14.0743 C   0  0  0  0  0  0  0  0  0  0  0  0
   21.1076   -4.1879  -14.0060 C   0  0  0  0  0  0  0  0  0  0  0  0
   20.4451   -3.0900  -14.5309 C   0  0  0  0  0  0  0  0  0  0  0  0
   21.0422   -1.8365  -14.4744 C   0  0  0  0  0  0  0  0  0  0  0  0
   22.2778   -1.6404  -13.9123 C   0  0  0  0  0  0  0  0  0  0  0  0
   22.9446   -2.7257  -13.3878 C   0  0  0  0  0  0  0  0  0  0  0  0
   22.3436   -3.9703  -13.4478 C   0  0  0  0  0  0  0  0  0  0  0  0
   22.3474   -6.4279  -15.3829 C   0  0  0  0  0  0  0  0  0  0  0  0
   23.0010   -7.4382  -14.6898 O   0  0  0  0  0  0  0  0  0  0  0  0
   23.0501   -5.6464  -16.0700 O   0  0  0  0  0  0  0  0  0  0  0  0
  2  1  1  1
  2 10  1  0
  2  3  1  0
  3  4  1  0
  4  9  1  0
  4  5  2  0
  5  6  1  0
  6  7  2  0
  8  7  1  0
  9  8  2  0
 10 12  1  0
 10 11  2  0
 12 13  1  0
 13 19  1  0
 13 14  1  6
 15 14  1  0
 16 15  1  0
 17 16  1  0
 18 17  1  0
 19 20  2  0
 19 21  1  0
 21 22  1  0
 22 30  1  0
 22 23  1  1
 23 24  1  0
 24 25  2  0
 24 29  1  0
 25 26  1  0
 26 27  2  0
 28 27  1  0
 29 28  2  0
 30 31  1  0
 32 30  2  0
M  END
$$$$
