FKF.pdb
     RDKit          3D

 32 33  0  0  1  0  0  0  0  0999 V2000
   27.0263  -25.2383  -23.3126 N   0  0  0  0  0  0  0  0  0  0  0  0
   26.2524  -24.5819  -22.2815 C   0  0  1  0  0  0  0  0  0  0  0  0
   24.8902  -24.1753  -22.7380 C   0  0  0  0  0  0  0  0  0  0  0  0
   24.0013  -23.6548  -21.7123 C   0  0  0  0  0  0  0  0  0  0  0  0
   22.9304  -24.3577  -21.2012 C   0  0  0  0  0  0  0  0  0  0  0  0
   22.1041  -23.8196  -20.2206 C   0  0  0  0  0  0  0  0  0  0  0  0
   22.3287  -22.5647  -19.7267 C   0  0  0  0  0  0  0  0  0  0  0  0
   23.3877  -21.8477  -20.2203 C   0  0  0  0  0  0  0  0  0  0  0  0
   24.2090  -22.3921  -21.2002 C   0  0  0  0  0  0  0  0  0  0  0  0
   26.2777  -25.4400  -21.0801 C   0  0  0  0  0  0  0  0  0  0  0  0
   26.0787  -26.6847  -21.1685 O   0  0  0  0  0  0  0  0  0  0  0  0
   26.5233  -24.9518  -19.7547 N   0  0  0  0  0  0  0  0  0  0  0  0
   26.5623  -25.8382  -18.6020 C   0  0  1  0  0  0  0  0  0  0  0  0
   27.7626  -25.3567  -17.7706 C   0  0  0  0  0  0  0  0  0  0  0  0
   27.9791  -26.3980  -16.6810 C   0  0  0  0  0  0  0  0  0  0  0  0
   29.1263  -26.0052  -15.7823 C   0  0  0  0  0  0  0  0  0  0  0  0
   30.3647  -26.7244  -16.3258 C   0  0  0  0  0  0  0  0  0  0  0  0
   31.4929  -26.2947  -15.4965 N   0  0  0  0  0  0  0  0  0  0  0  0
   25.3350  -25.8582  -17.8203 C   0  0  0  0  0  0  0  0  0  0  0  0
   24.8847  -24.8346  -17.2535 O   0  0  0  0  0  0  0  0  0  0  0  0
   24.6053  -27.0657  -17.6802 N   0  0  0  0  0  0  0  0  0  0  0  0
   23.3592  -27.1518  -16.9449 C   0  0  1  0  0  0  0  0  0  0  0  0
   22.3392  -26.1577  -17.4672 C   0  0  0  0  0  0  0  0  0  0  0  0
   22.2851  -24.9566  -16.5984 C   0  0  0  0  0  0  0  0  0  0  0  0
   21.6066  -25.0318  -15.3927 C   0  0  0  0  0  0  0  0  0  0  0  0
   21.5470  -23.9152  -14.5677 C   0  0  0  0  0  0  0  0  0  0  0  0
   22.1411  -22.7256  -14.9043 C   0  0  0  0  0  0  0  0  0  0  0  0
   22.8181  -22.6408  -16.1011 C   0  0  0  0  0  0  0  0  0  0  0  0
   22.8729  -23.7568  -16.9168 C   0  0  0  0  0  0  0  0  0  0  0  0
   22.8493  -28.5372  -17.0281 C   0  0  0  0  0  0  0  0  0  0  0  0
   23.4666  -29.5062  -17.8079 O   0  0  0  0  0  0  0  0  0  0  0  0
   21.8265  -28.8755  -16.3830 O   0  0  0  0  0  0  0  0  0  0  0  0
  2  1  1  6
  2 10  1  0
  2  3  1  0
  3  4  1  0
  4  9  1  0
  4  5  2  0
  5  6  1  0
  6  7  2  0
  8  7  1  0
  9  8  2  0
 10 12  1  0
 10 11  2  0
 12 13  1  0
 13 19  1  0
 13 14  1  1
 15 14  1  0
 16 15  1  0
 17 16  1  0
 18 17  1  0
 19 20  2  0
 19 21  1  0
 21 22  1  0
 22 30  1  0
 22 23  1  6
 23 24  1  0
 24 25  2  0
 24 29  1  0
 25 26  1  0
 26 27  2  0
 28 27  1  0
 29 28  2  0
 30 31  1  0
 32 30  2  0
M  END
$$$$
