FKF.pdb
     RDKit          3D

 32 33  0  0  1  0  0  0  0  0999 V2000
   26.0208  -18.9039   -7.8943 N   0  0  0  0  0  0  0  0  0  0  0  0
   26.9715  -19.7316   -8.6043 C   0  0  1  0  0  0  0  0  0  0  0  0
   27.3626  -20.9583   -7.8484 C   0  0  0  0  0  0  0  0  0  0  0  0
   27.9891  -20.7394   -6.5551 C   0  0  0  0  0  0  0  0  0  0  0  0
   29.2326  -20.1642   -6.3963 C   0  0  0  0  0  0  0  0  0  0  0  0
   29.7950  -19.9752   -5.1386 C   0  0  0  0  0  0  0  0  0  0  0  0
   29.1275  -20.3570   -4.0082 C   0  0  0  0  0  0  0  0  0  0  0  0
   27.8898  -20.9310   -4.1422 C   0  0  0  0  0  0  0  0  0  0  0  0
   27.3342  -21.1167   -5.4024 C   0  0  0  0  0  0  0  0  0  0  0  0
   26.4363  -19.9770   -9.9585 C   0  0  0  0  0  0  0  0  0  0  0  0
   25.2030  -20.1835  -10.1402 O   0  0  0  0  0  0  0  0  0  0  0  0
   27.2422  -20.0000  -11.1439 N   0  0  0  0  0  0  0  0  0  0  0  0
   26.6617  -19.8835  -12.4726 C   0  0  1  0  0  0  0  0  0  0  0  0
   27.8536  -19.6101  -13.4046 C   0  0  0  0  0  0  0  0  0  0  0  0
   27.2966  -18.8683  -14.6121 C   0  0  0  0  0  0  0  0  0  0  0  0
   28.3887  -18.5687  -15.6098 C   0  0  0  0  0  0  0  0  0  0  0  0
   27.7449  -17.7213  -16.7114 C   0  0  0  0  0  0  0  0  0  0  0  0
   28.8072  -17.4077  -17.6697 N   0  0  0  0  0  0  0  0  0  0  0  0
   25.8983  -21.0477  -12.8967 C   0  0  0  0  0  0  0  0  0  0  0  0
   26.0831  -22.1858  -12.4046 O   0  0  0  0  0  0  0  0  0  0  0  0
   24.9054  -20.9152  -13.9000 N   0  0  0  0  0  0  0  0  0  0  0  0
   23.4988  -21.1632  -13.6532 C   0  0  1  0  0  0  0  0  0  0  0  0
   22.9887  -20.3398  -12.4856 C   0  0  0  0  0  0  0  0  0  0  0  0
   21.5325  -20.5473  -12.2943 C   0  0  0  0  0  0  0  0  0  0  0  0
   21.1051  -21.5604  -11.4513 C   0  0  0  0  0  0  0  0  0  0  0  0
   19.7441  -21.7673  -11.2617 C   0  0  0  0  0  0  0  0  0  0  0  0
   18.7944  -20.9981  -11.8845 C   0  0  0  0  0  0  0  0  0  0  0  0
   19.2094  -19.9883  -12.7246 C   0  0  0  0  0  0  0  0  0  0  0  0
   20.5659  -19.7886  -12.9081 C   0  0  0  0  0  0  0  0  0  0  0  0
   22.7380  -20.8726  -14.8873 C   0  0  0  0  0  0  0  0  0  0  0  0
   21.7433  -21.7191  -15.3588 O   0  0  0  0  0  0  0  0  0  0  0  0
   22.9788  -19.8336  -15.5499 O   0  0  0  0  0  0  0  0  0  0  0  0
  2  1  1  1
  2 10  1  0
  2  3  1  0
  3  4  1  0
  4  9  1  0
  4  5  2  0
  5  6  1  0
  6  7  2  0
  8  7  1  0
  9  8  2  0
 10 12  1  0
 10 11  2  0
 12 13  1  0
 13 19  1  0
 13 14  1  6
 15 14  1  0
 16 15  1  0
 17 16  1  0
 18 17  1  0
 19 20  2  0
 19 21  1  0
 21 22  1  0
 22 30  1  0
 22 23  1  1
 23 24  1  0
 24 25  2  0
 24 29  1  0
 25 26  1  0
 26 27  2  0
 28 27  1  0
 29 28  2  0
 30 31  1  0
 32 30  2  0
M  END
$$$$
