FKF.pdb
     RDKit          3D

 32 33  0  0  1  0  0  0  0  0999 V2000
   24.4050  -18.7954  -15.8375 N   0  0  0  0  0  0  0  0  0  0  0  0
   24.9375  -18.4039  -14.5505 C   0  0  1  0  0  0  0  0  0  0  0  0
   24.0205  -17.5108  -13.7820 C   0  0  0  0  0  0  0  0  0  0  0  0
   23.8602  -16.1617  -14.2992 C   0  0  0  0  0  0  0  0  0  0  0  0
   24.9173  -15.3369  -14.6222 C   0  0  0  0  0  0  0  0  0  0  0  0
   24.7176  -14.0513  -15.1131 C   0  0  0  0  0  0  0  0  0  0  0  0
   23.4550  -13.5586  -15.2931 C   0  0  0  0  0  0  0  0  0  0  0  0
   22.3890  -14.3611  -14.9786 C   0  0  0  0  0  0  0  0  0  0  0  0
   22.5966  -15.6448  -14.4885 C   0  0  0  0  0  0  0  0  0  0  0  0
   25.3550  -19.6296  -13.8407 C   0  0  0  0  0  0  0  0  0  0  0  0
   24.5331  -20.5647  -13.6241 O   0  0  0  0  0  0  0  0  0  0  0  0
   26.6840  -19.8574  -13.3538 N   0  0  0  0  0  0  0  0  0  0  0  0
   27.0284  -21.0387  -12.5781 C   0  0  1  0  0  0  0  0  0  0  0  0
   28.2169  -21.6699  -13.3216 C   0  0  0  0  0  0  0  0  0  0  0  0
   27.7420  -21.9434  -14.7421 C   0  0  0  0  0  0  0  0  0  0  0  0
   28.8295  -22.6025  -15.5551 C   0  0  0  0  0  0  0  0  0  0  0  0
   28.2645  -22.7777  -16.9681 C   0  0  0  0  0  0  0  0  0  0  0  0
   29.3525  -23.3160  -17.7876 N   0  0  0  0  0  0  0  0  0  0  0  0
   27.3438  -20.7682  -11.1833 C   0  0  0  0  0  0  0  0  0  0  0  0
   28.4342  -20.2610  -10.8290 O   0  0  0  0  0  0  0  0  0  0  0  0
   26.4009  -21.0803  -10.1717 N   0  0  0  0  0  0  0  0  0  0  0  0
   26.6840  -20.9302   -8.7581 C   0  0  1  0  0  0  0  0  0  0  0  0
   27.1620  -19.5269   -8.4360 C   0  0  0  0  0  0  0  0  0  0  0  0
   27.5310  -19.4146   -7.0037 C   0  0  0  0  0  0  0  0  0  0  0  0
   26.9034  -18.4573   -6.2231 C   0  0  0  0  0  0  0  0  0  0  0  0
   27.2383  -18.3398   -4.8796 C   0  0  0  0  0  0  0  0  0  0  0  0
   28.1780  -19.1447   -4.2877 C   0  0  0  0  0  0  0  0  0  0  0  0
   28.8076  -20.0997   -5.0554 C   0  0  0  0  0  0  0  0  0  0  0  0
   28.4687  -20.2104   -6.3921 C   0  0  0  0  0  0  0  0  0  0  0  0
   25.4694  -21.2731   -7.9878 C   0  0  0  0  0  0  0  0  0  0  0  0
   24.1923  -21.0139   -8.4677 O   0  0  0  0  0  0  0  0  0  0  0  0
   25.5669  -21.8171   -6.8603 O   0  0  0  0  0  0  0  0  0  0  0  0
  2  1  1  6
  2 10  1  0
  2  3  1  0
  3  4  1  0
  4  9  1  0
  4  5  2  0
  5  6  1  0
  6  7  2  0
  8  7  1  0
  9  8  2  0
 10 12  1  0
 10 11  2  0
 12 13  1  0
 13 19  1  0
 13 14  1  6
 15 14  1  0
 16 15  1  0
 17 16  1  0
 18 17  1  0
 19 20  2  0
 19 21  1  0
 21 22  1  0
 22 30  1  0
 22 23  1  6
 23 24  1  0
 24 25  2  0
 24 29  1  0
 25 26  1  0
 26 27  2  0
 28 27  1  0
 29 28  2  0
 30 31  1  0
 32 30  2  0
M  END
$$$$
