FKF.pdb
     RDKit          3D

 32 33  0  0  1  0  0  0  0  0999 V2000
   18.3603  -24.9210  -13.2633 N   0  0  0  0  0  0  0  0  0  0  0  0
   18.9233  -24.4466  -12.0180 C   0  0  1  0  0  0  0  0  0  0  0  0
   18.6608  -22.9982  -11.7683 C   0  0  0  0  0  0  0  0  0  0  0  0
   19.2422  -22.0693  -12.7235 C   0  0  0  0  0  0  0  0  0  0  0  0
   20.5859  -21.7618  -12.7691 C   0  0  0  0  0  0  0  0  0  0  0  0
   21.0991  -20.8651  -13.7000 C   0  0  0  0  0  0  0  0  0  0  0  0
   20.2807  -20.2537  -14.6085 C   0  0  0  0  0  0  0  0  0  0  0  0
   18.9413  -20.5444  -14.5816 C   0  0  0  0  0  0  0  0  0  0  0  0
   18.4358  -21.4415  -13.6484 C   0  0  0  0  0  0  0  0  0  0  0  0
   18.4776  -25.3560  -10.9434 C   0  0  0  0  0  0  0  0  0  0  0  0
   17.2483  -25.5205  -10.7021 O   0  0  0  0  0  0  0  0  0  0  0  0
   19.3710  -26.1064  -10.1102 N   0  0  0  0  0  0  0  0  0  0  0  0
   18.8907  -26.9324   -9.0135 C   0  0  1  0  0  0  0  0  0  0  0  0
   19.9366  -28.0501   -8.8699 C   0  0  0  0  0  0  0  0  0  0  0  0
   19.8352  -28.9010  -10.1285 C   0  0  0  0  0  0  0  0  0  0  0  0
   20.7293  -30.1131  -10.0315 C   0  0  0  0  0  0  0  0  0  0  0  0
   20.5026  -30.9191  -11.3142 C   0  0  0  0  0  0  0  0  0  0  0  0
   21.3072  -32.1365  -11.1885 N   0  0  0  0  0  0  0  0  0  0  0  0
   18.6920  -26.2127   -7.7643 C   0  0  0  0  0  0  0  0  0  0  0  0
   19.4670  -25.3036   -7.3841 O   0  0  0  0  0  0  0  0  0  0  0  0
   17.5905  -26.5329   -6.9311 N   0  0  0  0  0  0  0  0  0  0  0  0
   17.3359  -25.8637   -5.6709 C   0  0  1  0  0  0  0  0  0  0  0  0
   15.8852  -26.0083   -5.2513 C   0  0  0  0  0  0  0  0  0  0  0  0
   15.6721  -25.4417   -3.8971 C   0  0  0  0  0  0  0  0  0  0  0  0
   15.2876  -24.1159   -3.7783 C   0  0  0  0  0  0  0  0  0  0  0  0
   15.0841  -23.5707   -2.5164 C   0  0  0  0  0  0  0  0  0  0  0  0
   15.2511  -24.3027   -1.3686 C   0  0  0  0  0  0  0  0  0  0  0  0
   15.6333  -25.6218   -1.4762 C   0  0  0  0  0  0  0  0  0  0  0  0
   15.8339  -26.1573   -2.7359 C   0  0  0  0  0  0  0  0  0  0  0  0
   18.2482  -26.4126   -4.6448 C   0  0  0  0  0  0  0  0  0  0  0  0
   18.4679  -27.7766   -4.5049 O   0  0  0  0  0  0  0  0  0  0  0  0
   18.8568  -25.6428   -3.8614 O   0  0  0  0  0  0  0  0  0  0  0  0
  2  1  1  6
  2 10  1  0
  2  3  1  0
  3  4  1  0
  4  9  1  0
  4  5  2  0
  5  6  1  0
  6  7  2  0
  8  7  1  0
  9  8  2  0
 10 12  1  0
 10 11  2  0
 12 13  1  0
 13 19  1  0
 13 14  1  1
 15 14  1  0
 16 15  1  0
 17 16  1  0
 18 17  1  0
 19 20  2  0
 19 21  1  0
 21 22  1  0
 22 30  1  0
 22 23  1  1
 23 24  1  0
 24 25  2  0
 24 29  1  0
 25 26  1  0
 26 27  2  0
 28 27  1  0
 29 28  2  0
 30 31  1  0
 32 30  2  0
M  END
$$$$
