FKF.pdb
     RDKit          3D

 32 33  0  0  1  0  0  0  0  0999 V2000
   21.8579  -23.6515  -19.5514 N   0  0  0  0  0  0  0  0  0  0  0  0
   21.3854  -22.2886  -19.4414 C   0  0  1  0  0  0  0  0  0  0  0  0
   19.8982  -22.1749  -19.5063 C   0  0  0  0  0  0  0  0  0  0  0  0
   19.2768  -22.6173  -20.7438 C   0  0  0  0  0  0  0  0  0  0  0  0
   18.7174  -23.8665  -20.9135 C   0  0  0  0  0  0  0  0  0  0  0  0
   18.1342  -24.2487  -22.1167 C   0  0  0  0  0  0  0  0  0  0  0  0
   18.0961  -23.3906  -23.1803 C   0  0  0  0  0  0  0  0  0  0  0  0
   18.6463  -22.1435  -23.0342 C   0  0  0  0  0  0  0  0  0  0  0  0
   19.2273  -21.7687  -21.8288 C   0  0  0  0  0  0  0  0  0  0  0  0
   22.0055  -21.6892  -18.2427 C   0  0  0  0  0  0  0  0  0  0  0  0
   22.1691  -22.3682  -17.1896 O   0  0  0  0  0  0  0  0  0  0  0  0
   22.4611  -20.3317  -18.1731 N   0  0  0  0  0  0  0  0  0  0  0  0
   22.9788  -19.7549  -16.9421 C   0  0  1  0  0  0  0  0  0  0  0  0
   23.8736  -18.5895  -17.3947 C   0  0  0  0  0  0  0  0  0  0  0  0
   25.1308  -19.2138  -17.9847 C   0  0  0  0  0  0  0  0  0  0  0  0
   26.0424  -18.1531  -18.5521 C   0  0  0  0  0  0  0  0  0  0  0  0
   25.3579  -17.6296  -19.8184 C   0  0  0  0  0  0  0  0  0  0  0  0
   26.2629  -16.6357  -20.4001 N   0  0  0  0  0  0  0  0  0  0  0  0
   21.9523  -19.3185  -16.0073 C   0  0  0  0  0  0  0  0  0  0  0  0
   22.2306  -18.8227  -14.8900 O   0  0  0  0  0  0  0  0  0  0  0  0
   20.5826  -19.4484  -16.3496 N   0  0  0  0  0  0  0  0  0  0  0  0
   19.5141  -18.8849  -15.5487 C   0  0  1  0  0  0  0  0  0  0  0  0
   18.9007  -17.6709  -16.2207 C   0  0  0  0  0  0  0  0  0  0  0  0
   18.2295  -18.0554  -17.4863 C   0  0  0  0  0  0  0  0  0  0  0  0
   18.9295  -17.9439  -18.6768 C   0  0  0  0  0  0  0  0  0  0  0  0
   18.3144  -18.3002  -19.8708 C   0  0  0  0  0  0  0  0  0  0  0  0
   17.0246  -18.7642  -19.9182 C   0  0  0  0  0  0  0  0  0  0  0  0
   16.3202  -18.8786  -18.7398 C   0  0  0  0  0  0  0  0  0  0  0  0
   16.9395  -18.5219  -17.5553 C   0  0  0  0  0  0  0  0  0  0  0  0
   18.4989  -19.9310  -15.3012 C   0  0  0  0  0  0  0  0  0  0  0  0
   17.3895  -19.7084  -14.4962 O   0  0  0  0  0  0  0  0  0  0  0  0
   18.6192  -21.0666  -15.8234 O   0  0  0  0  0  0  0  0  0  0  0  0
  2  1  1  1
  2 10  1  0
  2  3  1  0
  3  4  1  0
  4  9  1  0
  4  5  2  0
  5  6  1  0
  6  7  2  0
  8  7  1  0
  9  8  2  0
 10 12  1  0
 10 11  2  0
 12 13  1  0
 13 19  1  0
 13 14  1  6
 15 14  1  0
 16 15  1  0
 17 16  1  0
 18 17  1  0
 19 20  2  0
 19 21  1  0
 21 22  1  0
 22 30  1  0
 22 23  1  6
 23 24  1  0
 24 25  2  0
 24 29  1  0
 25 26  1  0
 26 27  2  0
 28 27  1  0
 29 28  2  0
 30 31  1  0
 32 30  2  0
M  END
$$$$
