FKF.pdb
     RDKit          3D

 32 33  0  0  1  0  0  0  0  0999 V2000
   16.5474  -19.5207    1.5623 N   0  0  0  0  0  0  0  0  0  0  0  0
   16.1453  -19.3566    2.9423 C   0  0  1  0  0  0  0  0  0  0  0  0
   15.7469  -20.6389    3.5950 C   0  0  0  0  0  0  0  0  0  0  0  0
   14.6097  -21.3285    3.0080 C   0  0  0  0  0  0  0  0  0  0  0  0
   13.3117  -20.8699    3.0924 C   0  0  0  0  0  0  0  0  0  0  0  0
   12.2528  -21.5635    2.5166 C   0  0  0  0  0  0  0  0  0  0  0  0
   12.4660  -22.7333    1.8419 C   0  0  0  0  0  0  0  0  0  0  0  0
   13.7484  -23.2080    1.7455 C   0  0  0  0  0  0  0  0  0  0  0  0
   14.8015  -22.5094    2.3235 C   0  0  0  0  0  0  0  0  0  0  0  0
   17.2096  -18.6062    3.6385 C   0  0  0  0  0  0  0  0  0  0  0  0
   18.4270  -18.8971    3.4652 O   0  0  0  0  0  0  0  0  0  0  0  0
   16.9620  -17.5189    4.5395 N   0  0  0  0  0  0  0  0  0  0  0  0
   18.0419  -16.8197    5.2184 C   0  0  1  0  0  0  0  0  0  0  0  0
   17.4632  -15.4391    5.5688 C   0  0  0  0  0  0  0  0  0  0  0  0
   18.6189  -14.6123    6.1156 C   0  0  0  0  0  0  0  0  0  0  0  0
   18.1671  -13.2114    6.4495 C   0  0  0  0  0  0  0  0  0  0  0  0
   19.4139  -12.4583    6.9235 C   0  0  0  0  0  0  0  0  0  0  0  0
   18.9780  -11.1006    7.2579 N   0  0  0  0  0  0  0  0  0  0  0  0
   18.5541  -17.5069    6.3945 C   0  0  0  0  0  0  0  0  0  0  0  0
   17.8112  -18.1570    7.1673 O   0  0  0  0  0  0  0  0  0  0  0  0
   19.9379  -17.4539    6.6980 N   0  0  0  0  0  0  0  0  0  0  0  0
   20.5320  -18.1907    7.7957 C   0  0  1  0  0  0  0  0  0  0  0  0
   22.0365  -18.0004    7.8393 C   0  0  0  0  0  0  0  0  0  0  0  0
   22.3827  -16.7025    8.4684 C   0  0  0  0  0  0  0  0  0  0  0  0
   22.3222  -15.5494    7.7026 C   0  0  0  0  0  0  0  0  0  0  0  0
   22.6436  -14.3258    8.2776 C   0  0  0  0  0  0  0  0  0  0  0  0
   23.0235  -14.2129    9.5907 C   0  0  0  0  0  0  0  0  0  0  0  0
   23.0868  -15.3537   10.3604 C   0  0  0  0  0  0  0  0  0  0  0  0
   22.7653  -16.5679    9.7807 C   0  0  0  0  0  0  0  0  0  0  0  0
   19.8998  -17.7577    9.0602 C   0  0  0  0  0  0  0  0  0  0  0  0
   19.1295  -16.6054    9.1446 O   0  0  0  0  0  0  0  0  0  0  0  0
   20.0480  -18.4352   10.1069 O   0  0  0  0  0  0  0  0  0  0  0  0
  2  1  1  6
  2 10  1  0
  2  3  1  0
  3  4  1  0
  4  9  1  0
  4  5  2  0
  5  6  1  0
  6  7  2  0
  8  7  1  0
  9  8  2  0
 10 12  1  0
 10 11  2  0
 12 13  1  0
 13 19  1  0
 13 14  1  1
 15 14  1  0
 16 15  1  0
 17 16  1  0
 18 17  1  0
 19 20  2  0
 19 21  1  0
 21 22  1  0
 22 30  1  0
 22 23  1  1
 23 24  1  0
 24 25  2  0
 24 29  1  0
 25 26  1  0
 26 27  2  0
 28 27  1  0
 29 28  2  0
 30 31  1  0
 32 30  2  0
M  END
$$$$
