FKF.pdb
     RDKit          3D

 32 33  0  0  1  0  0  0  0  0999 V2000
   22.3023  -19.4830  -17.8434 N   0  0  0  0  0  0  0  0  0  0  0  0
   23.3168  -18.7076  -17.1633 C   0  0  1  0  0  0  0  0  0  0  0  0
   22.7510  -17.6958  -16.2224 C   0  0  0  0  0  0  0  0  0  0  0  0
   21.9264  -16.6583  -16.8198 C   0  0  0  0  0  0  0  0  0  0  0  0
   22.4372  -15.5150  -17.3978 C   0  0  0  0  0  0  0  0  0  0  0  0
   21.6103  -14.5466  -17.9567 C   0  0  0  0  0  0  0  0  0  0  0  0
   20.2515  -14.6979  -17.9512 C   0  0  0  0  0  0  0  0  0  0  0  0
   19.7217  -15.8268  -17.3819 C   0  0  0  0  0  0  0  0  0  0  0  0
   20.5544  -16.7901  -16.8253 C   0  0  0  0  0  0  0  0  0  0  0  0
   24.2799  -19.6507  -16.5605 C   0  0  0  0  0  0  0  0  0  0  0  0
   23.8808  -20.6391  -15.8820 O   0  0  0  0  0  0  0  0  0  0  0  0
   25.7027  -19.5311  -16.6898 N   0  0  0  0  0  0  0  0  0  0  0  0
   26.6171  -20.4266  -15.9984 C   0  0  1  0  0  0  0  0  0  0  0  0
   27.9743  -20.2211  -16.6910 C   0  0  0  0  0  0  0  0  0  0  0  0
   28.3766  -21.5736  -17.2631 C   0  0  0  0  0  0  0  0  0  0  0  0
   29.7359  -21.4989  -17.9147 C   0  0  0  0  0  0  0  0  0  0  0  0
   29.9742  -22.8623  -18.5711 C   0  0  0  0  0  0  0  0  0  0  0  0
   31.2642  -22.7732  -19.2591 N   0  0  0  0  0  0  0  0  0  0  0  0
   26.7022  -20.2040  -14.5628 C   0  0  0  0  0  0  0  0  0  0  0  0
   27.3052  -19.2206  -14.0718 O   0  0  0  0  0  0  0  0  0  0  0  0
   26.0899  -21.1173  -13.6679 N   0  0  0  0  0  0  0  0  0  0  0  0
   26.2802  -21.0603  -12.2322 C   0  0  1  0  0  0  0  0  0  0  0  0
   25.7898  -19.7431  -11.6613 C   0  0  0  0  0  0  0  0  0  0  0  0
   25.8353  -19.7648  -10.1789 C   0  0  0  0  0  0  0  0  0  0  0  0
   26.9274  -19.2073   -9.5338 C   0  0  0  0  0  0  0  0  0  0  0  0
   26.9847  -19.2200   -8.1454 C   0  0  0  0  0  0  0  0  0  0  0  0
   25.9896  -19.7698   -7.3781 C   0  0  0  0  0  0  0  0  0  0  0  0
   24.8995  -20.3266   -8.0102 C   0  0  0  0  0  0  0  0  0  0  0  0
   24.8499  -20.3101   -9.3926 C   0  0  0  0  0  0  0  0  0  0  0  0
   25.5828  -22.2067  -11.6113 C   0  0  0  0  0  0  0  0  0  0  0  0
   26.0961  -22.8739  -10.5069 O   0  0  0  0  0  0  0  0  0  0  0  0
   24.4892  -22.6109  -12.0774 O   0  0  0  0  0  0  0  0  0  0  0  0
  2  1  1  1
  2 10  1  0
  2  3  1  0
  3  4  1  0
  4  9  1  0
  4  5  2  0
  5  6  1  0
  6  7  2  0
  8  7  1  0
  9  8  2  0
 10 12  1  0
 10 11  2  0
 12 13  1  0
 13 19  1  0
 13 14  1  6
 15 14  1  0
 16 15  1  0
 17 16  1  0
 18 17  1  0
 19 20  2  0
 19 21  1  0
 21 22  1  0
 22 30  1  0
 22 23  1  1
 23 24  1  0
 24 25  2  0
 24 29  1  0
 25 26  1  0
 26 27  2  0
 28 27  1  0
 29 28  2  0
 30 31  1  0
 32 30  2  0
M  END
$$$$
