FKF.pdb
     RDKit          3D

 32 33  0  0  1  0  0  0  0  0999 V2000
   23.3924  -19.2171  -19.4244 N   0  0  0  0  0  0  0  0  0  0  0  0
   24.2081  -18.6275  -18.3852 C   0  0  1  0  0  0  0  0  0  0  0  0
   23.4679  -17.6380  -17.5472 C   0  0  0  0  0  0  0  0  0  0  0  0
   23.0105  -16.4384  -18.2291 C   0  0  0  0  0  0  0  0  0  0  0  0
   23.7961  -15.3208  -18.4184 C   0  0  0  0  0  0  0  0  0  0  0  0
   23.3164  -14.1932  -19.0758 C   0  0  0  0  0  0  0  0  0  0  0  0
   22.0385  -14.1555  -19.5603 C   0  0  0  0  0  0  0  0  0  0  0  0
   21.2396  -15.2553  -19.3834 C   0  0  0  0  0  0  0  0  0  0  0  0
   21.7260  -16.3785  -18.7255 C   0  0  0  0  0  0  0  0  0  0  0  0
   24.8492  -19.7256  -17.6343 C   0  0  0  0  0  0  0  0  0  0  0  0
   24.2191  -20.7909  -17.3800 O   0  0  0  0  0  0  0  0  0  0  0  0
   26.1966  -19.6797  -17.1468 N   0  0  0  0  0  0  0  0  0  0  0  0
   26.7645  -20.7558  -16.3496 C   0  0  1  0  0  0  0  0  0  0  0  0
   28.0859  -21.1141  -17.0491 C   0  0  0  0  0  0  0  0  0  0  0  0
   28.6115  -22.3681  -16.3637 C   0  0  0  0  0  0  0  0  0  0  0  0
   29.8973  -22.8318  -17.0037 C   0  0  0  0  0  0  0  0  0  0  0  0
   30.3249  -24.0927  -16.2464 C   0  0  0  0  0  0  0  0  0  0  0  0
   31.6171  -24.4960  -16.8056 N   0  0  0  0  0  0  0  0  0  0  0  0
   26.9671  -20.4201  -14.9481 C   0  0  0  0  0  0  0  0  0  0  0  0
   27.5441  -19.3669  -14.5880 O   0  0  0  0  0  0  0  0  0  0  0  0
   26.5046  -21.2989  -13.9363 N   0  0  0  0  0  0  0  0  0  0  0  0
   26.6165  -21.0001  -12.5225 C   0  0  1  0  0  0  0  0  0  0  0  0
   25.9451  -19.6833  -12.1808 C   0  0  0  0  0  0  0  0  0  0  0  0
   24.4983  -19.7330  -12.5043 C   0  0  0  0  0  0  0  0  0  0  0  0
   23.6174  -20.2348  -11.5600 C   0  0  0  0  0  0  0  0  0  0  0  0
   22.2590  -20.2879  -11.8482 C   0  0  0  0  0  0  0  0  0  0  0  0
   21.7490  -19.8575  -13.0465 C   0  0  0  0  0  0  0  0  0  0  0  0
   22.6169  -19.3569  -13.9920 C   0  0  0  0  0  0  0  0  0  0  0  0
   23.9676  -19.3073  -13.6975 C   0  0  0  0  0  0  0  0  0  0  0  0
   26.0315  -22.1167  -11.7497 C   0  0  0  0  0  0  0  0  0  0  0  0
   25.4529  -23.2185  -12.3658 O   0  0  0  0  0  0  0  0  0  0  0  0
   26.0448  -22.0937  -10.4943 O   0  0  0  0  0  0  0  0  0  0  0  0
  2  1  1  6
  2 10  1  0
  2  3  1  0
  3  4  1  0
  4  9  1  0
  4  5  2  0
  5  6  1  0
  6  7  2  0
  8  7  1  0
  9  8  2  0
 10 12  1  0
 10 11  2  0
 12 13  1  0
 13 19  1  0
 13 14  1  6
 15 14  1  0
 16 15  1  0
 17 16  1  0
 18 17  1  0
 19 20  2  0
 19 21  1  0
 21 22  1  0
 22 30  1  0
 22 23  1  6
 23 24  1  0
 24 25  2  0
 24 29  1  0
 25 26  1  0
 26 27  2  0
 28 27  1  0
 29 28  2  0
 30 31  1  0
 32 30  2  0
M  END
$$$$
