FKF.pdb
     RDKit          3D

 32 33  0  0  1  0  0  0  0  0999 V2000
   22.3205  -29.0592  -19.4536 N   0  0  0  0  0  0  0  0  0  0  0  0
   23.7339  -28.7888  -19.3046 C   0  0  1  0  0  0  0  0  0  0  0  0
   24.0183  -27.6109  -18.4323 C   0  0  0  0  0  0  0  0  0  0  0  0
   23.6316  -26.3141  -18.9633 C   0  0  0  0  0  0  0  0  0  0  0  0
   24.3044  -25.6752  -19.9837 C   0  0  0  0  0  0  0  0  0  0  0  0
   23.9000  -24.4329  -20.4602 C   0  0  0  0  0  0  0  0  0  0  0  0
   22.8122  -23.7987  -19.9275 C   0  0  0  0  0  0  0  0  0  0  0  0
   22.1282  -24.4153  -18.9121 C   0  0  0  0  0  0  0  0  0  0  0  0
   22.5383  -25.6568  -18.4413 C   0  0  0  0  0  0  0  0  0  0  0  0
   24.3947  -30.0438  -18.8938 C   0  0  0  0  0  0  0  0  0  0  0  0
   23.7798  -30.9032  -18.2011 O   0  0  0  0  0  0  0  0  0  0  0  0
   25.7448  -30.3845  -19.2350 N   0  0  0  0  0  0  0  0  0  0  0  0
   26.3609  -31.6263  -18.7943 C   0  0  1  0  0  0  0  0  0  0  0  0
   26.9921  -32.2281  -20.0605 C   0  0  0  0  0  0  0  0  0  0  0  0
   28.4335  -31.7390  -20.0992 C   0  0  0  0  0  0  0  0  0  0  0  0
   29.1279  -32.2107  -21.3534 C   0  0  0  0  0  0  0  0  0  0  0  0
   30.5873  -31.7613  -21.2326 C   0  0  0  0  0  0  0  0  0  0  0  0
   31.2718  -32.2424  -22.4348 N   0  0  0  0  0  0  0  0  0  0  0  0
   27.3368  -31.4647  -17.7268 C   0  0  0  0  0  0  0  0  0  0  0  0
   27.9263  -30.3784  -17.5167 O   0  0  0  0  0  0  0  0  0  0  0  0
   27.6484  -32.5596  -16.8818 N   0  0  0  0  0  0  0  0  0  0  0  0
   28.4754  -32.4304  -15.6985 C   0  0  1  0  0  0  0  0  0  0  0  0
   27.9053  -31.4071  -14.7345 C   0  0  0  0  0  0  0  0  0  0  0  0
   26.6578  -31.9122  -14.1110 C   0  0  0  0  0  0  0  0  0  0  0  0
   26.7469  -32.6837  -12.9635 C   0  0  0  0  0  0  0  0  0  0  0  0
   25.5872  -33.1642  -12.3677 C   0  0  0  0  0  0  0  0  0  0  0  0
   24.3411  -32.9016  -12.8773 C   0  0  0  0  0  0  0  0  0  0  0  0
   24.2420  -32.1354  -14.0179 C   0  0  0  0  0  0  0  0  0  0  0  0
   25.4012  -31.6608  -14.6051 C   0  0  0  0  0  0  0  0  0  0  0  0
   28.6047  -33.7568  -15.0581 C   0  0  0  0  0  0  0  0  0  0  0  0
   29.4292  -33.9706  -13.9614 O   0  0  0  0  0  0  0  0  0  0  0  0
   27.9593  -34.7391  -15.4998 O   0  0  0  0  0  0  0  0  0  0  0  0
  2  1  1  1
  2 10  1  0
  2  3  1  0
  3  4  1  0
  4  9  1  0
  4  5  2  0
  5  6  1  0
  6  7  2  0
  8  7  1  0
  9  8  2  0
 10 12  1  0
 10 11  2  0
 12 13  1  0
 13 19  1  0
 13 14  1  6
 15 14  1  0
 16 15  1  0
 17 16  1  0
 18 17  1  0
 19 20  2  0
 19 21  1  0
 21 22  1  0
 22 30  1  0
 22 23  1  1
 23 24  1  0
 24 25  2  0
 24 29  1  0
 25 26  1  0
 26 27  2  0
 28 27  1  0
 29 28  2  0
 30 31  1  0
 32 30  2  0
M  END
$$$$
