KLY.pdb
     RDKit          3D

 30 30  0  0  1  0  0  0  0  0999 V2000
    8.7009  -19.6765   19.0086 N   0  0  0  0  0  0  0  0  0  0  0  0
    9.8031  -19.3343   19.9278 C   0  0  1  0  0  0  0  0  0  0  0  0
   11.0515  -19.7525   19.1873 C   0  0  0  0  0  0  0  0  0  0  0  0
   11.0418  -21.2008   18.8726 C   0  0  0  0  0  0  0  0  0  0  0  0
   12.3604  -21.6514   18.2447 C   0  0  0  0  0  0  0  0  0  0  0  0
   12.3024  -23.1048   17.9022 C   0  0  0  0  0  0  0  0  0  0  0  0
   13.5163  -23.4093   17.1242 N   0  0  0  0  0  0  0  0  0  0  0  0
    9.8200  -17.8944   20.1926 C   0  0  0  0  0  0  0  0  0  0  0  0
   10.7501  -17.1292   19.8514 O   0  0  0  0  0  0  0  0  0  0  0  0
    7.4908  -13.0206   20.3605 C   0  0  0  0  0  0  0  0  0  0  0  0
    7.5545  -13.6956   21.7548 C   0  0  1  0  0  0  0  0  0  0  0  0
    6.2780  -13.2445   22.4814 C   0  0  0  0  0  0  0  0  0  0  0  0
    7.5251  -15.1697   21.6028 C   0  0  0  0  0  0  0  0  0  0  0  0
    8.7796  -15.8613   21.2196 C   0  0  2  0  0  0  0  0  0  0  0  0
    8.7298  -17.2346   20.8895 N   0  0  0  0  0  0  0  0  0  0  0  0
    9.7964  -15.5256   22.2632 C   0  0  0  0  0  0  0  0  0  0  0  0
   10.0784  -14.2847   22.3458 O   0  0  0  0  0  0  0  0  0  0  0  0
   10.3969  -14.4518   30.6420 O   0  0  0  0  0  0  0  0  0  0  0  0
   10.1883  -14.7598   29.3151 C   0  0  0  0  0  0  0  0  0  0  0  0
   10.3052  -16.0804   28.8959 C   0  0  0  0  0  0  0  0  0  0  0  0
   10.0927  -16.3778   27.5540 C   0  0  0  0  0  0  0  0  0  0  0  0
    9.7717  -15.3977   26.6432 C   0  0  0  0  0  0  0  0  0  0  0  0
    9.5550  -15.7294   25.2249 C   0  0  0  0  0  0  0  0  0  0  0  0
   10.7860  -16.1271   24.4816 C   0  0  2  0  0  0  0  0  0  0  0  0
   10.4172  -16.4687   23.1075 N   0  0  0  0  0  0  0  0  0  0  0  0
   11.5278  -17.2437   25.0745 C   0  0  0  0  0  0  0  0  0  0  0  0
   11.0569  -18.5350   24.9239 O   0  0  0  0  0  0  0  0  0  0  0  0
    9.6524  -14.0713   27.0557 C   0  0  0  0  0  0  0  0  0  0  0  0
    9.8657  -13.7859   28.3920 C   0  0  0  0  0  0  0  0  0  0  0  0
   12.6031  -17.0916   25.7354 O   0  0  0  0  0  0  0  0  0  0  0  0
  2  1  1  6
  3  2  1  0
  3  4  1  0
  5  4  1  0
  6  5  1  0
  7  6  1  0
  8  2  1  0
  8  9  2  0
 11 10  1  6
 11 13  1  0
 12 11  1  0
 14 13  1  1
 14 15  1  0
 15  8  1  0
 16 14  1  0
 17 16  2  0
 19 18  1  0
 20 19  2  0
 21 20  1  0
 22 28  1  0
 22 21  2  0
 23 22  1  0
 24 23  1  1
 24 25  1  0
 25 16  1  0
 26 24  1  0
 27 26  1  0
 28 29  2  0
 29 19  1  0
 30 26  2  0
M  END
$$$$
