KLY.pdb
     RDKit          3D

 30 30  0  0  1  0  0  0  0  0999 V2000
    5.1731  -18.9036   23.8846 N   0  0  0  0  0  0  0  0  0  0  0  0
    5.4428  -18.1949   22.6190 C   0  0  1  0  0  0  0  0  0  0  0  0
    4.0736  -17.9327   22.0376 C   0  0  0  0  0  0  0  0  0  0  0  0
    3.1395  -19.0503   22.3118 C   0  0  0  0  0  0  0  0  0  0  0  0
    1.7785  -18.8232   21.6546 C   0  0  0  0  0  0  0  0  0  0  0  0
    0.8226  -19.8999   22.0547 C   0  0  0  0  0  0  0  0  0  0  0  0
   -0.4304  -19.6540   21.3191 N   0  0  0  0  0  0  0  0  0  0  0  0
    6.1420  -16.9347   22.8773 C   0  0  0  0  0  0  0  0  0  0  0  0
    6.4157  -16.0904   21.9944 O   0  0  0  0  0  0  0  0  0  0  0  0
    6.7691  -13.5716   27.6898 C   0  0  0  0  0  0  0  0  0  0  0  0
    6.5204  -14.0137   26.2247 C   0  0  1  0  0  0  0  0  0  0  0  0
    6.5798  -12.7210   25.3964 C   0  0  0  0  0  0  0  0  0  0  0  0
    7.6065  -14.9191   25.7804 C   0  0  0  0  0  0  0  0  0  0  0  0
    7.5089  -15.5227   24.4294 C   0  0  2  0  0  0  0  0  0  0  0  0
    6.5800  -16.5656   24.2121 N   0  0  0  0  0  0  0  0  0  0  0  0
    8.9024  -15.8535   24.0001 C   0  0  0  0  0  0  0  0  0  0  0  0
    9.2829  -17.0319   24.3047 O   0  0  0  0  0  0  0  0  0  0  0  0
    7.5467  -13.6381   17.7822 O   0  0  0  0  0  0  0  0  0  0  0  0
    8.5124  -13.8465   18.7430 C   0  0  0  0  0  0  0  0  0  0  0  0
    8.9607  -15.1395   18.9888 C   0  0  0  0  0  0  0  0  0  0  0  0
    9.9351  -15.3364   19.9614 C   0  0  0  0  0  0  0  0  0  0  0  0
   10.4582  -14.2842   20.6773 C   0  0  0  0  0  0  0  0  0  0  0  0
   11.4860  -14.5112   21.7072 C   0  0  0  0  0  0  0  0  0  0  0  0
   11.0650  -15.4088   22.8222 C   0  0  2  0  0  0  0  0  0  0  0  0
    9.7593  -14.9686   23.3143 N   0  0  0  0  0  0  0  0  0  0  0  0
   12.0059  -15.4778   23.9440 C   0  0  0  0  0  0  0  0  0  0  0  0
   13.3151  -15.8604   23.7168 O   0  0  0  0  0  0  0  0  0  0  0  0
   10.0142  -12.9848   20.4366 C   0  0  0  0  0  0  0  0  0  0  0  0
    9.0450  -12.7997   19.4676 C   0  0  0  0  0  0  0  0  0  0  0  0
   11.6818  -15.2011   25.1418 O   0  0  0  0  0  0  0  0  0  0  0  0
  2  1  1  1
  3  2  1  0
  3  4  1  0
  5  4  1  0
  6  5  1  0
  7  6  1  0
  8  2  1  0
  8  9  2  0
 11 10  1  1
 11 13  1  0
 12 11  1  0
 14 13  1  1
 14 15  1  0
 15  8  1  0
 16 14  1  0
 17 16  2  0
 19 18  1  0
 20 19  2  0
 21 20  1  0
 22 28  1  0
 22 21  2  0
 23 22  1  0
 24 23  1  6
 24 25  1  0
 25 16  1  0
 26 24  1  0
 27 26  1  0
 28 29  2  0
 29 19  1  0
 30 26  2  0
M  END
$$$$
