KLY.pdb
     RDKit          3D

 30 30  0  0  1  0  0  0  0  0999 V2000
    7.2406  -17.2474   19.7213 N   0  0  0  0  0  0  0  0  0  0  0  0
    7.1282  -17.3052   21.1913 C   0  0  1  0  0  0  0  0  0  0  0  0
    8.0483  -18.4338   21.5930 C   0  0  0  0  0  0  0  0  0  0  0  0
    8.1436  -19.4657   20.5334 C   0  0  0  0  0  0  0  0  0  0  0  0
    9.0768  -20.6064   20.9379 C   0  0  0  0  0  0  0  0  0  0  0  0
    8.9611  -21.7396   19.9707 C   0  0  0  0  0  0  0  0  0  0  0  0
   10.2513  -21.8324   19.2647 N   0  0  0  0  0  0  0  0  0  0  0  0
    7.5705  -16.0435   21.7882 C   0  0  0  0  0  0  0  0  0  0  0  0
    8.4049  -15.2729   21.2619 O   0  0  0  0  0  0  0  0  0  0  0  0
    6.0346  -12.0726   26.4376 C   0  0  0  0  0  0  0  0  0  0  0  0
    6.8838  -12.3965   25.1815 C   0  0  1  0  0  0  0  0  0  0  0  0
    8.3455  -12.2783   25.6399 C   0  0  0  0  0  0  0  0  0  0  0  0
    6.6282  -13.7901   24.7463 C   0  0  0  0  0  0  0  0  0  0  0  0
    7.4004  -14.3193   23.5962 C   0  0  2  0  0  0  0  0  0  0  0  0
    7.0591  -15.5850   23.0680 N   0  0  0  0  0  0  0  0  0  0  0  0
    8.8479  -14.1782   23.9436 C   0  0  0  0  0  0  0  0  0  0  0  0
    9.2411  -12.9738   24.0884 O   0  0  0  0  0  0  0  0  0  0  0  0
   11.6647  -16.4066   31.5825 O   0  0  0  0  0  0  0  0  0  0  0  0
   11.1256  -16.2304   30.3265 C   0  0  0  0  0  0  0  0  0  0  0  0
   10.8217  -14.9458   29.8900 C   0  0  0  0  0  0  0  0  0  0  0  0
   10.2776  -14.7816   28.6206 C   0  0  0  0  0  0  0  0  0  0  0  0
   10.0376  -15.8577   27.7973 C   0  0  0  0  0  0  0  0  0  0  0  0
    9.4563  -15.6663   26.4579 C   0  0  0  0  0  0  0  0  0  0  0  0
   10.4543  -15.4646   25.3673 C   0  0  2  0  0  0  0  0  0  0  0  0
    9.7400  -15.2576   24.1072 N   0  0  0  0  0  0  0  0  0  0  0  0
   11.4151  -16.5594   25.2036 C   0  0  0  0  0  0  0  0  0  0  0  0
   11.1850  -17.5355   24.2517 O   0  0  0  0  0  0  0  0  0  0  0  0
   10.3399  -17.1488   28.2276 C   0  0  0  0  0  0  0  0  0  0  0  0
   10.8805  -17.3015   29.4914 C   0  0  0  0  0  0  0  0  0  0  0  0
   12.4718  -16.6678   25.9022 O   0  0  0  0  0  0  0  0  0  0  0  0
  2  1  1  6
  3  2  1  0
  3  4  1  0
  5  4  1  0
  6  5  1  0
  7  6  1  0
  8  2  1  0
  8  9  2  0
 11 10  1  1
 11 13  1  0
 12 11  1  0
 14 13  1  1
 14 15  1  0
 15  8  1  0
 16 14  1  0
 17 16  2  0
 19 18  1  0
 20 19  2  0
 21 20  1  0
 22 28  1  0
 22 21  2  0
 23 22  1  0
 24 23  1  1
 24 25  1  0
 25 16  1  0
 26 24  1  0
 27 26  1  0
 28 29  2  0
 29 19  1  0
 30 26  2  0
M  END
$$$$
