KLY.pdb
     RDKit          3D

 30 30  0  0  1  0  0  0  0  0999 V2000
   10.5950  -18.6092   18.2291 N   0  0  0  0  0  0  0  0  0  0  0  0
   10.0046  -18.5572   19.5802 C   0  0  1  0  0  0  0  0  0  0  0  0
   10.7981  -19.5675   20.3746 C   0  0  0  0  0  0  0  0  0  0  0  0
   10.7629  -20.9087   19.7449 C   0  0  0  0  0  0  0  0  0  0  0  0
   11.5279  -21.9414   20.5719 C   0  0  0  0  0  0  0  0  0  0  0  0
   11.5697  -23.2522   19.8556 C   0  0  0  0  0  0  0  0  0  0  0  0
   12.4137  -24.1526   20.6610 N   0  0  0  0  0  0  0  0  0  0  0  0
   10.1557  -17.2184   20.1533 C   0  0  0  0  0  0  0  0  0  0  0  0
   11.2552  -16.6379   20.2995 O   0  0  0  0  0  0  0  0  0  0  0  0
    5.9342  -13.3067   19.9842 C   0  0  0  0  0  0  0  0  0  0  0  0
    7.2458  -14.1047   19.7682 C   0  0  1  0  0  0  0  0  0  0  0  0
    8.0766  -13.2604   18.7895 C   0  0  0  0  0  0  0  0  0  0  0  0
    7.9828  -14.2190   21.0490 C   0  0  0  0  0  0  0  0  0  0  0  0
    9.1468  -15.1358   21.1100 C   0  0  2  0  0  0  0  0  0  0  0  0
    9.0099  -16.4489   20.6055 N   0  0  0  0  0  0  0  0  0  0  0  0
    9.6736  -15.0758   22.5080 C   0  0  0  0  0  0  0  0  0  0  0  0
    9.6447  -13.9144   23.0338 O   0  0  0  0  0  0  0  0  0  0  0  0
   10.4655  -15.0607   30.9359 O   0  0  0  0  0  0  0  0  0  0  0  0
   10.2137  -15.1746   29.5858 C   0  0  0  0  0  0  0  0  0  0  0  0
    9.9193  -16.4238   29.0509 C   0  0  0  0  0  0  0  0  0  0  0  0
    9.6676  -16.5252   27.6868 C   0  0  0  0  0  0  0  0  0  0  0  0
    9.7043  -15.4217   26.8657 C   0  0  0  0  0  0  0  0  0  0  0  0
    9.4402  -15.5478   25.4225 C   0  0  0  0  0  0  0  0  0  0  0  0
   10.5899  -16.0575   24.6197 C   0  0  2  0  0  0  0  0  0  0  0  0
   10.1705  -16.1843   23.2236 N   0  0  0  0  0  0  0  0  0  0  0  0
   11.1393  -17.3371   25.0772 C   0  0  0  0  0  0  0  0  0  0  0  0
   12.2264  -17.3489   25.9315 O   0  0  0  0  0  0  0  0  0  0  0  0
    9.9984  -14.1657   27.3945 C   0  0  0  0  0  0  0  0  0  0  0  0
   10.2472  -14.0755   28.7519 C   0  0  0  0  0  0  0  0  0  0  0  0
   10.6650  -18.4631   24.7260 O   0  0  0  0  0  0  0  0  0  0  0  0
  2  1  1  6
  3  2  1  0
  3  4  1  0
  5  4  1  0
  6  5  1  0
  7  6  1  0
  8  2  1  0
  8  9  2  0
 11 10  1  1
 11 13  1  0
 12 11  1  0
 14 13  1  1
 14 15  1  0
 15  8  1  0
 16 14  1  0
 17 16  2  0
 19 18  1  0
 20 19  2  0
 21 20  1  0
 22 28  1  0
 22 21  2  0
 23 22  1  0
 24 23  1  1
 24 25  1  0
 25 16  1  0
 26 24  1  0
 27 26  1  0
 28 29  2  0
 29 19  1  0
 30 26  2  0
M  END
$$$$
