KLY.pdb
     RDKit          3D

 30 30  0  0  1  0  0  0  0  0999 V2000
    8.9094  -18.8964   20.0672 N   0  0  0  0  0  0  0  0  0  0  0  0
   10.1822  -18.2927   19.6285 C   0  0  1  0  0  0  0  0  0  0  0  0
   10.0979  -18.2961   18.1204 C   0  0  0  0  0  0  0  0  0  0  0  0
    9.4413  -19.5237   17.6117 C   0  0  0  0  0  0  0  0  0  0  0  0
    9.5495  -19.6336   16.0912 C   0  0  0  0  0  0  0  0  0  0  0  0
    8.8839  -20.8830   15.6124 C   0  0  0  0  0  0  0  0  0  0  0  0
    9.0300  -20.9100   14.1462 N   0  0  0  0  0  0  0  0  0  0  0  0
   10.3002  -16.9237   20.1342 C   0  0  0  0  0  0  0  0  0  0  0  0
   11.3724  -16.2786   20.1688 O   0  0  0  0  0  0  0  0  0  0  0  0
    6.1218  -12.9200   20.0203 C   0  0  0  0  0  0  0  0  0  0  0  0
    7.4434  -13.7023   19.8078 C   0  0  1  0  0  0  0  0  0  0  0  0
    8.3577  -12.7469   19.0254 C   0  0  0  0  0  0  0  0  0  0  0  0
    8.0688  -14.0003   21.1180 C   0  0  0  0  0  0  0  0  0  0  0  0
    9.2626  -14.8798   21.1425 C   0  0  2  0  0  0  0  0  0  0  0  0
    9.1505  -16.1983   20.6457 N   0  0  0  0  0  0  0  0  0  0  0  0
    9.8332  -14.7987   22.5221 C   0  0  0  0  0  0  0  0  0  0  0  0
   10.0636  -13.6125   22.9292 O   0  0  0  0  0  0  0  0  0  0  0  0
   10.8371  -15.2778   31.0777 O   0  0  0  0  0  0  0  0  0  0  0  0
   10.4971  -15.3560   29.7445 C   0  0  0  0  0  0  0  0  0  0  0  0
   10.1997  -16.5955   29.1892 C   0  0  0  0  0  0  0  0  0  0  0  0
    9.8585  -16.6609   27.8425 C   0  0  0  0  0  0  0  0  0  0  0  0
    9.8104  -15.5314   27.0581 C   0  0  0  0  0  0  0  0  0  0  0  0
    9.4520  -15.6193   25.6325 C   0  0  0  0  0  0  0  0  0  0  0  0
   10.6129  -15.7451   24.7036 C   0  0  2  0  0  0  0  0  0  0  0  0
   10.1095  -15.9133   23.3401 N   0  0  0  0  0  0  0  0  0  0  0  0
   11.5344  -16.8410   25.0170 C   0  0  0  0  0  0  0  0  0  0  0  0
   11.4833  -18.0101   24.2804 O   0  0  0  0  0  0  0  0  0  0  0  0
   10.1069  -14.2849   27.6076 C   0  0  0  0  0  0  0  0  0  0  0  0
   10.4450  -14.2306   28.9475 C   0  0  0  0  0  0  0  0  0  0  0  0
   12.3975  -16.7794   25.9484 O   0  0  0  0  0  0  0  0  0  0  0  0
  2  1  1  1
  3  2  1  0
  3  4  1  0
  5  4  1  0
  6  5  1  0
  7  6  1  0
  8  2  1  0
  8  9  2  0
 11 10  1  1
 11 13  1  0
 12 11  1  0
 14 13  1  1
 14 15  1  0
 15  8  1  0
 16 14  1  0
 17 16  2  0
 19 18  1  0
 20 19  2  0
 21 20  1  0
 22 28  1  0
 22 21  2  0
 23 22  1  0
 24 23  1  1
 24 25  1  0
 25 16  1  0
 26 24  1  0
 27 26  1  0
 28 29  2  0
 29 19  1  0
 30 26  2  0
M  END
$$$$
