KLY.pdb
     RDKit          3D

 30 30  0  0  1  0  0  0  0  0999 V2000
    8.8531  -18.3045   16.5679 N   0  0  0  0  0  0  0  0  0  0  0  0
    8.4687  -18.4466   17.9852 C   0  0  1  0  0  0  0  0  0  0  0  0
    8.9318  -19.8343   18.3613 C   0  0  0  0  0  0  0  0  0  0  0  0
    8.0875  -20.8808   17.7379 C   0  0  0  0  0  0  0  0  0  0  0  0
    8.5140  -22.2831   18.1709 C   0  0  0  0  0  0  0  0  0  0  0  0
    7.7417  -23.3166   17.4171 C   0  0  0  0  0  0  0  0  0  0  0  0
    8.2590  -24.6299   17.8405 N   0  0  0  0  0  0  0  0  0  0  0  0
    9.1465  -17.4387   18.8027 C   0  0  0  0  0  0  0  0  0  0  0  0
   10.3671  -17.1732   18.7198 O   0  0  0  0  0  0  0  0  0  0  0  0
    6.8506  -12.6835   21.0775 C   0  0  0  0  0  0  0  0  0  0  0  0
    7.7481  -13.6824   20.3025 C   0  0  1  0  0  0  0  0  0  0  0  0
    8.8417  -12.8221   19.6507 C   0  0  0  0  0  0  0  0  0  0  0  0
    8.3828  -14.6292   21.2499 C   0  0  0  0  0  0  0  0  0  0  0  0
    9.1056  -15.7991   20.6950 C   0  0  2  0  0  0  0  0  0  0  0  0
    8.4315  -16.6552   19.7949 N   0  0  0  0  0  0  0  0  0  0  0  0
    9.7340  -16.5092   21.8510 C   0  0  0  0  0  0  0  0  0  0  0  0
    8.9492  -17.2948   22.4779 O   0  0  0  0  0  0  0  0  0  0  0  0
   11.6274  -22.1453   19.6311 O   0  0  0  0  0  0  0  0  0  0  0  0
   11.9035  -21.0948   20.4793 C   0  0  0  0  0  0  0  0  0  0  0  0
   12.4675  -19.9333   19.9637 C   0  0  0  0  0  0  0  0  0  0  0  0
   12.7417  -18.8807   20.8305 C   0  0  0  0  0  0  0  0  0  0  0  0
   12.4669  -18.9680   22.1759 C   0  0  0  0  0  0  0  0  0  0  0  0
   12.7683  -17.8457   23.0805 C   0  0  0  0  0  0  0  0  0  0  0  0
   11.5894  -17.0108   23.4536 C   0  0  2  0  0  0  0  0  0  0  0  0
   11.0772  -16.3541   22.2506 N   0  0  0  0  0  0  0  0  0  0  0  0
   11.8536  -15.9991   24.4808 C   0  0  0  0  0  0  0  0  0  0  0  0
   11.6126  -14.6655   24.2061 O   0  0  0  0  0  0  0  0  0  0  0  0
   11.9012  -20.1292   22.7005 C   0  0  0  0  0  0  0  0  0  0  0  0
   11.6324  -21.1700   21.8304 C   0  0  0  0  0  0  0  0  0  0  0  0
   12.3027  -16.2816   25.6362 O   0  0  0  0  0  0  0  0  0  0  0  0
  2  1  1  6
  3  2  1  0
  3  4  1  0
  5  4  1  0
  6  5  1  0
  7  6  1  0
  8  2  1  0
  8  9  2  0
 11 10  1  1
 11 13  1  0
 12 11  1  0
 14 13  1  1
 14 15  1  0
 15  8  1  0
 16 14  1  0
 17 16  2  0
 19 18  1  0
 20 19  2  0
 21 20  1  0
 22 28  1  0
 22 21  2  0
 23 22  1  0
 24 23  1  6
 24 25  1  0
 25 16  1  0
 26 24  1  0
 27 26  1  0
 28 29  2  0
 29 19  1  0
 30 26  2  0
M  END
$$$$
