KLY.pdb
     RDKit          3D

 30 30  0  0  1  0  0  0  0  0999 V2000
    9.5522  -15.6142   20.5352 N   0  0  0  0  0  0  0  0  0  0  0  0
    8.4833  -16.0036   21.4747 C   0  0  1  0  0  0  0  0  0  0  0  0
    8.4924  -17.5138   21.4469 C   0  0  0  0  0  0  0  0  0  0  0  0
    8.0811  -18.0393   20.1235 C   0  0  0  0  0  0  0  0  0  0  0  0
    7.9285  -19.5598   20.1419 C   0  0  0  0  0  0  0  0  0  0  0  0
    7.5612  -20.0612   18.7829 C   0  0  0  0  0  0  0  0  0  0  0  0
    7.3127  -21.5078   18.9139 N   0  0  0  0  0  0  0  0  0  0  0  0
    8.7816  -15.5120   22.8212 C   0  0  0  0  0  0  0  0  0  0  0  0
    9.9196  -15.5399   23.3422 O   0  0  0  0  0  0  0  0  0  0  0  0
    5.3868  -12.0072   26.1513 C   0  0  0  0  0  0  0  0  0  0  0  0
    6.5849  -12.5403   25.3240 C   0  0  1  0  0  0  0  0  0  0  0  0
    7.7433  -11.5758   25.6218 C   0  0  0  0  0  0  0  0  0  0  0  0
    6.9567  -13.8965   25.7921 C   0  0  0  0  0  0  0  0  0  0  0  0
    7.9874  -14.6437   25.0317 C   0  0  2  0  0  0  0  0  0  0  0  0
    7.7503  -14.9426   23.6708 N   0  0  0  0  0  0  0  0  0  0  0  0
    8.3583  -15.8337   25.8575 C   0  0  0  0  0  0  0  0  0  0  0  0
    7.8376  -16.9303   25.4670 O   0  0  0  0  0  0  0  0  0  0  0  0
   13.6517  -22.1761   27.5773 O   0  0  0  0  0  0  0  0  0  0  0  0
   12.9317  -21.0427   27.2671 C   0  0  0  0  0  0  0  0  0  0  0  0
   13.5753  -19.8103   27.2509 C   0  0  0  0  0  0  0  0  0  0  0  0
   12.8372  -18.6741   26.9369 C   0  0  0  0  0  0  0  0  0  0  0  0
   11.4947  -18.7478   26.6445 C   0  0  0  0  0  0  0  0  0  0  0  0
   10.7270  -17.5340   26.3189 C   0  0  0  0  0  0  0  0  0  0  0  0
    9.9093  -16.9922   27.4432 C   0  0  2  0  0  0  0  0  0  0  0  0
    9.2085  -15.7937   26.9814 N   0  0  0  0  0  0  0  0  0  0  0  0
   10.6681  -16.6711   28.6556 C   0  0  0  0  0  0  0  0  0  0  0  0
   10.8895  -17.6523   29.6044 O   0  0  0  0  0  0  0  0  0  0  0  0
   10.8423  -19.9798   26.6584 C   0  0  0  0  0  0  0  0  0  0  0  0
   11.5850  -21.1035   26.9720 C   0  0  0  0  0  0  0  0  0  0  0  0
   11.1450  -15.5167   28.8924 O   0  0  0  0  0  0  0  0  0  0  0  0
  2  1  1  6
  3  2  1  0
  3  4  1  0
  5  4  1  0
  6  5  1  0
  7  6  1  0
  8  2  1  0
  8  9  2  0
 11 10  1  1
 11 13  1  0
 12 11  1  0
 14 13  1  1
 14 15  1  0
 15  8  1  0
 16 14  1  0
 17 16  2  0
 19 18  1  0
 20 19  2  0
 21 20  1  0
 22 28  1  0
 22 21  2  0
 23 22  1  0
 24 23  1  6
 24 25  1  0
 25 16  1  0
 26 24  1  0
 27 26  1  0
 28 29  2  0
 29 19  1  0
 30 26  2  0
M  END
$$$$
