KLY.pdb
     RDKit          3D

 30 30  0  0  1  0  0  0  0  0999 V2000
    7.0407  -18.1617   21.6748 N   0  0  0  0  0  0  0  0  0  0  0  0
    8.0196  -17.3223   20.9579 C   0  0  1  0  0  0  0  0  0  0  0  0
    7.3620  -17.0321   19.6294 C   0  0  0  0  0  0  0  0  0  0  0  0
    7.9469  -17.8484   18.5393 C   0  0  0  0  0  0  0  0  0  0  0  0
    7.7854  -17.1724   17.1782 C   0  0  0  0  0  0  0  0  0  0  0  0
    8.2644  -18.0767   16.0893 C   0  0  0  0  0  0  0  0  0  0  0  0
    7.9939  -17.3902   14.8137 N   0  0  0  0  0  0  0  0  0  0  0  0
    8.2639  -16.0801   21.6934 C   0  0  0  0  0  0  0  0  0  0  0  0
    9.1147  -15.2239   21.3612 O   0  0  0  0  0  0  0  0  0  0  0  0
    7.1434  -11.8289   24.7635 C   0  0  0  0  0  0  0  0  0  0  0  0
    7.3244  -13.0887   25.6489 C   0  0  1  0  0  0  0  0  0  0  0  0
    6.2946  -12.9399   26.7795 C   0  0  0  0  0  0  0  0  0  0  0  0
    7.0047  -14.3054   24.8653 C   0  0  0  0  0  0  0  0  0  0  0  0
    7.8473  -14.6233   23.6871 C   0  0  2  0  0  0  0  0  0  0  0  0
    7.5169  -15.7448   22.8930 N   0  0  0  0  0  0  0  0  0  0  0  0
    9.2680  -14.6084   24.1529 C   0  0  0  0  0  0  0  0  0  0  0  0
    9.8309  -13.4656   24.0940 O   0  0  0  0  0  0  0  0  0  0  0  0
    9.9215  -16.9024   31.0037 O   0  0  0  0  0  0  0  0  0  0  0  0
   10.3416  -16.3884   29.7960 C   0  0  0  0  0  0  0  0  0  0  0  0
   10.3291  -15.0118   29.6005 C   0  0  0  0  0  0  0  0  0  0  0  0
   10.7550  -14.5059   28.3770 C   0  0  0  0  0  0  0  0  0  0  0  0
   11.1846  -15.3357   27.3669 C   0  0  0  0  0  0  0  0  0  0  0  0
   11.6276  -14.7834   26.0757 C   0  0  0  0  0  0  0  0  0  0  0  0
   11.4020  -15.6785   24.9035 C   0  0  2  0  0  0  0  0  0  0  0  0
    9.9667  -15.7381   24.6253 N   0  0  0  0  0  0  0  0  0  0  0  0
   11.9204  -17.0404   25.0618 C   0  0  0  0  0  0  0  0  0  0  0  0
   11.0708  -18.1193   24.8996 O   0  0  0  0  0  0  0  0  0  0  0  0
   11.2004  -16.7169   27.5554 C   0  0  0  0  0  0  0  0  0  0  0  0
   10.7748  -17.2100   28.7753 C   0  0  0  0  0  0  0  0  0  0  0  0
   13.1330  -17.2944   25.3470 O   0  0  0  0  0  0  0  0  0  0  0  0
  2  1  1  1
  3  2  1  0
  3  4  1  0
  5  4  1  0
  6  5  1  0
  7  6  1  0
  8  2  1  0
  8  9  2  0
 11 10  1  6
 11 13  1  0
 12 11  1  0
 14 13  1  1
 14 15  1  0
 15  8  1  0
 16 14  1  0
 17 16  2  0
 19 18  1  0
 20 19  2  0
 21 20  1  0
 22 28  1  0
 22 21  2  0
 23 22  1  0
 24 23  1  1
 24 25  1  0
 25 16  1  0
 26 24  1  0
 27 26  1  0
 28 29  2  0
 29 19  1  0
 30 26  2  0
M  END
$$$$
