KLY.pdb
     RDKit          3D

 30 30  0  0  1  0  0  0  0  0999 V2000
    6.8789  -15.6869   20.8406 N   0  0  0  0  0  0  0  0  0  0  0  0
    8.1528  -14.9445   20.7887 C   0  0  1  0  0  0  0  0  0  0  0  0
    7.8807  -13.8001   19.8410 C   0  0  0  0  0  0  0  0  0  0  0  0
    7.3696  -14.2805   18.5354 C   0  0  0  0  0  0  0  0  0  0  0  0
    8.0991  -13.6207   17.3657 C   0  0  0  0  0  0  0  0  0  0  0  0
    7.5914  -14.1588   16.0673 C   0  0  0  0  0  0  0  0  0  0  0  0
    8.2822  -13.4167   14.9978 N   0  0  0  0  0  0  0  0  0  0  0  0
    8.5052  -14.4397   22.1172 C   0  0  0  0  0  0  0  0  0  0  0  0
    9.5967  -13.8923   22.3929 O   0  0  0  0  0  0  0  0  0  0  0  0
    5.2930  -11.8076   26.2556 C   0  0  0  0  0  0  0  0  0  0  0  0
    6.4299  -12.1312   25.2524 C   0  0  1  0  0  0  0  0  0  0  0  0
    7.5992  -11.2209   25.6586 C   0  0  0  0  0  0  0  0  0  0  0  0
    6.8475  -13.5453   25.4031 C   0  0  0  0  0  0  0  0  0  0  0  0
    7.9261  -14.0565   24.5232 C   0  0  2  0  0  0  0  0  0  0  0  0
    7.5887  -14.5419   23.2394 N   0  0  0  0  0  0  0  0  0  0  0  0
    8.7349  -15.0134   25.3392 C   0  0  0  0  0  0  0  0  0  0  0  0
    8.2069  -15.3331   26.4550 O   0  0  0  0  0  0  0  0  0  0  0  0
   11.9894  -21.3119   29.7912 O   0  0  0  0  0  0  0  0  0  0  0  0
   11.4597  -20.4100   28.8938 C   0  0  0  0  0  0  0  0  0  0  0  0
   11.1827  -20.8238   27.5956 C   0  0  0  0  0  0  0  0  0  0  0  0
   10.6488  -19.9038   26.6996 C   0  0  0  0  0  0  0  0  0  0  0  0
   10.3923  -18.6042   27.0719 C   0  0  0  0  0  0  0  0  0  0  0  0
    9.8315  -17.6417   26.1089 C   0  0  0  0  0  0  0  0  0  0  0  0
   10.7114  -16.4749   25.8081 C   0  0  2  0  0  0  0  0  0  0  0  0
    9.9814  -15.5433   24.9478 N   0  0  0  0  0  0  0  0  0  0  0  0
   11.9892  -16.8160   25.1761 C   0  0  0  0  0  0  0  0  0  0  0  0
   12.2281  -16.4378   23.8677 O   0  0  0  0  0  0  0  0  0  0  0  0
   10.6670  -18.1818   28.3718 C   0  0  0  0  0  0  0  0  0  0  0  0
   11.1978  -19.1041   29.2551 C   0  0  0  0  0  0  0  0  0  0  0  0
   12.9120  -17.4548   25.7732 O   0  0  0  0  0  0  0  0  0  0  0  0
  2  1  1  1
  3  2  1  0
  3  4  1  0
  5  4  1  0
  6  5  1  0
  7  6  1  0
  8  2  1  0
  8  9  2  0
 11 10  1  1
 11 13  1  0
 12 11  1  0
 14 13  1  1
 14 15  1  0
 15  8  1  0
 16 14  1  0
 17 16  2  0
 19 18  1  0
 20 19  2  0
 21 20  1  0
 22 28  1  0
 22 21  2  0
 23 22  1  0
 24 23  1  6
 24 25  1  0
 25 16  1  0
 26 24  1  0
 27 26  1  0
 28 29  2  0
 29 19  1  0
 30 26  2  0
M  END
$$$$
