KLY.pdb
     RDKit          3D

 30 30  0  0  1  0  0  0  0  0999 V2000
    9.9119  -18.9546   18.4624 N   0  0  0  0  0  0  0  0  0  0  0  0
    9.2079  -18.6186   19.7147 C   0  0  1  0  0  0  0  0  0  0  0  0
    9.6903  -19.6528   20.7043 C   0  0  0  0  0  0  0  0  0  0  0  0
    8.9854  -20.9452   20.5327 C   0  0  0  0  0  0  0  0  0  0  0  0
    9.3793  -21.9515   21.6135 C   0  0  0  0  0  0  0  0  0  0  0  0
    8.7690  -23.2853   21.3281 C   0  0  0  0  0  0  0  0  0  0  0  0
    9.1138  -24.1640   22.4598 N   0  0  0  0  0  0  0  0  0  0  0  0
    9.5707  -17.2718   20.1599 C   0  0  0  0  0  0  0  0  0  0  0  0
   10.7459  -16.8442   20.2159 O   0  0  0  0  0  0  0  0  0  0  0  0
    6.3315  -12.6638   19.4119 C   0  0  0  0  0  0  0  0  0  0  0  0
    7.4544  -13.7329   19.4142 C   0  0  1  0  0  0  0  0  0  0  0  0
    8.5552  -13.1652   18.5048 C   0  0  0  0  0  0  0  0  0  0  0  0
    7.9972  -13.8906   20.7843 C   0  0  0  0  0  0  0  0  0  0  0  0
    8.9150  -15.0248   21.0497 C   0  0  2  0  0  0  0  0  0  0  0  0
    8.5656  -16.3112   20.5802 N   0  0  0  0  0  0  0  0  0  0  0  0
    9.2484  -14.9815   22.5066 C   0  0  0  0  0  0  0  0  0  0  0  0
    8.4607  -14.2642   23.2073 O   0  0  0  0  0  0  0  0  0  0  0  0
   10.5098  -15.5704   30.8984 O   0  0  0  0  0  0  0  0  0  0  0  0
   10.2743  -15.6396   29.5423 C   0  0  0  0  0  0  0  0  0  0  0  0
    9.8961  -14.4903   28.8573 C   0  0  0  0  0  0  0  0  0  0  0  0
    9.6609  -14.5737   27.4891 C   0  0  0  0  0  0  0  0  0  0  0  0
    9.7949  -15.7620   26.8084 C   0  0  0  0  0  0  0  0  0  0  0  0
    9.5371  -15.8336   25.3603 C   0  0  0  0  0  0  0  0  0  0  0  0
   10.6903  -15.4371   24.5005 C   0  0  2  0  0  0  0  0  0  0  0  0
   10.3324  -15.6606   23.0995 N   0  0  0  0  0  0  0  0  0  0  0  0
   11.9451  -16.1349   24.7957 C   0  0  0  0  0  0  0  0  0  0  0  0
   12.4439  -17.0572   23.8944 O   0  0  0  0  0  0  0  0  0  0  0  0
   10.1741  -16.9186   27.4881 C   0  0  0  0  0  0  0  0  0  0  0  0
   10.4055  -16.8252   28.8483 C   0  0  0  0  0  0  0  0  0  0  0  0
   12.6172  -15.9385   25.8568 O   0  0  0  0  0  0  0  0  0  0  0  0
  2  1  1  6
  3  2  1  0
  3  4  1  0
  5  4  1  0
  6  5  1  0
  7  6  1  0
  8  2  1  0
  8  9  2  0
 11 10  1  1
 11 13  1  0
 12 11  1  0
 14 13  1  1
 14 15  1  0
 15  8  1  0
 16 14  1  0
 17 16  2  0
 19 18  1  0
 20 19  2  0
 21 20  1  0
 22 28  1  0
 22 21  2  0
 23 22  1  0
 24 23  1  1
 24 25  1  0
 25 16  1  0
 26 24  1  0
 27 26  1  0
 28 29  2  0
 29 19  1  0
 30 26  2  0
M  END
$$$$
