KLY.pdb
     RDKit          3D

 30 30  0  0  1  0  0  0  0  0999 V2000
    7.4421  -17.5646   21.1378 N   0  0  0  0  0  0  0  0  0  0  0  0
    8.6957  -16.9117   20.7150 C   0  0  1  0  0  0  0  0  0  0  0  0
    8.3889  -16.3675   19.3397 C   0  0  0  0  0  0  0  0  0  0  0  0
    7.8157  -17.4087   18.4544 C   0  0  0  0  0  0  0  0  0  0  0  0
    7.7439  -16.9385   17.0020 C   0  0  0  0  0  0  0  0  0  0  0  0
    6.9658  -17.9131   16.1787 C   0  0  0  0  0  0  0  0  0  0  0  0
    6.8274  -17.3231   14.8354 N   0  0  0  0  0  0  0  0  0  0  0  0
    9.0414  -15.8249   21.6331 C   0  0  0  0  0  0  0  0  0  0  0  0
   10.0308  -15.0717   21.4878 O   0  0  0  0  0  0  0  0  0  0  0  0
    5.6626  -13.1683   25.7819 C   0  0  0  0  0  0  0  0  0  0  0  0
    6.5385  -13.3906   24.5220 C   0  0  1  0  0  0  0  0  0  0  0  0
    7.0250  -11.9909   24.1154 C   0  0  0  0  0  0  0  0  0  0  0  0
    7.7133  -14.2261   24.8661 C   0  0  0  0  0  0  0  0  0  0  0  0
    8.6534  -14.5969   23.7807 C   0  0  2  0  0  0  0  0  0  0  0  0
    8.2397  -15.5366   22.8094 N   0  0  0  0  0  0  0  0  0  0  0  0
    9.9570  -14.9324   24.4315 C   0  0  0  0  0  0  0  0  0  0  0  0
   10.7364  -13.9366   24.5964 O   0  0  0  0  0  0  0  0  0  0  0  0
   11.6076  -16.6656   32.5268 O   0  0  0  0  0  0  0  0  0  0  0  0
   11.1850  -16.5190   31.2232 C   0  0  0  0  0  0  0  0  0  0  0  0
   10.6289  -17.6078   30.5611 C   0  0  0  0  0  0  0  0  0  0  0  0
   10.2070  -17.4469   29.2457 C   0  0  0  0  0  0  0  0  0  0  0  0
   10.3288  -16.2407   28.5948 C   0  0  0  0  0  0  0  0  0  0  0  0
    9.8814  -16.0891   27.2000 C   0  0  0  0  0  0  0  0  0  0  0  0
   10.8986  -16.4618   26.1741 C   0  0  2  0  0  0  0  0  0  0  0  0
   10.3352  -16.2263   24.8444 N   0  0  0  0  0  0  0  0  0  0  0  0
   11.3773  -17.8447   26.2578 C   0  0  0  0  0  0  0  0  0  0  0  0
   10.9456  -18.7758   25.3312 O   0  0  0  0  0  0  0  0  0  0  0  0
   10.8851  -15.1442   29.2519 C   0  0  0  0  0  0  0  0  0  0  0  0
   11.3016  -15.3146   30.5596 C   0  0  0  0  0  0  0  0  0  0  0  0
   12.1841  -18.2485   27.1535 O   0  0  0  0  0  0  0  0  0  0  0  0
  2  1  1  1
  3  2  1  0
  3  4  1  0
  5  4  1  0
  6  5  1  0
  7  6  1  0
  8  2  1  0
  8  9  2  0
 11 10  1  1
 11 13  1  0
 12 11  1  0
 14 13  1  1
 14 15  1  0
 15  8  1  0
 16 14  1  0
 17 16  2  0
 19 18  1  0
 20 19  2  0
 21 20  1  0
 22 28  1  0
 22 21  2  0
 23 22  1  0
 24 23  1  1
 24 25  1  0
 25 16  1  0
 26 24  1  0
 27 26  1  0
 28 29  2  0
 29 19  1  0
 30 26  2  0
M  END
$$$$
