KLY.pdb
     RDKit          3D

 30 30  0  0  1  0  0  0  0  0999 V2000
    6.8272  -15.5006   20.8423 N   0  0  0  0  0  0  0  0  0  0  0  0
    8.2381  -15.0749   20.7720 C   0  0  1  0  0  0  0  0  0  0  0  0
    8.2185  -13.8605   19.8740 C   0  0  0  0  0  0  0  0  0  0  0  0
    7.9729  -14.2296   18.4597 C   0  0  0  0  0  0  0  0  0  0  0  0
    8.1078  -13.0243   17.5297 C   0  0  0  0  0  0  0  0  0  0  0  0
    7.8233  -13.4235   16.1181 C   0  0  0  0  0  0  0  0  0  0  0  0
    7.8749  -12.1938   15.3076 N   0  0  0  0  0  0  0  0  0  0  0  0
    8.7329  -14.7220   22.1041 C   0  0  0  0  0  0  0  0  0  0  0  0
    9.8871  -14.2950   22.3333 O   0  0  0  0  0  0  0  0  0  0  0  0
    5.8290  -12.7752   26.7458 C   0  0  0  0  0  0  0  0  0  0  0  0
    6.8206  -12.9556   25.5677 C   0  0  1  0  0  0  0  0  0  0  0  0
    7.8602  -11.8372   25.7390 C   0  0  0  0  0  0  0  0  0  0  0  0
    7.5029  -14.2666   25.6797 C   0  0  0  0  0  0  0  0  0  0  0  0
    8.4188  -14.6770   24.5880 C   0  0  2  0  0  0  0  0  0  0  0  0
    7.8971  -14.8464   23.2854 N   0  0  0  0  0  0  0  0  0  0  0  0
    9.1908  -15.8553   25.0892 C   0  0  0  0  0  0  0  0  0  0  0  0
    8.5236  -16.9409   25.1399 O   0  0  0  0  0  0  0  0  0  0  0  0
   13.8127  -14.1226   20.5638 O   0  0  0  0  0  0  0  0  0  0  0  0
   13.2653  -14.9860   21.4879 C   0  0  0  0  0  0  0  0  0  0  0  0
   13.9935  -15.3176   22.6250 C   0  0  0  0  0  0  0  0  0  0  0  0
   13.4299  -16.1904   23.5496 C   0  0  0  0  0  0  0  0  0  0  0  0
   12.1766  -16.7259   23.3605 C   0  0  0  0  0  0  0  0  0  0  0  0
   11.5969  -17.6526   24.3473 C   0  0  0  0  0  0  0  0  0  0  0  0
   11.3109  -17.0463   25.6803 C   0  0  2  0  0  0  0  0  0  0  0  0
   10.5438  -15.8159   25.4837 N   0  0  0  0  0  0  0  0  0  0  0  0
   12.4977  -16.7517   26.4885 C   0  0  0  0  0  0  0  0  0  0  0  0
   13.3755  -17.7699   26.8119 O   0  0  0  0  0  0  0  0  0  0  0  0
   11.4401  -16.3981   22.2231 C   0  0  0  0  0  0  0  0  0  0  0  0
   12.0093  -15.5295   21.3099 C   0  0  0  0  0  0  0  0  0  0  0  0
   12.7737  -15.5884   26.9209 O   0  0  0  0  0  0  0  0  0  0  0  0
  2  1  1  1
  3  2  1  0
  3  4  1  0
  5  4  1  0
  6  5  1  0
  7  6  1  0
  8  2  1  0
  8  9  2  0
 11 10  1  1
 11 13  1  0
 12 11  1  0
 14 13  1  1
 14 15  1  0
 15  8  1  0
 16 14  1  0
 17 16  2  0
 19 18  1  0
 20 19  2  0
 21 20  1  0
 22 28  1  0
 22 21  2  0
 23 22  1  0
 24 23  1  6
 24 25  1  0
 25 16  1  0
 26 24  1  0
 27 26  1  0
 28 29  2  0
 29 19  1  0
 30 26  2  0
M  END
$$$$
