KLY.pdb
     RDKit          3D

 30 30  0  0  1  0  0  0  0  0999 V2000
    9.5955  -18.6447   18.1528 N   0  0  0  0  0  0  0  0  0  0  0  0
   10.8738  -18.2030   18.7424 C   0  0  1  0  0  0  0  0  0  0  0  0
   11.6637  -17.6726   17.5692 C   0  0  0  0  0  0  0  0  0  0  0  0
   12.3142  -18.7656   16.8084 C   0  0  0  0  0  0  0  0  0  0  0  0
   13.6808  -19.1241   17.3913 C   0  0  0  0  0  0  0  0  0  0  0  0
   14.3632  -20.1367   16.5299 C   0  0  0  0  0  0  0  0  0  0  0  0
   15.6417  -20.4637   17.1857 N   0  0  0  0  0  0  0  0  0  0  0  0
   10.6440  -17.1453   19.7284 C   0  0  0  0  0  0  0  0  0  0  0  0
   11.5526  -16.5912   20.3875 O   0  0  0  0  0  0  0  0  0  0  0  0
    6.0337  -13.5538   19.8015 C   0  0  0  0  0  0  0  0  0  0  0  0
    7.4748  -14.1168   19.7011 C   0  0  1  0  0  0  0  0  0  0  0  0
    8.3868  -12.8826   19.6248 C   0  0  0  0  0  0  0  0  0  0  0  0
    7.8035  -14.8817   20.9273 C   0  0  0  0  0  0  0  0  0  0  0  0
    9.0846  -15.6274   20.9674 C   0  0  2  0  0  0  0  0  0  0  0  0
    9.3095  -16.6515   20.0197 N   0  0  0  0  0  0  0  0  0  0  0  0
    9.2925  -16.0572   22.3844 C   0  0  0  0  0  0  0  0  0  0  0  0
    8.8847  -17.2373   22.6434 O   0  0  0  0  0  0  0  0  0  0  0  0
   10.6042  -15.6235   31.1412 O   0  0  0  0  0  0  0  0  0  0  0  0
   10.5925  -15.3802   29.7848 C   0  0  0  0  0  0  0  0  0  0  0  0
   10.0169  -14.2078   29.3081 C   0  0  0  0  0  0  0  0  0  0  0  0
   10.0110  -13.9745   27.9371 C   0  0  0  0  0  0  0  0  0  0  0  0
   10.5599  -14.8747   27.0530 C   0  0  0  0  0  0  0  0  0  0  0  0
   10.5407  -14.6142   25.6037 C   0  0  0  0  0  0  0  0  0  0  0  0
    9.8071  -15.6320   24.7962 C   0  0  2  0  0  0  0  0  0  0  0  0
    9.8850  -15.2583   23.3837 N   0  0  0  0  0  0  0  0  0  0  0  0
    8.4020  -15.8165   25.1703 C   0  0  0  0  0  0  0  0  0  0  0  0
    8.0537  -16.8301   26.0440 O   0  0  0  0  0  0  0  0  0  0  0  0
   11.1392  -16.0524   27.5231 C   0  0  0  0  0  0  0  0  0  0  0  0
   11.1398  -16.2751   28.8880 C   0  0  0  0  0  0  0  0  0  0  0  0
    7.4623  -15.0833   24.7280 O   0  0  0  0  0  0  0  0  0  0  0  0
  2  1  1  6
  3  2  1  0
  3  4  1  0
  5  4  1  0
  6  5  1  0
  7  6  1  0
  8  2  1  0
  8  9  2  0
 11 10  1  1
 11 13  1  0
 12 11  1  0
 14 13  1  1
 14 15  1  0
 15  8  1  0
 16 14  1  0
 17 16  2  0
 19 18  1  0
 20 19  2  0
 21 20  1  0
 22 28  1  0
 22 21  2  0
 23 22  1  0
 24 23  1  1
 24 25  1  0
 25 16  1  0
 26 24  1  0
 27 26  1  0
 28 29  2  0
 29 19  1  0
 30 26  2  0
M  END
$$$$
