PAD.pdb
     RDKit          3D

 21 21  0  0  1  0  0  0  0  0999 V2000
   16.9392  -12.6117  -16.1935 N   0  0  0  0  0  0  0  0  0  0  0  0
   16.4006  -13.9529  -16.0450 C   0  0  0  0  0  0  0  0  0  0  0  0
   17.5377  -14.8379  -16.4801 C   0  0  0  0  0  0  0  0  0  0  0  0
   18.8118  -14.0431  -16.2624 C   0  0  0  0  0  0  0  0  0  0  0  0
   18.2735  -12.7628  -15.6681 C   0  0  1  0  0  0  0  0  0  0  0  0
   19.0827  -11.5822  -16.0366 C   0  0  0  0  0  0  0  0  0  0  0  0
   20.2877  -11.4770  -15.6384 O   0  0  0  0  0  0  0  0  0  0  0  0
   18.6375   -8.6967  -18.3706 C   0  0  0  0  0  0  0  0  0  0  0  0
   19.3556   -9.3525  -17.1999 C   0  0  2  0  0  0  0  0  0  0  0  0
   18.5892  -10.5198  -16.8331 N   0  0  0  0  0  0  0  0  0  0  0  0
   19.4496   -8.3675  -16.1062 C   0  0  0  0  0  0  0  0  0  0  0  0
   18.5061   -8.2295  -15.2999 O   0  0  0  0  0  0  0  0  0  0  0  0
   20.6146   -7.5763  -15.9713 N   0  0  0  0  0  0  0  0  0  0  0  0
   20.7980   -6.5845  -14.9456 C   0  0  1  0  0  0  0  0  0  0  0  0
   22.2339   -6.4621  -14.5569 C   0  0  0  0  0  0  0  0  0  0  0  0
   22.5020   -5.4341  -13.5449 C   0  0  0  0  0  0  0  0  0  0  0  0
   22.7483   -4.2286  -13.7734 O   0  0  0  0  0  0  0  0  0  0  0  0
   20.1940   -5.2853  -15.3374 C   0  0  0  0  0  0  0  0  0  0  0  0
   20.3064   -4.8563  -16.5133 O   0  0  0  0  0  0  0  0  0  0  0  0
   22.4825   -5.8256  -12.2093 O   0  0  0  0  0  0  0  0  0  0  0  0
   19.4895   -4.4989  -14.4367 O   0  0  0  0  0  0  0  0  0  0  0  0
  2  1  1  0
  3  2  1  0
  4  3  1  0
  4  5  1  0
  5  1  1  0
  6 10  1  0
  5  6  1  6
  7  6  2  0
  9  8  1  6
  9 10  1  0
  9 11  1  0
 11 13  1  0
 12 11  2  0
 13 14  1  0
 14 18  1  0
 14 15  1  6
 16 20  1  0
 16 15  1  0
 17 16  2  0
 18 21  1  0
 19 18  2  0
M  END
$$$$
