PAD.pdb
     RDKit          3D

 21 21  0  0  1  0  0  0  0  0999 V2000
   18.5513  -24.6236    3.8013 N   0  0  0  0  0  0  0  0  0  0  0  0
   18.5188  -24.3583    2.3733 C   0  0  0  0  0  0  0  0  0  0  0  0
   19.9134  -23.8779    2.0738 C   0  0  0  0  0  0  0  0  0  0  0  0
   20.8115  -24.4599    3.1496 C   0  0  0  0  0  0  0  0  0  0  0  0
   19.8288  -25.2738    3.9582 C   0  0  1  0  0  0  0  0  0  0  0  0
   20.1802  -25.3256    5.3928 C   0  0  0  0  0  0  0  0  0  0  0  0
   21.3287  -25.7347    5.7606 O   0  0  0  0  0  0  0  0  0  0  0  0
   18.6164  -24.0147    8.5190 C   0  0  0  0  0  0  0  0  0  0  0  0
   19.6331  -24.9117    7.8277 C   0  0  2  0  0  0  0  0  0  0  0  0
   19.2918  -24.9361    6.4251 N   0  0  0  0  0  0  0  0  0  0  0  0
   19.5698  -26.2467    8.4514 C   0  0  0  0  0  0  0  0  0  0  0  0
   18.6831  -27.0584    8.1136 O   0  0  0  0  0  0  0  0  0  0  0  0
   20.5188  -26.6077    9.4366 N   0  0  0  0  0  0  0  0  0  0  0  0
   20.5864  -27.9077   10.0490 C   0  0  1  0  0  0  0  0  0  0  0  0
   21.9756  -28.2310   10.4886 C   0  0  0  0  0  0  0  0  0  0  0  0
   22.8906  -28.5813    9.3964 C   0  0  0  0  0  0  0  0  0  0  0  0
   22.5802  -28.6946    8.1894 O   0  0  0  0  0  0  0  0  0  0  0  0
   19.5899  -28.0414   11.1423 C   0  0  0  0  0  0  0  0  0  0  0  0
   19.3907  -29.1528   11.6939 O   0  0  0  0  0  0  0  0  0  0  0  0
   24.2243  -28.8097    9.7227 O   0  0  0  0  0  0  0  0  0  0  0  0
   18.8455  -26.9619   11.5967 O   0  0  0  0  0  0  0  0  0  0  0  0
  2  1  1  0
  3  2  1  0
  4  3  1  0
  4  5  1  0
  5  1  1  0
  6 10  1  0
  5  6  1  1
  7  6  2  0
  9  8  1  1
  9 10  1  0
  9 11  1  0
 11 13  1  0
 12 11  2  0
 13 14  1  0
 14 18  1  0
 14 15  1  1
 16 20  1  0
 16 15  1  0
 17 16  2  0
 18 21  1  0
 19 18  2  0
M  END
$$$$
