PAD.pdb
     RDKit          3D

 21 21  0  0  1  0  0  0  0  0999 V2000
   32.5738  -24.4599  -17.2888 N   0  0  0  0  0  0  0  0  0  0  0  0
   33.3820  -25.4286  -16.5682 C   0  0  0  0  0  0  0  0  0  0  0  0
   32.9966  -25.2069  -15.1303 C   0  0  0  0  0  0  0  0  0  0  0  0
   31.6046  -24.6032  -15.1440 C   0  0  0  0  0  0  0  0  0  0  0  0
   31.2998  -24.5757  -16.6233 C   0  0  1  0  0  0  0  0  0  0  0  0
   30.4414  -23.4345  -17.0045 C   0  0  0  0  0  0  0  0  0  0  0  0
   30.9517  -22.2877  -17.2189 O   0  0  0  0  0  0  0  0  0  0  0  0
   27.7029  -22.4444  -18.8032 C   0  0  0  0  0  0  0  0  0  0  0  0
   28.1555  -22.4079  -17.3506 C   0  0  2  0  0  0  0  0  0  0  0  0
   29.0362  -23.5347  -17.1530 N   0  0  0  0  0  0  0  0  0  0  0  0
   26.9573  -22.4657  -16.4926 C   0  0  0  0  0  0  0  0  0  0  0  0
   27.0028  -23.0402  -15.3849 O   0  0  0  0  0  0  0  0  0  0  0  0
   25.7517  -21.8671  -16.9281 N   0  0  0  0  0  0  0  0  0  0  0  0
   24.5613  -21.7812  -16.1250 C   0  0  1  0  0  0  0  0  0  0  0  0
   24.8467  -21.1754  -14.7912 C   0  0  0  0  0  0  0  0  0  0  0  0
   23.6791  -21.0772  -13.9080 C   0  0  0  0  0  0  0  0  0  0  0  0
   22.5221  -21.4704  -14.1779 O   0  0  0  0  0  0  0  0  0  0  0  0
   23.4689  -21.0856  -16.8524 C   0  0  0  0  0  0  0  0  0  0  0  0
   22.4312  -21.7065  -17.1942 O   0  0  0  0  0  0  0  0  0  0  0  0
   23.8657  -20.4966  -12.6569 O   0  0  0  0  0  0  0  0  0  0  0  0
   23.5439  -19.7396  -17.1820 O   0  0  0  0  0  0  0  0  0  0  0  0
  2  1  1  0
  3  2  1  0
  4  3  1  0
  4  5  1  0
  5  1  1  0
  6 10  1  0
  5  6  1  1
  7  6  2  0
  9  8  1  6
  9 10  1  0
  9 11  1  0
 11 13  1  0
 12 11  2  0
 13 14  1  0
 14 18  1  0
 14 15  1  1
 16 20  1  0
 16 15  1  0
 17 16  2  0
 18 21  1  0
 19 18  2  0
M  END
$$$$
