PAD.pdb
     RDKit          3D

 21 21  0  0  1  0  0  0  0  0999 V2000
   18.0643   -9.9583  -15.9712 N   0  0  0  0  0  0  0  0  0  0  0  0
   16.8980  -10.7958  -15.7497 C   0  0  0  0  0  0  0  0  0  0  0  0
   17.4261  -12.1916  -15.9457 C   0  0  0  0  0  0  0  0  0  0  0  0
   18.9148  -12.1351  -15.6576 C   0  0  0  0  0  0  0  0  0  0  0  0
   19.0949  -10.6855  -15.2724 C   0  0  1  0  0  0  0  0  0  0  0  0
   20.4188  -10.1557  -15.6607 C   0  0  0  0  0  0  0  0  0  0  0  0
   21.4739  -10.5675  -15.0784 O   0  0  0  0  0  0  0  0  0  0  0  0
   21.7954   -8.4602  -18.6084 C   0  0  0  0  0  0  0  0  0  0  0  0
   21.8845   -8.6850  -17.1058 C   0  0  2  0  0  0  0  0  0  0  0  0
   20.5998   -9.1839  -16.6754 N   0  0  0  0  0  0  0  0  0  0  0  0
   22.2392   -7.4034  -16.4679 C   0  0  0  0  0  0  0  0  0  0  0  0
   23.3059   -6.8260  -16.7647 O   0  0  0  0  0  0  0  0  0  0  0  0
   21.3660   -6.8270  -15.5157 N   0  0  0  0  0  0  0  0  0  0  0  0
   21.5893   -5.5515  -14.8892 C   0  0  1  0  0  0  0  0  0  0  0  0
   20.3313   -4.7515  -14.8189 C   0  0  0  0  0  0  0  0  0  0  0  0
   19.6938   -4.5096  -16.1182 C   0  0  0  0  0  0  0  0  0  0  0  0
   20.1937   -3.8710  -17.0712 O   0  0  0  0  0  0  0  0  0  0  0  0
   22.2476   -5.7079  -13.5669 C   0  0  0  0  0  0  0  0  0  0  0  0
   22.3663   -6.8434  -13.0417 O   0  0  0  0  0  0  0  0  0  0  0  0
   18.4197   -5.0334  -16.3171 O   0  0  0  0  0  0  0  0  0  0  0  0
   22.7534   -4.6241  -12.8630 O   0  0  0  0  0  0  0  0  0  0  0  0
  2  1  1  0
  3  2  1  0
  4  3  1  0
  4  5  1  0
  5  1  1  0
  6 10  1  0
  5  6  1  6
  7  6  2  0
  9  8  1  6
  9 10  1  0
  9 11  1  0
 11 13  1  0
 12 11  2  0
 13 14  1  0
 14 18  1  0
 14 15  1  1
 16 20  1  0
 16 15  1  0
 17 16  2  0
 18 21  1  0
 19 18  2  0
M  END
$$$$
