PAD.pdb
     RDKit          3D

 21 21  0  0  1  0  0  0  0  0999 V2000
   15.8575  -11.1559  -13.0304 N   0  0  0  0  0  0  0  0  0  0  0  0
   15.2963  -12.3719  -13.5934 C   0  0  0  0  0  0  0  0  0  0  0  0
   13.8522  -12.3196  -13.1723 C   0  0  0  0  0  0  0  0  0  0  0  0
   13.5201  -10.8562  -12.9476 C   0  0  0  0  0  0  0  0  0  0  0  0
   14.8254  -10.1890  -13.3120 C   0  0  1  0  0  0  0  0  0  0  0  0
   15.0743   -8.9624  -12.5260 C   0  0  0  0  0  0  0  0  0  0  0  0
   14.3130   -7.9495  -12.6537 O   0  0  0  0  0  0  0  0  0  0  0  0
   16.9920   -8.1503   -9.4833 C   0  0  0  0  0  0  0  0  0  0  0  0
   16.3782   -7.6656  -10.7889 C   0  0  2  0  0  0  0  0  0  0  0  0
   16.1432   -8.8328  -11.6055 N   0  0  0  0  0  0  0  0  0  0  0  0
   17.3158   -6.7140  -11.4140 C   0  0  0  0  0  0  0  0  0  0  0  0
   17.6062   -5.6451  -10.8376 O   0  0  0  0  0  0  0  0  0  0  0  0
   17.8878   -7.0152  -12.6724 N   0  0  0  0  0  0  0  0  0  0  0  0
   18.8165   -6.1575  -13.3589 C   0  0  1  0  0  0  0  0  0  0  0  0
   19.9323   -6.9395  -13.9681 C   0  0  0  0  0  0  0  0  0  0  0  0
   20.8024   -7.6112  -12.9962 C   0  0  0  0  0  0  0  0  0  0  0  0
   21.0013   -7.2451  -11.8162 O   0  0  0  0  0  0  0  0  0  0  0  0
   18.1212   -5.2852  -14.3398 C   0  0  0  0  0  0  0  0  0  0  0  0
   17.0030   -5.6148  -14.8089 O   0  0  0  0  0  0  0  0  0  0  0  0
   21.4701   -8.7583  -13.4154 O   0  0  0  0  0  0  0  0  0  0  0  0
   18.6667   -4.0858  -14.7755 O   0  0  0  0  0  0  0  0  0  0  0  0
  2  1  1  0
  3  2  1  0
  4  3  1  0
  4  5  1  0
  5  1  1  0
  6 10  1  0
  5  6  1  1
  7  6  2  0
  9  8  1  1
  9 10  1  0
  9 11  1  0
 11 13  1  0
 12 11  2  0
 13 14  1  0
 14 18  1  0
 14 15  1  6
 16 20  1  0
 16 15  1  0
 17 16  2  0
 18 21  1  0
 19 18  2  0
M  END
$$$$
