PAD.pdb
     RDKit          3D

 21 21  0  0  1  0  0  0  0  0999 V2000
   23.2054  -11.2390  -16.7452 N   0  0  0  0  0  0  0  0  0  0  0  0
   23.3633  -12.6746  -16.5874 C   0  0  0  0  0  0  0  0  0  0  0  0
   24.3481  -12.7970  -15.4557 C   0  0  0  0  0  0  0  0  0  0  0  0
   24.2310  -11.5224  -14.6409 C   0  0  0  0  0  0  0  0  0  0  0  0
   23.1325  -10.7914  -15.3764 C   0  0  1  0  0  0  0  0  0  0  0  0
   23.2984   -9.3235  -15.3304 C   0  0  0  0  0  0  0  0  0  0  0  0
   23.2123   -8.6995  -14.2237 O   0  0  0  0  0  0  0  0  0  0  0  0
   24.4747   -6.6934  -17.6853 C   0  0  0  0  0  0  0  0  0  0  0  0
   23.6466   -7.0934  -16.4727 C   0  0  2  0  0  0  0  0  0  0  0  0
   23.5565   -8.5344  -16.4782 N   0  0  0  0  0  0  0  0  0  0  0  0
   22.3282   -6.4411  -16.5790 C   0  0  0  0  0  0  0  0  0  0  0  0
   21.4796   -6.8643  -17.3915 O   0  0  0  0  0  0  0  0  0  0  0  0
   22.0251   -5.3309  -15.7561 N   0  0  0  0  0  0  0  0  0  0  0  0
   20.7203   -4.7323  -15.6628 C   0  0  1  0  0  0  0  0  0  0  0  0
   19.6820   -5.7427  -15.3042 C   0  0  0  0  0  0  0  0  0  0  0  0
   18.3394   -5.1863  -15.1026 C   0  0  0  0  0  0  0  0  0  0  0  0
   17.6119   -4.6893  -15.9913 O   0  0  0  0  0  0  0  0  0  0  0  0
   20.7276   -3.5631  -14.7467 C   0  0  0  0  0  0  0  0  0  0  0  0
   19.7022   -2.8493  -14.6124 O   0  0  0  0  0  0  0  0  0  0  0  0
   17.8208   -5.2091  -13.8111 O   0  0  0  0  0  0  0  0  0  0  0  0
   21.8496   -3.2120  -14.0093 O   0  0  0  0  0  0  0  0  0  0  0  0
  2  1  1  0
  3  2  1  0
  4  3  1  0
  4  5  1  0
  5  1  1  0
  6 10  1  0
  5  6  1  6
  7  6  2  0
  9  8  1  6
  9 10  1  0
  9 11  1  0
 11 13  1  0
 12 11  2  0
 13 14  1  0
 14 18  1  0
 14 15  1  1
 16 20  1  0
 16 15  1  0
 17 16  2  0
 18 21  1  0
 19 18  2  0
M  END
$$$$
