PAD.pdb
     RDKit          3D

 21 21  0  0  1  0  0  0  0  0999 V2000
   22.5046  -12.6421  -19.0330 N   0  0  0  0  0  0  0  0  0  0  0  0
   22.1590  -13.6186  -20.0518 C   0  0  0  0  0  0  0  0  0  0  0  0
   20.8734  -14.2148  -19.5446 C   0  0  0  0  0  0  0  0  0  0  0  0
   20.2411  -13.1733  -18.6402 C   0  0  0  0  0  0  0  0  0  0  0  0
   21.2274  -12.0346  -18.7521 C   0  0  1  0  0  0  0  0  0  0  0  0
   21.3235  -11.2430  -17.5077 C   0  0  0  0  0  0  0  0  0  0  0  0
   20.3205  -10.5814  -17.0857 O   0  0  0  0  0  0  0  0  0  0  0  0
   23.9930  -10.6615  -14.9328 C   0  0  0  0  0  0  0  0  0  0  0  0
   22.6659  -10.2981  -15.5831 C   0  0  2  0  0  0  0  0  0  0  0  0
   22.5007  -11.1680  -16.7234 N   0  0  0  0  0  0  0  0  0  0  0  0
   22.7110   -8.8723  -15.9577 C   0  0  0  0  0  0  0  0  0  0  0  0
   22.9629   -8.5377  -17.1341 O   0  0  0  0  0  0  0  0  0  0  0  0
   22.4676   -7.8805  -14.9786 N   0  0  0  0  0  0  0  0  0  0  0  0
   22.3130   -6.4810  -15.2736 C   0  0  1  0  0  0  0  0  0  0  0  0
   21.1797   -6.2449  -16.2157 C   0  0  0  0  0  0  0  0  0  0  0  0
   20.9394   -4.8326  -16.5325 C   0  0  0  0  0  0  0  0  0  0  0  0
   19.9809   -4.1425  -16.1191 O   0  0  0  0  0  0  0  0  0  0  0  0
   22.2059   -5.6762  -14.0298 C   0  0  0  0  0  0  0  0  0  0  0  0
   21.6496   -6.1498  -13.0073 O   0  0  0  0  0  0  0  0  0  0  0  0
   21.8540   -4.1957  -17.3664 O   0  0  0  0  0  0  0  0  0  0  0  0
   22.7077   -4.3852  -13.9421 O   0  0  0  0  0  0  0  0  0  0  0  0
  2  1  1  0
  3  2  1  0
  4  3  1  0
  4  5  1  0
  5  1  1  0
  6 10  1  0
  5  6  1  1
  7  6  2  0
  9  8  1  6
  9 10  1  0
  9 11  1  0
 11 13  1  0
 12 11  2  0
 13 14  1  0
 14 18  1  0
 14 15  1  6
 16 20  1  0
 16 15  1  0
 17 16  2  0
 18 21  1  0
 19 18  2  0
M  END
$$$$
