PAD.pdb
     RDKit          3D

 21 21  0  0  1  0  0  0  0  0999 V2000
   19.7156  -10.9966  -17.9632 N   0  0  0  0  0  0  0  0  0  0  0  0
   20.4718  -11.8800  -18.8342 C   0  0  0  0  0  0  0  0  0  0  0  0
   21.8001  -11.1854  -18.9707 C   0  0  0  0  0  0  0  0  0  0  0  0
   21.9618  -10.3155  -17.7380 C   0  0  0  0  0  0  0  0  0  0  0  0
   20.6992  -10.6353  -16.9727 C   0  0  1  0  0  0  0  0  0  0  0  0
   20.2052   -9.4849  -16.1873 C   0  0  0  0  0  0  0  0  0  0  0  0
   19.6088   -8.5190  -16.7644 O   0  0  0  0  0  0  0  0  0  0  0  0
   19.7609   -8.6809  -12.5814 C   0  0  0  0  0  0  0  0  0  0  0  0
   20.0025   -8.2138  -14.0095 C   0  0  2  0  0  0  0  0  0  0  0  0
   20.3562   -9.3807  -14.7826 N   0  0  0  0  0  0  0  0  0  0  0  0
   21.0735   -7.2000  -13.9883 C   0  0  0  0  0  0  0  0  0  0  0  0
   22.2513   -7.5223  -14.2492 O   0  0  0  0  0  0  0  0  0  0  0  0
   20.7632   -5.8567  -13.6708 N   0  0  0  0  0  0  0  0  0  0  0  0
   21.6573   -4.7516  -13.8920 C   0  0  1  0  0  0  0  0  0  0  0  0
   22.2922   -4.8263  -15.2407 C   0  0  0  0  0  0  0  0  0  0  0  0
   23.1801   -3.7014  -15.5553 C   0  0  0  0  0  0  0  0  0  0  0  0
   23.9256   -3.1081  -14.7440 O   0  0  0  0  0  0  0  0  0  0  0  0
   20.9809   -3.4526  -13.6443 C   0  0  0  0  0  0  0  0  0  0  0  0
   19.7658   -3.3001  -13.9263 O   0  0  0  0  0  0  0  0  0  0  0  0
   23.2017   -3.2472  -16.8709 O   0  0  0  0  0  0  0  0  0  0  0  0
   21.6499   -2.3659  -13.0988 O   0  0  0  0  0  0  0  0  0  0  0  0
  2  1  1  0
  3  2  1  0
  4  3  1  0
  4  5  1  0
  5  1  1  0
  6 10  1  0
  5  6  1  6
  7  6  2  0
  9  8  1  1
  9 10  1  0
  9 11  1  0
 11 13  1  0
 12 11  2  0
 13 14  1  0
 14 18  1  0
 14 15  1  6
 16 20  1  0
 16 15  1  0
 17 16  2  0
 18 21  1  0
 19 18  2  0
M  END
$$$$
