PAD.pdb
     RDKit          3D

 21 21  0  0  1  0  0  0  0  0999 V2000
   23.5500  -11.3430  -18.1379 N   0  0  0  0  0  0  0  0  0  0  0  0
   23.5327  -12.7928  -18.2304 C   0  0  0  0  0  0  0  0  0  0  0  0
   24.2756  -13.2320  -16.9973 C   0  0  0  0  0  0  0  0  0  0  0  0
   24.1380  -12.1087  -15.9866 C   0  0  0  0  0  0  0  0  0  0  0  0
   23.2715  -11.1268  -16.7397 C   0  0  1  0  0  0  0  0  0  0  0  0
   23.5712   -9.7222  -16.3911 C   0  0  0  0  0  0  0  0  0  0  0  0
   23.3672   -9.2939  -15.2093 O   0  0  0  0  0  0  0  0  0  0  0  0
   25.1338   -6.8237  -18.1856 C   0  0  0  0  0  0  0  0  0  0  0  0
   24.3462   -7.3967  -17.0162 C   0  0  2  0  0  0  0  0  0  0  0  0
   24.0896   -8.7850  -17.3182 N   0  0  0  0  0  0  0  0  0  0  0  0
   23.1081   -6.6099  -16.8643 C   0  0  0  0  0  0  0  0  0  0  0  0
   22.2678   -6.5731  -17.7872 O   0  0  0  0  0  0  0  0  0  0  0  0
   22.8729   -5.8941  -15.6668 N   0  0  0  0  0  0  0  0  0  0  0  0
   21.6628   -5.1674  -15.3895 C   0  0  1  0  0  0  0  0  0  0  0  0
   20.4658   -6.0563  -15.4584 C   0  0  0  0  0  0  0  0  0  0  0  0
   19.1943   -5.3838  -15.1686 C   0  0  0  0  0  0  0  0  0  0  0  0
   18.8027   -4.3087  -15.6753 O   0  0  0  0  0  0  0  0  0  0  0  0
   21.7594   -4.4292  -14.1042 C   0  0  0  0  0  0  0  0  0  0  0  0
   22.7664   -4.5622  -13.3643 O   0  0  0  0  0  0  0  0  0  0  0  0
   18.3417   -5.9883  -14.2494 O   0  0  0  0  0  0  0  0  0  0  0  0
   20.7576   -3.5728  -13.6694 O   0  0  0  0  0  0  0  0  0  0  0  0
  2  1  1  0
  3  2  1  0
  4  3  1  0
  4  5  1  0
  5  1  1  0
  6 10  1  0
  5  6  1  1
  7  6  2  0
  9  8  1  6
  9 10  1  0
  9 11  1  0
 11 13  1  0
 12 11  2  0
 13 14  1  0
 14 18  1  0
 14 15  1  1
 16 20  1  0
 16 15  1  0
 17 16  2  0
 18 21  1  0
 19 18  2  0
M  END
$$$$
