PAD.pdb
     RDKit          3D

 21 21  0  0  1  0  0  0  0  0999 V2000
   20.2970  -11.1237  -18.4386 N   0  0  0  0  0  0  0  0  0  0  0  0
   19.9141  -11.9795  -19.5485 C   0  0  0  0  0  0  0  0  0  0  0  0
   19.6632  -13.3115  -18.8942 C   0  0  0  0  0  0  0  0  0  0  0  0
   19.3127  -13.0227  -17.4464 C   0  0  0  0  0  0  0  0  0  0  0  0
   19.3549  -11.5130  -17.4188 C   0  0  1  0  0  0  0  0  0  0  0  0
   19.7979  -10.9816  -16.1127 C   0  0  0  0  0  0  0  0  0  0  0  0
   19.0686  -11.1232  -15.0784 O   0  0  0  0  0  0  0  0  0  0  0  0
   23.0615  -10.0767  -14.7045 C   0  0  0  0  0  0  0  0  0  0  0  0
   21.5509   -9.9025  -14.6424 C   0  0  2  0  0  0  0  0  0  0  0  0
   21.0256  -10.2998  -15.9272 N   0  0  0  0  0  0  0  0  0  0  0  0
   21.2621   -8.4922  -14.3217 C   0  0  0  0  0  0  0  0  0  0  0  0
   21.6224   -8.0082  -13.2285 O   0  0  0  0  0  0  0  0  0  0  0  0
   20.5735   -7.6855  -15.2580 N   0  0  0  0  0  0  0  0  0  0  0  0
   20.2029   -6.3161  -15.0198 C   0  0  1  0  0  0  0  0  0  0  0  0
   20.6820   -5.4236  -16.1159 C   0  0  0  0  0  0  0  0  0  0  0  0
   21.8878   -4.6547  -15.7878 C   0  0  0  0  0  0  0  0  0  0  0  0
   22.4497   -4.6160  -14.6704 O   0  0  0  0  0  0  0  0  0  0  0  0
   18.7447   -6.1880  -14.7677 C   0  0  0  0  0  0  0  0  0  0  0  0
   17.9239   -6.9217  -15.3737 O   0  0  0  0  0  0  0  0  0  0  0  0
   22.4648   -3.8982  -16.8038 O   0  0  0  0  0  0  0  0  0  0  0  0
   18.2311   -5.2667  -13.8659 O   0  0  0  0  0  0  0  0  0  0  0  0
  2  1  1  0
  3  2  1  0
  4  3  1  0
  4  5  1  0
  5  1  1  0
  6 10  1  0
  5  6  1  1
  7  6  2  0
  9  8  1  6
  9 10  1  0
  9 11  1  0
 11 13  1  0
 12 11  2  0
 13 14  1  0
 14 18  1  0
 14 15  1  6
 16 20  1  0
 16 15  1  0
 17 16  2  0
 18 21  1  0
 19 18  2  0
M  END
$$$$
