PAD.pdb
     RDKit          3D

 21 21  0  0  1  0  0  0  0  0999 V2000
   24.3264  -13.1413  -17.7866 N   0  0  0  0  0  0  0  0  0  0  0  0
   25.1821  -14.1861  -17.2509 C   0  0  0  0  0  0  0  0  0  0  0  0
   25.6885  -13.5981  -15.9612 C   0  0  0  0  0  0  0  0  0  0  0  0
   24.6645  -12.5669  -15.5248 C   0  0  0  0  0  0  0  0  0  0  0  0
   23.6216  -12.6960  -16.6100 C   0  0  1  0  0  0  0  0  0  0  0  0
   22.9428  -11.4156  -16.8997 C   0  0  0  0  0  0  0  0  0  0  0  0
   23.4688  -10.5732  -17.6968 O   0  0  0  0  0  0  0  0  0  0  0  0
   19.5841   -9.9560  -16.1836 C   0  0  0  0  0  0  0  0  0  0  0  0
   21.0541   -9.7732  -16.5323 C   0  0  2  0  0  0  0  0  0  0  0  0
   21.6995  -11.0485  -16.3286 N   0  0  0  0  0  0  0  0  0  0  0  0
   21.6050   -8.7130  -15.6676 C   0  0  0  0  0  0  0  0  0  0  0  0
   22.1288   -9.0026  -14.5717 O   0  0  0  0  0  0  0  0  0  0  0  0
   21.5387   -7.3622  -16.0831 N   0  0  0  0  0  0  0  0  0  0  0  0
   22.0445   -6.2585  -15.3114 C   0  0  1  0  0  0  0  0  0  0  0  0
   22.2562   -5.0507  -16.1624 C   0  0  0  0  0  0  0  0  0  0  0  0
   22.7334   -3.8711  -15.4320 C   0  0  0  0  0  0  0  0  0  0  0  0
   23.8945   -3.6990  -14.9981 O   0  0  0  0  0  0  0  0  0  0  0  0
   21.1858   -5.9880  -14.1300 C   0  0  0  0  0  0  0  0  0  0  0  0
   19.9387   -6.1254  -14.2007 O   0  0  0  0  0  0  0  0  0  0  0  0
   21.8202   -2.8474  -15.1961 O   0  0  0  0  0  0  0  0  0  0  0  0
   21.7139   -5.5778  -12.9139 O   0  0  0  0  0  0  0  0  0  0  0  0
  2  1  1  0
  3  2  1  0
  4  3  1  0
  4  5  1  0
  5  1  1  0
  6 10  1  0
  5  6  1  6
  7  6  2  0
  9  8  1  1
  9 10  1  0
  9 11  1  0
 11 13  1  0
 12 11  2  0
 13 14  1  0
 14 18  1  0
 14 15  1  6
 16 20  1  0
 16 15  1  0
 17 16  2  0
 18 21  1  0
 19 18  2  0
M  END
$$$$
