PAD.pdb
     RDKit          3D

 21 21  0  0  1  0  0  0  0  0999 V2000
   24.5428  -16.7143  -15.8848 N   0  0  0  0  0  0  0  0  0  0  0  0
   24.9120  -17.8815  -15.1024 C   0  0  0  0  0  0  0  0  0  0  0  0
   26.4168  -17.8533  -15.1188 C   0  0  0  0  0  0  0  0  0  0  0  0
   26.8196  -16.4092  -15.3526 C   0  0  0  0  0  0  0  0  0  0  0  0
   25.4747  -15.7234  -15.4061 C   0  0  1  0  0  0  0  0  0  0  0  0
   25.4667  -14.5608  -16.3186 C   0  0  0  0  0  0  0  0  0  0  0  0
   26.1557  -13.5246  -16.0483 O   0  0  0  0  0  0  0  0  0  0  0  0
   24.8130  -13.9143  -19.8240 C   0  0  0  0  0  0  0  0  0  0  0  0
   24.6585  -13.3828  -18.4064 C   0  0  2  0  0  0  0  0  0  0  0  0
   24.7156  -14.5203  -17.5191 N   0  0  0  0  0  0  0  0  0  0  0  0
   23.3756  -12.6601  -18.3220 C   0  0  0  0  0  0  0  0  0  0  0  0
   23.1858  -11.6317  -19.0044 O   0  0  0  0  0  0  0  0  0  0  0  0
   22.3565  -13.1354  -17.4634 N   0  0  0  0  0  0  0  0  0  0  0  0
   21.0743  -12.5014  -17.3105 C   0  0  1  0  0  0  0  0  0  0  0  0
   20.0259  -13.4837  -16.9056 C   0  0  0  0  0  0  0  0  0  0  0  0
   18.7042  -12.8941  -16.6644 C   0  0  0  0  0  0  0  0  0  0  0  0
   18.2265  -11.9009  -17.2572 O   0  0  0  0  0  0  0  0  0  0  0  0
   21.1553  -11.3345  -16.3950 C   0  0  0  0  0  0  0  0  0  0  0  0
   21.7862  -11.4144  -15.3112 O   0  0  0  0  0  0  0  0  0  0  0  0
   17.9037  -13.4855  -15.6914 O   0  0  0  0  0  0  0  0  0  0  0  0
   20.5473  -10.1225  -16.6908 O   0  0  0  0  0  0  0  0  0  0  0  0
  2  1  1  0
  3  2  1  0
  4  3  1  0
  4  5  1  0
  5  1  1  0
  6 10  1  0
  5  6  1  6
  7  6  2  0
  9  8  1  6
  9 10  1  0
  9 11  1  0
 11 13  1  0
 12 11  2  0
 13 14  1  0
 14 18  1  0
 14 15  1  1
 16 20  1  0
 16 15  1  0
 17 16  2  0
 18 21  1  0
 19 18  2  0
M  END
$$$$
