PAD.pdb
     RDKit          3D

 21 21  0  0  1  0  0  0  0  0999 V2000
   19.9164  -11.6151  -18.2025 N   0  0  0  0  0  0  0  0  0  0  0  0
   19.1582  -12.5762  -18.9850 C   0  0  0  0  0  0  0  0  0  0  0  0
   18.2269  -13.1933  -17.9763 C   0  0  0  0  0  0  0  0  0  0  0  0
   18.0566  -12.1742  -16.8651 C   0  0  0  0  0  0  0  0  0  0  0  0
   18.8928  -11.0246  -17.3762 C   0  0  1  0  0  0  0  0  0  0  0  0
   19.5262  -10.2548  -16.2851 C   0  0  0  0  0  0  0  0  0  0  0  0
   18.8102   -9.6582  -15.4173 O   0  0  0  0  0  0  0  0  0  0  0  0
   23.0414   -9.7132  -15.1076 C   0  0  0  0  0  0  0  0  0  0  0  0
   21.5722   -9.3168  -15.1304 C   0  0  2  0  0  0  0  0  0  0  0  0
   20.9293  -10.1315  -16.1341 N   0  0  0  0  0  0  0  0  0  0  0  0
   21.4881   -7.8750  -15.4293 C   0  0  0  0  0  0  0  0  0  0  0  0
   21.3958   -7.4808  -16.6105 O   0  0  0  0  0  0  0  0  0  0  0  0
   21.5123   -6.9356  -14.3717 N   0  0  0  0  0  0  0  0  0  0  0  0
   21.3526   -5.5175  -14.5528 C   0  0  1  0  0  0  0  0  0  0  0  0
   19.9228   -5.1551  -14.7810 C   0  0  0  0  0  0  0  0  0  0  0  0
   19.6794   -3.7163  -14.9336 C   0  0  0  0  0  0  0  0  0  0  0  0
   20.5513   -2.8454  -15.1511 O   0  0  0  0  0  0  0  0  0  0  0  0
   21.9683   -4.7582  -13.4345 C   0  0  0  0  0  0  0  0  0  0  0  0
   22.3911   -5.3548  -12.4125 O   0  0  0  0  0  0  0  0  0  0  0  0
   18.3646   -3.2715  -14.8285 O   0  0  0  0  0  0  0  0  0  0  0  0
   22.1024   -3.3773  -13.4675 O   0  0  0  0  0  0  0  0  0  0  0  0
  2  1  1  0
  3  2  1  0
  4  3  1  0
  4  5  1  0
  5  1  1  0
  6 10  1  0
  5  6  1  1
  7  6  2  0
  9  8  1  6
  9 10  1  0
  9 11  1  0
 11 13  1  0
 12 11  2  0
 13 14  1  0
 14 18  1  0
 14 15  1  1
 16 20  1  0
 16 15  1  0
 17 16  2  0
 18 21  1  0
 19 18  2  0
M  END
$$$$
