PAD.pdb
     RDKit          3D

 21 21  0  0  1  0  0  0  0  0999 V2000
   18.1745  -12.7613  -15.5306 N   0  0  0  0  0  0  0  0  0  0  0  0
   18.1317  -14.2093  -15.6410 C   0  0  0  0  0  0  0  0  0  0  0  0
   18.5659  -14.4660  -17.0591 C   0  0  0  0  0  0  0  0  0  0  0  0
   19.4018  -13.2711  -17.4783 C   0  0  0  0  0  0  0  0  0  0  0  0
   19.4032  -12.4429  -16.2150 C   0  0  1  0  0  0  0  0  0  0  0  0
   19.4507  -10.9913  -16.4884 C   0  0  0  0  0  0  0  0  0  0  0  0
   20.5217  -10.4506  -16.9155 O   0  0  0  0  0  0  0  0  0  0  0  0
   16.8937   -8.3030  -16.8069 C   0  0  0  0  0  0  0  0  0  0  0  0
   18.3450   -8.7196  -16.6163 C   0  0  2  0  0  0  0  0  0  0  0  0
   18.3432  -10.1283  -16.3001 N   0  0  0  0  0  0  0  0  0  0  0  0
   18.9235   -7.8959  -15.5383 C   0  0  0  0  0  0  0  0  0  0  0  0
   18.8310   -8.2610  -14.3477 O   0  0  0  0  0  0  0  0  0  0  0  0
   19.5860   -6.6870  -15.8562 N   0  0  0  0  0  0  0  0  0  0  0  0
   20.1473   -5.7964  -14.8758 C   0  0  1  0  0  0  0  0  0  0  0  0
   21.5526   -5.4267  -15.2170 C   0  0  0  0  0  0  0  0  0  0  0  0
   22.1721   -4.4769  -14.2860 C   0  0  0  0  0  0  0  0  0  0  0  0
   22.1941   -3.2325  -14.4165 O   0  0  0  0  0  0  0  0  0  0  0  0
   19.2759   -4.6130  -14.6605 C   0  0  0  0  0  0  0  0  0  0  0  0
   18.7002   -4.0577  -15.6297 O   0  0  0  0  0  0  0  0  0  0  0  0
   22.7930   -4.9973  -13.1541 O   0  0  0  0  0  0  0  0  0  0  0  0
   19.0617   -4.0756  -13.3990 O   0  0  0  0  0  0  0  0  0  0  0  0
  2  1  1  0
  3  2  1  0
  4  3  1  0
  4  5  1  0
  5  1  1  0
  6 10  1  0
  5  6  1  6
  7  6  2  0
  9  8  1  1
  9 10  1  0
  9 11  1  0
 11 13  1  0
 12 11  2  0
 13 14  1  0
 14 18  1  0
 14 15  1  6
 16 20  1  0
 16 15  1  0
 17 16  2  0
 18 21  1  0
 19 18  2  0
M  END
$$$$
