CGT.pdb
     RDKit          3D

 18 17  0  0  1  0  0  0  0  0999 V2000
   -3.9935  -23.6333   25.6717 N   0  0  0  0  0  0  0  0  0  0  0  0
   -4.1908  -22.2590   25.2649 C   0  0  1  0  0  0  0  0  0  0  0  0
   -3.4781  -21.9505   23.9832 C   0  0  0  0  0  0  0  0  0  0  0  0
   -1.7199  -22.3204   24.1020 S   0  0  0  0  0  0  0  0  0  0  0  0
   -5.6343  -21.9071   25.1986 C   0  0  0  0  0  0  0  0  0  0  0  0
   -5.9804  -20.7229   24.9573 O   0  0  0  0  0  0  0  0  0  0  0  0
   -6.6662  -22.8685   25.3997 N   0  0  0  0  0  0  0  0  0  0  0  0
   -8.0605  -22.5352   25.3691 C   0  0  0  0  0  0  0  0  0  0  0  0
   -8.6737  -22.4814   26.7114 C   0  0  0  0  0  0  0  0  0  0  0  0
   -9.9045  -22.3213   26.8828 O   0  0  0  0  0  0  0  0  0  0  0  0
   -8.3475  -25.1882   29.0636 C   0  0  0  0  0  0  0  0  0  0  0  0
   -7.9021  -23.9747   29.8516 C   0  0  1  0  0  0  0  0  0  0  0  0
   -6.5181  -23.9296   29.9437 O   0  0  0  0  0  0  0  0  0  0  0  0
   -8.4424  -22.7098   29.1748 C   0  0  2  0  0  0  0  0  0  0  0  0
   -7.8500  -22.6147   27.8574 N   0  0  0  0  0  0  0  0  0  0  0  0
   -8.1452  -21.5270   30.0064 C   0  0  0  0  0  0  0  0  0  0  0  0
   -8.6937  -21.3414   31.1030 O   0  0  0  0  0  0  0  0  0  0  0  0
   -7.2279  -20.6054   29.5410 O   0  0  0  0  0  0  0  0  0  0  0  0
  2  1  1  6
  2  3  1  0
  3  4  1  0
  5  6  2  0
  5  2  1  0
  7  5  1  0
  8  7  1  0
  9  8  1  0
  9 15  1  0
 10  9  2  0
 12 14  1  0
 12 11  1  6
 13 12  1  0
 14 15  1  6
 14 16  1  0
 16 17  2  0
 16 18  1  0
M  END
$$$$
