CGT.pdb
     RDKit          3D

 18 17  0  0  1  0  0  0  0  0999 V2000
    6.9215  -16.7029   22.2015 N   0  0  0  0  0  0  0  0  0  0  0  0
    7.8637  -15.7657   21.6295 C   0  0  1  0  0  0  0  0  0  0  0  0
    7.3724  -14.3533   21.7276 C   0  0  0  0  0  0  0  0  0  0  0  0
    6.9467  -13.9205   23.4228 S   0  0  0  0  0  0  0  0  0  0  0  0
    9.2217  -15.9252   22.2144 C   0  0  0  0  0  0  0  0  0  0  0  0
   10.1899  -15.2818   21.7358 O   0  0  0  0  0  0  0  0  0  0  0  0
    9.4840  -16.7910   23.3149 N   0  0  0  0  0  0  0  0  0  0  0  0
   10.7835  -16.9334   23.9040 C   0  0  0  0  0  0  0  0  0  0  0  0
   11.0002  -16.0346   25.0554 C   0  0  0  0  0  0  0  0  0  0  0  0
   12.0295  -15.3301   25.1745 O   0  0  0  0  0  0  0  0  0  0  0  0
    9.0233  -13.1632   26.2645 C   0  0  0  0  0  0  0  0  0  0  0  0
    9.0053  -14.1926   27.3745 C   0  0  1  0  0  0  0  0  0  0  0  0
    7.8288  -14.9279   27.3436 O   0  0  0  0  0  0  0  0  0  0  0  0
   10.2236  -15.1114   27.2276 C   0  0  2  0  0  0  0  0  0  0  0  0
   10.0145  -15.9567   26.0711 N   0  0  0  0  0  0  0  0  0  0  0  0
   10.4156  -15.8953   28.4636 C   0  0  0  0  0  0  0  0  0  0  0  0
   10.7288  -15.3604   29.5376 O   0  0  0  0  0  0  0  0  0  0  0  0
   10.2391  -17.2640   28.4123 O   0  0  0  0  0  0  0  0  0  0  0  0
  2  1  1  1
  2  3  1  0
  3  4  1  0
  5  6  2  0
  5  2  1  0
  7  5  1  0
  8  7  1  0
  9  8  1  0
  9 15  1  0
 10  9  2  0
 12 14  1  0
 12 11  1  6
 13 12  1  0
 14 15  1  6
 14 16  1  0
 16 17  2  0
 16 18  1  0
M  END
$$$$
