CGT.pdb
     RDKit          3D

 18 17  0  0  1  0  0  0  0  0999 V2000
    6.3273  -19.3195   21.3603 N   0  0  0  0  0  0  0  0  0  0  0  0
    6.2400  -18.5948   20.1112 C   0  0  1  0  0  0  0  0  0  0  0  0
    4.8415  -18.1342   19.8319 C   0  0  0  0  0  0  0  0  0  0  0  0
    3.6975  -19.5217   19.7398 S   0  0  0  0  0  0  0  0  0  0  0  0
    7.2170  -17.4749   20.0559 C   0  0  0  0  0  0  0  0  0  0  0  0
    7.6604  -17.0840   18.9464 O   0  0  0  0  0  0  0  0  0  0  0  0
    7.6850  -16.8093   21.2253 N   0  0  0  0  0  0  0  0  0  0  0  0
    8.6752  -15.7728   21.1903 C   0  0  0  0  0  0  0  0  0  0  0  0
    8.9650  -15.2021   22.5211 C   0  0  0  0  0  0  0  0  0  0  0  0
    9.8321  -14.3152   22.6983 O   0  0  0  0  0  0  0  0  0  0  0  0
    7.1427  -13.1785   24.8031 C   0  0  0  0  0  0  0  0  0  0  0  0
    7.3546  -14.4766   25.5528 C   0  0  1  0  0  0  0  0  0  0  0  0
    6.2272  -15.2815   25.4699 O   0  0  0  0  0  0  0  0  0  0  0  0
    8.5790  -15.1963   24.9756 C   0  0  2  0  0  0  0  0  0  0  0  0
    8.2420  -15.6663   23.6486 N   0  0  0  0  0  0  0  0  0  0  0  0
    8.9847  -16.2975   25.8709 C   0  0  0  0  0  0  0  0  0  0  0  0
    8.9140  -17.4857   25.5230 O   0  0  0  0  0  0  0  0  0  0  0  0
    9.4557  -15.9854   27.1311 O   0  0  0  0  0  0  0  0  0  0  0  0
  2  1  1  1
  2  3  1  0
  3  4  1  0
  5  6  2  0
  5  2  1  0
  7  5  1  0
  8  7  1  0
  9  8  1  0
  9 15  1  0
 10  9  2  0
 12 14  1  0
 12 11  1  6
 13 12  1  0
 14 15  1  6
 14 16  1  0
 16 17  2  0
 16 18  1  0
M  END
$$$$
