CGT.pdb
     RDKit          3D

 18 17  0  0  1  0  0  0  0  0999 V2000
    7.8838  -15.1067   18.3156 N   0  0  0  0  0  0  0  0  0  0  0  0
    8.1457  -14.3020   19.4891 C   0  0  1  0  0  0  0  0  0  0  0  0
    7.6847  -12.8876   19.3079 C   0  0  0  0  0  0  0  0  0  0  0  0
    8.5291  -12.0912   17.9313 S   0  0  0  0  0  0  0  0  0  0  0  0
    7.5785  -14.9200   20.7172 C   0  0  0  0  0  0  0  0  0  0  0  0
    6.6139  -15.7212   20.6276 O   0  0  0  0  0  0  0  0  0  0  0  0
    8.0868  -14.6418   22.0186 N   0  0  0  0  0  0  0  0  0  0  0  0
    7.7257  -15.4051   23.1775 C   0  0  0  0  0  0  0  0  0  0  0  0
    8.2964  -14.8659   24.4283 C   0  0  0  0  0  0  0  0  0  0  0  0
    9.4725  -15.1046   24.7888 O   0  0  0  0  0  0  0  0  0  0  0  0
    6.8440  -11.3482   26.2027 C   0  0  0  0  0  0  0  0  0  0  0  0
    6.9900  -12.5611   27.0969 C   0  0  1  0  0  0  0  0  0  0  0  0
    5.7713  -13.2066   27.2521 O   0  0  0  0  0  0  0  0  0  0  0  0
    8.0328  -13.5085   26.4927 C   0  0  2  0  0  0  0  0  0  0  0  0
    7.4941  -14.0463   25.2613 N   0  0  0  0  0  0  0  0  0  0  0  0
    8.3727  -14.5684   27.4622 C   0  0  0  0  0  0  0  0  0  0  0  0
    8.0544  -15.7526   27.2781 O   0  0  0  0  0  0  0  0  0  0  0  0
    9.0658  -14.2210   28.6052 O   0  0  0  0  0  0  0  0  0  0  0  0
  2  1  1  6
  2  3  1  0
  3  4  1  0
  5  6  2  0
  5  2  1  0
  7  5  1  0
  8  7  1  0
  9  8  1  0
  9 15  1  0
 10  9  2  0
 12 14  1  0
 12 11  1  6
 13 12  1  0
 14 15  1  6
 14 16  1  0
 16 17  2  0
 16 18  1  0
M  END
$$$$
