CGT.pdb
     RDKit          3D

 18 17  0  0  1  0  0  0  0  0999 V2000
    9.4347  -13.5252   19.5467 N   0  0  0  0  0  0  0  0  0  0  0  0
    8.0281  -13.6489   19.8617 C   0  0  1  0  0  0  0  0  0  0  0  0
    7.2180  -14.0152   18.6553 C   0  0  0  0  0  0  0  0  0  0  0  0
    7.6323  -12.9766   17.2439 S   0  0  0  0  0  0  0  0  0  0  0  0
    7.7985  -14.5866   20.9930 C   0  0  0  0  0  0  0  0  0  0  0  0
    6.6338  -14.7688   21.4297 O   0  0  0  0  0  0  0  0  0  0  0  0
    8.8579  -15.3042   21.6192 N   0  0  0  0  0  0  0  0  0  0  0  0
    8.6419  -16.2587   22.6672 C   0  0  0  0  0  0  0  0  0  0  0  0
    9.8871  -16.9034   23.1305 C   0  0  0  0  0  0  0  0  0  0  0  0
    9.9063  -17.7316   24.0705 O   0  0  0  0  0  0  0  0  0  0  0  0
   14.1850  -18.4652   21.4751 C   0  0  0  0  0  0  0  0  0  0  0  0
   12.9818  -17.5594   21.3207 C   0  0  1  0  0  0  0  0  0  0  0  0
   12.1158  -18.0533   20.3553 O   0  0  0  0  0  0  0  0  0  0  0  0
   12.2714  -17.4324   22.6731 C   0  0  2  0  0  0  0  0  0  0  0  0
   11.1135  -16.5817   22.4965 N   0  0  0  0  0  0  0  0  0  0  0  0
   13.2051  -16.9000   23.6849 C   0  0  0  0  0  0  0  0  0  0  0  0
   13.3084  -15.6844   23.9072 O   0  0  0  0  0  0  0  0  0  0  0  0
   13.9823  -17.7899   24.4001 O   0  0  0  0  0  0  0  0  0  0  0  0
  2  1  1  6
  2  3  1  0
  3  4  1  0
  5  6  2  0
  5  2  1  0
  7  5  1  0
  8  7  1  0
  9  8  1  0
  9 15  1  0
 10  9  2  0
 12 14  1  0
 12 11  1  1
 13 12  1  0
 14 15  1  6
 14 16  1  0
 16 17  2  0
 16 18  1  0
M  END
$$$$
