CGT.pdb
     RDKit          3D

 18 17  0  0  1  0  0  0  0  0999 V2000
    6.4988  -14.0598   21.0141 N   0  0  0  0  0  0  0  0  0  0  0  0
    7.6764  -14.8939   20.9111 C   0  0  1  0  0  0  0  0  0  0  0  0
    8.8694  -14.1166   20.4436 C   0  0  0  0  0  0  0  0  0  0  0  0
    8.3800  -12.6692   19.4908 S   0  0  0  0  0  0  0  0  0  0  0  0
    7.9475  -15.6214   22.1796 C   0  0  0  0  0  0  0  0  0  0  0  0
    8.8862  -16.4558   22.2355 O   0  0  0  0  0  0  0  0  0  0  0  0
    7.1778  -15.4139   23.3602 N   0  0  0  0  0  0  0  0  0  0  0  0
    7.4448  -16.0912   24.5956 C   0  0  0  0  0  0  0  0  0  0  0  0
    8.6751  -15.6192   25.2619 C   0  0  0  0  0  0  0  0  0  0  0  0
    9.5012  -14.8671   24.6945 O   0  0  0  0  0  0  0  0  0  0  0  0
    9.6005  -13.1958   27.0367 C   0  0  0  0  0  0  0  0  0  0  0  0
    9.8668  -14.3126   28.0235 C   0  0  1  0  0  0  0  0  0  0  0  0
    8.7844  -14.4847   28.8747 O   0  0  0  0  0  0  0  0  0  0  0  0
   10.1618  -15.6045   27.2527 C   0  0  2  0  0  0  0  0  0  0  0  0
    8.9435  -16.0248   26.5934 N   0  0  0  0  0  0  0  0  0  0  0  0
   10.6806  -16.6341   28.1745 C   0  0  0  0  0  0  0  0  0  0  0  0
   10.0027  -17.6174   28.5083 O   0  0  0  0  0  0  0  0  0  0  0  0
   11.9597  -16.4894   28.6748 O   0  0  0  0  0  0  0  0  0  0  0  0
  2  1  1  1
  2  3  1  0
  3  4  1  0
  5  6  2  0
  5  2  1  0
  7  5  1  0
  8  7  1  0
  9  8  1  0
  9 15  1  0
 10  9  2  0
 12 14  1  0
 12 11  1  6
 13 12  1  0
 14 15  1  1
 14 16  1  0
 16 17  2  0
 16 18  1  0
M  END
$$$$
