CGT.pdb
     RDKit          3D

 18 17  0  0  1  0  0  0  0  0999 V2000
    7.9654  -13.1737   18.4837 N   0  0  0  0  0  0  0  0  0  0  0  0
    7.4241  -13.6350   19.7436 C   0  0  1  0  0  0  0  0  0  0  0  0
    6.4847  -14.7876   19.5567 C   0  0  0  0  0  0  0  0  0  0  0  0
    5.8367  -15.3709   21.1322 S   0  0  0  0  0  0  0  0  0  0  0  0
    8.4993  -13.9455   20.7231 C   0  0  0  0  0  0  0  0  0  0  0  0
    9.5851  -14.4394   20.3264 O   0  0  0  0  0  0  0  0  0  0  0  0
    8.3548  -13.7049   22.1198 N   0  0  0  0  0  0  0  0  0  0  0  0
    9.3987  -13.9623   23.0685 C   0  0  0  0  0  0  0  0  0  0  0  0
    9.3502  -15.3280   23.6282 C   0  0  0  0  0  0  0  0  0  0  0  0
    8.3841  -15.7415   24.3106 O   0  0  0  0  0  0  0  0  0  0  0  0
   10.1924  -18.5409   21.6678 C   0  0  0  0  0  0  0  0  0  0  0  0
   11.0516  -18.4981   22.9136 C   0  0  1  0  0  0  0  0  0  0  0  0
   12.3403  -18.0841   22.6076 O   0  0  0  0  0  0  0  0  0  0  0  0
   10.4072  -17.5555   23.9365 C   0  0  2  0  0  0  0  0  0  0  0  0
   10.4309  -16.2145   23.3918 N   0  0  0  0  0  0  0  0  0  0  0  0
   11.1210  -17.6464   25.2254 C   0  0  0  0  0  0  0  0  0  0  0  0
   11.8626  -16.7387   25.6301 O   0  0  0  0  0  0  0  0  0  0  0  0
   10.9515  -18.7798   25.9962 O   0  0  0  0  0  0  0  0  0  0  0  0
  2  1  1  6
  2  3  1  0
  3  4  1  0
  5  6  2  0
  5  2  1  0
  7  5  1  0
  8  7  1  0
  9  8  1  0
  9 15  1  0
 10  9  2  0
 12 14  1  0
 12 11  1  6
 13 12  1  0
 14 15  1  6
 14 16  1  0
 16 17  2  0
 16 18  1  0
M  END
$$$$
