CGT.pdb
     RDKit          3D

 18 17  0  0  1  0  0  0  0  0999 V2000
    6.1466  -13.8747   26.7377 N   0  0  0  0  0  0  0  0  0  0  0  0
    6.2960  -12.8821   25.6958 C   0  0  1  0  0  0  0  0  0  0  0  0
    6.9411  -11.6304   26.2085 C   0  0  0  0  0  0  0  0  0  0  0  0
    6.4036  -11.2518   27.8849 S   0  0  0  0  0  0  0  0  0  0  0  0
    7.0084  -13.4313   24.5115 C   0  0  0  0  0  0  0  0  0  0  0  0
    7.5753  -12.6522   23.7040 O   0  0  0  0  0  0  0  0  0  0  0  0
    7.0810  -14.8283   24.2421 N   0  0  0  0  0  0  0  0  0  0  0  0
    7.7555  -15.3689   23.0980 C   0  0  0  0  0  0  0  0  0  0  0  0
    8.5669  -16.5619   23.4129 C   0  0  0  0  0  0  0  0  0  0  0  0
    8.6798  -17.5266   22.6214 O   0  0  0  0  0  0  0  0  0  0  0  0
   10.7712  -17.7673   22.5626 C   0  0  0  0  0  0  0  0  0  0  0  0
   11.2915  -17.7295   23.9838 C   0  0  1  0  0  0  0  0  0  0  0  0
   12.0694  -16.5994   24.1923 O   0  0  0  0  0  0  0  0  0  0  0  0
   10.1052  -17.7584   24.9543 C   0  0  2  0  0  0  0  0  0  0  0  0
    9.2488  -16.6306   24.6538 N   0  0  0  0  0  0  0  0  0  0  0  0
   10.5928  -17.7325   26.3473 C   0  0  0  0  0  0  0  0  0  0  0  0
   10.5393  -16.7067   27.0421 O   0  0  0  0  0  0  0  0  0  0  0  0
   11.1225  -18.8896   26.8838 O   0  0  0  0  0  0  0  0  0  0  0  0
  2  1  1  1
  2  3  1  0
  3  4  1  0
  5  6  2  0
  5  2  1  0
  7  5  1  0
  8  7  1  0
  9  8  1  0
  9 15  1  0
 10  9  2  0
 12 14  1  0
 12 11  1  6
 13 12  1  0
 14 15  1  6
 14 16  1  0
 16 17  2  0
 16 18  1  0
M  END
$$$$
