CGT.pdb
     RDKit          3D

 18 17  0  0  1  0  0  0  0  0999 V2000
    8.1593  -16.5901   13.9480 N   0  0  0  0  0  0  0  0  0  0  0  0
    8.4730  -15.7956   15.1157 C   0  0  1  0  0  0  0  0  0  0  0  0
    7.6606  -14.5373   15.1669 C   0  0  0  0  0  0  0  0  0  0  0  0
    7.8048  -13.5979   13.6374 S   0  0  0  0  0  0  0  0  0  0  0  0
    8.3524  -16.5881   16.3684 C   0  0  0  0  0  0  0  0  0  0  0  0
    7.7513  -17.6921   16.3563 O   0  0  0  0  0  0  0  0  0  0  0  0
    8.8972  -16.1468   17.6084 N   0  0  0  0  0  0  0  0  0  0  0  0
    8.9168  -16.9629   18.7873 C   0  0  0  0  0  0  0  0  0  0  0  0
    9.5362  -16.2915   19.9476 C   0  0  0  0  0  0  0  0  0  0  0  0
   10.7635  -16.0457   20.0063 O   0  0  0  0  0  0  0  0  0  0  0  0
    7.4674  -13.4007   21.9539 C   0  0  0  0  0  0  0  0  0  0  0  0
    8.1088  -14.4340   22.8556 C   0  0  1  0  0  0  0  0  0  0  0  0
    7.1778  -15.3818   23.2566 O   0  0  0  0  0  0  0  0  0  0  0  0
    9.2727  -15.0978   22.1108 C   0  0  2  0  0  0  0  0  0  0  0  0
    8.7229  -15.9053   21.0425 N   0  0  0  0  0  0  0  0  0  0  0  0
   10.0838  -15.8952   23.0516 C   0  0  0  0  0  0  0  0  0  0  0  0
   10.7983  -15.3643   23.9150 O   0  0  0  0  0  0  0  0  0  0  0  0
   10.0390  -17.2725   22.9599 O   0  0  0  0  0  0  0  0  0  0  0  0
  2  1  1  6
  2  3  1  0
  3  4  1  0
  5  6  2  0
  5  2  1  0
  7  5  1  0
  8  7  1  0
  9  8  1  0
  9 15  1  0
 10  9  2  0
 12 14  1  0
 12 11  1  6
 13 12  1  0
 14 15  1  6
 14 16  1  0
 16 17  2  0
 16 18  1  0
M  END
$$$$
