CGT.pdb
     RDKit          3D

 18 17  0  0  1  0  0  0  0  0999 V2000
    7.2461  -12.5194   27.0523 N   0  0  0  0  0  0  0  0  0  0  0  0
    6.3452  -13.1777   26.1313 C   0  0  1  0  0  0  0  0  0  0  0  0
    5.4292  -12.2024   25.4564 C   0  0  0  0  0  0  0  0  0  0  0  0
    5.1395  -10.7520   26.4835 S   0  0  0  0  0  0  0  0  0  0  0  0
    7.0803  -14.0214   25.1518 C   0  0  0  0  0  0  0  0  0  0  0  0
    6.4624  -14.8882   24.4829 O   0  0  0  0  0  0  0  0  0  0  0  0
    8.4815  -13.8920   24.9300 N   0  0  0  0  0  0  0  0  0  0  0  0
    9.2324  -14.8090   24.1229 C   0  0  0  0  0  0  0  0  0  0  0  0
   10.0922  -15.7102   24.9160 C   0  0  0  0  0  0  0  0  0  0  0  0
   11.0426  -16.3511   24.4100 O   0  0  0  0  0  0  0  0  0  0  0  0
   11.2550  -13.9549   28.0115 C   0  0  0  0  0  0  0  0  0  0  0  0
   10.8779  -15.3614   28.4258 C   0  0  1  0  0  0  0  0  0  0  0  0
    9.6233  -15.3792   29.0187 O   0  0  0  0  0  0  0  0  0  0  0  0
   10.9090  -16.2735   27.1941 C   0  0  2  0  0  0  0  0  0  0  0  0
    9.8437  -15.8651   26.3030 N   0  0  0  0  0  0  0  0  0  0  0  0
   10.7793  -17.6844   27.6083 C   0  0  0  0  0  0  0  0  0  0  0  0
    9.8037  -18.3768   27.2820 O   0  0  0  0  0  0  0  0  0  0  0  0
   11.7789  -18.2407   28.3819 O   0  0  0  0  0  0  0  0  0  0  0  0
  2  1  1  6
  2  3  1  0
  3  4  1  0
  5  6  2  0
  5  2  1  0
  7  5  1  0
  8  7  1  0
  9  8  1  0
  9 15  1  0
 10  9  2  0
 12 14  1  0
 12 11  1  6
 13 12  1  0
 14 15  1  6
 14 16  1  0
 16 17  2  0
 16 18  1  0
M  END
$$$$
