CGT.pdb
     RDKit          3D

 18 17  0  0  1  0  0  0  0  0999 V2000
    8.8742  -15.9742   17.9161 N   0  0  0  0  0  0  0  0  0  0  0  0
    9.1507  -14.9659   18.9161 C   0  0  1  0  0  0  0  0  0  0  0  0
    9.2643  -13.5993   18.3116 C   0  0  0  0  0  0  0  0  0  0  0  0
    7.6635  -12.9902   17.7559 S   0  0  0  0  0  0  0  0  0  0  0  0
    8.1596  -15.0044   20.0243 C   0  0  0  0  0  0  0  0  0  0  0  0
    6.9612  -15.2981   19.7836 O   0  0  0  0  0  0  0  0  0  0  0  0
    8.5105  -14.7181   21.3750 N   0  0  0  0  0  0  0  0  0  0  0  0
    7.5486  -14.6648   22.4371 C   0  0  0  0  0  0  0  0  0  0  0  0
    8.1478  -14.3381   23.7467 C   0  0  0  0  0  0  0  0  0  0  0  0
    9.3869  -14.3004   23.9288 O   0  0  0  0  0  0  0  0  0  0  0  0
    6.7284  -11.4960   26.2383 C   0  0  0  0  0  0  0  0  0  0  0  0
    6.8358  -12.8574   26.8917 C   0  0  1  0  0  0  0  0  0  0  0  0
    5.6015  -13.4915   26.9118 O   0  0  0  0  0  0  0  0  0  0  0  0
    7.8664  -13.7000   26.1315 C   0  0  2  0  0  0  0  0  0  0  0  0
    7.3005  -14.0543   24.8471 N   0  0  0  0  0  0  0  0  0  0  0  0
    8.2311  -14.8887   26.9270 C   0  0  0  0  0  0  0  0  0  0  0  0
    7.8648  -16.0295   26.6076 O   0  0  0  0  0  0  0  0  0  0  0  0
    9.0034  -14.7151   28.0587 O   0  0  0  0  0  0  0  0  0  0  0  0
  2  1  1  6
  2  3  1  0
  3  4  1  0
  5  6  2  0
  5  2  1  0
  7  5  1  0
  8  7  1  0
  9  8  1  0
  9 15  1  0
 10  9  2  0
 12 14  1  0
 12 11  1  6
 13 12  1  0
 14 15  1  6
 14 16  1  0
 16 17  2  0
 16 18  1  0
M  END
$$$$
