CGT.pdb
     RDKit          3D

 18 17  0  0  1  0  0  0  0  0999 V2000
    8.1958  -14.5267   18.3701 N   0  0  0  0  0  0  0  0  0  0  0  0
    8.3161  -14.0672   19.7367 C   0  0  1  0  0  0  0  0  0  0  0  0
    7.1450  -13.2266   20.1461 C   0  0  0  0  0  0  0  0  0  0  0  0
    6.7301  -12.0147   18.8805 S   0  0  0  0  0  0  0  0  0  0  0  0
    8.5483  -15.1954   20.6776 C   0  0  0  0  0  0  0  0  0  0  0  0
    8.6757  -16.3650   20.2345 O   0  0  0  0  0  0  0  0  0  0  0  0
    8.6351  -15.0105   22.0874 N   0  0  0  0  0  0  0  0  0  0  0  0
    9.7983  -15.3585   22.8504 C   0  0  0  0  0  0  0  0  0  0  0  0
    9.6328  -15.1258   24.2992 C   0  0  0  0  0  0  0  0  0  0  0  0
   10.5084  -15.4461   25.1363 O   0  0  0  0  0  0  0  0  0  0  0  0
    7.5380  -11.9563   25.8503 C   0  0  0  0  0  0  0  0  0  0  0  0
    7.1012  -13.3076   26.3747 C   0  0  1  0  0  0  0  0  0  0  0  0
    5.9577  -13.7426   25.7197 O   0  0  0  0  0  0  0  0  0  0  0  0
    8.2457  -14.3112   26.1930 C   0  0  2  0  0  0  0  0  0  0  0  0
    8.4433  -14.5181   24.7739 N   0  0  0  0  0  0  0  0  0  0  0  0
    7.9314  -15.5677   26.9011 C   0  0  0  0  0  0  0  0  0  0  0  0
    7.6550  -16.6123   26.2925 O   0  0  0  0  0  0  0  0  0  0  0  0
    7.9483  -15.5701   28.2820 O   0  0  0  0  0  0  0  0  0  0  0  0
  2  1  1  6
  2  3  1  0
  3  4  1  0
  5  6  2  0
  5  2  1  0
  7  5  1  0
  8  7  1  0
  9  8  1  0
  9 15  1  0
 10  9  2  0
 12 14  1  0
 12 11  1  6
 13 12  1  0
 14 15  1  6
 14 16  1  0
 16 17  2  0
 16 18  1  0
M  END
$$$$
