CGT.pdb
     RDKit          3D

 18 17  0  0  1  0  0  0  0  0999 V2000
    9.5595  -15.2890   18.3598 N   0  0  0  0  0  0  0  0  0  0  0  0
    9.4089  -14.5327   19.5840 C   0  0  1  0  0  0  0  0  0  0  0  0
    9.6886  -13.0753   19.3754 C   0  0  0  0  0  0  0  0  0  0  0  0
   11.4399  -12.7061   19.5733 S   0  0  0  0  0  0  0  0  0  0  0  0
    8.0798  -14.7609   20.2111 C   0  0  0  0  0  0  0  0  0  0  0  0
    7.0366  -14.6880   19.5133 O   0  0  0  0  0  0  0  0  0  0  0  0
    7.9285  -15.0649   21.5946 N   0  0  0  0  0  0  0  0  0  0  0  0
    6.6547  -15.3119   22.2051 C   0  0  0  0  0  0  0  0  0  0  0  0
    6.7568  -15.6826   23.6308 C   0  0  0  0  0  0  0  0  0  0  0  0
    5.7497  -15.8272   24.3621 O   0  0  0  0  0  0  0  0  0  0  0  0
    6.3054  -18.0556   24.4647 C   0  0  0  0  0  0  0  0  0  0  0  0
    7.7077  -18.1309   25.0302 C   0  0  1  0  0  0  0  0  0  0  0  0
    8.5714  -18.7294   24.1237 O   0  0  0  0  0  0  0  0  0  0  0  0
    8.1845  -16.7170   25.3818 C   0  0  2  0  0  0  0  0  0  0  0  0
    8.0364  -15.8854   24.2061 N   0  0  0  0  0  0  0  0  0  0  0  0
    9.5797  -16.7603   25.8619 C   0  0  0  0  0  0  0  0  0  0  0  0
   10.5289  -16.3924   25.1538 O   0  0  0  0  0  0  0  0  0  0  0  0
    9.8251  -17.2259   27.1387 O   0  0  0  0  0  0  0  0  0  0  0  0
  2  1  1  6
  2  3  1  0
  3  4  1  0
  5  6  2  0
  5  2  1  0
  7  5  1  0
  8  7  1  0
  9  8  1  0
  9 15  1  0
 10  9  2  0
 12 14  1  0
 12 11  1  6
 13 12  1  0
 14 15  1  6
 14 16  1  0
 16 17  2  0
 16 18  1  0
M  END
$$$$
