YFN.pdb
     RDKit          3D

 32 33  0  0  1  0  0  0  0  0999 V2000
    6.6983  -14.5293   14.5931 O   0  0  0  0  0  0  0  0  0  0  0  0
    7.5798  -14.5347   15.6511 C   0  0  0  0  0  0  0  0  0  0  0  0
    8.4743  -15.5554   15.8933 C   0  0  0  0  0  0  0  0  0  0  0  0
    9.3309  -15.5019   16.9695 C   0  0  0  0  0  0  0  0  0  0  0  0
    9.3166  -14.4283   17.8316 C   0  0  0  0  0  0  0  0  0  0  0  0
   10.2604  -14.3781   19.0102 C   0  0  0  0  0  0  0  0  0  0  0  0
    9.8491  -15.4946   19.9434 C   0  0  2  0  0  0  0  0  0  0  0  0
    8.5520  -16.0043   19.5444 N   0  0  0  0  0  0  0  0  0  0  0  0
    9.7726  -15.0617   21.3466 C   0  0  0  0  0  0  0  0  0  0  0  0
   10.7985  -14.6572   21.9559 O   0  0  0  0  0  0  0  0  0  0  0  0
    8.4282  -13.4082   17.5963 C   0  0  0  0  0  0  0  0  0  0  0  0
    7.5729  -13.4628   16.5207 C   0  0  0  0  0  0  0  0  0  0  0  0
    8.5665  -15.0661   22.1039 N   0  0  0  0  0  0  0  0  0  0  0  0
    8.5259  -14.6892   23.5146 C   0  0  1  0  0  0  0  0  0  0  0  0
    7.3084  -13.8377   23.8006 C   0  0  0  0  0  0  0  0  0  0  0  0
    7.2374  -13.3506   25.1937 C   0  0  0  0  0  0  0  0  0  0  0  0
    6.5127  -14.0753   26.1365 C   0  0  0  0  0  0  0  0  0  0  0  0
    6.4191  -13.6524   27.4455 C   0  0  0  0  0  0  0  0  0  0  0  0
    7.0371  -12.4982   27.8736 C   0  0  0  0  0  0  0  0  0  0  0  0
    7.7571  -11.7719   26.9509 C   0  0  0  0  0  0  0  0  0  0  0  0
    7.8476  -12.2035   25.6332 C   0  0  0  0  0  0  0  0  0  0  0  0
    8.6803  -15.8472   24.4169 C   0  0  0  0  0  0  0  0  0  0  0  0
    7.7271  -16.6993   24.3930 O   0  0  0  0  0  0  0  0  0  0  0  0
   11.7032  -20.4169   25.5853 N   0  0  0  0  0  0  0  0  0  0  0  0
   11.6912  -19.1609   26.2445 C   0  0  0  0  0  0  0  0  0  0  0  0
   11.9514  -19.1581   27.4603 O   0  0  0  0  0  0  0  0  0  0  0  0
   11.3861  -17.8931   25.5425 C   0  0  0  0  0  0  0  0  0  0  0  0
   10.0268  -17.3539   25.9393 C   0  0  2  0  0  0  0  0  0  0  0  0
    9.7548  -16.0954   25.2764 N   0  0  0  0  0  0  0  0  0  0  0  0
   10.0575  -17.2460   27.4164 C   0  0  0  0  0  0  0  0  0  0  0  0
    9.4494  -18.0833   28.0988 O   0  0  0  0  0  0  0  0  0  0  0  0
   10.7529  -16.2284   28.0235 O   0  0  0  0  0  0  0  0  0  0  0  0
  2  3  2  0
  2  1  1  0
  4  3  1  0
  5  4  2  0
  6  5  1  0
  7  8  1  6
  7  6  1  0
  9  7  1  0
 10  9  2  0
 11  5  1  0
 11 12  2  0
 12  2  1  0
 13  9  1  0
 14 15  1  1
 14 13  1  0
 16 17  2  0
 16 15  1  0
 18 17  1  0
 19 18  2  0
 20 19  1  0
 20 21  2  0
 21 16  1  0
 22 14  1  0
 23 22  2  0
 25 24  1  0
 26 25  2  0
 27 25  1  0
 28 27  1  6
 28 29  1  0
 29 22  1  0
 30 28  1  0
 30 32  1  0
 31 30  2  0
M  END
$$$$
