YFN.pdb
     RDKit          3D

 32 33  0  0  1  0  0  0  0  0999 V2000
    7.9910  -14.6774   15.5736 O   0  0  0  0  0  0  0  0  0  0  0  0
    8.2666  -14.4425   16.9022 C   0  0  0  0  0  0  0  0  0  0  0  0
    9.2148  -15.1405   17.6193 C   0  0  0  0  0  0  0  0  0  0  0  0
    9.4440  -14.8580   18.9470 C   0  0  0  0  0  0  0  0  0  0  0  0
    8.7326  -13.8718   19.5928 C   0  0  0  0  0  0  0  0  0  0  0  0
    8.9908  -13.5686   21.0502 C   0  0  0  0  0  0  0  0  0  0  0  0
    8.7611  -14.8565   21.8086 C   0  0  2  0  0  0  0  0  0  0  0  0
    7.3971  -15.3017   21.6023 N   0  0  0  0  0  0  0  0  0  0  0  0
    8.9953  -14.7133   23.2532 C   0  0  0  0  0  0  0  0  0  0  0  0
    9.6953  -13.7681   23.7049 O   0  0  0  0  0  0  0  0  0  0  0  0
    7.7867  -13.1727   18.8845 C   0  0  0  0  0  0  0  0  0  0  0  0
    7.5586  -13.4558   17.5582 C   0  0  0  0  0  0  0  0  0  0  0  0
    8.4636  -15.6071   24.2262 N   0  0  0  0  0  0  0  0  0  0  0  0
    8.8086  -15.5186   25.6429 C   0  0  1  0  0  0  0  0  0  0  0  0
    7.5763  -15.2282   26.4711 C   0  0  0  0  0  0  0  0  0  0  0  0
    7.1817  -13.8044   26.4711 C   0  0  0  0  0  0  0  0  0  0  0  0
    5.9668  -13.4304   25.9022 C   0  0  0  0  0  0  0  0  0  0  0  0
    5.5643  -12.1119   25.8789 C   0  0  0  0  0  0  0  0  0  0  0  0
    6.3454  -11.1125   26.4160 C   0  0  0  0  0  0  0  0  0  0  0  0
    7.5496  -11.4690   26.9818 C   0  0  0  0  0  0  0  0  0  0  0  0
    7.9496  -12.7996   27.0021 C   0  0  0  0  0  0  0  0  0  0  0  0
    9.5928  -16.6786   26.1103 C   0  0  0  0  0  0  0  0  0  0  0  0
    9.1268  -17.2859   27.1346 O   0  0  0  0  0  0  0  0  0  0  0  0
   12.0903  -19.3116   22.9872 N   0  0  0  0  0  0  0  0  0  0  0  0
   10.8081  -19.7519   23.4047 C   0  0  0  0  0  0  0  0  0  0  0  0
   10.1650  -20.4565   22.6074 O   0  0  0  0  0  0  0  0  0  0  0  0
   10.2348  -19.4039   24.7251 C   0  0  0  0  0  0  0  0  0  0  0  0
   11.1909  -18.5543   25.5374 C   0  0  2  0  0  0  0  0  0  0  0  0
   10.7741  -17.1675   25.5443 N   0  0  0  0  0  0  0  0  0  0  0  0
   12.5249  -18.7644   24.9285 C   0  0  0  0  0  0  0  0  0  0  0  0
   13.0687  -19.8740   25.0263 O   0  0  0  0  0  0  0  0  0  0  0  0
   13.1528  -17.7399   24.2623 O   0  0  0  0  0  0  0  0  0  0  0  0
  2  3  2  0
  2  1  1  0
  4  3  1  0
  5  4  2  0
  6  5  1  0
  7  8  1  1
  7  6  1  0
  9  7  1  0
 10  9  2  0
 11  5  1  0
 11 12  2  0
 12  2  1  0
 13  9  1  0
 14 15  1  1
 14 13  1  0
 16 17  2  0
 16 15  1  0
 18 17  1  0
 19 18  2  0
 20 19  1  0
 20 21  2  0
 21 16  1  0
 22 14  1  0
 23 22  2  0
 25 24  1  0
 26 25  2  0
 27 25  1  0
 28 27  1  6
 28 29  1  0
 29 22  1  0
 30 28  1  0
 30 32  1  0
 31 30  2  0
M  END
$$$$
