YFN.pdb
     RDKit          3D

 32 33  0  0  1  0  0  0  0  0999 V2000
    7.6384  -14.3987   14.6373 O   0  0  0  0  0  0  0  0  0  0  0  0
    7.8106  -14.9043   15.9066 C   0  0  0  0  0  0  0  0  0  0  0  0
    7.5297  -16.2089   16.2525 C   0  0  0  0  0  0  0  0  0  0  0  0
    7.7234  -16.6544   17.5405 C   0  0  0  0  0  0  0  0  0  0  0  0
    8.2024  -15.8092   18.5162 C   0  0  0  0  0  0  0  0  0  0  0  0
    8.4120  -16.3068   19.9272 C   0  0  0  0  0  0  0  0  0  0  0  0
    9.5453  -15.4931   20.5104 C   0  0  2  0  0  0  0  0  0  0  0  0
   10.8021  -16.1751   20.2718 N   0  0  0  0  0  0  0  0  0  0  0  0
    9.3982  -15.2710   21.9565 C   0  0  0  0  0  0  0  0  0  0  0  0
   10.2546  -15.7108   22.7693 O   0  0  0  0  0  0  0  0  0  0  0  0
    8.4843  -14.5085   18.1786 C   0  0  0  0  0  0  0  0  0  0  0  0
    8.2903  -14.0646   16.8915 C   0  0  0  0  0  0  0  0  0  0  0  0
    8.3067  -14.5613   22.5338 N   0  0  0  0  0  0  0  0  0  0  0  0
    8.2474  -14.2383   23.9572 C   0  0  1  0  0  0  0  0  0  0  0  0
    7.3288  -13.0599   24.1952 C   0  0  0  0  0  0  0  0  0  0  0  0
    7.0833  -12.7764   25.6242 C   0  0  0  0  0  0  0  0  0  0  0  0
    8.0892  -12.1908   26.3889 C   0  0  0  0  0  0  0  0  0  0  0  0
    7.9008  -11.9138   27.7263 C   0  0  0  0  0  0  0  0  0  0  0  0
    6.7127  -12.2042   28.3599 C   0  0  0  0  0  0  0  0  0  0  0  0
    5.7095  -12.7837   27.6149 C   0  0  0  0  0  0  0  0  0  0  0  0
    5.9056  -13.0604   26.2674 C   0  0  0  0  0  0  0  0  0  0  0  0
    7.9503  -15.4165   24.7953 C   0  0  0  0  0  0  0  0  0  0  0  0
    8.0661  -15.2425   26.0569 O   0  0  0  0  0  0  0  0  0  0  0  0
    4.5605  -18.4504   23.2522 N   0  0  0  0  0  0  0  0  0  0  0  0
    5.9748  -18.5499   23.2077 C   0  0  0  0  0  0  0  0  0  0  0  0
    6.5297  -18.2432   22.1383 O   0  0  0  0  0  0  0  0  0  0  0  0
    6.7812  -18.9959   24.3670 C   0  0  0  0  0  0  0  0  0  0  0  0
    7.2649  -17.8196   25.1904 C   0  0  2  0  0  0  0  0  0  0  0  0
    7.5575  -16.6806   24.3453 N   0  0  0  0  0  0  0  0  0  0  0  0
    8.4438  -18.3155   25.9380 C   0  0  0  0  0  0  0  0  0  0  0  0
    9.5610  -17.8359   25.6968 O   0  0  0  0  0  0  0  0  0  0  0  0
    8.3000  -19.2969   26.8887 O   0  0  0  0  0  0  0  0  0  0  0  0
  2  3  2  0
  2  1  1  0
  4  3  1  0
  5  4  2  0
  6  5  1  0
  7  8  1  1
  7  6  1  0
  9  7  1  0
 10  9  2  0
 11  5  1  0
 11 12  2  0
 12  2  1  0
 13  9  1  0
 14 15  1  6
 14 13  1  0
 16 17  2  0
 16 15  1  0
 18 17  1  0
 19 18  2  0
 20 19  1  0
 20 21  2  0
 21 16  1  0
 22 14  1  0
 23 22  2  0
 25 24  1  0
 26 25  2  0
 27 25  1  0
 28 27  1  6
 28 29  1  0
 29 22  1  0
 30 28  1  0
 30 32  1  0
 31 30  2  0
M  END
$$$$
