YFN.pdb
     RDKit          3D

 32 33  0  0  1  0  0  0  0  0999 V2000
    6.7532  -14.2873   14.9309 O   0  0  0  0  0  0  0  0  0  0  0  0
    7.4339  -14.3428   16.1267 C   0  0  0  0  0  0  0  0  0  0  0  0
    8.4857  -15.2012   16.3664 C   0  0  0  0  0  0  0  0  0  0  0  0
    9.1262  -15.2087   17.5849 C   0  0  0  0  0  0  0  0  0  0  0  0
    8.7334  -14.3597   18.5952 C   0  0  0  0  0  0  0  0  0  0  0  0
    9.4422  -14.3748   19.9292 C   0  0  0  0  0  0  0  0  0  0  0  0
    9.2598  -15.7625   20.5018 C   0  0  2  0  0  0  0  0  0  0  0  0
    7.8529  -16.1112   20.4840 N   0  0  0  0  0  0  0  0  0  0  0  0
    9.7549  -15.8761   21.8817 C   0  0  0  0  0  0  0  0  0  0  0  0
   10.9827  -15.7621   22.1404 O   0  0  0  0  0  0  0  0  0  0  0  0
    7.6865  -13.5021   18.3632 C   0  0  0  0  0  0  0  0  0  0  0  0
    7.0474  -13.4955   17.1455 C   0  0  0  0  0  0  0  0  0  0  0  0
    8.9081  -16.1171   23.0012 N   0  0  0  0  0  0  0  0  0  0  0  0
    8.9337  -15.2794   24.1976 C   0  0  1  0  0  0  0  0  0  0  0  0
    7.5262  -14.9777   24.6633 C   0  0  0  0  0  0  0  0  0  0  0  0
    7.4662  -14.0567   25.8170 C   0  0  0  0  0  0  0  0  0  0  0  0
    6.8049  -12.8381   25.6869 C   0  0  0  0  0  0  0  0  0  0  0  0
    6.7299  -11.9496   26.7385 C   0  0  0  0  0  0  0  0  0  0  0  0
    7.3046  -12.2301   27.9586 C   0  0  0  0  0  0  0  0  0  0  0  0
    7.9619  -13.4323   28.1006 C   0  0  0  0  0  0  0  0  0  0  0  0
    8.0340  -14.3234   27.0368 C   0  0  0  0  0  0  0  0  0  0  0  0
    9.8172  -15.8186   25.2500 C   0  0  0  0  0  0  0  0  0  0  0  0
   11.0301  -15.4147   25.2160 O   0  0  0  0  0  0  0  0  0  0  0  0
   11.7201  -19.4176   25.0871 N   0  0  0  0  0  0  0  0  0  0  0  0
   12.4205  -18.3383   25.6842 C   0  0  0  0  0  0  0  0  0  0  0  0
   13.6225  -18.2138   25.3921 O   0  0  0  0  0  0  0  0  0  0  0  0
   11.7757  -17.3863   26.6176 C   0  0  0  0  0  0  0  0  0  0  0  0
   10.3153  -17.7269   26.8346 C   0  0  2  0  0  0  0  0  0  0  0  0
    9.4557  -16.7107   26.2641 N   0  0  0  0  0  0  0  0  0  0  0  0
   10.1557  -17.8776   28.2996 C   0  0  0  0  0  0  0  0  0  0  0  0
   10.8377  -18.7200   28.9009 O   0  0  0  0  0  0  0  0  0  0  0  0
    9.2609  -17.0916   28.9846 O   0  0  0  0  0  0  0  0  0  0  0  0
  2  3  2  0
  2  1  1  0
  4  3  1  0
  5  4  2  0
  6  5  1  0
  7  8  1  1
  7  6  1  0
  9  7  1  0
 10  9  2  0
 11  5  1  0
 11 12  2  0
 12  2  1  0
 13  9  1  0
 14 15  1  1
 14 13  1  0
 16 17  2  0
 16 15  1  0
 18 17  1  0
 19 18  2  0
 20 19  1  0
 20 21  2  0
 21 16  1  0
 22 14  1  0
 23 22  2  0
 25 24  1  0
 26 25  2  0
 27 25  1  0
 28 27  1  1
 28 29  1  0
 29 22  1  0
 30 28  1  0
 30 32  1  0
 31 30  2  0
M  END
$$$$
