YFN.pdb
     RDKit          3D

 32 33  0  0  1  0  0  0  0  0999 V2000
    7.5967  -13.4643   16.0430 O   0  0  0  0  0  0  0  0  0  0  0  0
    7.7735  -13.4955   17.4084 C   0  0  0  0  0  0  0  0  0  0  0  0
    8.9051  -13.0277   18.0417 C   0  0  0  0  0  0  0  0  0  0  0  0
    9.0217  -13.0869   19.4121 C   0  0  0  0  0  0  0  0  0  0  0  0
    8.0120  -13.6146   20.1853 C   0  0  0  0  0  0  0  0  0  0  0  0
    8.1486  -13.6756   21.6886 C   0  0  0  0  0  0  0  0  0  0  0  0
    8.9918  -14.8919   21.9987 C   0  0  2  0  0  0  0  0  0  0  0  0
    8.2654  -16.0904   21.6277 N   0  0  0  0  0  0  0  0  0  0  0  0
    9.3541  -14.9832   23.4209 C   0  0  0  0  0  0  0  0  0  0  0  0
   10.3920  -14.4214   23.8617 O   0  0  0  0  0  0  0  0  0  0  0  0
    6.8821  -14.0823   19.5609 C   0  0  0  0  0  0  0  0  0  0  0  0
    6.7667  -14.0226   18.1918 C   0  0  0  0  0  0  0  0  0  0  0  0
    8.5810  -15.6940   24.3829 N   0  0  0  0  0  0  0  0  0  0  0  0
    8.9679  -15.7815   25.7888 C   0  0  1  0  0  0  0  0  0  0  0  0
    7.7906  -15.4603   26.6832 C   0  0  0  0  0  0  0  0  0  0  0  0
    7.4372  -14.0260   26.7088 C   0  0  0  0  0  0  0  0  0  0  0  0
    6.1589  -13.6287   26.3247 C   0  0  0  0  0  0  0  0  0  0  0  0
    5.7914  -12.2998   26.3311 C   0  0  0  0  0  0  0  0  0  0  0  0
    6.6713  -11.3127   26.7168 C   0  0  0  0  0  0  0  0  0  0  0  0
    7.9390  -11.6923   27.0990 C   0  0  0  0  0  0  0  0  0  0  0  0
    8.3033  -13.0332   27.0903 C   0  0  0  0  0  0  0  0  0  0  0  0
    9.6461  -17.0518   26.1135 C   0  0  0  0  0  0  0  0  0  0  0  0
   10.0021  -17.1938   27.3335 O   0  0  0  0  0  0  0  0  0  0  0  0
   10.1399  -22.0319   26.6128 N   0  0  0  0  0  0  0  0  0  0  0  0
    9.6292  -21.5238   25.3909 C   0  0  0  0  0  0  0  0  0  0  0  0
    8.5787  -22.0323   24.9623 O   0  0  0  0  0  0  0  0  0  0  0  0
   10.2952  -20.4370   24.6370 C   0  0  0  0  0  0  0  0  0  0  0  0
   10.6828  -19.2889   25.5468 C   0  0  2  0  0  0  0  0  0  0  0  0
    9.9264  -18.0961   25.2271 N   0  0  0  0  0  0  0  0  0  0  0  0
   12.1447  -19.1219   25.3754 C   0  0  0  0  0  0  0  0  0  0  0  0
   12.9085  -20.0110   25.7787 O   0  0  0  0  0  0  0  0  0  0  0  0
   12.6485  -17.9931   24.7757 O   0  0  0  0  0  0  0  0  0  0  0  0
  2  3  2  0
  2  1  1  0
  4  3  1  0
  5  4  2  0
  6  5  1  0
  7  8  1  1
  7  6  1  0
  9  7  1  0
 10  9  2  0
 11  5  1  0
 11 12  2  0
 12  2  1  0
 13  9  1  0
 14 15  1  1
 14 13  1  0
 16 17  2  0
 16 15  1  0
 18 17  1  0
 19 18  2  0
 20 19  1  0
 20 21  2  0
 21 16  1  0
 22 14  1  0
 23 22  2  0
 25 24  1  0
 26 25  2  0
 27 25  1  0
 28 27  1  6
 28 29  1  0
 29 22  1  0
 30 28  1  0
 30 32  1  0
 31 30  2  0
M  END
$$$$
