YFN.pdb
     RDKit          3D

 32 33  0  0  1  0  0  0  0  0999 V2000
   11.7527  -20.1554   16.0937 O   0  0  0  0  0  0  0  0  0  0  0  0
   11.7180  -19.4457   17.2733 C   0  0  0  0  0  0  0  0  0  0  0  0
   12.3557  -18.2371   17.4553 C   0  0  0  0  0  0  0  0  0  0  0  0
   12.2829  -17.5758   18.6605 C   0  0  0  0  0  0  0  0  0  0  0  0
   11.5719  -18.1039   19.7147 C   0  0  0  0  0  0  0  0  0  0  0  0
   11.4975  -17.3711   21.0337 C   0  0  0  0  0  0  0  0  0  0  0  0
   10.1553  -16.6756   21.0686 C   0  0  2  0  0  0  0  0  0  0  0  0
   10.0383  -15.7937   19.9240 N   0  0  0  0  0  0  0  0  0  0  0  0
    9.9577  -15.8853   22.2929 C   0  0  0  0  0  0  0  0  0  0  0  0
   10.9311  -15.3310   22.8695 O   0  0  0  0  0  0  0  0  0  0  0  0
   10.9343  -19.3073   19.5403 C   0  0  0  0  0  0  0  0  0  0  0  0
   11.0077  -19.9670   18.3359 C   0  0  0  0  0  0  0  0  0  0  0  0
    8.6861  -15.6911   22.9041 N   0  0  0  0  0  0  0  0  0  0  0  0
    8.5175  -14.9214   24.1342 C   0  0  1  0  0  0  0  0  0  0  0  0
    7.4276  -13.8857   23.9658 C   0  0  0  0  0  0  0  0  0  0  0  0
    7.1425  -13.1172   25.1951 C   0  0  0  0  0  0  0  0  0  0  0  0
    6.0809  -13.4998   26.0112 C   0  0  0  0  0  0  0  0  0  0  0  0
    5.7802  -12.8066   27.1646 C   0  0  0  0  0  0  0  0  0  0  0  0
    6.5156  -11.7097   27.5562 C   0  0  0  0  0  0  0  0  0  0  0  0
    7.5684  -11.3208   26.7577 C   0  0  0  0  0  0  0  0  0  0  0  0
    7.8664  -12.0235   25.5965 C   0  0  0  0  0  0  0  0  0  0  0  0
    8.3584  -15.7799   25.3244 C   0  0  0  0  0  0  0  0  0  0  0  0
    8.5060  -15.1960   26.4525 O   0  0  0  0  0  0  0  0  0  0  0  0
    7.5994  -19.7416   28.6691 N   0  0  0  0  0  0  0  0  0  0  0  0
    7.0257  -20.0880   27.4189 C   0  0  0  0  0  0  0  0  0  0  0  0
    6.4166  -21.1701   27.3569 O   0  0  0  0  0  0  0  0  0  0  0  0
    7.1310  -19.2200   26.2236 C   0  0  0  0  0  0  0  0  0  0  0  0
    7.9412  -17.9731   26.5145 C   0  0  2  0  0  0  0  0  0  0  0  0
    8.0629  -17.1464   25.3317 N   0  0  0  0  0  0  0  0  0  0  0  0
    9.2430  -18.4563   27.0308 C   0  0  0  0  0  0  0  0  0  0  0  0
   10.1477  -18.7346   26.2305 O   0  0  0  0  0  0  0  0  0  0  0  0
    9.4451  -18.5944   28.3827 O   0  0  0  0  0  0  0  0  0  0  0  0
  2  3  2  0
  2  1  1  0
  4  3  1  0
  5  4  2  0
  6  5  1  0
  7  8  1  6
  7  6  1  0
  9  7  1  0
 10  9  2  0
 11  5  1  0
 11 12  2  0
 12  2  1  0
 13  9  1  0
 14 15  1  6
 14 13  1  0
 16 17  2  0
 16 15  1  0
 18 17  1  0
 19 18  2  0
 20 19  1  0
 20 21  2  0
 21 16  1  0
 22 14  1  0
 23 22  2  0
 25 24  1  0
 26 25  2  0
 27 25  1  0
 28 27  1  6
 28 29  1  0
 29 22  1  0
 30 28  1  0
 30 32  1  0
 31 30  2  0
M  END
$$$$
