YFN.pdb
     RDKit          3D

 32 33  0  0  1  0  0  0  0  0999 V2000
    7.2712  -12.5096   16.8608 O   0  0  0  0  0  0  0  0  0  0  0  0
    7.5842  -13.3340   17.9185 C   0  0  0  0  0  0  0  0  0  0  0  0
    6.8893  -14.4861   18.2191 C   0  0  0  0  0  0  0  0  0  0  0  0
    7.2521  -15.2689   19.2918 C   0  0  0  0  0  0  0  0  0  0  0  0
    8.3177  -14.9219   20.0918 C   0  0  0  0  0  0  0  0  0  0  0  0
    8.7087  -15.7870   21.2669 C   0  0  0  0  0  0  0  0  0  0  0  0
    9.7902  -15.0402   22.0147 C   0  0  2  0  0  0  0  0  0  0  0  0
   11.0821  -15.3554   21.4376 N   0  0  0  0  0  0  0  0  0  0  0  0
    9.8217  -15.3717   23.4469 C   0  0  0  0  0  0  0  0  0  0  0  0
   10.9029  -15.6778   24.0168 O   0  0  0  0  0  0  0  0  0  0  0  0
    9.0141  -13.7756   19.7981 C   0  0  0  0  0  0  0  0  0  0  0  0
    8.6507  -12.9944   18.7262 C   0  0  0  0  0  0  0  0  0  0  0  0
    8.6647  -15.3724   24.2773 N   0  0  0  0  0  0  0  0  0  0  0  0
    8.7263  -15.6676   25.7066 C   0  0  1  0  0  0  0  0  0  0  0  0
    7.4393  -15.2576   26.3882 C   0  0  0  0  0  0  0  0  0  0  0  0
    7.1889  -13.8018   26.3597 C   0  0  0  0  0  0  0  0  0  0  0  0
    7.8726  -12.9718   27.2446 C   0  0  0  0  0  0  0  0  0  0  0  0
    7.6644  -11.6089   27.2521 C   0  0  0  0  0  0  0  0  0  0  0  0
    6.7735  -11.0133   26.3865 C   0  0  0  0  0  0  0  0  0  0  0  0
    6.0907  -11.8231   25.5060 C   0  0  0  0  0  0  0  0  0  0  0  0
    6.3050  -13.1960   25.5035 C   0  0  0  0  0  0  0  0  0  0  0  0
    9.1415  -17.0570   25.9825 C   0  0  0  0  0  0  0  0  0  0  0  0
    9.2085  -17.3803   27.2179 O   0  0  0  0  0  0  0  0  0  0  0  0
   10.7034  -22.0492   25.6881 N   0  0  0  0  0  0  0  0  0  0  0  0
   10.4611  -21.5896   24.3681 C   0  0  0  0  0  0  0  0  0  0  0  0
   10.6505  -22.3994   23.4440 O   0  0  0  0  0  0  0  0  0  0  0  0
   10.0026  -20.2127   24.0731 C   0  0  0  0  0  0  0  0  0  0  0  0
    9.9208  -19.3746   25.3328 C   0  0  2  0  0  0  0  0  0  0  0  0
    9.4588  -18.0348   25.0349 N   0  0  0  0  0  0  0  0  0  0  0  0
   11.2789  -19.4107   25.9233 C   0  0  0  0  0  0  0  0  0  0  0  0
   12.1587  -18.6660   25.4677 O   0  0  0  0  0  0  0  0  0  0  0  0
   11.5601  -20.2610   26.9652 O   0  0  0  0  0  0  0  0  0  0  0  0
  2  3  2  0
  2  1  1  0
  4  3  1  0
  5  4  2  0
  6  5  1  0
  7  8  1  6
  7  6  1  0
  9  7  1  0
 10  9  2  0
 11  5  1  0
 11 12  2  0
 12  2  1  0
 13  9  1  0
 14 15  1  6
 14 13  1  0
 16 17  2  0
 16 15  1  0
 18 17  1  0
 19 18  2  0
 20 19  1  0
 20 21  2  0
 21 16  1  0
 22 14  1  0
 23 22  2  0
 25 24  1  0
 26 25  2  0
 27 25  1  0
 28 27  1  6
 28 29  1  0
 29 22  1  0
 30 28  1  0
 30 32  1  0
 31 30  2  0
M  END
$$$$
