YFN.pdb
     RDKit          3D

 32 33  0  0  1  0  0  0  0  0999 V2000
    7.7267  -13.9031   16.0060 O   0  0  0  0  0  0  0  0  0  0  0  0
    7.9649  -13.8502   17.3613 C   0  0  0  0  0  0  0  0  0  0  0  0
    7.1077  -13.2573   18.2637 C   0  0  0  0  0  0  0  0  0  0  0  0
    7.4028  -13.2371   19.6081 C   0  0  0  0  0  0  0  0  0  0  0  0
    8.5608  -13.8081   20.0862 C   0  0  0  0  0  0  0  0  0  0  0  0
    8.8765  -13.7812   21.5634 C   0  0  0  0  0  0  0  0  0  0  0  0
    8.9454  -15.2216   22.0187 C   0  0  2  0  0  0  0  0  0  0  0  0
    7.6899  -15.8826   21.7216 N   0  0  0  0  0  0  0  0  0  0  0  0
    9.2144  -15.3489   23.4587 C   0  0  0  0  0  0  0  0  0  0  0  0
   10.2583  -14.8605   23.9678 O   0  0  0  0  0  0  0  0  0  0  0  0
    9.4191  -14.4004   19.1930 C   0  0  0  0  0  0  0  0  0  0  0  0
    9.1232  -14.4199   17.8501 C   0  0  0  0  0  0  0  0  0  0  0  0
    8.3401  -16.0157   24.3637 N   0  0  0  0  0  0  0  0  0  0  0  0
    8.5784  -16.0457   25.8047 C   0  0  1  0  0  0  0  0  0  0  0  0
    7.3222  -15.6657   26.5575 C   0  0  0  0  0  0  0  0  0  0  0  0
    7.1189  -14.2072   26.6771 C   0  0  0  0  0  0  0  0  0  0  0  0
    5.9163  -13.6464   26.2548 C   0  0  0  0  0  0  0  0  0  0  0  0
    5.6892  -12.2895   26.3462 C   0  0  0  0  0  0  0  0  0  0  0  0
    6.6404  -11.4346   26.8579 C   0  0  0  0  0  0  0  0  0  0  0  0
    7.8346  -11.9766   27.2792 C   0  0  0  0  0  0  0  0  0  0  0  0
    8.0573  -13.3449   27.1843 C   0  0  0  0  0  0  0  0  0  0  0  0
    9.1935  -17.3106   26.2527 C   0  0  0  0  0  0  0  0  0  0  0  0
    9.5570  -17.3464   27.4782 O   0  0  0  0  0  0  0  0  0  0  0  0
   14.1271  -19.6465   25.7012 N   0  0  0  0  0  0  0  0  0  0  0  0
   12.8425  -19.9303   25.1708 C   0  0  0  0  0  0  0  0  0  0  0  0
   12.6375  -21.0917   24.7771 O   0  0  0  0  0  0  0  0  0  0  0  0
   11.7734  -18.9099   25.0774 C   0  0  0  0  0  0  0  0  0  0  0  0
   10.4736  -19.4138   25.6709 C   0  0  2  0  0  0  0  0  0  0  0  0
    9.4077  -18.4531   25.4758 N   0  0  0  0  0  0  0  0  0  0  0  0
   10.7667  -19.6853   27.0974 C   0  0  0  0  0  0  0  0  0  0  0  0
   11.1332  -18.7545   27.8294 O   0  0  0  0  0  0  0  0  0  0  0  0
   10.6338  -20.9556   27.6036 O   0  0  0  0  0  0  0  0  0  0  0  0
  2  3  2  0
  2  1  1  0
  4  3  1  0
  5  4  2  0
  6  5  1  0
  7  8  1  1
  7  6  1  0
  9  7  1  0
 10  9  2  0
 11  5  1  0
 11 12  2  0
 12  2  1  0
 13  9  1  0
 14 15  1  1
 14 13  1  0
 16 17  2  0
 16 15  1  0
 18 17  1  0
 19 18  2  0
 20 19  1  0
 20 21  2  0
 21 16  1  0
 22 14  1  0
 23 22  2  0
 25 24  1  0
 26 25  2  0
 27 25  1  0
 28 27  1  1
 28 29  1  0
 29 22  1  0
 30 28  1  0
 30 32  1  0
 31 30  2  0
M  END
$$$$
