YFN.pdb
     RDKit          3D

 32 33  0  0  1  0  0  0  0  0999 V2000
    7.9152  -13.8879   14.9174 O   0  0  0  0  0  0  0  0  0  0  0  0
    8.0228  -13.7826   16.2862 C   0  0  0  0  0  0  0  0  0  0  0  0
    6.9490  -13.5554   17.1204 C   0  0  0  0  0  0  0  0  0  0  0  0
    7.1222  -13.4601   18.4827 C   0  0  0  0  0  0  0  0  0  0  0  0
    8.3713  -13.5891   19.0472 C   0  0  0  0  0  0  0  0  0  0  0  0
    8.5519  -13.4831   20.5434 C   0  0  0  0  0  0  0  0  0  0  0  0
    8.8468  -14.8789   21.0449 C   0  0  2  0  0  0  0  0  0  0  0  0
    7.7567  -15.7628   20.6818 N   0  0  0  0  0  0  0  0  0  0  0  0
    9.0283  -14.9310   22.5032 C   0  0  0  0  0  0  0  0  0  0  0  0
   10.0071  -14.3605   23.0543 O   0  0  0  0  0  0  0  0  0  0  0  0
    9.4453  -13.8155   18.2222 C   0  0  0  0  0  0  0  0  0  0  0  0
    9.2711  -13.9105   16.8614 C   0  0  0  0  0  0  0  0  0  0  0  0
    8.1364  -15.6114   23.3805 N   0  0  0  0  0  0  0  0  0  0  0  0
    8.2796  -15.5653   24.8335 C   0  0  1  0  0  0  0  0  0  0  0  0
    6.9697  -15.1764   25.4830 C   0  0  0  0  0  0  0  0  0  0  0  0
    6.9050  -13.7569   25.8876 C   0  0  0  0  0  0  0  0  0  0  0  0
    5.6737  -13.1066   25.9101 C   0  0  0  0  0  0  0  0  0  0  0  0
    5.5717  -11.7818   26.2780 C   0  0  0  0  0  0  0  0  0  0  0  0
    6.6809  -11.0484   26.6378 C   0  0  0  0  0  0  0  0  0  0  0  0
    7.9049  -11.6798   26.6197 C   0  0  0  0  0  0  0  0  0  0  0  0
    8.0011  -13.0152   26.2478 C   0  0  0  0  0  0  0  0  0  0  0  0
    8.8872  -16.7929   25.3838 C   0  0  0  0  0  0  0  0  0  0  0  0
    8.0930  -17.7832   25.5382 O   0  0  0  0  0  0  0  0  0  0  0  0
   13.0880  -17.0854   23.8970 N   0  0  0  0  0  0  0  0  0  0  0  0
   12.4883  -18.2138   24.5128 C   0  0  0  0  0  0  0  0  0  0  0  0
   12.1504  -19.1508   23.7688 O   0  0  0  0  0  0  0  0  0  0  0  0
   12.2620  -18.3005   25.9738 C   0  0  0  0  0  0  0  0  0  0  0  0
   10.7910  -18.1749   26.3146 C   0  0  2  0  0  0  0  0  0  0  0  0
   10.2272  -16.9704   25.7415 N   0  0  0  0  0  0  0  0  0  0  0  0
   10.7212  -18.2108   27.7939 C   0  0  0  0  0  0  0  0  0  0  0  0
   10.2370  -17.2455   28.4022 O   0  0  0  0  0  0  0  0  0  0  0  0
   11.1883  -19.3030   28.4843 O   0  0  0  0  0  0  0  0  0  0  0  0
  2  3  2  0
  2  1  1  0
  4  3  1  0
  5  4  2  0
  6  5  1  0
  7  8  1  1
  7  6  1  0
  9  7  1  0
 10  9  2  0
 11  5  1  0
 11 12  2  0
 12  2  1  0
 13  9  1  0
 14 15  1  1
 14 13  1  0
 16 17  2  0
 16 15  1  0
 18 17  1  0
 19 18  2  0
 20 19  1  0
 20 21  2  0
 21 16  1  0
 22 14  1  0
 23 22  2  0
 25 24  1  0
 26 25  2  0
 27 25  1  0
 28 27  1  1
 28 29  1  0
 29 22  1  0
 30 28  1  0
 30 32  1  0
 31 30  2  0
M  END
$$$$
