YFN.pdb
     RDKit          3D

 32 33  0  0  1  0  0  0  0  0999 V2000
    4.8607  -25.8389   25.4456 O   0  0  0  0  0  0  0  0  0  0  0  0
    5.4103  -24.5948   25.2302 C   0  0  0  0  0  0  0  0  0  0  0  0
    5.0879  -23.4794   25.9736 C   0  0  0  0  0  0  0  0  0  0  0  0
    5.6730  -22.2619   25.7085 C   0  0  0  0  0  0  0  0  0  0  0  0
    6.5948  -22.1264   24.6947 C   0  0  0  0  0  0  0  0  0  0  0  0
    7.2319  -20.7863   24.4109 C   0  0  0  0  0  0  0  0  0  0  0  0
    6.1141  -19.8512   24.0075 C   0  0  2  0  0  0  0  0  0  0  0  0
    5.6158  -20.2300   22.7000 N   0  0  0  0  0  0  0  0  0  0  0  0
    6.5411  -18.4449   23.9584 C   0  0  0  0  0  0  0  0  0  0  0  0
    7.1262  -17.9812   22.9436 O   0  0  0  0  0  0  0  0  0  0  0  0
    6.9205  -23.2332   23.9503 C   0  0  0  0  0  0  0  0  0  0  0  0
    6.3353  -24.4490   24.2161 C   0  0  0  0  0  0  0  0  0  0  0  0
    6.3319  -17.5243   25.0247 N   0  0  0  0  0  0  0  0  0  0  0  0
    6.8893  -16.1741   25.0147 C   0  0  1  0  0  0  0  0  0  0  0  0
    6.1179  -15.2754   25.9562 C   0  0  0  0  0  0  0  0  0  0  0  0
    6.6358  -13.8930   26.0165 C   0  0  0  0  0  0  0  0  0  0  0  0
    7.4322  -13.5063   27.0915 C   0  0  0  0  0  0  0  0  0  0  0  0
    7.9316  -12.2247   27.1863 C   0  0  0  0  0  0  0  0  0  0  0  0
    7.6641  -11.2761   26.2240 C   0  0  0  0  0  0  0  0  0  0  0  0
    6.8775  -11.6457   25.1554 C   0  0  0  0  0  0  0  0  0  0  0  0
    6.3771  -12.9390   25.0656 C   0  0  0  0  0  0  0  0  0  0  0  0
    8.3502  -16.1610   25.2261 C   0  0  0  0  0  0  0  0  0  0  0  0
    8.7882  -16.9651   26.1188 O   0  0  0  0  0  0  0  0  0  0  0  0
   12.8556  -18.3665   23.7202 N   0  0  0  0  0  0  0  0  0  0  0  0
   12.4241  -17.4155   24.6803 C   0  0  0  0  0  0  0  0  0  0  0  0
   13.3036  -16.8641   25.3645 O   0  0  0  0  0  0  0  0  0  0  0  0
   10.9972  -17.0742   24.8813 C   0  0  0  0  0  0  0  0  0  0  0  0
   10.6891  -15.6730   24.3941 C   0  0  2  0  0  0  0  0  0  0  0  0
    9.2821  -15.3676   24.5501 N   0  0  0  0  0  0  0  0  0  0  0  0
   11.1471  -15.6320   22.9859 C   0  0  0  0  0  0  0  0  0  0  0  0
   10.3221  -15.4210   22.0853 O   0  0  0  0  0  0  0  0  0  0  0  0
   12.4728  -15.8260   22.6815 O   0  0  0  0  0  0  0  0  0  0  0  0
  2  3  2  0
  2  1  1  0
  4  3  1  0
  5  4  2  0
  6  5  1  0
  7  8  1  6
  7  6  1  0
  9  7  1  0
 10  9  2  0
 11  5  1  0
 11 12  2  0
 12  2  1  0
 13  9  1  0
 14 15  1  1
 14 13  1  0
 16 17  2  0
 16 15  1  0
 18 17  1  0
 19 18  2  0
 20 19  1  0
 20 21  2  0
 21 16  1  0
 22 14  1  0
 23 22  2  0
 25 24  1  0
 26 25  2  0
 27 25  1  0
 28 27  1  6
 28 29  1  0
 29 22  1  0
 30 28  1  0
 30 32  1  0
 31 30  2  0
M  END
$$$$
