YFN.pdb
     RDKit          3D

 32 33  0  0  1  0  0  0  0  0999 V2000
   10.7909  -19.9869   15.1924 O   0  0  0  0  0  0  0  0  0  0  0  0
   10.8739  -19.3522   16.4117 C   0  0  0  0  0  0  0  0  0  0  0  0
   10.6299  -19.9783   17.6155 C   0  0  0  0  0  0  0  0  0  0  0  0
   10.7296  -19.2880   18.8023 C   0  0  0  0  0  0  0  0  0  0  0  0
   11.0753  -17.9553   18.8180 C   0  0  0  0  0  0  0  0  0  0  0  0
   11.1823  -17.2057   20.1253 C   0  0  0  0  0  0  0  0  0  0  0  0
    9.7928  -16.7091   20.4558 C   0  0  2  0  0  0  0  0  0  0  0  0
    9.2921  -15.9079   19.3563 N   0  0  0  0  0  0  0  0  0  0  0  0
    9.7569  -15.8988   21.6823 C   0  0  0  0  0  0  0  0  0  0  0  0
   10.8111  -15.6544   22.3276 O   0  0  0  0  0  0  0  0  0  0  0  0
   11.3197  -17.3256   17.6226 C   0  0  0  0  0  0  0  0  0  0  0  0
   11.2198  -18.0162   16.4376 C   0  0  0  0  0  0  0  0  0  0  0  0
    8.5611  -15.3433   22.2204 N   0  0  0  0  0  0  0  0  0  0  0  0
    8.5099  -14.7270   23.5438 C   0  0  1  0  0  0  0  0  0  0  0  0
    7.4237  -13.6751   23.5968 C   0  0  0  0  0  0  0  0  0  0  0  0
    7.2374  -13.0796   24.9360 C   0  0  0  0  0  0  0  0  0  0  0  0
    6.2598  -13.5937   25.7841 C   0  0  0  0  0  0  0  0  0  0  0  0
    6.0523  -13.0635   27.0399 C   0  0  0  0  0  0  0  0  0  0  0  0
    6.8016  -12.0059   27.5062 C   0  0  0  0  0  0  0  0  0  0  0  0
    7.7720  -11.4880   26.6771 C   0  0  0  0  0  0  0  0  0  0  0  0
    7.9762  -12.0268   25.4126 C   0  0  0  0  0  0  0  0  0  0  0  0
    8.4424  -15.7223   24.6319 C   0  0  0  0  0  0  0  0  0  0  0  0
    7.4488  -16.5260   24.5868 O   0  0  0  0  0  0  0  0  0  0  0  0
   12.1617  -18.9648   25.9730 N   0  0  0  0  0  0  0  0  0  0  0  0
   11.0916  -18.2507   25.3754 C   0  0  0  0  0  0  0  0  0  0  0  0
   11.3524  -17.5920   24.3538 O   0  0  0  0  0  0  0  0  0  0  0  0
    9.7150  -18.2699   25.9211 C   0  0  0  0  0  0  0  0  0  0  0  0
    9.3796  -16.9698   26.6233 C   0  0  2  0  0  0  0  0  0  0  0  0
    9.3501  -15.8668   25.6855 N   0  0  0  0  0  0  0  0  0  0  0  0
   10.4039  -16.8141   27.6822 C   0  0  0  0  0  0  0  0  0  0  0  0
   10.5338  -17.7031   28.5362 O   0  0  0  0  0  0  0  0  0  0  0  0
   11.2013  -15.6959   27.7172 O   0  0  0  0  0  0  0  0  0  0  0  0
  2  3  2  0
  2  1  1  0
  4  3  1  0
  5  4  2  0
  6  5  1  0
  7  8  1  6
  7  6  1  0
  9  7  1  0
 10  9  2  0
 11  5  1  0
 11 12  2  0
 12  2  1  0
 13  9  1  0
 14 15  1  6
 14 13  1  0
 16 17  2  0
 16 15  1  0
 18 17  1  0
 19 18  2  0
 20 19  1  0
 20 21  2  0
 21 16  1  0
 22 14  1  0
 23 22  2  0
 25 24  1  0
 26 25  2  0
 27 25  1  0
 28 27  1  6
 28 29  1  0
 29 22  1  0
 30 28  1  0
 30 32  1  0
 31 30  2  0
M  END
$$$$
