YFN.pdb
     RDKit          3D

 32 33  0  0  1  0  0  0  0  0999 V2000
    7.8878  -13.5187   15.8504 O   0  0  0  0  0  0  0  0  0  0  0  0
    7.7708  -13.6231   17.2185 C   0  0  0  0  0  0  0  0  0  0  0  0
    7.0795  -14.6351   17.8498 C   0  0  0  0  0  0  0  0  0  0  0  0
    6.9990  -14.6842   19.2232 C   0  0  0  0  0  0  0  0  0  0  0  0
    7.6065  -13.7245   20.0015 C   0  0  0  0  0  0  0  0  0  0  0  0
    7.5130  -13.7863   21.5081 C   0  0  0  0  0  0  0  0  0  0  0  0
    8.6458  -14.6714   21.9772 C   0  0  2  0  0  0  0  0  0  0  0  0
    8.4556  -16.0130   21.4620 N   0  0  0  0  0  0  0  0  0  0  0  0
    8.7420  -14.7401   23.4429 C   0  0  0  0  0  0  0  0  0  0  0  0
    8.7261  -13.6924   24.1424 O   0  0  0  0  0  0  0  0  0  0  0  0
    8.2967  -12.7137   19.3793 C   0  0  0  0  0  0  0  0  0  0  0  0
    8.3764  -12.6658   18.0072 C   0  0  0  0  0  0  0  0  0  0  0  0
    8.8576  -15.9624   24.1647 N   0  0  0  0  0  0  0  0  0  0  0  0
    8.4399  -16.0917   25.5585 C   0  0  1  0  0  0  0  0  0  0  0  0
    7.0087  -15.6311   25.7276 C   0  0  0  0  0  0  0  0  0  0  0  0
    6.8821  -14.2049   26.0919 C   0  0  0  0  0  0  0  0  0  0  0  0
    7.9121  -13.3230   25.7746 C   0  0  0  0  0  0  0  0  0  0  0  0
    7.8338  -11.9856   26.1007 C   0  0  0  0  0  0  0  0  0  0  0  0
    6.7361  -11.4678   26.7521 C   0  0  0  0  0  0  0  0  0  0  0  0
    5.7102  -12.3296   27.0718 C   0  0  0  0  0  0  0  0  0  0  0  0
    5.7952  -13.6764   26.7405 C   0  0  0  0  0  0  0  0  0  0  0  0
    8.7139  -17.4325   26.1117 C   0  0  0  0  0  0  0  0  0  0  0  0
    8.2738  -17.6448   27.2935 O   0  0  0  0  0  0  0  0  0  0  0  0
   10.3804  -20.2973   23.4093 N   0  0  0  0  0  0  0  0  0  0  0  0
   11.5375  -19.5141   23.6539 C   0  0  0  0  0  0  0  0  0  0  0  0
   12.3854  -19.4594   22.7463 O   0  0  0  0  0  0  0  0  0  0  0  0
   11.7536  -18.7830   24.9235 C   0  0  0  0  0  0  0  0  0  0  0  0
   10.6428  -19.0579   25.9167 C   0  0  2  0  0  0  0  0  0  0  0  0
    9.3943  -18.4736   25.4729 N   0  0  0  0  0  0  0  0  0  0  0  0
   11.1207  -18.5131   27.2087 C   0  0  0  0  0  0  0  0  0  0  0  0
   11.0754  -17.2901   27.4055 O   0  0  0  0  0  0  0  0  0  0  0  0
   11.6091  -19.3548   28.1786 O   0  0  0  0  0  0  0  0  0  0  0  0
  2  3  2  0
  2  1  1  0
  4  3  1  0
  5  4  2  0
  6  5  1  0
  7  8  1  1
  7  6  1  0
  9  7  1  0
 10  9  2  0
 11  5  1  0
 11 12  2  0
 12  2  1  0
 13  9  1  0
 14 15  1  6
 14 13  1  0
 16 17  2  0
 16 15  1  0
 18 17  1  0
 19 18  2  0
 20 19  1  0
 20 21  2  0
 21 16  1  0
 22 14  1  0
 23 22  2  0
 25 24  1  0
 26 25  2  0
 27 25  1  0
 28 27  1  6
 28 29  1  0
 29 22  1  0
 30 28  1  0
 30 32  1  0
 31 30  2  0
M  END
$$$$
