YFN.pdb
     RDKit          3D

 32 33  0  0  1  0  0  0  0  0999 V2000
    9.5292  -21.2481   16.2677 O   0  0  0  0  0  0  0  0  0  0  0  0
    9.7518  -20.4470   17.3654 C   0  0  0  0  0  0  0  0  0  0  0  0
   10.9337  -19.7744   17.5917 C   0  0  0  0  0  0  0  0  0  0  0  0
   11.0946  -18.9878   18.7099 C   0  0  0  0  0  0  0  0  0  0  0  0
   10.0799  -18.8524   19.6308 C   0  0  0  0  0  0  0  0  0  0  0  0
   10.2654  -17.9869   20.8551 C   0  0  0  0  0  0  0  0  0  0  0  0
    9.6749  -16.6347   20.5241 C   0  0  2  0  0  0  0  0  0  0  0  0
   10.4541  -16.0118   19.4723 N   0  0  0  0  0  0  0  0  0  0  0  0
    9.6428  -15.7308   21.6835 C   0  0  0  0  0  0  0  0  0  0  0  0
   10.7003  -15.2080   22.1260 O   0  0  0  0  0  0  0  0  0  0  0  0
    8.9000  -19.5195   19.4116 C   0  0  0  0  0  0  0  0  0  0  0  0
    8.7405  -20.3050   18.2941 C   0  0  0  0  0  0  0  0  0  0  0  0
    8.4472  -15.3862   22.3763 N   0  0  0  0  0  0  0  0  0  0  0  0
    8.4493  -14.5520   23.5754 C   0  0  1  0  0  0  0  0  0  0  0  0
    7.1223  -13.8417   23.7290 C   0  0  0  0  0  0  0  0  0  0  0  0
    7.0241  -13.0237   24.9554 C   0  0  0  0  0  0  0  0  0  0  0  0
    7.7449  -11.8356   25.0458 C   0  0  0  0  0  0  0  0  0  0  0  0
    7.6831  -11.0462   26.1745 C   0  0  0  0  0  0  0  0  0  0  0  0
    6.9076  -11.3992   27.2568 C   0  0  0  0  0  0  0  0  0  0  0  0
    6.1896  -12.5722   27.1803 C   0  0  0  0  0  0  0  0  0  0  0  0
    6.2562  -13.3635   26.0399 C   0  0  0  0  0  0  0  0  0  0  0  0
    8.8850  -15.2877   24.7787 C   0  0  0  0  0  0  0  0  0  0  0  0
    8.0207  -15.3767   25.7170 O   0  0  0  0  0  0  0  0  0  0  0  0
   10.7302  -18.8757   27.9548 N   0  0  0  0  0  0  0  0  0  0  0  0
    9.9969  -19.1800   26.7793 C   0  0  0  0  0  0  0  0  0  0  0  0
    9.6064  -20.3527   26.6445 O   0  0  0  0  0  0  0  0  0  0  0  0
    9.6946  -18.1676   25.7417 C   0  0  0  0  0  0  0  0  0  0  0  0
   10.4340  -16.8709   26.0013 C   0  0  2  0  0  0  0  0  0  0  0  0
   10.1312  -15.8883   24.9815 N   0  0  0  0  0  0  0  0  0  0  0  0
   11.8686  -17.2358   26.0588 C   0  0  0  0  0  0  0  0  0  0  0  0
   12.5921  -17.0093   25.0782 O   0  0  0  0  0  0  0  0  0  0  0  0
   12.3914  -17.8193   27.1874 O   0  0  0  0  0  0  0  0  0  0  0  0
  2  3  2  0
  2  1  1  0
  4  3  1  0
  5  4  2  0
  6  5  1  0
  7  8  1  6
  7  6  1  0
  9  7  1  0
 10  9  2  0
 11  5  1  0
 11 12  2  0
 12  2  1  0
 13  9  1  0
 14 15  1  1
 14 13  1  0
 16 17  2  0
 16 15  1  0
 18 17  1  0
 19 18  2  0
 20 19  1  0
 20 21  2  0
 21 16  1  0
 22 14  1  0
 23 22  2  0
 25 24  1  0
 26 25  2  0
 27 25  1  0
 28 27  1  6
 28 29  1  0
 29 22  1  0
 30 28  1  0
 30 32  1  0
 31 30  2  0
M  END
$$$$
