RNM.pdb
     RDKit          3D

 28 27  0  0  1  0  0  0  0  0999 V2000
   22.2239  -26.3513  -13.2713 N   0  0  0  0  0  0  0  0  0  0  0  0
   21.2570  -27.2356  -13.8069 C   0  0  0  0  0  0  0  0  0  0  0  0
   21.1880  -27.4025  -15.0757 N   0  0  0  0  0  0  0  0  0  0  0  0
   20.3917  -27.9109  -12.9110 N   0  0  0  0  0  0  0  0  0  0  0  0
   20.3151  -27.5523  -11.5130 C   0  0  0  0  0  0  0  0  0  0  0  0
   18.9812  -26.9716  -11.1516 C   0  0  0  0  0  0  0  0  0  0  0  0
   18.8817  -26.5896   -9.7067 C   0  0  0  0  0  0  0  0  0  0  0  0
   18.0530  -25.3605   -9.5379 C   0  0  2  0  0  0  0  0  0  0  0  0
   18.6124  -24.2939  -10.3151 N   0  0  0  0  0  0  0  0  0  0  0  0
   17.8636  -24.9864   -8.1107 C   0  0  0  0  0  0  0  0  0  0  0  0
   18.3046  -23.9028   -7.6513 O   0  0  0  0  0  0  0  0  0  0  0  0
   20.5505  -28.0553  -15.5389 N   0  0  0  0  0  0  0  0  0  0  0  0
   14.1281  -24.7742   -3.7276 C   0  0  0  0  0  0  0  0  0  0  0  0
   15.3169  -24.3216   -4.3373 O   0  0  0  0  0  0  0  0  0  0  0  0
   16.0479  -23.5458   -3.6626 C   0  0  0  0  0  0  0  0  0  0  0  0
   15.6246  -24.7730   -5.6945 C   0  0  2  0  0  0  0  0  0  0  0  0
   16.9707  -25.4416   -5.8255 N   0  0  0  0  0  0  0  0  0  0  0  0
   17.1800  -25.8193   -7.1831 C   0  0  0  0  0  0  0  0  0  0  0  0
   17.1382  -26.4976   -4.8451 O   0  0  0  0  0  0  0  0  0  0  0  0
   16.6072  -27.6239   -4.9480 C   0  0  0  0  0  0  0  0  0  0  0  0
   21.8398  -26.3576   -0.0876 S   0  0  0  0  0  0  0  0  0  0  0  0
   20.6341  -27.5109    0.5561 C   0  0  0  0  0  0  0  0  0  0  0  0
   19.3066  -27.8935   -0.5771 C   0  0  0  0  0  0  0  0  0  0  0  0
   19.0713  -26.8354   -1.6188 C   0  0  2  0  0  0  0  0  0  0  0  0
   18.0990  -27.2763   -2.6928 N   0  0  0  0  0  0  0  0  0  0  0  0
   17.9423  -26.2575   -3.7044 C   0  0  0  0  0  0  0  0  0  0  0  0
   16.7924  -27.4863   -2.0404 O   0  0  0  0  0  0  0  0  0  0  0  0
   16.3122  -28.7492   -1.7547 O   0  0  0  0  0  0  0  0  0  0  0  0
  1  2  1  0
  2  4  1  0
  3  2  2  0
  4  5  1  0
  5  6  1  0
  6  7  1  0
  8 10  1  0
  8  9  1  6
  8  7  1  0
 10 11  2  0
 13 12  1  0
 13 15  1  0
 14 13  2  0
 16 15  1  6
 16 18  1  0
 17 16  1  0
 17 10  1  0
 18 19  2  0
 18 25  1  0
 20 21  1  0
 21 22  1  0
 22 23  1  0
 24 23  1  6
 24 26  1  0
 25 24  1  0
 26 28  2  0
 26 27  1  0
M  END
$$$$
