RNM.pdb
     RDKit          3D

 28 27  0  0  1  0  0  0  0  0999 V2000
   28.6728  -22.7137  -16.6917 N   0  0  0  0  0  0  0  0  0  0  0  0
   27.3115  -23.0527  -16.8806 C   0  0  0  0  0  0  0  0  0  0  0  0
   26.9874  -24.2766  -17.0803 N   0  0  0  0  0  0  0  0  0  0  0  0
   26.3471  -22.0157  -16.8413 N   0  0  0  0  0  0  0  0  0  0  0  0
   26.7181  -20.6421  -16.5877 C   0  0  0  0  0  0  0  0  0  0  0  0
   26.7284  -20.3215  -15.1234 C   0  0  0  0  0  0  0  0  0  0  0  0
   25.3900  -19.8869  -14.6103 C   0  0  0  0  0  0  0  0  0  0  0  0
   24.7652  -20.9585  -13.7814 C   0  0  2  0  0  0  0  0  0  0  0  0
   25.0567  -22.2398  -14.3540 N   0  0  0  0  0  0  0  0  0  0  0  0
   23.3078  -20.7469  -13.5716 C   0  0  0  0  0  0  0  0  0  0  0  0
   22.8738  -19.7677  -12.9141 O   0  0  0  0  0  0  0  0  0  0  0  0
   26.0462  -24.5919  -17.3289 N   0  0  0  0  0  0  0  0  0  0  0  0
   18.2855  -19.6661  -15.6940 C   0  0  0  0  0  0  0  0  0  0  0  0
   18.8188  -20.7506  -14.9665 O   0  0  0  0  0  0  0  0  0  0  0  0
   18.0277  -21.3780  -14.2102 C   0  0  0  0  0  0  0  0  0  0  0  0
   20.2355  -21.0766  -15.1314 C   0  0  1  0  0  0  0  0  0  0  0  0
   20.9297  -21.4517  -13.8455 N   0  0  0  0  0  0  0  0  0  0  0  0
   22.3214  -21.6274  -14.0944 C   0  0  0  0  0  0  0  0  0  0  0  0
   20.2637  -22.5575  -13.1839 O   0  0  0  0  0  0  0  0  0  0  0  0
   20.5329  -23.7570  -13.4070 C   0  0  0  0  0  0  0  0  0  0  0  0
   18.2233  -25.7446   -6.5413 S   0  0  0  0  0  0  0  0  0  0  0  0
   18.8401  -24.3522   -7.4788 C   0  0  0  0  0  0  0  0  0  0  0  0
   18.3262  -24.3344   -9.1901 C   0  0  0  0  0  0  0  0  0  0  0  0
   18.9772  -23.2556  -10.0102 C   0  0  1  0  0  0  0  0  0  0  0  0
   18.6411  -23.3560  -11.4833 N   0  0  0  0  0  0  0  0  0  0  0  0
   19.2521  -22.2825  -12.2319 C   0  0  0  0  0  0  0  0  0  0  0  0
   17.1762  -23.2319  -11.6073 O   0  0  0  0  0  0  0  0  0  0  0  0
   16.3400  -24.3281  -11.5268 O   0  0  0  0  0  0  0  0  0  0  0  0
  1  2  1  0
  2  4  1  0
  3  2  2  0
  4  5  1  0
  5  6  1  0
  6  7  1  0
  8 10  1  0
  8  9  1  6
  8  7  1  0
 10 11  2  0
 13 12  1  0
 13 15  1  0
 14 13  2  0
 16 15  1  1
 16 18  1  0
 17 16  1  0
 17 10  1  0
 18 19  2  0
 18 25  1  0
 20 21  1  0
 21 22  1  0
 22 23  1  0
 24 23  1  6
 24 26  1  0
 25 24  1  0
 26 28  2  0
 26 27  1  0
M  END
$$$$
