RNM.pdb
     RDKit          3D

 28 27  0  0  1  0  0  0  0  0999 V2000
   19.8973  -24.3721  -12.0268 N   0  0  0  0  0  0  0  0  0  0  0  0
   18.8053  -23.6728  -11.4590 C   0  0  0  0  0  0  0  0  0  0  0  0
   17.8836  -23.2139  -12.2224 N   0  0  0  0  0  0  0  0  0  0  0  0
   18.7709  -23.5043  -10.0528 N   0  0  0  0  0  0  0  0  0  0  0  0
   19.0606  -24.5946   -9.1494 C   0  0  0  0  0  0  0  0  0  0  0  0
   17.8177  -25.1628   -8.5337 C   0  0  0  0  0  0  0  0  0  0  0  0
   17.8909  -25.2475   -7.0400 C   0  0  0  0  0  0  0  0  0  0  0  0
   17.6586  -26.6459   -6.5749 C   0  0  2  0  0  0  0  0  0  0  0  0
   17.0371  -27.4028   -7.6215 N   0  0  0  0  0  0  0  0  0  0  0  0
   16.8978  -26.7083   -5.2982 C   0  0  0  0  0  0  0  0  0  0  0  0
   15.7185  -27.1409   -5.2565 O   0  0  0  0  0  0  0  0  0  0  0  0
   17.0619  -22.7012  -11.8923 N   0  0  0  0  0  0  0  0  0  0  0  0
   19.6704  -27.5190   -1.6476 C   0  0  0  0  0  0  0  0  0  0  0  0
   18.2607  -27.5697   -1.6588 O   0  0  0  0  0  0  0  0  0  0  0  0
   17.7282  -28.7133   -1.6641 C   0  0  0  0  0  0  0  0  0  0  0  0
   17.5139  -26.3117   -1.6634 C   0  0  2  0  0  0  0  0  0  0  0  0
   16.6520  -26.1174   -2.8864 N   0  0  0  0  0  0  0  0  0  0  0  0
   17.4472  -26.2880   -4.0561 C   0  0  0  0  0  0  0  0  0  0  0  0
   15.8957  -24.8817   -2.8137 O   0  0  0  0  0  0  0  0  0  0  0  0
   16.3532  -23.7723   -3.1615 C   0  0  0  0  0  0  0  0  0  0  0  0
   14.9367  -20.5156    1.1562 S   0  0  0  0  0  0  0  0  0  0  0  0
   15.5916  -22.1796    1.1733 C   0  0  0  0  0  0  0  0  0  0  0  0
   14.7647  -23.3051    0.0586 C   0  0  0  0  0  0  0  0  0  0  0  0
   14.4498  -22.7096   -1.2853 C   0  0  2  0  0  0  0  0  0  0  0  0
   13.7939  -23.6990   -2.2256 N   0  0  0  0  0  0  0  0  0  0  0  0
   14.5669  -24.9149   -2.3252 C   0  0  0  0  0  0  0  0  0  0  0  0
   13.7464  -23.0696   -3.5591 O   0  0  0  0  0  0  0  0  0  0  0  0
   12.9809  -21.9482   -3.8117 O   0  0  0  0  0  0  0  0  0  0  0  0
  1  2  1  0
  2  4  1  0
  3  2  2  0
  4  5  1  0
  5  6  1  0
  6  7  1  0
  8 10  1  0
  8  9  1  6
  8  7  1  0
 10 11  2  0
 13 12  1  0
 13 15  1  0
 14 13  2  0
 16 15  1  6
 16 18  1  0
 17 16  1  0
 17 10  1  0
 18 19  2  0
 18 25  1  0
 20 21  1  0
 21 22  1  0
 22 23  1  0
 24 23  1  1
 24 26  1  0
 25 24  1  0
 26 28  2  0
 26 27  1  0
M  END
$$$$
