RNM.pdb
     RDKit          3D

 28 27  0  0  1  0  0  0  0  0999 V2000
   31.1018  -24.9033  -15.4329 N   0  0  0  0  0  0  0  0  0  0  0  0
   30.0218  -25.1904  -16.3018 C   0  0  0  0  0  0  0  0  0  0  0  0
   29.3473  -26.2676  -16.1362 N   0  0  0  0  0  0  0  0  0  0  0  0
   29.7229  -24.2666  -17.3334 N   0  0  0  0  0  0  0  0  0  0  0  0
   29.2519  -22.9311  -17.0445 C   0  0  0  0  0  0  0  0  0  0  0  0
   29.4957  -22.5431  -15.6173 C   0  0  0  0  0  0  0  0  0  0  0  0
   29.0058  -21.1650  -15.2940 C   0  0  0  0  0  0  0  0  0  0  0  0
   27.6582  -20.9270  -15.8882 C   0  0  2  0  0  0  0  0  0  0  0  0
   27.7815  -20.0674  -17.0286 N   0  0  0  0  0  0  0  0  0  0  0  0
   26.6738  -20.4185  -14.8956 C   0  0  0  0  0  0  0  0  0  0  0  0
   26.3258  -19.2110  -14.8745 O   0  0  0  0  0  0  0  0  0  0  0  0
   28.6246  -26.6015  -16.7790 N   0  0  0  0  0  0  0  0  0  0  0  0
   22.6304  -19.2270  -12.1278 C   0  0  0  0  0  0  0  0  0  0  0  0
   22.7114  -20.5936  -12.4679 O   0  0  0  0  0  0  0  0  0  0  0  0
   21.8793  -21.3701  -11.9236 C   0  0  0  0  0  0  0  0  0  0  0  0
   23.7399  -21.0203  -13.4168 C   0  0  1  0  0  0  0  0  0  0  0  0
   25.1498  -20.7569  -12.9489 N   0  0  0  0  0  0  0  0  0  0  0  0
   26.0690  -21.2541  -13.9172 C   0  0  0  0  0  0  0  0  0  0  0  0
   25.3549  -21.2201  -11.5897 O   0  0  0  0  0  0  0  0  0  0  0  0
   25.1556  -22.3986  -11.2259 C   0  0  0  0  0  0  0  0  0  0  0  0
   28.9016  -19.6581   -4.7008 S   0  0  0  0  0  0  0  0  0  0  0  0
   28.1330  -18.9990   -6.1749 C   0  0  0  0  0  0  0  0  0  0  0  0
   27.2856  -20.2186   -7.1686 C   0  0  0  0  0  0  0  0  0  0  0  0
   26.6577  -19.6592   -8.4147 C   0  0  2  0  0  0  0  0  0  0  0  0
   25.9363  -20.7113   -9.2306 N   0  0  0  0  0  0  0  0  0  0  0  0
   25.8045  -20.3023  -10.6095 C   0  0  0  0  0  0  0  0  0  0  0  0
   24.5838  -20.8567   -8.6592 O   0  0  0  0  0  0  0  0  0  0  0  0
   23.4488  -20.5267   -9.3735 O   0  0  0  0  0  0  0  0  0  0  0  0
  1  2  1  0
  2  4  1  0
  3  2  2  0
  4  5  1  0
  5  6  1  0
  6  7  1  0
  8 10  1  0
  8  9  1  6
  8  7  1  0
 10 11  2  0
 13 12  1  0
 13 15  1  0
 14 13  2  0
 16 15  1  6
 16 18  1  0
 17 16  1  0
 17 10  1  0
 18 19  2  0
 18 25  1  0
 20 21  1  0
 21 22  1  0
 22 23  1  0
 24 23  1  6
 24 26  1  0
 25 24  1  0
 26 28  2  0
 26 27  1  0
M  END
$$$$
