RNM.pdb
     RDKit          3D

 28 27  0  0  1  0  0  0  0  0999 V2000
   27.7691  -21.8922  -15.1217 N   0  0  0  0  0  0  0  0  0  0  0  0
   26.9792  -21.8347  -16.2949 C   0  0  0  0  0  0  0  0  0  0  0  0
   26.0745  -22.7211  -16.4912 N   0  0  0  0  0  0  0  0  0  0  0  0
   27.2202  -20.7882  -17.2190 N   0  0  0  0  0  0  0  0  0  0  0  0
   28.1913  -19.7506  -16.9557 C   0  0  0  0  0  0  0  0  0  0  0  0
   27.5464  -18.4765  -16.5000 C   0  0  0  0  0  0  0  0  0  0  0  0
   27.4992  -17.4295  -17.5701 C   0  0  0  0  0  0  0  0  0  0  0  0
   26.0927  -17.0166  -17.8478 C   0  0  2  0  0  0  0  0  0  0  0  0
   26.0701  -15.6504  -18.2807 N   0  0  0  0  0  0  0  0  0  0  0  0
   25.1829  -17.2645  -16.6974 C   0  0  0  0  0  0  0  0  0  0  0  0
   25.2166  -16.5465  -15.6663 O   0  0  0  0  0  0  0  0  0  0  0  0
   25.4829  -22.7684  -17.3247 N   0  0  0  0  0  0  0  0  0  0  0  0
   20.6830  -16.9668  -17.6325 C   0  0  0  0  0  0  0  0  0  0  0  0
   21.4198  -17.1518  -16.4439 O   0  0  0  0  0  0  0  0  0  0  0  0
   21.6131  -16.1334  -15.7248 C   0  0  0  0  0  0  0  0  0  0  0  0
   21.9075  -18.4932  -16.1229 C   0  0  2  0  0  0  0  0  0  0  0  0
   23.3241  -18.5205  -15.6047 N   0  0  0  0  0  0  0  0  0  0  0  0
   24.2268  -18.3168  -16.6878 C   0  0  0  0  0  0  0  0  0  0  0  0
   23.5710  -19.6963  -14.7917 O   0  0  0  0  0  0  0  0  0  0  0  0
   23.6778  -20.8489  -15.2617 C   0  0  0  0  0  0  0  0  0  0  0  0
   26.4416  -19.2477   -8.8642 S   0  0  0  0  0  0  0  0  0  0  0  0
   25.9604  -20.9691   -8.9242 C   0  0  0  0  0  0  0  0  0  0  0  0
   25.0267  -21.4197  -10.3795 C   0  0  0  0  0  0  0  0  0  0  0  0
   24.7506  -20.2688  -11.3064 C   0  0  1  0  0  0  0  0  0  0  0  0
   24.0136  -20.6900  -12.5604 N   0  0  0  0  0  0  0  0  0  0  0  0
   23.7004  -19.5494  -13.3892 C   0  0  0  0  0  0  0  0  0  0  0  0
   22.7468  -21.3148  -12.1342 O   0  0  0  0  0  0  0  0  0  0  0  0
   22.6691  -22.6503  -11.7912 O   0  0  0  0  0  0  0  0  0  0  0  0
  1  2  1  0
  2  4  1  0
  3  2  2  0
  4  5  1  0
  5  6  1  0
  6  7  1  0
  8 10  1  0
  8  9  1  1
  8  7  1  0
 10 11  2  0
 13 12  1  0
 13 15  1  0
 14 13  2  0
 16 15  1  1
 16 18  1  0
 17 16  1  0
 17 10  1  0
 18 19  2  0
 18 25  1  0
 20 21  1  0
 21 22  1  0
 22 23  1  0
 24 23  1  6
 24 26  1  0
 25 24  1  0
 26 28  2  0
 26 27  1  0
M  END
$$$$
