RNM.pdb
     RDKit          3D

 28 27  0  0  1  0  0  0  0  0999 V2000
   39.6348  -10.7178   -6.0624 N   0  0  0  0  0  0  0  0  0  0  0  0
   40.8858  -10.2738   -6.5541 C   0  0  0  0  0  0  0  0  0  0  0  0
   41.9506  -10.5187   -5.8842 N   0  0  0  0  0  0  0  0  0  0  0  0
   40.9151   -9.5676   -7.7819 N   0  0  0  0  0  0  0  0  0  0  0  0
   39.7152   -9.3340   -8.5531 C   0  0  0  0  0  0  0  0  0  0  0  0
   39.7677  -10.0009   -9.8945 C   0  0  0  0  0  0  0  0  0  0  0  0
   39.0396   -9.2362  -10.9568 C   0  0  0  0  0  0  0  0  0  0  0  0
   37.8222   -9.9742  -11.4030 C   0  0  2  0  0  0  0  0  0  0  0  0
   37.9754  -11.3703  -11.1168 N   0  0  0  0  0  0  0  0  0  0  0  0
   37.4856   -9.7190  -12.8293 C   0  0  0  0  0  0  0  0  0  0  0  0
   37.3551   -8.5511  -13.2749 O   0  0  0  0  0  0  0  0  0  0  0  0
   42.8904  -10.2282   -6.1661 N   0  0  0  0  0  0  0  0  0  0  0  0
   39.5888  -12.8285  -15.7084 C   0  0  0  0  0  0  0  0  0  0  0  0
   38.9224  -11.6365  -16.0617 O   0  0  0  0  0  0  0  0  0  0  0  0
   39.6409  -10.6590  -16.4077 C   0  0  0  0  0  0  0  0  0  0  0  0
   37.4608  -11.6073  -16.0059 C   0  0  2  0  0  0  0  0  0  0  0  0
   36.9048  -10.5199  -15.1201 N   0  0  0  0  0  0  0  0  0  0  0  0
   37.2916  -10.7661  -13.7713 C   0  0  0  0  0  0  0  0  0  0  0  0
   35.4846  -10.3262  -15.3427 O   0  0  0  0  0  0  0  0  0  0  0  0
   34.6077  -11.1096  -14.9202 C   0  0  0  0  0  0  0  0  0  0  0  0
   29.9109   -5.4313  -18.2898 S   0  0  0  0  0  0  0  0  0  0  0  0
   31.6381   -5.7640  -17.9668 C   0  0  0  0  0  0  0  0  0  0  0  0
   31.9406   -7.2982  -17.1021 C   0  0  0  0  0  0  0  0  0  0  0  0
   33.3945   -7.5686  -16.8320 C   0  0  1  0  0  0  0  0  0  0  0  0
   33.6413   -8.9622  -16.2936 N   0  0  0  0  0  0  0  0  0  0  0  0
   35.0499   -9.1952  -16.0757 C   0  0  0  0  0  0  0  0  0  0  0  0
   33.1665   -9.9159  -17.3143 O   0  0  0  0  0  0  0  0  0  0  0  0
   31.9543  -10.5674  -17.1987 O   0  0  0  0  0  0  0  0  0  0  0  0
  1  2  1  0
  2  4  1  0
  3  2  2  0
  4  5  1  0
  5  6  1  0
  6  7  1  0
  8 10  1  0
  8  9  1  6
  8  7  1  0
 10 11  2  0
 13 12  1  0
 13 15  1  0
 14 13  2  0
 16 15  1  6
 16 18  1  0
 17 16  1  0
 17 10  1  0
 18 19  2  0
 18 25  1  0
 20 21  1  0
 21 22  1  0
 22 23  1  0
 24 23  1  1
 24 26  1  0
 25 24  1  0
 26 28  2  0
 26 27  1  0
M  END
$$$$
