RNM.pdb
     RDKit          3D

 28 27  0  0  1  0  0  0  0  0999 V2000
   30.0548  -21.9935   -8.8268 N   0  0  0  0  0  0  0  0  0  0  0  0
   30.3148  -22.0559  -10.2168 C   0  0  0  0  0  0  0  0  0  0  0  0
   31.1493  -22.9193  -10.6651 N   0  0  0  0  0  0  0  0  0  0  0  0
   29.6356  -21.1522  -11.0707 N   0  0  0  0  0  0  0  0  0  0  0  0
   28.2505  -20.7995  -10.8565 C   0  0  0  0  0  0  0  0  0  0  0  0
   27.4643  -20.7991  -12.1327 C   0  0  0  0  0  0  0  0  0  0  0  0
   26.0373  -20.3861  -11.9405 C   0  0  0  0  0  0  0  0  0  0  0  0
   25.1175  -21.5435  -12.1408 C   0  0  2  0  0  0  0  0  0  0  0  0
   25.5091  -22.2707  -13.3124 N   0  0  0  0  0  0  0  0  0  0  0  0
   23.6858  -21.1413  -12.1724 C   0  0  0  0  0  0  0  0  0  0  0  0
   23.1666  -20.4852  -11.2346 O   0  0  0  0  0  0  0  0  0  0  0  0
   31.4138  -23.0105  -11.6493 N   0  0  0  0  0  0  0  0  0  0  0  0
   21.6961  -18.3596  -13.4060 C   0  0  0  0  0  0  0  0  0  0  0  0
   21.2594  -18.9937  -14.5880 O   0  0  0  0  0  0  0  0  0  0  0  0
   21.0156  -18.2528  -15.5796 C   0  0  0  0  0  0  0  0  0  0  0  0
   21.1180  -20.4498  -14.5914 C   0  0  2  0  0  0  0  0  0  0  0  0
   21.4447  -21.0984  -13.2690 N   0  0  0  0  0  0  0  0  0  0  0  0
   22.8203  -21.4685  -13.2520 C   0  0  0  0  0  0  0  0  0  0  0  0
   20.5043  -22.1551  -12.9476 O   0  0  0  0  0  0  0  0  0  0  0  0
   20.5443  -23.2931  -13.4618 C   0  0  0  0  0  0  0  0  0  0  0  0
   18.8286  -23.6265   -7.0280 S   0  0  0  0  0  0  0  0  0  0  0  0
   17.6103  -24.5615   -7.9444 C   0  0  0  0  0  0  0  0  0  0  0  0
   17.6596  -24.2978   -9.7110 C   0  0  0  0  0  0  0  0  0  0  0  0
   18.5260  -23.1430  -10.1304 C   0  0  2  0  0  0  0  0  0  0  0  0
   18.5537  -22.9460  -11.6316 N   0  0  0  0  0  0  0  0  0  0  0  0
   19.4796  -21.9019  -12.0035 C   0  0  0  0  0  0  0  0  0  0  0  0
   17.1988  -22.5321  -12.0436 O   0  0  0  0  0  0  0  0  0  0  0  0
   16.2162  -23.4514  -12.3545 O   0  0  0  0  0  0  0  0  0  0  0  0
  1  2  1  0
  2  4  1  0
  3  2  2  0
  4  5  1  0
  5  6  1  0
  6  7  1  0
  8 10  1  0
  8  9  1  6
  8  7  1  0
 10 11  2  0
 13 12  1  0
 13 15  1  0
 14 13  2  0
 16 15  1  1
 16 18  1  0
 17 16  1  0
 17 10  1  0
 18 19  2  0
 18 25  1  0
 20 21  1  0
 21 22  1  0
 22 23  1  0
 24 23  1  6
 24 26  1  0
 25 24  1  0
 26 28  2  0
 26 27  1  0
M  END
$$$$
