RNM.pdb
     RDKit          3D

 28 27  0  0  1  0  0  0  0  0999 V2000
   21.8864  -31.9812   -8.3223 N   0  0  0  0  0  0  0  0  0  0  0  0
   23.2965  -31.9018   -8.4171 C   0  0  0  0  0  0  0  0  0  0  0  0
   24.0203  -32.7619   -7.8015 N   0  0  0  0  0  0  0  0  0  0  0  0
   23.8620  -30.8633   -9.1975 N   0  0  0  0  0  0  0  0  0  0  0  0
   23.0446  -29.8368   -9.8034 C   0  0  0  0  0  0  0  0  0  0  0  0
   22.3310  -30.3317  -11.0252 C   0  0  0  0  0  0  0  0  0  0  0  0
   21.6286  -29.2412  -11.7743 C   0  0  0  0  0  0  0  0  0  0  0  0
   20.6280  -28.5579  -10.9039 C   0  0  2  0  0  0  0  0  0  0  0  0
   19.7906  -29.5369  -10.2753 N   0  0  0  0  0  0  0  0  0  0  0  0
   19.8460  -27.5220  -11.6307 C   0  0  0  0  0  0  0  0  0  0  0  0
   19.0015  -27.8317  -12.5086 O   0  0  0  0  0  0  0  0  0  0  0  0
   25.0435  -32.7651   -7.8059 N   0  0  0  0  0  0  0  0  0  0  0  0
   16.6789  -22.9327  -11.4609 C   0  0  0  0  0  0  0  0  0  0  0  0
   18.0153  -23.0378  -11.8999 O   0  0  0  0  0  0  0  0  0  0  0  0
   18.3727  -22.2729  -12.8373 C   0  0  0  0  0  0  0  0  0  0  0  0
   18.8920  -24.0127  -11.2508 C   0  0  1  0  0  0  0  0  0  0  0  0
   19.3304  -25.1376  -12.1555 N   0  0  0  0  0  0  0  0  0  0  0  0
   20.0000  -26.1304  -11.3837 C   0  0  0  0  0  0  0  0  0  0  0  0
   20.0565  -24.6409  -13.3089 O   0  0  0  0  0  0  0  0  0  0  0  0
   21.3031  -24.5761  -13.3628 C   0  0  0  0  0  0  0  0  0  0  0  0
   21.8596  -28.6187  -16.4971 S   0  0  0  0  0  0  0  0  0  0  0  0
   21.0400  -27.7573  -17.8330 C   0  0  0  0  0  0  0  0  0  0  0  0
   20.6412  -26.0534  -17.4718 C   0  0  0  0  0  0  0  0  0  0  0  0
   20.1123  -25.8331  -16.0820 C   0  0  1  0  0  0  0  0  0  0  0  0
   19.8759  -24.3703  -15.7699 N   0  0  0  0  0  0  0  0  0  0  0  0
   19.3310  -24.2016  -14.4430 C   0  0  0  0  0  0  0  0  0  0  0  0
   18.8872  -23.8695  -16.7437 O   0  0  0  0  0  0  0  0  0  0  0  0
   19.2660  -23.3053  -17.9460 O   0  0  0  0  0  0  0  0  0  0  0  0
  1  2  1  0
  2  4  1  0
  3  2  2  0
  4  5  1  0
  5  6  1  0
  6  7  1  0
  8 10  1  0
  8  9  1  6
  8  7  1  0
 10 11  2  0
 13 12  1  0
 13 15  1  0
 14 13  2  0
 16 15  1  1
 16 18  1  0
 17 16  1  0
 17 10  1  0
 18 19  2  0
 18 25  1  0
 20 21  1  0
 21 22  1  0
 22 23  1  0
 24 23  1  1
 24 26  1  0
 25 24  1  0
 26 28  2  0
 26 27  1  0
M  END
$$$$
