RNM.pdb
     RDKit          3D

 28 27  0  0  1  0  0  0  0  0999 V2000
   10.2706  -10.0237   -9.3349 N   0  0  0  0  0  0  0  0  0  0  0  0
   10.5358  -11.2898   -9.9098 C   0  0  0  0  0  0  0  0  0  0  0  0
    9.5618  -12.0797  -10.1745 N   0  0  0  0  0  0  0  0  0  0  0  0
   11.8826  -11.6411  -10.1742 N   0  0  0  0  0  0  0  0  0  0  0  0
   12.8147  -10.6986  -10.7503 C   0  0  0  0  0  0  0  0  0  0  0  0
   14.1553  -11.3171  -11.0091 C   0  0  0  0  0  0  0  0  0  0  0  0
   15.1274  -10.3654  -11.6359 C   0  0  0  0  0  0  0  0  0  0  0  0
   16.4560  -10.4418  -10.9615 C   0  0  2  0  0  0  0  0  0  0  0  0
   16.4571  -11.5268  -10.0248 N   0  0  0  0  0  0  0  0  0  0  0  0
   16.8601   -9.1523  -10.3397 C   0  0  0  0  0  0  0  0  0  0  0  0
   16.6434   -8.9120   -9.1252 O   0  0  0  0  0  0  0  0  0  0  0  0
    9.6712  -13.0343  -10.5265 N   0  0  0  0  0  0  0  0  0  0  0  0
   20.9250   -7.1741   -9.9985 C   0  0  0  0  0  0  0  0  0  0  0  0
   20.2105   -7.0621  -11.2097 O   0  0  0  0  0  0  0  0  0  0  0  0
   20.6734   -7.6798  -12.2075 C   0  0  0  0  0  0  0  0  0  0  0  0
   18.9947   -6.2488  -11.2339 C   0  0  2  0  0  0  0  0  0  0  0  0
   17.8356   -6.8603  -10.4865 N   0  0  0  0  0  0  0  0  0  0  0  0
   17.5100   -8.1191  -11.0687 C   0  0  0  0  0  0  0  0  0  0  0  0
   16.7351   -5.9246  -10.3532 O   0  0  0  0  0  0  0  0  0  0  0  0
   15.9773   -5.6132  -11.2964 C   0  0  0  0  0  0  0  0  0  0  0  0
   11.3190   -3.1433   -5.3525 S   0  0  0  0  0  0  0  0  0  0  0  0
   12.6626   -4.2581   -5.7400 C   0  0  0  0  0  0  0  0  0  0  0  0
   13.4911   -3.9005   -7.2823 C   0  0  0  0  0  0  0  0  0  0  0  0
   14.6472   -4.8147   -7.5788 C   0  0  1  0  0  0  0  0  0  0  0  0
   15.3254   -4.4941   -8.8942 N   0  0  0  0  0  0  0  0  0  0  0  0
   16.4917   -5.3221   -9.0950 C   0  0  0  0  0  0  0  0  0  0  0  0
   15.7624   -3.0864   -8.8294 O   0  0  0  0  0  0  0  0  0  0  0  0
   14.8643   -2.0386   -8.8846 O   0  0  0  0  0  0  0  0  0  0  0  0
  1  2  1  0
  2  4  1  0
  3  2  2  0
  4  5  1  0
  5  6  1  0
  6  7  1  0
  8 10  1  0
  8  9  1  1
  8  7  1  0
 10 11  2  0
 13 12  1  0
 13 15  1  0
 14 13  2  0
 16 15  1  1
 16 18  1  0
 17 16  1  0
 17 10  1  0
 18 19  2  0
 18 25  1  0
 20 21  1  0
 21 22  1  0
 22 23  1  0
 24 23  1  6
 24 26  1  0
 25 24  1  0
 26 28  2  0
 26 27  1  0
M  END
$$$$
