RNM.pdb
     RDKit          3D

 28 27  0  0  1  0  0  0  0  0999 V2000
   28.2860  -26.2098  -15.8090 N   0  0  0  0  0  0  0  0  0  0  0  0
   28.8168  -25.9302  -17.0912 C   0  0  0  0  0  0  0  0  0  0  0  0
   29.4206  -26.8559  -17.7402 N   0  0  0  0  0  0  0  0  0  0  0  0
   28.6593  -24.6235  -17.6155 N   0  0  0  0  0  0  0  0  0  0  0  0
   27.9051  -23.6093  -16.9145 C   0  0  0  0  0  0  0  0  0  0  0  0
   28.5517  -23.2192  -15.6196 C   0  0  0  0  0  0  0  0  0  0  0  0
   28.6263  -21.7357  -15.4266 C   0  0  0  0  0  0  0  0  0  0  0  0
   27.2831  -21.1094  -15.5972 C   0  0  2  0  0  0  0  0  0  0  0  0
   27.2725  -20.3131  -16.7891 N   0  0  0  0  0  0  0  0  0  0  0  0
   26.8488  -20.3445  -14.3976 C   0  0  0  0  0  0  0  0  0  0  0  0
   27.2019  -19.1522  -14.2151 O   0  0  0  0  0  0  0  0  0  0  0  0
   29.8410  -26.7333  -18.6651 N   0  0  0  0  0  0  0  0  0  0  0  0
   23.6078  -22.0260  -12.5140 C   0  0  0  0  0  0  0  0  0  0  0  0
   23.2086  -20.6730  -12.5272 O   0  0  0  0  0  0  0  0  0  0  0  0
   21.9737  -20.4407  -12.6390 C   0  0  0  0  0  0  0  0  0  0  0  0
   24.2359  -19.6378  -12.4122 C   0  0  1  0  0  0  0  0  0  0  0  0
   25.6314  -20.1799  -12.2256 N   0  0  0  0  0  0  0  0  0  0  0  0
   26.0160  -20.9044  -13.3904 C   0  0  0  0  0  0  0  0  0  0  0  0
   25.7620  -20.8926  -10.9690 O   0  0  0  0  0  0  0  0  0  0  0  0
   25.5627  -22.1202  -10.8491 C   0  0  0  0  0  0  0  0  0  0  0  0
   28.2127  -18.0113   -5.3606 S   0  0  0  0  0  0  0  0  0  0  0  0
   28.2783  -19.7773   -5.0864 C   0  0  0  0  0  0  0  0  0  0  0  0
   27.3355  -20.7379   -6.2618 C   0  0  0  0  0  0  0  0  0  0  0  0
   27.1876  -20.0810   -7.6058 C   0  0  1  0  0  0  0  0  0  0  0  0
   26.2896  -20.8604   -8.5435 N   0  0  0  0  0  0  0  0  0  0  0  0
   26.1339  -20.1758   -9.8057 C   0  0  0  0  0  0  0  0  0  0  0  0
   24.9645  -20.9556   -7.9017 O   0  0  0  0  0  0  0  0  0  0  0  0
   24.7236  -21.8114   -6.8448 O   0  0  0  0  0  0  0  0  0  0  0  0
  1  2  1  0
  2  4  1  0
  3  2  2  0
  4  5  1  0
  5  6  1  0
  6  7  1  0
  8 10  1  0
  8  9  1  6
  8  7  1  0
 10 11  2  0
 13 12  1  0
 13 15  1  0
 14 13  2  0
 16 15  1  6
 16 18  1  0
 17 16  1  0
 17 10  1  0
 18 19  2  0
 18 25  1  0
 20 21  1  0
 21 22  1  0
 22 23  1  0
 24 23  1  6
 24 26  1  0
 25 24  1  0
 26 28  2  0
 26 27  1  0
M  END
$$$$
