RNM.pdb
     RDKit          3D

 28 27  0  0  1  0  0  0  0  0999 V2000
   19.3551  -29.4518   -8.3569 N   0  0  0  0  0  0  0  0  0  0  0  0
   19.3211  -29.0118   -9.7019 C   0  0  0  0  0  0  0  0  0  0  0  0
   19.3608  -29.8739  -10.6495 N   0  0  0  0  0  0  0  0  0  0  0  0
   19.2436  -27.6198   -9.9539 N   0  0  0  0  0  0  0  0  0  0  0  0
   19.1925  -26.6548   -8.8793 C   0  0  0  0  0  0  0  0  0  0  0  0
   17.7855  -26.3445   -8.4658 C   0  0  0  0  0  0  0  0  0  0  0  0
   17.5652  -26.4831   -6.9907 C   0  0  0  0  0  0  0  0  0  0  0  0
   17.3405  -25.1502   -6.3594 C   0  0  2  0  0  0  0  0  0  0  0  0
   18.2221  -24.1854   -6.9482 N   0  0  0  0  0  0  0  0  0  0  0  0
   17.4497  -25.1907   -4.8764 C   0  0  0  0  0  0  0  0  0  0  0  0
   18.5394  -24.9676   -4.2913 O   0  0  0  0  0  0  0  0  0  0  0  0
   19.3948  -29.6378  -11.6445 N   0  0  0  0  0  0  0  0  0  0  0  0
   15.4088  -22.7864   -2.4255 C   0  0  0  0  0  0  0  0  0  0  0  0
   14.5450  -23.8125   -1.9888 O   0  0  0  0  0  0  0  0  0  0  0  0
   13.4139  -23.4630   -1.5531 C   0  0  0  0  0  0  0  0  0  0  0  0
   15.0069  -25.1985   -2.0668 C   0  0  2  0  0  0  0  0  0  0  0  0
   16.4042  -25.3468   -2.6160 N   0  0  0  0  0  0  0  0  0  0  0  0
   16.3425  -25.4809   -4.0330 C   0  0  0  0  0  0  0  0  0  0  0  0
   17.1439  -26.3806   -1.9173 O   0  0  0  0  0  0  0  0  0  0  0  0
   17.1372  -27.5826   -2.2580 C   0  0  0  0  0  0  0  0  0  0  0  0
   23.3491  -23.9841    0.1826 S   0  0  0  0  0  0  0  0  0  0  0  0
   22.0299  -24.8021    1.0708 C   0  0  0  0  0  0  0  0  0  0  0  0
   20.8468  -25.6361    0.0230 C   0  0  0  0  0  0  0  0  0  0  0  0
   19.7642  -26.3547    0.7789 C   0  0  2  0  0  0  0  0  0  0  0  0
   18.7502  -27.0126   -0.1333 N   0  0  0  0  0  0  0  0  0  0  0  0
   17.9201  -26.0277   -0.7866 C   0  0  0  0  0  0  0  0  0  0  0  0
   17.8865  -27.8595    0.7115 O   0  0  0  0  0  0  0  0  0  0  0  0
   18.1367  -29.2052    0.8954 O   0  0  0  0  0  0  0  0  0  0  0  0
  1  2  1  0
  2  4  1  0
  3  2  2  0
  4  5  1  0
  5  6  1  0
  6  7  1  0
  8 10  1  0
  8  9  1  6
  8  7  1  0
 10 11  2  0
 13 12  1  0
 13 15  1  0
 14 13  2  0
 16 15  1  6
 16 18  1  0
 17 16  1  0
 17 10  1  0
 18 19  2  0
 18 25  1  0
 20 21  1  0
 21 22  1  0
 22 23  1  0
 24 23  1  6
 24 26  1  0
 25 24  1  0
 26 28  2  0
 26 27  1  0
M  END
$$$$
