RNM.pdb
     RDKit          3D

 28 27  0  0  1  0  0  0  0  0999 V2000
   26.6229  -20.9706   -9.5694 N   0  0  0  0  0  0  0  0  0  0  0  0
   25.2133  -20.9182   -9.6871 C   0  0  0  0  0  0  0  0  0  0  0  0
   24.5029  -20.6496   -8.6546 N   0  0  0  0  0  0  0  0  0  0  0  0
   24.6332  -21.1671  -10.9554 N   0  0  0  0  0  0  0  0  0  0  0  0
   25.4387  -21.5116  -12.1050 C   0  0  0  0  0  0  0  0  0  0  0  0
   25.8279  -20.3042  -12.9036 C   0  0  0  0  0  0  0  0  0  0  0  0
   25.4490  -20.4118  -14.3488 C   0  0  0  0  0  0  0  0  0  0  0  0
   24.9973  -21.7950  -14.6782 C   0  0  2  0  0  0  0  0  0  0  0  0
   25.8716  -22.3642  -15.6612 N   0  0  0  0  0  0  0  0  0  0  0  0
   23.5681  -21.8511  -15.0867 C   0  0  0  0  0  0  0  0  0  0  0  0
   23.2286  -21.8196  -16.2964 O   0  0  0  0  0  0  0  0  0  0  0  0
   23.4848  -20.5475   -8.6643 N   0  0  0  0  0  0  0  0  0  0  0  0
   18.6415  -24.2803  -14.9354 C   0  0  0  0  0  0  0  0  0  0  0  0
   19.0104  -23.2078  -14.0967 O   0  0  0  0  0  0  0  0  0  0  0  0
   18.0866  -22.4448  -13.7018 C   0  0  0  0  0  0  0  0  0  0  0  0
   20.4206  -23.0483  -13.7415 C   0  0  1  0  0  0  0  0  0  0  0  0
   21.1366  -21.9896  -14.5430 N   0  0  0  0  0  0  0  0  0  0  0  0
   22.5045  -21.9427  -14.1476 C   0  0  0  0  0  0  0  0  0  0  0  0
   20.4273  -20.7248  -14.5080 O   0  0  0  0  0  0  0  0  0  0  0  0
   20.7052  -19.8007  -13.7143 C   0  0  0  0  0  0  0  0  0  0  0  0
   21.6634  -16.8645  -18.5137 S   0  0  0  0  0  0  0  0  0  0  0  0
   20.2480  -15.9976  -17.8480 C   0  0  0  0  0  0  0  0  0  0  0  0
   19.1717  -17.0115  -16.8448 C   0  0  0  0  0  0  0  0  0  0  0  0
   19.7415  -18.3629  -16.5146 C   0  0  1  0  0  0  0  0  0  0  0  0
   18.8338  -19.1786  -15.6181 N   0  0  0  0  0  0  0  0  0  0  0  0
   19.3603  -20.5078  -15.4135 C   0  0  0  0  0  0  0  0  0  0  0  0
   17.5327  -19.2962  -16.3037 O   0  0  0  0  0  0  0  0  0  0  0  0
   16.5331  -18.3571  -16.1416 O   0  0  0  0  0  0  0  0  0  0  0  0
  1  2  1  0
  2  4  1  0
  3  2  2  0
  4  5  1  0
  5  6  1  0
  6  7  1  0
  8 10  1  0
  8  9  1  6
  8  7  1  0
 10 11  2  0
 13 12  1  0
 13 15  1  0
 14 13  2  0
 16 15  1  6
 16 18  1  0
 17 16  1  0
 17 10  1  0
 18 19  2  0
 18 25  1  0
 20 21  1  0
 21 22  1  0
 22 23  1  0
 24 23  1  1
 24 26  1  0
 25 24  1  0
 26 28  2  0
 26 27  1  0
M  END
$$$$
