RNM.pdb
     RDKit          3D

 28 27  0  0  1  0  0  0  0  0999 V2000
   26.3328  -24.9293  -16.5161 N   0  0  0  0  0  0  0  0  0  0  0  0
   25.7147  -26.2026  -16.4966 C   0  0  0  0  0  0  0  0  0  0  0  0
   26.3742  -27.2308  -16.8847 N   0  0  0  0  0  0  0  0  0  0  0  0
   24.3753  -26.2947  -16.0440 N   0  0  0  0  0  0  0  0  0  0  0  0
   23.5896  -25.1176  -15.7511 C   0  0  0  0  0  0  0  0  0  0  0  0
   24.1291  -24.3564  -14.5779 C   0  0  0  0  0  0  0  0  0  0  0  0
   23.1037  -24.1209  -13.5117 C   0  0  0  0  0  0  0  0  0  0  0  0
   21.9887  -23.2728  -14.0249 C   0  0  2  0  0  0  0  0  0  0  0  0
   22.5069  -22.0073  -14.4548 N   0  0  0  0  0  0  0  0  0  0  0  0
   20.8774  -23.1303  -13.0464 C   0  0  0  0  0  0  0  0  0  0  0  0
   20.9958  -22.4199  -12.0164 O   0  0  0  0  0  0  0  0  0  0  0  0
   25.9767  -28.1684  -16.9849 N   0  0  0  0  0  0  0  0  0  0  0  0
   17.8449  -21.2396  -13.3506 C   0  0  0  0  0  0  0  0  0  0  0  0
   16.9142  -22.2873  -13.5117 O   0  0  0  0  0  0  0  0  0  0  0  0
   15.8400  -22.0125  -14.1132 C   0  0  0  0  0  0  0  0  0  0  0  0
   17.2469  -23.6088  -12.9792 C   0  0  2  0  0  0  0  0  0  0  0  0
   18.5705  -23.6609  -12.2570 N   0  0  0  0  0  0  0  0  0  0  0  0
   19.6234  -23.7801  -13.2093 C   0  0  0  0  0  0  0  0  0  0  0  0
   18.5616  -24.6548  -11.2004 O   0  0  0  0  0  0  0  0  0  0  0  0
   19.0102  -25.8125  -11.3396 C   0  0  0  0  0  0  0  0  0  0  0  0
   15.2826  -24.1852   -4.9491 S   0  0  0  0  0  0  0  0  0  0  0  0
   16.9316  -24.8745   -4.8841 C   0  0  0  0  0  0  0  0  0  0  0  0
   17.4863  -25.5963   -6.4216 C   0  0  0  0  0  0  0  0  0  0  0  0
   17.5949  -24.6117   -7.5524 C   0  0  1  0  0  0  0  0  0  0  0  0
   18.0836  -25.2465   -8.8375 N   0  0  0  0  0  0  0  0  0  0  0  0
   18.0196  -24.3129   -9.9376 C   0  0  0  0  0  0  0  0  0  0  0  0
   17.1840  -26.3771   -9.1364 O   0  0  0  0  0  0  0  0  0  0  0  0
   17.5232  -27.6813   -8.8342 O   0  0  0  0  0  0  0  0  0  0  0  0
  1  2  1  0
  2  4  1  0
  3  2  2  0
  4  5  1  0
  5  6  1  0
  6  7  1  0
  8 10  1  0
  8  9  1  1
  8  7  1  0
 10 11  2  0
 13 12  1  0
 13 15  1  0
 14 13  2  0
 16 15  1  6
 16 18  1  0
 17 16  1  0
 17 10  1  0
 18 19  2  0
 18 25  1  0
 20 21  1  0
 21 22  1  0
 22 23  1  0
 24 23  1  1
 24 26  1  0
 25 24  1  0
 26 28  2  0
 26 27  1  0
M  END
$$$$
