RNM.pdb
     RDKit          3D

 28 27  0  0  1  0  0  0  0  0999 V2000
   27.7443  -26.9978  -16.4872 N   0  0  0  0  0  0  0  0  0  0  0  0
   28.7427  -25.9960  -16.5459 C   0  0  0  0  0  0  0  0  0  0  0  0
   29.9732  -26.3213  -16.3953 N   0  0  0  0  0  0  0  0  0  0  0  0
   28.3407  -24.6564  -16.7714 N   0  0  0  0  0  0  0  0  0  0  0  0
   26.9573  -24.2506  -16.6692 C   0  0  0  0  0  0  0  0  0  0  0  0
   26.2674  -24.8872  -15.5005 C   0  0  0  0  0  0  0  0  0  0  0  0
   24.8445  -24.4444  -15.3490 C   0  0  0  0  0  0  0  0  0  0  0  0
   24.7653  -22.9668  -15.1582 C   0  0  2  0  0  0  0  0  0  0  0  0
   26.0134  -22.4812  -14.6473 N   0  0  0  0  0  0  0  0  0  0  0  0
   23.6081  -22.5568  -14.3182 C   0  0  0  0  0  0  0  0  0  0  0  0
   22.5048  -23.1554  -14.3820 O   0  0  0  0  0  0  0  0  0  0  0  0
   30.7543  -25.6613  -16.4335 N   0  0  0  0  0  0  0  0  0  0  0  0
   22.1592  -19.1575   -9.3981 C   0  0  0  0  0  0  0  0  0  0  0  0
   21.8608  -19.8498  -10.5904 O   0  0  0  0  0  0  0  0  0  0  0  0
   20.6413  -20.0202  -10.8645 C   0  0  0  0  0  0  0  0  0  0  0  0
   22.9674  -20.3206  -11.4235 C   0  0  2  0  0  0  0  0  0  0  0  0
   22.5276  -20.9954  -12.6992 N   0  0  0  0  0  0  0  0  0  0  0  0
   23.6725  -21.4741  -13.3989 C   0  0  0  0  0  0  0  0  0  0  0  0
   21.6286  -20.1528  -13.4645 O   0  0  0  0  0  0  0  0  0  0  0  0
   21.9590  -19.0455  -13.9396 C   0  0  0  0  0  0  0  0  0  0  0  0
   19.6230  -22.5535  -18.8924 S   0  0  0  0  0  0  0  0  0  0  0  0
   19.6014  -20.7658  -18.8468 C   0  0  0  0  0  0  0  0  0  0  0  0
   19.1457  -20.0777  -17.2620 C   0  0  0  0  0  0  0  0  0  0  0  0
   19.9141  -20.6525  -16.1048 C   0  0  2  0  0  0  0  0  0  0  0  0
   19.5256  -20.0341  -14.7782 N   0  0  0  0  0  0  0  0  0  0  0  0
   20.3021  -20.5917  -13.6956 C   0  0  0  0  0  0  0  0  0  0  0  0
   18.1052  -20.3577  -14.5441 O   0  0  0  0  0  0  0  0  0  0  0  0
   17.0848  -19.5612  -15.0253 O   0  0  0  0  0  0  0  0  0  0  0  0
  1  2  1  0
  2  4  1  0
  3  2  2  0
  4  5  1  0
  5  6  1  0
  6  7  1  0
  8 10  1  0
  8  9  1  1
  8  7  1  0
 10 11  2  0
 13 12  1  0
 13 15  1  0
 14 13  2  0
 16 15  1  1
 16 18  1  0
 17 16  1  0
 17 10  1  0
 18 19  2  0
 18 25  1  0
 20 21  1  0
 21 22  1  0
 22 23  1  0
 24 23  1  6
 24 26  1  0
 25 24  1  0
 26 28  2  0
 26 27  1  0
M  END
$$$$
