AWV.pdb
     RDKit          3D

 27 28  0  0  1  0  0  0  0  0999 V2000
   24.2355  -33.5306  -11.4341 C   0  0  0  0  0  0  0  0  0  0  0  0
   24.5625  -34.4615  -10.2863 C   0  0  2  0  0  0  0  0  0  0  0  0
   23.8183  -35.6948  -10.3668 N   0  0  0  0  0  0  0  0  0  0  0  0
   24.2901  -33.8202   -8.9781 C   0  0  0  0  0  0  0  0  0  0  0  0
   24.7662  -32.7089   -8.6426 O   0  0  0  0  0  0  0  0  0  0  0  0
   23.4524  -34.4766   -8.0451 N   0  0  0  0  0  0  0  0  0  0  0  0
   23.1601  -33.7965   -6.7401 C   0  0  1  0  0  0  0  0  0  0  0  0
   21.7803  -34.1052   -6.3598 C   0  0  0  0  0  0  0  0  0  0  0  0
   20.7183  -33.2897   -6.9930 C   0  0  0  0  0  0  0  0  0  0  0  0
   20.1599  -33.2833   -8.2131 C   0  0  0  0  0  0  0  0  0  0  0  0
   19.1586  -32.3808   -8.2626 N   0  0  0  0  0  0  0  0  0  0  0  0
   19.0257  -31.7671   -7.0813 C   0  0  0  0  0  0  0  0  0  0  0  0
   18.1572  -30.7726   -6.6185 C   0  0  0  0  0  0  0  0  0  0  0  0
   18.2781  -30.3407   -5.3169 C   0  0  0  0  0  0  0  0  0  0  0  0
   19.2369  -30.8825   -4.4943 C   0  0  0  0  0  0  0  0  0  0  0  0
   20.0988  -31.8778   -4.9732 C   0  0  0  0  0  0  0  0  0  0  0  0
   19.9775  -32.3092   -6.2755 C   0  0  0  0  0  0  0  0  0  0  0  0
   24.2360  -34.4064   -5.8976 C   0  0  0  0  0  0  0  0  0  0  0  0
   24.2051  -35.6970   -5.9130 O   0  0  0  0  0  0  0  0  0  0  0  0
   27.8002  -32.6252   -4.5025 C   0  0  0  0  0  0  0  0  0  0  0  0
   27.6384  -34.1140   -4.8140 C   0  0  1  0  0  0  0  0  0  0  0  0
   28.7244  -34.8227   -4.0460 C   0  0  0  0  0  0  0  0  0  0  0  0
   26.2523  -34.5762   -4.4966 C   0  0  2  0  0  0  0  0  0  0  0  0
   25.2061  -33.7935   -5.1323 N   0  0  0  0  0  0  0  0  0  0  0  0
   26.0122  -34.5280   -3.0227 C   0  0  0  0  0  0  0  0  0  0  0  0
   26.5365  -35.4819   -2.1849 O   0  0  0  0  0  0  0  0  0  0  0  0
   25.3319  -33.6153   -2.5452 O   0  0  0  0  0  0  0  0  0  0  0  0
  2  1  1  6
  3  2  1  0
  4  2  1  0
  4  5  2  0
  6  4  1  0
  7  6  1  0
  7  8  1  1
  9  8  1  0
  9 17  1  0
 10 11  1  0
 10  9  2  0
 11 12  1  0
 12 13  1  0
 12 17  2  0
 13 14  2  0
 14 15  1  0
 16 15  2  0
 17 16  1  0
 18  7  1  0
 19 18  2  0
 21 20  1  1
 21 23  1  0
 22 21  1  0
 23 25  1  0
 23 24  1  6
 24 18  1  0
 25 26  1  0
 27 25  2  0
M  END
$$$$
