AWV.pdb
     RDKit          3D

 27 28  0  0  1  0  0  0  0  0999 V2000
   29.0235  -21.9494  -14.6377 C   0  0  0  0  0  0  0  0  0  0  0  0
   27.8127  -21.0413  -14.6333 C   0  0  2  0  0  0  0  0  0  0  0  0
   28.1835  -19.6528  -14.5066 N   0  0  0  0  0  0  0  0  0  0  0  0
   26.8803  -21.3918  -13.5358 C   0  0  0  0  0  0  0  0  0  0  0  0
   26.3183  -22.5095  -13.4390 O   0  0  0  0  0  0  0  0  0  0  0  0
   26.5956  -20.4327  -12.5347 N   0  0  0  0  0  0  0  0  0  0  0  0
   25.7721  -20.8516  -11.3526 C   0  0  1  0  0  0  0  0  0  0  0  0
   26.2380  -20.1075  -10.1809 C   0  0  0  0  0  0  0  0  0  0  0  0
   27.4805  -20.5923   -9.5368 C   0  0  0  0  0  0  0  0  0  0  0  0
   28.5008  -21.3580   -9.9531 C   0  0  0  0  0  0  0  0  0  0  0  0
   29.4438  -21.4405   -8.9922 N   0  0  0  0  0  0  0  0  0  0  0  0
   29.0766  -20.7341   -7.9172 C   0  0  0  0  0  0  0  0  0  0  0  0
   29.6851  -20.5008   -6.6790 C   0  0  0  0  0  0  0  0  0  0  0  0
   29.0341  -19.7093   -5.7596 C   0  0  0  0  0  0  0  0  0  0  0  0
   27.8097  -19.1622   -6.0613 C   0  0  0  0  0  0  0  0  0  0  0  0
   27.2141  -19.4055   -7.3059 C   0  0  0  0  0  0  0  0  0  0  0  0
   27.8656  -20.1975   -8.2250 C   0  0  0  0  0  0  0  0  0  0  0  0
   24.4099  -20.5032  -11.8651 C   0  0  0  0  0  0  0  0  0  0  0  0
   24.2903  -19.2473  -12.1391 O   0  0  0  0  0  0  0  0  0  0  0  0
   22.6981  -21.4209  -14.9805 C   0  0  0  0  0  0  0  0  0  0  0  0
   21.6417  -21.5063  -13.8776 C   0  0  1  0  0  0  0  0  0  0  0  0
   21.3694  -22.9743  -13.6717 C   0  0  0  0  0  0  0  0  0  0  0  0
   22.0942  -20.7817  -12.6504 C   0  0  2  0  0  0  0  0  0  0  0  0
   23.3118  -21.3141  -12.0627 N   0  0  0  0  0  0  0  0  0  0  0  0
   21.0343  -20.8273  -11.5985 C   0  0  0  0  0  0  0  0  0  0  0  0
   19.8275  -20.1958  -11.7765 O   0  0  0  0  0  0  0  0  0  0  0  0
   21.2424  -21.4436  -10.5493 O   0  0  0  0  0  0  0  0  0  0  0  0
  2  1  1  1
  3  2  1  0
  4  2  1  0
  4  5  2  0
  6  4  1  0
  7  6  1  0
  7  8  1  1
  9  8  1  0
  9 17  1  0
 10 11  1  0
 10  9  2  0
 11 12  1  0
 12 13  1  0
 12 17  2  0
 13 14  2  0
 14 15  1  0
 16 15  2  0
 17 16  1  0
 18  7  1  0
 19 18  2  0
 21 20  1  6
 21 23  1  0
 22 21  1  0
 23 25  1  0
 23 24  1  1
 24 18  1  0
 25 26  1  0
 27 25  2  0
M  END
$$$$
