AWV.pdb
     RDKit          3D

 27 28  0  0  1  0  0  0  0  0999 V2000
   29.4724  -19.7146  -12.5385 C   0  0  0  0  0  0  0  0  0  0  0  0
   29.6356  -20.2274  -11.1239 C   0  0  2  0  0  0  0  0  0  0  0  0
   30.7269  -21.1647  -11.0152 N   0  0  0  0  0  0  0  0  0  0  0  0
   28.3944  -20.8765  -10.6394 C   0  0  0  0  0  0  0  0  0  0  0  0
   28.1770  -22.1084  -10.7376 O   0  0  0  0  0  0  0  0  0  0  0  0
   27.3903  -20.0861  -10.0310 N   0  0  0  0  0  0  0  0  0  0  0  0
   26.1646  -20.7677   -9.4983 C   0  0  1  0  0  0  0  0  0  0  0  0
   25.7977  -20.1302   -8.2322 C   0  0  0  0  0  0  0  0  0  0  0  0
   26.8969  -19.5088   -7.4582 C   0  0  0  0  0  0  0  0  0  0  0  0
   27.5195  -18.3219   -7.5241 C   0  0  0  0  0  0  0  0  0  0  0  0
   28.4167  -18.2101   -6.5232 N   0  0  0  0  0  0  0  0  0  0  0  0
   28.4132  -19.3148   -5.7687 C   0  0  0  0  0  0  0  0  0  0  0  0
   29.1406  -19.6950   -4.6356 C   0  0  0  0  0  0  0  0  0  0  0  0
   28.9003  -20.9307   -4.0781 C   0  0  0  0  0  0  0  0  0  0  0  0
   27.9613  -21.7685   -4.6310 C   0  0  0  0  0  0  0  0  0  0  0  0
   27.2413  -21.3725   -5.7657 C   0  0  0  0  0  0  0  0  0  0  0  0
   27.4823  -20.1365   -6.3231 C   0  0  0  0  0  0  0  0  0  0  0  0
   25.2369  -20.5435  -10.6509 C   0  0  0  0  0  0  0  0  0  0  0  0
   25.4012  -19.3872  -11.2010 O   0  0  0  0  0  0  0  0  0  0  0  0
   25.1063  -22.1659  -13.9183 C   0  0  0  0  0  0  0  0  0  0  0  0
   23.6495  -21.9944  -13.4845 C   0  0  1  0  0  0  0  0  0  0  0  0
   23.1500  -23.3742  -13.1407 C   0  0  0  0  0  0  0  0  0  0  0  0
   23.5390  -21.0005  -12.3729 C   0  0  2  0  0  0  0  0  0  0  0  0
   24.2648  -21.3727  -11.1704 N   0  0  0  0  0  0  0  0  0  0  0  0
   22.1084  -20.8066  -11.9882 C   0  0  0  0  0  0  0  0  0  0  0  0
   21.1960  -20.2928  -12.8773 O   0  0  0  0  0  0  0  0  0  0  0  0
   21.7353  -21.1136  -10.8523 O   0  0  0  0  0  0  0  0  0  0  0  0
  2  1  1  6
  3  2  1  0
  4  2  1  0
  4  5  2  0
  6  4  1  0
  7  6  1  0
  7  8  1  1
  9  8  1  0
  9 17  1  0
 10 11  1  0
 10  9  2  0
 11 12  1  0
 12 13  1  0
 12 17  2  0
 13 14  2  0
 14 15  1  0
 16 15  2  0
 17 16  1  0
 18  7  1  0
 19 18  2  0
 21 20  1  1
 21 23  1  0
 22 21  1  0
 23 25  1  0
 23 24  1  1
 24 18  1  0
 25 26  1  0
 27 25  2  0
M  END
$$$$
