AWV.pdb
     RDKit          3D

 27 28  0  0  1  0  0  0  0  0999 V2000
   26.0130  -18.0933  -18.6234 C   0  0  0  0  0  0  0  0  0  0  0  0
   27.2575  -18.3131  -17.7906 C   0  0  2  0  0  0  0  0  0  0  0  0
   28.3595  -18.7929  -18.5886 N   0  0  0  0  0  0  0  0  0  0  0  0
   27.0068  -19.2739  -16.6902 C   0  0  0  0  0  0  0  0  0  0  0  0
   26.8426  -20.5043  -16.8732 O   0  0  0  0  0  0  0  0  0  0  0  0
   26.9464  -18.8015  -15.3575 N   0  0  0  0  0  0  0  0  0  0  0  0
   26.8844  -19.8038  -14.2427 C   0  0  1  0  0  0  0  0  0  0  0  0
   27.6654  -19.2880  -13.1168 C   0  0  0  0  0  0  0  0  0  0  0  0
   27.9208  -20.2266  -11.9999 C   0  0  0  0  0  0  0  0  0  0  0  0
   28.7788  -21.2430  -11.8228 C   0  0  0  0  0  0  0  0  0  0  0  0
   28.6641  -21.7374  -10.5730 N   0  0  0  0  0  0  0  0  0  0  0  0
   27.7313  -21.0647   -9.8897 C   0  0  0  0  0  0  0  0  0  0  0  0
   27.2401  -21.1799   -8.5847 C   0  0  0  0  0  0  0  0  0  0  0  0
   26.2514  -20.3161   -8.1703 C   0  0  0  0  0  0  0  0  0  0  0  0
   25.7624  -19.3609   -9.0293 C   0  0  0  0  0  0  0  0  0  0  0  0
   26.2652  -19.2587  -10.3330 C   0  0  0  0  0  0  0  0  0  0  0  0
   27.2539  -20.1233  -10.7470 C   0  0  0  0  0  0  0  0  0  0  0  0
   25.4016  -19.8684  -14.0513 C   0  0  0  0  0  0  0  0  0  0  0  0
   24.8252  -18.7327  -14.2628 O   0  0  0  0  0  0  0  0  0  0  0  0
   22.7836  -23.1998  -14.1294 C   0  0  0  0  0  0  0  0  0  0  0  0
   22.4122  -21.7560  -14.4718 C   0  0  1  0  0  0  0  0  0  0  0  0
   20.9130  -21.6681  -14.3448 C   0  0  0  0  0  0  0  0  0  0  0  0
   23.1647  -20.7944  -13.6089 C   0  0  2  0  0  0  0  0  0  0  0  0
   24.6089  -20.9356  -13.6836 N   0  0  0  0  0  0  0  0  0  0  0  0
   22.7735  -20.9640  -12.1769 C   0  0  0  0  0  0  0  0  0  0  0  0
   21.5180  -20.6220  -11.7371 O   0  0  0  0  0  0  0  0  0  0  0  0
   23.5901  -21.4205  -11.3715 O   0  0  0  0  0  0  0  0  0  0  0  0
  2  1  1  6
  3  2  1  0
  4  2  1  0
  4  5  2  0
  6  4  1  0
  7  6  1  0
  7  8  1  1
  9  8  1  0
  9 17  1  0
 10 11  1  0
 10  9  2  0
 11 12  1  0
 12 13  1  0
 12 17  2  0
 13 14  2  0
 14 15  1  0
 16 15  2  0
 17 16  1  0
 18  7  1  0
 19 18  2  0
 21 20  1  1
 21 23  1  0
 22 21  1  0
 23 25  1  0
 23 24  1  1
 24 18  1  0
 25 26  1  0
 27 25  2  0
M  END
$$$$
