AWV.pdb
     RDKit          3D

 27 28  0  0  1  0  0  0  0  0999 V2000
   28.6240  -25.0481  -16.5858 C   0  0  0  0  0  0  0  0  0  0  0  0
   28.4069  -23.7604  -17.3510 C   0  0  2  0  0  0  0  0  0  0  0  0
   29.4136  -23.5626  -18.3653 N   0  0  0  0  0  0  0  0  0  0  0  0
   28.4021  -22.5885  -16.4435 C   0  0  0  0  0  0  0  0  0  0  0  0
   29.4090  -22.2147  -15.7948 O   0  0  0  0  0  0  0  0  0  0  0  0
   27.2126  -21.8380  -16.2864 N   0  0  0  0  0  0  0  0  0  0  0  0
   27.2747  -20.5445  -15.5286 C   0  0  1  0  0  0  0  0  0  0  0  0
   26.6607  -19.5001  -16.3508 C   0  0  0  0  0  0  0  0  0  0  0  0
   26.3913  -18.2041  -15.6865 C   0  0  0  0  0  0  0  0  0  0  0  0
   27.0541  -17.4758  -14.7750 C   0  0  0  0  0  0  0  0  0  0  0  0
   26.4129  -16.3097  -14.5543 N   0  0  0  0  0  0  0  0  0  0  0  0
   25.3123  -16.2328  -15.3109 C   0  0  0  0  0  0  0  0  0  0  0  0
   24.3226  -15.2541  -15.4534 C   0  0  0  0  0  0  0  0  0  0  0  0
   23.2905  -15.4795  -16.3363 C   0  0  0  0  0  0  0  0  0  0  0  0
   23.2417  -16.6468  -17.0604 C   0  0  0  0  0  0  0  0  0  0  0  0
   24.2408  -17.6167  -16.9060 C   0  0  0  0  0  0  0  0  0  0  0  0
   25.2728  -17.3909  -16.0225 C   0  0  0  0  0  0  0  0  0  0  0  0
   26.5293  -20.9456  -14.2945 C   0  0  0  0  0  0  0  0  0  0  0  0
   25.6767  -21.8895  -14.5159 O   0  0  0  0  0  0  0  0  0  0  0  0
   26.4616  -19.2141  -10.3257 C   0  0  0  0  0  0  0  0  0  0  0  0
   26.3023  -20.7153  -10.5723 C   0  0  1  0  0  0  0  0  0  0  0  0
   25.4202  -21.2300   -9.4639 C   0  0  0  0  0  0  0  0  0  0  0  0
   25.7822  -20.9757  -11.9498 C   0  0  2  0  0  0  0  0  0  0  0  0
   26.6247  -20.4504  -13.0107 N   0  0  0  0  0  0  0  0  0  0  0  0
   24.4260  -20.3718  -12.1170 C   0  0  0  0  0  0  0  0  0  0  0  0
   23.2912  -21.0643  -11.7710 O   0  0  0  0  0  0  0  0  0  0  0  0
   24.3189  -19.2296  -12.5728 O   0  0  0  0  0  0  0  0  0  0  0  0
  2  1  1  1
  3  2  1  0
  4  2  1  0
  4  5  2  0
  6  4  1  0
  7  6  1  0
  7  8  1  6
  9  8  1  0
  9 17  1  0
 10 11  1  0
 10  9  2  0
 11 12  1  0
 12 13  1  0
 12 17  2  0
 13 14  2  0
 14 15  1  0
 16 15  2  0
 17 16  1  0
 18  7  1  0
 19 18  2  0
 21 20  1  1
 21 23  1  0
 22 21  1  0
 23 25  1  0
 23 24  1  6
 24 18  1  0
 25 26  1  0
 27 25  2  0
M  END
$$$$
