AWV.pdb
     RDKit          3D

 27 28  0  0  1  0  0  0  0  0999 V2000
   27.7422  -19.5299  -15.1772 C   0  0  0  0  0  0  0  0  0  0  0  0
   28.3919  -20.6725  -14.4269 C   0  0  2  0  0  0  0  0  0  0  0  0
   28.6022  -21.8207  -15.2747 N   0  0  0  0  0  0  0  0  0  0  0  0
   27.5782  -21.0811  -13.2574 C   0  0  0  0  0  0  0  0  0  0  0  0
   26.7242  -21.9995  -13.2987 O   0  0  0  0  0  0  0  0  0  0  0  0
   27.7576  -20.4159  -12.0212 N   0  0  0  0  0  0  0  0  0  0  0  0
   26.9846  -20.8965  -10.8285 C   0  0  1  0  0  0  0  0  0  0  0  0
   27.6252  -20.3686   -9.6224 C   0  0  0  0  0  0  0  0  0  0  0  0
   26.9142  -20.5886   -8.3419 C   0  0  0  0  0  0  0  0  0  0  0  0
   25.7615  -21.1930   -8.0152 C   0  0  0  0  0  0  0  0  0  0  0  0
   25.5979  -21.1919   -6.6762 N   0  0  0  0  0  0  0  0  0  0  0  0
   26.6336  -20.5900   -6.0808 C   0  0  0  0  0  0  0  0  0  0  0  0
   26.9416  -20.3318   -4.7406 C   0  0  0  0  0  0  0  0  0  0  0  0
   28.1144  -19.6739   -4.4453 C   0  0  0  0  0  0  0  0  0  0  0  0
   28.9611  -19.2821   -5.4547 C   0  0  0  0  0  0  0  0  0  0  0  0
   28.6380  -19.5485   -6.7917 C   0  0  0  0  0  0  0  0  0  0  0  0
   27.4646  -20.2063   -7.0865 C   0  0  0  0  0  0  0  0  0  0  0  0
   25.6377  -20.3387  -11.1664 C   0  0  0  0  0  0  0  0  0  0  0  0
   25.6772  -19.0759  -11.4318 O   0  0  0  0  0  0  0  0  0  0  0  0
   22.7314  -22.4172  -13.1521 C   0  0  0  0  0  0  0  0  0  0  0  0
   22.9849  -20.9111  -13.2368 C   0  0  1  0  0  0  0  0  0  0  0  0
   21.7714  -20.3196  -13.9070 C   0  0  0  0  0  0  0  0  0  0  0  0
   23.2840  -20.3454  -11.8854 C   0  0  2  0  0  0  0  0  0  0  0  0
   24.4128  -20.9707  -11.2174 N   0  0  0  0  0  0  0  0  0  0  0  0
   22.0989  -20.4888  -10.9871 C   0  0  0  0  0  0  0  0  0  0  0  0
   22.1388  -21.3025   -9.8810 O   0  0  0  0  0  0  0  0  0  0  0  0
   21.0635  -19.8657  -11.2391 O   0  0  0  0  0  0  0  0  0  0  0  0
  2  1  1  6
  3  2  1  0
  4  2  1  0
  4  5  2  0
  6  4  1  0
  7  6  1  0
  7  8  1  1
  9  8  1  0
  9 17  1  0
 10 11  1  0
 10  9  2  0
 11 12  1  0
 12 13  1  0
 12 17  2  0
 13 14  2  0
 14 15  1  0
 16 15  2  0
 17 16  1  0
 18  7  1  0
 19 18  2  0
 21 20  1  1
 21 23  1  0
 22 21  1  0
 23 25  1  0
 23 24  1  1
 24 18  1  0
 25 26  1  0
 27 25  2  0
M  END
$$$$
