AWV.pdb
     RDKit          3D

 27 28  0  0  1  0  0  0  0  0999 V2000
   27.3019  -20.4234  -16.9908 C   0  0  0  0  0  0  0  0  0  0  0  0
   27.8325  -21.4906  -16.0579 C   0  0  2  0  0  0  0  0  0  0  0  0
   27.9678  -22.7646  -16.7213 N   0  0  0  0  0  0  0  0  0  0  0  0
   26.9560  -21.6558  -14.8741 C   0  0  0  0  0  0  0  0  0  0  0  0
   26.0629  -22.5335  -14.7945 O   0  0  0  0  0  0  0  0  0  0  0  0
   27.1179  -20.7912  -13.7653 N   0  0  0  0  0  0  0  0  0  0  0  0
   26.3881  -21.1101  -12.4938 C   0  0  1  0  0  0  0  0  0  0  0  0
   27.0505  -20.4053  -11.3945 C   0  0  0  0  0  0  0  0  0  0  0  0
   26.3547  -20.4104  -10.0870 C   0  0  0  0  0  0  0  0  0  0  0  0
   25.0925  -20.6679   -9.7112 C   0  0  0  0  0  0  0  0  0  0  0  0
   24.9858  -20.6127   -8.3677 N   0  0  0  0  0  0  0  0  0  0  0  0
   26.1695  -20.3191   -7.8180 C   0  0  0  0  0  0  0  0  0  0  0  0
   26.5870  -20.1483   -6.4935 C   0  0  0  0  0  0  0  0  0  0  0  0
   27.9067  -19.8410   -6.2493 C   0  0  0  0  0  0  0  0  0  0  0  0
   28.7906  -19.7070   -7.2935 C   0  0  0  0  0  0  0  0  0  0  0  0
   28.3564  -19.8814   -8.6140 C   0  0  0  0  0  0  0  0  0  0  0  0
   27.0362  -20.1884   -8.8577 C   0  0  0  0  0  0  0  0  0  0  0  0
   25.0211  -20.6287  -12.8665 C   0  0  0  0  0  0  0  0  0  0  0  0
   25.0293  -19.4224  -13.3265 O   0  0  0  0  0  0  0  0  0  0  0  0
   22.1039  -22.6841  -14.6266 C   0  0  0  0  0  0  0  0  0  0  0  0
   22.1538  -21.1553  -14.6121 C   0  0  1  0  0  0  0  0  0  0  0  0
   20.7853  -20.6879  -15.0365 C   0  0  0  0  0  0  0  0  0  0  0  0
   22.5943  -20.6503  -13.2754 C   0  0  2  0  0  0  0  0  0  0  0  0
   23.8066  -21.2760  -12.7752 N   0  0  0  0  0  0  0  0  0  0  0  0
   21.5245  -20.8729  -12.2565 C   0  0  0  0  0  0  0  0  0  0  0  0
   20.3774  -20.1173  -12.2526 O   0  0  0  0  0  0  0  0  0  0  0  0
   21.6696  -21.7516  -11.4017 O   0  0  0  0  0  0  0  0  0  0  0  0
  2  1  1  6
  3  2  1  0
  4  2  1  0
  4  5  2  0
  6  4  1  0
  7  6  1  0
  7  8  1  1
  9  8  1  0
  9 17  1  0
 10 11  1  0
 10  9  2  0
 11 12  1  0
 12 13  1  0
 12 17  2  0
 13 14  2  0
 14 15  1  0
 16 15  2  0
 17 16  1  0
 18  7  1  0
 19 18  2  0
 21 20  1  1
 21 23  1  0
 22 21  1  0
 23 25  1  0
 23 24  1  1
 24 18  1  0
 25 26  1  0
 27 25  2  0
M  END
$$$$
