AWV.pdb
     RDKit          3D

 27 28  0  0  1  0  0  0  0  0999 V2000
   27.0209  -20.5584  -16.3433 C   0  0  0  0  0  0  0  0  0  0  0  0
   27.8401  -21.0047  -15.1515 C   0  0  2  0  0  0  0  0  0  0  0  0
   28.7554  -22.0653  -15.4961 N   0  0  0  0  0  0  0  0  0  0  0  0
   26.9713  -21.4615  -14.0409 C   0  0  0  0  0  0  0  0  0  0  0  0
   26.5717  -22.6447  -13.9201 O   0  0  0  0  0  0  0  0  0  0  0  0
   26.5603  -20.5330  -13.0550 N   0  0  0  0  0  0  0  0  0  0  0  0
   25.7731  -21.0345  -11.8804 C   0  0  1  0  0  0  0  0  0  0  0  0
   26.1960  -20.2907  -10.6922 C   0  0  0  0  0  0  0  0  0  0  0  0
   27.4325  -20.7556  -10.0225 C   0  0  0  0  0  0  0  0  0  0  0  0
   28.5100  -21.4385  -10.4389 C   0  0  0  0  0  0  0  0  0  0  0  0
   29.4120  -21.5394   -9.4412 N   0  0  0  0  0  0  0  0  0  0  0  0
   28.9597  -20.9282   -8.3405 C   0  0  0  0  0  0  0  0  0  0  0  0
   29.4986  -20.7506   -7.0616 C   0  0  0  0  0  0  0  0  0  0  0  0
   28.7657  -20.0581   -6.1242 C   0  0  0  0  0  0  0  0  0  0  0  0
   27.5285  -19.5539   -6.4477 C   0  0  0  0  0  0  0  0  0  0  0  0
   27.0032  -19.7404   -7.7331 C   0  0  0  0  0  0  0  0  0  0  0  0
   27.7368  -20.4333   -8.6702 C   0  0  0  0  0  0  0  0  0  0  0  0
   24.3880  -20.7641  -12.3780 C   0  0  0  0  0  0  0  0  0  0  0  0
   24.2168  -19.5311  -12.7202 O   0  0  0  0  0  0  0  0  0  0  0  0
   20.3700  -21.4374  -14.9128 C   0  0  0  0  0  0  0  0  0  0  0  0
   21.6566  -21.9926  -14.2994 C   0  0  1  0  0  0  0  0  0  0  0  0
   22.6663  -22.0407  -15.4173 C   0  0  0  0  0  0  0  0  0  0  0  0
   22.0777  -21.1776  -13.1186 C   0  0  2  0  0  0  0  0  0  0  0  0
   23.3157  -21.6228  -12.5020 N   0  0  0  0  0  0  0  0  0  0  0  0
   21.0196  -21.2038  -12.0641 C   0  0  0  0  0  0  0  0  0  0  0  0
   19.9825  -20.3032  -12.0743 O   0  0  0  0  0  0  0  0  0  0  0  0
   21.0741  -22.0494  -11.1663 O   0  0  0  0  0  0  0  0  0  0  0  0
  2  1  1  6
  3  2  1  0
  4  2  1  0
  4  5  2  0
  6  4  1  0
  7  6  1  0
  7  8  1  1
  9  8  1  0
  9 17  1  0
 10 11  1  0
 10  9  2  0
 11 12  1  0
 12 13  1  0
 12 17  2  0
 13 14  2  0
 14 15  1  0
 16 15  2  0
 17 16  1  0
 18  7  1  0
 19 18  2  0
 21 20  1  6
 21 23  1  0
 22 21  1  0
 23 25  1  0
 23 24  1  1
 24 18  1  0
 25 26  1  0
 27 25  2  0
M  END
$$$$
