AWV.pdb
     RDKit          3D

 27 28  0  0  1  0  0  0  0  0999 V2000
   22.8779  -19.9662  -12.9022 C   0  0  0  0  0  0  0  0  0  0  0  0
   24.3720  -19.9247  -12.6639 C   0  0  2  0  0  0  0  0  0  0  0  0
   25.1052  -20.5363  -13.7454 N   0  0  0  0  0  0  0  0  0  0  0  0
   24.7343  -20.5998  -11.3952 C   0  0  0  0  0  0  0  0  0  0  0  0
   24.8155  -21.8463  -11.2762 O   0  0  0  0  0  0  0  0  0  0  0  0
   25.0077  -19.8184  -10.2473 N   0  0  0  0  0  0  0  0  0  0  0  0
   25.6094  -20.4901   -9.0482 C   0  0  1  0  0  0  0  0  0  0  0  0
   26.6094  -19.5901   -8.4706 C   0  0  0  0  0  0  0  0  0  0  0  0
   27.7505  -20.2254   -7.7720 C   0  0  0  0  0  0  0  0  0  0  0  0
   28.6086  -21.2033   -8.1006 C   0  0  0  0  0  0  0  0  0  0  0  0
   29.5327  -21.3580   -7.1302 N   0  0  0  0  0  0  0  0  0  0  0  0
   29.3141  -20.4900   -6.1361 C   0  0  0  0  0  0  0  0  0  0  0  0
   29.9704  -20.2463   -4.9246 C   0  0  0  0  0  0  0  0  0  0  0  0
   29.4864  -19.2592   -4.0959 C   0  0  0  0  0  0  0  0  0  0  0  0
   28.3788  -18.5313   -4.4603 C   0  0  0  0  0  0  0  0  0  0  0  0
   27.7333  -18.7877   -5.6770 C   0  0  0  0  0  0  0  0  0  0  0  0
   28.2177  -19.7754   -6.5054 C   0  0  0  0  0  0  0  0  0  0  0  0
   24.3686  -20.7132   -8.2419 C   0  0  0  0  0  0  0  0  0  0  0  0
   23.5445  -19.7222   -8.3170 O   0  0  0  0  0  0  0  0  0  0  0  0
   20.7456  -23.0991   -5.9979 C   0  0  0  0  0  0  0  0  0  0  0  0
   22.0457  -23.1388   -6.8028 C   0  0  1  0  0  0  0  0  0  0  0  0
   21.6682  -23.6079   -8.1845 C   0  0  0  0  0  0  0  0  0  0  0  0
   22.7350  -21.8125   -6.7654 C   0  0  2  0  0  0  0  0  0  0  0  0
   24.0136  -21.7892   -7.4553 N   0  0  0  0  0  0  0  0  0  0  0  0
   22.9829  -21.3944   -5.3526 C   0  0  0  0  0  0  0  0  0  0  0  0
   24.2483  -21.4072   -4.8184 O   0  0  0  0  0  0  0  0  0  0  0  0
   22.0362  -21.0289   -4.6497 O   0  0  0  0  0  0  0  0  0  0  0  0
  2  1  1  6
  3  2  1  0
  4  2  1  0
  4  5  2  0
  6  4  1  0
  7  6  1  0
  7  8  1  1
  9  8  1  0
  9 17  1  0
 10 11  1  0
 10  9  2  0
 11 12  1  0
 12 13  1  0
 12 17  2  0
 13 14  2  0
 14 15  1  0
 16 15  2  0
 17 16  1  0
 18  7  1  0
 19 18  2  0
 21 20  1  1
 21 23  1  0
 22 21  1  0
 23 25  1  0
 23 24  1  6
 24 18  1  0
 25 26  1  0
 27 25  2  0
M  END
$$$$
