AWV.pdb
     RDKit          3D

 27 28  0  0  1  0  0  0  0  0999 V2000
   26.9510  -20.8032  -16.6765 C   0  0  0  0  0  0  0  0  0  0  0  0
   27.7556  -20.6763  -15.4008 C   0  0  2  0  0  0  0  0  0  0  0  0
   28.9920  -21.4163  -15.4701 N   0  0  0  0  0  0  0  0  0  0  0  0
   26.9810  -21.1432  -14.2265 C   0  0  0  0  0  0  0  0  0  0  0  0
   26.5730  -22.3224  -14.0942 O   0  0  0  0  0  0  0  0  0  0  0  0
   26.6757  -20.2299  -13.1894 N   0  0  0  0  0  0  0  0  0  0  0  0
   26.0319  -20.7524  -11.9391 C   0  0  1  0  0  0  0  0  0  0  0  0
   26.5125  -19.9571  -10.8076 C   0  0  0  0  0  0  0  0  0  0  0  0
   27.6015  -20.5472   -9.9955 C   0  0  0  0  0  0  0  0  0  0  0  0
   28.6718  -21.3009  -10.2904 C   0  0  0  0  0  0  0  0  0  0  0  0
   29.4118  -21.5131   -9.1828 N   0  0  0  0  0  0  0  0  0  0  0  0
   28.8553  -20.9078   -8.1276 C   0  0  0  0  0  0  0  0  0  0  0  0
   29.2182  -20.8229   -6.7790 C   0  0  0  0  0  0  0  0  0  0  0  0
   28.4143  -20.1075   -5.9204 C   0  0  0  0  0  0  0  0  0  0  0  0
   27.2783  -19.4910   -6.3883 C   0  0  0  0  0  0  0  0  0  0  0  0
   26.9290  -19.5855   -7.7417 C   0  0  0  0  0  0  0  0  0  0  0  0
   27.7335  -20.3016   -8.6000 C   0  0  0  0  0  0  0  0  0  0  0  0
   24.5929  -20.5798  -12.3117 C   0  0  0  0  0  0  0  0  0  0  0  0
   24.3370  -19.3979  -12.7640 O   0  0  0  0  0  0  0  0  0  0  0  0
   21.9437  -23.5884  -13.3918 C   0  0  0  0  0  0  0  0  0  0  0  0
   21.8586  -22.1494  -13.9035 C   0  0  1  0  0  0  0  0  0  0  0  0
   20.4501  -21.9673  -14.4081 C   0  0  0  0  0  0  0  0  0  0  0  0
   22.2655  -21.1814  -12.8390 C   0  0  2  0  0  0  0  0  0  0  0  0
   23.5496  -21.4781  -12.2273 N   0  0  0  0  0  0  0  0  0  0  0  0
   21.2472  -21.1512  -11.7461 C   0  0  0  0  0  0  0  0  0  0  0  0
   21.5066  -21.7060  -10.5165 O   0  0  0  0  0  0  0  0  0  0  0  0
   20.1522  -20.6180  -11.9472 O   0  0  0  0  0  0  0  0  0  0  0  0
  2  1  1  6
  3  2  1  0
  4  2  1  0
  4  5  2  0
  6  4  1  0
  7  6  1  0
  7  8  1  1
  9  8  1  0
  9 17  1  0
 10 11  1  0
 10  9  2  0
 11 12  1  0
 12 13  1  0
 12 17  2  0
 13 14  2  0
 14 15  1  0
 16 15  2  0
 17 16  1  0
 18  7  1  0
 19 18  2  0
 21 20  1  1
 21 23  1  0
 22 21  1  0
 23 25  1  0
 23 24  1  1
 24 18  1  0
 25 26  1  0
 27 25  2  0
M  END
$$$$
