AWV.pdb
     RDKit          3D

 27 28  0  0  1  0  0  0  0  0999 V2000
   27.5757  -19.4049  -15.1259 C   0  0  0  0  0  0  0  0  0  0  0  0
   28.1952  -20.3785  -14.1467 C   0  0  2  0  0  0  0  0  0  0  0  0
   28.8716  -21.4601  -14.8204 N   0  0  0  0  0  0  0  0  0  0  0  0
   27.1758  -20.9447  -13.2318 C   0  0  0  0  0  0  0  0  0  0  0  0
   26.5997  -22.0407  -13.4351 O   0  0  0  0  0  0  0  0  0  0  0  0
   26.8196  -20.2304  -12.0632 N   0  0  0  0  0  0  0  0  0  0  0  0
   25.9129  -20.8906  -11.0666 C   0  0  1  0  0  0  0  0  0  0  0  0
   26.2227  -20.3566   -9.7389 C   0  0  0  0  0  0  0  0  0  0  0  0
   27.4950  -20.8007   -9.1245 C   0  0  0  0  0  0  0  0  0  0  0  0
   28.4944  -21.5954   -9.5372 C   0  0  0  0  0  0  0  0  0  0  0  0
   29.4827  -21.6161   -8.6194 N   0  0  0  0  0  0  0  0  0  0  0  0
   29.1674  -20.8384   -7.5776 C   0  0  0  0  0  0  0  0  0  0  0  0
   29.8348  -20.5247   -6.3885 C   0  0  0  0  0  0  0  0  0  0  0  0
   29.2285  -19.6717   -5.4939 C   0  0  0  0  0  0  0  0  0  0  0  0
   27.9908  -19.1426   -5.7722 C   0  0  0  0  0  0  0  0  0  0  0  0
   27.3360  -19.4668   -6.9676 C   0  0  0  0  0  0  0  0  0  0  0  0
   27.9428  -20.3203   -7.8620 C   0  0  0  0  0  0  0  0  0  0  0  0
   24.5878  -20.5071  -11.6467 C   0  0  0  0  0  0  0  0  0  0  0  0
   24.5029  -19.2429  -11.8942 O   0  0  0  0  0  0  0  0  0  0  0  0
   23.2251  -21.4153  -14.8756 C   0  0  0  0  0  0  0  0  0  0  0  0
   22.0321  -21.4566  -13.9192 C   0  0  1  0  0  0  0  0  0  0  0  0
   21.6780  -22.9123  -13.7544 C   0  0  0  0  0  0  0  0  0  0  0  0
   22.3497  -20.7475  -12.6417 C   0  0  2  0  0  0  0  0  0  0  0  0
   23.4909  -21.2947  -11.9279 N   0  0  0  0  0  0  0  0  0  0  0  0
   21.1790  -20.7955  -11.7147 C   0  0  0  0  0  0  0  0  0  0  0  0
   20.0018  -20.1576  -12.0217 O   0  0  0  0  0  0  0  0  0  0  0  0
   21.2667  -21.4196  -10.6533 O   0  0  0  0  0  0  0  0  0  0  0  0
  2  1  1  6
  3  2  1  0
  4  2  1  0
  4  5  2  0
  6  4  1  0
  7  6  1  0
  7  8  1  1
  9  8  1  0
  9 17  1  0
 10 11  1  0
 10  9  2  0
 11 12  1  0
 12 13  1  0
 12 17  2  0
 13 14  2  0
 14 15  1  0
 16 15  2  0
 17 16  1  0
 18  7  1  0
 19 18  2  0
 21 20  1  6
 21 23  1  0
 22 21  1  0
 23 25  1  0
 23 24  1  1
 24 18  1  0
 25 26  1  0
 27 25  2  0
M  END
$$$$
