AWV.pdb
     RDKit          3D

 27 28  0  0  1  0  0  0  0  0999 V2000
   29.7476  -20.1479  -12.1974 C   0  0  0  0  0  0  0  0  0  0  0  0
   29.8879  -20.5382  -10.7418 C   0  0  2  0  0  0  0  0  0  0  0  0
   30.9524  -21.4910  -10.5417 N   0  0  0  0  0  0  0  0  0  0  0  0
   28.6263  -21.1088  -10.2129 C   0  0  0  0  0  0  0  0  0  0  0  0
   28.4459  -22.3380  -10.0372 O   0  0  0  0  0  0  0  0  0  0  0  0
   27.5581  -20.2414   -9.8817 N   0  0  0  0  0  0  0  0  0  0  0  0
   26.2710  -20.8405   -9.3964 C   0  0  1  0  0  0  0  0  0  0  0  0
   25.9175  -20.2034   -8.1264 C   0  0  0  0  0  0  0  0  0  0  0  0
   27.0296  -19.6112   -7.3479 C   0  0  0  0  0  0  0  0  0  0  0  0
   27.6929  -18.4469   -7.4202 C   0  0  0  0  0  0  0  0  0  0  0  0
   28.5836  -18.3546   -6.4114 N   0  0  0  0  0  0  0  0  0  0  0  0
   28.5350  -19.4501   -5.6453 C   0  0  0  0  0  0  0  0  0  0  0  0
   29.2378  -19.8424   -4.5008 C   0  0  0  0  0  0  0  0  0  0  0  0
   28.9502  -21.0630   -3.9326 C   0  0  0  0  0  0  0  0  0  0  0  0
   27.9886  -21.8744   -4.4860 C   0  0  0  0  0  0  0  0  0  0  0  0
   27.2937  -21.4667   -5.6322 C   0  0  0  0  0  0  0  0  0  0  0  0
   27.5821  -20.2458   -6.2003 C   0  0  0  0  0  0  0  0  0  0  0  0
   25.3947  -20.5243  -10.5675 C   0  0  0  0  0  0  0  0  0  0  0  0
   25.6722  -19.3810  -11.0991 O   0  0  0  0  0  0  0  0  0  0  0  0
   25.2012  -22.1119  -13.8424 C   0  0  0  0  0  0  0  0  0  0  0  0
   23.7546  -21.8006  -13.4550 C   0  0  1  0  0  0  0  0  0  0  0  0
   23.1089  -23.1274  -13.1479 C   0  0  0  0  0  0  0  0  0  0  0  0
   23.7051  -20.8129  -12.3335 C   0  0  2  0  0  0  0  0  0  0  0  0
   24.3672  -21.2602  -11.1199 N   0  0  0  0  0  0  0  0  0  0  0  0
   22.2882  -20.4988  -11.9787 C   0  0  0  0  0  0  0  0  0  0  0  0
   21.4434  -19.9036  -12.8836 O   0  0  0  0  0  0  0  0  0  0  0  0
   21.8648  -20.7786  -10.8534 O   0  0  0  0  0  0  0  0  0  0  0  0
  2  1  1  6
  3  2  1  0
  4  2  1  0
  4  5  2  0
  6  4  1  0
  7  6  1  0
  7  8  1  1
  9  8  1  0
  9 17  1  0
 10 11  1  0
 10  9  2  0
 11 12  1  0
 12 13  1  0
 12 17  2  0
 13 14  2  0
 14 15  1  0
 16 15  2  0
 17 16  1  0
 18  7  1  0
 19 18  2  0
 21 20  1  1
 21 23  1  0
 22 21  1  0
 23 25  1  0
 23 24  1  1
 24 18  1  0
 25 26  1  0
 27 25  2  0
M  END
$$$$
