AWV.pdb
     RDKit          3D

 27 28  0  0  1  0  0  0  0  0999 V2000
   25.7575  -17.6276  -18.1308 C   0  0  0  0  0  0  0  0  0  0  0  0
   26.8710  -18.2513  -17.3173 C   0  0  2  0  0  0  0  0  0  0  0  0
   27.8333  -18.9267  -18.1535 N   0  0  0  0  0  0  0  0  0  0  0  0
   26.3385  -19.2136  -16.3236 C   0  0  0  0  0  0  0  0  0  0  0  0
   25.8913  -20.3450  -16.6305 O   0  0  0  0  0  0  0  0  0  0  0  0
   26.3252  -18.8594  -14.9534 N   0  0  0  0  0  0  0  0  0  0  0  0
   25.9941  -19.9168  -13.9418 C   0  0  1  0  0  0  0  0  0  0  0  0
   26.8176  -19.6892  -12.7527 C   0  0  0  0  0  0  0  0  0  0  0  0
   26.6703  -20.6628  -11.6463 C   0  0  0  0  0  0  0  0  0  0  0  0
   26.6910  -22.0030  -11.5837 C   0  0  0  0  0  0  0  0  0  0  0  0
   26.5883  -22.4114  -10.3023 N   0  0  0  0  0  0  0  0  0  0  0  0
   26.4978  -21.3576   -9.4833 C   0  0  0  0  0  0  0  0  0  0  0  0
   26.3748  -21.2401   -8.0945 C   0  0  0  0  0  0  0  0  0  0  0  0
   26.3017  -19.9821   -7.5400 C   0  0  0  0  0  0  0  0  0  0  0  0
   26.3498  -18.8679   -8.3435 C   0  0  0  0  0  0  0  0  0  0  0  0
   26.4732  -19.0028   -9.7325 C   0  0  0  0  0  0  0  0  0  0  0  0
   26.5460  -20.2615  -10.2866 C   0  0  0  0  0  0  0  0  0  0  0  0
   24.5263  -19.6660  -13.7941 C   0  0  0  0  0  0  0  0  0  0  0  0
   24.2389  -18.4076  -13.7708 O   0  0  0  0  0  0  0  0  0  0  0  0
   21.7056  -19.8738  -15.9392 C   0  0  0  0  0  0  0  0  0  0  0  0
   21.2050  -20.4628  -14.6193 C   0  0  1  0  0  0  0  0  0  0  0  0
   21.0524  -21.9439  -14.8532 C   0  0  0  0  0  0  0  0  0  0  0  0
   22.1231  -20.1044  -13.4948 C   0  0  2  0  0  0  0  0  0  0  0  0
   23.4888  -20.5670  -13.6740 N   0  0  0  0  0  0  0  0  0  0  0  0
   21.6222  -20.6799  -12.2103 C   0  0  0  0  0  0  0  0  0  0  0  0
   20.5433  -20.1336  -11.5587 O   0  0  0  0  0  0  0  0  0  0  0  0
   22.1844  -21.6648  -11.7229 O   0  0  0  0  0  0  0  0  0  0  0  0
  2  1  1  6
  3  2  1  0
  4  2  1  0
  4  5  2  0
  6  4  1  0
  7  6  1  0
  7  8  1  1
  9  8  1  0
  9 17  1  0
 10 11  1  0
 10  9  2  0
 11 12  1  0
 12 13  1  0
 12 17  2  0
 13 14  2  0
 14 15  1  0
 16 15  2  0
 17 16  1  0
 18  7  1  0
 19 18  2  0
 21 20  1  6
 21 23  1  0
 22 21  1  0
 23 25  1  0
 23 24  1  6
 24 18  1  0
 25 26  1  0
 27 25  2  0
M  END
$$$$
