ATK.pdb
     RDKit          3D

 22 21  0  0  1  0  0  0  0  0999 V2000
   24.4762  -23.5489  -16.0918 C   0  0  0  0  0  0  0  0  0  0  0  0
   24.6333  -22.0516  -15.9337 C   0  0  2  0  0  0  0  0  0  0  0  0
   26.0363  -21.8076  -15.6031 N   0  0  0  0  0  0  0  0  0  0  0  0
   23.7468  -21.5453  -14.8542 C   0  0  0  0  0  0  0  0  0  0  0  0
   24.1976  -21.5616  -13.6899 O   0  0  0  0  0  0  0  0  0  0  0  0
   19.9446  -18.5780  -13.8201 C   0  0  0  0  0  0  0  0  0  0  0  0
   21.0207  -19.2078  -14.6987 C   0  0  1  0  0  0  0  0  0  0  0  0
   21.9591  -18.2269  -14.9135 O   0  0  0  0  0  0  0  0  0  0  0  0
   21.5163  -20.5083  -14.2000 C   0  0  2  0  0  0  0  0  0  0  0  0
   22.4530  -21.0656  -15.1212 N   0  0  0  0  0  0  0  0  0  0  0  0
   20.5035  -21.4858  -13.7706 C   0  0  0  0  0  0  0  0  0  0  0  0
   19.8195  -22.0864  -14.6226 O   0  0  0  0  0  0  0  0  0  0  0  0
   20.2259  -21.8186  -12.4174 N   0  0  0  0  0  0  0  0  0  0  0  0
   19.1680  -22.7390  -12.0371 C   0  0  1  0  0  0  0  0  0  0  0  0
   19.2302  -22.9506  -10.5554 C   0  0  0  0  0  0  0  0  0  0  0  0
   18.1686  -23.8272  -10.0031 C   0  0  0  0  0  0  0  0  0  0  0  0
   18.6562  -24.8474   -9.0146 C   0  0  0  0  0  0  0  0  0  0  0  0
   17.5135  -25.6636   -8.4300 C   0  0  0  0  0  0  0  0  0  0  0  0
   18.0595  -26.6336   -7.4988 N   0  0  0  0  0  0  0  0  0  0  0  0
   17.8394  -22.2520  -12.4825 C   0  0  0  0  0  0  0  0  0  0  0  0
   16.9009  -23.1292  -13.0099 O   0  0  0  0  0  0  0  0  0  0  0  0
   17.5058  -21.0437  -12.4053 O   0  0  0  0  0  0  0  0  0  0  0  0
  2  1  1  1
  2  3  1  0
  4  2  1  0
  4  5  2  0
  7  9  1  0
  7  6  1  1
  8  7  1  0
  9 10  1  6
  9 11  1  0
 10  4  1  0
 11 13  1  0
 12 11  2  0
 13 14  1  0
 14 15  1  1
 15 16  1  0
 17 16  1  0
 18 19  1  0
 18 17  1  0
 20 14  1  0
 20 21  1  0
 22 20  2  0
M  END
$$$$
