ATK.pdb
     RDKit          3D

 22 21  0  0  1  0  0  0  0  0999 V2000
   18.1356  -14.9372  -15.8938 C   0  0  0  0  0  0  0  0  0  0  0  0
   16.8319  -14.7214  -15.1552 C   0  0  2  0  0  0  0  0  0  0  0  0
   15.9712  -15.8579  -15.4786 N   0  0  0  0  0  0  0  0  0  0  0  0
   16.1964  -13.4474  -15.5801 C   0  0  0  0  0  0  0  0  0  0  0  0
   15.6631  -13.4236  -16.7090 O   0  0  0  0  0  0  0  0  0  0  0  0
   14.0176   -9.2552  -14.4054 C   0  0  0  0  0  0  0  0  0  0  0  0
   14.5527  -10.6688  -14.2006 C   0  0  1  0  0  0  0  0  0  0  0  0
   13.4623  -11.5025  -14.2703 O   0  0  0  0  0  0  0  0  0  0  0  0
   15.7057  -11.0040  -15.0631 C   0  0  2  0  0  0  0  0  0  0  0  0
   16.1899  -12.3104  -14.7540 N   0  0  0  0  0  0  0  0  0  0  0  0
   16.7878  -10.0098  -15.1430 C   0  0  0  0  0  0  0  0  0  0  0  0
   17.6064   -9.9063  -14.2083 O   0  0  0  0  0  0  0  0  0  0  0  0
   16.9900   -9.1231  -16.2347 N   0  0  0  0  0  0  0  0  0  0  0  0
   18.0739   -8.1563  -16.2697 C   0  0  1  0  0  0  0  0  0  0  0  0
   18.0678   -7.4815  -17.6071 C   0  0  0  0  0  0  0  0  0  0  0  0
   19.1330   -6.4677  -17.8017 C   0  0  0  0  0  0  0  0  0  0  0  0
   19.1930   -5.8862  -19.1853 C   0  0  0  0  0  0  0  0  0  0  0  0
   20.3296   -4.8862  -19.3325 C   0  0  0  0  0  0  0  0  0  0  0  0
   21.5597   -5.6108  -19.5935 N   0  0  0  0  0  0  0  0  0  0  0  0
   17.9746   -7.1894  -15.1490 C   0  0  0  0  0  0  0  0  0  0  0  0
   19.0967   -6.8419  -14.4083 O   0  0  0  0  0  0  0  0  0  0  0  0
   16.8895   -6.6483  -14.8222 O   0  0  0  0  0  0  0  0  0  0  0  0
  2  1  1  6
  2  3  1  0
  4  2  1  0
  4  5  2  0
  7  9  1  0
  7  6  1  6
  8  7  1  0
  9 10  1  1
  9 11  1  0
 10  4  1  0
 11 13  1  0
 12 11  2  0
 13 14  1  0
 14 15  1  6
 15 16  1  0
 17 16  1  0
 18 19  1  0
 18 17  1  0
 20 14  1  0
 20 21  1  0
 22 20  2  0
M  END
$$$$
