ATK.pdb
     RDKit          3D

 22 21  0  0  1  0  0  0  0  0999 V2000
   18.9856  -21.6845   -9.3374 C   0  0  0  0  0  0  0  0  0  0  0  0
   19.0305  -23.0913   -9.8946 C   0  0  2  0  0  0  0  0  0  0  0  0
   18.5901  -23.0077  -11.2861 N   0  0  0  0  0  0  0  0  0  0  0  0
   18.1375  -23.9889   -9.1172 C   0  0  0  0  0  0  0  0  0  0  0  0
   16.9080  -23.8692   -9.2994 O   0  0  0  0  0  0  0  0  0  0  0  0
   17.7256  -28.3476   -6.9081 C   0  0  0  0  0  0  0  0  0  0  0  0
   18.4205  -27.2577   -7.7178 C   0  0  1  0  0  0  0  0  0  0  0  0
   18.3934  -27.6791   -9.0257 O   0  0  0  0  0  0  0  0  0  0  0  0
   17.9165  -25.8948   -7.4449 C   0  0  2  0  0  0  0  0  0  0  0  0
   18.6447  -24.9366   -8.2118 N   0  0  0  0  0  0  0  0  0  0  0  0
   17.7906  -25.5028   -6.0320 C   0  0  0  0  0  0  0  0  0  0  0  0
   18.8102  -25.2191   -5.3730 O   0  0  0  0  0  0  0  0  0  0  0  0
   16.5610  -25.4153   -5.3254 N   0  0  0  0  0  0  0  0  0  0  0  0
   16.4862  -25.0336   -3.9255 C   0  0  1  0  0  0  0  0  0  0  0  0
   15.2148  -24.2723   -3.7063 C   0  0  0  0  0  0  0  0  0  0  0  0
   14.9787  -23.8372   -2.3080 C   0  0  0  0  0  0  0  0  0  0  0  0
   13.7449  -23.0024   -2.1162 C   0  0  0  0  0  0  0  0  0  0  0  0
   13.5576  -22.5906   -0.6640 C   0  0  0  0  0  0  0  0  0  0  0  0
   12.3357  -21.8157   -0.5510 N   0  0  0  0  0  0  0  0  0  0  0  0
   16.5978  -26.2145   -3.0347 C   0  0  0  0  0  0  0  0  0  0  0  0
   17.1511  -26.0984   -1.7664 O   0  0  0  0  0  0  0  0  0  0  0  0
   16.2039  -27.3561   -3.3793 O   0  0  0  0  0  0  0  0  0  0  0  0
  2  1  1  1
  2  3  1  0
  4  2  1  0
  4  5  2  0
  7  9  1  0
  7  6  1  1
  8  7  1  0
  9 10  1  6
  9 11  1  0
 10  4  1  0
 11 13  1  0
 12 11  2  0
 13 14  1  0
 14 15  1  6
 15 16  1  0
 17 16  1  0
 18 19  1  0
 18 17  1  0
 20 14  1  0
 20 21  1  0
 22 20  2  0
M  END
$$$$
