ATK.pdb
     RDKit          3D

 22 21  0  0  1  0  0  0  0  0999 V2000
   14.5084  -10.2628  -14.1917 C   0  0  0  0  0  0  0  0  0  0  0  0
   15.9377   -9.7704  -14.2707 C   0  0  2  0  0  0  0  0  0  0  0  0
   16.7734  -10.9419  -14.5277 N   0  0  0  0  0  0  0  0  0  0  0  0
   16.3345   -9.1149  -12.9978 C   0  0  0  0  0  0  0  0  0  0  0  0
   16.5560   -9.8567  -12.0180 O   0  0  0  0  0  0  0  0  0  0  0  0
   19.2944   -7.2539  -12.5428 C   0  0  0  0  0  0  0  0  0  0  0  0
   18.1963   -6.2971  -12.0899 C   0  0  1  0  0  0  0  0  0  0  0  0
   18.1559   -5.2928  -13.0272 O   0  0  0  0  0  0  0  0  0  0  0  0
   16.9158   -6.9630  -11.7691 C   0  0  2  0  0  0  0  0  0  0  0  0
   16.4586   -7.7191  -12.8897 N   0  0  0  0  0  0  0  0  0  0  0  0
   15.8557   -6.1224  -11.1902 C   0  0  0  0  0  0  0  0  0  0  0  0
   14.7508   -6.0354  -11.7611 O   0  0  0  0  0  0  0  0  0  0  0  0
   15.9856   -5.3721   -9.9905 N   0  0  0  0  0  0  0  0  0  0  0  0
   14.9761   -4.4281   -9.5426 C   0  0  1  0  0  0  0  0  0  0  0  0
   14.2809   -5.0050   -8.3476 C   0  0  0  0  0  0  0  0  0  0  0  0
   13.2041   -4.1574   -7.7800 C   0  0  0  0  0  0  0  0  0  0  0  0
   12.5970   -4.6886   -6.5130 C   0  0  0  0  0  0  0  0  0  0  0  0
   11.4721   -3.7993   -6.0056 C   0  0  0  0  0  0  0  0  0  0  0  0
   10.9170   -4.3881   -4.8009 N   0  0  0  0  0  0  0  0  0  0  0  0
   15.5653   -3.0954   -9.2641 C   0  0  0  0  0  0  0  0  0  0  0  0
   14.7745   -1.9539   -9.2669 O   0  0  0  0  0  0  0  0  0  0  0  0
   16.7865   -2.9388   -9.0168 O   0  0  0  0  0  0  0  0  0  0  0  0
  2  1  1  1
  2  3  1  0
  4  2  1  0
  4  5  2  0
  7  9  1  0
  7  6  1  6
  8  7  1  0
  9 10  1  6
  9 11  1  0
 10  4  1  0
 11 13  1  0
 12 11  2  0
 13 14  1  0
 14 15  1  1
 15 16  1  0
 17 16  1  0
 18 19  1  0
 18 17  1  0
 20 14  1  0
 20 21  1  0
 22 20  2  0
M  END
$$$$
