ATK.pdb
     RDKit          3D

 22 21  0  0  1  0  0  0  0  0999 V2000
   17.7398  -13.1746  -17.1210 C   0  0  0  0  0  0  0  0  0  0  0  0
   19.1888  -13.2133  -16.6844 C   0  0  2  0  0  0  0  0  0  0  0  0
   19.3608  -14.4365  -15.9026 N   0  0  0  0  0  0  0  0  0  0  0  0
   19.5186  -12.0189  -15.8646 C   0  0  0  0  0  0  0  0  0  0  0  0
   18.9928  -11.9384  -14.7349 O   0  0  0  0  0  0  0  0  0  0  0  0
   22.8352  -11.0955  -14.7356 C   0  0  0  0  0  0  0  0  0  0  0  0
   22.3096   -9.8832  -15.4975 C   0  0  1  0  0  0  0  0  0  0  0  0
   23.0438   -9.8146  -16.6572 O   0  0  0  0  0  0  0  0  0  0  0  0
   20.8379   -9.8543  -15.6362 C   0  0  2  0  0  0  0  0  0  0  0  0
   20.3849  -11.0154  -16.3313 N   0  0  0  0  0  0  0  0  0  0  0  0
   20.2440   -8.6166  -16.1664 C   0  0  0  0  0  0  0  0  0  0  0  0
   19.9733   -8.5280  -17.3802 O   0  0  0  0  0  0  0  0  0  0  0  0
   19.9395   -7.4689  -15.3859 N   0  0  0  0  0  0  0  0  0  0  0  0
   19.4329   -6.2373  -15.9666 C   0  0  1  0  0  0  0  0  0  0  0  0
   17.9619   -6.1525  -15.6958 C   0  0  0  0  0  0  0  0  0  0  0  0
   17.3091   -4.9073  -16.1686 C   0  0  0  0  0  0  0  0  0  0  0  0
   15.8614   -4.7811  -15.7888 C   0  0  0  0  0  0  0  0  0  0  0  0
   15.2330   -3.5179  -16.3570 C   0  0  0  0  0  0  0  0  0  0  0  0
   13.8419   -3.4619  -15.9471 N   0  0  0  0  0  0  0  0  0  0  0  0
   20.1697   -5.0546  -15.4579 C   0  0  0  0  0  0  0  0  0  0  0  0
   20.1140   -3.8398  -16.1285 O   0  0  0  0  0  0  0  0  0  0  0  0
   20.8671   -5.0948  -14.4143 O   0  0  0  0  0  0  0  0  0  0  0  0
  2  1  1  1
  2  3  1  0
  4  2  1  0
  4  5  2  0
  7  9  1  0
  7  6  1  6
  8  7  1  0
  9 10  1  6
  9 11  1  0
 10  4  1  0
 11 13  1  0
 12 11  2  0
 13 14  1  0
 14 15  1  1
 15 16  1  0
 17 16  1  0
 18 19  1  0
 18 17  1  0
 20 14  1  0
 20 21  1  0
 22 20  2  0
M  END
$$$$
