ATK.pdb
     RDKit          3D

 22 21  0  0  1  0  0  0  0  0999 V2000
   27.4550  -11.9053  -16.3075 C   0  0  0  0  0  0  0  0  0  0  0  0
   27.5867  -11.4828  -17.7552 C   0  0  2  0  0  0  0  0  0  0  0  0
   27.2679  -12.6559  -18.5672 N   0  0  0  0  0  0  0  0  0  0  0  0
   28.9672  -11.0118  -18.0375 C   0  0  0  0  0  0  0  0  0  0  0  0
   29.8267  -11.8811  -18.2923 O   0  0  0  0  0  0  0  0  0  0  0  0
   29.7913   -8.4680  -20.6849 C   0  0  0  0  0  0  0  0  0  0  0  0
   30.3558   -7.9763  -19.3559 C   0  0  1  0  0  0  0  0  0  0  0  0
   29.5713   -6.9126  -18.9792 O   0  0  0  0  0  0  0  0  0  0  0  0
   30.5538   -9.0472  -18.3560 C   0  0  2  0  0  0  0  0  0  0  0  0
   29.3030   -9.6471  -18.0212 N   0  0  0  0  0  0  0  0  0  0  0  0
   31.3483   -8.7065  -17.1651 C   0  0  0  0  0  0  0  0  0  0  0  0
   30.7738   -8.3880  -16.1054 O   0  0  0  0  0  0  0  0  0  0  0  0
   32.7683   -8.7092  -17.1145 N   0  0  0  0  0  0  0  0  0  0  0  0
   33.5119   -8.3075  -15.9328 C   0  0  1  0  0  0  0  0  0  0  0  0
   34.7084   -9.1986  -15.7968 C   0  0  0  0  0  0  0  0  0  0  0  0
   35.6130   -8.8646  -14.6697 C   0  0  0  0  0  0  0  0  0  0  0  0
   36.8584   -9.7015  -14.6024 C   0  0  0  0  0  0  0  0  0  0  0  0
   37.7499   -9.3010  -13.4369 C   0  0  0  0  0  0  0  0  0  0  0  0
   39.0061  -10.0204  -13.5398 N   0  0  0  0  0  0  0  0  0  0  0  0
   33.8806   -6.8716  -15.9860 C   0  0  0  0  0  0  0  0  0  0  0  0
   34.0417   -6.1353  -14.8197 O   0  0  0  0  0  0  0  0  0  0  0  0
   34.0615   -6.2637  -17.0699 O   0  0  0  0  0  0  0  0  0  0  0  0
  2  1  1  1
  2  3  1  0
  4  2  1  0
  4  5  2  0
  7  9  1  0
  7  6  1  6
  8  7  1  0
  9 10  1  1
  9 11  1  0
 10  4  1  0
 11 13  1  0
 12 11  2  0
 13 14  1  0
 14 15  1  6
 15 16  1  0
 17 16  1  0
 18 19  1  0
 18 17  1  0
 20 14  1  0
 20 21  1  0
 22 20  2  0
M  END
$$$$
