ATK.pdb
     RDKit          3D

 22 21  0  0  1  0  0  0  0  0999 V2000
   19.3946  -13.5550  -18.8824 C   0  0  0  0  0  0  0  0  0  0  0  0
   20.7747  -13.1198  -18.4379 C   0  0  2  0  0  0  0  0  0  0  0  0
   21.4629  -14.3195  -17.9645 N   0  0  0  0  0  0  0  0  0  0  0  0
   20.6787  -12.1101  -17.3523 C   0  0  0  0  0  0  0  0  0  0  0  0
   19.6774  -12.1646  -16.6082 O   0  0  0  0  0  0  0  0  0  0  0  0
   23.2590  -11.4613  -14.7218 C   0  0  0  0  0  0  0  0  0  0  0  0
   22.9962  -10.1445  -15.4453 C   0  0  1  0  0  0  0  0  0  0  0  0
   24.1284   -9.8803  -16.1782 O   0  0  0  0  0  0  0  0  0  0  0  0
   21.7078  -10.1051  -16.1693 C   0  0  2  0  0  0  0  0  0  0  0  0
   21.6678  -11.1300  -17.1616 N   0  0  0  0  0  0  0  0  0  0  0  0
   21.2801   -8.7990  -16.6953 C   0  0  0  0  0  0  0  0  0  0  0  0
   21.5960   -8.4622  -17.8534 O   0  0  0  0  0  0  0  0  0  0  0  0
   20.5082   -7.8510  -15.9712 N   0  0  0  0  0  0  0  0  0  0  0  0
   20.1567   -6.5489  -16.5114 C   0  0  1  0  0  0  0  0  0  0  0  0
   18.7130   -6.5722  -16.9104 C   0  0  0  0  0  0  0  0  0  0  0  0
   18.1886   -5.2891  -17.4387 C   0  0  0  0  0  0  0  0  0  0  0  0
   16.7180   -5.2967  -17.7438 C   0  0  0  0  0  0  0  0  0  0  0  0
   16.2377   -3.9487  -18.2595 C   0  0  0  0  0  0  0  0  0  0  0  0
   14.8202   -4.0394  -18.5572 N   0  0  0  0  0  0  0  0  0  0  0  0
   20.4586   -5.4624  -15.5475 C   0  0  0  0  0  0  0  0  0  0  0  0
   20.5472   -4.1423  -15.9693 O   0  0  0  0  0  0  0  0  0  0  0  0
   20.6451   -5.6809  -14.3250 O   0  0  0  0  0  0  0  0  0  0  0  0
  2  1  1  1
  2  3  1  0
  4  2  1  0
  4  5  2  0
  7  9  1  0
  7  6  1  6
  8  7  1  0
  9 10  1  6
  9 11  1  0
 10  4  1  0
 11 13  1  0
 12 11  2  0
 13 14  1  0
 14 15  1  1
 15 16  1  0
 17 16  1  0
 18 19  1  0
 18 17  1  0
 20 14  1  0
 20 21  1  0
 22 20  2  0
M  END
$$$$
