ATK.pdb
     RDKit          3D

 22 21  0  0  1  0  0  0  0  0999 V2000
   26.6083  -13.8374  -15.3776 C   0  0  0  0  0  0  0  0  0  0  0  0
   27.0939  -15.1926  -15.8459 C   0  0  2  0  0  0  0  0  0  0  0  0
   28.1103  -14.9462  -16.8673 N   0  0  0  0  0  0  0  0  0  0  0  0
   25.9693  -15.9839  -16.4084 C   0  0  0  0  0  0  0  0  0  0  0  0
   25.7222  -15.8413  -17.6240 O   0  0  0  0  0  0  0  0  0  0  0  0
   25.9029  -19.3128  -16.9974 C   0  0  0  0  0  0  0  0  0  0  0  0
   24.6913  -19.1376  -16.0876 C   0  0  1  0  0  0  0  0  0  0  0  0
   25.0268  -19.7221  -14.8898 O   0  0  0  0  0  0  0  0  0  0  0  0
   24.1774  -17.7523  -16.0338 C   0  0  2  0  0  0  0  0  0  0  0  0
   25.2087  -16.8594  -15.6145 N   0  0  0  0  0  0  0  0  0  0  0  0
   22.9187  -17.5377  -15.3022 C   0  0  0  0  0  0  0  0  0  0  0  0
   22.9458  -17.2696  -14.0849 O   0  0  0  0  0  0  0  0  0  0  0  0
   21.6245  -17.6117  -15.8840 N   0  0  0  0  0  0  0  0  0  0  0  0
   20.4059  -17.4515  -15.1093 C   0  0  1  0  0  0  0  0  0  0  0  0
   19.5337  -16.4452  -15.7955 C   0  0  0  0  0  0  0  0  0  0  0  0
   18.2550  -16.1500  -15.1039 C   0  0  0  0  0  0  0  0  0  0  0  0
   17.3184  -15.2674  -15.8783 C   0  0  0  0  0  0  0  0  0  0  0  0
   16.0198  -15.0189  -15.1265 C   0  0  0  0  0  0  0  0  0  0  0  0
   15.1356  -14.2323  -15.9666 N   0  0  0  0  0  0  0  0  0  0  0  0
   19.7178  -18.7499  -14.9061 C   0  0  0  0  0  0  0  0  0  0  0  0
   18.8369  -18.9296  -13.8477 O   0  0  0  0  0  0  0  0  0  0  0  0
   19.8960  -19.7317  -15.6686 O   0  0  0  0  0  0  0  0  0  0  0  0
  2  1  1  6
  2  3  1  0
  4  2  1  0
  4  5  2  0
  7  9  1  0
  7  6  1  6
  8  7  1  0
  9 10  1  1
  9 11  1  0
 10  4  1  0
 11 13  1  0
 12 11  2  0
 13 14  1  0
 14 15  1  6
 15 16  1  0
 17 16  1  0
 18 19  1  0
 18 17  1  0
 20 14  1  0
 20 21  1  0
 22 20  2  0
M  END
$$$$
