ATK.pdb
     RDKit          3D

 22 21  0  0  1  0  0  0  0  0999 V2000
   27.8293  -11.4147  -15.9883 C   0  0  0  0  0  0  0  0  0  0  0  0
   27.7774  -11.0972  -17.4675 C   0  0  2  0  0  0  0  0  0  0  0  0
   27.4015  -12.3335  -18.1511 N   0  0  0  0  0  0  0  0  0  0  0  0
   29.1002  -10.6180  -17.9449 C   0  0  0  0  0  0  0  0  0  0  0  0
   29.9213  -11.4826  -18.3157 O   0  0  0  0  0  0  0  0  0  0  0  0
   31.6915   -7.0592  -20.0403 C   0  0  0  0  0  0  0  0  0  0  0  0
   30.4289   -7.7552  -19.5423 C   0  0  1  0  0  0  0  0  0  0  0  0
   29.8364   -8.3088  -20.6519 O   0  0  0  0  0  0  0  0  0  0  0  0
   30.6541   -8.6515  -18.3883 C   0  0  2  0  0  0  0  0  0  0  0  0
   29.4245   -9.2510  -17.9817 N   0  0  0  0  0  0  0  0  0  0  0  0
   31.4096   -8.0976  -17.2533 C   0  0  0  0  0  0  0  0  0  0  0  0
   30.8113   -7.4769  -16.3527 O   0  0  0  0  0  0  0  0  0  0  0  0
   32.8160   -8.2129  -17.0869 N   0  0  0  0  0  0  0  0  0  0  0  0
   33.5270   -7.6028  -15.9764 C   0  0  1  0  0  0  0  0  0  0  0  0
   34.8446   -8.2971  -15.8151 C   0  0  0  0  0  0  0  0  0  0  0  0
   35.7147   -7.7484  -14.7464 C   0  0  0  0  0  0  0  0  0  0  0  0
   36.9962   -8.5037  -14.5385 C   0  0  0  0  0  0  0  0  0  0  0  0
   37.8360   -7.9017  -13.4223 C   0  0  0  0  0  0  0  0  0  0  0  0
   39.0554   -8.6763  -13.2841 N   0  0  0  0  0  0  0  0  0  0  0  0
   33.6797   -6.1398  -16.1684 C   0  0  0  0  0  0  0  0  0  0  0  0
   33.5301   -5.2634  -15.1016 O   0  0  0  0  0  0  0  0  0  0  0  0
   33.9469   -5.6326  -17.2857 O   0  0  0  0  0  0  0  0  0  0  0  0
  2  1  1  1
  2  3  1  0
  4  2  1  0
  4  5  2  0
  7  9  1  0
  7  6  1  6
  8  7  1  0
  9 10  1  1
  9 11  1  0
 10  4  1  0
 11 13  1  0
 12 11  2  0
 13 14  1  0
 14 15  1  6
 15 16  1  0
 17 16  1  0
 18 19  1  0
 18 17  1  0
 20 14  1  0
 20 21  1  0
 22 20  2  0
M  END
$$$$
