TRA.pdb
     RDKit          3D

 24 23  0  0  1  0  0  0  0  0999 V2000
    8.5101  -21.2519   23.9755 C   0  0  0  0  0  0  0  0  0  0  0  0
    8.1662  -21.6356   22.5503 C   0  0  1  0  0  0  0  0  0  0  0  0
    7.5440  -22.8651   22.5050 O   0  0  0  0  0  0  0  0  0  0  0  0
    7.4536  -20.5412   21.8136 C   0  0  2  0  0  0  0  0  0  0  0  0
    7.0020  -21.0739   20.5469 N   0  0  0  0  0  0  0  0  0  0  0  0
    8.2654  -19.3072   21.6842 C   0  0  0  0  0  0  0  0  0  0  0  0
    9.3812  -19.4178   21.1429 O   0  0  0  0  0  0  0  0  0  0  0  0
    9.5464  -12.8776   19.8339 N   0  0  0  0  0  0  0  0  0  0  0  0
    8.2093  -12.8234   19.3025 C   0  0  0  0  0  0  0  0  0  0  0  0
    7.6254  -11.7027   19.0902 N   0  0  0  0  0  0  0  0  0  0  0  0
    7.5131  -14.0362   19.0037 N   0  0  0  0  0  0  0  0  0  0  0  0
    7.8463  -15.2744   19.6820 C   0  0  0  0  0  0  0  0  0  0  0  0
    6.9954  -15.4240   20.9508 C   0  0  0  0  0  0  0  0  0  0  0  0
    7.8931  -15.5537   22.1634 C   0  0  0  0  0  0  0  0  0  0  0  0
    8.6338  -16.8288   22.0762 C   0  0  2  0  0  0  0  0  0  0  0  0
    7.8790  -18.0341   22.1202 N   0  0  0  0  0  0  0  0  0  0  0  0
    9.6551  -16.8831   23.1493 C   0  0  0  0  0  0  0  0  0  0  0  0
    9.2469  -17.2450   24.2998 O   0  0  0  0  0  0  0  0  0  0  0  0
    6.6804  -11.6838   18.6830 C   0  0  0  0  0  0  0  0  0  0  0  0
   12.1419  -18.2496   24.3276 C   0  0  2  0  0  0  0  0  0  0  0  0
   11.9373  -16.7583   24.0683 N   0  0  0  0  0  0  0  0  0  0  0  0
   11.0209  -16.5603   22.9573 C   0  0  0  0  0  0  0  0  0  0  0  0
   13.2515  -16.1623   23.6926 O   0  0  0  0  0  0  0  0  0  0  0  0
   13.4438  -15.7172   22.5107 O   0  0  0  0  0  0  0  0  0  0  0  0
  2  1  1  1
  2  3  1  0
  4  2  1  0
  4  6  1  0
  4  5  1  6
  6  7  2  0
  8  9  1  0
  9 11  1  0
 10  9  2  0
 11 12  1  0
 12 13  1  0
 13 14  1  0
 15 14  1  1
 16  6  1  0
 16 15  1  0
 17 21  1  0
 17 15  1  0
 18 17  2  0
 20 21  1  0
 20 19  1  1
 22 20  1  0
 22 24  1  0
 23 22  2  0
M  END
$$$$
