TRA.pdb
     RDKit          3D

 24 23  0  0  1  0  0  0  0  0999 V2000
    6.4981  -19.0438   24.4965 C   0  0  0  0  0  0  0  0  0  0  0  0
    6.2286  -19.9873   23.3416 C   0  0  1  0  0  0  0  0  0  0  0  0
    5.2029  -20.8580   23.6426 O   0  0  0  0  0  0  0  0  0  0  0  0
    6.0832  -19.2708   22.0325 C   0  0  2  0  0  0  0  0  0  0  0  0
    5.7561  -20.2501   21.0195 N   0  0  0  0  0  0  0  0  0  0  0  0
    7.2623  -18.4374   21.6952 C   0  0  0  0  0  0  0  0  0  0  0  0
    8.2686  -19.0291   21.2621 O   0  0  0  0  0  0  0  0  0  0  0  0
    8.5956  -15.0055   17.0288 N   0  0  0  0  0  0  0  0  0  0  0  0
    7.7345  -13.8716   16.8148 C   0  0  0  0  0  0  0  0  0  0  0  0
    7.4212  -13.4912   15.6319 N   0  0  0  0  0  0  0  0  0  0  0  0
    7.2156  -13.1511   17.9357 N   0  0  0  0  0  0  0  0  0  0  0  0
    7.8225  -13.2738   19.2476 C   0  0  0  0  0  0  0  0  0  0  0  0
    7.5160  -14.6559   19.8411 C   0  0  0  0  0  0  0  0  0  0  0  0
    8.1236  -14.7715   21.2234 C   0  0  0  0  0  0  0  0  0  0  0  0
    8.4240  -16.1918   21.4966 C   0  0  2  0  0  0  0  0  0  0  0  0
    7.3337  -17.0452   21.8242 N   0  0  0  0  0  0  0  0  0  0  0  0
    9.4278  -16.2858   22.5835 C   0  0  0  0  0  0  0  0  0  0  0  0
    9.0927  -15.7879   23.7064 O   0  0  0  0  0  0  0  0  0  0  0  0
    6.8653  -12.6357   15.4969 C   0  0  0  0  0  0  0  0  0  0  0  0
   12.1315  -18.3758   23.7456 C   0  0  1  0  0  0  0  0  0  0  0  0
   11.5681  -16.9638   23.5975 N   0  0  0  0  0  0  0  0  0  0  0  0
   10.7021  -16.8857   22.4324 C   0  0  0  0  0  0  0  0  0  0  0  0
   12.7064  -16.0235   23.3885 O   0  0  0  0  0  0  0  0  0  0  0  0
   12.8620  -15.4387   22.2635 O   0  0  0  0  0  0  0  0  0  0  0  0
  2  1  1  1
  2  3  1  0
  4  2  1  0
  4  6  1  0
  4  5  1  6
  6  7  2  0
  8  9  1  0
  9 11  1  0
 10  9  2  0
 11 12  1  0
 12 13  1  0
 13 14  1  0
 15 14  1  1
 16  6  1  0
 16 15  1  0
 17 21  1  0
 17 15  1  0
 18 17  2  0
 20 21  1  0
 20 19  1  1
 22 20  1  0
 22 24  1  0
 23 22  2  0
M  END
$$$$
