TRA.pdb
     RDKit          3D

 24 23  0  0  1  0  0  0  0  0999 V2000
    8.4786  -12.1553   20.3041 C   0  0  0  0  0  0  0  0  0  0  0  0
    7.8456  -13.1623   19.3650 C   0  0  1  0  0  0  0  0  0  0  0  0
    8.0150  -12.7869   18.0493 O   0  0  0  0  0  0  0  0  0  0  0  0
    8.2481  -14.5731   19.6746 C   0  0  2  0  0  0  0  0  0  0  0  0
    7.6461  -15.4385   18.6842 N   0  0  0  0  0  0  0  0  0  0  0  0
    7.9457  -14.9676   21.0716 C   0  0  0  0  0  0  0  0  0  0  0  0
    6.7481  -15.1422   21.3639 O   0  0  0  0  0  0  0  0  0  0  0  0
   12.4162  -20.9976   24.5620 N   0  0  0  0  0  0  0  0  0  0  0  0
   11.6804  -21.0580   23.3258 C   0  0  0  0  0  0  0  0  0  0  0  0
   11.7370  -22.0917   22.5707 N   0  0  0  0  0  0  0  0  0  0  0  0
   10.8702  -19.9498   22.9256 N   0  0  0  0  0  0  0  0  0  0  0  0
   10.7994  -18.7469   23.7332 C   0  0  0  0  0  0  0  0  0  0  0  0
    9.7638  -17.7788   23.1445 C   0  0  0  0  0  0  0  0  0  0  0  0
    9.6819  -16.5287   23.9952 C   0  0  0  0  0  0  0  0  0  0  0  0
    8.6762  -15.6178   23.4116 C   0  0  2  0  0  0  0  0  0  0  0  0
    8.8949  -15.1583   22.0828 N   0  0  0  0  0  0  0  0  0  0  0  0
    8.5109  -14.4343   24.2889 C   0  0  0  0  0  0  0  0  0  0  0  0
    9.4727  -13.6000   24.2989 O   0  0  0  0  0  0  0  0  0  0  0  0
   11.2163  -22.1098   21.6831 C   0  0  0  0  0  0  0  0  0  0  0  0
    5.9027  -12.5556   26.1599 C   0  0  1  0  0  0  0  0  0  0  0  0
    7.3426  -13.0048   25.9199 N   0  0  0  0  0  0  0  0  0  0  0  0
    7.3673  -14.1987   25.0908 C   0  0  0  0  0  0  0  0  0  0  0  0
    7.9537  -13.3463   27.2366 O   0  0  0  0  0  0  0  0  0  0  0  0
    8.0763  -12.4535   28.1420 O   0  0  0  0  0  0  0  0  0  0  0  0
  2  1  1  1
  2  3  1  0
  4  2  1  0
  4  6  1  0
  4  5  1  6
  6  7  2  0
  8  9  1  0
  9 11  1  0
 10  9  2  0
 11 12  1  0
 12 13  1  0
 13 14  1  0
 15 14  1  1
 16  6  1  0
 16 15  1  0
 17 21  1  0
 17 15  1  0
 18 17  2  0
 20 21  1  0
 20 19  1  6
 22 20  1  0
 22 24  1  0
 23 22  2  0
M  END
$$$$
