TRA.pdb
     RDKit          3D

 24 23  0  0  1  0  0  0  0  0999 V2000
   12.5448  -21.4069   15.0029 C   0  0  0  0  0  0  0  0  0  0  0  0
   12.7339  -20.1735   15.8631 C   0  0  1  0  0  0  0  0  0  0  0  0
   14.0687  -19.9565   16.1307 O   0  0  0  0  0  0  0  0  0  0  0  0
   11.9953  -18.9811   15.3329 C   0  0  2  0  0  0  0  0  0  0  0  0
   12.5084  -18.6866   14.0130 N   0  0  0  0  0  0  0  0  0  0  0  0
   12.0298  -17.8218   16.2567 C   0  0  0  0  0  0  0  0  0  0  0  0
   12.7981  -16.8868   15.9635 O   0  0  0  0  0  0  0  0  0  0  0  0
    7.2031  -12.5144   17.9172 N   0  0  0  0  0  0  0  0  0  0  0  0
    7.6207  -13.0269   19.1963 C   0  0  0  0  0  0  0  0  0  0  0  0
    7.5370  -12.3116   20.2562 N   0  0  0  0  0  0  0  0  0  0  0  0
    8.1392  -14.3559   19.2951 N   0  0  0  0  0  0  0  0  0  0  0  0
    8.3169  -15.1774   18.1128 C   0  0  0  0  0  0  0  0  0  0  0  0
    8.7433  -16.5954   18.5175 C   0  0  0  0  0  0  0  0  0  0  0  0
   10.0609  -16.5467   19.2624 C   0  0  0  0  0  0  0  0  0  0  0  0
   11.1656  -16.5634   18.2820 C   0  0  2  0  0  0  0  0  0  0  0  0
   11.2709  -17.6954   17.4264 N   0  0  0  0  0  0  0  0  0  0  0  0
   12.4580  -16.3959   18.9887 C   0  0  0  0  0  0  0  0  0  0  0  0
   12.9634  -17.4475   19.4985 O   0  0  0  0  0  0  0  0  0  0  0  0
    7.9172  -12.6633   21.1456 C   0  0  0  0  0  0  0  0  0  0  0  0
   15.1432  -13.8072   19.4710 C   0  0  1  0  0  0  0  0  0  0  0  0
   14.4672  -15.1582   19.6956 N   0  0  0  0  0  0  0  0  0  0  0  0
   13.1333  -15.1574   19.1176 C   0  0  0  0  0  0  0  0  0  0  0  0
   14.3320  -15.3773   21.1644 O   0  0  0  0  0  0  0  0  0  0  0  0
   15.3674  -15.3931   21.9125 O   0  0  0  0  0  0  0  0  0  0  0  0
  2  1  1  6
  2  3  1  0
  4  2  1  0
  4  6  1  0
  4  5  1  6
  6  7  2  0
  8  9  1  0
  9 11  1  0
 10  9  2  0
 11 12  1  0
 12 13  1  0
 13 14  1  0
 15 14  1  1
 16  6  1  0
 16 15  1  0
 17 21  1  0
 17 15  1  0
 18 17  2  0
 20 21  1  0
 20 19  1  6
 22 20  1  0
 22 24  1  0
 23 22  2  0
M  END
$$$$
