TRA.pdb
     RDKit          3D

 24 23  0  0  1  0  0  0  0  0999 V2000
   12.0164  -21.3426   19.9630 C   0  0  0  0  0  0  0  0  0  0  0  0
   12.2275  -20.7911   18.5673 C   0  0  1  0  0  0  0  0  0  0  0  0
   12.1049  -21.7840   17.6188 O   0  0  0  0  0  0  0  0  0  0  0  0
   11.4104  -19.5620   18.3024 C   0  0  2  0  0  0  0  0  0  0  0  0
   11.6801  -19.1276   16.9494 N   0  0  0  0  0  0  0  0  0  0  0  0
   11.6139  -18.5020   19.3191 C   0  0  0  0  0  0  0  0  0  0  0  0
   12.7363  -17.9645   19.3597 O   0  0  0  0  0  0  0  0  0  0  0  0
    8.6713  -12.6121   20.0073 N   0  0  0  0  0  0  0  0  0  0  0  0
    7.4362  -13.1595   19.5094 C   0  0  0  0  0  0  0  0  0  0  0  0
    6.8109  -12.6072   18.5368 N   0  0  0  0  0  0  0  0  0  0  0  0
    6.8902  -14.3395   20.1046 N   0  0  0  0  0  0  0  0  0  0  0  0
    7.5789  -15.0166   21.1870 C   0  0  0  0  0  0  0  0  0  0  0  0
    8.9149  -15.5831   20.6867 C   0  0  0  0  0  0  0  0  0  0  0  0
    9.5449  -16.4465   21.7595 C   0  0  0  0  0  0  0  0  0  0  0  0
   10.7831  -17.0480   21.2237 C   0  0  2  0  0  0  0  0  0  0  0  0
   10.6492  -18.0596   20.2321 N   0  0  0  0  0  0  0  0  0  0  0  0
   11.5901  -17.5976   22.3391 C   0  0  0  0  0  0  0  0  0  0  0  0
   11.2245  -18.7279   22.7974 O   0  0  0  0  0  0  0  0  0  0  0  0
    5.9527  -13.0376   18.1662 C   0  0  0  0  0  0  0  0  0  0  0  0
   14.9165  -17.1765   23.9387 C   0  0  1  0  0  0  0  0  0  0  0  0
   13.4559  -17.6231   23.9475 N   0  0  0  0  0  0  0  0  0  0  0  0
   12.7136  -16.9417   22.8996 C   0  0  0  0  0  0  0  0  0  0  0  0
   12.8561  -17.2420   25.2584 O   0  0  0  0  0  0  0  0  0  0  0  0
   11.9007  -16.3955   25.3091 O   0  0  0  0  0  0  0  0  0  0  0  0
  2  1  1  1
  2  3  1  0
  4  2  1  0
  4  6  1  0
  4  5  1  6
  6  7  2  0
  8  9  1  0
  9 11  1  0
 10  9  2  0
 11 12  1  0
 12 13  1  0
 13 14  1  0
 15 14  1  1
 16  6  1  0
 16 15  1  0
 17 21  1  0
 17 15  1  0
 18 17  2  0
 20 21  1  0
 20 19  1  6
 22 20  1  0
 22 24  1  0
 23 22  2  0
M  END
$$$$
