TRA.pdb
     RDKit          3D

 24 23  0  0  1  0  0  0  0  0999 V2000
    8.6473  -12.4542   26.7705 C   0  0  0  0  0  0  0  0  0  0  0  0
    7.3043  -12.9014   27.3118 C   0  0  1  0  0  0  0  0  0  0  0  0
    6.9174  -12.1224   28.3814 O   0  0  0  0  0  0  0  0  0  0  0  0
    6.2703  -13.0541   26.2367 C   0  0  2  0  0  0  0  0  0  0  0  0
    5.0292  -13.4549   26.8623 N   0  0  0  0  0  0  0  0  0  0  0  0
    6.7029  -13.9559   25.1421 C   0  0  0  0  0  0  0  0  0  0  0  0
    6.7923  -15.1687   25.4097 O   0  0  0  0  0  0  0  0  0  0  0  0
    8.2360  -12.8393   16.8106 N   0  0  0  0  0  0  0  0  0  0  0  0
    8.4886  -14.2557   16.8670 C   0  0  0  0  0  0  0  0  0  0  0  0
    9.1654  -14.8451   15.9523 N   0  0  0  0  0  0  0  0  0  0  0  0
    7.9791  -15.0260   17.9587 N   0  0  0  0  0  0  0  0  0  0  0  0
    7.2449  -14.3949   19.0389 C   0  0  0  0  0  0  0  0  0  0  0  0
    7.8479  -14.8000   20.3911 C   0  0  0  0  0  0  0  0  0  0  0  0
    7.5648  -13.7305   21.4251 C   0  0  0  0  0  0  0  0  0  0  0  0
    7.4453  -14.3678   22.7523 C   0  0  2  0  0  0  0  0  0  0  0  0
    7.0170  -13.5543   23.8383 N   0  0  0  0  0  0  0  0  0  0  0  0
    8.7394  -14.9893   23.1220 C   0  0  0  0  0  0  0  0  0  0  0  0
    9.6284  -14.2069   23.5897 O   0  0  0  0  0  0  0  0  0  0  0  0
    9.2252  -15.8724   15.9378 C   0  0  0  0  0  0  0  0  0  0  0  0
   10.1206  -18.1587   24.2396 C   0  0  1  0  0  0  0  0  0  0  0  0
   10.3054  -16.8616   23.4545 N   0  0  0  0  0  0  0  0  0  0  0  0
    9.0212  -16.3704   22.9822 C   0  0  0  0  0  0  0  0  0  0  0  0
   11.1539  -17.1507   22.2629 O   0  0  0  0  0  0  0  0  0  0  0  0
   10.6454  -17.1412   21.0910 O   0  0  0  0  0  0  0  0  0  0  0  0
  2  1  1  6
  2  3  1  0
  4  2  1  0
  4  6  1  0
  4  5  1  1
  6  7  2  0
  8  9  1  0
  9 11  1  0
 10  9  2  0
 11 12  1  0
 12 13  1  0
 13 14  1  0
 15 14  1  6
 16  6  1  0
 16 15  1  0
 17 21  1  0
 17 15  1  0
 18 17  2  0
 20 21  1  0
 20 19  1  1
 22 20  1  0
 22 24  1  0
 23 22  2  0
M  END
$$$$
