TRA.pdb
     RDKit          3D

 24 23  0  0  1  0  0  0  0  0999 V2000
    6.7486  -19.5894   24.3942 C   0  0  0  0  0  0  0  0  0  0  0  0
    6.3432  -20.2561   23.0950 C   0  0  1  0  0  0  0  0  0  0  0  0
    5.3813  -21.2195   23.3121 O   0  0  0  0  0  0  0  0  0  0  0  0
    6.0130  -19.2674   22.0171 C   0  0  2  0  0  0  0  0  0  0  0  0
    5.5837  -20.0046   20.8491 N   0  0  0  0  0  0  0  0  0  0  0  0
    7.1175  -18.3157   21.7471 C   0  0  0  0  0  0  0  0  0  0  0  0
    8.1933  -18.7964   21.3448 O   0  0  0  0  0  0  0  0  0  0  0  0
    8.8570  -14.9533   17.5402 N   0  0  0  0  0  0  0  0  0  0  0  0
    8.0856  -13.8107   17.1248 C   0  0  0  0  0  0  0  0  0  0  0  0
    7.8925  -13.5572   15.8836 N   0  0  0  0  0  0  0  0  0  0  0  0
    7.5215  -12.9381   18.1073 N   0  0  0  0  0  0  0  0  0  0  0  0
    7.8599  -13.0769   19.5110 C   0  0  0  0  0  0  0  0  0  0  0  0
    7.2168  -14.3477   20.0834 C   0  0  0  0  0  0  0  0  0  0  0  0
    7.6695  -14.5578   21.5131 C   0  0  0  0  0  0  0  0  0  0  0  0
    8.0745  -15.9679   21.6845 C   0  0  2  0  0  0  0  0  0  0  0  0
    7.0471  -16.9267   21.9074 N   0  0  0  0  0  0  0  0  0  0  0  0
    9.0525  -16.0715   22.7938 C   0  0  0  0  0  0  0  0  0  0  0  0
    8.6287  -15.7542   23.9518 O   0  0  0  0  0  0  0  0  0  0  0  0
    7.3095  -12.7555   15.6069 C   0  0  0  0  0  0  0  0  0  0  0  0
   11.4627  -17.9070   24.3154 C   0  0  1  0  0  0  0  0  0  0  0  0
   11.2670  -16.4862   23.7900 N   0  0  0  0  0  0  0  0  0  0  0  0
   10.3943  -16.4938   22.6274 C   0  0  0  0  0  0  0  0  0  0  0  0
   12.5943  -15.9555   23.3655 O   0  0  0  0  0  0  0  0  0  0  0  0
   12.8193  -15.6883   22.1368 O   0  0  0  0  0  0  0  0  0  0  0  0
  2  1  1  1
  2  3  1  0
  4  2  1  0
  4  6  1  0
  4  5  1  6
  6  7  2  0
  8  9  1  0
  9 11  1  0
 10  9  2  0
 11 12  1  0
 12 13  1  0
 13 14  1  0
 15 14  1  1
 16  6  1  0
 16 15  1  0
 17 21  1  0
 17 15  1  0
 18 17  2  0
 20 21  1  0
 20 19  1  1
 22 20  1  0
 22 24  1  0
 23 22  2  0
M  END
$$$$
