TRA.pdb
     RDKit          3D

 24 23  0  0  1  0  0  0  0  0999 V2000
    8.1152  -12.7394   18.6412 C   0  0  0  0  0  0  0  0  0  0  0  0
    8.1803  -13.2032   20.0825 C   0  0  1  0  0  0  0  0  0  0  0  0
    7.6362  -12.2621   20.9304 O   0  0  0  0  0  0  0  0  0  0  0  0
    7.6542  -14.5954   20.2654 C   0  0  2  0  0  0  0  0  0  0  0  0
    6.3022  -14.6345   19.7527 N   0  0  0  0  0  0  0  0  0  0  0  0
    7.7753  -15.0807   21.6612 C   0  0  0  0  0  0  0  0  0  0  0  0
    6.7813  -14.9399   22.3977 O   0  0  0  0  0  0  0  0  0  0  0  0
   14.3349  -15.8156   24.4688 N   0  0  0  0  0  0  0  0  0  0  0  0
   14.5055  -16.1288   23.0738 C   0  0  0  0  0  0  0  0  0  0  0  0
   15.3380  -15.4810   22.3461 N   0  0  0  0  0  0  0  0  0  0  0  0
   13.7367  -17.1790   22.4815 N   0  0  0  0  0  0  0  0  0  0  0  0
   12.5448  -17.6894   23.1320 C   0  0  0  0  0  0  0  0  0  0  0  0
   11.4123  -16.6574   23.0385 C   0  0  0  0  0  0  0  0  0  0  0  0
   10.1738  -17.1842   23.7326 C   0  0  0  0  0  0  0  0  0  0  0  0
    9.0635  -16.2342   23.5164 C   0  0  2  0  0  0  0  0  0  0  0  0
    8.9124  -15.6818   22.2138 N   0  0  0  0  0  0  0  0  0  0  0  0
    9.1728  -15.1158   24.4833 C   0  0  0  0  0  0  0  0  0  0  0  0
    9.9661  -14.1714   24.1672 O   0  0  0  0  0  0  0  0  0  0  0  0
   15.4233  -15.6987   21.3439 C   0  0  0  0  0  0  0  0  0  0  0  0
    7.3458  -13.2655   26.9512 C   0  0  2  0  0  0  0  0  0  0  0  0
    8.6780  -13.9102   26.5739 N   0  0  0  0  0  0  0  0  0  0  0  0
    8.4568  -15.0538   25.7039 C   0  0  0  0  0  0  0  0  0  0  0  0
    9.3324  -14.4006   27.8208 O   0  0  0  0  0  0  0  0  0  0  0  0
    9.4727  -15.6536   28.0261 O   0  0  0  0  0  0  0  0  0  0  0  0
  2  1  1  6
  2  3  1  0
  4  2  1  0
  4  6  1  0
  4  5  1  1
  6  7  2  0
  8  9  1  0
  9 11  1  0
 10  9  2  0
 11 12  1  0
 12 13  1  0
 13 14  1  0
 15 14  1  6
 16  6  1  0
 16 15  1  0
 17 21  1  0
 17 15  1  0
 18 17  2  0
 20 21  1  0
 20 19  1  6
 22 20  1  0
 22 24  1  0
 23 22  2  0
M  END
$$$$
