TRA.pdb
     RDKit          3D

 24 23  0  0  1  0  0  0  0  0999 V2000
    7.8092  -10.9232   25.3868 C   0  0  0  0  0  0  0  0  0  0  0  0
    6.6793  -11.1917   26.3604 C   0  0  1  0  0  0  0  0  0  0  0  0
    5.9781  -10.0370   26.6356 O   0  0  0  0  0  0  0  0  0  0  0  0
    5.8331  -12.3612   25.9547 C   0  0  2  0  0  0  0  0  0  0  0  0
    4.7010  -12.4281   26.8525 N   0  0  0  0  0  0  0  0  0  0  0  0
    6.5997  -13.6275   25.8687 C   0  0  0  0  0  0  0  0  0  0  0  0
    6.8141  -14.2330   26.9353 O   0  0  0  0  0  0  0  0  0  0  0  0
    9.1979  -14.1873   17.9346 N   0  0  0  0  0  0  0  0  0  0  0  0
    8.3898  -13.7892   19.0579 C   0  0  0  0  0  0  0  0  0  0  0  0
    7.9323  -12.5963   19.1554 N   0  0  0  0  0  0  0  0  0  0  0  0
    8.0879  -14.7346   20.0874 N   0  0  0  0  0  0  0  0  0  0  0  0
    9.1238  -15.2271   20.9755 C   0  0  0  0  0  0  0  0  0  0  0  0
    8.8432  -14.7709   22.4140 C   0  0  0  0  0  0  0  0  0  0  0  0
    8.1264  -15.8674   23.1739 C   0  0  0  0  0  0  0  0  0  0  0  0
    7.8472  -15.3951   24.5454 C   0  0  2  0  0  0  0  0  0  0  0  0
    7.0988  -14.1936   24.6895 N   0  0  0  0  0  0  0  0  0  0  0  0
    9.1225  -15.2373   25.2845 C   0  0  0  0  0  0  0  0  0  0  0  0
    9.9723  -14.4347   24.7796 O   0  0  0  0  0  0  0  0  0  0  0  0
    7.3133  -12.3450   19.9383 C   0  0  0  0  0  0  0  0  0  0  0  0
   10.6495  -14.8000   28.2898 C   0  0  2  0  0  0  0  0  0  0  0  0
   10.7428  -15.7220   27.0757 N   0  0  0  0  0  0  0  0  0  0  0  0
    9.4274  -15.9182   26.4886 C   0  0  0  0  0  0  0  0  0  0  0  0
   11.2458  -17.0496   27.5316 O   0  0  0  0  0  0  0  0  0  0  0  0
   10.5244  -18.0949   27.3942 O   0  0  0  0  0  0  0  0  0  0  0  0
  2  1  1  6
  2  3  1  0
  4  2  1  0
  4  6  1  0
  4  5  1  1
  6  7  2  0
  8  9  1  0
  9 11  1  0
 10  9  2  0
 11 12  1  0
 12 13  1  0
 13 14  1  0
 15 14  1  6
 16  6  1  0
 16 15  1  0
 17 21  1  0
 17 15  1  0
 18 17  2  0
 20 21  1  0
 20 19  1  6
 22 20  1  0
 22 24  1  0
 23 22  2  0
M  END
$$$$
