WVK.pdb
     RDKit          3D

 31 32  0  0  1  0  0  0  0  0999 V2000
    5.8873  -17.2107   24.5019 N   0  0  0  0  0  0  0  0  0  0  0  0
    6.7322  -16.0943   24.1273 C   0  0  1  0  0  0  0  0  0  0  0  0
    7.6120  -15.7694   25.2944 C   0  0  0  0  0  0  0  0  0  0  0  0
    6.8661  -14.8086   26.1491 C   0  0  0  0  0  0  0  0  0  0  0  0
    5.9487  -15.0846   27.1329 C   0  0  0  0  0  0  0  0  0  0  0  0
    5.4857  -13.9545   27.6846 N   0  0  0  0  0  0  0  0  0  0  0  0
    6.0869  -12.9197   27.0772 C   0  0  0  0  0  0  0  0  0  0  0  0
    6.0252  -11.5485   27.2045 C   0  0  0  0  0  0  0  0  0  0  0  0
    6.7645  -10.6847   26.4404 C   0  0  0  0  0  0  0  0  0  0  0  0
    7.6141  -11.2112   25.4954 C   0  0  0  0  0  0  0  0  0  0  0  0
    7.7250  -12.5791   25.3147 C   0  0  0  0  0  0  0  0  0  0  0  0
    6.9629  -13.4128   26.1050 C   0  0  0  0  0  0  0  0  0  0  0  0
    7.4836  -16.3648   22.8769 C   0  0  0  0  0  0  0  0  0  0  0  0
    8.1348  -17.4177   22.6852 O   0  0  0  0  0  0  0  0  0  0  0  0
    7.0702  -13.8472   19.3836 C   0  0  0  0  0  0  0  0  0  0  0  0
    8.4420  -14.1483   19.9421 C   0  0  1  0  0  0  0  0  0  0  0  0
    8.9489  -12.9441   20.6850 C   0  0  0  0  0  0  0  0  0  0  0  0
    8.4721  -15.3997   20.7593 C   0  0  2  0  0  0  0  0  0  0  0  0
    7.4913  -15.4151   21.8274 N   0  0  0  0  0  0  0  0  0  0  0  0
    9.8534  -15.5792   21.2830 C   0  0  0  0  0  0  0  0  0  0  0  0
   10.3011  -14.9309   22.2559 O   0  0  0  0  0  0  0  0  0  0  0  0
   10.6767  -16.5242   20.6425 N   0  0  0  0  0  0  0  0  0  0  0  0
   11.9894  -16.9509   21.2951 C   0  0  1  0  0  0  0  0  0  0  0  0
   11.6862  -18.3101   21.8098 C   0  0  0  0  0  0  0  0  0  0  0  0
   12.3836  -18.9291   22.9256 C   0  0  0  0  0  0  0  0  0  0  0  0
   11.9554  -20.2593   23.3786 C   0  0  0  0  0  0  0  0  0  0  0  0
   13.0021  -20.6950   24.4486 C   0  0  0  0  0  0  0  0  0  0  0  0
   12.4223  -21.7985   25.1650 N   0  0  0  0  0  0  0  0  0  0  0  0
   12.9817  -16.8651   20.2089 C   0  0  0  0  0  0  0  0  0  0  0  0
   14.2362  -16.7840   20.5346 O   0  0  0  0  0  0  0  0  0  0  0  0
   12.7293  -16.8682   18.8604 O   0  0  0  0  0  0  0  0  0  0  0  0
  2  1  1  1
  2  3  1  0
  3  4  1  0
  4  5  2  0
  5  6  1  0
  7  6  1  0
  8  7  2  0
  9  8  1  0
 10 11  1  0
 10  9  2  0
 11 12  2  0
 12  4  1  0
 12  7  1  0
 13  2  1  0
 13 19  1  0
 14 13  2  0
 16 15  1  1
 17 16  1  0
 18 19  1  1
 18 16  1  0
 20 18  1  0
 21 20  2  0
 22 20  1  0
 23 29  1  0
 23 22  1  0
 23 24  1  6
 25 24  1  0
 25 26  1  0
 26 27  1  0
 27 28  1  0
 29 31  1  0
 30 29  2  0
M  END
$$$$
