WVK.pdb
     RDKit          3D

 31 32  0  0  1  0  0  0  0  0999 V2000
    6.2385  -18.1116   25.0306 N   0  0  0  0  0  0  0  0  0  0  0  0
    6.6713  -16.7685   24.7003 C   0  0  1  0  0  0  0  0  0  0  0  0
    7.4007  -16.2142   25.8845 C   0  0  0  0  0  0  0  0  0  0  0  0
    6.6390  -15.0252   26.3491 C   0  0  0  0  0  0  0  0  0  0  0  0
    5.2990  -14.9359   26.6353 C   0  0  0  0  0  0  0  0  0  0  0  0
    4.9756  -13.6952   27.0252 N   0  0  0  0  0  0  0  0  0  0  0  0
    6.0912  -12.9494   27.0029 C   0  0  0  0  0  0  0  0  0  0  0  0
    6.3872  -11.6344   27.2914 C   0  0  0  0  0  0  0  0  0  0  0  0
    7.6450  -11.1022   27.1856 C   0  0  0  0  0  0  0  0  0  0  0  0
    8.6685  -11.9216   26.7695 C   0  0  0  0  0  0  0  0  0  0  0  0
    8.4413  -13.2522   26.4631 C   0  0  0  0  0  0  0  0  0  0  0  0
    7.1603  -13.7474   26.5834 C   0  0  0  0  0  0  0  0  0  0  0  0
    7.4655  -16.7359   23.4475 C   0  0  0  0  0  0  0  0  0  0  0  0
    8.2126  -17.6749   23.0874 O   0  0  0  0  0  0  0  0  0  0  0  0
    9.0115  -13.8996   19.5962 C   0  0  0  0  0  0  0  0  0  0  0  0
    8.1075  -14.0811   20.7939 C   0  0  1  0  0  0  0  0  0  0  0  0
    6.6849  -13.8233   20.3835 C   0  0  0  0  0  0  0  0  0  0  0  0
    8.2959  -15.4031   21.4660 C   0  0  2  0  0  0  0  0  0  0  0  0
    7.4054  -15.6103   22.5915 N   0  0  0  0  0  0  0  0  0  0  0  0
    9.7235  -15.5193   21.8697 C   0  0  0  0  0  0  0  0  0  0  0  0
   10.2177  -14.8651   22.8158 O   0  0  0  0  0  0  0  0  0  0  0  0
   10.5368  -16.4094   21.1438 N   0  0  0  0  0  0  0  0  0  0  0  0
   11.9423  -16.7322   21.6456 C   0  0  1  0  0  0  0  0  0  0  0  0
   11.7924  -18.0919   22.2228 C   0  0  0  0  0  0  0  0  0  0  0  0
   12.7966  -18.7352   23.0547 C   0  0  0  0  0  0  0  0  0  0  0  0
   12.5791  -20.1236   23.4821 C   0  0  0  0  0  0  0  0  0  0  0  0
   13.8035  -20.4836   24.3774 C   0  0  0  0  0  0  0  0  0  0  0  0
   13.3323  -21.4211   25.3604 N   0  0  0  0  0  0  0  0  0  0  0  0
   12.7930  -16.6162   20.4480 C   0  0  0  0  0  0  0  0  0  0  0  0
   12.2479  -16.8345   19.2897 O   0  0  0  0  0  0  0  0  0  0  0  0
   14.1250  -16.2894   20.4122 O   0  0  0  0  0  0  0  0  0  0  0  0
  2  1  1  1
  2  3  1  0
  3  4  1  0
  4  5  2  0
  5  6  1  0
  7  6  1  0
  8  7  2  0
  9  8  1  0
 10 11  1  0
 10  9  2  0
 11 12  2  0
 12  4  1  0
 12  7  1  0
 13  2  1  0
 13 19  1  0
 14 13  2  0
 16 15  1  6
 17 16  1  0
 18 19  1  1
 18 16  1  0
 20 18  1  0
 21 20  2  0
 22 20  1  0
 23 29  1  0
 23 22  1  0
 23 24  1  6
 25 24  1  0
 25 26  1  0
 26 27  1  0
 27 28  1  0
 29 31  1  0
 30 29  2  0
M  END
$$$$
