WVK.pdb
     RDKit          3D

 31 32  0  0  1  0  0  0  0  0999 V2000
    5.8662  -18.1516   24.8109 N   0  0  0  0  0  0  0  0  0  0  0  0
    6.4059  -16.8183   24.6334 C   0  0  1  0  0  0  0  0  0  0  0  0
    7.0387  -16.4009   25.9245 C   0  0  0  0  0  0  0  0  0  0  0  0
    6.3578  -15.1537   26.3613 C   0  0  0  0  0  0  0  0  0  0  0  0
    5.0720  -15.0061   26.8199 C   0  0  0  0  0  0  0  0  0  0  0  0
    4.8150  -13.7248   27.1166 N   0  0  0  0  0  0  0  0  0  0  0  0
    5.9212  -13.0095   26.8600 C   0  0  0  0  0  0  0  0  0  0  0  0
    6.2636  -11.6783   26.9627 C   0  0  0  0  0  0  0  0  0  0  0  0
    7.4976  -11.1873   26.6268 C   0  0  0  0  0  0  0  0  0  0  0  0
    8.4469  -12.0675   26.1619 C   0  0  0  0  0  0  0  0  0  0  0  0
    8.1700  -13.4177   26.0338 C   0  0  0  0  0  0  0  0  0  0  0  0
    6.9154  -13.8699   26.3832 C   0  0  0  0  0  0  0  0  0  0  0  0
    7.3263  -16.7445   23.4721 C   0  0  0  0  0  0  0  0  0  0  0  0
    8.0576  -17.6980   23.1180 O   0  0  0  0  0  0  0  0  0  0  0  0
    9.2600  -13.8326   19.8590 C   0  0  0  0  0  0  0  0  0  0  0  0
    8.2469  -14.0291   20.9633 C   0  0  1  0  0  0  0  0  0  0  0  0
    6.8699  -13.7583   20.4252 C   0  0  0  0  0  0  0  0  0  0  0  0
    8.3672  -15.3625   21.6284 C   0  0  2  0  0  0  0  0  0  0  0  0
    7.4128  -15.5599   22.7021 N   0  0  0  0  0  0  0  0  0  0  0  0
    9.7678  -15.5181   22.1064 C   0  0  0  0  0  0  0  0  0  0  0  0
   10.2370  -14.8595   23.0621 O   0  0  0  0  0  0  0  0  0  0  0  0
   10.5844  -16.4522   21.4419 N   0  0  0  0  0  0  0  0  0  0  0  0
   11.9388  -16.8319   22.0357 C   0  0  1  0  0  0  0  0  0  0  0  0
   11.8720  -18.3131   22.1131 C   0  0  0  0  0  0  0  0  0  0  0  0
   12.9787  -19.1537   22.5408 C   0  0  0  0  0  0  0  0  0  0  0  0
   12.8477  -20.6120   22.4224 C   0  0  0  0  0  0  0  0  0  0  0  0
   14.2315  -21.1931   22.8440 C   0  0  0  0  0  0  0  0  0  0  0  0
   13.9655  -22.2432   23.7892 N   0  0  0  0  0  0  0  0  0  0  0  0
   12.9215  -16.2661   21.0945 C   0  0  0  0  0  0  0  0  0  0  0  0
   14.1207  -16.0307   21.5338 O   0  0  0  0  0  0  0  0  0  0  0  0
   12.7144  -15.9580   19.7737 O   0  0  0  0  0  0  0  0  0  0  0  0
  2  1  1  1
  2  3  1  0
  3  4  1  0
  4  5  2  0
  5  6  1  0
  7  6  1  0
  8  7  2  0
  9  8  1  0
 10 11  1  0
 10  9  2  0
 11 12  2  0
 12  4  1  0
 12  7  1  0
 13  2  1  0
 13 19  1  0
 14 13  2  0
 16 15  1  6
 17 16  1  0
 18 19  1  1
 18 16  1  0
 20 18  1  0
 21 20  2  0
 22 20  1  0
 23 29  1  0
 23 22  1  0
 23 24  1  6
 25 24  1  0
 25 26  1  0
 26 27  1  0
 27 28  1  0
 29 31  1  0
 30 29  2  0
M  END
$$$$
