WVK.pdb
     RDKit          3D

 31 32  0  0  1  0  0  0  0  0999 V2000
    6.0404  -18.4749   24.9921 N   0  0  0  0  0  0  0  0  0  0  0  0
    6.4583  -17.0997   24.8063 C   0  0  1  0  0  0  0  0  0  0  0  0
    7.0546  -16.6206   26.0934 C   0  0  0  0  0  0  0  0  0  0  0  0
    6.4316  -15.3063   26.4006 C   0  0  0  0  0  0  0  0  0  0  0  0
    5.1006  -15.0206   26.5807 C   0  0  0  0  0  0  0  0  0  0  0  0
    4.9227  -13.7182   26.8410 N   0  0  0  0  0  0  0  0  0  0  0  0
    6.1271  -13.1260   26.8370 C   0  0  0  0  0  0  0  0  0  0  0  0
    6.5779  -11.8385   27.0351 C   0  0  0  0  0  0  0  0  0  0  0  0
    7.8996  -11.4833   26.9762 C   0  0  0  0  0  0  0  0  0  0  0  0
    8.8279  -12.4614   26.7051 C   0  0  0  0  0  0  0  0  0  0  0  0
    8.4441  -13.7748   26.4956 C   0  0  0  0  0  0  0  0  0  0  0  0
    7.1036  -14.0892   26.5641 C   0  0  0  0  0  0  0  0  0  0  0  0
    7.3655  -16.9500   23.6418 C   0  0  0  0  0  0  0  0  0  0  0  0
    8.1211  -17.8658   23.2421 O   0  0  0  0  0  0  0  0  0  0  0  0
    9.1135  -13.8757   20.0701 C   0  0  0  0  0  0  0  0  0  0  0  0
    8.1163  -14.1498   21.1724 C   0  0  1  0  0  0  0  0  0  0  0  0
    6.7234  -14.0073   20.6261 C   0  0  0  0  0  0  0  0  0  0  0  0
    8.3508  -15.4606   21.8520 C   0  0  2  0  0  0  0  0  0  0  0  0
    7.4103  -15.7321   22.9219 N   0  0  0  0  0  0  0  0  0  0  0  0
    9.7562  -15.4855   22.3402 C   0  0  0  0  0  0  0  0  0  0  0  0
   10.1690  -14.7456   23.2618 O   0  0  0  0  0  0  0  0  0  0  0  0
   10.6447  -16.3879   21.7259 N   0  0  0  0  0  0  0  0  0  0  0  0
   12.0091  -16.6556   22.3570 C   0  0  1  0  0  0  0  0  0  0  0  0
   11.9052  -18.0679   22.8031 C   0  0  0  0  0  0  0  0  0  0  0  0
   12.9881  -18.7986   23.4414 C   0  0  0  0  0  0  0  0  0  0  0  0
   12.7979  -20.2226   23.7481 C   0  0  0  0  0  0  0  0  0  0  0  0
   14.0451  -20.6418   24.5842 C   0  0  0  0  0  0  0  0  0  0  0  0
   13.8499  -22.0181   24.9514 N   0  0  0  0  0  0  0  0  0  0  0  0
   12.9719  -16.3760   21.2770 C   0  0  0  0  0  0  0  0  0  0  0  0
   14.2032  -16.1283   21.6073 O   0  0  0  0  0  0  0  0  0  0  0  0
   12.7148  -16.3533   19.9296 O   0  0  0  0  0  0  0  0  0  0  0  0
  2  1  1  1
  2  3  1  0
  3  4  1  0
  4  5  2  0
  5  6  1  0
  7  6  1  0
  8  7  2  0
  9  8  1  0
 10 11  1  0
 10  9  2  0
 11 12  2  0
 12  4  1  0
 12  7  1  0
 13  2  1  0
 13 19  1  0
 14 13  2  0
 16 15  1  6
 17 16  1  0
 18 19  1  1
 18 16  1  0
 20 18  1  0
 21 20  2  0
 22 20  1  0
 23 29  1  0
 23 22  1  0
 23 24  1  6
 25 24  1  0
 25 26  1  0
 26 27  1  0
 27 28  1  0
 29 31  1  0
 30 29  2  0
M  END
$$$$
