WVK.pdb
     RDKit          3D

 31 32  0  0  1  0  0  0  0  0999 V2000
    6.2642  -18.1572   25.2104 N   0  0  0  0  0  0  0  0  0  0  0  0
    6.7058  -16.8316   24.8253 C   0  0  1  0  0  0  0  0  0  0  0  0
    7.4039  -16.2185   25.9993 C   0  0  0  0  0  0  0  0  0  0  0  0
    6.6550  -14.9853   26.3573 C   0  0  0  0  0  0  0  0  0  0  0  0
    5.3246  -14.8637   26.6748 C   0  0  0  0  0  0  0  0  0  0  0  0
    5.0114  -13.5878   26.9390 N   0  0  0  0  0  0  0  0  0  0  0  0
    6.1242  -12.8503   26.8011 C   0  0  0  0  0  0  0  0  0  0  0  0
    6.4267  -11.5123   26.9368 C   0  0  0  0  0  0  0  0  0  0  0  0
    7.6794  -10.9965   26.7343 C   0  0  0  0  0  0  0  0  0  0  0  0
    8.6907  -11.8574   26.3763 C   0  0  0  0  0  0  0  0  0  0  0  0
    8.4565  -13.2130   26.2223 C   0  0  0  0  0  0  0  0  0  0  0  0
    7.1810  -13.6904   26.4360 C   0  0  0  0  0  0  0  0  0  0  0  0
    7.5327  -16.8603   23.5938 C   0  0  0  0  0  0  0  0  0  0  0  0
    8.2544  -17.8344   23.2778 O   0  0  0  0  0  0  0  0  0  0  0  0
    8.9208  -14.4351   19.4206 C   0  0  0  0  0  0  0  0  0  0  0  0
    8.0928  -14.4687   20.6846 C   0  0  1  0  0  0  0  0  0  0  0  0
    6.6393  -14.3315   20.3277 C   0  0  0  0  0  0  0  0  0  0  0  0
    8.3801  -15.6657   21.5328 C   0  0  2  0  0  0  0  0  0  0  0  0
    7.5353  -15.7563   22.7080 N   0  0  0  0  0  0  0  0  0  0  0  0
    9.8227  -15.6411   21.8972 C   0  0  0  0  0  0  0  0  0  0  0  0
   10.3532  -14.6859   22.5083 O   0  0  0  0  0  0  0  0  0  0  0  0
   10.6078  -16.7499   21.5298 N   0  0  0  0  0  0  0  0  0  0  0  0
   12.0803  -16.8013   21.9300 C   0  0  1  0  0  0  0  0  0  0  0  0
   12.3001  -18.2386   22.2308 C   0  0  0  0  0  0  0  0  0  0  0  0
   11.7922  -18.9054   23.4189 C   0  0  0  0  0  0  0  0  0  0  0  0
   12.1682  -20.3045   23.6616 C   0  0  0  0  0  0  0  0  0  0  0  0
   11.8693  -20.5638   25.1694 C   0  0  0  0  0  0  0  0  0  0  0  0
   10.6498  -21.3234   25.2219 N   0  0  0  0  0  0  0  0  0  0  0  0
   12.7952  -16.2570   20.7619 C   0  0  0  0  0  0  0  0  0  0  0  0
   12.2381  -16.3794   19.5952 O   0  0  0  0  0  0  0  0  0  0  0  0
   14.0070  -15.6140   20.7638 O   0  0  0  0  0  0  0  0  0  0  0  0
  2  1  1  1
  2  3  1  0
  3  4  1  0
  4  5  2  0
  5  6  1  0
  7  6  1  0
  8  7  2  0
  9  8  1  0
 10 11  1  0
 10  9  2  0
 11 12  2  0
 12  4  1  0
 12  7  1  0
 13  2  1  0
 13 19  1  0
 14 13  2  0
 16 15  1  6
 17 16  1  0
 18 19  1  1
 18 16  1  0
 20 18  1  0
 21 20  2  0
 22 20  1  0
 23 29  1  0
 23 22  1  0
 23 24  1  6
 25 24  1  0
 25 26  1  0
 26 27  1  0
 27 28  1  0
 29 31  1  0
 30 29  2  0
M  END
$$$$
