WVK.pdb
     RDKit          3D

 31 32  0  0  1  0  0  0  0  0999 V2000
    5.8428  -17.9905   24.7785 N   0  0  0  0  0  0  0  0  0  0  0  0
    6.4298  -16.6888   24.5305 C   0  0  1  0  0  0  0  0  0  0  0  0
    7.1585  -16.2676   25.7688 C   0  0  0  0  0  0  0  0  0  0  0  0
    6.5093  -15.0216   26.2547 C   0  0  0  0  0  0  0  0  0  0  0  0
    5.1880  -14.8221   26.5707 C   0  0  0  0  0  0  0  0  0  0  0  0
    4.9782  -13.5610   26.9725 N   0  0  0  0  0  0  0  0  0  0  0  0
    6.1516  -12.9110   26.9285 C   0  0  0  0  0  0  0  0  0  0  0  0
    6.5630  -11.6271   27.2155 C   0  0  0  0  0  0  0  0  0  0  0  0
    7.8584  -11.2014   27.0839 C   0  0  0  0  0  0  0  0  0  0  0  0
    8.8003  -12.1012   26.6421 C   0  0  0  0  0  0  0  0  0  0  0  0
    8.4558  -13.4064   26.3357 C   0  0  0  0  0  0  0  0  0  0  0  0
    7.1407  -13.7933   26.4824 C   0  0  0  0  0  0  0  0  0  0  0  0
    7.2799  -16.6883   23.3145 C   0  0  0  0  0  0  0  0  0  0  0  0
    7.9411  -17.6852   22.9424 O   0  0  0  0  0  0  0  0  0  0  0  0
    9.1111  -13.9706   19.5022 C   0  0  0  0  0  0  0  0  0  0  0  0
    8.1640  -14.0879   20.6743 C   0  0  1  0  0  0  0  0  0  0  0  0
    6.7675  -13.7753   20.2151 C   0  0  0  0  0  0  0  0  0  0  0  0
    8.2723  -15.4033   21.3763 C   0  0  2  0  0  0  0  0  0  0  0  0
    7.3764  -15.5278   22.5097 N   0  0  0  0  0  0  0  0  0  0  0  0
    9.6918  -15.6000   21.7773 C   0  0  0  0  0  0  0  0  0  0  0  0
   10.2219  -14.9806   22.7272 O   0  0  0  0  0  0  0  0  0  0  0  0
   10.4547  -16.5280   21.0439 N   0  0  0  0  0  0  0  0  0  0  0  0
   11.8395  -16.9330   21.5432 C   0  0  1  0  0  0  0  0  0  0  0  0
   11.7653  -18.4154   21.5835 C   0  0  0  0  0  0  0  0  0  0  0  0
   12.8900  -19.2750   21.9157 C   0  0  0  0  0  0  0  0  0  0  0  0
   12.7131  -20.7317   21.8464 C   0  0  0  0  0  0  0  0  0  0  0  0
   14.1106  -21.3399   22.1738 C   0  0  0  0  0  0  0  0  0  0  0  0
   13.9339  -22.7654   22.2366 N   0  0  0  0  0  0  0  0  0  0  0  0
   12.7678  -16.3474   20.5599 C   0  0  0  0  0  0  0  0  0  0  0  0
   12.3545  -16.2139   19.3360 O   0  0  0  0  0  0  0  0  0  0  0  0
   14.0467  -15.9094   20.7936 O   0  0  0  0  0  0  0  0  0  0  0  0
  2  1  1  1
  2  3  1  0
  3  4  1  0
  4  5  2  0
  5  6  1  0
  7  6  1  0
  8  7  2  0
  9  8  1  0
 10 11  1  0
 10  9  2  0
 11 12  2  0
 12  4  1  0
 12  7  1  0
 13  2  1  0
 13 19  1  0
 14 13  2  0
 16 15  1  6
 17 16  1  0
 18 19  1  1
 18 16  1  0
 20 18  1  0
 21 20  2  0
 22 20  1  0
 23 29  1  0
 23 22  1  0
 23 24  1  6
 25 24  1  0
 25 26  1  0
 26 27  1  0
 27 28  1  0
 29 31  1  0
 30 29  2  0
M  END
$$$$
