WVK.pdb
     RDKit          3D

 31 32  0  0  1  0  0  0  0  0999 V2000
    9.9671  -14.7733   22.3636 N   0  0  0  0  0  0  0  0  0  0  0  0
    9.0962  -15.3501   23.3682 C   0  0  1  0  0  0  0  0  0  0  0  0
    8.2459  -16.3867   22.7018 C   0  0  0  0  0  0  0  0  0  0  0  0
    7.3279  -15.6702   21.7778 C   0  0  0  0  0  0  0  0  0  0  0  0
    5.9993  -15.9217   21.5393 C   0  0  0  0  0  0  0  0  0  0  0  0
    5.5054  -15.0637   20.6361 N   0  0  0  0  0  0  0  0  0  0  0  0
    6.4950  -14.2361   20.2658 C   0  0  0  0  0  0  0  0  0  0  0  0
    6.5987  -13.1744   19.3928 C   0  0  0  0  0  0  0  0  0  0  0  0
    7.7580  -12.4735   19.1898 C   0  0  0  0  0  0  0  0  0  0  0  0
    8.8795  -12.8474   19.8931 C   0  0  0  0  0  0  0  0  0  0  0  0
    8.8457  -13.9047   20.7858 C   0  0  0  0  0  0  0  0  0  0  0  0
    7.6582  -14.5830   20.9602 C   0  0  0  0  0  0  0  0  0  0  0  0
    9.8596  -15.8682   24.5301 C   0  0  0  0  0  0  0  0  0  0  0  0
   10.7591  -16.7340   24.4256 O   0  0  0  0  0  0  0  0  0  0  0  0
   10.4523  -13.3562   27.7987 C   0  0  0  0  0  0  0  0  0  0  0  0
   10.1752  -14.7993   28.1523 C   0  0  1  0  0  0  0  0  0  0  0  0
    8.8034  -14.9059   28.7569 C   0  0  0  0  0  0  0  0  0  0  0  0
   10.3841  -15.7279   26.9995 C   0  0  2  0  0  0  0  0  0  0  0  0
    9.5900  -15.3890   25.8344 N   0  0  0  0  0  0  0  0  0  0  0  0
   10.1086  -17.1144   27.4643 C   0  0  0  0  0  0  0  0  0  0  0  0
    8.9542  -17.5329   27.7079 O   0  0  0  0  0  0  0  0  0  0  0  0
   11.2078  -17.9776   27.6309 N   0  0  0  0  0  0  0  0  0  0  0  0
   10.9896  -19.3837   28.1845 C   0  0  1  0  0  0  0  0  0  0  0  0
   12.0685  -20.1735   27.5389 C   0  0  0  0  0  0  0  0  0  0  0  0
   12.4179  -20.0703   26.1313 C   0  0  0  0  0  0  0  0  0  0  0  0
   13.5612  -20.8423   25.6266 C   0  0  0  0  0  0  0  0  0  0  0  0
   13.6863  -20.4692   24.1182 C   0  0  0  0  0  0  0  0  0  0  0  0
   14.8147  -21.1987   23.6066 N   0  0  0  0  0  0  0  0  0  0  0  0
   11.0798  -19.2187   29.6461 C   0  0  0  0  0  0  0  0  0  0  0  0
   11.6236  -18.1320   30.1042 O   0  0  0  0  0  0  0  0  0  0  0  0
   10.6390  -20.0973   30.6030 O   0  0  0  0  0  0  0  0  0  0  0  0
  2  1  1  6
  2  3  1  0
  3  4  1  0
  4  5  2  0
  5  6  1  0
  7  6  1  0
  8  7  2  0
  9  8  1  0
 10 11  1  0
 10  9  2  0
 11 12  2  0
 12  4  1  0
 12  7  1  0
 13  2  1  0
 13 19  1  0
 14 13  2  0
 16 15  1  6
 17 16  1  0
 18 19  1  6
 18 16  1  0
 20 18  1  0
 21 20  2  0
 22 20  1  0
 23 29  1  0
 23 22  1  0
 23 24  1  6
 25 24  1  0
 25 26  1  0
 26 27  1  0
 27 28  1  0
 29 31  1  0
 30 29  2  0
M  END
$$$$
