WVK.pdb
     RDKit          3D

 31 32  0  0  1  0  0  0  0  0999 V2000
    6.2612  -17.1792   25.5868 N   0  0  0  0  0  0  0  0  0  0  0  0
    7.0803  -16.0855   25.1036 C   0  0  1  0  0  0  0  0  0  0  0  0
    8.2748  -15.9729   25.9993 C   0  0  0  0  0  0  0  0  0  0  0  0
    8.0021  -14.8661   26.9535 C   0  0  0  0  0  0  0  0  0  0  0  0
    8.3418  -14.7892   28.2817 C   0  0  0  0  0  0  0  0  0  0  0  0
    7.9229  -13.6337   28.8156 N   0  0  0  0  0  0  0  0  0  0  0  0
    7.3031  -12.9327   27.8535 C   0  0  0  0  0  0  0  0  0  0  0  0
    6.6800  -11.7046   27.7937 C   0  0  0  0  0  0  0  0  0  0  0  0
    6.1086  -11.2018   26.6548 C   0  0  0  0  0  0  0  0  0  0  0  0
    6.1577  -11.9611   25.5088 C   0  0  0  0  0  0  0  0  0  0  0  0
    6.7678  -13.2036   25.4985 C   0  0  0  0  0  0  0  0  0  0  0  0
    7.3308  -13.6718   26.6666 C   0  0  0  0  0  0  0  0  0  0  0  0
    7.4283  -16.2466   23.6704 C   0  0  0  0  0  0  0  0  0  0  0  0
    7.5102  -17.3633   23.1083 O   0  0  0  0  0  0  0  0  0  0  0  0
    8.7420  -13.9863   19.3874 C   0  0  0  0  0  0  0  0  0  0  0  0
    8.2060  -13.8809   20.7967 C   0  0  1  0  0  0  0  0  0  0  0  0
    6.8281  -13.2821   20.7584 C   0  0  0  0  0  0  0  0  0  0  0  0
    8.2635  -15.1789   21.5361 C   0  0  2  0  0  0  0  0  0  0  0  0
    7.6876  -15.1117   22.8653 N   0  0  0  0  0  0  0  0  0  0  0  0
    9.6817  -15.6277   21.5768 C   0  0  0  0  0  0  0  0  0  0  0  0
   10.5606  -15.0431   22.2499 O   0  0  0  0  0  0  0  0  0  0  0  0
   10.0297  -16.7612   20.8185 N   0  0  0  0  0  0  0  0  0  0  0  0
   11.4337  -17.3496   20.9365 C   0  0  1  0  0  0  0  0  0  0  0  0
   11.2591  -18.7429   20.4541 C   0  0  0  0  0  0  0  0  0  0  0  0
   10.5707  -19.7808   21.2045 C   0  0  0  0  0  0  0  0  0  0  0  0
   10.4369  -21.1163   20.6076 C   0  0  0  0  0  0  0  0  0  0  0  0
    9.6459  -21.9641   21.6495 C   0  0  0  0  0  0  0  0  0  0  0  0
    9.5061  -23.2801   21.0874 N   0  0  0  0  0  0  0  0  0  0  0  0
   12.2707  -16.4659   20.1059 C   0  0  0  0  0  0  0  0  0  0  0  0
   13.5106  -16.2974   20.4534 O   0  0  0  0  0  0  0  0  0  0  0  0
   11.8857  -15.7894   18.9762 O   0  0  0  0  0  0  0  0  0  0  0  0
  2  1  1  1
  2  3  1  0
  3  4  1  0
  4  5  2  0
  5  6  1  0
  7  6  1  0
  8  7  2  0
  9  8  1  0
 10 11  1  0
 10  9  2  0
 11 12  2  0
 12  4  1  0
 12  7  1  0
 13  2  1  0
 13 19  1  0
 14 13  2  0
 16 15  1  6
 17 16  1  0
 18 19  1  1
 18 16  1  0
 20 18  1  0
 21 20  2  0
 22 20  1  0
 23 29  1  0
 23 22  1  0
 23 24  1  6
 25 24  1  0
 25 26  1  0
 26 27  1  0
 27 28  1  0
 29 31  1  0
 30 29  2  0
M  END
$$$$
