WVK.pdb
     RDKit          3D

 31 32  0  0  1  0  0  0  0  0999 V2000
    5.9760  -17.9496   24.8088 N   0  0  0  0  0  0  0  0  0  0  0  0
    6.5323  -16.6464   24.5044 C   0  0  1  0  0  0  0  0  0  0  0  0
    7.2829  -16.1719   25.7099 C   0  0  0  0  0  0  0  0  0  0  0  0
    6.5324  -15.0143   26.2637 C   0  0  0  0  0  0  0  0  0  0  0  0
    5.2594  -14.9972   26.7780 C   0  0  0  0  0  0  0  0  0  0  0  0
    4.9231  -13.7638   27.1796 N   0  0  0  0  0  0  0  0  0  0  0  0
    5.9634  -12.9509   26.9382 C   0  0  0  0  0  0  0  0  0  0  0  0
    6.2129  -11.6086   27.1289 C   0  0  0  0  0  0  0  0  0  0  0  0
    7.3933  -11.0034   26.7870 C   0  0  0  0  0  0  0  0  0  0  0  0
    8.3835  -11.7739   26.2232 C   0  0  0  0  0  0  0  0  0  0  0  0
    8.1996  -13.1282   26.0034 C   0  0  0  0  0  0  0  0  0  0  0  0
    6.9964  -13.6973   26.3625 C   0  0  0  0  0  0  0  0  0  0  0  0
    7.3522  -16.6703   23.2681 C   0  0  0  0  0  0  0  0  0  0  0  0
    8.1547  -17.5936   22.9981 O   0  0  0  0  0  0  0  0  0  0  0  0
    9.1646  -13.6278   19.7103 C   0  0  0  0  0  0  0  0  0  0  0  0
    8.1636  -13.9068   20.8079 C   0  0  1  0  0  0  0  0  0  0  0  0
    6.7793  -13.6145   20.3009 C   0  0  0  0  0  0  0  0  0  0  0  0
    8.3024  -15.2801   21.3821 C   0  0  2  0  0  0  0  0  0  0  0  0
    7.2537  -15.6203   22.3240 N   0  0  0  0  0  0  0  0  0  0  0  0
    9.6507  -15.3900   22.0020 C   0  0  0  0  0  0  0  0  0  0  0  0
    9.9588  -14.8084   23.0669 O   0  0  0  0  0  0  0  0  0  0  0  0
   10.6074  -16.1879   21.3468 N   0  0  0  0  0  0  0  0  0  0  0  0
   11.9473  -16.4715   22.0216 C   0  0  1  0  0  0  0  0  0  0  0  0
   11.7288  -17.7899   22.6687 C   0  0  0  0  0  0  0  0  0  0  0  0
   12.6014  -18.3467   23.6898 C   0  0  0  0  0  0  0  0  0  0  0  0
   12.3859  -19.7323   24.1274 C   0  0  0  0  0  0  0  0  0  0  0  0
   13.5349  -20.0373   25.1358 C   0  0  0  0  0  0  0  0  0  0  0  0
   12.9744  -20.8844   26.1534 N   0  0  0  0  0  0  0  0  0  0  0  0
   12.9258  -16.4335   20.9203 C   0  0  0  0  0  0  0  0  0  0  0  0
   12.5095  -16.7235   19.7249 O   0  0  0  0  0  0  0  0  0  0  0  0
   14.2566  -16.1126   21.0114 O   0  0  0  0  0  0  0  0  0  0  0  0
  2  1  1  1
  2  3  1  0
  3  4  1  0
  4  5  2  0
  5  6  1  0
  7  6  1  0
  8  7  2  0
  9  8  1  0
 10 11  1  0
 10  9  2  0
 11 12  2  0
 12  4  1  0
 12  7  1  0
 13  2  1  0
 13 19  1  0
 14 13  2  0
 16 15  1  6
 17 16  1  0
 18 19  1  1
 18 16  1  0
 20 18  1  0
 21 20  2  0
 22 20  1  0
 23 29  1  0
 23 22  1  0
 23 24  1  6
 25 24  1  0
 25 26  1  0
 26 27  1  0
 27 28  1  0
 29 31  1  0
 30 29  2  0
M  END
$$$$
