WVK.pdb
     RDKit          3D

 31 32  0  0  1  0  0  0  0  0999 V2000
    6.3605  -18.2958   25.0622 N   0  0  0  0  0  0  0  0  0  0  0  0
    6.7334  -16.9422   24.7026 C   0  0  1  0  0  0  0  0  0  0  0  0
    7.4629  -16.3406   25.8635 C   0  0  0  0  0  0  0  0  0  0  0  0
    6.7080  -15.1268   26.2718 C   0  0  0  0  0  0  0  0  0  0  0  0
    5.3676  -15.0153   26.5477 C   0  0  0  0  0  0  0  0  0  0  0  0
    5.0517  -13.7564   26.8811 N   0  0  0  0  0  0  0  0  0  0  0  0
    6.1729  -13.0203   26.8310 C   0  0  0  0  0  0  0  0  0  0  0  0
    6.4774  -11.6960   27.0626 C   0  0  0  0  0  0  0  0  0  0  0  0
    7.7395  -11.1781   26.9390 C   0  0  0  0  0  0  0  0  0  0  0  0
    8.7586  -12.0223   26.5640 C   0  0  0  0  0  0  0  0  0  0  0  0
    8.5229  -13.3635   26.3156 C   0  0  0  0  0  0  0  0  0  0  0  0
    7.2378  -13.8437   26.4519 C   0  0  0  0  0  0  0  0  0  0  0  0
    7.5016  -16.8989   23.4340 C   0  0  0  0  0  0  0  0  0  0  0  0
    8.2265  -17.8422   23.0415 O   0  0  0  0  0  0  0  0  0  0  0  0
    8.6891  -14.2299   19.3485 C   0  0  0  0  0  0  0  0  0  0  0  0
    7.9394  -14.3285   20.6572 C   0  0  1  0  0  0  0  0  0  0  0  0
    6.4706  -14.1386   20.4014 C   0  0  0  0  0  0  0  0  0  0  0  0
    8.2487  -15.5836   21.4080 C   0  0  2  0  0  0  0  0  0  0  0  0
    7.4406  -15.7572   22.5995 N   0  0  0  0  0  0  0  0  0  0  0  0
    9.7020  -15.5872   21.7278 C   0  0  0  0  0  0  0  0  0  0  0  0
   10.2252  -14.7734   22.5223 O   0  0  0  0  0  0  0  0  0  0  0  0
   10.5064  -16.5561   21.0992 N   0  0  0  0  0  0  0  0  0  0  0  0
   11.9594  -16.7320   21.5337 C   0  0  1  0  0  0  0  0  0  0  0  0
   11.9595  -18.0663   22.1851 C   0  0  0  0  0  0  0  0  0  0  0  0
   12.7225  -18.3848   23.3812 C   0  0  0  0  0  0  0  0  0  0  0  0
   12.7318  -19.7710   23.8675 C   0  0  0  0  0  0  0  0  0  0  0  0
   13.7017  -19.7809   25.0879 C   0  0  0  0  0  0  0  0  0  0  0  0
   13.4700  -21.0158   25.7868 N   0  0  0  0  0  0  0  0  0  0  0  0
   12.7313  -16.6100   20.2844 C   0  0  0  0  0  0  0  0  0  0  0  0
   12.1857  -17.0384   19.1866 O   0  0  0  0  0  0  0  0  0  0  0  0
   13.9872  -16.0769   20.1407 O   0  0  0  0  0  0  0  0  0  0  0  0
  2  1  1  1
  2  3  1  0
  3  4  1  0
  4  5  2  0
  5  6  1  0
  7  6  1  0
  8  7  2  0
  9  8  1  0
 10 11  1  0
 10  9  2  0
 11 12  2  0
 12  4  1  0
 12  7  1  0
 13  2  1  0
 13 19  1  0
 14 13  2  0
 16 15  1  6
 17 16  1  0
 18 19  1  1
 18 16  1  0
 20 18  1  0
 21 20  2  0
 22 20  1  0
 23 29  1  0
 23 22  1  0
 23 24  1  6
 25 24  1  0
 25 26  1  0
 26 27  1  0
 27 28  1  0
 29 31  1  0
 30 29  2  0
M  END
$$$$
