WVK.pdb
     RDKit          3D

 31 32  0  0  1  0  0  0  0  0999 V2000
    6.2688  -18.1701   25.2619 N   0  0  0  0  0  0  0  0  0  0  0  0
    6.7286  -16.8389   24.9200 C   0  0  1  0  0  0  0  0  0  0  0  0
    7.3827  -16.2511   26.1317 C   0  0  0  0  0  0  0  0  0  0  0  0
    6.6377  -15.0104   26.4714 C   0  0  0  0  0  0  0  0  0  0  0  0
    5.3056  -14.8786   26.7773 C   0  0  0  0  0  0  0  0  0  0  0  0
    4.9971  -13.5984   27.0261 N   0  0  0  0  0  0  0  0  0  0  0  0
    6.1149  -12.8683   26.8893 C   0  0  0  0  0  0  0  0  0  0  0  0
    6.4235  -11.5306   27.0139 C   0  0  0  0  0  0  0  0  0  0  0  0
    7.6805  -11.0235   26.8158 C   0  0  0  0  0  0  0  0  0  0  0  0
    8.6899  -11.8933   26.4744 C   0  0  0  0  0  0  0  0  0  0  0  0
    8.4496  -13.2491   26.3324 C   0  0  0  0  0  0  0  0  0  0  0  0
    7.1699  -13.7176   26.5410 C   0  0  0  0  0  0  0  0  0  0  0  0
    7.6022  -16.8467   23.7209 C   0  0  0  0  0  0  0  0  0  0  0  0
    8.3925  -17.7823   23.4572 O   0  0  0  0  0  0  0  0  0  0  0  0
    9.2467  -14.2328   19.7542 C   0  0  0  0  0  0  0  0  0  0  0  0
    8.3094  -14.3475   20.9344 C   0  0  1  0  0  0  0  0  0  0  0  0
    6.8946  -14.1621   20.4623 C   0  0  0  0  0  0  0  0  0  0  0  0
    8.5100  -15.6083   21.7121 C   0  0  2  0  0  0  0  0  0  0  0  0
    7.5725  -15.7661   22.8072 N   0  0  0  0  0  0  0  0  0  0  0  0
    9.9189  -15.6400   22.1898 C   0  0  0  0  0  0  0  0  0  0  0  0
   10.4224  -14.7270   22.8828 O   0  0  0  0  0  0  0  0  0  0  0  0
   10.7032  -16.7540   21.8365 N   0  0  0  0  0  0  0  0  0  0  0  0
   12.1305  -16.8738   22.3652 C   0  0  1  0  0  0  0  0  0  0  0  0
   12.2962  -18.3356   22.5658 C   0  0  0  0  0  0  0  0  0  0  0  0
   11.7471  -19.0665   23.6965 C   0  0  0  0  0  0  0  0  0  0  0  0
   12.0403  -20.5004   23.8232 C   0  0  0  0  0  0  0  0  0  0  0  0
   11.2327  -20.9855   25.0652 C   0  0  0  0  0  0  0  0  0  0  0  0
   11.5073  -22.3892   25.2113 N   0  0  0  0  0  0  0  0  0  0  0  0
   12.9612  -16.2555   21.3168 C   0  0  0  0  0  0  0  0  0  0  0  0
   14.0197  -15.5998   21.6857 O   0  0  0  0  0  0  0  0  0  0  0  0
   12.7455  -16.2985   19.9626 O   0  0  0  0  0  0  0  0  0  0  0  0
  2  1  1  1
  2  3  1  0
  3  4  1  0
  4  5  2  0
  5  6  1  0
  7  6  1  0
  8  7  2  0
  9  8  1  0
 10 11  1  0
 10  9  2  0
 11 12  2  0
 12  4  1  0
 12  7  1  0
 13  2  1  0
 13 19  1  0
 14 13  2  0
 16 15  1  6
 17 16  1  0
 18 19  1  1
 18 16  1  0
 20 18  1  0
 21 20  2  0
 22 20  1  0
 23 29  1  0
 23 22  1  0
 23 24  1  6
 25 24  1  0
 25 26  1  0
 26 27  1  0
 27 28  1  0
 29 31  1  0
 30 29  2  0
M  END
$$$$
