QRY.pdb
     RDKit          3D

 33 33  0  0  1  0  0  0  0  0999 V2000
   13.1919  -15.3656   18.6524 N   0  0  0  0  0  0  0  0  0  0  0  0
   13.0305  -14.0359   19.0829 C   0  0  0  0  0  0  0  0  0  0  0  0
   13.9754  -13.4389   19.6620 O   0  0  0  0  0  0  0  0  0  0  0  0
   11.7577  -13.2778   18.8810 C   0  0  0  0  0  0  0  0  0  0  0  0
   10.7339  -14.1055   18.1832 C   0  0  0  0  0  0  0  0  0  0  0  0
    9.3690  -13.8261   18.6275 C   0  0  2  0  0  0  0  0  0  0  0  0
    9.0520  -12.4045   18.6409 N   0  0  0  0  0  0  0  0  0  0  0  0
    8.7406  -14.6065   19.6762 C   0  0  0  0  0  0  0  0  0  0  0  0
    8.1445  -13.9489   20.6250 O   0  0  0  0  0  0  0  0  0  0  0  0
    7.4220  -23.1674   20.7961 N   0  0  0  0  0  0  0  0  0  0  0  0
    8.4865  -22.2359   20.6781 C   0  0  0  0  0  0  0  0  0  0  0  0
    9.6368  -22.6055   20.2328 N   0  0  0  0  0  0  0  0  0  0  0  0
    8.3047  -20.8795   21.0456 N   0  0  0  0  0  0  0  0  0  0  0  0
    7.1014  -20.3333   21.6327 C   0  0  0  0  0  0  0  0  0  0  0  0
    7.2026  -18.8641   21.8898 C   0  0  0  0  0  0  0  0  0  0  0  0
    7.8555  -18.0938   20.8083 C   0  0  0  0  0  0  0  0  0  0  0  0
    8.0233  -16.6324   20.9957 C   0  0  2  0  0  0  0  0  0  0  0  0
    8.6751  -16.0053   19.8421 N   0  0  0  0  0  0  0  0  0  0  0  0
    8.7894  -16.3655   22.2350 C   0  0  0  0  0  0  0  0  0  0  0  0
   10.0200  -16.5852   22.2288 O   0  0  0  0  0  0  0  0  0  0  0  0
   10.4045  -21.9051   20.1762 O   0  0  0  0  0  0  0  0  0  0  0  0
   10.9954  -14.8876   30.6670 C   0  0  0  0  0  0  0  0  0  0  0  0
   10.3444  -14.8765   29.4426 C   0  0  0  0  0  0  0  0  0  0  0  0
    9.5799  -15.9487   29.0421 C   0  0  0  0  0  0  0  0  0  0  0  0
    8.9251  -15.9578   27.8295 C   0  0  0  0  0  0  0  0  0  0  0  0
    9.0063  -14.8762   26.9460 C   0  0  0  0  0  0  0  0  0  0  0  0
    8.3141  -14.8821   25.6419 C   0  0  1  0  0  0  0  0  0  0  0  0
    9.0468  -15.6782   24.5995 N   0  0  0  0  0  0  0  0  0  0  0  0
    8.2010  -15.8763   23.4199 C   0  0  0  0  0  0  0  0  0  0  0  0
    9.4264  -16.9966   25.1134 O   0  0  0  0  0  0  0  0  0  0  0  0
   10.6779  -17.2155   25.6502 C   0  0  0  0  0  0  0  0  0  0  0  0
    9.7816  -13.8122   27.3751 C   0  0  0  0  0  0  0  0  0  0  0  0
   10.4333  -13.8028   28.5819 O   0  0  0  0  0  0  0  0  0  0  0  0
  2  3  2  0
  2  1  1  0
  4  2  1  0
  5  6  1  0
  5  4  1  0
  6  8  1  0
  6  7  1  1
  8 18  1  0
  8  9  2  0
 10 11  1  0
 11 12  2  0
 13 11  1  0
 14 13  1  0
 15 14  1  0
 16 15  1  0
 17 19  1  0
 17 16  1  6
 18 17  1  0
 19 20  2  0
 21 22  1  0
 22 23  2  0
 22 32  1  0
 23 24  1  0
 24 25  2  0
 25 26  1  0
 27 26  1  6
 27 28  1  0
 28 19  1  0
 29 27  1  0
 30 29  1  0
 31 25  1  0
 32 31  2  0
 33 29  2  0
M  END
$$$$
