QRY.pdb
     RDKit          3D

 33 33  0  0  1  0  0  0  0  0999 V2000
    9.1880  -22.0473   28.2409 N   0  0  0  0  0  0  0  0  0  0  0  0
    7.7923  -21.8737   28.2006 C   0  0  0  0  0  0  0  0  0  0  0  0
    7.0889  -22.1656   29.2028 O   0  0  0  0  0  0  0  0  0  0  0  0
    7.0857  -21.3458   26.9933 C   0  0  0  0  0  0  0  0  0  0  0  0
    8.0447  -21.0021   25.9060 C   0  0  0  0  0  0  0  0  0  0  0  0
    7.4015  -20.3862   24.7460 C   0  0  2  0  0  0  0  0  0  0  0  0
    6.7685  -21.3553   23.8619 N   0  0  0  0  0  0  0  0  0  0  0  0
    7.9826  -19.2350   24.0821 C   0  0  0  0  0  0  0  0  0  0  0  0
    9.1379  -19.4032   23.5120 O   0  0  0  0  0  0  0  0  0  0  0  0
    6.9349  -11.8974   19.0426 N   0  0  0  0  0  0  0  0  0  0  0  0
    8.1743  -12.5882   19.0793 C   0  0  0  0  0  0  0  0  0  0  0  0
    9.0168  -12.4783   18.1118 N   0  0  0  0  0  0  0  0  0  0  0  0
    8.5111  -13.4112   20.1826 N   0  0  0  0  0  0  0  0  0  0  0  0
    7.5848  -13.8528   21.2014 C   0  0  0  0  0  0  0  0  0  0  0  0
    8.2643  -14.5638   22.3273 C   0  0  0  0  0  0  0  0  0  0  0  0
    7.5454  -15.7578   22.8241 C   0  0  0  0  0  0  0  0  0  0  0  0
    8.3275  -16.7973   23.5360 C   0  0  2  0  0  0  0  0  0  0  0  0
    7.4857  -17.9214   23.9565 N   0  0  0  0  0  0  0  0  0  0  0  0
    9.0193  -16.2006   24.7018 C   0  0  0  0  0  0  0  0  0  0  0  0
    9.8940  -15.3328   24.4904 O   0  0  0  0  0  0  0  0  0  0  0  0
    9.9142  -13.0030   18.1625 O   0  0  0  0  0  0  0  0  0  0  0  0
    6.6898  -10.5581   24.9554 C   0  0  0  0  0  0  0  0  0  0  0  0
    7.1432  -11.6488   25.6818 C   0  0  0  0  0  0  0  0  0  0  0  0
    8.4883  -11.8341   25.9078 C   0  0  0  0  0  0  0  0  0  0  0  0
    8.9596  -12.9111   26.6268 C   0  0  0  0  0  0  0  0  0  0  0  0
    8.0923  -13.8696   27.1621 C   0  0  0  0  0  0  0  0  0  0  0  0
    8.5905  -15.0303   27.9265 C   0  0  2  0  0  0  0  0  0  0  0  0
    9.4932  -15.9155   27.1151 N   0  0  0  0  0  0  0  0  0  0  0  0
    8.7409  -16.5613   26.0366 C   0  0  0  0  0  0  0  0  0  0  0  0
   10.0883  -16.9651   27.9461 O   0  0  0  0  0  0  0  0  0  0  0  0
   10.8701  -16.6482   29.0373 C   0  0  0  0  0  0  0  0  0  0  0  0
    6.7458  -13.6574   26.9193 C   0  0  0  0  0  0  0  0  0  0  0  0
    6.2763  -12.5855   26.2039 O   0  0  0  0  0  0  0  0  0  0  0  0
  2  3  2  0
  2  1  1  0
  4  2  1  0
  5  6  1  0
  5  4  1  0
  6  8  1  0
  6  7  1  6
  8 18  1  0
  8  9  2  0
 10 11  1  0
 11 12  2  0
 13 11  1  0
 14 13  1  0
 15 14  1  0
 16 15  1  0
 17 19  1  0
 17 16  1  1
 18 17  1  0
 19 20  2  0
 21 22  1  0
 22 23  2  0
 22 32  1  0
 23 24  1  0
 24 25  2  0
 25 26  1  0
 27 26  1  6
 27 28  1  0
 28 19  1  0
 29 27  1  0
 30 29  1  0
 31 25  1  0
 32 31  2  0
 33 29  2  0
M  END
$$$$
