QRY.pdb
     RDKit          3D

 33 33  0  0  1  0  0  0  0  0999 V2000
    9.0426  -12.0457   18.8195 N   0  0  0  0  0  0  0  0  0  0  0  0
    8.5862  -13.1289   18.0464 C   0  0  0  0  0  0  0  0  0  0  0  0
    9.2226  -13.4876   17.0213 O   0  0  0  0  0  0  0  0  0  0  0  0
    7.3494  -13.8945   18.3921 C   0  0  0  0  0  0  0  0  0  0  0  0
    7.4126  -14.4370   19.7785 C   0  0  0  0  0  0  0  0  0  0  0  0
    7.6589  -15.8778   19.8210 C   0  0  2  0  0  0  0  0  0  0  0  0
    6.5085  -16.6670   19.4024 N   0  0  0  0  0  0  0  0  0  0  0  0
    8.4682  -16.4759   20.8656 C   0  0  0  0  0  0  0  0  0  0  0  0
    7.8425  -16.9317   21.9090 O   0  0  0  0  0  0  0  0  0  0  0  0
   16.6402  -19.8204   21.5191 N   0  0  0  0  0  0  0  0  0  0  0  0
   15.4271  -20.5323   21.3284 C   0  0  0  0  0  0  0  0  0  0  0  0
   15.4243  -21.6833   20.7511 N   0  0  0  0  0  0  0  0  0  0  0  0
   14.1942  -19.9921   21.7714 N   0  0  0  0  0  0  0  0  0  0  0  0
   14.0469  -18.7566   22.5081 C   0  0  0  0  0  0  0  0  0  0  0  0
   12.6222  -18.4549   22.8460 C   0  0  0  0  0  0  0  0  0  0  0  0
   11.8748  -17.7461   21.7838 C   0  0  0  0  0  0  0  0  0  0  0  0
   10.5328  -17.2088   22.1145 C   0  0  2  0  0  0  0  0  0  0  0  0
    9.8665  -16.6421   20.9381 N   0  0  0  0  0  0  0  0  0  0  0  0
   10.6440  -16.1950   23.1886 C   0  0  0  0  0  0  0  0  0  0  0  0
   10.9166  -15.0184   22.8659 O   0  0  0  0  0  0  0  0  0  0  0  0
   14.5243  -22.1970   20.6546 O   0  0  0  0  0  0  0  0  0  0  0  0
    5.8222  -11.1512   27.9771 C   0  0  0  0  0  0  0  0  0  0  0  0
    6.4921  -12.0863   27.2027 C   0  0  0  0  0  0  0  0  0  0  0  0
    5.8309  -12.7934   26.2242 C   0  0  0  0  0  0  0  0  0  0  0  0
    6.4779  -13.7270   25.4438 C   0  0  0  0  0  0  0  0  0  0  0  0
    7.8397  -14.0016   25.6091 C   0  0  0  0  0  0  0  0  0  0  0  0
    8.5376  -15.0061   24.7823 C   0  0  1  0  0  0  0  0  0  0  0  0
    9.8122  -15.4919   25.4120 N   0  0  0  0  0  0  0  0  0  0  0  0
   10.4574  -16.4898   24.5552 C   0  0  0  0  0  0  0  0  0  0  0  0
    9.5542  -16.1099   26.7150 O   0  0  0  0  0  0  0  0  0  0  0  0
    8.9713  -17.3567   26.8061 C   0  0  0  0  0  0  0  0  0  0  0  0
    8.4786  -13.2755   26.5999 C   0  0  0  0  0  0  0  0  0  0  0  0
    7.8351  -12.3462   27.3767 O   0  0  0  0  0  0  0  0  0  0  0  0
  2  3  2  0
  2  1  1  0
  4  2  1  0
  5  6  1  0
  5  4  1  0
  6  8  1  0
  6  7  1  1
  8 18  1  0
  8  9  2  0
 10 11  1  0
 11 12  2  0
 13 11  1  0
 14 13  1  0
 15 14  1  0
 16 15  1  0
 17 19  1  0
 17 16  1  6
 18 17  1  0
 19 20  2  0
 21 22  1  0
 22 23  2  0
 22 32  1  0
 23 24  1  0
 24 25  2  0
 25 26  1  0
 27 26  1  6
 27 28  1  0
 28 19  1  0
 29 27  1  0
 30 29  1  0
 31 25  1  0
 32 31  2  0
 33 29  2  0
M  END
$$$$
