QRY.pdb
     RDKit          3D

 33 33  0  0  1  0  0  0  0  0999 V2000
   11.9836  -19.7384   17.6961 N   0  0  0  0  0  0  0  0  0  0  0  0
   11.8387  -20.8396   18.5597 C   0  0  0  0  0  0  0  0  0  0  0  0
   11.6642  -21.9942   18.0897 O   0  0  0  0  0  0  0  0  0  0  0  0
   11.8825  -20.7013   20.0479 C   0  0  0  0  0  0  0  0  0  0  0  0
   12.1182  -19.2884   20.4582 C   0  0  0  0  0  0  0  0  0  0  0  0
   11.5072  -18.9539   21.7441 C   0  0  2  0  0  0  0  0  0  0  0  0
   10.6850  -20.0287   22.2830 N   0  0  0  0  0  0  0  0  0  0  0  0
   11.0323  -17.6135   22.0295 C   0  0  0  0  0  0  0  0  0  0  0  0
   11.8935  -16.6467   21.9221 O   0  0  0  0  0  0  0  0  0  0  0  0
    9.2155  -13.5285   17.5070 N   0  0  0  0  0  0  0  0  0  0  0  0
    8.3423  -12.9094   18.4392 C   0  0  0  0  0  0  0  0  0  0  0  0
    8.5393  -11.6946   18.8177 N   0  0  0  0  0  0  0  0  0  0  0  0
    7.2343  -13.6148   18.9709 N   0  0  0  0  0  0  0  0  0  0  0  0
    7.3231  -14.7324   19.8842 C   0  0  0  0  0  0  0  0  0  0  0  0
    7.8191  -14.3320   21.2365 C   0  0  0  0  0  0  0  0  0  0  0  0
    8.0323  -15.4584   22.1719 C   0  0  0  0  0  0  0  0  0  0  0  0
    9.4207  -15.7588   22.5976 C   0  0  2  0  0  0  0  0  0  0  0  0
    9.7506  -17.1764   22.4228 N   0  0  0  0  0  0  0  0  0  0  0  0
    9.6181  -15.3484   24.0070 C   0  0  0  0  0  0  0  0  0  0  0  0
    9.2315  -14.2107   24.3518 O   0  0  0  0  0  0  0  0  0  0  0  0
    7.9167  -11.2854   19.5444 O   0  0  0  0  0  0  0  0  0  0  0  0
    5.3708  -11.4420   25.8614 C   0  0  0  0  0  0  0  0  0  0  0  0
    6.1523  -12.5650   26.0872 C   0  0  0  0  0  0  0  0  0  0  0  0
    6.1151  -13.6342   25.2211 C   0  0  0  0  0  0  0  0  0  0  0  0
    6.8834  -14.7595   25.4272 C   0  0  0  0  0  0  0  0  0  0  0  0
    7.7393  -14.8695   26.5283 C   0  0  0  0  0  0  0  0  0  0  0  0
    8.5594  -16.0751   26.7600 C   0  0  2  0  0  0  0  0  0  0  0  0
   10.0029  -15.8740   26.3956 N   0  0  0  0  0  0  0  0  0  0  0  0
   10.2190  -16.1759   24.9784 C   0  0  0  0  0  0  0  0  0  0  0  0
   10.8728  -16.7497   27.1848 O   0  0  0  0  0  0  0  0  0  0  0  0
   11.6876  -17.6791   26.5726 C   0  0  0  0  0  0  0  0  0  0  0  0
    7.7563  -13.7794   27.3819 C   0  0  0  0  0  0  0  0  0  0  0  0
    6.9919  -12.6592   27.1770 O   0  0  0  0  0  0  0  0  0  0  0  0
  2  3  2  0
  2  1  1  0
  4  2  1  0
  5  6  1  0
  5  4  1  0
  6  8  1  0
  6  7  1  6
  8 18  1  0
  8  9  2  0
 10 11  1  0
 11 12  2  0
 13 11  1  0
 14 13  1  0
 15 14  1  0
 16 15  1  0
 17 19  1  0
 17 16  1  1
 18 17  1  0
 19 20  2  0
 21 22  1  0
 22 23  2  0
 22 32  1  0
 23 24  1  0
 24 25  2  0
 25 26  1  0
 27 26  1  6
 27 28  1  0
 28 19  1  0
 29 27  1  0
 30 29  1  0
 31 25  1  0
 32 31  2  0
 33 29  2  0
M  END
$$$$
