QRY.pdb
     RDKit          3D

 33 33  0  0  1  0  0  0  0  0999 V2000
    7.9373  -11.9906   18.5692 N   0  0  0  0  0  0  0  0  0  0  0  0
    8.2081  -12.7699   17.4295 C   0  0  0  0  0  0  0  0  0  0  0  0
    8.2424  -12.2351   16.2905 O   0  0  0  0  0  0  0  0  0  0  0  0
    8.4635  -14.2410   17.5077 C   0  0  0  0  0  0  0  0  0  0  0  0
    8.3543  -14.7406   18.9072 C   0  0  0  0  0  0  0  0  0  0  0  0
    8.4656  -16.1953   19.0083 C   0  0  2  0  0  0  0  0  0  0  0  0
    7.4794  -16.9014   18.2019 N   0  0  0  0  0  0  0  0  0  0  0  0
    8.8146  -16.8415   20.2590 C   0  0  0  0  0  0  0  0  0  0  0  0
    7.8351  -17.1746   21.0449 O   0  0  0  0  0  0  0  0  0  0  0  0
   15.0169  -19.6360   19.0333 N   0  0  0  0  0  0  0  0  0  0  0  0
   14.0647  -20.5341   19.5823 C   0  0  0  0  0  0  0  0  0  0  0  0
   13.6039  -21.5119   18.8825 N   0  0  0  0  0  0  0  0  0  0  0  0
   13.6034  -20.3748   20.9126 N   0  0  0  0  0  0  0  0  0  0  0  0
   12.3654  -20.9126   21.4313 C   0  0  0  0  0  0  0  0  0  0  0  0
   11.2272  -19.9502   21.3159 C   0  0  0  0  0  0  0  0  0  0  0  0
   11.3603  -18.7369   22.1523 C   0  0  0  0  0  0  0  0  0  0  0  0
   10.2613  -17.7418   22.1182 C   0  0  2  0  0  0  0  0  0  0  0  0
   10.0829  -17.1712   20.7796 N   0  0  0  0  0  0  0  0  0  0  0  0
   10.5161  -16.6720   23.1103 C   0  0  0  0  0  0  0  0  0  0  0  0
   10.9756  -15.5834   22.7020 O   0  0  0  0  0  0  0  0  0  0  0  0
   12.8729  -22.1270   19.2954 O   0  0  0  0  0  0  0  0  0  0  0  0
    5.6550  -11.3979   27.7755 C   0  0  0  0  0  0  0  0  0  0  0  0
    6.3137  -12.3400   27.0001 C   0  0  0  0  0  0  0  0  0  0  0  0
    7.0446  -13.3480   27.5869 C   0  0  0  0  0  0  0  0  0  0  0  0
    7.7067  -14.2940   26.8347 C   0  0  0  0  0  0  0  0  0  0  0  0
    7.6681  -14.2750   25.4363 C   0  0  0  0  0  0  0  0  0  0  0  0
    8.3815  -15.2803   24.6237 C   0  0  1  0  0  0  0  0  0  0  0  0
    9.6933  -15.6915   25.2296 N   0  0  0  0  0  0  0  0  0  0  0  0
   10.2662  -16.8193   24.4906 C   0  0  0  0  0  0  0  0  0  0  0  0
    9.5236  -16.1019   26.6257 O   0  0  0  0  0  0  0  0  0  0  0  0
    9.8955  -15.2690   27.6603 C   0  0  0  0  0  0  0  0  0  0  0  0
    6.9256  -13.2505   24.8739 C   0  0  0  0  0  0  0  0  0  0  0  0
    6.2663  -12.3089   25.6223 O   0  0  0  0  0  0  0  0  0  0  0  0
  2  3  2  0
  2  1  1  0
  4  2  1  0
  5  6  1  0
  5  4  1  0
  6  8  1  0
  6  7  1  1
  8 18  1  0
  8  9  2  0
 10 11  1  0
 11 12  2  0
 13 11  1  0
 14 13  1  0
 15 14  1  0
 16 15  1  0
 17 19  1  0
 17 16  1  6
 18 17  1  0
 19 20  2  0
 21 22  1  0
 22 23  2  0
 22 32  1  0
 23 24  1  0
 24 25  2  0
 25 26  1  0
 27 26  1  6
 27 28  1  0
 28 19  1  0
 29 27  1  0
 30 29  1  0
 31 25  1  0
 32 31  2  0
 33 29  2  0
M  END
$$$$
