QRY.pdb
     RDKit          3D

 33 33  0  0  1  0  0  0  0  0999 V2000
   13.5539  -18.3433   17.0920 N   0  0  0  0  0  0  0  0  0  0  0  0
   12.2258  -18.2774   16.6322 C   0  0  0  0  0  0  0  0  0  0  0  0
   11.9832  -18.2707   15.3970 O   0  0  0  0  0  0  0  0  0  0  0  0
   11.0582  -18.2130   17.5638 C   0  0  0  0  0  0  0  0  0  0  0  0
   11.4948  -18.2255   18.9883 C   0  0  0  0  0  0  0  0  0  0  0  0
   10.3816  -18.1261   19.9315 C   0  0  2  0  0  0  0  0  0  0  0  0
    9.1861  -18.8252   19.4803 N   0  0  0  0  0  0  0  0  0  0  0  0
   10.1365  -16.9121   20.6864 C   0  0  0  0  0  0  0  0  0  0  0  0
   11.1719  -16.3132   21.1936 O   0  0  0  0  0  0  0  0  0  0  0  0
    9.3669  -15.0938   17.1428 N   0  0  0  0  0  0  0  0  0  0  0  0
    8.5557  -13.9354   17.0219 C   0  0  0  0  0  0  0  0  0  0  0  0
    7.9374  -13.6779   15.9222 N   0  0  0  0  0  0  0  0  0  0  0  0
    8.4075  -13.0396   18.1098 N   0  0  0  0  0  0  0  0  0  0  0  0
    8.6574  -13.3689   19.4955 C   0  0  0  0  0  0  0  0  0  0  0  0
    7.4274  -13.8327   20.2074 C   0  0  0  0  0  0  0  0  0  0  0  0
    7.6520  -14.2690   21.6032 C   0  0  0  0  0  0  0  0  0  0  0  0
    8.8351  -15.1168   21.8875 C   0  0  2  0  0  0  0  0  0  0  0  0
    8.9198  -16.2598   20.9736 N   0  0  0  0  0  0  0  0  0  0  0  0
    8.8016  -15.5771   23.2949 C   0  0  0  0  0  0  0  0  0  0  0  0
    7.9641  -16.4491   23.6127 O   0  0  0  0  0  0  0  0  0  0  0  0
    7.3621  -12.8130   15.8576 O   0  0  0  0  0  0  0  0  0  0  0  0
    5.5650  -10.5202   26.9446 C   0  0  0  0  0  0  0  0  0  0  0  0
    6.1619  -11.7498   26.7103 C   0  0  0  0  0  0  0  0  0  0  0  0
    5.4315  -12.8022   26.2068 C   0  0  0  0  0  0  0  0  0  0  0  0
    6.0052  -14.0320   25.9670 C   0  0  0  0  0  0  0  0  0  0  0  0
    7.3595  -14.2703   26.2243 C   0  0  0  0  0  0  0  0  0  0  0  0
    7.9792  -15.5875   25.9775 C   0  0  2  0  0  0  0  0  0  0  0  0
    9.4493  -15.4913   25.6830 N   0  0  0  0  0  0  0  0  0  0  0  0
    9.6662  -15.0819   24.2933 C   0  0  0  0  0  0  0  0  0  0  0  0
   10.1131  -16.7814   25.8860 O   0  0  0  0  0  0  0  0  0  0  0  0
   10.1344  -17.3808   27.1280 C   0  0  0  0  0  0  0  0  0  0  0  0
    8.0690  -13.1941   26.7298 C   0  0  0  0  0  0  0  0  0  0  0  0
    7.4984  -11.9699   26.9685 O   0  0  0  0  0  0  0  0  0  0  0  0
  2  3  2  0
  2  1  1  0
  4  2  1  0
  5  6  1  0
  5  4  1  0
  6  8  1  0
  6  7  1  6
  8 18  1  0
  8  9  2  0
 10 11  1  0
 11 12  2  0
 13 11  1  0
 14 13  1  0
 15 14  1  0
 16 15  1  0
 17 19  1  0
 17 16  1  6
 18 17  1  0
 19 20  2  0
 21 22  1  0
 22 23  2  0
 22 32  1  0
 23 24  1  0
 24 25  2  0
 25 26  1  0
 27 26  1  1
 27 28  1  0
 28 19  1  0
 29 27  1  0
 30 29  1  0
 31 25  1  0
 32 31  2  0
 33 29  2  0
M  END
$$$$
