QRY.pdb
     RDKit          3D

 33 33  0  0  1  0  0  0  0  0999 V2000
    8.2962  -12.5909   19.1300 N   0  0  0  0  0  0  0  0  0  0  0  0
    8.1192  -13.3796   17.9785 C   0  0  0  0  0  0  0  0  0  0  0  0
    6.9979  -13.4250   17.4084 O   0  0  0  0  0  0  0  0  0  0  0  0
    9.2274  -14.1882   17.3837 C   0  0  0  0  0  0  0  0  0  0  0  0
    8.9546  -15.6492   17.4887 C   0  0  0  0  0  0  0  0  0  0  0  0
   10.0169  -16.3844   18.1741 C   0  0  2  0  0  0  0  0  0  0  0  0
   10.6958  -17.3431   17.3129 N   0  0  0  0  0  0  0  0  0  0  0  0
    9.8829  -16.7894   19.5603 C   0  0  0  0  0  0  0  0  0  0  0  0
    8.6916  -17.1067   19.9701 O   0  0  0  0  0  0  0  0  0  0  0  0
   11.9388  -22.0528   20.7620 N   0  0  0  0  0  0  0  0  0  0  0  0
   13.3290  -21.8809   20.5329 C   0  0  0  0  0  0  0  0  0  0  0  0
   13.9376  -22.5738   19.6343 N   0  0  0  0  0  0  0  0  0  0  0  0
   14.0754  -20.9415   21.2868 N   0  0  0  0  0  0  0  0  0  0  0  0
   13.5072  -19.9477   22.1702 C   0  0  0  0  0  0  0  0  0  0  0  0
   12.3399  -19.2381   21.5626 C   0  0  0  0  0  0  0  0  0  0  0  0
   11.7201  -18.2154   22.4339 C   0  0  0  0  0  0  0  0  0  0  0  0
   10.5754  -17.4413   21.8960 C   0  0  2  0  0  0  0  0  0  0  0  0
   10.8640  -16.8916   20.5680 N   0  0  0  0  0  0  0  0  0  0  0  0
   10.2084  -16.3593   22.8385 C   0  0  0  0  0  0  0  0  0  0  0  0
   11.0603  -15.4799   23.0908 O   0  0  0  0  0  0  0  0  0  0  0  0
   14.9577  -22.4266   19.4890 O   0  0  0  0  0  0  0  0  0  0  0  0
    5.8117  -10.6991   28.0073 C   0  0  0  0  0  0  0  0  0  0  0  0
    6.2001  -11.6196   27.0458 C   0  0  0  0  0  0  0  0  0  0  0  0
    7.2896  -11.3785   26.2399 C   0  0  0  0  0  0  0  0  0  0  0  0
    7.6921  -12.2800   25.2784 C   0  0  0  0  0  0  0  0  0  0  0  0
    7.0114  -13.4852   25.0746 C   0  0  0  0  0  0  0  0  0  0  0  0
    7.4319  -14.4521   24.0411 C   0  0  1  0  0  0  0  0  0  0  0  0
    8.6991  -15.1736   24.4026 N   0  0  0  0  0  0  0  0  0  0  0  0
    8.9474  -16.2712   23.4645 C   0  0  0  0  0  0  0  0  0  0  0  0
    8.6176  -15.7384   25.7519 O   0  0  0  0  0  0  0  0  0  0  0  0
    8.4241  -17.0903   25.9448 C   0  0  0  0  0  0  0  0  0  0  0  0
    5.9203  -13.7008   25.8993 C   0  0  0  0  0  0  0  0  0  0  0  0
    5.5195  -12.8039   26.8565 O   0  0  0  0  0  0  0  0  0  0  0  0
  2  3  2  0
  2  1  1  0
  4  2  1  0
  5  6  1  0
  5  4  1  0
  6  8  1  0
  6  7  1  6
  8 18  1  0
  8  9  2  0
 10 11  1  0
 11 12  2  0
 13 11  1  0
 14 13  1  0
 15 14  1  0
 16 15  1  0
 17 19  1  0
 17 16  1  1
 18 17  1  0
 19 20  2  0
 21 22  1  0
 22 23  2  0
 22 32  1  0
 23 24  1  0
 24 25  2  0
 25 26  1  0
 27 26  1  6
 27 28  1  0
 28 19  1  0
 29 27  1  0
 30 29  1  0
 31 25  1  0
 32 31  2  0
 33 29  2  0
M  END
$$$$
