QRY.pdb
     RDKit          3D

 33 33  0  0  1  0  0  0  0  0999 V2000
    7.9608  -13.1347   14.6152 N   0  0  0  0  0  0  0  0  0  0  0  0
    7.8781  -14.5322   14.7560 C   0  0  0  0  0  0  0  0  0  0  0  0
    7.9743  -15.2771   13.7459 O   0  0  0  0  0  0  0  0  0  0  0  0
    7.6758  -15.1926   16.0821 C   0  0  0  0  0  0  0  0  0  0  0  0
    8.4816  -14.5344   17.1486 C   0  0  0  0  0  0  0  0  0  0  0  0
    9.2313  -15.4835   17.9707 C   0  0  2  0  0  0  0  0  0  0  0  0
   10.0348  -16.4101   17.1850 N   0  0  0  0  0  0  0  0  0  0  0  0
    8.6707  -16.0355   19.1892 C   0  0  0  0  0  0  0  0  0  0  0  0
    7.7397  -15.3453   19.7763 O   0  0  0  0  0  0  0  0  0  0  0  0
    5.2921  -21.0680   23.8112 N   0  0  0  0  0  0  0  0  0  0  0  0
    6.3427  -22.0208   23.7538 C   0  0  0  0  0  0  0  0  0  0  0  0
    6.0988  -23.2511   23.4627 N   0  0  0  0  0  0  0  0  0  0  0  0
    7.6819  -21.6372   24.0132 N   0  0  0  0  0  0  0  0  0  0  0  0
    8.5498  -20.9658   23.0713 C   0  0  0  0  0  0  0  0  0  0  0  0
    8.0498  -19.6080   22.6955 C   0  0  0  0  0  0  0  0  0  0  0  0
    8.6783  -19.0343   21.4851 C   0  0  0  0  0  0  0  0  0  0  0  0
    8.2706  -17.6713   21.0664 C   0  0  2  0  0  0  0  0  0  0  0  0
    8.9860  -17.2326   19.8645 N   0  0  0  0  0  0  0  0  0  0  0  0
    8.4843  -16.7154   22.1774 C   0  0  0  0  0  0  0  0  0  0  0  0
    9.6524  -16.5296   22.5819 O   0  0  0  0  0  0  0  0  0  0  0  0
    6.8919  -23.9226   23.4053 O   0  0  0  0  0  0  0  0  0  0  0  0
    7.3444  -10.3649   28.2388 C   0  0  0  0  0  0  0  0  0  0  0  0
    7.2075  -11.2160   27.1526 C   0  0  0  0  0  0  0  0  0  0  0  0
    6.3575  -12.2973   27.2084 C   0  0  0  0  0  0  0  0  0  0  0  0
    6.2069  -13.1552   26.1405 C   0  0  0  0  0  0  0  0  0  0  0  0
    6.9120  -12.9683   24.9467 C   0  0  0  0  0  0  0  0  0  0  0  0
    6.7620  -13.8878   23.8014 C   0  0  1  0  0  0  0  0  0  0  0  0
    7.7700  -15.0017   23.8154 N   0  0  0  0  0  0  0  0  0  0  0  0
    7.4374  -16.0046   22.8006 C   0  0  0  0  0  0  0  0  0  0  0  0
    7.8015  -15.6679   25.1198 O   0  0  0  0  0  0  0  0  0  0  0  0
    6.9077  -16.6731   25.4249 C   0  0  0  0  0  0  0  0  0  0  0  0
    7.7589  -11.8732   24.9193 C   0  0  0  0  0  0  0  0  0  0  0  0
    7.9089  -11.0190   25.9819 O   0  0  0  0  0  0  0  0  0  0  0  0
  2  3  2  0
  2  1  1  0
  4  2  1  0
  5  6  1  0
  5  4  1  0
  6  8  1  0
  6  7  1  6
  8 18  1  0
  8  9  2  0
 10 11  1  0
 11 12  2  0
 13 11  1  0
 14 13  1  0
 15 14  1  0
 16 15  1  0
 17 19  1  0
 17 16  1  1
 18 17  1  0
 19 20  2  0
 21 22  1  0
 22 23  2  0
 22 32  1  0
 23 24  1  0
 24 25  2  0
 25 26  1  0
 27 26  1  6
 27 28  1  0
 28 19  1  0
 29 27  1  0
 30 29  1  0
 31 25  1  0
 32 31  2  0
 33 29  2  0
M  END
$$$$
