QRY.pdb
     RDKit          3D

 33 33  0  0  1  0  0  0  0  0999 V2000
    9.1354  -11.8076   19.3195 N   0  0  0  0  0  0  0  0  0  0  0  0
    8.3955  -12.9145   18.8647 C   0  0  0  0  0  0  0  0  0  0  0  0
    8.8112  -13.5977   17.8927 O   0  0  0  0  0  0  0  0  0  0  0  0
    7.1053  -13.3293   19.4964 C   0  0  0  0  0  0  0  0  0  0  0  0
    7.3331  -14.0542   20.7781 C   0  0  0  0  0  0  0  0  0  0  0  0
    7.8261  -15.4178   20.5872 C   0  0  2  0  0  0  0  0  0  0  0  0
    7.0052  -16.1995   19.6726 N   0  0  0  0  0  0  0  0  0  0  0  0
    8.4158  -16.1681   21.6793 C   0  0  0  0  0  0  0  0  0  0  0  0
    7.6911  -17.1071   22.2096 O   0  0  0  0  0  0  0  0  0  0  0  0
   15.4811  -18.2131   19.3281 N   0  0  0  0  0  0  0  0  0  0  0  0
   14.2951  -18.8919   18.9442 C   0  0  0  0  0  0  0  0  0  0  0  0
   14.2558  -19.5835   17.8588 N   0  0  0  0  0  0  0  0  0  0  0  0
   13.1306  -18.8243   19.7486 N   0  0  0  0  0  0  0  0  0  0  0  0
   13.0425  -18.1523   21.0260 C   0  0  0  0  0  0  0  0  0  0  0  0
   11.6683  -18.2084   21.6118 C   0  0  0  0  0  0  0  0  0  0  0  0
   11.5243  -17.5141   22.9105 C   0  0  0  0  0  0  0  0  0  0  0  0
   10.1868  -16.9885   23.2764 C   0  0  2  0  0  0  0  0  0  0  0  0
    9.6838  -16.0361   22.2820 N   0  0  0  0  0  0  0  0  0  0  0  0
   10.2385  -16.3621   24.6175 C   0  0  0  0  0  0  0  0  0  0  0  0
   11.0190  -15.4012   24.7922 O   0  0  0  0  0  0  0  0  0  0  0  0
   13.3498  -19.9974   17.5570 O   0  0  0  0  0  0  0  0  0  0  0  0
    5.9648  -11.2878   24.7892 C   0  0  0  0  0  0  0  0  0  0  0  0
    6.5311  -12.3631   25.4569 C   0  0  0  0  0  0  0  0  0  0  0  0
    5.8013  -13.5049   25.6988 C   0  0  0  0  0  0  0  0  0  0  0  0
    6.3449  -14.5845   26.3606 C   0  0  0  0  0  0  0  0  0  0  0  0
    7.6665  -14.5718   26.8194 C   0  0  0  0  0  0  0  0  0  0  0  0
    8.2532  -15.7215   27.5362 C   0  0  2  0  0  0  0  0  0  0  0  0
    9.5984  -16.1168   26.9966 N   0  0  0  0  0  0  0  0  0  0  0  0
    9.4522  -16.7942   25.7058 C   0  0  0  0  0  0  0  0  0  0  0  0
   10.2869  -17.0289   27.9134 O   0  0  0  0  0  0  0  0  0  0  0  0
   10.6373  -18.3027   27.5169 C   0  0  0  0  0  0  0  0  0  0  0  0
    8.3762  -13.4111   26.5619 C   0  0  0  0  0  0  0  0  0  0  0  0
    7.8356  -12.3364   25.9031 O   0  0  0  0  0  0  0  0  0  0  0  0
  2  3  2  0
  2  1  1  0
  4  2  1  0
  5  6  1  0
  5  4  1  0
  6  8  1  0
  6  7  1  1
  8 18  1  0
  8  9  2  0
 10 11  1  0
 11 12  2  0
 13 11  1  0
 14 13  1  0
 15 14  1  0
 16 15  1  0
 17 19  1  0
 17 16  1  6
 18 17  1  0
 19 20  2  0
 21 22  1  0
 22 23  2  0
 22 32  1  0
 23 24  1  0
 24 25  2  0
 25 26  1  0
 27 26  1  6
 27 28  1  0
 28 19  1  0
 29 27  1  0
 30 29  1  0
 31 25  1  0
 32 31  2  0
 33 29  2  0
M  END
$$$$
