QRY.pdb
     RDKit          3D

 33 33  0  0  1  0  0  0  0  0999 V2000
   15.2290  -19.2199   17.3140 N   0  0  0  0  0  0  0  0  0  0  0  0
   14.1565  -20.1272   17.3915 C   0  0  0  0  0  0  0  0  0  0  0  0
   14.1307  -21.1420   16.6472 O   0  0  0  0  0  0  0  0  0  0  0  0
   13.0159  -19.9394   18.3398 C   0  0  0  0  0  0  0  0  0  0  0  0
   13.1472  -18.6690   19.1072 C   0  0  0  0  0  0  0  0  0  0  0  0
   12.3356  -18.6459   20.3235 C   0  0  2  0  0  0  0  0  0  0  0  0
   11.3860  -19.7478   20.3980 N   0  0  0  0  0  0  0  0  0  0  0  0
   11.8766  -17.3977   20.9025 C   0  0  0  0  0  0  0  0  0  0  0  0
   12.7858  -16.5296   21.2306 O   0  0  0  0  0  0  0  0  0  0  0  0
    7.1885  -12.7048   16.7175 N   0  0  0  0  0  0  0  0  0  0  0  0
    7.3422  -13.1973   18.0399 C   0  0  0  0  0  0  0  0  0  0  0  0
    8.0196  -12.5361   18.9128 N   0  0  0  0  0  0  0  0  0  0  0  0
    6.7513  -14.4256   18.4274 N   0  0  0  0  0  0  0  0  0  0  0  0
    6.9505  -15.0759   19.7035 C   0  0  0  0  0  0  0  0  0  0  0  0
    8.3749  -15.4675   19.9332 C   0  0  0  0  0  0  0  0  0  0  0  0
    8.8718  -15.2058   21.3021 C   0  0  0  0  0  0  0  0  0  0  0  0
   10.2648  -15.5982   21.6258 C   0  0  2  0  0  0  0  0  0  0  0  0
   10.5648  -16.9627   21.1817 N   0  0  0  0  0  0  0  0  0  0  0  0
   10.5046  -15.4599   23.0808 C   0  0  0  0  0  0  0  0  0  0  0  0
   10.2144  -14.3739   23.6279 O   0  0  0  0  0  0  0  0  0  0  0  0
    8.1541  -12.9436   19.8610 O   0  0  0  0  0  0  0  0  0  0  0  0
   11.0385  -14.8670   31.5553 C   0  0  0  0  0  0  0  0  0  0  0  0
   10.8195  -15.0521   30.1986 C   0  0  0  0  0  0  0  0  0  0  0  0
   10.4994  -16.2947   29.7003 C   0  0  0  0  0  0  0  0  0  0  0  0
   10.2780  -16.5001   28.3558 C   0  0  0  0  0  0  0  0  0  0  0  0
   10.3684  -15.4541   27.4311 C   0  0  0  0  0  0  0  0  0  0  0  0
   10.1405  -15.6681   25.9882 C   0  0  1  0  0  0  0  0  0  0  0  0
   11.3518  -16.2090   25.2832 N   0  0  0  0  0  0  0  0  0  0  0  0
   11.0427  -16.4906   23.8792 C   0  0  0  0  0  0  0  0  0  0  0  0
   11.8126  -17.4527   25.9057 O   0  0  0  0  0  0  0  0  0  0  0  0
   11.7130  -18.6576   25.2420 C   0  0  0  0  0  0  0  0  0  0  0  0
   10.6914  -14.2161   27.9606 C   0  0  0  0  0  0  0  0  0  0  0  0
   10.9117  -14.0113   29.2988 O   0  0  0  0  0  0  0  0  0  0  0  0
  2  3  2  0
  2  1  1  0
  4  2  1  0
  5  6  1  0
  5  4  1  0
  6  8  1  0
  6  7  1  6
  8 18  1  0
  8  9  2  0
 10 11  1  0
 11 12  2  0
 13 11  1  0
 14 13  1  0
 15 14  1  0
 16 15  1  0
 17 19  1  0
 17 16  1  1
 18 17  1  0
 19 20  2  0
 21 22  1  0
 22 23  2  0
 22 32  1  0
 23 24  1  0
 24 25  2  0
 25 26  1  0
 27 26  1  6
 27 28  1  0
 28 19  1  0
 29 27  1  0
 30 29  1  0
 31 25  1  0
 32 31  2  0
 33 29  2  0
M  END
$$$$
