QRY.pdb
     RDKit          3D

 33 33  0  0  1  0  0  0  0  0999 V2000
   12.7314  -13.9074   19.5195 N   0  0  0  0  0  0  0  0  0  0  0  0
   11.9606  -14.4737   18.4877 C   0  0  0  0  0  0  0  0  0  0  0  0
   12.5238  -15.0398   17.5146 O   0  0  0  0  0  0  0  0  0  0  0  0
   10.4660  -14.4344   18.4907 C   0  0  0  0  0  0  0  0  0  0  0  0
    9.9276  -14.2450   19.8671 C   0  0  0  0  0  0  0  0  0  0  0  0
    8.4812  -14.4442   19.9507 C   0  0  2  0  0  0  0  0  0  0  0  0
    7.7188  -13.3496   19.3657 N   0  0  0  0  0  0  0  0  0  0  0  0
    7.8700  -15.0706   21.1073 C   0  0  0  0  0  0  0  0  0  0  0  0
    7.1374  -14.3155   21.8696 O   0  0  0  0  0  0  0  0  0  0  0  0
    2.8813  -19.0053   20.6795 N   0  0  0  0  0  0  0  0  0  0  0  0
    3.7649  -19.6586   19.7811 C   0  0  0  0  0  0  0  0  0  0  0  0
    3.6047  -19.5520   18.5079 N   0  0  0  0  0  0  0  0  0  0  0  0
    4.8429  -20.4396   20.2666 N   0  0  0  0  0  0  0  0  0  0  0  0
    5.6447  -20.1172   21.4260 C   0  0  0  0  0  0  0  0  0  0  0  0
    5.9301  -18.6540   21.5390 C   0  0  0  0  0  0  0  0  0  0  0  0
    6.8402  -18.2886   22.6469 C   0  0  0  0  0  0  0  0  0  0  0  0
    7.2627  -16.8720   22.7645 C   0  0  2  0  0  0  0  0  0  0  0  0
    7.9493  -16.4049   21.5564 N   0  0  0  0  0  0  0  0  0  0  0  0
    8.1273  -16.6987   23.9545 C   0  0  0  0  0  0  0  0  0  0  0  0
    9.3654  -16.7836   23.8038 O   0  0  0  0  0  0  0  0  0  0  0  0
    4.2907  -20.0101   17.8732 O   0  0  0  0  0  0  0  0  0  0  0  0
    5.6548  -10.4849   25.4307 C   0  0  0  0  0  0  0  0  0  0  0  0
    6.1907  -11.6689   25.9145 C   0  0  0  0  0  0  0  0  0  0  0  0
    7.5531  -11.8610   25.9529 C   0  0  0  0  0  0  0  0  0  0  0  0
    8.1059  -13.0299   26.4296 C   0  0  0  0  0  0  0  0  0  0  0  0
    7.3077  -14.0791   26.8979 C   0  0  0  0  0  0  0  0  0  0  0  0
    7.8925  -15.3373   27.4025 C   0  0  2  0  0  0  0  0  0  0  0  0
    8.5688  -16.1363   26.3249 N   0  0  0  0  0  0  0  0  0  0  0  0
    7.6247  -16.4425   25.2472 C   0  0  0  0  0  0  0  0  0  0  0  0
    9.0836  -17.4026   26.8519 O   0  0  0  0  0  0  0  0  0  0  0  0
    8.5836  -18.6102   26.4113 C   0  0  0  0  0  0  0  0  0  0  0  0
    5.9418  -13.8578   26.8476 C   0  0  0  0  0  0  0  0  0  0  0  0
    5.3913  -12.6945   26.3733 O   0  0  0  0  0  0  0  0  0  0  0  0
  2  3  2  0
  2  1  1  0
  4  2  1  0
  5  6  1  0
  5  4  1  0
  6  8  1  0
  6  7  1  1
  8 18  1  0
  8  9  2  0
 10 11  1  0
 11 12  2  0
 13 11  1  0
 14 13  1  0
 15 14  1  0
 16 15  1  0
 17 19  1  0
 17 16  1  6
 18 17  1  0
 19 20  2  0
 21 22  1  0
 22 23  2  0
 22 32  1  0
 23 24  1  0
 24 25  2  0
 25 26  1  0
 27 26  1  6
 27 28  1  0
 28 19  1  0
 29 27  1  0
 30 29  1  0
 31 25  1  0
 32 31  2  0
 33 29  2  0
M  END
$$$$
