QRY.pdb
     RDKit          3D

 33 33  0  0  1  0  0  0  0  0999 V2000
    8.0759  -12.1552   16.1919 N   0  0  0  0  0  0  0  0  0  0  0  0
    8.4126  -13.4745   15.8374 C   0  0  0  0  0  0  0  0  0  0  0  0
    9.0025  -13.7069   14.7500 O   0  0  0  0  0  0  0  0  0  0  0  0
    8.0949  -14.6445   16.7124 C   0  0  0  0  0  0  0  0  0  0  0  0
    8.4097  -14.3597   18.1407 C   0  0  0  0  0  0  0  0  0  0  0  0
    9.1110  -15.4579   18.8046 C   0  0  2  0  0  0  0  0  0  0  0  0
    9.5190  -16.5130   17.8871 N   0  0  0  0  0  0  0  0  0  0  0  0
    8.7284  -15.9081   20.1292 C   0  0  0  0  0  0  0  0  0  0  0  0
    8.1069  -15.0545   20.8863 O   0  0  0  0  0  0  0  0  0  0  0  0
    8.3654  -21.2287   18.7368 N   0  0  0  0  0  0  0  0  0  0  0  0
    7.2450  -21.9391   19.2415 C   0  0  0  0  0  0  0  0  0  0  0  0
    6.4577  -22.5757   18.4458 N   0  0  0  0  0  0  0  0  0  0  0  0
    6.9710  -21.9644   20.6315 N   0  0  0  0  0  0  0  0  0  0  0  0
    7.6821  -21.1989   21.6312 C   0  0  0  0  0  0  0  0  0  0  0  0
    7.6878  -19.7332   21.3368 C   0  0  0  0  0  0  0  0  0  0  0  0
    8.3601  -18.9028   22.3603 C   0  0  0  0  0  0  0  0  0  0  0  0
    8.4731  -17.4451   22.1121 C   0  0  2  0  0  0  0  0  0  0  0  0
    8.9332  -17.1573   20.7503 N   0  0  0  0  0  0  0  0  0  0  0  0
    9.3804  -16.8308   23.1088 C   0  0  0  0  0  0  0  0  0  0  0  0
   10.5970  -16.7519   22.8322 O   0  0  0  0  0  0  0  0  0  0  0  0
    5.6340  -23.0729   18.8426 O   0  0  0  0  0  0  0  0  0  0  0  0
    4.7548  -12.2699   26.9414 C   0  0  0  0  0  0  0  0  0  0  0  0
    5.9890  -12.7366   26.5149 C   0  0  0  0  0  0  0  0  0  0  0  0
    6.1961  -13.0762   25.1971 C   0  0  0  0  0  0  0  0  0  0  0  0
    7.4146  -13.5419   24.7528 C   0  0  0  0  0  0  0  0  0  0  0  0
    8.5012  -13.6925   25.6210 C   0  0  0  0  0  0  0  0  0  0  0  0
    9.8072  -14.1984   25.1538 C   0  0  1  0  0  0  0  0  0  0  0  0
    9.9155  -15.6942   25.2423 N   0  0  0  0  0  0  0  0  0  0  0  0
    8.9412  -16.3306   24.3523 C   0  0  0  0  0  0  0  0  0  0  0  0
    9.6581  -16.1617   26.6067 O   0  0  0  0  0  0  0  0  0  0  0  0
    8.6212  -17.0305   26.8754 C   0  0  0  0  0  0  0  0  0  0  0  0
    8.2640  -13.3432   26.9397 C   0  0  0  0  0  0  0  0  0  0  0  0
    7.0514  -12.8795   27.3823 O   0  0  0  0  0  0  0  0  0  0  0  0
  2  3  2  0
  2  1  1  0
  4  2  1  0
  5  6  1  0
  5  4  1  0
  6  8  1  0
  6  7  1  6
  8 18  1  0
  8  9  2  0
 10 11  1  0
 11 12  2  0
 13 11  1  0
 14 13  1  0
 15 14  1  0
 16 15  1  0
 17 19  1  0
 17 16  1  1
 18 17  1  0
 19 20  2  0
 21 22  1  0
 22 23  2  0
 22 32  1  0
 23 24  1  0
 24 25  2  0
 25 26  1  0
 27 26  1  6
 27 28  1  0
 28 19  1  0
 29 27  1  0
 30 29  1  0
 31 25  1  0
 32 31  2  0
 33 29  2  0
M  END
$$$$
