QRY.pdb
     RDKit          3D

 33 33  0  0  1  0  0  0  0  0999 V2000
    6.5555  -12.5472   19.5509 N   0  0  0  0  0  0  0  0  0  0  0  0
    7.8979  -12.5737   19.9714 C   0  0  0  0  0  0  0  0  0  0  0  0
    8.2375  -12.0045   21.0415 O   0  0  0  0  0  0  0  0  0  0  0  0
    8.9687  -13.2630   19.1880 C   0  0  0  0  0  0  0  0  0  0  0  0
    8.3946  -14.2405   18.2211 C   0  0  0  0  0  0  0  0  0  0  0  0
    9.2190  -15.4370   18.0558 C   0  0  2  0  0  0  0  0  0  0  0  0
    8.6785  -16.3731   17.0794 N   0  0  0  0  0  0  0  0  0  0  0  0
    9.9003  -16.0471   19.1815 C   0  0  0  0  0  0  0  0  0  0  0  0
    9.3104  -17.0532   19.7540 O   0  0  0  0  0  0  0  0  0  0  0  0
   16.0069  -13.6221   18.7547 N   0  0  0  0  0  0  0  0  0  0  0  0
   16.3176  -14.8232   18.0650 C   0  0  0  0  0  0  0  0  0  0  0  0
   16.8851  -14.7896   16.9097 N   0  0  0  0  0  0  0  0  0  0  0  0
   16.0118  -16.0841   18.6347 N   0  0  0  0  0  0  0  0  0  0  0  0
   15.3364  -16.2817   19.8980 C   0  0  0  0  0  0  0  0  0  0  0  0
   13.8485  -16.3123   19.7561 C   0  0  0  0  0  0  0  0  0  0  0  0
   13.1102  -16.4028   21.0352 C   0  0  0  0  0  0  0  0  0  0  0  0
   11.6283  -16.3725   20.9892 C   0  0  2  0  0  0  0  0  0  0  0  0
   11.1331  -15.7115   19.7781 N   0  0  0  0  0  0  0  0  0  0  0  0
   11.0978  -15.7052   22.2004 C   0  0  0  0  0  0  0  0  0  0  0  0
   11.5371  -14.5717   22.4920 O   0  0  0  0  0  0  0  0  0  0  0  0
   17.1231  -15.6865   16.4385 O   0  0  0  0  0  0  0  0  0  0  0  0
    5.7647  -11.8004   27.7827 C   0  0  0  0  0  0  0  0  0  0  0  0
    6.3877  -12.5161   26.7715 C   0  0  0  0  0  0  0  0  0  0  0  0
    6.0299  -13.8189   26.5079 C   0  0  0  0  0  0  0  0  0  0  0  0
    6.6365  -14.5477   25.5079 C   0  0  0  0  0  0  0  0  0  0  0  0
    7.6467  -13.9977   24.7116 C   0  0  0  0  0  0  0  0  0  0  0  0
    8.3067  -14.7749   23.6437 C   0  0  1  0  0  0  0  0  0  0  0  0
    9.5488  -15.4744   24.1180 N   0  0  0  0  0  0  0  0  0  0  0  0
   10.1229  -16.2833   23.0399 C   0  0  0  0  0  0  0  0  0  0  0  0
    9.2558  -16.3622   25.2460 O   0  0  0  0  0  0  0  0  0  0  0  0
    9.4170  -17.7275   25.1349 C   0  0  0  0  0  0  0  0  0  0  0  0
    7.9856  -12.6864   24.9991 C   0  0  0  0  0  0  0  0  0  0  0  0
    7.3820  -11.9606   25.9942 O   0  0  0  0  0  0  0  0  0  0  0  0
  2  3  2  0
  2  1  1  0
  4  2  1  0
  5  6  1  0
  5  4  1  0
  6  8  1  0
  6  7  1  1
  8 18  1  0
  8  9  2  0
 10 11  1  0
 11 12  2  0
 13 11  1  0
 14 13  1  0
 15 14  1  0
 16 15  1  0
 17 19  1  0
 17 16  1  1
 18 17  1  0
 19 20  2  0
 21 22  1  0
 22 23  2  0
 22 32  1  0
 23 24  1  0
 24 25  2  0
 25 26  1  0
 27 26  1  6
 27 28  1  0
 28 19  1  0
 29 27  1  0
 30 29  1  0
 31 25  1  0
 32 31  2  0
 33 29  2  0
M  END
$$$$
