QRY.pdb
     RDKit          3D

 33 33  0  0  1  0  0  0  0  0999 V2000
    5.3456  -13.8663   16.4164 N   0  0  0  0  0  0  0  0  0  0  0  0
    6.6788  -14.1917   16.1060 C   0  0  0  0  0  0  0  0  0  0  0  0
    6.9674  -14.6709   14.9784 O   0  0  0  0  0  0  0  0  0  0  0  0
    7.7986  -13.9909   17.0762 C   0  0  0  0  0  0  0  0  0  0  0  0
    7.3058  -13.4522   18.3751 C   0  0  0  0  0  0  0  0  0  0  0  0
    8.3712  -13.2581   19.3579 C   0  0  2  0  0  0  0  0  0  0  0  0
    9.2751  -12.1691   19.0134 N   0  0  0  0  0  0  0  0  0  0  0  0
    8.9912  -14.3823   20.0327 C   0  0  0  0  0  0  0  0  0  0  0  0
    8.2761  -15.0052   20.9208 O   0  0  0  0  0  0  0  0  0  0  0  0
   15.7397  -14.7131   20.7290 N   0  0  0  0  0  0  0  0  0  0  0  0
   15.9588  -14.6990   19.3266 C   0  0  0  0  0  0  0  0  0  0  0  0
   16.8555  -13.9333   18.8093 N   0  0  0  0  0  0  0  0  0  0  0  0
   15.1969  -15.5290   18.4672 N   0  0  0  0  0  0  0  0  0  0  0  0
   14.1857  -16.4669   18.9018 C   0  0  0  0  0  0  0  0  0  0  0  0
   12.9957  -15.7916   19.5042 C   0  0  0  0  0  0  0  0  0  0  0  0
   11.9424  -16.7135   19.9836 C   0  0  0  0  0  0  0  0  0  0  0  0
   10.7251  -16.1256   20.5932 C   0  0  2  0  0  0  0  0  0  0  0  0
   10.2853  -14.9217   19.8819 N   0  0  0  0  0  0  0  0  0  0  0  0
   10.9695  -15.8254   22.0229 C   0  0  0  0  0  0  0  0  0  0  0  0
   11.1235  -14.6312   22.3590 O   0  0  0  0  0  0  0  0  0  0  0  0
   16.9600  -13.9070   17.7741 O   0  0  0  0  0  0  0  0  0  0  0  0
    9.5785  -14.5491   30.3934 C   0  0  0  0  0  0  0  0  0  0  0  0
    9.6560  -14.8206   29.0358 C   0  0  0  0  0  0  0  0  0  0  0  0
    9.5801  -13.8052   28.1095 C   0  0  0  0  0  0  0  0  0  0  0  0
    9.6548  -14.0534   26.7560 C   0  0  0  0  0  0  0  0  0  0  0  0
    9.8112  -15.3513   26.2576 C   0  0  0  0  0  0  0  0  0  0  0  0
    9.8839  -15.6257   24.8088 C   0  0  1  0  0  0  0  0  0  0  0  0
   11.1110  -16.4035   24.4262 N   0  0  0  0  0  0  0  0  0  0  0  0
   11.0364  -16.8178   23.0230 C   0  0  0  0  0  0  0  0  0  0  0  0
   11.2497  -17.6076   25.2491 O   0  0  0  0  0  0  0  0  0  0  0  0
   11.7002  -17.5296   26.5504 C   0  0  0  0  0  0  0  0  0  0  0  0
    9.8848  -16.3519   27.2119 C   0  0  0  0  0  0  0  0  0  0  0  0
    9.8106  -16.1052   28.5590 O   0  0  0  0  0  0  0  0  0  0  0  0
  2  3  2  0
  2  1  1  0
  4  2  1  0
  5  6  1  0
  5  4  1  0
  6  8  1  0
  6  7  1  6
  8 18  1  0
  8  9  2  0
 10 11  1  0
 11 12  2  0
 13 11  1  0
 14 13  1  0
 15 14  1  0
 16 15  1  0
 17 19  1  0
 17 16  1  6
 18 17  1  0
 19 20  2  0
 21 22  1  0
 22 23  2  0
 22 32  1  0
 23 24  1  0
 24 25  2  0
 25 26  1  0
 27 26  1  6
 27 28  1  0
 28 19  1  0
 29 27  1  0
 30 29  1  0
 31 25  1  0
 32 31  2  0
 33 29  2  0
M  END
$$$$
