NQA.pdb
     RDKit          3D

 23 22  0  0  1  0  0  0  0  0999 V2000
   10.0803  -16.5155   19.0049 N   0  0  0  0  0  0  0  0  0  0  0  0
    8.7418  -16.0582   18.7974 C   0  0  0  0  0  0  0  0  0  0  0  0
    8.2407  -16.1103   17.6486 O   0  0  0  0  0  0  0  0  0  0  0  0
    8.0284  -15.5420   19.9937 C   0  0  0  0  0  0  0  0  0  0  0  0
    7.2864  -16.6967   20.6213 C   0  0  2  0  0  0  0  0  0  0  0  0
    6.1253  -17.0687   19.8515 N   0  0  0  0  0  0  0  0  0  0  0  0
    6.9238  -16.4273   22.0331 C   0  0  0  0  0  0  0  0  0  0  0  0
    5.9041  -15.7099   22.2591 O   0  0  0  0  0  0  0  0  0  0  0  0
    7.5003  -20.3126   26.4331 N   0  0  0  0  0  0  0  0  0  0  0  0
    7.2418  -19.2258   27.2947 C   0  0  0  0  0  0  0  0  0  0  0  0
    7.1145  -19.4385   28.5151 O   0  0  0  0  0  0  0  0  0  0  0  0
    7.1284  -17.8661   26.7323 C   0  0  0  0  0  0  0  0  0  0  0  0
    7.3613  -17.9366   25.2570 C   0  0  0  0  0  0  0  0  0  0  0  0
    7.2489  -16.6232   24.5282 C   0  0  2  0  0  0  0  0  0  0  0  0
    7.6221  -16.9050   23.1508 N   0  0  0  0  0  0  0  0  0  0  0  0
    7.9973  -15.5172   25.1082 C   0  0  0  0  0  0  0  0  0  0  0  0
    9.2358  -15.4677   25.0101 O   0  0  0  0  0  0  0  0  0  0  0  0
    7.1099  -12.2801   26.8372 C   0  0  0  0  0  0  0  0  0  0  0  0
    8.0494  -13.4162   26.4943 C   0  0  2  0  0  0  0  0  0  0  0  0
    7.3376  -14.4770   25.7942 N   0  0  0  0  0  0  0  0  0  0  0  0
    8.6470  -13.8943   27.7538 C   0  0  0  0  0  0  0  0  0  0  0  0
    9.4858  -13.0808   28.4786 O   0  0  0  0  0  0  0  0  0  0  0  0
    8.3887  -15.0414   28.1605 O   0  0  0  0  0  0  0  0  0  0  0  0
  1  2  1  0
  2  3  2  0
  4  2  1  0
  4  5  1  0
  5  6  1  6
  7  8  2  0
  7  5  1  0
 10  9  1  0
 10 12  1  0
 11 10  2  0
 14 13  1  1
 13 12  1  0
 14 15  1  0
 15  7  1  0
 16 14  1  0
 17 16  2  0
 19 18  1  1
 19 20  1  0
 20 16  1  0
 21 19  1  0
 22 21  1  0
 23 21  2  0
M  END
$$$$
