NQA.pdb
     RDKit          3D

 23 22  0  0  1  0  0  0  0  0999 V2000
    8.1072  -12.0939   18.5292 N   0  0  0  0  0  0  0  0  0  0  0  0
    7.8776  -13.4840   18.7712 C   0  0  0  0  0  0  0  0  0  0  0  0
    8.2317  -14.3286   17.9141 O   0  0  0  0  0  0  0  0  0  0  0  0
    7.2181  -13.8293   20.0567 C   0  0  0  0  0  0  0  0  0  0  0  0
    8.2733  -14.3872   20.9803 C   0  0  2  0  0  0  0  0  0  0  0  0
    8.8332  -15.6156   20.4736 N   0  0  0  0  0  0  0  0  0  0  0  0
    7.7695  -14.5637   22.3631 C   0  0  0  0  0  0  0  0  0  0  0  0
    7.2178  -13.5719   22.9266 O   0  0  0  0  0  0  0  0  0  0  0  0
    5.8723  -19.5891   25.1598 N   0  0  0  0  0  0  0  0  0  0  0  0
    7.2808  -19.5624   25.2357 C   0  0  0  0  0  0  0  0  0  0  0  0
    7.8921  -20.6138   25.5031 O   0  0  0  0  0  0  0  0  0  0  0  0
    7.9956  -18.2935   24.9973 C   0  0  0  0  0  0  0  0  0  0  0  0
    6.9896  -17.2176   24.7398 C   0  0  0  0  0  0  0  0  0  0  0  0
    7.5643  -15.8412   24.5300 C   0  0  2  0  0  0  0  0  0  0  0  0
    7.8532  -15.7487   23.1074 N   0  0  0  0  0  0  0  0  0  0  0  0
    8.7058  -15.5032   25.3681 C   0  0  0  0  0  0  0  0  0  0  0  0
    9.8431  -15.9231   25.0920 O   0  0  0  0  0  0  0  0  0  0  0  0
    9.4006  -13.0662   28.1231 C   0  0  0  0  0  0  0  0  0  0  0  0
    9.6503  -14.3798   27.4137 C   0  0  2  0  0  0  0  0  0  0  0  0
    8.5503  -14.6927   26.5113 N   0  0  0  0  0  0  0  0  0  0  0  0
    9.8254  -15.4165   28.4465 C   0  0  0  0  0  0  0  0  0  0  0  0
   10.8832  -15.3539   29.3227 O   0  0  0  0  0  0  0  0  0  0  0  0
    9.0091  -16.3523   28.5229 O   0  0  0  0  0  0  0  0  0  0  0  0
  1  2  1  0
  2  3  2  0
  4  2  1  0
  4  5  1  0
  5  6  1  6
  7  8  2  0
  7  5  1  0
 10  9  1  0
 10 12  1  0
 11 10  2  0
 14 13  1  6
 13 12  1  0
 14 15  1  0
 15  7  1  0
 16 14  1  0
 17 16  2  0
 19 18  1  1
 19 20  1  0
 20 16  1  0
 21 19  1  0
 22 21  1  0
 23 21  2  0
M  END
$$$$
