NQA.pdb
     RDKit          3D

 23 22  0  0  1  0  0  0  0  0999 V2000
    6.4182  -12.5361   18.6217 N   0  0  0  0  0  0  0  0  0  0  0  0
    7.4871  -13.0651   17.8336 C   0  0  0  0  0  0  0  0  0  0  0  0
    7.4826  -12.8960   16.5906 O   0  0  0  0  0  0  0  0  0  0  0  0
    8.5508  -13.7951   18.5700 C   0  0  0  0  0  0  0  0  0  0  0  0
    9.4363  -14.4699   17.5511 C   0  0  2  0  0  0  0  0  0  0  0  0
    8.6930  -15.3785   16.7138 N   0  0  0  0  0  0  0  0  0  0  0  0
   10.5928  -15.1518   18.1793 C   0  0  0  0  0  0  0  0  0  0  0  0
   10.5186  -16.4036   18.3612 O   0  0  0  0  0  0  0  0  0  0  0  0
   16.2417  -13.4741   17.4358 N   0  0  0  0  0  0  0  0  0  0  0  0
   16.5351  -14.3683   18.4868 C   0  0  0  0  0  0  0  0  0  0  0  0
   17.7235  -14.5524   18.8102 O   0  0  0  0  0  0  0  0  0  0  0  0
   15.4310  -15.0629   19.1770 C   0  0  0  0  0  0  0  0  0  0  0  0
   14.1326  -14.5243   18.6671 C   0  0  0  0  0  0  0  0  0  0  0  0
   12.9023  -15.2146   19.1950 C   0  0  2  0  0  0  0  0  0  0  0  0
   11.7741  -14.5209   18.5935 N   0  0  0  0  0  0  0  0  0  0  0  0
   12.8084  -15.3084   20.6449 C   0  0  0  0  0  0  0  0  0  0  0  0
   12.8199  -14.2843   21.3497 O   0  0  0  0  0  0  0  0  0  0  0  0
   12.0190  -18.0796   23.0709 C   0  0  0  0  0  0  0  0  0  0  0  0
   12.5386  -16.7007   22.7251 C   0  0  2  0  0  0  0  0  0  0  0  0
   12.7023  -16.5605   21.2843 N   0  0  0  0  0  0  0  0  0  0  0  0
   13.8117  -16.5124   23.4433 C   0  0  0  0  0  0  0  0  0  0  0  0
   13.8265  -16.3921   24.8130 O   0  0  0  0  0  0  0  0  0  0  0  0
   14.8774  -16.4625   22.8032 O   0  0  0  0  0  0  0  0  0  0  0  0
  1  2  1  0
  2  3  2  0
  4  2  1  0
  4  5  1  0
  5  6  1  1
  7  8  2  0
  7  5  1  0
 10  9  1  0
 10 12  1  0
 11 10  2  0
 14 13  1  1
 13 12  1  0
 14 15  1  0
 15  7  1  0
 16 14  1  0
 17 16  2  0
 19 18  1  6
 19 20  1  0
 20 16  1  0
 21 19  1  0
 22 21  1  0
 23 21  2  0
M  END
$$$$
