NQA.pdb
     RDKit          3D

 23 22  0  0  1  0  0  0  0  0999 V2000
    8.4573  -12.3139   17.7747 N   0  0  0  0  0  0  0  0  0  0  0  0
    8.1054  -13.6872   17.9584 C   0  0  0  0  0  0  0  0  0  0  0  0
    8.4452  -14.5342   17.0978 O   0  0  0  0  0  0  0  0  0  0  0  0
    7.3424  -14.0131   19.1906 C   0  0  0  0  0  0  0  0  0  0  0  0
    8.3389  -14.3076   20.2850 C   0  0  2  0  0  0  0  0  0  0  0  0
    9.2302  -15.3816   19.9228 N   0  0  0  0  0  0  0  0  0  0  0  0
    7.6788  -14.5803   21.5839 C   0  0  0  0  0  0  0  0  0  0  0  0
    6.8289  -13.7412   22.0072 O   0  0  0  0  0  0  0  0  0  0  0  0
    6.0574  -20.0418   25.3464 N   0  0  0  0  0  0  0  0  0  0  0  0
    7.1873  -19.2159   25.5241 C   0  0  0  0  0  0  0  0  0  0  0  0
    8.2853  -19.7415   25.7864 O   0  0  0  0  0  0  0  0  0  0  0  0
    7.0431  -17.7528   25.3955 C   0  0  0  0  0  0  0  0  0  0  0  0
    7.4792  -17.3468   24.0241 C   0  0  0  0  0  0  0  0  0  0  0  0
    7.3766  -15.8731   23.7303 C   0  0  2  0  0  0  0  0  0  0  0  0
    7.9188  -15.7006   22.3916 N   0  0  0  0  0  0  0  0  0  0  0  0
    7.9912  -14.9926   24.7135 C   0  0  0  0  0  0  0  0  0  0  0  0
    9.2281  -14.8983   24.7965 O   0  0  0  0  0  0  0  0  0  0  0  0
    6.6768  -12.3578   27.0776 C   0  0  0  0  0  0  0  0  0  0  0  0
    7.7642  -13.2468   26.5132 C   0  0  2  0  0  0  0  0  0  0  0  0
    7.2005  -14.2265   25.5943 N   0  0  0  0  0  0  0  0  0  0  0  0
    8.4475  -13.8894   27.6499 C   0  0  0  0  0  0  0  0  0  0  0  0
    8.4283  -15.2572   27.7901 O   0  0  0  0  0  0  0  0  0  0  0  0
    9.0442  -13.1870   28.4857 O   0  0  0  0  0  0  0  0  0  0  0  0
  1  2  1  0
  2  3  2  0
  4  2  1  0
  4  5  1  0
  5  6  1  6
  7  8  2  0
  7  5  1  0
 10  9  1  0
 10 12  1  0
 11 10  2  0
 14 13  1  1
 13 12  1  0
 14 15  1  0
 15  7  1  0
 16 14  1  0
 17 16  2  0
 19 18  1  1
 19 20  1  0
 20 16  1  0
 21 19  1  0
 22 21  1  0
 23 21  2  0
M  END
$$$$
