NQA.pdb
     RDKit          3D

 23 22  0  0  1  0  0  0  0  0999 V2000
    7.0877  -23.4070   19.4297 N   0  0  0  0  0  0  0  0  0  0  0  0
    7.5415  -22.6032   20.5213 C   0  0  0  0  0  0  0  0  0  0  0  0
    7.0064  -22.7306   21.6487 O   0  0  0  0  0  0  0  0  0  0  0  0
    8.6437  -21.6520   20.2262 C   0  0  0  0  0  0  0  0  0  0  0  0
    8.3000  -20.3334   20.8749 C   0  0  2  0  0  0  0  0  0  0  0  0
    7.0441  -19.8120   20.3954 N   0  0  0  0  0  0  0  0  0  0  0  0
    9.3840  -19.3343   20.7195 C   0  0  0  0  0  0  0  0  0  0  0  0
   10.5520  -19.7575   20.4698 O   0  0  0  0  0  0  0  0  0  0  0  0
    9.9493  -12.4666   19.1625 N   0  0  0  0  0  0  0  0  0  0  0  0
   10.0967  -13.7833   18.6779 C   0  0  0  0  0  0  0  0  0  0  0  0
    9.6594  -14.0638   17.5462 O   0  0  0  0  0  0  0  0  0  0  0  0
   10.7635  -14.7952   19.5201 C   0  0  0  0  0  0  0  0  0  0  0  0
    9.7896  -15.8910   19.8145 C   0  0  0  0  0  0  0  0  0  0  0  0
   10.3101  -16.9866   20.7075 C   0  0  2  0  0  0  0  0  0  0  0  0
    9.2232  -17.9459   20.8269 N   0  0  0  0  0  0  0  0  0  0  0  0
   10.8327  -16.5520   21.9950 C   0  0  0  0  0  0  0  0  0  0  0  0
   11.8855  -15.8943   22.0640 O   0  0  0  0  0  0  0  0  0  0  0  0
    9.7416  -15.7073   25.3029 C   0  0  0  0  0  0  0  0  0  0  0  0
   10.7055  -16.5630   24.5094 C   0  0  2  0  0  0  0  0  0  0  0  0
   10.1592  -16.8656   23.1934 N   0  0  0  0  0  0  0  0  0  0  0  0
   10.9623  -17.7853   25.2917 C   0  0  0  0  0  0  0  0  0  0  0  0
   11.6725  -17.7224   26.4675 O   0  0  0  0  0  0  0  0  0  0  0  0
   10.5324  -18.8789   24.8827 O   0  0  0  0  0  0  0  0  0  0  0  0
  1  2  1  0
  2  3  2  0
  4  2  1  0
  4  5  1  0
  5  6  1  6
  7  8  2  0
  7  5  1  0
 10  9  1  0
 10 12  1  0
 11 10  2  0
 14 13  1  1
 13 12  1  0
 14 15  1  0
 15  7  1  0
 16 14  1  0
 17 16  2  0
 19 18  1  1
 19 20  1  0
 20 16  1  0
 21 19  1  0
 22 21  1  0
 23 21  2  0
M  END
$$$$
