NQA.pdb
     RDKit          3D

 23 22  0  0  1  0  0  0  0  0999 V2000
   11.9064  -18.2085   19.8284 N   0  0  0  0  0  0  0  0  0  0  0  0
   12.9464  -18.5356   20.7530 C   0  0  0  0  0  0  0  0  0  0  0  0
   14.0726  -18.8809   20.3217 O   0  0  0  0  0  0  0  0  0  0  0  0
   12.6018  -18.4381   22.1946 C   0  0  0  0  0  0  0  0  0  0  0  0
   11.1297  -18.1209   22.2958 C   0  0  2  0  0  0  0  0  0  0  0  0
   10.7687  -16.9885   21.4794 N   0  0  0  0  0  0  0  0  0  0  0  0
   10.6952  -17.9241   23.6993 C   0  0  0  0  0  0  0  0  0  0  0  0
   10.9109  -16.7969   24.2365 O   0  0  0  0  0  0  0  0  0  0  0  0
    6.5172  -21.3721   28.3902 N   0  0  0  0  0  0  0  0  0  0  0  0
    6.6195  -20.3220   27.4537 C   0  0  0  0  0  0  0  0  0  0  0  0
    5.6806  -20.1265   26.6593 O   0  0  0  0  0  0  0  0  0  0  0  0
    7.8325  -19.4816   27.4365 C   0  0  0  0  0  0  0  0  0  0  0  0
    8.3667  -19.4394   26.0405 C   0  0  0  0  0  0  0  0  0  0  0  0
    9.6560  -18.6791   25.8717 C   0  0  2  0  0  0  0  0  0  0  0  0
   10.0589  -18.8909   24.4902 N   0  0  0  0  0  0  0  0  0  0  0  0
   10.7048  -19.0013   26.8287 C   0  0  0  0  0  0  0  0  0  0  0  0
   10.6370  -18.6016   28.0040 O   0  0  0  0  0  0  0  0  0  0  0  0
   13.5325  -21.4559   26.9020 C   0  0  0  0  0  0  0  0  0  0  0  0
   12.8486  -20.1965   27.3892 C   0  0  2  0  0  0  0  0  0  0  0  0
   11.8213  -19.7732   26.4471 N   0  0  0  0  0  0  0  0  0  0  0  0
   13.8879  -19.1670   27.5677 C   0  0  0  0  0  0  0  0  0  0  0  0
   14.9221  -19.3683   28.4513 O   0  0  0  0  0  0  0  0  0  0  0  0
   13.8259  -18.1106   26.9133 O   0  0  0  0  0  0  0  0  0  0  0  0
  1  2  1  0
  2  3  2  0
  4  2  1  0
  4  5  1  0
  5  6  1  6
  7  8  2  0
  7  5  1  0
 10  9  1  0
 10 12  1  0
 11 10  2  0
 14 13  1  1
 13 12  1  0
 14 15  1  0
 15  7  1  0
 16 14  1  0
 17 16  2  0
 19 18  1  6
 19 20  1  0
 20 16  1  0
 21 19  1  0
 22 21  1  0
 23 21  2  0
M  END
$$$$
