NQA.pdb
     RDKit          3D

 23 22  0  0  1  0  0  0  0  0999 V2000
    9.4498  -17.0355   18.2733 N   0  0  0  0  0  0  0  0  0  0  0  0
    8.0339  -17.2239   18.2176 C   0  0  0  0  0  0  0  0  0  0  0  0
    7.4916  -17.5250   17.1274 O   0  0  0  0  0  0  0  0  0  0  0  0
    7.2939  -17.0429   19.4929 C   0  0  0  0  0  0  0  0  0  0  0  0
    8.2958  -16.6676   20.5574 C   0  0  2  0  0  0  0  0  0  0  0  0
    9.2192  -17.7419   20.8262 N   0  0  0  0  0  0  0  0  0  0  0  0
    7.6405  -16.2059   21.8042 C   0  0  0  0  0  0  0  0  0  0  0  0
    6.7771  -15.2826   21.7161 O   0  0  0  0  0  0  0  0  0  0  0  0
    6.9558  -19.7817   26.4584 N   0  0  0  0  0  0  0  0  0  0  0  0
    6.3745  -19.8440   25.1744 C   0  0  0  0  0  0  0  0  0  0  0  0
    5.9076  -20.9267   24.7738 O   0  0  0  0  0  0  0  0  0  0  0  0
    6.3331  -18.6290   24.3378 C   0  0  0  0  0  0  0  0  0  0  0  0
    6.9542  -17.5016   25.0988 C   0  0  0  0  0  0  0  0  0  0  0  0
    7.2244  -16.2580   24.2929 C   0  0  2  0  0  0  0  0  0  0  0  0
    7.8989  -16.7106   23.0863 N   0  0  0  0  0  0  0  0  0  0  0  0
    7.9463  -15.2029   24.9896 C   0  0  0  0  0  0  0  0  0  0  0  0
    9.1835  -15.2484   25.1038 O   0  0  0  0  0  0  0  0  0  0  0  0
    6.9787  -11.9744   26.7104 C   0  0  0  0  0  0  0  0  0  0  0  0
    7.9057  -13.1372   26.4283 C   0  0  2  0  0  0  0  0  0  0  0  0
    7.2617  -14.1056   25.5509 N   0  0  0  0  0  0  0  0  0  0  0  0
    8.2787  -13.7327   27.7237 C   0  0  0  0  0  0  0  0  0  0  0  0
    9.0857  -13.0447   28.5990 O   0  0  0  0  0  0  0  0  0  0  0  0
    7.8591  -14.8649   28.0237 O   0  0  0  0  0  0  0  0  0  0  0  0
  1  2  1  0
  2  3  2  0
  4  2  1  0
  4  5  1  0
  5  6  1  1
  7  8  2  0
  7  5  1  0
 10  9  1  0
 10 12  1  0
 11 10  2  0
 14 13  1  1
 13 12  1  0
 14 15  1  0
 15  7  1  0
 16 14  1  0
 17 16  2  0
 19 18  1  1
 19 20  1  0
 20 16  1  0
 21 19  1  0
 22 21  1  0
 23 21  2  0
M  END
$$$$
