NQA.pdb
     RDKit          3D

 23 22  0  0  1  0  0  0  0  0999 V2000
   17.3399  -15.1213   16.3906 N   0  0  0  0  0  0  0  0  0  0  0  0
   17.3740  -13.7404   16.7586 C   0  0  0  0  0  0  0  0  0  0  0  0
   18.3624  -13.0380   16.4371 O   0  0  0  0  0  0  0  0  0  0  0  0
   16.2018  -13.2304   17.5151 C   0  0  0  0  0  0  0  0  0  0  0  0
   15.2743  -14.3942   17.7668 C   0  0  2  0  0  0  0  0  0  0  0  0
   13.9733  -13.9562   18.2080 N   0  0  0  0  0  0  0  0  0  0  0  0
   15.8536  -15.3764   18.7138 C   0  0  0  0  0  0  0  0  0  0  0  0
   15.7514  -15.1388   19.9542 O   0  0  0  0  0  0  0  0  0  0  0  0
   15.7875  -21.2045   17.8792 N   0  0  0  0  0  0  0  0  0  0  0  0
   16.4942  -21.2594   19.0990 C   0  0  0  0  0  0  0  0  0  0  0  0
   16.6600  -22.3624   19.6527 O   0  0  0  0  0  0  0  0  0  0  0  0
   17.0191  -20.0129   19.6894 C   0  0  0  0  0  0  0  0  0  0  0  0
   16.6681  -18.8714   18.7896 C   0  0  0  0  0  0  0  0  0  0  0  0
   17.0679  -17.5107   19.2968 C   0  0  2  0  0  0  0  0  0  0  0  0
   16.5121  -16.5587   18.3479 N   0  0  0  0  0  0  0  0  0  0  0  0
   18.4927  -17.3208   19.5286 C   0  0  0  0  0  0  0  0  0  0  0  0
   19.2379  -18.2943   19.7355 O   0  0  0  0  0  0  0  0  0  0  0  0
   20.9081  -14.4556   19.2485 C   0  0  0  0  0  0  0  0  0  0  0  0
   20.4669  -15.7858   19.8203 C   0  0  2  0  0  0  0  0  0  0  0  0
   19.0617  -16.0307   19.5242 N   0  0  0  0  0  0  0  0  0  0  0  0
   20.7250  -15.7537   21.2709 C   0  0  0  0  0  0  0  0  0  0  0  0
   19.6897  -15.8935   22.1650 O   0  0  0  0  0  0  0  0  0  0  0  0
   21.8879  -15.5990   21.6853 O   0  0  0  0  0  0  0  0  0  0  0  0
  1  2  1  0
  2  3  2  0
  4  2  1  0
  4  5  1  0
  5  6  1  1
  7  8  2  0
  7  5  1  0
 10  9  1  0
 10 12  1  0
 11 10  2  0
 14 13  1  6
 13 12  1  0
 14 15  1  0
 15  7  1  0
 16 14  1  0
 17 16  2  0
 19 18  1  1
 19 20  1  0
 20 16  1  0
 21 19  1  0
 22 21  1  0
 23 21  2  0
M  END
$$$$
