NQA.pdb
     RDKit          3D

 23 22  0  0  1  0  0  0  0  0999 V2000
    6.9578  -12.5272   18.2377 N   0  0  0  0  0  0  0  0  0  0  0  0
    7.8242  -13.2677   19.1005 C   0  0  0  0  0  0  0  0  0  0  0  0
    8.9043  -13.7217   18.6525 O   0  0  0  0  0  0  0  0  0  0  0  0
    7.3640  -13.4467   20.5015 C   0  0  0  0  0  0  0  0  0  0  0  0
    8.2753  -14.4531   21.1606 C   0  0  2  0  0  0  0  0  0  0  0  0
    8.3063  -15.7008   20.4386 N   0  0  0  0  0  0  0  0  0  0  0  0
    7.9293  -14.6721   22.5852 C   0  0  0  0  0  0  0  0  0  0  0  0
    7.5339  -13.6762   23.2615 O   0  0  0  0  0  0  0  0  0  0  0  0
    6.7238  -20.1057   25.0648 N   0  0  0  0  0  0  0  0  0  0  0  0
    5.9374  -19.3969   24.1323 C   0  0  0  0  0  0  0  0  0  0  0  0
    5.0066  -19.9876   23.5532 O   0  0  0  0  0  0  0  0  0  0  0  0
    6.2345  -17.9762   23.8650 C   0  0  0  0  0  0  0  0  0  0  0  0
    7.2937  -17.5206   24.8171 C   0  0  0  0  0  0  0  0  0  0  0  0
    7.7122  -16.0815   24.6676 C   0  0  2  0  0  0  0  0  0  0  0  0
    8.0038  -15.9020   23.2539 N   0  0  0  0  0  0  0  0  0  0  0  0
    8.7995  -15.6505   25.5346 C   0  0  0  0  0  0  0  0  0  0  0  0
    9.9758  -15.9641   25.2819 O   0  0  0  0  0  0  0  0  0  0  0  0
    9.1924  -13.1498   28.2909 C   0  0  0  0  0  0  0  0  0  0  0  0
    9.5998  -14.4237   27.5822 C   0  0  2  0  0  0  0  0  0  0  0  0
    8.5461  -14.8683   26.6799 N   0  0  0  0  0  0  0  0  0  0  0  0
    9.8993  -15.4309   28.6155 C   0  0  0  0  0  0  0  0  0  0  0  0
   10.9427  -15.2408   29.4907 O   0  0  0  0  0  0  0  0  0  0  0  0
    9.2017  -16.4581   28.6935 O   0  0  0  0  0  0  0  0  0  0  0  0
  1  2  1  0
  2  3  2  0
  4  2  1  0
  4  5  1  0
  5  6  1  6
  7  8  2  0
  7  5  1  0
 10  9  1  0
 10 12  1  0
 11 10  2  0
 14 13  1  6
 13 12  1  0
 14 15  1  0
 15  7  1  0
 16 14  1  0
 17 16  2  0
 19 18  1  1
 19 20  1  0
 20 16  1  0
 21 19  1  0
 22 21  1  0
 23 21  2  0
M  END
$$$$
