NQA.pdb
     RDKit          3D

 23 22  0  0  1  0  0  0  0  0999 V2000
    9.2152  -13.6135   18.1582 N   0  0  0  0  0  0  0  0  0  0  0  0
    7.7870  -13.5526   18.1553 C   0  0  0  0  0  0  0  0  0  0  0  0
    7.1843  -13.1960   17.1146 O   0  0  0  0  0  0  0  0  0  0  0  0
    7.1085  -13.9274   19.4226 C   0  0  0  0  0  0  0  0  0  0  0  0
    8.1766  -14.2472   20.4397 C   0  0  2  0  0  0  0  0  0  0  0  0
    8.9614  -15.3923   20.0500 N   0  0  0  0  0  0  0  0  0  0  0  0
    7.6174  -14.4247   21.8010 C   0  0  0  0  0  0  0  0  0  0  0  0
    6.9192  -13.4845   22.2847 O   0  0  0  0  0  0  0  0  0  0  0  0
    7.5733  -19.7690   24.7513 N   0  0  0  0  0  0  0  0  0  0  0  0
    7.0651  -18.9996   25.8191 C   0  0  0  0  0  0  0  0  0  0  0  0
    6.7433  -19.5719   26.8773 O   0  0  0  0  0  0  0  0  0  0  0  0
    6.9268  -17.5391   25.6587 C   0  0  0  0  0  0  0  0  0  0  0  0
    7.3655  -17.1647   24.2791 C   0  0  0  0  0  0  0  0  0  0  0  0
    7.2597  -15.6987   23.9500 C   0  0  2  0  0  0  0  0  0  0  0  0
    7.7985  -15.5578   22.6063 N   0  0  0  0  0  0  0  0  0  0  0  0
    7.8751  -14.7937   24.9102 C   0  0  0  0  0  0  0  0  0  0  0  0
    9.1120  -14.7224   25.0134 O   0  0  0  0  0  0  0  0  0  0  0  0
    6.5666  -12.1062   27.2274 C   0  0  0  0  0  0  0  0  0  0  0  0
    7.6540  -12.9852   26.6477 C   0  0  2  0  0  0  0  0  0  0  0  0
    7.0852  -13.9773   25.7453 N   0  0  0  0  0  0  0  0  0  0  0  0
    8.3665  -13.6126   27.7750 C   0  0  0  0  0  0  0  0  0  0  0  0
    9.1218  -12.8479   28.6327 O   0  0  0  0  0  0  0  0  0  0  0  0
    8.2818  -14.8417   27.9484 O   0  0  0  0  0  0  0  0  0  0  0  0
  1  2  1  0
  2  3  2  0
  4  2  1  0
  4  5  1  0
  5  6  1  6
  7  8  2  0
  7  5  1  0
 10  9  1  0
 10 12  1  0
 11 10  2  0
 14 13  1  1
 13 12  1  0
 14 15  1  0
 15  7  1  0
 16 14  1  0
 17 16  2  0
 19 18  1  1
 19 20  1  0
 20 16  1  0
 21 19  1  0
 22 21  1  0
 23 21  2  0
M  END
$$$$
