NQA.pdb
     RDKit          3D

 23 22  0  0  1  0  0  0  0  0999 V2000
    8.0138  -12.1051   18.9471 N   0  0  0  0  0  0  0  0  0  0  0  0
    8.0230  -13.4920   19.2933 C   0  0  0  0  0  0  0  0  0  0  0  0
    8.6351  -14.3085   18.5636 O   0  0  0  0  0  0  0  0  0  0  0  0
    7.2853  -13.8688   20.5263 C   0  0  0  0  0  0  0  0  0  0  0  0
    8.3035  -14.1515   21.6039 C   0  0  2  0  0  0  0  0  0  0  0  0
    9.2788  -15.1240   21.1771 N   0  0  0  0  0  0  0  0  0  0  0  0
    7.6689  -14.5601   22.8796 C   0  0  0  0  0  0  0  0  0  0  0  0
    6.7021  -13.8649   23.3128 O   0  0  0  0  0  0  0  0  0  0  0  0
    7.3448  -20.2549   24.5407 N   0  0  0  0  0  0  0  0  0  0  0  0
    6.8634  -19.7577   25.7701 C   0  0  0  0  0  0  0  0  0  0  0  0
    6.5288  -20.5632   26.6589 O   0  0  0  0  0  0  0  0  0  0  0  0
    6.7677  -18.2993   25.9745 C   0  0  0  0  0  0  0  0  0  0  0  0
    7.3105  -17.6089   24.7643 C   0  0  0  0  0  0  0  0  0  0  0  0
    7.3502  -16.1056   24.8492 C   0  0  2  0  0  0  0  0  0  0  0  0
    8.0529  -15.6630   23.6551 N   0  0  0  0  0  0  0  0  0  0  0  0
    7.9111  -15.5607   26.0773 C   0  0  0  0  0  0  0  0  0  0  0  0
    7.3396  -15.7332   27.1680 O   0  0  0  0  0  0  0  0  0  0  0  0
    8.7736  -13.3418   27.9707 C   0  0  0  0  0  0  0  0  0  0  0  0
    9.7262  -14.2838   27.2662 C   0  0  2  0  0  0  0  0  0  0  0  0
    9.1140  -14.8254   26.0604 N   0  0  0  0  0  0  0  0  0  0  0  0
   10.0898  -15.3451   28.2219 C   0  0  0  0  0  0  0  0  0  0  0  0
   10.8019  -15.0434   29.3588 O   0  0  0  0  0  0  0  0  0  0  0  0
    9.7487  -16.5199   27.9952 O   0  0  0  0  0  0  0  0  0  0  0  0
  1  2  1  0
  2  3  2  0
  4  2  1  0
  4  5  1  0
  5  6  1  6
  7  8  2  0
  7  5  1  0
 10  9  1  0
 10 12  1  0
 11 10  2  0
 14 13  1  1
 13 12  1  0
 14 15  1  0
 15  7  1  0
 16 14  1  0
 17 16  2  0
 19 18  1  1
 19 20  1  0
 20 16  1  0
 21 19  1  0
 22 21  1  0
 23 21  2  0
M  END
$$$$
