NQA.pdb
     RDKit          3D

 23 22  0  0  1  0  0  0  0  0999 V2000
    9.3637  -13.0544   18.1850 N   0  0  0  0  0  0  0  0  0  0  0  0
    8.0852  -13.6922   18.1411 C   0  0  0  0  0  0  0  0  0  0  0  0
    7.5281  -13.8877   17.0343 O   0  0  0  0  0  0  0  0  0  0  0  0
    7.4992  -14.0851   19.4484 C   0  0  0  0  0  0  0  0  0  0  0  0
    8.4712  -13.6797   20.5293 C   0  0  2  0  0  0  0  0  0  0  0  0
    9.8395  -13.7928   20.0887 N   0  0  0  0  0  0  0  0  0  0  0  0
    8.2543  -14.4327   21.7876 C   0  0  0  0  0  0  0  0  0  0  0  0
    7.1111  -14.3679   22.3303 O   0  0  0  0  0  0  0  0  0  0  0  0
   10.0017  -19.8730   23.2465 N   0  0  0  0  0  0  0  0  0  0  0  0
   11.0904  -18.9845   23.1223 C   0  0  0  0  0  0  0  0  0  0  0  0
   12.2277  -19.4469   22.9140 O   0  0  0  0  0  0  0  0  0  0  0  0
   10.8579  -17.5320   23.2417 C   0  0  0  0  0  0  0  0  0  0  0  0
    9.4088  -17.3005   23.5286 C   0  0  0  0  0  0  0  0  0  0  0  0
    9.0178  -15.8591   23.7246 C   0  0  2  0  0  0  0  0  0  0  0  0
    9.2184  -15.2187   22.4341 N   0  0  0  0  0  0  0  0  0  0  0  0
    9.6905  -15.1689   24.8158 C   0  0  0  0  0  0  0  0  0  0  0  0
   10.8567  -14.7584   24.6846 O   0  0  0  0  0  0  0  0  0  0  0  0
    8.7396  -13.1881   27.7119 C   0  0  0  0  0  0  0  0  0  0  0  0
    9.6648  -14.2514   27.1601 C   0  0  2  0  0  0  0  0  0  0  0  0
    9.0375  -14.9494   26.0460 N   0  0  0  0  0  0  0  0  0  0  0  0
    9.9976  -15.1680   28.2651 C   0  0  0  0  0  0  0  0  0  0  0  0
   10.6740  -14.7084   29.3706 O   0  0  0  0  0  0  0  0  0  0  0  0
    9.6629  -16.3642   28.1939 O   0  0  0  0  0  0  0  0  0  0  0  0
  1  2  1  0
  2  3  2  0
  4  2  1  0
  4  5  1  0
  5  6  1  6
  7  8  2  0
  7  5  1  0
 10  9  1  0
 10 12  1  0
 11 10  2  0
 14 13  1  6
 13 12  1  0
 14 15  1  0
 15  7  1  0
 16 14  1  0
 17 16  2  0
 19 18  1  1
 19 20  1  0
 20 16  1  0
 21 19  1  0
 22 21  1  0
 23 21  2  0
M  END
$$$$
