NQA.pdb
     RDKit          3D

 23 22  0  0  1  0  0  0  0  0999 V2000
    4.9398  -21.4415   17.7083 N   0  0  0  0  0  0  0  0  0  0  0  0
    4.7718  -20.1883   18.3753 C   0  0  0  0  0  0  0  0  0  0  0  0
    3.6575  -19.8951   18.8711 O   0  0  0  0  0  0  0  0  0  0  0  0
    5.9652  -19.3056   18.4305 C   0  0  0  0  0  0  0  0  0  0  0  0
    6.3776  -19.1786   19.8767 C   0  0  2  0  0  0  0  0  0  0  0  0
    5.2758  -18.7735   20.7140 N   0  0  0  0  0  0  0  0  0  0  0  0
    7.5377  -18.2724   20.0500 C   0  0  0  0  0  0  0  0  0  0  0  0
    8.6787  -18.6910   19.6912 O   0  0  0  0  0  0  0  0  0  0  0  0
    7.5307  -12.3513   19.3251 N   0  0  0  0  0  0  0  0  0  0  0  0
    7.6994  -13.3290   18.3221 C   0  0  0  0  0  0  0  0  0  0  0  0
    7.4993  -13.0168   17.1333 O   0  0  0  0  0  0  0  0  0  0  0  0
    8.1078  -14.6951   18.7029 C   0  0  0  0  0  0  0  0  0  0  0  0
    8.2079  -14.7677   20.1931 C   0  0  0  0  0  0  0  0  0  0  0  0
    8.6309  -16.1052   20.7414 C   0  0  2  0  0  0  0  0  0  0  0  0
    7.4776  -16.9773   20.5832 N   0  0  0  0  0  0  0  0  0  0  0  0
    9.1536  -16.0899   22.1002 C   0  0  0  0  0  0  0  0  0  0  0  0
    8.5712  -15.4565   22.9977 O   0  0  0  0  0  0  0  0  0  0  0  0
   10.9404  -17.9132   24.5138 C   0  0  0  0  0  0  0  0  0  0  0  0
   11.0122  -16.6332   23.7093 C   0  0  2  0  0  0  0  0  0  0  0  0
   10.3309  -16.7915   22.4314 N   0  0  0  0  0  0  0  0  0  0  0  0
   12.4364  -16.2973   23.5344 C   0  0  0  0  0  0  0  0  0  0  0  0
   13.1667  -15.7943   24.5854 O   0  0  0  0  0  0  0  0  0  0  0  0
   12.9779  -16.4713   22.4279 O   0  0  0  0  0  0  0  0  0  0  0  0
  1  2  1  0
  2  3  2  0
  4  2  1  0
  4  5  1  0
  5  6  1  1
  7  8  2  0
  7  5  1  0
 10  9  1  0
 10 12  1  0
 11 10  2  0
 14 13  1  1
 13 12  1  0
 14 15  1  0
 15  7  1  0
 16 14  1  0
 17 16  2  0
 19 18  1  6
 19 20  1  0
 20 16  1  0
 21 19  1  0
 22 21  1  0
 23 21  2  0
M  END
$$$$
