NQA.pdb
     RDKit          3D

 23 22  0  0  1  0  0  0  0  0999 V2000
    8.3928  -14.2503   18.4516 N   0  0  0  0  0  0  0  0  0  0  0  0
    8.7452  -13.1305   19.2672 C   0  0  0  0  0  0  0  0  0  0  0  0
    9.3630  -12.1642   18.7591 O   0  0  0  0  0  0  0  0  0  0  0  0
    8.3402  -13.2009   20.6947 C   0  0  0  0  0  0  0  0  0  0  0  0
    7.6313  -14.5161   20.9078 C   0  0  2  0  0  0  0  0  0  0  0  0
    6.3375  -14.5362   20.2715 N   0  0  0  0  0  0  0  0  0  0  0  0
    7.5224  -14.8664   22.3440 C   0  0  0  0  0  0  0  0  0  0  0  0
    6.6630  -14.2512   23.0431 O   0  0  0  0  0  0  0  0  0  0  0  0
    6.0581  -19.6908   26.0391 N   0  0  0  0  0  0  0  0  0  0  0  0
    7.4050  -19.6501   25.6214 C   0  0  0  0  0  0  0  0  0  0  0  0
    7.9296  -20.6851   25.1694 O   0  0  0  0  0  0  0  0  0  0  0  0
    8.1595  -18.3863   25.7290 C   0  0  0  0  0  0  0  0  0  0  0  0
    8.2140  -17.7441   24.3798 C   0  0  0  0  0  0  0  0  0  0  0  0
    8.0948  -16.2426   24.3807 C   0  0  2  0  0  0  0  0  0  0  0  0
    8.2989  -15.8314   23.0004 N   0  0  0  0  0  0  0  0  0  0  0  0
    8.9620  -15.5445   25.3190 C   0  0  0  0  0  0  0  0  0  0  0  0
   10.1869  -15.4722   25.1188 O   0  0  0  0  0  0  0  0  0  0  0  0
    8.4714  -13.2771   28.2697 C   0  0  0  0  0  0  0  0  0  0  0  0
    9.2713  -14.2912   27.4805 C   0  0  2  0  0  0  0  0  0  0  0  0
    8.4352  -14.9344   26.4758 N   0  0  0  0  0  0  0  0  0  0  0  0
    9.8249  -15.2640   28.4391 C   0  0  0  0  0  0  0  0  0  0  0  0
   10.8045  -14.8857   29.3268 O   0  0  0  0  0  0  0  0  0  0  0  0
    9.4009  -16.4337   28.4423 O   0  0  0  0  0  0  0  0  0  0  0  0
  1  2  1  0
  2  3  2  0
  4  2  1  0
  4  5  1  0
  5  6  1  1
  7  8  2  0
  7  5  1  0
 10  9  1  0
 10 12  1  0
 11 10  2  0
 14 13  1  6
 13 12  1  0
 14 15  1  0
 15  7  1  0
 16 14  1  0
 17 16  2  0
 19 18  1  1
 19 20  1  0
 20 16  1  0
 21 19  1  0
 22 21  1  0
 23 21  2  0
M  END
$$$$
