MDN.pdb
     RDKit          3D

 25 24  0  0  1  0  0  0  0  0999 V2000
    6.5741  -10.8208   25.1692 C   0  0  0  0  0  0  0  0  0  0  0  0
    6.1007  -12.2753   26.1591 S   0  0  0  0  0  0  0  0  0  0  0  0
    5.9448  -13.6794   25.0221 C   0  0  0  0  0  0  0  0  0  0  0  0
    7.2048  -14.5524   25.0709 C   0  0  0  0  0  0  0  0  0  0  0  0
    7.1222  -15.6410   24.0370 C   0  0  2  0  0  0  0  0  0  0  0  0
    6.0343  -16.5374   24.4360 N   0  0  0  0  0  0  0  0  0  0  0  0
    8.3429  -16.4260   23.8948 C   0  0  0  0  0  0  0  0  0  0  0  0
    8.5013  -17.4741   24.5658 O   0  0  0  0  0  0  0  0  0  0  0  0
    9.4117  -16.0726   23.0113 N   0  0  0  0  0  0  0  0  0  0  0  0
   10.6465  -16.7923   22.8922 C   0  0  1  0  0  0  0  0  0  0  0  0
   11.5524  -16.2020   21.8228 C   0  0  0  0  0  0  0  0  0  0  0  0
   11.1226  -16.6676   20.4801 C   0  0  0  0  0  0  0  0  0  0  0  0
   10.4272  -17.7123   20.3844 O   0  0  0  0  0  0  0  0  0  0  0  0
   11.3443  -16.9605   24.1810 C   0  0  0  0  0  0  0  0  0  0  0  0
   11.6000  -15.9243   24.8702 O   0  0  0  0  0  0  0  0  0  0  0  0
   11.4951  -15.9458   19.3643 O   0  0  0  0  0  0  0  0  0  0  0  0
   10.5416  -19.3978   29.2925 N   0  0  0  0  0  0  0  0  0  0  0  0
   11.5254  -19.0953   28.3289 C   0  0  0  0  0  0  0  0  0  0  0  0
   12.7434  -19.1351   28.6304 O   0  0  0  0  0  0  0  0  0  0  0  0
   11.1384  -18.7346   26.9643 C   0  0  0  0  0  0  0  0  0  0  0  0
   12.2812  -18.3684   26.0490 C   0  0  2  0  0  0  0  0  0  0  0  0
   11.7439  -18.2188   24.6883 N   0  0  0  0  0  0  0  0  0  0  0  0
   13.2442  -19.4854   26.0291 C   0  0  0  0  0  0  0  0  0  0  0  0
   13.9232  -19.7051   27.0909 O   0  0  0  0  0  0  0  0  0  0  0  0
   13.5025  -20.3329   24.9863 O   0  0  0  0  0  0  0  0  0  0  0  0
  1  2  1  0
  2  3  1  0
  4  3  1  0
  5  4  1  0
  5  7  1  0
  5  6  1  1
  7  9  1  0
  8  7  2  0
  9 10  1  0
 10 14  1  0
 10 11  1  6
 12 11  1  0
 13 12  2  0
 14 15  2  0
 16 12  1  0
 18 17  1  0
 18 20  1  0
 19 18  2  0
 21 20  1  1
 21 23  1  0
 22 14  1  0
 22 21  1  0
 23 24  2  0
 23 25  1  0
M  END
$$$$
