MDN.pdb
     RDKit          3D

 25 24  0  0  1  0  0  0  0  0999 V2000
    7.6589  -11.8785   20.6754 C   0  0  0  0  0  0  0  0  0  0  0  0
    7.2620  -12.6776   19.0868 S   0  0  0  0  0  0  0  0  0  0  0  0
    8.3731  -14.0986   18.9005 C   0  0  0  0  0  0  0  0  0  0  0  0
    9.6215  -13.7031   18.1022 C   0  0  0  0  0  0  0  0  0  0  0  0
   10.5566  -14.8749   17.9871 C   0  0  2  0  0  0  0  0  0  0  0  0
    9.7696  -16.0129   17.5056 N   0  0  0  0  0  0  0  0  0  0  0  0
   11.2013  -15.2521   19.2395 C   0  0  0  0  0  0  0  0  0  0  0  0
   11.9880  -14.4579   19.8089 O   0  0  0  0  0  0  0  0  0  0  0  0
   10.9920  -16.5100   19.8888 N   0  0  0  0  0  0  0  0  0  0  0  0
   11.7156  -16.9669   21.0397 C   0  0  1  0  0  0  0  0  0  0  0  0
   11.2546  -18.3421   21.4971 C   0  0  0  0  0  0  0  0  0  0  0  0
    9.7844  -18.3419   21.7030 C   0  0  0  0  0  0  0  0  0  0  0  0
    9.2974  -17.6892   22.6627 O   0  0  0  0  0  0  0  0  0  0  0  0
   13.1791  -16.9003   20.8665 C   0  0  0  0  0  0  0  0  0  0  0  0
   13.7363  -17.7442   20.0974 O   0  0  0  0  0  0  0  0  0  0  0  0
    8.9816  -19.0582   20.8384 O   0  0  0  0  0  0  0  0  0  0  0  0
   14.3909  -13.2928   19.2673 N   0  0  0  0  0  0  0  0  0  0  0  0
   15.4058  -14.2481   19.4807 C   0  0  0  0  0  0  0  0  0  0  0  0
   15.9396  -14.8359   18.5083 O   0  0  0  0  0  0  0  0  0  0  0  0
   15.8517  -14.5632   20.8386 C   0  0  0  0  0  0  0  0  0  0  0  0
   15.4546  -15.9289   21.3436 C   0  0  2  0  0  0  0  0  0  0  0  0
   13.9941  -15.9434   21.5148 N   0  0  0  0  0  0  0  0  0  0  0  0
   16.0625  -16.1343   22.6717 C   0  0  0  0  0  0  0  0  0  0  0  0
   17.3396  -16.1530   22.7453 O   0  0  0  0  0  0  0  0  0  0  0  0
   15.4075  -16.3107   23.8599 O   0  0  0  0  0  0  0  0  0  0  0  0
  1  2  1  0
  2  3  1  0
  4  3  1  0
  5  4  1  0
  5  7  1  0
  5  6  1  1
  7  9  1  0
  8  7  2  0
  9 10  1  0
 10 14  1  0
 10 11  1  6
 12 11  1  0
 13 12  2  0
 14 15  2  0
 16 12  1  0
 18 17  1  0
 18 20  1  0
 19 18  2  0
 21 20  1  1
 21 23  1  0
 22 14  1  0
 22 21  1  0
 23 24  2  0
 23 25  1  0
M  END
$$$$
