MDN.pdb
     RDKit          3D

 25 24  0  0  1  0  0  0  0  0999 V2000
    8.3656  -11.8286   20.7321 C   0  0  0  0  0  0  0  0  0  0  0  0
    7.4207  -13.2177   20.0267 S   0  0  0  0  0  0  0  0  0  0  0  0
    6.4781  -13.9756   21.3779 C   0  0  0  0  0  0  0  0  0  0  0  0
    7.4203  -14.6878   22.3564 C   0  0  0  0  0  0  0  0  0  0  0  0
    7.9401  -15.9589   21.7441 C   0  0  2  0  0  0  0  0  0  0  0  0
    6.7984  -16.8631   21.5854 N   0  0  0  0  0  0  0  0  0  0  0  0
    8.9602  -16.6331   22.5386 C   0  0  0  0  0  0  0  0  0  0  0  0
    8.6376  -17.2742   23.5676 O   0  0  0  0  0  0  0  0  0  0  0  0
   10.3542  -16.6149   22.2153 N   0  0  0  0  0  0  0  0  0  0  0  0
   11.3973  -17.1131   23.0641 C   0  0  1  0  0  0  0  0  0  0  0  0
   12.7306  -17.2057   22.3385 C   0  0  0  0  0  0  0  0  0  0  0  0
   12.5635  -17.9457   21.0623 C   0  0  0  0  0  0  0  0  0  0  0  0
   11.9642  -19.0526   21.0666 O   0  0  0  0  0  0  0  0  0  0  0  0
   11.5075  -16.3769   24.3377 C   0  0  0  0  0  0  0  0  0  0  0  0
   12.3424  -15.4222   24.4144 O   0  0  0  0  0  0  0  0  0  0  0  0
   13.0693  -17.4052   19.8974 O   0  0  0  0  0  0  0  0  0  0  0  0
    8.8327  -13.5193   28.6125 N   0  0  0  0  0  0  0  0  0  0  0  0
   10.0109  -13.9876   27.9956 C   0  0  0  0  0  0  0  0  0  0  0  0
   11.1358  -13.6943   28.4693 O   0  0  0  0  0  0  0  0  0  0  0  0
    9.9363  -14.8246   26.7973 C   0  0  0  0  0  0  0  0  0  0  0  0
   10.9169  -15.9711   26.7534 C   0  0  2  0  0  0  0  0  0  0  0  0
   10.7299  -16.6810   25.4792 N   0  0  0  0  0  0  0  0  0  0  0  0
   10.5896  -16.9116   27.8415 C   0  0  0  0  0  0  0  0  0  0  0  0
   10.7824  -16.5208   29.0444 O   0  0  0  0  0  0  0  0  0  0  0  0
   10.0932  -18.1802   27.7133 O   0  0  0  0  0  0  0  0  0  0  0  0
  1  2  1  0
  2  3  1  0
  4  3  1  0
  5  4  1  0
  5  7  1  0
  5  6  1  1
  7  9  1  0
  8  7  2  0
  9 10  1  0
 10 14  1  0
 10 11  1  6
 12 11  1  0
 13 12  2  0
 14 15  2  0
 16 12  1  0
 18 17  1  0
 18 20  1  0
 19 18  2  0
 21 20  1  6
 21 23  1  0
 22 14  1  0
 22 21  1  0
 23 24  2  0
 23 25  1  0
M  END
$$$$
