MDN.pdb
     RDKit          3D

 25 24  0  0  1  0  0  0  0  0999 V2000
    7.7085  -11.4296   27.4281 C   0  0  0  0  0  0  0  0  0  0  0  0
    6.0796  -11.9728   26.8185 S   0  0  0  0  0  0  0  0  0  0  0  0
    6.3480  -12.8385   25.2478 C   0  0  0  0  0  0  0  0  0  0  0  0
    7.6682  -13.6184   25.2833 C   0  0  0  0  0  0  0  0  0  0  0  0
    8.0003  -14.1389   23.9124 C   0  0  2  0  0  0  0  0  0  0  0  0
    6.8164  -13.9385   23.0731 N   0  0  0  0  0  0  0  0  0  0  0  0
    8.3602  -15.5517   23.8789 C   0  0  0  0  0  0  0  0  0  0  0  0
    7.7115  -16.3846   24.5566 O   0  0  0  0  0  0  0  0  0  0  0  0
    9.4401  -16.0741   23.0987 N   0  0  0  0  0  0  0  0  0  0  0  0
    9.7345  -17.4688   22.9398 C   0  0  1  0  0  0  0  0  0  0  0  0
    8.5618  -18.2380   22.3517 C   0  0  0  0  0  0  0  0  0  0  0  0
    8.1195  -17.5997   21.0864 C   0  0  0  0  0  0  0  0  0  0  0  0
    6.8944  -17.5892   20.7979 O   0  0  0  0  0  0  0  0  0  0  0  0
   10.9873  -17.7146   22.2007 C   0  0  0  0  0  0  0  0  0  0  0  0
   11.2339  -18.8962   21.8042 O   0  0  0  0  0  0  0  0  0  0  0  0
    9.0607  -17.0316   20.2521 O   0  0  0  0  0  0  0  0  0  0  0  0
   15.7894  -15.0307   23.3720 N   0  0  0  0  0  0  0  0  0  0  0  0
   14.6828  -15.4516   24.1378 C   0  0  0  0  0  0  0  0  0  0  0  0
   14.8114  -15.6858   25.3645 O   0  0  0  0  0  0  0  0  0  0  0  0
   13.3700  -15.6170   23.5125 C   0  0  0  0  0  0  0  0  0  0  0  0
   13.2839  -16.7170   22.4827 C   0  0  2  0  0  0  0  0  0  0  0  0
   11.9291  -16.6999   21.9112 N   0  0  0  0  0  0  0  0  0  0  0  0
   13.4660  -18.0131   23.1628 C   0  0  0  0  0  0  0  0  0  0  0  0
   13.9420  -18.9831   22.4778 O   0  0  0  0  0  0  0  0  0  0  0  0
   13.1799  -18.3066   24.4682 O   0  0  0  0  0  0  0  0  0  0  0  0
  1  2  1  0
  2  3  1  0
  4  3  1  0
  5  4  1  0
  5  7  1  0
  5  6  1  6
  7  9  1  0
  8  7  2  0
  9 10  1  0
 10 14  1  0
 10 11  1  6
 12 11  1  0
 13 12  2  0
 14 15  2  0
 16 12  1  0
 18 17  1  0
 18 20  1  0
 19 18  2  0
 21 20  1  1
 21 23  1  0
 22 14  1  0
 22 21  1  0
 23 24  2  0
 23 25  1  0
M  END
$$$$
