MDN.pdb
     RDKit          3D

 25 24  0  0  1  0  0  0  0  0999 V2000
    7.8294  -12.0664   27.3466 C   0  0  0  0  0  0  0  0  0  0  0  0
    6.0691  -12.4339   27.0530 S   0  0  0  0  0  0  0  0  0  0  0  0
    5.8805  -12.8181   25.2908 C   0  0  0  0  0  0  0  0  0  0  0  0
    6.4070  -14.2268   24.9890 C   0  0  0  0  0  0  0  0  0  0  0  0
    7.8483  -14.1623   24.5656 C   0  0  2  0  0  0  0  0  0  0  0  0
    7.9555  -13.1144   23.5475 N   0  0  0  0  0  0  0  0  0  0  0  0
    8.3651  -15.4068   24.0081 C   0  0  0  0  0  0  0  0  0  0  0  0
    8.0141  -16.5095   24.4927 O   0  0  0  0  0  0  0  0  0  0  0  0
    9.2773  -15.4610   22.9069 N   0  0  0  0  0  0  0  0  0  0  0  0
    9.7948  -16.6687   22.3320 C   0  0  1  0  0  0  0  0  0  0  0  0
    9.9575  -16.5610   20.8238 C   0  0  0  0  0  0  0  0  0  0  0  0
   10.5325  -17.8189   20.2843 C   0  0  0  0  0  0  0  0  0  0  0  0
   11.7735  -17.8939   20.0881 O   0  0  0  0  0  0  0  0  0  0  0  0
   11.0267  -17.1414   22.9917 C   0  0  0  0  0  0  0  0  0  0  0  0
   11.6005  -18.1771   22.5308 O   0  0  0  0  0  0  0  0  0  0  0  0
    9.6944  -18.8801   20.0081 O   0  0  0  0  0  0  0  0  0  0  0  0
   11.4014  -17.8928   28.4842 N   0  0  0  0  0  0  0  0  0  0  0  0
   10.9014  -18.4035   27.2688 C   0  0  0  0  0  0  0  0  0  0  0  0
   10.5982  -19.6174   27.1665 O   0  0  0  0  0  0  0  0  0  0  0  0
   10.7264  -17.5234   26.1126 C   0  0  0  0  0  0  0  0  0  0  0  0
   11.9813  -17.2465   25.3212 C   0  0  2  0  0  0  0  0  0  0  0  0
   11.6015  -16.4992   24.1130 N   0  0  0  0  0  0  0  0  0  0  0  0
   12.5577  -18.5334   24.8883 C   0  0  0  0  0  0  0  0  0  0  0  0
   13.7753  -18.7746   25.1982 O   0  0  0  0  0  0  0  0  0  0  0  0
   11.9301  -19.5210   24.1792 O   0  0  0  0  0  0  0  0  0  0  0  0
  1  2  1  0
  2  3  1  0
  4  3  1  0
  5  4  1  0
  5  7  1  0
  5  6  1  6
  7  9  1  0
  8  7  2  0
  9 10  1  0
 10 14  1  0
 10 11  1  6
 12 11  1  0
 13 12  2  0
 14 15  2  0
 16 12  1  0
 18 17  1  0
 18 20  1  0
 19 18  2  0
 21 20  1  1
 21 23  1  0
 22 14  1  0
 22 21  1  0
 23 24  2  0
 23 25  1  0
M  END
$$$$
