MDN.pdb
     RDKit          3D

 25 24  0  0  1  0  0  0  0  0999 V2000
    8.6383  -11.9118   19.7886 C   0  0  0  0  0  0  0  0  0  0  0  0
    6.9809  -12.5732   20.1570 S   0  0  0  0  0  0  0  0  0  0  0  0
    6.9862  -14.3314   19.7130 C   0  0  0  0  0  0  0  0  0  0  0  0
    8.2790  -15.0027   20.1934 C   0  0  0  0  0  0  0  0  0  0  0  0
    8.3155  -16.4378   19.7465 C   0  0  2  0  0  0  0  0  0  0  0  0
    7.0992  -17.0806   20.2501 N   0  0  0  0  0  0  0  0  0  0  0  0
    9.4705  -17.1861   20.2287 C   0  0  0  0  0  0  0  0  0  0  0  0
    9.3218  -18.1016   21.0735 O   0  0  0  0  0  0  0  0  0  0  0  0
   10.8104  -16.9415   19.7897 N   0  0  0  0  0  0  0  0  0  0  0  0
   11.9038  -17.8555   19.9510 C   0  0  1  0  0  0  0  0  0  0  0  0
   12.4892  -18.2889   18.6160 C   0  0  0  0  0  0  0  0  0  0  0  0
   13.6474  -19.1907   18.8387 C   0  0  0  0  0  0  0  0  0  0  0  0
   13.5334  -20.1518   19.6433 O   0  0  0  0  0  0  0  0  0  0  0  0
   12.9393  -17.3604   20.8776 C   0  0  0  0  0  0  0  0  0  0  0  0
   13.9647  -18.0826   21.0807 O   0  0  0  0  0  0  0  0  0  0  0  0
   14.8258  -18.9561   18.1594 O   0  0  0  0  0  0  0  0  0  0  0  0
    9.1220  -15.8048   24.5378 N   0  0  0  0  0  0  0  0  0  0  0  0
   10.3492  -16.4688   24.3347 C   0  0  0  0  0  0  0  0  0  0  0  0
   10.9273  -17.0418   25.2905 O   0  0  0  0  0  0  0  0  0  0  0  0
   10.9620  -16.5012   23.0060 C   0  0  0  0  0  0  0  0  0  0  0  0
   12.3956  -16.0328   22.9492 C   0  0  2  0  0  0  0  0  0  0  0  0
   12.8478  -16.1209   21.5527 N   0  0  0  0  0  0  0  0  0  0  0  0
   13.2241  -16.9567   23.7465 C   0  0  0  0  0  0  0  0  0  0  0  0
   13.9187  -16.4615   24.7000 O   0  0  0  0  0  0  0  0  0  0  0  0
   13.3397  -18.3103   23.5832 O   0  0  0  0  0  0  0  0  0  0  0  0
  1  2  1  0
  2  3  1  0
  4  3  1  0
  5  4  1  0
  5  7  1  0
  5  6  1  1
  7  9  1  0
  8  7  2  0
  9 10  1  0
 10 14  1  0
 10 11  1  6
 12 11  1  0
 13 12  2  0
 14 15  2  0
 16 12  1  0
 18 17  1  0
 18 20  1  0
 19 18  2  0
 21 20  1  6
 21 23  1  0
 22 14  1  0
 22 21  1  0
 23 24  2  0
 23 25  1  0
M  END
$$$$
