MDN.pdb
     RDKit          3D

 25 24  0  0  1  0  0  0  0  0999 V2000
    6.5298  -11.2087   25.1878 C   0  0  0  0  0  0  0  0  0  0  0  0
    6.5852  -12.7071   26.2231 S   0  0  0  0  0  0  0  0  0  0  0  0
    5.6345  -13.9935   25.3689 C   0  0  0  0  0  0  0  0  0  0  0  0
    6.4863  -14.6562   24.2791 C   0  0  0  0  0  0  0  0  0  0  0  0
    7.2672  -15.8038   24.8570 C   0  0  2  0  0  0  0  0  0  0  0  0
    7.6749  -15.4145   26.2092 N   0  0  0  0  0  0  0  0  0  0  0  0
    8.4593  -16.1604   24.0966 C   0  0  0  0  0  0  0  0  0  0  0  0
    8.3972  -17.0336   23.1979 O   0  0  0  0  0  0  0  0  0  0  0  0
    9.7417  -15.5625   24.3105 N   0  0  0  0  0  0  0  0  0  0  0  0
   10.9972  -16.2284   24.1177 C   0  0  1  0  0  0  0  0  0  0  0  0
   12.0503  -15.3046   23.5259 C   0  0  0  0  0  0  0  0  0  0  0  0
   13.2201  -16.0960   23.0683 C   0  0  0  0  0  0  0  0  0  0  0  0
   13.0448  -17.2736   22.6599 O   0  0  0  0  0  0  0  0  0  0  0  0
   11.4792  -16.9160   25.3306 C   0  0  0  0  0  0  0  0  0  0  0  0
   12.6119  -17.4902   25.2908 O   0  0  0  0  0  0  0  0  0  0  0  0
   14.4760  -15.5245   23.1007 O   0  0  0  0  0  0  0  0  0  0  0  0
   11.7472  -14.6585   27.7077 N   0  0  0  0  0  0  0  0  0  0  0  0
   11.0084  -15.1755   28.7917 C   0  0  0  0  0  0  0  0  0  0  0  0
   10.5224  -14.4041   29.6547 O   0  0  0  0  0  0  0  0  0  0  0  0
   10.7961  -16.6177   28.9216 C   0  0  0  0  0  0  0  0  0  0  0  0
   11.3439  -17.4514   27.7891 C   0  0  2  0  0  0  0  0  0  0  0  0
   10.7428  -16.9686   26.5369 N   0  0  0  0  0  0  0  0  0  0  0  0
   10.9126  -18.8487   27.9825 C   0  0  0  0  0  0  0  0  0  0  0  0
   10.0005  -19.3026   27.2087 O   0  0  0  0  0  0  0  0  0  0  0  0
   11.3834  -19.7358   28.9117 O   0  0  0  0  0  0  0  0  0  0  0  0
  1  2  1  0
  2  3  1  0
  4  3  1  0
  5  4  1  0
  5  7  1  0
  5  6  1  1
  7  9  1  0
  8  7  2  0
  9 10  1  0
 10 14  1  0
 10 11  1  1
 12 11  1  0
 13 12  2  0
 14 15  2  0
 16 12  1  0
 18 17  1  0
 18 20  1  0
 19 18  2  0
 21 20  1  1
 21 23  1  0
 22 14  1  0
 22 21  1  0
 23 24  2  0
 23 25  1  0
M  END
$$$$
