MDN.pdb
     RDKit          3D

 25 24  0  0  1  0  0  0  0  0999 V2000
    6.6554  -11.5979   25.6348 C   0  0  0  0  0  0  0  0  0  0  0  0
    6.8121  -13.3089   26.2412 S   0  0  0  0  0  0  0  0  0  0  0  0
    6.8645  -14.3968   24.7913 C   0  0  0  0  0  0  0  0  0  0  0  0
    7.6152  -13.7191   23.6383 C   0  0  0  0  0  0  0  0  0  0  0  0
    7.6261  -14.6134   22.4296 C   0  0  2  0  0  0  0  0  0  0  0  0
    6.3592  -15.3489   22.4220 N   0  0  0  0  0  0  0  0  0  0  0  0
    8.7221  -15.5751   22.4059 C   0  0  0  0  0  0  0  0  0  0  0  0
    8.9940  -16.1965   21.3505 O   0  0  0  0  0  0  0  0  0  0  0  0
    9.5394  -15.8705   23.5427 N   0  0  0  0  0  0  0  0  0  0  0  0
   10.8357  -16.4811   23.4818 C   0  0  1  0  0  0  0  0  0  0  0  0
   11.7403  -15.8037   22.4641 C   0  0  0  0  0  0  0  0  0  0  0  0
   11.8682  -16.6537   21.2537 C   0  0  0  0  0  0  0  0  0  0  0  0
   11.0810  -17.6231   21.0963 O   0  0  0  0  0  0  0  0  0  0  0  0
   11.4798  -16.6038   24.8033 C   0  0  0  0  0  0  0  0  0  0  0  0
   12.6995  -16.2662   24.9156 O   0  0  0  0  0  0  0  0  0  0  0  0
   12.8483  -16.3642   20.3261 O   0  0  0  0  0  0  0  0  0  0  0  0
   11.7065  -15.8255   29.9413 N   0  0  0  0  0  0  0  0  0  0  0  0
   10.6823  -15.2000   29.2012 C   0  0  0  0  0  0  0  0  0  0  0  0
   10.0028  -14.2762   29.7121 O   0  0  0  0  0  0  0  0  0  0  0  0
   10.4014  -15.6179   27.8270 C   0  0  0  0  0  0  0  0  0  0  0  0
   11.2634  -16.7435   27.3099 C   0  0  2  0  0  0  0  0  0  0  0  0
   10.8070  -17.0793   25.9529 N   0  0  0  0  0  0  0  0  0  0  0  0
   11.0483  -17.9294   28.1602 C   0  0  0  0  0  0  0  0  0  0  0  0
   10.3170  -18.8706   27.6952 O   0  0  0  0  0  0  0  0  0  0  0  0
   11.5495  -18.1463   29.4147 O   0  0  0  0  0  0  0  0  0  0  0  0
  1  2  1  0
  2  3  1  0
  4  3  1  0
  5  4  1  0
  5  7  1  0
  5  6  1  1
  7  9  1  0
  8  7  2  0
  9 10  1  0
 10 14  1  0
 10 11  1  6
 12 11  1  0
 13 12  2  0
 14 15  2  0
 16 12  1  0
 18 17  1  0
 18 20  1  0
 19 18  2  0
 21 20  1  1
 21 23  1  0
 22 14  1  0
 22 21  1  0
 23 24  2  0
 23 25  1  0
M  END
$$$$
