MDN.pdb
     RDKit          3D

 25 24  0  0  1  0  0  0  0  0999 V2000
    8.2235  -12.0365   26.6124 C   0  0  0  0  0  0  0  0  0  0  0  0
    6.9699  -12.9791   25.6851 S   0  0  0  0  0  0  0  0  0  0  0  0
    7.2929  -14.7405   25.9708 C   0  0  0  0  0  0  0  0  0  0  0  0
    6.3268  -15.6037   25.1498 C   0  0  0  0  0  0  0  0  0  0  0  0
    6.9202  -15.9079   23.8022 C   0  0  2  0  0  0  0  0  0  0  0  0
    5.9246  -16.6786   23.0532 N   0  0  0  0  0  0  0  0  0  0  0  0
    8.1597  -16.6745   23.8526 C   0  0  0  0  0  0  0  0  0  0  0  0
    8.1725  -17.8214   24.3609 O   0  0  0  0  0  0  0  0  0  0  0  0
    9.4079  -16.1935   23.3443 N   0  0  0  0  0  0  0  0  0  0  0  0
   10.6617  -16.8780   23.4726 C   0  0  1  0  0  0  0  0  0  0  0  0
   11.7690  -16.1972   22.6832 C   0  0  0  0  0  0  0  0  0  0  0  0
   11.4515  -16.2285   21.2332 C   0  0  0  0  0  0  0  0  0  0  0  0
   11.2450  -15.1461   20.6249 O   0  0  0  0  0  0  0  0  0  0  0  0
   11.0473  -17.1199   24.8758 C   0  0  0  0  0  0  0  0  0  0  0  0
   11.2560  -16.1171   25.6274 O   0  0  0  0  0  0  0  0  0  0  0  0
   11.3884  -17.4438   20.5822 O   0  0  0  0  0  0  0  0  0  0  0  0
   12.1896  -19.6196   29.3972 N   0  0  0  0  0  0  0  0  0  0  0  0
   10.9716  -20.0156   28.8073 C   0  0  0  0  0  0  0  0  0  0  0  0
   10.1974  -20.7972   29.4119 O   0  0  0  0  0  0  0  0  0  0  0  0
   10.5937  -19.5170   27.4842 C   0  0  0  0  0  0  0  0  0  0  0  0
   11.6088  -18.6159   26.8242 C   0  0  2  0  0  0  0  0  0  0  0  0
   11.1971  -18.4138   25.4270 N   0  0  0  0  0  0  0  0  0  0  0  0
   12.9122  -19.3063   26.8109 C   0  0  0  0  0  0  0  0  0  0  0  0
   13.4588  -19.5679   27.9376 O   0  0  0  0  0  0  0  0  0  0  0  0
   13.6208  -19.7087   25.7118 O   0  0  0  0  0  0  0  0  0  0  0  0
  1  2  1  0
  2  3  1  0
  4  3  1  0
  5  4  1  0
  5  7  1  0
  5  6  1  6
  7  9  1  0
  8  7  2  0
  9 10  1  0
 10 14  1  0
 10 11  1  1
 12 11  1  0
 13 12  2  0
 14 15  2  0
 16 12  1  0
 18 17  1  0
 18 20  1  0
 19 18  2  0
 21 20  1  1
 21 23  1  0
 22 14  1  0
 22 21  1  0
 23 24  2  0
 23 25  1  0
M  END
$$$$
