MDN.pdb
     RDKit          3D

 25 24  0  0  1  0  0  0  0  0999 V2000
    5.8494  -10.5468   26.1718 C   0  0  0  0  0  0  0  0  0  0  0  0
    6.8360  -11.9831   25.6392 S   0  0  0  0  0  0  0  0  0  0  0  0
    5.6775  -13.2598   25.0766 C   0  0  0  0  0  0  0  0  0  0  0  0
    6.3804  -14.6199   24.9846 C   0  0  0  0  0  0  0  0  0  0  0  0
    7.7792  -14.4467   24.4611 C   0  0  2  0  0  0  0  0  0  0  0  0
    7.6752  -14.1774   23.0248 N   0  0  0  0  0  0  0  0  0  0  0  0
    8.6396  -15.6079   24.6553 C   0  0  0  0  0  0  0  0  0  0  0  0
    8.5367  -16.3033   25.6944 O   0  0  0  0  0  0  0  0  0  0  0  0
    9.6289  -16.0258   23.7095 N   0  0  0  0  0  0  0  0  0  0  0  0
   10.5523  -17.1039   23.9140 C   0  0  1  0  0  0  0  0  0  0  0  0
   11.4419  -17.3335   22.7022 C   0  0  0  0  0  0  0  0  0  0  0  0
   12.2554  -18.5604   22.8949 C   0  0  0  0  0  0  0  0  0  0  0  0
   11.6840  -19.6818   22.9083 O   0  0  0  0  0  0  0  0  0  0  0  0
   11.3324  -16.9687   25.1588 C   0  0  0  0  0  0  0  0  0  0  0  0
   12.3885  -16.2626   25.1372 O   0  0  0  0  0  0  0  0  0  0  0  0
   13.6213  -18.4462   23.0563 O   0  0  0  0  0  0  0  0  0  0  0  0
    9.9306  -14.5415   28.6020 N   0  0  0  0  0  0  0  0  0  0  0  0
   11.0968  -15.2751   28.3024 C   0  0  0  0  0  0  0  0  0  0  0  0
   12.0841  -14.7099   27.7714 O   0  0  0  0  0  0  0  0  0  0  0  0
   11.1717  -16.7040   28.6103 C   0  0  0  0  0  0  0  0  0  0  0  0
   11.8401  -17.5531   27.5567 C   0  0  2  0  0  0  0  0  0  0  0  0
   10.9637  -17.5866   26.3763 N   0  0  0  0  0  0  0  0  0  0  0  0
   11.9552  -18.9320   28.0675 C   0  0  0  0  0  0  0  0  0  0  0  0
   12.7086  -19.1300   29.0823 O   0  0  0  0  0  0  0  0  0  0  0  0
   11.3377  -20.0485   27.5732 O   0  0  0  0  0  0  0  0  0  0  0  0
  1  2  1  0
  2  3  1  0
  4  3  1  0
  5  4  1  0
  5  7  1  0
  5  6  1  6
  7  9  1  0
  8  7  2  0
  9 10  1  0
 10 14  1  0
 10 11  1  6
 12 11  1  0
 13 12  2  0
 14 15  2  0
 16 12  1  0
 18 17  1  0
 18 20  1  0
 19 18  2  0
 21 20  1  1
 21 23  1  0
 22 14  1  0
 22 21  1  0
 23 24  2  0
 23 25  1  0
M  END
$$$$
