MDN.pdb
     RDKit          3D

 25 24  0  0  1  0  0  0  0  0999 V2000
    8.2333  -12.8986   28.2920 C   0  0  0  0  0  0  0  0  0  0  0  0
    8.3090  -12.7648   26.4765 S   0  0  0  0  0  0  0  0  0  0  0  0
    7.4236  -14.1903   25.7890 C   0  0  0  0  0  0  0  0  0  0  0  0
    7.4236  -14.1342   24.2562 C   0  0  0  0  0  0  0  0  0  0  0  0
    6.7395  -15.3487   23.6926 C   0  0  2  0  0  0  0  0  0  0  0  0
    5.9092  -15.9137   24.7591 N   0  0  0  0  0  0  0  0  0  0  0  0
    7.6509  -16.3825   23.2160 C   0  0  0  0  0  0  0  0  0  0  0  0
    7.7401  -17.4754   23.8255 O   0  0  0  0  0  0  0  0  0  0  0  0
    8.4806  -16.2331   22.0596 N   0  0  0  0  0  0  0  0  0  0  0  0
    9.3663  -17.2407   21.5527 C   0  0  1  0  0  0  0  0  0  0  0  0
    9.6109  -17.0893   20.0593 C   0  0  0  0  0  0  0  0  0  0  0  0
    8.3282  -17.2050   19.3208 C   0  0  0  0  0  0  0  0  0  0  0  0
    7.7770  -16.1637   18.8778 O   0  0  0  0  0  0  0  0  0  0  0  0
   10.6254  -17.3403   22.3149 C   0  0  0  0  0  0  0  0  0  0  0  0
   11.4418  -18.2669   22.0161 O   0  0  0  0  0  0  0  0  0  0  0  0
    7.7660  -18.4518   19.1357 O   0  0  0  0  0  0  0  0  0  0  0  0
   13.8123  -15.4426   21.7063 N   0  0  0  0  0  0  0  0  0  0  0  0
   14.0986  -15.4312   23.0869 C   0  0  0  0  0  0  0  0  0  0  0  0
   15.2874  -15.4558   23.4894 O   0  0  0  0  0  0  0  0  0  0  0  0
   13.0129  -15.3867   24.0674 C   0  0  0  0  0  0  0  0  0  0  0  0
   12.1864  -16.6456   24.1669 C   0  0  2  0  0  0  0  0  0  0  0  0
   10.9697  -16.4555   23.3631 N   0  0  0  0  0  0  0  0  0  0  0  0
   11.7711  -16.8257   25.5708 C   0  0  0  0  0  0  0  0  0  0  0  0
   10.7347  -16.1914   25.9711 O   0  0  0  0  0  0  0  0  0  0  0  0
   12.3766  -17.6083   26.5157 O   0  0  0  0  0  0  0  0  0  0  0  0
  1  2  1  0
  2  3  1  0
  4  3  1  0
  5  4  1  0
  5  7  1  0
  5  6  1  1
  7  9  1  0
  8  7  2  0
  9 10  1  0
 10 14  1  0
 10 11  1  6
 12 11  1  0
 13 12  2  0
 14 15  2  0
 16 12  1  0
 18 17  1  0
 18 20  1  0
 19 18  2  0
 21 20  1  1
 21 23  1  0
 22 14  1  0
 22 21  1  0
 23 24  2  0
 23 25  1  0
M  END
$$$$
