MDN.pdb
     RDKit          3D

 25 24  0  0  1  0  0  0  0  0999 V2000
    7.9934  -11.7851   21.7256 C   0  0  0  0  0  0  0  0  0  0  0  0
    7.7443  -12.8894   20.2979 S   0  0  0  0  0  0  0  0  0  0  0  0
    6.7309  -14.2843   20.8599 C   0  0  0  0  0  0  0  0  0  0  0  0
    7.4253  -15.0234   22.0105 C   0  0  0  0  0  0  0  0  0  0  0  0
    8.2372  -16.1702   21.4755 C   0  0  2  0  0  0  0  0  0  0  0  0
    7.2944  -17.1982   21.0277 N   0  0  0  0  0  0  0  0  0  0  0  0
    9.1468  -16.7653   22.4477 C   0  0  0  0  0  0  0  0  0  0  0  0
    8.6934  -17.3509   23.4603 O   0  0  0  0  0  0  0  0  0  0  0  0
   10.5719  -16.7276   22.3233 N   0  0  0  0  0  0  0  0  0  0  0  0
   11.4933  -17.1066   23.3549 C   0  0  1  0  0  0  0  0  0  0  0  0
   12.9056  -17.2908   22.8217 C   0  0  0  0  0  0  0  0  0  0  0  0
   12.9064  -18.2865   21.7205 C   0  0  0  0  0  0  0  0  0  0  0  0
   12.2802  -19.3683   21.8684 O   0  0  0  0  0  0  0  0  0  0  0  0
   11.4534  -16.2084   24.5244 C   0  0  0  0  0  0  0  0  0  0  0  0
   12.0753  -15.1023   24.4593 O   0  0  0  0  0  0  0  0  0  0  0  0
   13.5945  -18.0059   20.5574 O   0  0  0  0  0  0  0  0  0  0  0  0
   10.0807  -13.8208   28.9675 N   0  0  0  0  0  0  0  0  0  0  0  0
    9.1704  -13.9011   27.8937 C   0  0  0  0  0  0  0  0  0  0  0  0
    8.1592  -13.1579   27.8611 O   0  0  0  0  0  0  0  0  0  0  0  0
    9.3957  -14.8497   26.8021 C   0  0  0  0  0  0  0  0  0  0  0  0
   10.7143  -15.5823   26.8506 C   0  0  2  0  0  0  0  0  0  0  0  0
   10.7572  -16.5170   25.7162 N   0  0  0  0  0  0  0  0  0  0  0  0
   10.7633  -16.3807   28.0899 C   0  0  0  0  0  0  0  0  0  0  0  0
   10.8415  -15.7511   29.2009 O   0  0  0  0  0  0  0  0  0  0  0  0
   10.7341  -17.7447   28.1936 O   0  0  0  0  0  0  0  0  0  0  0  0
  1  2  1  0
  2  3  1  0
  4  3  1  0
  5  4  1  0
  5  7  1  0
  5  6  1  1
  7  9  1  0
  8  7  2  0
  9 10  1  0
 10 14  1  0
 10 11  1  6
 12 11  1  0
 13 12  2  0
 14 15  2  0
 16 12  1  0
 18 17  1  0
 18 20  1  0
 19 18  2  0
 21 20  1  1
 21 23  1  0
 22 14  1  0
 22 21  1  0
 23 24  2  0
 23 25  1  0
M  END
$$$$
