TDW.pdb
     RDKit          3D

 30 31  0  0  1  0  0  0  0  0999 V2000
   27.3364  -23.8623  -19.9434 C   0  0  0  0  0  0  0  0  0  0  0  0
   27.1359  -23.4254  -18.5214 C   0  0  1  0  0  0  0  0  0  0  0  0
   26.7296  -24.4439  -17.6733 O   0  0  0  0  0  0  0  0  0  0  0  0
   28.3204  -22.6427  -17.9898 C   0  0  2  0  0  0  0  0  0  0  0  0
   29.4540  -23.5441  -17.9192 N   0  0  0  0  0  0  0  0  0  0  0  0
   28.0478  -21.9989  -16.6844 C   0  0  0  0  0  0  0  0  0  0  0  0
   28.6078  -22.5377  -15.6696 O   0  0  0  0  0  0  0  0  0  0  0  0
   27.2294  -20.8569  -16.4955 N   0  0  0  0  0  0  0  0  0  0  0  0
   27.1400  -20.2577  -15.2052 C   0  0  1  0  0  0  0  0  0  0  0  0
   26.6919  -18.7925  -15.3028 C   0  0  0  0  0  0  0  0  0  0  0  0
   27.6261  -18.1156  -16.2252 C   0  0  0  0  0  0  0  0  0  0  0  0
   28.8582  -18.2016  -15.9952 O   0  0  0  0  0  0  0  0  0  0  0  0
   26.1969  -20.9411  -14.2914 C   0  0  0  0  0  0  0  0  0  0  0  0
   25.0570  -21.3447  -14.6265 O   0  0  0  0  0  0  0  0  0  0  0  0
   27.2430  -17.3873  -17.3338 O   0  0  0  0  0  0  0  0  0  0  0  0
   26.6125  -21.1546  -12.9425 N   0  0  0  0  0  0  0  0  0  0  0  0
   25.7935  -21.7630  -11.9455 C   0  0  1  0  0  0  0  0  0  0  0  0
   26.5340  -22.1823  -10.7047 C   0  0  0  0  0  0  0  0  0  0  0  0
   26.5221  -21.1213   -9.6665 C   0  0  0  0  0  0  0  0  0  0  0  0
   25.5588  -20.1723   -9.3900 C   0  0  0  0  0  0  0  0  0  0  0  0
   25.9297  -19.3921   -8.3584 N   0  0  0  0  0  0  0  0  0  0  0  0
   27.1548  -19.8066   -7.9230 C   0  0  0  0  0  0  0  0  0  0  0  0
   27.9592  -19.3378   -6.9023 C   0  0  0  0  0  0  0  0  0  0  0  0
   29.1744  -19.9638   -6.6853 C   0  0  0  0  0  0  0  0  0  0  0  0
   29.5566  -21.0328   -7.4833 C   0  0  0  0  0  0  0  0  0  0  0  0
   28.7355  -21.4808   -8.4949 C   0  0  0  0  0  0  0  0  0  0  0  0
   27.5199  -20.8683   -8.7254 C   0  0  0  0  0  0  0  0  0  0  0  0
   24.7094  -20.8255  -11.5760 C   0  0  0  0  0  0  0  0  0  0  0  0
   23.4873  -21.2466  -11.0794 O   0  0  0  0  0  0  0  0  0  0  0  0
   24.8990  -19.5976  -11.7159 O   0  0  0  0  0  0  0  0  0  0  0  0
  2  1  1  6
  2  3  1  0
  4  2  1  0
  4  5  1  1
  6  7  2  0
  6  4  1  0
  8  6  1  0
  9 13  1  0
  9  8  1  0
  9 10  1  6
 11 15  1  0
 11 10  1  0
 12 11  2  0
 13 14  2  0
 16 17  1  0
 16 13  1  0
 17 18  1  1
 19 18  1  0
 20 19  2  0
 21 20  1  0
 22 21  1  0
 22 27  2  0
 23 24  2  0
 23 22  1  0
 24 25  1  0
 25 26  2  0
 27 26  1  0
 27 19  1  0
 28 17  1  0
 28 29  1  0
 30 28  2  0
M  END
$$$$
