TDW.pdb
     RDKit          3D

 30 31  0  0  1  0  0  0  0  0999 V2000
   26.9691  -11.2601  -14.8537 C   0  0  0  0  0  0  0  0  0  0  0  0
   26.8106  -12.3194  -15.9052 C   0  0  1  0  0  0  0  0  0  0  0  0
   27.7026  -13.3731  -15.7794 O   0  0  0  0  0  0  0  0  0  0  0  0
   25.3707  -12.7706  -16.0518 C   0  0  2  0  0  0  0  0  0  0  0  0
   25.3398  -13.8554  -17.0135 N   0  0  0  0  0  0  0  0  0  0  0  0
   24.4572  -11.6699  -16.4351 C   0  0  0  0  0  0  0  0  0  0  0  0
   24.6862  -11.1248  -17.5683 O   0  0  0  0  0  0  0  0  0  0  0  0
   23.3772  -11.1973  -15.6477 N   0  0  0  0  0  0  0  0  0  0  0  0
   22.5851  -10.1086  -16.1161 C   0  0  1  0  0  0  0  0  0  0  0  0
   21.1288  -10.2393  -15.6479 C   0  0  0  0  0  0  0  0  0  0  0  0
   20.6476  -11.5616  -16.0971 C   0  0  0  0  0  0  0  0  0  0  0  0
   20.7452  -11.8491  -17.3162 O   0  0  0  0  0  0  0  0  0  0  0  0
   23.0677   -8.7817  -15.6712 C   0  0  0  0  0  0  0  0  0  0  0  0
   23.3038   -8.4811  -14.4760 O   0  0  0  0  0  0  0  0  0  0  0  0
   20.0924  -12.5165  -15.2688 O   0  0  0  0  0  0  0  0  0  0  0  0
   23.2782   -7.7809  -16.6671 N   0  0  0  0  0  0  0  0  0  0  0  0
   23.7775   -6.4743  -16.3874 C   0  0  1  0  0  0  0  0  0  0  0  0
   24.2907   -5.7345  -17.5929 C   0  0  0  0  0  0  0  0  0  0  0  0
   24.7963   -4.3838  -17.2410 C   0  0  0  0  0  0  0  0  0  0  0  0
   25.3771   -3.9397  -16.0703 C   0  0  0  0  0  0  0  0  0  0  0  0
   25.7038   -2.6372  -16.1556 N   0  0  0  0  0  0  0  0  0  0  0  0
   25.3456   -2.1829  -17.3915 C   0  0  0  0  0  0  0  0  0  0  0  0
   25.4653   -0.9322  -17.9662 C   0  0  0  0  0  0  0  0  0  0  0  0
   25.0057   -0.7588  -19.2602 C   0  0  0  0  0  0  0  0  0  0  0  0
   24.4424   -1.8259  -19.9454 C   0  0  0  0  0  0  0  0  0  0  0  0
   24.3349   -3.0632  -19.3491 C   0  0  0  0  0  0  0  0  0  0  0  0
   24.7881   -3.2542  -18.0592 C   0  0  0  0  0  0  0  0  0  0  0  0
   22.7086   -5.6789  -15.7427 C   0  0  0  0  0  0  0  0  0  0  0  0
   22.9286   -4.8853  -14.6296 O   0  0  0  0  0  0  0  0  0  0  0  0
   21.5535   -5.7208  -16.2194 O   0  0  0  0  0  0  0  0  0  0  0  0
  2  1  1  1
  2  3  1  0
  4  2  1  0
  4  5  1  6
  6  7  2  0
  6  4  1  0
  8  6  1  0
  9 13  1  0
  9  8  1  0
  9 10  1  1
 11 15  1  0
 11 10  1  0
 12 11  2  0
 13 14  2  0
 16 17  1  0
 16 13  1  0
 17 18  1  6
 19 18  1  0
 20 19  2  0
 21 20  1  0
 22 21  1  0
 22 27  2  0
 23 24  2  0
 23 22  1  0
 24 25  1  0
 25 26  2  0
 27 26  1  0
 27 19  1  0
 28 17  1  0
 28 29  1  0
 30 28  2  0
M  END
$$$$
