TDW.pdb
     RDKit          3D

 30 31  0  0  1  0  0  0  0  0999 V2000
   27.5391  -22.8323  -17.1457 C   0  0  0  0  0  0  0  0  0  0  0  0
   26.9971  -22.3518  -15.8311 C   0  0  1  0  0  0  0  0  0  0  0  0
   27.9529  -22.2543  -14.8317 O   0  0  0  0  0  0  0  0  0  0  0  0
   26.1596  -21.0970  -15.9806 C   0  0  2  0  0  0  0  0  0  0  0  0
   26.9865  -20.0815  -16.6031 N   0  0  0  0  0  0  0  0  0  0  0  0
   25.5868  -20.6292  -14.6977 C   0  0  0  0  0  0  0  0  0  0  0  0
   26.0551  -19.5287  -14.2466 O   0  0  0  0  0  0  0  0  0  0  0  0
   24.5819  -21.3050  -13.9607 N   0  0  0  0  0  0  0  0  0  0  0  0
   24.1171  -20.7542  -12.7308 C   0  0  1  0  0  0  0  0  0  0  0  0
   22.6737  -21.1878  -12.4380 C   0  0  0  0  0  0  0  0  0  0  0  0
   22.2283  -20.4324  -11.2495 C   0  0  0  0  0  0  0  0  0  0  0  0
   22.3069  -19.1788  -11.2758 O   0  0  0  0  0  0  0  0  0  0  0  0
   24.9332  -21.1372  -11.5566 C   0  0  0  0  0  0  0  0  0  0  0  0
   25.3561  -22.2986  -11.3398 O   0  0  0  0  0  0  0  0  0  0  0  0
   21.7262  -21.0066  -10.0986 O   0  0  0  0  0  0  0  0  0  0  0  0
   25.2598  -20.1187  -10.6112 N   0  0  0  0  0  0  0  0  0  0  0  0
   26.1215  -20.3199   -9.4924 C   0  0  1  0  0  0  0  0  0  0  0  0
   26.5315  -19.0547   -8.7889 C   0  0  0  0  0  0  0  0  0  0  0  0
   27.7087  -19.2655   -7.9094 C   0  0  0  0  0  0  0  0  0  0  0  0
   29.0514  -19.2897   -8.2281 C   0  0  0  0  0  0  0  0  0  0  0  0
   29.8049  -19.5059   -7.1345 N   0  0  0  0  0  0  0  0  0  0  0  0
   28.9759  -19.6313   -6.0577 C   0  0  0  0  0  0  0  0  0  0  0  0
   29.2529  -19.8602   -4.7237 C   0  0  0  0  0  0  0  0  0  0  0  0
   28.1918  -19.9430   -3.8388 C   0  0  0  0  0  0  0  0  0  0  0  0
   26.8910  -19.7972   -4.2996 C   0  0  0  0  0  0  0  0  0  0  0  0
   26.6422  -19.5696   -5.6354 C   0  0  0  0  0  0  0  0  0  0  0  0
   27.6884  -19.4840   -6.5320 C   0  0  0  0  0  0  0  0  0  0  0  0
   25.4544  -21.2228   -8.5278 C   0  0  0  0  0  0  0  0  0  0  0  0
   25.9992  -22.4313   -8.1276 O   0  0  0  0  0  0  0  0  0  0  0  0
   24.3497  -20.8853   -8.0490 O   0  0  0  0  0  0  0  0  0  0  0  0
  2  1  1  6
  2  3  1  0
  4  2  1  0
  4  5  1  1
  6  7  2  0
  6  4  1  0
  8  6  1  0
  9 13  1  0
  9  8  1  0
  9 10  1  1
 11 15  1  0
 11 10  1  0
 12 11  2  0
 13 14  2  0
 16 17  1  0
 16 13  1  0
 17 18  1  1
 19 18  1  0
 20 19  2  0
 21 20  1  0
 22 21  1  0
 22 27  2  0
 23 24  2  0
 23 22  1  0
 24 25  1  0
 25 26  2  0
 27 26  1  0
 27 19  1  0
 28 17  1  0
 28 29  1  0
 30 28  2  0
M  END
$$$$
