TDW.pdb
     RDKit          3D

 30 31  0  0  1  0  0  0  0  0999 V2000
   29.2623  -18.1797  -17.9370 C   0  0  0  0  0  0  0  0  0  0  0  0
   27.8013  -18.5174  -18.0015 C   0  0  1  0  0  0  0  0  0  0  0  0
   26.9946  -17.4517  -18.3697 O   0  0  0  0  0  0  0  0  0  0  0  0
   27.5382  -19.7724  -18.8101 C   0  0  2  0  0  0  0  0  0  0  0  0
   27.9258  -19.5076  -20.1820 N   0  0  0  0  0  0  0  0  0  0  0  0
   26.1352  -20.2367  -18.7151 C   0  0  0  0  0  0  0  0  0  0  0  0
   25.4325  -20.1074  -19.7748 O   0  0  0  0  0  0  0  0  0  0  0  0
   25.5407  -20.7986  -17.5573 N   0  0  0  0  0  0  0  0  0  0  0  0
   24.1928  -21.2598  -17.6084 C   0  0  1  0  0  0  0  0  0  0  0  0
   24.1223  -22.7185  -18.0822 C   0  0  0  0  0  0  0  0  0  0  0  0
   22.6919  -23.0773  -18.1648 C   0  0  0  0  0  0  0  0  0  0  0  0
   21.8398  -22.2040  -17.8653 O   0  0  0  0  0  0  0  0  0  0  0  0
   23.4860  -21.1895  -16.3097 C   0  0  0  0  0  0  0  0  0  0  0  0
   23.6471  -22.0092  -15.3733 O   0  0  0  0  0  0  0  0  0  0  0  0
   22.2151  -24.3141  -18.5510 O   0  0  0  0  0  0  0  0  0  0  0  0
   22.5622  -20.1195  -16.1108 N   0  0  0  0  0  0  0  0  0  0  0  0
   22.0096  -19.7723  -14.8424 C   0  0  1  0  0  0  0  0  0  0  0  0
   21.9405  -18.2925  -14.5792 C   0  0  0  0  0  0  0  0  0  0  0  0
   21.1233  -17.5857  -15.5973 C   0  0  0  0  0  0  0  0  0  0  0  0
   19.7768  -17.2826  -15.5883 C   0  0  0  0  0  0  0  0  0  0  0  0
   19.4212  -16.6240  -16.7065 N   0  0  0  0  0  0  0  0  0  0  0  0
   20.5292  -16.4734  -17.4889 C   0  0  0  0  0  0  0  0  0  0  0  0
   20.6913  -15.8742  -18.7232 C   0  0  0  0  0  0  0  0  0  0  0  0
   21.9542  -15.8716  -19.2897 C   0  0  0  0  0  0  0  0  0  0  0  0
   23.0167  -16.4608  -18.6192 C   0  0  0  0  0  0  0  0  0  0  0  0
   22.8278  -17.0518  -17.3891 C   0  0  0  0  0  0  0  0  0  0  0  0
   21.5751  -17.0635  -16.8092 C   0  0  0  0  0  0  0  0  0  0  0  0
   20.6526  -20.3533  -14.7338 C   0  0  0  0  0  0  0  0  0  0  0  0
   19.9588  -20.4262  -13.5378 O   0  0  0  0  0  0  0  0  0  0  0  0
   20.1025  -20.7997  -15.7642 O   0  0  0  0  0  0  0  0  0  0  0  0
  2  1  1  6
  2  3  1  0
  4  2  1  0
  4  5  1  6
  6  7  2  0
  6  4  1  0
  8  6  1  0
  9 13  1  0
  9  8  1  0
  9 10  1  1
 11 15  1  0
 11 10  1  0
 12 11  2  0
 13 14  2  0
 16 17  1  0
 16 13  1  0
 17 18  1  6
 19 18  1  0
 20 19  2  0
 21 20  1  0
 22 21  1  0
 22 27  2  0
 23 24  2  0
 23 22  1  0
 24 25  1  0
 25 26  2  0
 27 26  1  0
 27 19  1  0
 28 17  1  0
 28 29  1  0
 30 28  2  0
M  END
$$$$
