TDW.pdb
     RDKit          3D

 30 31  0  0  1  0  0  0  0  0999 V2000
   29.9363  -19.3828  -16.8498 C   0  0  0  0  0  0  0  0  0  0  0  0
   28.7937  -19.4153  -15.8770 C   0  0  1  0  0  0  0  0  0  0  0  0
   28.6145  -18.2294  -15.1817 O   0  0  0  0  0  0  0  0  0  0  0  0
   27.5176  -19.9355  -16.5088 C   0  0  2  0  0  0  0  0  0  0  0  0
   27.2230  -19.1085  -17.6628 N   0  0  0  0  0  0  0  0  0  0  0  0
   26.3811  -19.9811  -15.5606 C   0  0  0  0  0  0  0  0  0  0  0  0
   25.3967  -19.2128  -15.8332 O   0  0  0  0  0  0  0  0  0  0  0  0
   26.3184  -20.7989  -14.4043 N   0  0  0  0  0  0  0  0  0  0  0  0
   25.0634  -21.0277  -13.7682 C   0  0  1  0  0  0  0  0  0  0  0  0
   24.0694  -21.6999  -14.7259 C   0  0  0  0  0  0  0  0  0  0  0  0
   22.7402  -21.6342  -14.0851 C   0  0  0  0  0  0  0  0  0  0  0  0
   22.1179  -20.5432  -14.1132 O   0  0  0  0  0  0  0  0  0  0  0  0
   25.1501  -21.8810  -12.5617 C   0  0  0  0  0  0  0  0  0  0  0  0
   25.7630  -22.9749  -12.5137 O   0  0  0  0  0  0  0  0  0  0  0  0
   22.1229  -22.6936  -13.4503 O   0  0  0  0  0  0  0  0  0  0  0  0
   24.4941  -21.4289  -11.3771 N   0  0  0  0  0  0  0  0  0  0  0  0
   25.1793  -21.0503  -10.1846 C   0  0  1  0  0  0  0  0  0  0  0  0
   26.2980  -20.0668  -10.3969 C   0  0  0  0  0  0  0  0  0  0  0  0
   27.5457  -20.4898   -9.7126 C   0  0  0  0  0  0  0  0  0  0  0  0
   28.6172  -21.2086  -10.2029 C   0  0  0  0  0  0  0  0  0  0  0  0
   29.5588  -21.3798   -9.2571 N   0  0  0  0  0  0  0  0  0  0  0  0
   29.1325  -20.7758   -8.1099 C   0  0  0  0  0  0  0  0  0  0  0  0
   29.7275  -20.6696   -6.8676 C   0  0  0  0  0  0  0  0  0  0  0  0
   29.0497  -19.9872   -5.8724 C   0  0  0  0  0  0  0  0  0  0  0  0
   27.8058  -19.4314   -6.1357 C   0  0  0  0  0  0  0  0  0  0  0  0
   27.2345  -19.5518   -7.3836 C   0  0  0  0  0  0  0  0  0  0  0  0
   27.8965  -20.2289   -8.3881 C   0  0  0  0  0  0  0  0  0  0  0  0
   24.2025  -20.4826   -9.2284 C   0  0  0  0  0  0  0  0  0  0  0  0
   22.9959  -19.9305   -9.6242 O   0  0  0  0  0  0  0  0  0  0  0  0
   24.4725  -20.4993   -8.0077 O   0  0  0  0  0  0  0  0  0  0  0  0
  2  1  1  6
  2  3  1  0
  4  2  1  0
  4  5  1  6
  6  7  2  0
  6  4  1  0
  8  6  1  0
  9 13  1  0
  9  8  1  0
  9 10  1  6
 11 15  1  0
 11 10  1  0
 12 11  2  0
 13 14  2  0
 16 17  1  0
 16 13  1  0
 17 18  1  6
 19 18  1  0
 20 19  2  0
 21 20  1  0
 22 21  1  0
 22 27  2  0
 23 24  2  0
 23 22  1  0
 24 25  1  0
 25 26  2  0
 27 26  1  0
 27 19  1  0
 28 17  1  0
 28 29  1  0
 30 28  2  0
M  END
$$$$
