TDW.pdb
     RDKit          3D

 30 31  0  0  1  0  0  0  0  0999 V2000
   13.1402  -15.7255  -15.5535 C   0  0  0  0  0  0  0  0  0  0  0  0
   13.9978  -14.5308  -15.8537 C   0  0  1  0  0  0  0  0  0  0  0  0
   14.7029  -14.0565  -14.7584 O   0  0  0  0  0  0  0  0  0  0  0  0
   14.8673  -14.7423  -17.0774 C   0  0  2  0  0  0  0  0  0  0  0  0
   15.7606  -15.8509  -16.8025 N   0  0  0  0  0  0  0  0  0  0  0  0
   15.6092  -13.5242  -17.4757 C   0  0  0  0  0  0  0  0  0  0  0  0
   16.4191  -13.6603  -18.4552 O   0  0  0  0  0  0  0  0  0  0  0  0
   15.4814  -12.2549  -16.8575 N   0  0  0  0  0  0  0  0  0  0  0  0
   16.2062  -11.1415  -17.3741 C   0  0  1  0  0  0  0  0  0  0  0  0
   15.3292  -10.2902  -18.3032 C   0  0  0  0  0  0  0  0  0  0  0  0
   16.2068   -9.2682  -18.9091 C   0  0  0  0  0  0  0  0  0  0  0  0
   17.2903   -9.6418  -19.4236 O   0  0  0  0  0  0  0  0  0  0  0  0
   16.7395  -10.2375  -16.3301 C   0  0  0  0  0  0  0  0  0  0  0  0
   16.0360   -9.6789  -15.4539 O   0  0  0  0  0  0  0  0  0  0  0  0
   15.9228   -7.9178  -18.9533 O   0  0  0  0  0  0  0  0  0  0  0  0
   18.1447   -9.9862  -16.3205 N   0  0  0  0  0  0  0  0  0  0  0  0
   18.7869   -9.0985  -15.4070 C   0  0  1  0  0  0  0  0  0  0  0  0
   20.2880   -9.0830  -15.5078 C   0  0  0  0  0  0  0  0  0  0  0  0
   20.9001   -8.1513  -14.5274 C   0  0  0  0  0  0  0  0  0  0  0  0
   21.1265   -8.3204  -13.1764 C   0  0  0  0  0  0  0  0  0  0  0  0
   21.7122   -7.2325  -12.6437 N   0  0  0  0  0  0  0  0  0  0  0  0
   21.8895   -6.3100  -13.6336 C   0  0  0  0  0  0  0  0  0  0  0  0
   22.4400   -5.0432  -13.6026 C   0  0  0  0  0  0  0  0  0  0  0  0
   22.4883   -4.3206  -14.7821 C   0  0  0  0  0  0  0  0  0  0  0  0
   21.9915   -4.8719  -15.9546 C   0  0  0  0  0  0  0  0  0  0  0  0
   21.4476   -6.1377  -15.9581 C   0  0  0  0  0  0  0  0  0  0  0  0
   21.3913   -6.8728  -14.7909 C   0  0  0  0  0  0  0  0  0  0  0  0
   18.2671   -7.7293  -15.6213 C   0  0  0  0  0  0  0  0  0  0  0  0
   18.0999   -7.1763  -16.8796 O   0  0  0  0  0  0  0  0  0  0  0  0
   17.9635   -7.0359  -14.6261 O   0  0  0  0  0  0  0  0  0  0  0  0
  2  1  1  1
  2  3  1  0
  4  2  1  0
  4  5  1  1
  6  7  2  0
  6  4  1  0
  8  6  1  0
  9 13  1  0
  9  8  1  0
  9 10  1  6
 11 15  1  0
 11 10  1  0
 12 11  2  0
 13 14  2  0
 16 17  1  0
 16 13  1  0
 17 18  1  6
 19 18  1  0
 20 19  2  0
 21 20  1  0
 22 21  1  0
 22 27  2  0
 23 24  2  0
 23 22  1  0
 24 25  1  0
 25 26  2  0
 27 26  1  0
 27 19  1  0
 28 17  1  0
 28 29  1  0
 30 28  2  0
M  END
$$$$
