TDW.pdb
     RDKit          3D

 30 31  0  0  1  0  0  0  0  0999 V2000
   45.4783  -12.4327   -8.0354 C   0  0  0  0  0  0  0  0  0  0  0  0
   44.3223  -11.4782   -8.1115 C   0  0  1  0  0  0  0  0  0  0  0  0
   43.0860  -12.0996   -8.1971 O   0  0  0  0  0  0  0  0  0  0  0  0
   44.3833  -10.4167   -7.0310 C   0  0  2  0  0  0  0  0  0  0  0  0
   44.2994  -11.0838   -5.7463 N   0  0  0  0  0  0  0  0  0  0  0  0
   43.3370   -9.3795   -7.1812 C   0  0  0  0  0  0  0  0  0  0  0  0
   42.2715   -9.5600   -6.4988 O   0  0  0  0  0  0  0  0  0  0  0  0
   43.4402   -8.2336   -8.0094 N   0  0  0  0  0  0  0  0  0  0  0  0
   42.3378   -7.3359   -8.1135 C   0  0  1  0  0  0  0  0  0  0  0  0
   42.7938   -5.9486   -8.5877 C   0  0  0  0  0  0  0  0  0  0  0  0
   43.6024   -5.3640   -7.4986 C   0  0  0  0  0  0  0  0  0  0  0  0
   44.8008   -5.0718   -7.7365 O   0  0  0  0  0  0  0  0  0  0  0  0
   41.2820   -7.7894   -9.0468 C   0  0  0  0  0  0  0  0  0  0  0  0
   41.4875   -8.5307  -10.0382 O   0  0  0  0  0  0  0  0  0  0  0  0
   43.1349   -5.1114   -6.2242 O   0  0  0  0  0  0  0  0  0  0  0  0
   39.9444   -7.3552   -8.8017 N   0  0  0  0  0  0  0  0  0  0  0  0
   38.8269   -7.7329   -9.6038 C   0  0  1  0  0  0  0  0  0  0  0  0
   37.5747   -8.0290   -8.8239 C   0  0  0  0  0  0  0  0  0  0  0  0
   37.6976   -9.2778   -8.0307 C   0  0  0  0  0  0  0  0  0  0  0  0
   37.9380   -9.4425   -6.6816 C   0  0  0  0  0  0  0  0  0  0  0  0
   37.9711  -10.7465   -6.3513 N   0  0  0  0  0  0  0  0  0  0  0  0
   37.7526  -11.4827   -7.4794 C   0  0  0  0  0  0  0  0  0  0  0  0
   37.6912  -12.8496   -7.6708 C   0  0  0  0  0  0  0  0  0  0  0  0
   37.4517  -13.3222   -8.9495 C   0  0  0  0  0  0  0  0  0  0  0  0
   37.2806  -12.4300   -9.9984 C   0  0  0  0  0  0  0  0  0  0  0  0
   37.3466  -11.0713   -9.7804 C   0  0  0  0  0  0  0  0  0  0  0  0
   37.5845  -10.5822   -8.5115 C   0  0  0  0  0  0  0  0  0  0  0  0
   38.5518   -6.6569  -10.5823 C   0  0  0  0  0  0  0  0  0  0  0  0
   37.7121   -6.8260  -11.6702 O   0  0  0  0  0  0  0  0  0  0  0  0
   39.0987   -5.5435  -10.4254 O   0  0  0  0  0  0  0  0  0  0  0  0
  2  1  1  1
  2  3  1  0
  4  2  1  0
  4  5  1  1
  6  7  2  0
  6  4  1  0
  8  6  1  0
  9 13  1  0
  9  8  1  0
  9 10  1  6
 11 15  1  0
 11 10  1  0
 12 11  2  0
 13 14  2  0
 16 17  1  0
 16 13  1  0
 17 18  1  1
 19 18  1  0
 20 19  2  0
 21 20  1  0
 22 21  1  0
 22 27  2  0
 23 24  2  0
 23 22  1  0
 24 25  1  0
 25 26  2  0
 27 26  1  0
 27 19  1  0
 28 17  1  0
 28 29  1  0
 30 28  2  0
M  END
$$$$
