TDW.pdb
     RDKit          3D

 30 31  0  0  1  0  0  0  0  0999 V2000
   18.9449   -7.3636  -21.1379 C   0  0  0  0  0  0  0  0  0  0  0  0
   18.2763   -6.1807  -20.5000 C   0  0  1  0  0  0  0  0  0  0  0  0
   17.7188   -5.2939  -21.4080 O   0  0  0  0  0  0  0  0  0  0  0  0
   17.3177   -6.5890  -19.3989 C   0  0  2  0  0  0  0  0  0  0  0  0
   16.7171   -5.3835  -18.8618 N   0  0  0  0  0  0  0  0  0  0  0  0
   17.9647   -7.3990  -18.3414 C   0  0  0  0  0  0  0  0  0  0  0  0
   19.1953   -7.1389  -18.1147 O   0  0  0  0  0  0  0  0  0  0  0  0
   17.3238   -8.4142  -17.5875 N   0  0  0  0  0  0  0  0  0  0  0  0
   18.0618   -9.1364  -16.6047 C   0  0  1  0  0  0  0  0  0  0  0  0
   17.2357   -9.3377  -15.3263 C   0  0  0  0  0  0  0  0  0  0  0  0
   17.1660   -8.0283  -14.6464 C   0  0  0  0  0  0  0  0  0  0  0  0
   18.1628   -7.2667  -14.7156 O   0  0  0  0  0  0  0  0  0  0  0  0
   18.5039  -10.4764  -17.0525 C   0  0  0  0  0  0  0  0  0  0  0  0
   17.8377  -11.2224  -17.8104 O   0  0  0  0  0  0  0  0  0  0  0  0
   16.0756   -7.5730  -13.9323 O   0  0  0  0  0  0  0  0  0  0  0  0
   19.7699  -10.9487  -16.5924 N   0  0  0  0  0  0  0  0  0  0  0  0
   20.3505  -12.1875  -16.9964 C   0  0  1  0  0  0  0  0  0  0  0  0
   21.7784  -12.3753  -16.5609 C   0  0  0  0  0  0  0  0  0  0  0  0
   22.3437  -13.6575  -17.0511 C   0  0  0  0  0  0  0  0  0  0  0  0
   22.3630  -14.1785  -18.3290 C   0  0  0  0  0  0  0  0  0  0  0  0
   22.9802  -15.3739  -18.3553 N   0  0  0  0  0  0  0  0  0  0  0  0
   23.3874  -15.6768  -17.0885 C   0  0  0  0  0  0  0  0  0  0  0  0
   24.0576  -16.7782  -16.5919 C   0  0  0  0  0  0  0  0  0  0  0  0
   24.3430  -16.8163  -15.2381 C   0  0  0  0  0  0  0  0  0  0  0  0
   23.9574  -15.7656  -14.4178 C   0  0  0  0  0  0  0  0  0  0  0  0
   23.2900  -14.6786  -14.9385 C   0  0  0  0  0  0  0  0  0  0  0  0
   22.9971  -14.6238  -16.2865 C   0  0  0  0  0  0  0  0  0  0  0  0
   19.5272  -13.2989  -16.4694 C   0  0  0  0  0  0  0  0  0  0  0  0
   19.0754  -14.3415  -17.2608 O   0  0  0  0  0  0  0  0  0  0  0  0
   19.2228  -13.3028  -15.2567 O   0  0  0  0  0  0  0  0  0  0  0  0
  2  1  1  6
  2  3  1  0
  4  2  1  0
  4  5  1  1
  6  7  2  0
  6  4  1  0
  8  6  1  0
  9 13  1  0
  9  8  1  0
  9 10  1  1
 11 15  1  0
 11 10  1  0
 12 11  2  0
 13 14  2  0
 16 17  1  0
 16 13  1  0
 17 18  1  1
 19 18  1  0
 20 19  2  0
 21 20  1  0
 22 21  1  0
 22 27  2  0
 23 24  2  0
 23 22  1  0
 24 25  1  0
 25 26  2  0
 27 26  1  0
 27 19  1  0
 28 17  1  0
 28 29  1  0
 30 28  2  0
M  END
$$$$
