TDW.pdb
     RDKit          3D

 30 31  0  0  1  0  0  0  0  0999 V2000
   36.6391  -21.7587   12.8537 C   0  0  0  0  0  0  0  0  0  0  0  0
   37.0205  -20.4344   12.2589 C   0  0  1  0  0  0  0  0  0  0  0  0
   37.7866  -19.6414   13.0991 O   0  0  0  0  0  0  0  0  0  0  0  0
   37.6124  -20.5788   10.8707 C   0  0  2  0  0  0  0  0  0  0  0  0
   37.8784  -19.2482   10.3596 N   0  0  0  0  0  0  0  0  0  0  0  0
   36.7493  -21.3576    9.9534 C   0  0  0  0  0  0  0  0  0  0  0  0
   35.6398  -20.8100    9.6327 O   0  0  0  0  0  0  0  0  0  0  0  0
   37.0669  -22.6340    9.4247 N   0  0  0  0  0  0  0  0  0  0  0  0
   36.1080  -23.3281    8.6306 C   0  0  1  0  0  0  0  0  0  0  0  0
   36.7111  -24.5992    8.0158 C   0  0  0  0  0  0  0  0  0  0  0  0
   35.6393  -25.2533    7.2379 C   0  0  0  0  0  0  0  0  0  0  0  0
   34.4964  -24.7318    7.2417 O   0  0  0  0  0  0  0  0  0  0  0  0
   34.8967  -23.7380    9.3764 C   0  0  0  0  0  0  0  0  0  0  0  0
   34.9157  -24.3213   10.4873 O   0  0  0  0  0  0  0  0  0  0  0  0
   35.8008  -26.4079    6.4982 O   0  0  0  0  0  0  0  0  0  0  0  0
   33.6258  -23.4501    8.7935 N   0  0  0  0  0  0  0  0  0  0  0  0
   32.3884  -23.5496    9.4961 C   0  0  1  0  0  0  0  0  0  0  0  0
   31.5046  -22.3383    9.3718 C   0  0  0  0  0  0  0  0  0  0  0  0
   30.2496  -22.4851   10.1510 C   0  0  0  0  0  0  0  0  0  0  0  0
   29.9204  -23.4091   11.1221 C   0  0  0  0  0  0  0  0  0  0  0  0
   28.6775  -23.1963   11.5915 N   0  0  0  0  0  0  0  0  0  0  0  0
   28.1488  -22.1202   10.9396 C   0  0  0  0  0  0  0  0  0  0  0  0
   26.9164  -21.5069   11.0562 C   0  0  0  0  0  0  0  0  0  0  0  0
   26.6495  -20.4135   10.2506 C   0  0  0  0  0  0  0  0  0  0  0  0
   27.6083  -19.9608    9.3554 C   0  0  0  0  0  0  0  0  0  0  0  0
   28.8298  -20.5906    9.2589 C   0  0  0  0  0  0  0  0  0  0  0  0
   29.1130  -21.6825   10.0548 C   0  0  0  0  0  0  0  0  0  0  0  0
   31.6562  -24.7421    9.0139 C   0  0  0  0  0  0  0  0  0  0  0  0
   30.7674  -25.4502    9.8051 O   0  0  0  0  0  0  0  0  0  0  0  0
   31.8437  -25.1326    7.8409 O   0  0  0  0  0  0  0  0  0  0  0  0
  2  1  1  1
  2  3  1  0
  4  2  1  0
  4  5  1  6
  6  7  2  0
  6  4  1  0
  8  6  1  0
  9 13  1  0
  9  8  1  0
  9 10  1  1
 11 15  1  0
 11 10  1  0
 12 11  2  0
 13 14  2  0
 16 17  1  0
 16 13  1  0
 17 18  1  6
 19 18  1  0
 20 19  2  0
 21 20  1  0
 22 21  1  0
 22 27  2  0
 23 24  2  0
 23 22  1  0
 24 25  1  0
 25 26  2  0
 27 26  1  0
 27 19  1  0
 28 17  1  0
 28 29  1  0
 30 28  2  0
M  END
$$$$
