TDW.pdb
     RDKit          3D

 30 31  0  0  1  0  0  0  0  0999 V2000
   26.0036  -24.5668  -19.6528 C   0  0  0  0  0  0  0  0  0  0  0  0
   25.9875  -23.9343  -18.2916 C   0  0  1  0  0  0  0  0  0  0  0  0
   25.1649  -24.5807  -17.3820 O   0  0  0  0  0  0  0  0  0  0  0  0
   27.3847  -23.6836  -17.7595 C   0  0  2  0  0  0  0  0  0  0  0  0
   28.0207  -24.9705  -17.5548 N   0  0  0  0  0  0  0  0  0  0  0  0
   27.3942  -22.8634  -16.5266 C   0  0  0  0  0  0  0  0  0  0  0  0
   27.7416  -23.4698  -15.4565 O   0  0  0  0  0  0  0  0  0  0  0  0
   27.0525  -21.4891  -16.4610 N   0  0  0  0  0  0  0  0  0  0  0  0
   27.0820  -20.8131  -15.2063 C   0  0  1  0  0  0  0  0  0  0  0  0
   27.0483  -19.2898  -15.3948 C   0  0  0  0  0  0  0  0  0  0  0  0
   28.1820  -18.9382  -16.2740 C   0  0  0  0  0  0  0  0  0  0  0  0
   29.3485  -19.1182  -15.8437 O   0  0  0  0  0  0  0  0  0  0  0  0
   25.9581  -21.1655  -14.3095 C   0  0  0  0  0  0  0  0  0  0  0  0
   24.7675  -21.2898  -14.6857 O   0  0  0  0  0  0  0  0  0  0  0  0
   28.0548  -18.4208  -17.5477 O   0  0  0  0  0  0  0  0  0  0  0  0
   26.2491  -21.3778  -12.9282 N   0  0  0  0  0  0  0  0  0  0  0  0
   25.2870  -21.8202  -11.9724 C   0  0  1  0  0  0  0  0  0  0  0  0
   25.8759  -22.2871  -10.6690 C   0  0  0  0  0  0  0  0  0  0  0  0
   26.1714  -21.1541   -9.7564 C   0  0  0  0  0  0  0  0  0  0  0  0
   25.3347  -20.1618   -9.2869 C   0  0  0  0  0  0  0  0  0  0  0  0
   25.9931  -19.3197   -8.4697 N   0  0  0  0  0  0  0  0  0  0  0  0
   27.2898  -19.7349   -8.3767 C   0  0  0  0  0  0  0  0  0  0  0  0
   28.3583  -19.2158   -7.6713 C   0  0  0  0  0  0  0  0  0  0  0  0
   29.5810  -19.8573   -7.7676 C   0  0  0  0  0  0  0  0  0  0  0  0
   29.7095  -20.9909   -8.5575 C   0  0  0  0  0  0  0  0  0  0  0  0
   28.6278  -21.4882   -9.2508 C   0  0  0  0  0  0  0  0  0  0  0  0
   27.4008  -20.8611   -9.1663 C   0  0  0  0  0  0  0  0  0  0  0  0
   24.3283  -20.7229  -11.7119 C   0  0  0  0  0  0  0  0  0  0  0  0
   23.0266  -20.9443  -11.2950 O   0  0  0  0  0  0  0  0  0  0  0  0
   24.7042  -19.5414  -11.8733 O   0  0  0  0  0  0  0  0  0  0  0  0
  2  1  1  6
  2  3  1  0
  4  2  1  0
  4  5  1  1
  6  7  2  0
  6  4  1  0
  8  6  1  0
  9 13  1  0
  9  8  1  0
  9 10  1  6
 11 15  1  0
 11 10  1  0
 12 11  2  0
 13 14  2  0
 16 17  1  0
 16 13  1  0
 17 18  1  1
 19 18  1  0
 20 19  2  0
 21 20  1  0
 22 21  1  0
 22 27  2  0
 23 24  2  0
 23 22  1  0
 24 25  1  0
 25 26  2  0
 27 26  1  0
 27 19  1  0
 28 17  1  0
 28 29  1  0
 30 28  2  0
M  END
$$$$
