TDW.pdb
     RDKit          3D

 30 31  0  0  1  0  0  0  0  0999 V2000
   21.4633  -15.6474  -14.7032 C   0  0  0  0  0  0  0  0  0  0  0  0
   22.4583  -16.2389  -15.6588 C   0  0  1  0  0  0  0  0  0  0  0  0
   22.5929  -17.6143  -15.5490 O   0  0  0  0  0  0  0  0  0  0  0  0
   22.2315  -15.7733  -17.0835 C   0  0  2  0  0  0  0  0  0  0  0  0
   23.2325  -16.4031  -17.9224 N   0  0  0  0  0  0  0  0  0  0  0  0
   22.2498  -14.2987  -17.2186 C   0  0  0  0  0  0  0  0  0  0  0  0
   23.3947  -13.7426  -17.1019 O   0  0  0  0  0  0  0  0  0  0  0  0
   21.1115  -13.4896  -17.4619 N   0  0  0  0  0  0  0  0  0  0  0  0
   21.2486  -12.0713  -17.5027 C   0  0  1  0  0  0  0  0  0  0  0  0
   20.1440  -11.4306  -18.3551 C   0  0  0  0  0  0  0  0  0  0  0  0
   20.2337  -12.0316  -19.7013 C   0  0  0  0  0  0  0  0  0  0  0  0
   19.3206  -12.8129  -20.0676 O   0  0  0  0  0  0  0  0  0  0  0  0
   21.2001  -11.4263  -16.1711 C   0  0  0  0  0  0  0  0  0  0  0  0
   20.3607  -11.7067  -15.2814 O   0  0  0  0  0  0  0  0  0  0  0  0
   21.2571  -11.7968  -20.5978 O   0  0  0  0  0  0  0  0  0  0  0  0
   22.1715  -10.4212  -15.8817 N   0  0  0  0  0  0  0  0  0  0  0  0
   22.3203   -9.8044  -14.6041 C   0  0  1  0  0  0  0  0  0  0  0  0
   23.5633  -10.2102  -13.8598 C   0  0  0  0  0  0  0  0  0  0  0  0
   24.7552  -10.2383  -14.7443 C   0  0  0  0  0  0  0  0  0  0  0  0
   25.2737   -9.2472  -15.5530 C   0  0  0  0  0  0  0  0  0  0  0  0
   26.3766   -9.6737  -16.1950 N   0  0  0  0  0  0  0  0  0  0  0  0
   26.6179  -10.9652  -15.8261 C   0  0  0  0  0  0  0  0  0  0  0  0
   27.6176  -11.8421  -16.2008 C   0  0  0  0  0  0  0  0  0  0  0  0
   27.6113  -13.1146  -15.6563 C   0  0  0  0  0  0  0  0  0  0  0  0
   26.6179  -13.4806  -14.7592 C   0  0  0  0  0  0  0  0  0  0  0  0
   25.6323  -12.5866  -14.4021 C   0  0  0  0  0  0  0  0  0  0  0  0
   25.6231  -11.3133  -14.9354 C   0  0  0  0  0  0  0  0  0  0  0  0
   22.3098   -8.3343  -14.7757 C   0  0  0  0  0  0  0  0  0  0  0  0
   22.3110   -7.7217  -16.0175 O   0  0  0  0  0  0  0  0  0  0  0  0
   22.2992   -7.6075  -13.7584 O   0  0  0  0  0  0  0  0  0  0  0  0
  2  1  1  1
  2  3  1  0
  4  2  1  0
  4  5  1  6
  6  7  2  0
  6  4  1  0
  8  6  1  0
  9 13  1  0
  9  8  1  0
  9 10  1  6
 11 15  1  0
 11 10  1  0
 12 11  2  0
 13 14  2  0
 16 17  1  0
 16 13  1  0
 17 18  1  6
 19 18  1  0
 20 19  2  0
 21 20  1  0
 22 21  1  0
 22 27  2  0
 23 24  2  0
 23 22  1  0
 24 25  1  0
 25 26  2  0
 27 26  1  0
 27 19  1  0
 28 17  1  0
 28 29  1  0
 30 28  2  0
M  END
$$$$
