TDW.pdb
     RDKit          3D

 30 31  0  0  1  0  0  0  0  0999 V2000
   19.5825  -14.1143  -15.7902 C   0  0  0  0  0  0  0  0  0  0  0  0
   19.7797  -14.2461  -17.2723 C   0  0  1  0  0  0  0  0  0  0  0  0
   20.2314  -15.4951  -17.6696 O   0  0  0  0  0  0  0  0  0  0  0  0
   18.5720  -13.7711  -18.0557 C   0  0  2  0  0  0  0  0  0  0  0  0
   18.8633  -13.9363  -19.4665 N   0  0  0  0  0  0  0  0  0  0  0  0
   18.1864  -12.3781  -17.7335 C   0  0  0  0  0  0  0  0  0  0  0  0
   19.0024  -11.4715  -18.1154 O   0  0  0  0  0  0  0  0  0  0  0  0
   17.0046  -11.9986  -17.0486 N   0  0  0  0  0  0  0  0  0  0  0  0
   16.7379  -10.6185  -16.8114 C   0  0  1  0  0  0  0  0  0  0  0  0
   15.3044  -10.4089  -16.3033 C   0  0  0  0  0  0  0  0  0  0  0  0
   15.1490  -11.2412  -15.0930 C   0  0  0  0  0  0  0  0  0  0  0  0
   14.8502  -12.4529  -15.2369 O   0  0  0  0  0  0  0  0  0  0  0  0
   17.6457   -9.9944  -15.8226 C   0  0  0  0  0  0  0  0  0  0  0  0
   18.4786  -10.6285  -15.1306 O   0  0  0  0  0  0  0  0  0  0  0  0
   15.3094  -10.7826  -13.8006 O   0  0  0  0  0  0  0  0  0  0  0  0
   17.5680   -8.5800  -15.6463 N   0  0  0  0  0  0  0  0  0  0  0  0
   18.5918   -7.7981  -15.0338 C   0  0  1  0  0  0  0  0  0  0  0  0
   19.9725   -8.0474  -15.5772 C   0  0  0  0  0  0  0  0  0  0  0  0
   20.9668   -7.0937  -15.0244 C   0  0  0  0  0  0  0  0  0  0  0  0
   21.0629   -6.5611  -13.7547 C   0  0  0  0  0  0  0  0  0  0  0  0
   22.1184   -5.7325  -13.6558 N   0  0  0  0  0  0  0  0  0  0  0  0
   22.7516   -5.6947  -14.8641 C   0  0  0  0  0  0  0  0  0  0  0  0
   23.8727   -5.0013  -15.2775 C   0  0  0  0  0  0  0  0  0  0  0  0
   24.2945   -5.1577  -16.5864 C   0  0  0  0  0  0  0  0  0  0  0  0
   23.5956   -5.9939  -17.4455 C   0  0  0  0  0  0  0  0  0  0  0  0
   22.4804   -6.6741  -17.0078 C   0  0  0  0  0  0  0  0  0  0  0  0
   22.0456   -6.5301  -15.7055 C   0  0  0  0  0  0  0  0  0  0  0  0
   18.2572   -6.3642  -15.1850 C   0  0  0  0  0  0  0  0  0  0  0  0
   18.3241   -5.4614  -14.1373 O   0  0  0  0  0  0  0  0  0  0  0  0
   17.8977   -5.9428  -16.3060 O   0  0  0  0  0  0  0  0  0  0  0  0
  2  1  1  1
  2  3  1  0
  4  2  1  0
  4  5  1  6
  6  7  2  0
  6  4  1  0
  8  6  1  0
  9 13  1  0
  9  8  1  0
  9 10  1  1
 11 15  1  0
 11 10  1  0
 12 11  2  0
 13 14  2  0
 16 17  1  0
 16 13  1  0
 17 18  1  6
 19 18  1  0
 20 19  2  0
 21 20  1  0
 22 21  1  0
 22 27  2  0
 23 24  2  0
 23 22  1  0
 24 25  1  0
 25 26  2  0
 27 26  1  0
 27 19  1  0
 28 17  1  0
 28 29  1  0
 30 28  2  0
M  END
$$$$
