TDW.pdb
     RDKit          3D

 30 31  0  0  1  0  0  0  0  0999 V2000
   26.6158  -15.5667  -13.3331 C   0  0  0  0  0  0  0  0  0  0  0  0
   25.8541  -15.5111  -14.6253 C   0  0  1  0  0  0  0  0  0  0  0  0
   25.7134  -14.2313  -15.1394 O   0  0  0  0  0  0  0  0  0  0  0  0
   26.3751  -16.5085  -15.6411 C   0  0  2  0  0  0  0  0  0  0  0  0
   25.6179  -16.3338  -16.8653 N   0  0  0  0  0  0  0  0  0  0  0  0
   26.3219  -17.9068  -15.1567 C   0  0  0  0  0  0  0  0  0  0  0  0
   25.3604  -18.6171  -15.6090 O   0  0  0  0  0  0  0  0  0  0  0  0
   27.2429  -18.4894  -14.2500 N   0  0  0  0  0  0  0  0  0  0  0  0
   27.1826  -19.8884  -13.9834 C   0  0  1  0  0  0  0  0  0  0  0  0
   28.2778  -20.6473  -14.7462 C   0  0  0  0  0  0  0  0  0  0  0  0
   28.0188  -22.0886  -14.5537 C   0  0  0  0  0  0  0  0  0  0  0  0
   28.9971  -22.8768  -14.5635 O   0  0  0  0  0  0  0  0  0  0  0  0
   27.3319  -20.2323  -12.5512 C   0  0  0  0  0  0  0  0  0  0  0  0
   28.4235  -20.2189  -11.9325 O   0  0  0  0  0  0  0  0  0  0  0  0
   26.7683  -22.6414  -14.3615 O   0  0  0  0  0  0  0  0  0  0  0  0
   26.1576  -20.6021  -11.8287 N   0  0  0  0  0  0  0  0  0  0  0  0
   26.1444  -20.9038  -10.4346 C   0  0  1  0  0  0  0  0  0  0  0  0
   26.6454  -19.7916   -9.5538 C   0  0  0  0  0  0  0  0  0  0  0  0
   26.5110  -20.1219   -8.1128 C   0  0  0  0  0  0  0  0  0  0  0  0
   25.4873  -20.7692   -7.4507 C   0  0  0  0  0  0  0  0  0  0  0  0
   25.7528  -20.8768   -6.1360 N   0  0  0  0  0  0  0  0  0  0  0  0
   26.9655  -20.3003   -5.8924 C   0  0  0  0  0  0  0  0  0  0  0  0
   27.6778  -20.1517   -4.7180 C   0  0  0  0  0  0  0  0  0  0  0  0
   28.9041  -19.5121   -4.7716 C   0  0  0  0  0  0  0  0  0  0  0  0
   29.3878  -19.0394   -5.9833 C   0  0  0  0  0  0  0  0  0  0  0  0
   28.6572  -19.2006   -7.1402 C   0  0  0  0  0  0  0  0  0  0  0  0
   27.4322  -19.8362   -7.1053 C   0  0  0  0  0  0  0  0  0  0  0  0
   24.7658  -21.2636  -10.0335 C   0  0  0  0  0  0  0  0  0  0  0  0
   23.6618  -20.4953  -10.3624 O   0  0  0  0  0  0  0  0  0  0  0  0
   24.5831  -22.3063   -9.3681 O   0  0  0  0  0  0  0  0  0  0  0  0
  2  1  1  1
  2  3  1  0
  4  2  1  0
  4  5  1  6
  6  7  2  0
  6  4  1  0
  8  6  1  0
  9 13  1  0
  9  8  1  0
  9 10  1  6
 11 15  1  0
 11 10  1  0
 12 11  2  0
 13 14  2  0
 16 17  1  0
 16 13  1  0
 17 18  1  1
 19 18  1  0
 20 19  2  0
 21 20  1  0
 22 21  1  0
 22 27  2  0
 23 24  2  0
 23 22  1  0
 24 25  1  0
 25 26  2  0
 27 26  1  0
 27 19  1  0
 28 17  1  0
 28 29  1  0
 30 28  2  0
M  END
$$$$
