TDW.pdb
     RDKit          3D

 30 31  0  0  1  0  0  0  0  0999 V2000
   13.2296  -11.2538  -13.3857 C   0  0  0  0  0  0  0  0  0  0  0  0
   14.1691  -12.4235  -13.4315 C   0  0  1  0  0  0  0  0  0  0  0  0
   13.5819  -13.5980  -13.8759 O   0  0  0  0  0  0  0  0  0  0  0  0
   15.4616  -12.0927  -14.1513 C   0  0  2  0  0  0  0  0  0  0  0  0
   16.3181  -13.2609  -14.0877 N   0  0  0  0  0  0  0  0  0  0  0  0
   16.1324  -10.8890  -13.6091 C   0  0  0  0  0  0  0  0  0  0  0  0
   16.7413  -11.0441  -12.4960 O   0  0  0  0  0  0  0  0  0  0  0  0
   16.1414   -9.6139  -14.2286 N   0  0  0  0  0  0  0  0  0  0  0  0
   16.7422   -8.5078  -13.5596 C   0  0  1  0  0  0  0  0  0  0  0  0
   17.1518   -7.4125  -14.5544 C   0  0  0  0  0  0  0  0  0  0  0  0
   17.8294   -6.3547  -13.7774 C   0  0  0  0  0  0  0  0  0  0  0  0
   17.2060   -5.2873  -13.5532 O   0  0  0  0  0  0  0  0  0  0  0  0
   15.8674   -7.8723  -12.5485 C   0  0  0  0  0  0  0  0  0  0  0  0
   14.6329   -7.6993  -12.6923 O   0  0  0  0  0  0  0  0  0  0  0  0
   19.1110   -6.4518  -13.2730 O   0  0  0  0  0  0  0  0  0  0  0  0
   16.4680   -7.4288  -11.3318 N   0  0  0  0  0  0  0  0  0  0  0  0
   15.7318   -6.9145  -10.2236 C   0  0  1  0  0  0  0  0  0  0  0  0
   14.8054   -7.9090   -9.5782 C   0  0  0  0  0  0  0  0  0  0  0  0
   13.9859   -7.2894   -8.5066 C   0  0  0  0  0  0  0  0  0  0  0  0
   14.1136   -6.0536   -7.9053 C   0  0  0  0  0  0  0  0  0  0  0  0
   13.1600   -5.8672   -6.9745 N   0  0  0  0  0  0  0  0  0  0  0  0
   12.3722   -6.9808   -6.9353 C   0  0  0  0  0  0  0  0  0  0  0  0
   11.2712   -7.2841   -6.1577 C   0  0  0  0  0  0  0  0  0  0  0  0
   10.6608   -8.5133   -6.3369 C   0  0  0  0  0  0  0  0  0  0  0  0
   11.1572   -9.4040   -7.2781 C   0  0  0  0  0  0  0  0  0  0  0  0
   12.2570   -9.0768   -8.0407 C   0  0  0  0  0  0  0  0  0  0  0  0
   12.8782   -7.8551   -7.8755 C   0  0  0  0  0  0  0  0  0  0  0  0
   16.6822   -6.4016   -9.2114 C   0  0  0  0  0  0  0  0  0  0  0  0
   18.0437   -6.6478   -9.2647 O   0  0  0  0  0  0  0  0  0  0  0  0
   16.2427   -5.7146   -8.2636 O   0  0  0  0  0  0  0  0  0  0  0  0
  2  1  1  6
  2  3  1  0
  4  2  1  0
  4  5  1  1
  6  7  2  0
  6  4  1  0
  8  6  1  0
  9 13  1  0
  9  8  1  0
  9 10  1  6
 11 15  1  0
 11 10  1  0
 12 11  2  0
 13 14  2  0
 16 17  1  0
 16 13  1  0
 17 18  1  1
 19 18  1  0
 20 19  2  0
 21 20  1  0
 22 21  1  0
 22 27  2  0
 23 24  2  0
 23 22  1  0
 24 25  1  0
 25 26  2  0
 27 26  1  0
 27 19  1  0
 28 17  1  0
 28 29  1  0
 30 28  2  0
M  END
$$$$
