TDW.pdb
     RDKit          3D

 30 31  0  0  1  0  0  0  0  0999 V2000
   33.3657  -34.1327   -2.9919 C   0  0  0  0  0  0  0  0  0  0  0  0
   34.0092  -35.2640   -3.7395 C   0  0  1  0  0  0  0  0  0  0  0  0
   35.3938  -35.2019   -3.7688 O   0  0  0  0  0  0  0  0  0  0  0  0
   33.4816  -36.6154   -3.2996 C   0  0  2  0  0  0  0  0  0  0  0  0
   34.0892  -37.6266   -4.1427 N   0  0  0  0  0  0  0  0  0  0  0  0
   32.0030  -36.6940   -3.3255 C   0  0  0  0  0  0  0  0  0  0  0  0
   31.4808  -36.9972   -4.4520 O   0  0  0  0  0  0  0  0  0  0  0  0
   31.1562  -36.4610   -2.2128 N   0  0  0  0  0  0  0  0  0  0  0  0
   29.7431  -36.4220   -2.3965 C   0  0  1  0  0  0  0  0  0  0  0  0
   29.0058  -36.4873   -1.0514 C   0  0  0  0  0  0  0  0  0  0  0  0
   29.1722  -37.8607   -0.5338 C   0  0  0  0  0  0  0  0  0  0  0  0
   29.1542  -38.0354    0.7101 O   0  0  0  0  0  0  0  0  0  0  0  0
   29.2634  -35.2095   -3.0972 C   0  0  0  0  0  0  0  0  0  0  0  0
   29.5048  -34.0363   -2.7231 O   0  0  0  0  0  0  0  0  0  0  0  0
   29.3479  -38.9798   -1.3231 O   0  0  0  0  0  0  0  0  0  0  0  0
   28.4760  -35.3877   -4.2745 N   0  0  0  0  0  0  0  0  0  0  0  0
   27.8999  -34.3134   -5.0153 C   0  0  1  0  0  0  0  0  0  0  0  0
   27.1967  -34.7358   -6.2767 C   0  0  0  0  0  0  0  0  0  0  0  0
   26.8638  -33.5757   -7.1411 C   0  0  0  0  0  0  0  0  0  0  0  0
   27.6771  -32.8441   -7.9827 C   0  0  0  0  0  0  0  0  0  0  0  0
   26.9845  -31.8681   -8.5977 N   0  0  0  0  0  0  0  0  0  0  0  0
   25.6878  -31.9287   -8.1768 C   0  0  0  0  0  0  0  0  0  0  0  0
   24.5917  -31.1551   -8.5067 C   0  0  0  0  0  0  0  0  0  0  0  0
   23.3775  -31.4513   -7.9120 C   0  0  0  0  0  0  0  0  0  0  0  0
   23.2844  -32.5018   -7.0102 C   0  0  0  0  0  0  0  0  0  0  0  0
   24.3932  -33.2579   -6.6984 C   0  0  0  0  0  0  0  0  0  0  0  0
   25.6121  -32.9767   -7.2822 C   0  0  0  0  0  0  0  0  0  0  0  0
   26.9499  -33.5844   -4.1453 C   0  0  0  0  0  0  0  0  0  0  0  0
   25.8819  -34.2006   -3.5152 O   0  0  0  0  0  0  0  0  0  0  0  0
   27.1135  -32.3577   -3.9669 O   0  0  0  0  0  0  0  0  0  0  0  0
  2  1  1  1
  2  3  1  0
  4  2  1  0
  4  5  1  6
  6  7  2  0
  6  4  1  0
  8  6  1  0
  9 13  1  0
  9  8  1  0
  9 10  1  1
 11 15  1  0
 11 10  1  0
 12 11  2  0
 13 14  2  0
 16 17  1  0
 16 13  1  0
 17 18  1  6
 19 18  1  0
 20 19  2  0
 21 20  1  0
 22 21  1  0
 22 27  2  0
 23 24  2  0
 23 22  1  0
 24 25  1  0
 25 26  2  0
 27 26  1  0
 27 19  1  0
 28 17  1  0
 28 29  1  0
 30 28  2  0
M  END
$$$$
