MVT.pdb
     RDKit          3D

 23 22  0  0  1  0  0  0  0  0999 V2000
   26.8550  -15.0917  -15.0281 C   0  0  0  0  0  0  0  0  0  0  0  0
   27.9533  -15.9358  -16.1535 S   0  0  0  0  0  0  0  0  0  0  0  0
   28.3871  -17.6043  -15.7204 C   0  0  0  0  0  0  0  0  0  0  0  0
   27.2921  -18.4733  -15.2246 C   0  0  0  0  0  0  0  0  0  0  0  0
   27.7694  -19.7972  -14.7454 C   0  0  2  0  0  0  0  0  0  0  0  0
   28.2444  -20.5913  -15.8469 N   0  0  0  0  0  0  0  0  0  0  0  0
   26.6421  -20.5817  -14.1007 C   0  0  0  0  0  0  0  0  0  0  0  0
   26.0543  -21.4808  -14.7427 O   0  0  0  0  0  0  0  0  0  0  0  0
   26.8740  -21.7064  -10.3167 C   0  0  0  0  0  0  0  0  0  0  0  0
   25.4995  -21.2300  -10.6477 C   0  0  1  0  0  0  0  0  0  0  0  0
   24.9677  -20.1332   -9.7853 C   0  0  0  0  0  0  0  0  0  0  0  0
   25.1637  -21.0432  -12.0707 C   0  0  2  0  0  0  0  0  0  0  0  0
   26.2331  -20.3224  -12.7811 N   0  0  0  0  0  0  0  0  0  0  0  0
   23.8471  -20.5378  -12.4297 C   0  0  0  0  0  0  0  0  0  0  0  0
   23.6206  -19.2913  -12.2274 O   0  0  0  0  0  0  0  0  0  0  0  0
   22.2669  -19.9086  -15.5617 C   0  0  0  0  0  0  0  0  0  0  0  0
   21.2642  -20.7797  -14.8417 C   0  0  1  0  0  0  0  0  0  0  0  0
   21.4903  -22.0940  -15.3059 O   0  0  0  0  0  0  0  0  0  0  0  0
   21.5077  -20.6826  -13.3568 C   0  0  2  0  0  0  0  0  0  0  0  0
   22.7909  -21.2484  -12.9733 N   0  0  0  0  0  0  0  0  0  0  0  0
   20.4583  -21.4499  -12.6687 C   0  0  0  0  0  0  0  0  0  0  0  0
   19.1290  -21.1042  -12.7872 O   0  0  0  0  0  0  0  0  0  0  0  0
   20.7628  -22.4306  -11.9640 O   0  0  0  0  0  0  0  0  0  0  0  0
  2  1  1  0
  3  2  1  0
  4  3  1  0
  5  4  1  0
  5  7  1  0
  5  6  1  6
  7 13  1  0
  7  8  2  0
 10  9  1  6
 10 11  1  0
 12 10  1  0
 12 13  1  1
 14 12  1  0
 14 15  2  0
 17 16  1  6
 17 19  1  0
 18 17  1  0
 19 20  1  6
 20 14  1  0
 21 19  1  0
 22 21  1  0
 23 21  2  0
M  END
$$$$
