MVT.pdb
     RDKit          3D

 23 22  0  0  1  0  0  0  0  0999 V2000
   27.1893  -17.8452   -7.5865 C   0  0  0  0  0  0  0  0  0  0  0  0
   27.1536  -19.5416   -7.0330 S   0  0  0  0  0  0  0  0  0  0  0  0
   26.3630  -20.7037   -8.1213 C   0  0  0  0  0  0  0  0  0  0  0  0
   26.4315  -20.4134   -9.5743 C   0  0  0  0  0  0  0  0  0  0  0  0
   25.6535  -21.3753  -10.3987 C   0  0  2  0  0  0  0  0  0  0  0  0
   26.2117  -22.6969  -10.2933 N   0  0  0  0  0  0  0  0  0  0  0  0
   25.7052  -20.9994  -11.8677 C   0  0  0  0  0  0  0  0  0  0  0  0
   26.7333  -21.2347  -12.5412 O   0  0  0  0  0  0  0  0  0  0  0  0
   23.4757  -22.6478  -14.2417 C   0  0  0  0  0  0  0  0  0  0  0  0
   23.3063  -21.1736  -14.3965 C   0  0  1  0  0  0  0  0  0  0  0  0
   21.9703  -20.6299  -14.0105 C   0  0  0  0  0  0  0  0  0  0  0  0
   24.4164  -20.3074  -13.9604 C   0  0  2  0  0  0  0  0  0  0  0  0
   24.6126  -20.3844  -12.5033 N   0  0  0  0  0  0  0  0  0  0  0  0
   24.4751  -18.9336  -14.4369 C   0  0  0  0  0  0  0  0  0  0  0  0
   23.8960  -18.0385  -13.7233 O   0  0  0  0  0  0  0  0  0  0  0  0
   27.0849  -16.4905  -14.6023 C   0  0  0  0  0  0  0  0  0  0  0  0
   26.5597  -16.5429  -16.0180 C   0  0  1  0  0  0  0  0  0  0  0  0
   27.4183  -17.4196  -16.7167 O   0  0  0  0  0  0  0  0  0  0  0  0
   25.1481  -17.0723  -15.9978 C   0  0  2  0  0  0  0  0  0  0  0  0
   25.0906  -18.4652  -15.5850 N   0  0  0  0  0  0  0  0  0  0  0  0
   24.6073  -16.9892  -17.3631 C   0  0  0  0  0  0  0  0  0  0  0  0
   24.5165  -15.7812  -18.0213 O   0  0  0  0  0  0  0  0  0  0  0  0
   24.2213  -18.0202  -17.9454 O   0  0  0  0  0  0  0  0  0  0  0  0
  2  1  1  0
  3  2  1  0
  4  3  1  0
  5  4  1  0
  5  7  1  0
  5  6  1  6
  7 13  1  0
  7  8  2  0
 10  9  1  1
 10 11  1  0
 12 10  1  0
 12 13  1  1
 14 12  1  0
 14 15  2  0
 17 16  1  1
 17 19  1  0
 18 17  1  0
 19 20  1  6
 20 14  1  0
 21 19  1  0
 22 21  1  0
 23 21  2  0
M  END
$$$$
