MVT.pdb
     RDKit          3D

 23 22  0  0  1  0  0  0  0  0999 V2000
   29.0087  -17.4966  -21.7544 C   0  0  0  0  0  0  0  0  0  0  0  0
   28.3591  -19.1569  -21.8368 S   0  0  0  0  0  0  0  0  0  0  0  0
   27.2730  -19.6390  -20.5149 C   0  0  0  0  0  0  0  0  0  0  0  0
   26.3770  -18.5907  -19.9686 C   0  0  0  0  0  0  0  0  0  0  0  0
   26.6273  -18.2998  -18.5323 C   0  0  2  0  0  0  0  0  0  0  0  0
   26.5187  -19.5007  -17.7478 N   0  0  0  0  0  0  0  0  0  0  0  0
   25.5958  -17.3308  -17.9854 C   0  0  0  0  0  0  0  0  0  0  0  0
   24.6208  -17.7561  -17.3263 O   0  0  0  0  0  0  0  0  0  0  0  0
   24.3839  -16.3488  -15.5201 C   0  0  0  0  0  0  0  0  0  0  0  0
   24.8748  -15.0624  -16.0949 C   0  0  1  0  0  0  0  0  0  0  0  0
   26.1120  -14.5040  -15.4729 C   0  0  0  0  0  0  0  0  0  0  0  0
   24.8665  -14.9207  -17.5620 C   0  0  2  0  0  0  0  0  0  0  0  0
   25.7069  -15.9463  -18.2020 N   0  0  0  0  0  0  0  0  0  0  0  0
   25.0830  -13.6074  -18.1503 C   0  0  0  0  0  0  0  0  0  0  0  0
   26.2963  -13.2062  -18.2623 O   0  0  0  0  0  0  0  0  0  0  0  0
   22.2835  -11.6449  -20.6078 C   0  0  0  0  0  0  0  0  0  0  0  0
   23.7848  -11.5366  -20.7390 C   0  0  1  0  0  0  0  0  0  0  0  0
   24.0265  -10.3269  -21.4262 O   0  0  0  0  0  0  0  0  0  0  0  0
   24.3963  -11.5060  -19.3611 C   0  0  2  0  0  0  0  0  0  0  0  0
   24.1242  -12.7227  -18.6131 N   0  0  0  0  0  0  0  0  0  0  0  0
   23.8006  -10.3840  -18.6197 C   0  0  0  0  0  0  0  0  0  0  0  0
   24.0299   -9.0782  -18.9978 O   0  0  0  0  0  0  0  0  0  0  0  0
   23.0750  -10.6040  -17.6317 O   0  0  0  0  0  0  0  0  0  0  0  0
  2  1  1  0
  3  2  1  0
  4  3  1  0
  5  4  1  0
  5  7  1  0
  5  6  1  1
  7 13  1  0
  7  8  2  0
 10  9  1  6
 10 11  1  0
 12 10  1  0
 12 13  1  6
 14 12  1  0
 14 15  2  0
 17 16  1  1
 17 19  1  0
 18 17  1  0
 19 20  1  1
 20 14  1  0
 21 19  1  0
 22 21  1  0
 23 21  2  0
M  END
$$$$
