MVT.pdb
     RDKit          3D

 23 22  0  0  1  0  0  0  0  0999 V2000
   21.2851  -11.5631  -24.1055 C   0  0  0  0  0  0  0  0  0  0  0  0
   20.7022  -10.9361  -22.5396 S   0  0  0  0  0  0  0  0  0  0  0  0
   21.3021  -11.7712  -21.0896 C   0  0  0  0  0  0  0  0  0  0  0  0
   20.8408  -11.2518  -19.7791 C   0  0  0  0  0  0  0  0  0  0  0  0
   21.4512  -11.9600  -18.6232 C   0  0  2  0  0  0  0  0  0  0  0  0
   20.9826  -13.3185  -18.5591 N   0  0  0  0  0  0  0  0  0  0  0  0
   21.0575  -11.3040  -17.3131 C   0  0  0  0  0  0  0  0  0  0  0  0
   19.9322  -11.5252  -16.8123 O   0  0  0  0  0  0  0  0  0  0  0  0
   22.5081   -9.0715  -13.1268 C   0  0  0  0  0  0  0  0  0  0  0  0
   22.6014   -9.9097  -14.3575 C   0  0  1  0  0  0  0  0  0  0  0  0
   22.8801  -11.3596  -14.1355 C   0  0  0  0  0  0  0  0  0  0  0  0
   21.6034   -9.6820  -15.4181 C   0  0  2  0  0  0  0  0  0  0  0  0
   21.9358  -10.4407  -16.6353 N   0  0  0  0  0  0  0  0  0  0  0  0
   21.1962   -8.3202  -15.7303 C   0  0  0  0  0  0  0  0  0  0  0  0
   22.1041   -7.5166  -16.1495 O   0  0  0  0  0  0  0  0  0  0  0  0
   17.6289   -7.1228  -17.2088 C   0  0  0  0  0  0  0  0  0  0  0  0
   18.8566   -6.2422  -17.2244 C   0  0  1  0  0  0  0  0  0  0  0  0
   18.3834   -4.9224  -17.3927 O   0  0  0  0  0  0  0  0  0  0  0  0
   19.5835   -6.3916  -15.9119 C   0  0  2  0  0  0  0  0  0  0  0  0
   19.9275   -7.7758  -15.6298 N   0  0  0  0  0  0  0  0  0  0  0  0
   18.6924   -5.9259  -14.8383 C   0  0  0  0  0  0  0  0  0  0  0  0
   18.3437   -4.5966  -14.7280 O   0  0  0  0  0  0  0  0  0  0  0  0
   18.2387   -6.7361  -14.0084 O   0  0  0  0  0  0  0  0  0  0  0  0
  2  1  1  0
  3  2  1  0
  4  3  1  0
  5  4  1  0
  5  7  1  0
  5  6  1  1
  7 13  1  0
  7  8  2  0
 10  9  1  1
 10 11  1  0
 12 10  1  0
 12 13  1  6
 14 12  1  0
 14 15  2  0
 17 16  1  1
 17 19  1  0
 18 17  1  0
 19 20  1  1
 20 14  1  0
 21 19  1  0
 22 21  1  0
 23 21  2  0
M  END
$$$$
