MVT.pdb
     RDKit          3D

 23 22  0  0  1  0  0  0  0  0999 V2000
   20.3603  -21.7281   -9.8065 C   0  0  0  0  0  0  0  0  0  0  0  0
   21.3225  -21.2043   -8.3976 S   0  0  0  0  0  0  0  0  0  0  0  0
   23.0856  -21.1738   -8.6213 C   0  0  0  0  0  0  0  0  0  0  0  0
   23.5917  -20.5424   -9.8644 C   0  0  0  0  0  0  0  0  0  0  0  0
   25.0602  -20.6939  -10.0396 C   0  0  2  0  0  0  0  0  0  0  0  0
   25.7640  -20.1049   -8.9319 N   0  0  0  0  0  0  0  0  0  0  0  0
   25.5368  -19.9741  -11.2873 C   0  0  0  0  0  0  0  0  0  0  0  0
   25.5905  -18.7241  -11.3102 O   0  0  0  0  0  0  0  0  0  0  0  0
   28.4535  -20.1119  -15.2253 C   0  0  0  0  0  0  0  0  0  0  0  0
   27.8508  -20.4595  -13.9055 C   0  0  1  0  0  0  0  0  0  0  0  0
   28.7175  -20.2209  -12.7133 C   0  0  0  0  0  0  0  0  0  0  0  0
   26.4478  -20.0733  -13.6705 C   0  0  2  0  0  0  0  0  0  0  0  0
   25.9258  -20.6838  -12.4366 N   0  0  0  0  0  0  0  0  0  0  0  0
   25.4912  -20.1715  -14.7628 C   0  0  0  0  0  0  0  0  0  0  0  0
   25.1695  -21.3487  -15.1585 O   0  0  0  0  0  0  0  0  0  0  0  0
   22.5207  -17.5153  -15.4111 C   0  0  0  0  0  0  0  0  0  0  0  0
   22.4825  -18.9206  -15.9647 C   0  0  1  0  0  0  0  0  0  0  0  0
   21.5491  -18.8935  -17.0240 O   0  0  0  0  0  0  0  0  0  0  0  0
   23.8565  -19.2875  -16.4656 C   0  0  2  0  0  0  0  0  0  0  0  0
   24.8740  -19.1330  -15.4387 N   0  0  0  0  0  0  0  0  0  0  0  0
   24.1986  -18.3809  -17.5722 C   0  0  0  0  0  0  0  0  0  0  0  0
   23.5052  -18.4169  -18.7633 O   0  0  0  0  0  0  0  0  0  0  0  0
   25.1285  -17.5624  -17.4438 O   0  0  0  0  0  0  0  0  0  0  0  0
  2  1  1  0
  3  2  1  0
  4  3  1  0
  5  4  1  0
  5  7  1  0
  5  6  1  1
  7 13  1  0
  7  8  2  0
 10  9  1  6
 10 11  1  0
 12 10  1  0
 12 13  1  1
 14 12  1  0
 14 15  2  0
 17 16  1  6
 17 19  1  0
 18 17  1  0
 19 20  1  1
 20 14  1  0
 21 19  1  0
 22 21  1  0
 23 21  2  0
M  END
$$$$
