MVT.pdb
     RDKit          3D

 23 22  0  0  1  0  0  0  0  0999 V2000
   29.1379  -18.2005  -15.6372 C   0  0  0  0  0  0  0  0  0  0  0  0
   30.3562  -18.4421  -14.3556 S   0  0  0  0  0  0  0  0  0  0  0  0
   29.8727  -19.4891  -13.0030 C   0  0  0  0  0  0  0  0  0  0  0  0
   28.4995  -20.0481  -13.0470 C   0  0  0  0  0  0  0  0  0  0  0  0
   28.1787  -20.9007  -11.8722 C   0  0  2  0  0  0  0  0  0  0  0  0
   28.9856  -22.0916  -11.8777 N   0  0  0  0  0  0  0  0  0  0  0  0
   26.7324  -21.3576  -11.9097 C   0  0  0  0  0  0  0  0  0  0  0  0
   26.4189  -22.4028  -12.5223 O   0  0  0  0  0  0  0  0  0  0  0  0
   24.4694  -20.2756   -8.8963 C   0  0  0  0  0  0  0  0  0  0  0  0
   23.6232  -20.7348  -10.0360 C   0  0  1  0  0  0  0  0  0  0  0  0
   22.2890  -20.0760  -10.1603 C   0  0  0  0  0  0  0  0  0  0  0  0
   24.2800  -20.9315  -11.3408 C   0  0  2  0  0  0  0  0  0  0  0  0
   25.7186  -20.6277  -11.2651 N   0  0  0  0  0  0  0  0  0  0  0  0
   23.6742  -20.3607  -12.5345 C   0  0  0  0  0  0  0  0  0  0  0  0
   23.9326  -19.1313  -12.7946 O   0  0  0  0  0  0  0  0  0  0  0  0
   24.0866  -21.0448  -16.1465 C   0  0  0  0  0  0  0  0  0  0  0  0
   22.6027  -21.1491  -15.8819 C   0  0  1  0  0  0  0  0  0  0  0  0
   22.3362  -22.5254  -15.7120 O   0  0  0  0  0  0  0  0  0  0  0  0
   22.2728  -20.3770  -14.6296 C   0  0  2  0  0  0  0  0  0  0  0  0
   22.8396  -20.9923  -13.4405 N   0  0  0  0  0  0  0  0  0  0  0  0
   20.8106  -20.3634  -14.4709 C   0  0  0  0  0  0  0  0  0  0  0  0
   19.9924  -19.8393  -15.4489 O   0  0  0  0  0  0  0  0  0  0  0  0
   20.2904  -20.8302  -13.4400 O   0  0  0  0  0  0  0  0  0  0  0  0
  2  1  1  0
  3  2  1  0
  4  3  1  0
  5  4  1  0
  5  7  1  0
  5  6  1  6
  7 13  1  0
  7  8  2  0
 10  9  1  1
 10 11  1  0
 12 10  1  0
 12 13  1  1
 14 12  1  0
 14 15  2  0
 17 16  1  1
 17 19  1  0
 18 17  1  0
 19 20  1  1
 20 14  1  0
 21 19  1  0
 22 21  1  0
 23 21  2  0
M  END
$$$$
