MVT.pdb
     RDKit          3D

 23 22  0  0  1  0  0  0  0  0999 V2000
   28.0896  -12.5137  -15.1233 C   0  0  0  0  0  0  0  0  0  0  0  0
   27.4023  -12.9252  -16.7181 S   0  0  0  0  0  0  0  0  0  0  0  0
   25.6530  -13.2376  -16.7597 C   0  0  0  0  0  0  0  0  0  0  0  0
   24.7705  -12.0714  -17.0076 C   0  0  0  0  0  0  0  0  0  0  0  0
   23.3257  -12.4215  -17.0018 C   0  0  2  0  0  0  0  0  0  0  0  0
   23.0045  -13.2576  -18.1275 N   0  0  0  0  0  0  0  0  0  0  0  0
   22.4639  -11.1789  -17.1257 C   0  0  0  0  0  0  0  0  0  0  0  0
   22.1216  -10.7611  -18.2545 O   0  0  0  0  0  0  0  0  0  0  0  0
   18.7733   -8.6473  -15.3612 C   0  0  0  0  0  0  0  0  0  0  0  0
   19.7342   -9.7018  -15.7980 C   0  0  1  0  0  0  0  0  0  0  0  0
   19.2381  -10.6351  -16.8526 C   0  0  0  0  0  0  0  0  0  0  0  0
   21.1375   -9.3039  -16.0102 C   0  0  2  0  0  0  0  0  0  0  0  0
   22.0325  -10.4727  -15.9894 N   0  0  0  0  0  0  0  0  0  0  0  0
   21.6857   -8.1958  -15.2426 C   0  0  0  0  0  0  0  0  0  0  0  0
   22.1496   -8.4611  -14.0763 O   0  0  0  0  0  0  0  0  0  0  0  0
   24.4314   -5.7245  -16.3116 C   0  0  0  0  0  0  0  0  0  0  0  0
   23.2738   -4.9274  -15.7573 C   0  0  1  0  0  0  0  0  0  0  0  0
   22.5306   -4.4952  -16.8775 O   0  0  0  0  0  0  0  0  0  0  0  0
   22.4434   -5.8207  -14.8708 C   0  0  2  0  0  0  0  0  0  0  0  0
   21.7708   -6.8675  -15.6229 N   0  0  0  0  0  0  0  0  0  0  0  0
   21.4076   -4.9962  -14.2299 C   0  0  0  0  0  0  0  0  0  0  0  0
   21.7326   -4.0664  -13.2652 O   0  0  0  0  0  0  0  0  0  0  0  0
   20.2130   -5.1307  -14.5553 O   0  0  0  0  0  0  0  0  0  0  0  0
  2  1  1  0
  3  2  1  0
  4  3  1  0
  5  4  1  0
  5  7  1  0
  5  6  1  6
  7 13  1  0
  7  8  2  0
 10  9  1  6
 10 11  1  0
 12 10  1  0
 12 13  1  1
 14 12  1  0
 14 15  2  0
 17 16  1  6
 17 19  1  0
 18 17  1  0
 19 20  1  6
 20 14  1  0
 21 19  1  0
 22 21  1  0
 23 21  2  0
M  END
$$$$
