MVT.pdb
     RDKit          3D

 23 22  0  0  1  0  0  0  0  0999 V2000
   28.2478  -14.2201  -20.2072 C   0  0  0  0  0  0  0  0  0  0  0  0
   29.0644  -15.6721  -19.5668 S   0  0  0  0  0  0  0  0  0  0  0  0
   28.0397  -16.8158  -18.6715 C   0  0  0  0  0  0  0  0  0  0  0  0
   26.5723  -16.6519  -18.8128 C   0  0  0  0  0  0  0  0  0  0  0  0
   25.7969  -17.7070  -18.1086 C   0  0  2  0  0  0  0  0  0  0  0  0
   26.1449  -19.0092  -18.6112 N   0  0  0  0  0  0  0  0  0  0  0  0
   24.3077  -17.5362  -18.3431 C   0  0  0  0  0  0  0  0  0  0  0  0
   23.7963  -17.8974  -19.4266 O   0  0  0  0  0  0  0  0  0  0  0  0
   19.7384  -17.3781  -16.7828 C   0  0  0  0  0  0  0  0  0  0  0  0
   21.1858  -17.6947  -16.9578 C   0  0  1  0  0  0  0  0  0  0  0  0
   21.4928  -19.0576  -17.4848 C   0  0  0  0  0  0  0  0  0  0  0  0
   22.0481  -16.6540  -17.5461 C   0  0  2  0  0  0  0  0  0  0  0  0
   23.4731  -16.9745  -17.3613 N   0  0  0  0  0  0  0  0  0  0  0  0
   21.7718  -15.2549  -17.2563 C   0  0  0  0  0  0  0  0  0  0  0  0
   22.0168  -14.8414  -16.0668 O   0  0  0  0  0  0  0  0  0  0  0  0
   23.0417  -11.9471  -18.7073 C   0  0  0  0  0  0  0  0  0  0  0  0
   21.5331  -11.9476  -18.7899 C   0  0  1  0  0  0  0  0  0  0  0  0
   21.2180  -12.3638  -20.1021 O   0  0  0  0  0  0  0  0  0  0  0  0
   20.9868  -12.9156  -17.7711 C   0  0  2  0  0  0  0  0  0  0  0  0
   21.2694  -14.2981  -18.1213 N   0  0  0  0  0  0  0  0  0  0  0  0
   19.5253  -12.7570  -17.7252 C   0  0  0  0  0  0  0  0  0  0  0  0
   18.9492  -11.5817  -17.2922 O   0  0  0  0  0  0  0  0  0  0  0  0
   18.7845  -13.6930  -18.0806 O   0  0  0  0  0  0  0  0  0  0  0  0
  2  1  1  0
  3  2  1  0
  4  3  1  0
  5  4  1  0
  5  7  1  0
  5  6  1  6
  7 13  1  0
  7  8  2  0
 10  9  1  6
 10 11  1  0
 12 10  1  0
 12 13  1  1
 14 12  1  0
 14 15  2  0
 17 16  1  6
 17 19  1  0
 18 17  1  0
 19 20  1  6
 20 14  1  0
 21 19  1  0
 22 21  1  0
 23 21  2  0
M  END
$$$$
