MVT.pdb
     RDKit          3D

 23 22  0  0  1  0  0  0  0  0999 V2000
   29.6307  -19.0485   -6.5416 C   0  0  0  0  0  0  0  0  0  0  0  0
   28.0925  -19.3848   -5.7013 S   0  0  0  0  0  0  0  0  0  0  0  0
   26.6844  -19.6959   -6.7405 C   0  0  0  0  0  0  0  0  0  0  0  0
   26.9586  -19.9979   -8.1666 C   0  0  0  0  0  0  0  0  0  0  0  0
   25.7227  -20.1632   -8.9761 C   0  0  2  0  0  0  0  0  0  0  0  0
   24.9657  -21.2964   -8.5155 N   0  0  0  0  0  0  0  0  0  0  0  0
   26.0569  -20.4287  -10.4320 C   0  0  0  0  0  0  0  0  0  0  0  0
   27.1332  -20.9890  -10.7380 O   0  0  0  0  0  0  0  0  0  0  0  0
   24.6355  -22.0298  -14.6752 C   0  0  0  0  0  0  0  0  0  0  0  0
   24.7171  -21.6610  -13.2319 C   0  0  1  0  0  0  0  0  0  0  0  0
   25.1030  -22.7631  -12.3013 C   0  0  0  0  0  0  0  0  0  0  0  0
   25.3600  -20.3799  -12.8879 C   0  0  2  0  0  0  0  0  0  0  0  0
   25.1770  -20.0567  -11.4632 N   0  0  0  0  0  0  0  0  0  0  0  0
   25.1288  -19.2190  -13.7344 C   0  0  0  0  0  0  0  0  0  0  0  0
   24.1241  -18.4741  -13.4491 O   0  0  0  0  0  0  0  0  0  0  0  0
   27.5321  -16.3316  -14.8374 C   0  0  0  0  0  0  0  0  0  0  0  0
   26.8715  -16.9314  -16.0566 C   0  0  1  0  0  0  0  0  0  0  0  0
   27.8028  -17.8501  -16.5884 O   0  0  0  0  0  0  0  0  0  0  0  0
   25.6048  -17.6312  -15.6334 C   0  0  2  0  0  0  0  0  0  0  0  0
   25.8732  -18.8117  -14.8281 N   0  0  0  0  0  0  0  0  0  0  0  0
   24.8960  -18.0698  -16.8453 C   0  0  0  0  0  0  0  0  0  0  0  0
   24.4118  -17.1565  -17.7575 O   0  0  0  0  0  0  0  0  0  0  0  0
   24.7237  -19.2840  -17.0626 O   0  0  0  0  0  0  0  0  0  0  0  0
  2  1  1  0
  3  2  1  0
  4  3  1  0
  5  4  1  0
  5  7  1  0
  5  6  1  1
  7 13  1  0
  7  8  2  0
 10  9  1  6
 10 11  1  0
 12 10  1  0
 12 13  1  1
 14 12  1  0
 14 15  2  0
 17 16  1  1
 17 19  1  0
 18 17  1  0
 19 20  1  1
 20 14  1  0
 21 19  1  0
 22 21  1  0
 23 21  2  0
M  END
$$$$
