MVT.pdb
     RDKit          3D

 23 22  0  0  1  0  0  0  0  0999 V2000
   16.0761   -7.8727  -20.2443 C   0  0  0  0  0  0  0  0  0  0  0  0
   17.0928   -9.0512  -21.1176 S   0  0  0  0  0  0  0  0  0  0  0  0
   17.8512  -10.3170  -20.1265 C   0  0  0  0  0  0  0  0  0  0  0  0
   18.4684   -9.8863  -18.8483 C   0  0  0  0  0  0  0  0  0  0  0  0
   19.0821  -11.0079  -18.0898 C   0  0  2  0  0  0  0  0  0  0  0  0
   18.0810  -11.9697  -17.7129 N   0  0  0  0  0  0  0  0  0  0  0  0
   19.7135  -10.5131  -16.8020 C   0  0  0  0  0  0  0  0  0  0  0  0
   19.0372  -10.4586  -15.7505 O   0  0  0  0  0  0  0  0  0  0  0  0
   23.7890  -10.2079  -14.1047 C   0  0  0  0  0  0  0  0  0  0  0  0
   22.8372  -10.6169  -15.1784 C   0  0  1  0  0  0  0  0  0  0  0  0
   22.3535  -12.0280  -15.1137 C   0  0  0  0  0  0  0  0  0  0  0  0
   21.7687   -9.6694  -15.5434 C   0  0  2  0  0  0  0  0  0  0  0  0
   21.0587  -10.1075  -16.7565 N   0  0  0  0  0  0  0  0  0  0  0  0
   22.0643   -8.2450  -15.5808 C   0  0  0  0  0  0  0  0  0  0  0  0
   22.8798   -7.8373  -16.4834 O   0  0  0  0  0  0  0  0  0  0  0  0
   20.3879   -5.2788  -16.6091 C   0  0  0  0  0  0  0  0  0  0  0  0
   20.7830   -4.9689  -15.1841 C   0  0  1  0  0  0  0  0  0  0  0  0
   19.6438   -5.2479  -14.3978 O   0  0  0  0  0  0  0  0  0  0  0  0
   21.9390   -5.8541  -14.7924 C   0  0  2  0  0  0  0  0  0  0  0  0
   21.5644   -7.2582  -14.7486 N   0  0  0  0  0  0  0  0  0  0  0  0
   22.3765   -5.4670  -13.4426 C   0  0  0  0  0  0  0  0  0  0  0  0
   22.8750   -4.2068  -13.1890 O   0  0  0  0  0  0  0  0  0  0  0  0
   22.3006   -6.2822  -12.5041 O   0  0  0  0  0  0  0  0  0  0  0  0
  2  1  1  0
  3  2  1  0
  4  3  1  0
  5  4  1  0
  5  7  1  0
  5  6  1  1
  7 13  1  0
  7  8  2  0
 10  9  1  1
 10 11  1  0
 12 10  1  0
 12 13  1  6
 14 12  1  0
 14 15  2  0
 17 16  1  6
 17 19  1  0
 18 17  1  0
 19 20  1  1
 20 14  1  0
 21 19  1  0
 22 21  1  0
 23 21  2  0
M  END
$$$$
