MVT.pdb
     RDKit          3D

 23 22  0  0  1  0  0  0  0  0999 V2000
   24.5185  -10.5966  -19.9412 C   0  0  0  0  0  0  0  0  0  0  0  0
   23.4631  -11.9922  -20.2926 S   0  0  0  0  0  0  0  0  0  0  0  0
   22.2821  -12.4172  -19.0340 C   0  0  0  0  0  0  0  0  0  0  0  0
   21.5048  -11.3016  -18.4413 C   0  0  0  0  0  0  0  0  0  0  0  0
   20.5706  -11.7443  -17.3729 C   0  0  2  0  0  0  0  0  0  0  0  0
   19.5161  -12.5506  -17.9269 N   0  0  0  0  0  0  0  0  0  0  0  0
   19.9026  -10.5559  -16.7070 C   0  0  0  0  0  0  0  0  0  0  0  0
   19.0315   -9.8992  -17.3201 O   0  0  0  0  0  0  0  0  0  0  0  0
   18.4324   -8.2877  -12.6530 C   0  0  0  0  0  0  0  0  0  0  0  0
   18.7168   -9.2947  -13.7164 C   0  0  1  0  0  0  0  0  0  0  0  0
   17.5222   -9.9599  -14.3163 C   0  0  0  0  0  0  0  0  0  0  0  0
   19.7405   -8.9580  -14.7220 C   0  0  2  0  0  0  0  0  0  0  0  0
   20.2406  -10.1658  -15.3994 N   0  0  0  0  0  0  0  0  0  0  0  0
   20.8262   -8.0600  -14.3577 C   0  0  0  0  0  0  0  0  0  0  0  0
   21.7125   -8.5082  -13.5456 O   0  0  0  0  0  0  0  0  0  0  0  0
   23.6984   -6.6432  -16.1149 C   0  0  0  0  0  0  0  0  0  0  0  0
   22.9590   -5.4510  -15.5540 C   0  0  1  0  0  0  0  0  0  0  0  0
   22.1423   -4.9744  -16.6028 O   0  0  0  0  0  0  0  0  0  0  0  0
   22.1241   -5.8994  -14.3813 C   0  0  2  0  0  0  0  0  0  0  0  0
   21.0244   -6.7593  -14.7877 N   0  0  0  0  0  0  0  0  0  0  0  0
   21.5454   -4.7052  -13.7468 C   0  0  0  0  0  0  0  0  0  0  0  0
   22.3364   -3.8095  -13.0592 O   0  0  0  0  0  0  0  0  0  0  0  0
   20.3215   -4.4882  -13.8248 O   0  0  0  0  0  0  0  0  0  0  0  0
  2  1  1  0
  3  2  1  0
  4  3  1  0
  5  4  1  0
  5  7  1  0
  5  6  1  6
  7 13  1  0
  7  8  2  0
 10  9  1  6
 10 11  1  0
 12 10  1  0
 12 13  1  1
 14 12  1  0
 14 15  2  0
 17 16  1  6
 17 19  1  0
 18 17  1  0
 19 20  1  6
 20 14  1  0
 21 19  1  0
 22 21  1  0
 23 21  2  0
M  END
$$$$
