MVT.pdb
     RDKit          3D

 23 22  0  0  1  0  0  0  0  0999 V2000
   27.6397  -18.4014   -5.9818 C   0  0  0  0  0  0  0  0  0  0  0  0
   28.3563  -20.0342   -5.9072 S   0  0  0  0  0  0  0  0  0  0  0  0
   28.4464  -20.9206   -7.4453 C   0  0  0  0  0  0  0  0  0  0  0  0
   27.7210  -20.3348   -8.5989 C   0  0  0  0  0  0  0  0  0  0  0  0
   27.8023  -21.1715   -9.8251 C   0  0  2  0  0  0  0  0  0  0  0  0
   29.1689  -21.3091  -10.2524 N   0  0  0  0  0  0  0  0  0  0  0  0
   27.0519  -20.5264  -10.9751 C   0  0  0  0  0  0  0  0  0  0  0  0
   27.5425  -19.5424  -11.5727 O   0  0  0  0  0  0  0  0  0  0  0  0
   25.3843  -20.5272  -15.1474 C   0  0  0  0  0  0  0  0  0  0  0  0
   25.9974  -20.6842  -13.7963 C   0  0  1  0  0  0  0  0  0  0  0  0
   27.2899  -19.9678  -13.5830 C   0  0  0  0  0  0  0  0  0  0  0  0
   25.1054  -20.6011  -12.6258 C   0  0  2  0  0  0  0  0  0  0  0  0
   25.8009  -21.0111  -11.3947 N   0  0  0  0  0  0  0  0  0  0  0  0
   23.7723  -21.1793  -12.7058 C   0  0  0  0  0  0  0  0  0  0  0  0
   23.6673  -22.4434  -12.5134 O   0  0  0  0  0  0  0  0  0  0  0  0
   20.7286  -20.1205  -10.6794 C   0  0  0  0  0  0  0  0  0  0  0  0
   20.2941  -20.2198  -12.1231 C   0  0  1  0  0  0  0  0  0  0  0  0
   20.3327  -18.9023  -12.6298 O   0  0  0  0  0  0  0  0  0  0  0  0
   21.2576  -21.1115  -12.8646 C   0  0  2  0  0  0  0  0  0  0  0  0
   22.5826  -20.5219  -12.9674 N   0  0  0  0  0  0  0  0  0  0  0  0
   20.7473  -21.3026  -14.2308 C   0  0  0  0  0  0  0  0  0  0  0  0
   19.5698  -21.9810  -14.4633 O   0  0  0  0  0  0  0  0  0  0  0  0
   21.3803  -20.8488  -15.2026 O   0  0  0  0  0  0  0  0  0  0  0  0
  2  1  1  0
  3  2  1  0
  4  3  1  0
  5  4  1  0
  5  7  1  0
  5  6  1  6
  7 13  1  0
  7  8  2  0
 10  9  1  6
 10 11  1  0
 12 10  1  0
 12 13  1  1
 14 12  1  0
 14 15  2  0
 17 16  1  1
 17 19  1  0
 18 17  1  0
 19 20  1  6
 20 14  1  0
 21 19  1  0
 22 21  1  0
 23 21  2  0
M  END
$$$$
