MVT.pdb
     RDKit          3D

 23 22  0  0  1  0  0  0  0  0999 V2000
   29.6813  -19.7320   -5.9516 C   0  0  0  0  0  0  0  0  0  0  0  0
   28.0427  -19.8978   -5.2641 S   0  0  0  0  0  0  0  0  0  0  0  0
   26.7024  -19.9196   -6.4315 C   0  0  0  0  0  0  0  0  0  0  0  0
   27.0634  -20.0695   -7.8623 C   0  0  0  0  0  0  0  0  0  0  0  0
   25.8946  -19.9553   -8.7740 C   0  0  2  0  0  0  0  0  0  0  0  0
   24.9313  -20.9855   -8.4908 N   0  0  0  0  0  0  0  0  0  0  0  0
   26.3126  -20.1394  -10.2208 C   0  0  0  0  0  0  0  0  0  0  0  0
   27.4254  -20.6421  -10.4947 O   0  0  0  0  0  0  0  0  0  0  0  0
   26.1425  -22.0354  -14.2543 C   0  0  0  0  0  0  0  0  0  0  0  0
   26.0780  -21.4952  -12.8651 C   0  0  1  0  0  0  0  0  0  0  0  0
   27.1968  -21.8950  -11.9608 C   0  0  0  0  0  0  0  0  0  0  0  0
   25.6930  -20.0823  -12.6972 C   0  0  2  0  0  0  0  0  0  0  0  0
   25.4711  -19.7547  -11.2790 N   0  0  0  0  0  0  0  0  0  0  0  0
   24.6504  -19.5242  -13.5453 C   0  0  0  0  0  0  0  0  0  0  0  0
   23.4339  -19.7678  -13.2188 O   0  0  0  0  0  0  0  0  0  0  0  0
   23.9679  -15.8678  -14.5438 C   0  0  0  0  0  0  0  0  0  0  0  0
   24.0255  -16.7064  -15.7992 C   0  0  1  0  0  0  0  0  0  0  0  0
   25.3393  -16.5664  -16.2976 O   0  0  0  0  0  0  0  0  0  0  0  0
   23.7335  -18.1422  -15.4434 C   0  0  2  0  0  0  0  0  0  0  0  0
   24.8124  -18.7484  -14.6802 N   0  0  0  0  0  0  0  0  0  0  0  0
   23.5884  -18.9042  -16.6931 C   0  0  0  0  0  0  0  0  0  0  0  0
   22.5552  -18.6468  -17.5688 O   0  0  0  0  0  0  0  0  0  0  0  0
   24.4061  -19.7998  -16.9764 O   0  0  0  0  0  0  0  0  0  0  0  0
  2  1  1  0
  3  2  1  0
  4  3  1  0
  5  4  1  0
  5  7  1  0
  5  6  1  1
  7 13  1  0
  7  8  2  0
 10  9  1  6
 10 11  1  0
 12 10  1  0
 12 13  1  1
 14 12  1  0
 14 15  2  0
 17 16  1  1
 17 19  1  0
 18 17  1  0
 19 20  1  1
 20 14  1  0
 21 19  1  0
 22 21  1  0
 23 21  2  0
M  END
$$$$
