YDE.pdb
     RDKit          3D

 30 30  0  0  1  0  0  0  0  0999 V2000
   26.4744  -17.8228  -15.1439 O   0  0  0  0  0  0  0  0  0  0  0  0
   26.0619  -16.5112  -15.4074 C   0  0  0  0  0  0  0  0  0  0  0  0
   26.7390  -15.4195  -14.9149 C   0  0  0  0  0  0  0  0  0  0  0  0
   26.2828  -14.1558  -15.2090 C   0  0  0  0  0  0  0  0  0  0  0  0
   25.1604  -13.9099  -15.9875 C   0  0  0  0  0  0  0  0  0  0  0  0
   24.7268  -12.5136  -16.2556 C   0  0  0  0  0  0  0  0  0  0  0  0
   24.7594  -12.3132  -17.7631 C   0  0  2  0  0  0  0  0  0  0  0  0
   26.1192  -12.5100  -18.2692 N   0  0  0  0  0  0  0  0  0  0  0  0
   24.4669  -10.8704  -17.9771 C   0  0  0  0  0  0  0  0  0  0  0  0
   25.1040  -10.1333  -18.7669 O   0  0  0  0  0  0  0  0  0  0  0  0
   24.4917  -15.0088  -16.4746 C   0  0  0  0  0  0  0  0  0  0  0  0
   24.9336  -16.2900  -16.1903 C   0  0  0  0  0  0  0  0  0  0  0  0
   23.3899  -10.3041  -17.2284 N   0  0  0  0  0  0  0  0  0  0  0  0
   22.8513   -9.0476  -17.6524 C   0  0  1  0  0  0  0  0  0  0  0  0
   22.2950   -9.1053  -19.0644 C   0  0  0  0  0  0  0  0  0  0  0  0
   21.8153   -7.7677  -19.4782 C   0  0  0  0  0  0  0  0  0  0  0  0
   22.5290   -6.7693  -19.6827 O   0  0  0  0  0  0  0  0  0  0  0  0
   21.7147   -8.6954  -16.7562 C   0  0  0  0  0  0  0  0  0  0  0  0
   20.6859   -9.4065  -16.6493 O   0  0  0  0  0  0  0  0  0  0  0  0
   20.4344   -7.6437  -19.6465 O   0  0  0  0  0  0  0  0  0  0  0  0
   21.8479   -7.4964  -16.0131 N   0  0  0  0  0  0  0  0  0  0  0  0
   20.8255   -7.1050  -14.9913 C   0  0  1  0  0  0  0  0  0  0  0  0
   21.4140   -5.8612  -14.3995 C   0  0  0  0  0  0  0  0  0  0  0  0
   21.0538   -4.5522  -14.9637 C   0  0  0  0  0  0  0  0  0  0  0  0
   21.7151   -3.4325  -14.2853 C   0  0  0  0  0  0  0  0  0  0  0  0
   22.9719   -3.3513  -14.2898 O   0  0  0  0  0  0  0  0  0  0  0  0
   19.5815   -6.9832  -15.7222 C   0  0  0  0  0  0  0  0  0  0  0  0
   19.5670   -6.6888  -16.9369 O   0  0  0  0  0  0  0  0  0  0  0  0
   21.0002   -2.4473  -13.6353 O   0  0  0  0  0  0  0  0  0  0  0  0
   18.3560   -7.1846  -15.1227 O   0  0  0  0  0  0  0  0  0  0  0  0
  2  1  1  0
  2 12  2  0
  3  2  1  0
  4  3  2  0
  4  5  1  0
  5 11  2  0
  6  5  1  0
  7  6  1  0
  7  8  1  1
  9  7  1  0
 10  9  2  0
 11 12  1  0
 13  9  1  0
 14 13  1  0
 14 15  1  6
 16 15  1  0
 17 16  2  0
 18 14  1  0
 18 19  2  0
 20 16  1  0
 21 18  1  0
 22 21  1  0
 22 23  1  6
 23 24  1  0
 24 25  1  0
 25 29  1  0
 26 25  2  0
 27 22  1  0
 28 27  2  0
 30 27  1  0
M  END
$$$$
