YDE.pdb
     RDKit          3D

 30 30  0  0  1  0  0  0  0  0999 V2000
   22.8694  -18.9810  -17.2525 O   0  0  0  0  0  0  0  0  0  0  0  0
   22.6518  -17.5989  -17.3017 C   0  0  0  0  0  0  0  0  0  0  0  0
   21.9353  -16.9372  -16.3314 C   0  0  0  0  0  0  0  0  0  0  0  0
   21.7558  -15.5777  -16.4369 C   0  0  0  0  0  0  0  0  0  0  0  0
   22.2632  -14.8182  -17.4819 C   0  0  0  0  0  0  0  0  0  0  0  0
   22.0205  -13.3524  -17.5285 C   0  0  0  0  0  0  0  0  0  0  0  0
   23.3784  -12.6689  -17.4737 C   0  0  2  0  0  0  0  0  0  0  0  0
   23.9967  -12.8790  -16.1631 N   0  0  0  0  0  0  0  0  0  0  0  0
   23.0907  -11.2110  -17.5418 C   0  0  0  0  0  0  0  0  0  0  0  0
   22.8972  -10.4847  -16.5377 O   0  0  0  0  0  0  0  0  0  0  0  0
   22.9779  -15.4904  -18.4460 C   0  0  0  0  0  0  0  0  0  0  0  0
   23.1704  -16.8590  -18.3592 C   0  0  0  0  0  0  0  0  0  0  0  0
   23.0345  -10.6161  -18.8395 N   0  0  0  0  0  0  0  0  0  0  0  0
   22.7900   -9.2091  -18.9346 C   0  0  1  0  0  0  0  0  0  0  0  0
   23.2922   -8.6231  -20.2427 C   0  0  0  0  0  0  0  0  0  0  0  0
   22.9658   -7.1814  -20.3138 C   0  0  0  0  0  0  0  0  0  0  0  0
   22.5439   -6.5789  -21.3174 O   0  0  0  0  0  0  0  0  0  0  0  0
   21.3180   -8.9830  -18.8990 C   0  0  0  0  0  0  0  0  0  0  0  0
   20.5208   -9.5634  -19.6756 O   0  0  0  0  0  0  0  0  0  0  0  0
   23.1579   -6.4569  -19.1353 O   0  0  0  0  0  0  0  0  0  0  0  0
   20.8461   -8.0641  -17.9292 N   0  0  0  0  0  0  0  0  0  0  0  0
   19.3853   -7.7604  -17.8014 C   0  0  1  0  0  0  0  0  0  0  0  0
   18.8616   -8.9677  -17.0861 C   0  0  0  0  0  0  0  0  0  0  0  0
   19.1895   -9.1656  -15.6667 C   0  0  0  0  0  0  0  0  0  0  0  0
   18.0096   -9.4263  -14.8353 C   0  0  0  0  0  0  0  0  0  0  0  0
   16.8692   -9.4841  -15.3666 O   0  0  0  0  0  0  0  0  0  0  0  0
   19.3180   -6.4864  -17.1165 C   0  0  0  0  0  0  0  0  0  0  0  0
   20.3052   -6.0237  -16.5052 O   0  0  0  0  0  0  0  0  0  0  0  0
   18.1044   -9.6175  -13.4720 O   0  0  0  0  0  0  0  0  0  0  0  0
   18.1710   -5.7209  -17.1028 O   0  0  0  0  0  0  0  0  0  0  0  0
  2  1  1  0
  2 12  2  0
  3  2  1  0
  4  3  2  0
  4  5  1  0
  5 11  2  0
  6  5  1  0
  7  6  1  0
  7  8  1  1
  9  7  1  0
 10  9  2  0
 11 12  1  0
 13  9  1  0
 14 13  1  0
 14 15  1  6
 16 15  1  0
 17 16  2  0
 18 14  1  0
 18 19  2  0
 20 16  1  0
 21 18  1  0
 22 21  1  0
 22 23  1  1
 23 24  1  0
 24 25  1  0
 25 29  1  0
 26 25  2  0
 27 22  1  0
 28 27  2  0
 30 27  1  0
M  END
$$$$
