YDE.pdb
     RDKit          3D

 30 30  0  0  1  0  0  0  0  0999 V2000
   16.6029  -18.2067  -15.6790 O   0  0  0  0  0  0  0  0  0  0  0  0
   17.8549  -18.7538  -15.9845 C   0  0  0  0  0  0  0  0  0  0  0  0
   18.7289  -18.1391  -16.8511 C   0  0  0  0  0  0  0  0  0  0  0  0
   19.9445  -18.7277  -17.1110 C   0  0  0  0  0  0  0  0  0  0  0  0
   20.3512  -19.9261  -16.5413 C   0  0  0  0  0  0  0  0  0  0  0  0
   21.6797  -20.5020  -16.8777 C   0  0  0  0  0  0  0  0  0  0  0  0
   22.6335  -20.1204  -15.7559 C   0  0  2  0  0  0  0  0  0  0  0  0
   21.8803  -19.7739  -14.5489 N   0  0  0  0  0  0  0  0  0  0  0  0
   23.2741  -18.8518  -16.1955 C   0  0  0  0  0  0  0  0  0  0  0  0
   23.1361  -17.7532  -15.6061 O   0  0  0  0  0  0  0  0  0  0  0  0
   19.4694  -20.5314  -15.6764 C   0  0  0  0  0  0  0  0  0  0  0  0
   18.2402  -19.9562  -15.4009 C   0  0  0  0  0  0  0  0  0  0  0  0
   24.0947  -18.9048  -17.3638 N   0  0  0  0  0  0  0  0  0  0  0  0
   24.7599  -17.7095  -17.7847 C   0  0  1  0  0  0  0  0  0  0  0  0
   26.0630  -17.9987  -18.5092 C   0  0  0  0  0  0  0  0  0  0  0  0
   26.7465  -16.7321  -18.8539 C   0  0  0  0  0  0  0  0  0  0  0  0
   26.2772  -15.5889  -18.7099 O   0  0  0  0  0  0  0  0  0  0  0  0
   23.8796  -16.9954  -18.7511 C   0  0  0  0  0  0  0  0  0  0  0  0
   23.5197  -17.4972  -19.8440 O   0  0  0  0  0  0  0  0  0  0  0  0
   28.0312  -16.8613  -19.3862 O   0  0  0  0  0  0  0  0  0  0  0  0
   23.4565  -15.6963  -18.3755 N   0  0  0  0  0  0  0  0  0  0  0  0
   22.5360  -14.9023  -19.2499 C   0  0  1  0  0  0  0  0  0  0  0  0
   22.1481  -13.7589  -18.3634 C   0  0  0  0  0  0  0  0  0  0  0  0
   21.3179  -12.6735  -18.9057 C   0  0  0  0  0  0  0  0  0  0  0  0
   21.1879  -11.5364  -17.9884 C   0  0  0  0  0  0  0  0  0  0  0  0
   21.7907  -11.5514  -16.8826 O   0  0  0  0  0  0  0  0  0  0  0  0
   23.3028  -14.6042  -20.4415 C   0  0  0  0  0  0  0  0  0  0  0  0
   22.7795  -14.6348  -21.5762 O   0  0  0  0  0  0  0  0  0  0  0  0
   20.4208  -10.4320  -18.2981 O   0  0  0  0  0  0  0  0  0  0  0  0
   24.6403  -14.2724  -20.3889 O   0  0  0  0  0  0  0  0  0  0  0  0
  2  1  1  0
  2 12  2  0
  3  2  1  0
  4  3  2  0
  4  5  1  0
  5 11  2  0
  6  5  1  0
  7  6  1  0
  7  8  1  1
  9  7  1  0
 10  9  2  0
 11 12  1  0
 13  9  1  0
 14 13  1  0
 14 15  1  6
 16 15  1  0
 17 16  2  0
 18 14  1  0
 18 19  2  0
 20 16  1  0
 21 18  1  0
 22 21  1  0
 22 23  1  1
 23 24  1  0
 24 25  1  0
 25 29  1  0
 26 25  2  0
 27 22  1  0
 28 27  2  0
 30 27  1  0
M  END
$$$$
