YDE.pdb
     RDKit          3D

 30 30  0  0  1  0  0  0  0  0999 V2000
   25.7969  -14.4195  -22.0978 O   0  0  0  0  0  0  0  0  0  0  0  0
   25.0338  -13.4243  -21.4755 C   0  0  0  0  0  0  0  0  0  0  0  0
   25.2465  -13.0508  -20.1686 C   0  0  0  0  0  0  0  0  0  0  0  0
   24.4624  -12.0663  -19.6140 C   0  0  0  0  0  0  0  0  0  0  0  0
   23.4511  -11.4140  -20.3053 C   0  0  0  0  0  0  0  0  0  0  0  0
   22.6419  -10.3636  -19.6333 C   0  0  0  0  0  0  0  0  0  0  0  0
   21.7098  -11.0674  -18.6587 C   0  0  2  0  0  0  0  0  0  0  0  0
   20.7180  -11.8580  -19.3904 N   0  0  0  0  0  0  0  0  0  0  0  0
   20.9358   -9.9826  -17.9978 C   0  0  0  0  0  0  0  0  0  0  0  0
   20.2560   -9.1276  -18.6143 O   0  0  0  0  0  0  0  0  0  0  0  0
   23.2477  -11.7955  -21.6111 C   0  0  0  0  0  0  0  0  0  0  0  0
   24.0256  -12.7848  -22.1891 C   0  0  0  0  0  0  0  0  0  0  0  0
   20.9798   -9.9246  -16.5709 N   0  0  0  0  0  0  0  0  0  0  0  0
   20.3013   -8.8510  -15.9109 C   0  0  1  0  0  0  0  0  0  0  0  0
   19.5886   -9.3074  -14.6498 C   0  0  0  0  0  0  0  0  0  0  0  0
   18.4281  -10.1569  -14.9994 C   0  0  0  0  0  0  0  0  0  0  0  0
   17.5897   -9.9152  -15.8863 O   0  0  0  0  0  0  0  0  0  0  0  0
   21.3128   -7.8409  -15.4918 C   0  0  0  0  0  0  0  0  0  0  0  0
   22.5283   -8.1160  -15.3415 O   0  0  0  0  0  0  0  0  0  0  0  0
   18.2859  -11.3275  -14.2511 O   0  0  0  0  0  0  0  0  0  0  0  0
   20.8332   -6.5271  -15.2651 N   0  0  0  0  0  0  0  0  0  0  0  0
   21.7790   -5.3940  -15.0120 C   0  0  1  0  0  0  0  0  0  0  0  0
   20.9531   -4.1943  -15.3614 C   0  0  0  0  0  0  0  0  0  0  0  0
   21.4675   -2.8503  -15.0603 C   0  0  0  0  0  0  0  0  0  0  0  0
   20.5399   -1.7808  -15.4437 C   0  0  0  0  0  0  0  0  0  0  0  0
   19.4455   -2.0690  -15.9966 O   0  0  0  0  0  0  0  0  0  0  0  0
   22.2001   -5.5476  -13.6351 C   0  0  0  0  0  0  0  0  0  0  0  0
   21.5668   -6.2734  -12.8385 O   0  0  0  0  0  0  0  0  0  0  0  0
   20.8241   -0.4502  -15.2140 O   0  0  0  0  0  0  0  0  0  0  0  0
   23.3135   -4.9074  -13.1330 O   0  0  0  0  0  0  0  0  0  0  0  0
  2  1  1  0
  2 12  2  0
  3  2  1  0
  4  3  2  0
  4  5  1  0
  5 11  2  0
  6  5  1  0
  7  6  1  0
  7  8  1  6
  9  7  1  0
 10  9  2  0
 11 12  1  0
 13  9  1  0
 14 13  1  0
 14 15  1  1
 16 15  1  0
 17 16  2  0
 18 14  1  0
 18 19  2  0
 20 16  1  0
 21 18  1  0
 22 21  1  0
 22 23  1  1
 23 24  1  0
 24 25  1  0
 25 29  1  0
 26 25  2  0
 27 22  1  0
 28 27  2  0
 30 27  1  0
M  END
$$$$
