YDE.pdb
     RDKit          3D

 30 30  0  0  1  0  0  0  0  0999 V2000
   31.4120  -21.4721   -9.7889 O   0  0  0  0  0  0  0  0  0  0  0  0
   30.1547  -21.1489  -10.3131 C   0  0  0  0  0  0  0  0  0  0  0  0
   30.0053  -20.5898  -11.5612 C   0  0  0  0  0  0  0  0  0  0  0  0
   28.7426  -20.2945  -12.0195 C   0  0  0  0  0  0  0  0  0  0  0  0
   27.5882  -20.5311  -11.2862 C   0  0  0  0  0  0  0  0  0  0  0  0
   26.2584  -20.1778  -11.8490 C   0  0  0  0  0  0  0  0  0  0  0  0
   25.5575  -21.4812  -12.2010 C   0  0  2  0  0  0  0  0  0  0  0  0
   26.2461  -22.1406  -13.3123 N   0  0  0  0  0  0  0  0  0  0  0  0
   24.2307  -21.0831  -12.7433 C   0  0  0  0  0  0  0  0  0  0  0  0
   23.9614  -21.0192  -13.9667 O   0  0  0  0  0  0  0  0  0  0  0  0
   27.7497  -21.0905  -10.0401 C   0  0  0  0  0  0  0  0  0  0  0  0
   29.0121  -21.3954   -9.5591 C   0  0  0  0  0  0  0  0  0  0  0  0
   23.2101  -20.7560  -11.7986 N   0  0  0  0  0  0  0  0  0  0  0  0
   21.8470  -20.7700  -12.2351 C   0  0  1  0  0  0  0  0  0  0  0  0
   20.8699  -20.8313  -11.0741 C   0  0  0  0  0  0  0  0  0  0  0  0
   19.4902  -21.0117  -11.5782 C   0  0  0  0  0  0  0  0  0  0  0  0
   19.1600  -21.1224  -12.7727 O   0  0  0  0  0  0  0  0  0  0  0  0
   21.5719  -19.4994  -12.9624 C   0  0  0  0  0  0  0  0  0  0  0  0
   21.6047  -18.3750  -12.4055 O   0  0  0  0  0  0  0  0  0  0  0  0
   18.4897  -21.0582  -10.6047 O   0  0  0  0  0  0  0  0  0  0  0  0
   21.2648  -19.6175  -14.3406 N   0  0  0  0  0  0  0  0  0  0  0  0
   21.0190  -18.4036  -15.1824 C   0  0  1  0  0  0  0  0  0  0  0  0
   21.7528  -18.7286  -16.4472 C   0  0  0  0  0  0  0  0  0  0  0  0
   21.6970  -17.7892  -17.5767 C   0  0  0  0  0  0  0  0  0  0  0  0
   22.3557  -18.3013  -18.7830 C   0  0  0  0  0  0  0  0  0  0  0  0
   22.4173  -17.5834  -19.8160 O   0  0  0  0  0  0  0  0  0  0  0  0
   19.5787  -18.2710  -15.2511 C   0  0  0  0  0  0  0  0  0  0  0  0
   18.8254  -19.2480  -15.0501 O   0  0  0  0  0  0  0  0  0  0  0  0
   22.9228  -19.5585  -18.8278 O   0  0  0  0  0  0  0  0  0  0  0  0
   18.9658  -17.0696  -15.5385 O   0  0  0  0  0  0  0  0  0  0  0  0
  2  1  1  0
  2 12  2  0
  3  2  1  0
  4  3  2  0
  4  5  1  0
  5 11  2  0
  6  5  1  0
  7  6  1  0
  7  8  1  6
  9  7  1  0
 10  9  2  0
 11 12  1  0
 13  9  1  0
 14 13  1  0
 14 15  1  1
 16 15  1  0
 17 16  2  0
 18 14  1  0
 18 19  2  0
 20 16  1  0
 21 18  1  0
 22 21  1  0
 22 23  1  6
 23 24  1  0
 24 25  1  0
 25 29  1  0
 26 25  2  0
 27 22  1  0
 28 27  2  0
 30 27  1  0
M  END
$$$$
