YDE.pdb
     RDKit          3D

 30 30  0  0  1  0  0  0  0  0999 V2000
   18.2414  -14.8712  -17.4570 O   0  0  0  0  0  0  0  0  0  0  0  0
   18.4419  -13.5103  -17.1971 C   0  0  0  0  0  0  0  0  0  0  0  0
   18.0510  -12.9271  -16.0140 C   0  0  0  0  0  0  0  0  0  0  0  0
   18.2756  -11.5842  -15.8192 C   0  0  0  0  0  0  0  0  0  0  0  0
   18.8844  -10.7663  -16.7607 C   0  0  0  0  0  0  0  0  0  0  0  0
   19.0864   -9.3209  -16.4778 C   0  0  0  0  0  0  0  0  0  0  0  0
   20.2483   -9.2108  -15.5024 C   0  0  2  0  0  0  0  0  0  0  0  0
   20.1011  -10.1953  -14.4286 N   0  0  0  0  0  0  0  0  0  0  0  0
   20.0883   -7.8864  -14.8441 C   0  0  0  0  0  0  0  0  0  0  0  0
   19.3005   -7.6641  -13.8937 O   0  0  0  0  0  0  0  0  0  0  0  0
   19.2712  -11.3602  -17.9396 C   0  0  0  0  0  0  0  0  0  0  0  0
   19.0544  -12.7106  -18.1565 C   0  0  0  0  0  0  0  0  0  0  0  0
   20.8890   -6.8107  -15.3370 N   0  0  0  0  0  0  0  0  0  0  0  0
   20.7696   -5.5292  -14.7107 C   0  0  1  0  0  0  0  0  0  0  0  0
   22.1214   -4.9037  -14.4142 C   0  0  0  0  0  0  0  0  0  0  0  0
   21.9427   -3.6142  -13.7102 C   0  0  0  0  0  0  0  0  0  0  0  0
   21.1011   -3.3785  -12.8246 O   0  0  0  0  0  0  0  0  0  0  0  0
   20.0665   -4.6099  -15.6486 C   0  0  0  0  0  0  0  0  0  0  0  0
   20.4188   -4.4557  -16.8434 O   0  0  0  0  0  0  0  0  0  0  0  0
   22.8093   -2.5883  -14.0939 O   0  0  0  0  0  0  0  0  0  0  0  0
   18.9582   -3.9012  -15.1221 N   0  0  0  0  0  0  0  0  0  0  0  0
   18.1823   -2.9423  -15.9712 C   0  0  1  0  0  0  0  0  0  0  0  0
   16.7680   -3.2084  -15.5560 C   0  0  0  0  0  0  0  0  0  0  0  0
   15.6905   -2.3500  -16.0696 C   0  0  0  0  0  0  0  0  0  0  0  0
   14.3610   -2.7537  -15.5997 C   0  0  0  0  0  0  0  0  0  0  0  0
   14.2456   -3.7209  -14.8013 O   0  0  0  0  0  0  0  0  0  0  0  0
   18.7385   -1.6374  -15.6804 C   0  0  0  0  0  0  0  0  0  0  0  0
   18.7536   -0.7305  -16.5405 O   0  0  0  0  0  0  0  0  0  0  0  0
   13.2143   -2.1005  -16.0029 O   0  0  0  0  0  0  0  0  0  0  0  0
   19.2760   -1.3272  -14.4489 O   0  0  0  0  0  0  0  0  0  0  0  0
  2  1  1  0
  2 12  2  0
  3  2  1  0
  4  3  2  0
  4  5  1  0
  5 11  2  0
  6  5  1  0
  7  6  1  0
  7  8  1  1
  9  7  1  0
 10  9  2  0
 11 12  1  0
 13  9  1  0
 14 13  1  0
 14 15  1  6
 16 15  1  0
 17 16  2  0
 18 14  1  0
 18 19  2  0
 20 16  1  0
 21 18  1  0
 22 21  1  0
 22 23  1  1
 23 24  1  0
 24 25  1  0
 25 29  1  0
 26 25  2  0
 27 22  1  0
 28 27  2  0
 30 27  1  0
M  END
$$$$
