YDE.pdb
     RDKit          3D

 30 30  0  0  1  0  0  0  0  0999 V2000
   27.4719  -16.0229  -17.1322 O   0  0  0  0  0  0  0  0  0  0  0  0
   26.7110  -14.8493  -17.0719 C   0  0  0  0  0  0  0  0  0  0  0  0
   25.9011  -14.5581  -15.9986 C   0  0  0  0  0  0  0  0  0  0  0  0
   25.1775  -13.3884  -15.9993 C   0  0  0  0  0  0  0  0  0  0  0  0
   25.2157  -12.4663  -17.0358 C   0  0  0  0  0  0  0  0  0  0  0  0
   24.3985  -11.2266  -16.9652 C   0  0  0  0  0  0  0  0  0  0  0  0
   22.9633  -11.6140  -17.2873 C   0  0  2  0  0  0  0  0  0  0  0  0
   22.8513  -12.0139  -18.6914 N   0  0  0  0  0  0  0  0  0  0  0  0
   22.1787  -10.3551  -17.1749 C   0  0  0  0  0  0  0  0  0  0  0  0
   22.0244   -9.5364  -18.1125 O   0  0  0  0  0  0  0  0  0  0  0  0
   26.0290  -12.7678  -18.1034 C   0  0  0  0  0  0  0  0  0  0  0  0
   26.7659  -13.9401  -18.1232 C   0  0  0  0  0  0  0  0  0  0  0  0
   21.5693  -10.0755  -15.9132 N   0  0  0  0  0  0  0  0  0  0  0  0
   20.7725   -8.8932  -15.7880 C   0  0  1  0  0  0  0  0  0  0  0  0
   19.6282   -9.0699  -14.8051 C   0  0  0  0  0  0  0  0  0  0  0  0
   18.6855  -10.0978  -15.2999 C   0  0  0  0  0  0  0  0  0  0  0  0
   18.1646  -10.1248  -16.4295 O   0  0  0  0  0  0  0  0  0  0  0  0
   21.6322   -7.7995  -15.2553 C   0  0  0  0  0  0  0  0  0  0  0  0
   22.6048   -8.0091  -14.4899 O   0  0  0  0  0  0  0  0  0  0  0  0
   18.3701  -11.1163  -14.3977 O   0  0  0  0  0  0  0  0  0  0  0  0
   21.2975   -6.4831  -15.6588 N   0  0  0  0  0  0  0  0  0  0  0  0
   22.1355   -5.3133  -15.2447 C   0  0  1  0  0  0  0  0  0  0  0  0
   21.6959   -4.2429  -16.1958 C   0  0  0  0  0  0  0  0  0  0  0  0
   22.1815   -2.8677  -16.0106 C   0  0  0  0  0  0  0  0  0  0  0  0
   21.6278   -1.9261  -16.9895 C   0  0  0  0  0  0  0  0  0  0  0  0
   20.9166   -2.3534  -17.9370 O   0  0  0  0  0  0  0  0  0  0  0  0
   21.8572   -5.1227  -13.8365 C   0  0  0  0  0  0  0  0  0  0  0  0
   22.6208   -4.4536  -13.1074 O   0  0  0  0  0  0  0  0  0  0  0  0
   21.8574   -0.5679  -16.9075 O   0  0  0  0  0  0  0  0  0  0  0  0
   20.7436   -5.6638  -13.2293 O   0  0  0  0  0  0  0  0  0  0  0  0
  2  1  1  0
  2 12  2  0
  3  2  1  0
  4  3  2  0
  4  5  1  0
  5 11  2  0
  6  5  1  0
  7  6  1  0
  7  8  1  6
  9  7  1  0
 10  9  2  0
 11 12  1  0
 13  9  1  0
 14 13  1  0
 14 15  1  1
 16 15  1  0
 17 16  2  0
 18 14  1  0
 18 19  2  0
 20 16  1  0
 21 18  1  0
 22 21  1  0
 22 23  1  6
 23 24  1  0
 24 25  1  0
 25 29  1  0
 26 25  2  0
 27 22  1  0
 28 27  2  0
 30 27  1  0
M  END
$$$$
