YDE.pdb
     RDKit          3D

 30 30  0  0  1  0  0  0  0  0999 V2000
   30.0421  -11.0166  -16.2368 O   0  0  0  0  0  0  0  0  0  0  0  0
   28.7505  -10.4775  -16.2050 C   0  0  0  0  0  0  0  0  0  0  0  0
   28.3676   -9.4487  -17.0344 C   0  0  0  0  0  0  0  0  0  0  0  0
   27.0837   -8.9621  -16.9543 C   0  0  0  0  0  0  0  0  0  0  0  0
   26.1327   -9.4550  -16.0718 C   0  0  0  0  0  0  0  0  0  0  0  0
   24.7661   -8.8709  -16.0411 C   0  0  0  0  0  0  0  0  0  0  0  0
   23.8121   -9.9281  -16.5759 C   0  0  2  0  0  0  0  0  0  0  0  0
   24.1928  -10.3092  -17.9375 N   0  0  0  0  0  0  0  0  0  0  0  0
   22.4989   -9.2429  -16.7137 C   0  0  0  0  0  0  0  0  0  0  0  0
   22.2146   -8.4473  -17.6408 O   0  0  0  0  0  0  0  0  0  0  0  0
   26.5266  -10.4835  -15.2478 C   0  0  0  0  0  0  0  0  0  0  0  0
   27.8146  -10.9883  -15.3117 C   0  0  0  0  0  0  0  0  0  0  0  0
   21.5105   -9.5188  -15.7197 N   0  0  0  0  0  0  0  0  0  0  0  0
   20.1908   -8.9973  -15.9071 C   0  0  1  0  0  0  0  0  0  0  0  0
   19.1343   -9.8363  -15.2096 C   0  0  0  0  0  0  0  0  0  0  0  0
   17.7859   -9.2960  -15.4926 C   0  0  0  0  0  0  0  0  0  0  0  0
   17.4843   -8.5518  -16.4430 O   0  0  0  0  0  0  0  0  0  0  0  0
   20.1305   -7.6381  -15.3005 C   0  0  0  0  0  0  0  0  0  0  0  0
   20.6195   -7.3720  -14.1754 O   0  0  0  0  0  0  0  0  0  0  0  0
   16.7818   -9.6708  -14.5970 O   0  0  0  0  0  0  0  0  0  0  0  0
   19.4828   -6.6363  -16.0650 N   0  0  0  0  0  0  0  0  0  0  0  0
   19.3342   -5.2416  -15.5403 C   0  0  1  0  0  0  0  0  0  0  0  0
   19.5306   -4.4073  -16.7687 C   0  0  0  0  0  0  0  0  0  0  0  0
   19.3848   -2.9470  -16.6813 C   0  0  0  0  0  0  0  0  0  0  0  0
   19.6404   -2.2668  -17.9554 C   0  0  0  0  0  0  0  0  0  0  0  0
   20.8203   -1.9712  -18.2822 O   0  0  0  0  0  0  0  0  0  0  0  0
   18.0350   -5.2097  -14.9017 C   0  0  0  0  0  0  0  0  0  0  0  0
   17.7615   -4.3607  -14.0260 O   0  0  0  0  0  0  0  0  0  0  0  0
   18.6208   -1.9369  -18.8248 O   0  0  0  0  0  0  0  0  0  0  0  0
   17.0376   -6.1061  -15.2232 O   0  0  0  0  0  0  0  0  0  0  0  0
  2  1  1  0
  2 12  2  0
  3  2  1  0
  4  3  2  0
  4  5  1  0
  5 11  2  0
  6  5  1  0
  7  6  1  0
  7  8  1  6
  9  7  1  0
 10  9  2  0
 11 12  1  0
 13  9  1  0
 14 13  1  0
 14 15  1  1
 16 15  1  0
 17 16  2  0
 18 14  1  0
 18 19  2  0
 20 16  1  0
 21 18  1  0
 22 21  1  0
 22 23  1  6
 23 24  1  0
 24 25  1  0
 25 29  1  0
 26 25  2  0
 27 22  1  0
 28 27  2  0
 30 27  1  0
M  END
$$$$
