YDE.pdb
     RDKit          3D

 30 30  0  0  1  0  0  0  0  0999 V2000
   21.2510  -15.4359  -19.7986 O   0  0  0  0  0  0  0  0  0  0  0  0
   20.6381  -14.1846  -19.6625 C   0  0  0  0  0  0  0  0  0  0  0  0
   19.2748  -14.0250  -19.7546 C   0  0  0  0  0  0  0  0  0  0  0  0
   18.7331  -12.7688  -19.6124 C   0  0  0  0  0  0  0  0  0  0  0  0
   19.4921  -11.6310  -19.3766 C   0  0  0  0  0  0  0  0  0  0  0  0
   18.8321  -10.3060  -19.2407 C   0  0  0  0  0  0  0  0  0  0  0  0
   18.5293  -10.1028  -17.7639 C   0  0  2  0  0  0  0  0  0  0  0  0
   17.4686  -11.0169  -17.3356 N   0  0  0  0  0  0  0  0  0  0  0  0
   17.9371   -8.7418  -17.6649 C   0  0  0  0  0  0  0  0  0  0  0  0
   16.7361   -8.4777  -17.9118 O   0  0  0  0  0  0  0  0  0  0  0  0
   20.8538  -11.8026  -19.2863 C   0  0  0  0  0  0  0  0  0  0  0  0
   21.4201  -13.0586  -19.4266 C   0  0  0  0  0  0  0  0  0  0  0  0
   18.8039   -7.6798  -17.2622 N   0  0  0  0  0  0  0  0  0  0  0  0
   18.2508   -6.3683  -17.1111 C   0  0  1  0  0  0  0  0  0  0  0  0
   17.9740   -6.0226  -15.6584 C   0  0  0  0  0  0  0  0  0  0  0  0
   17.1322   -4.8082  -15.5751 C   0  0  0  0  0  0  0  0  0  0  0  0
   17.4840   -3.6556  -15.8849 O   0  0  0  0  0  0  0  0  0  0  0  0
   19.2459   -5.3771  -17.6073 C   0  0  0  0  0  0  0  0  0  0  0  0
   20.4825   -5.5098  -17.4372 O   0  0  0  0  0  0  0  0  0  0  0  0
   15.8321   -5.0023  -15.1034 O   0  0  0  0  0  0  0  0  0  0  0  0
   18.7249   -4.2529  -18.2946 N   0  0  0  0  0  0  0  0  0  0  0  0
   19.6326   -3.1944  -18.8407 C   0  0  1  0  0  0  0  0  0  0  0  0
   18.7275   -2.4270  -19.7548 C   0  0  0  0  0  0  0  0  0  0  0  0
   19.0644   -2.3189  -21.1817 C   0  0  0  0  0  0  0  0  0  0  0  0
   18.0856   -1.5379  -21.9456 C   0  0  0  0  0  0  0  0  0  0  0  0
   18.1597   -0.2807  -21.9583 O   0  0  0  0  0  0  0  0  0  0  0  0
   20.1618   -2.5085  -17.6805 C   0  0  0  0  0  0  0  0  0  0  0  0
   19.4709   -2.3420  -16.6522 O   0  0  0  0  0  0  0  0  0  0  0  0
   17.0730   -2.1389  -22.6651 O   0  0  0  0  0  0  0  0  0  0  0  0
   21.4460   -2.0070  -17.6475 O   0  0  0  0  0  0  0  0  0  0  0  0
  2  1  1  0
  2 12  2  0
  3  2  1  0
  4  3  2  0
  4  5  1  0
  5 11  2  0
  6  5  1  0
  7  6  1  0
  7  8  1  6
  9  7  1  0
 10  9  2  0
 11 12  1  0
 13  9  1  0
 14 13  1  0
 14 15  1  1
 16 15  1  0
 17 16  2  0
 18 14  1  0
 18 19  2  0
 20 16  1  0
 21 18  1  0
 22 21  1  0
 22 23  1  6
 23 24  1  0
 24 25  1  0
 25 29  1  0
 26 25  2  0
 27 22  1  0
 28 27  2  0
 30 27  1  0
M  END
$$$$
