YDE.pdb
     RDKit          3D

 30 30  0  0  1  0  0  0  0  0999 V2000
   26.5474  -20.5281   -7.7603 O   0  0  0  0  0  0  0  0  0  0  0  0
   25.9863  -20.4054   -9.0371 C   0  0  0  0  0  0  0  0  0  0  0  0
   24.6488  -20.1441   -9.2253 C   0  0  0  0  0  0  0  0  0  0  0  0
   24.1579  -20.0356  -10.5055 C   0  0  0  0  0  0  0  0  0  0  0  0
   24.9444  -20.1758  -11.6405 C   0  0  0  0  0  0  0  0  0  0  0  0
   24.3376  -20.0507  -12.9917 C   0  0  0  0  0  0  0  0  0  0  0  0
   23.5399  -21.3205  -13.2468 C   0  0  2  0  0  0  0  0  0  0  0  0
   24.4451  -22.4418  -13.5062 N   0  0  0  0  0  0  0  0  0  0  0  0
   22.8260  -21.0883  -14.5311 C   0  0  0  0  0  0  0  0  0  0  0  0
   23.0398  -21.7385  -15.5821 O   0  0  0  0  0  0  0  0  0  0  0  0
   26.2799  -20.4368  -11.4401 C   0  0  0  0  0  0  0  0  0  0  0  0
   26.7949  -20.5502  -10.1596 C   0  0  0  0  0  0  0  0  0  0  0  0
   21.8382  -20.0563  -14.5522 N   0  0  0  0  0  0  0  0  0  0  0  0
   20.8527  -20.0768  -15.5900 C   0  0  1  0  0  0  0  0  0  0  0  0
   20.0562  -21.3699  -15.6039 C   0  0  0  0  0  0  0  0  0  0  0  0
   19.0759  -21.3526  -16.7125 C   0  0  0  0  0  0  0  0  0  0  0  0
   19.3475  -21.2623  -17.9233 O   0  0  0  0  0  0  0  0  0  0  0  0
   19.8812  -18.9757  -15.3393 C   0  0  0  0  0  0  0  0  0  0  0  0
   19.3280  -18.7956  -14.2271 O   0  0  0  0  0  0  0  0  0  0  0  0
   17.7340  -21.4475  -16.3372 O   0  0  0  0  0  0  0  0  0  0  0  0
   19.6022  -18.1216  -16.4349 N   0  0  0  0  0  0  0  0  0  0  0  0
   18.7959  -16.8729  -16.2531 C   0  0  1  0  0  0  0  0  0  0  0  0
   19.3572  -15.9652  -17.3040 C   0  0  0  0  0  0  0  0  0  0  0  0
   18.6114  -15.7590  -18.5541 C   0  0  0  0  0  0  0  0  0  0  0  0
   18.4966  -14.3454  -18.9282 C   0  0  0  0  0  0  0  0  0  0  0  0
   18.9759  -13.4570  -18.1749 O   0  0  0  0  0  0  0  0  0  0  0  0
   17.4146  -17.2870  -16.3846 C   0  0  0  0  0  0  0  0  0  0  0  0
   16.5118  -16.7696  -15.6920 O   0  0  0  0  0  0  0  0  0  0  0  0
   17.8768  -13.9464  -20.0947 O   0  0  0  0  0  0  0  0  0  0  0  0
   17.0239  -18.2656  -17.2742 O   0  0  0  0  0  0  0  0  0  0  0  0
  2  1  1  0
  2 12  2  0
  3  2  1  0
  4  3  2  0
  4  5  1  0
  5 11  2  0
  6  5  1  0
  7  6  1  0
  7  8  1  6
  9  7  1  0
 10  9  2  0
 11 12  1  0
 13  9  1  0
 14 13  1  0
 14 15  1  1
 16 15  1  0
 17 16  2  0
 18 14  1  0
 18 19  2  0
 20 16  1  0
 21 18  1  0
 22 21  1  0
 22 23  1  6
 23 24  1  0
 24 25  1  0
 25 29  1  0
 26 25  2  0
 27 22  1  0
 28 27  2  0
 30 27  1  0
M  END
$$$$
