YDE.pdb
     RDKit          3D

 30 30  0  0  1  0  0  0  0  0999 V2000
    9.7983   -8.8299   -6.6044 O   0  0  0  0  0  0  0  0  0  0  0  0
   10.8293   -8.3803   -7.4379 C   0  0  0  0  0  0  0  0  0  0  0  0
   11.2085   -9.0687   -8.5671 C   0  0  0  0  0  0  0  0  0  0  0  0
   12.2297   -8.5751   -9.3450 C   0  0  0  0  0  0  0  0  0  0  0  0
   12.9136   -7.4026   -9.0552 C   0  0  0  0  0  0  0  0  0  0  0  0
   14.0115   -6.9376   -9.9429 C   0  0  0  0  0  0  0  0  0  0  0  0
   15.1923   -7.8719   -9.7265 C   0  0  2  0  0  0  0  0  0  0  0  0
   15.8506   -7.5672   -8.4545 N   0  0  0  0  0  0  0  0  0  0  0  0
   16.1817   -7.5090  -10.7763 C   0  0  0  0  0  0  0  0  0  0  0  0
   17.0919   -6.6600  -10.6216 O   0  0  0  0  0  0  0  0  0  0  0  0
   12.5258   -6.7229   -7.9241 C   0  0  0  0  0  0  0  0  0  0  0  0
   11.5002   -7.2022   -7.1266 C   0  0  0  0  0  0  0  0  0  0  0  0
   16.0750   -8.1783  -12.0341 N   0  0  0  0  0  0  0  0  0  0  0  0
   17.0015   -7.8354  -13.0697 C   0  0  1  0  0  0  0  0  0  0  0  0
   17.2605   -8.9926  -14.0187 C   0  0  0  0  0  0  0  0  0  0  0  0
   17.9103  -10.1087  -13.2959 C   0  0  0  0  0  0  0  0  0  0  0  0
   18.9437  -10.0271  -12.6078 O   0  0  0  0  0  0  0  0  0  0  0  0
   16.4130   -6.7352  -13.8834 C   0  0  0  0  0  0  0  0  0  0  0  0
   15.2369   -6.7657  -14.3210 O   0  0  0  0  0  0  0  0  0  0  0  0
   17.2867  -11.3528  -13.4142 O   0  0  0  0  0  0  0  0  0  0  0  0
   17.2567   -5.6281  -14.1482 N   0  0  0  0  0  0  0  0  0  0  0  0
   16.7955   -4.4971  -15.0145 C   0  0  1  0  0  0  0  0  0  0  0  0
   17.0815   -3.2968  -14.1653 C   0  0  0  0  0  0  0  0  0  0  0  0
   16.0406   -2.2743  -13.9853 C   0  0  0  0  0  0  0  0  0  0  0  0
   15.6988   -2.0440  -12.5777 C   0  0  0  0  0  0  0  0  0  0  0  0
   16.5086   -1.4377  -11.8274 O   0  0  0  0  0  0  0  0  0  0  0  0
   17.5311   -4.6397  -16.2536 C   0  0  0  0  0  0  0  0  0  0  0  0
   18.5302   -5.3865  -16.3344 O   0  0  0  0  0  0  0  0  0  0  0  0
   14.5027   -2.4699  -12.0373 O   0  0  0  0  0  0  0  0  0  0  0  0
   17.1714   -3.9658  -17.4017 O   0  0  0  0  0  0  0  0  0  0  0  0
  2  1  1  0
  2 12  2  0
  3  2  1  0
  4  3  2  0
  4  5  1  0
  5 11  2  0
  6  5  1  0
  7  6  1  0
  7  8  1  1
  9  7  1  0
 10  9  2  0
 11 12  1  0
 13  9  1  0
 14 13  1  0
 14 15  1  6
 16 15  1  0
 17 16  2  0
 18 14  1  0
 18 19  2  0
 20 16  1  0
 21 18  1  0
 22 21  1  0
 22 23  1  1
 23 24  1  0
 24 25  1  0
 25 29  1  0
 26 25  2  0
 27 22  1  0
 28 27  2  0
 30 27  1  0
M  END
$$$$
