YDE.pdb
     RDKit          3D

 30 30  0  0  1  0  0  0  0  0999 V2000
   20.8001  -33.1007   -1.9123 O   0  0  0  0  0  0  0  0  0  0  0  0
   21.9414  -33.0113   -2.7182 C   0  0  0  0  0  0  0  0  0  0  0  0
   21.8666  -32.7218   -4.0610 C   0  0  0  0  0  0  0  0  0  0  0  0
   23.0248  -32.6486   -4.7992 C   0  0  0  0  0  0  0  0  0  0  0  0
   24.2882  -32.8522   -4.2619 C   0  0  0  0  0  0  0  0  0  0  0  0
   25.4932  -32.7619   -5.1276 C   0  0  0  0  0  0  0  0  0  0  0  0
   25.8464  -34.1777   -5.5573 C   0  0  2  0  0  0  0  0  0  0  0  0
   24.6268  -34.9574   -5.7781 N   0  0  0  0  0  0  0  0  0  0  0  0
   26.4996  -34.7991   -4.3740 C   0  0  0  0  0  0  0  0  0  0  0  0
   25.9842  -35.7111   -3.6843 O   0  0  0  0  0  0  0  0  0  0  0  0
   24.3507  -33.1407   -2.9184 C   0  0  0  0  0  0  0  0  0  0  0  0
   23.1969  -33.2195   -2.1567 C   0  0  0  0  0  0  0  0  0  0  0  0
   27.7948  -34.3155   -4.0137 N   0  0  0  0  0  0  0  0  0  0  0  0
   28.4873  -34.9573   -2.9379 C   0  0  1  0  0  0  0  0  0  0  0  0
   29.9782  -34.6685   -2.9575 C   0  0  0  0  0  0  0  0  0  0  0  0
   30.7421  -35.9184   -2.7462 C   0  0  0  0  0  0  0  0  0  0  0  0
   30.7847  -36.8865   -3.5266 O   0  0  0  0  0  0  0  0  0  0  0  0
   27.9618  -34.4197   -1.6518 C   0  0  0  0  0  0  0  0  0  0  0  0
   27.7763  -33.1946   -1.4508 O   0  0  0  0  0  0  0  0  0  0  0  0
   31.4708  -35.9904   -1.5569 O   0  0  0  0  0  0  0  0  0  0  0  0
   27.6742  -35.3719   -0.6428 N   0  0  0  0  0  0  0  0  0  0  0  0
   27.1182  -34.9479    0.6815 C   0  0  1  0  0  0  0  0  0  0  0  0
   26.0179  -35.9389    0.9067 C   0  0  0  0  0  0  0  0  0  0  0  0
   24.7147  -35.7313    0.2586 C   0  0  0  0  0  0  0  0  0  0  0  0
   23.6952  -36.6898    0.6983 C   0  0  0  0  0  0  0  0  0  0  0  0
   23.2428  -37.5399   -0.1135 O   0  0  0  0  0  0  0  0  0  0  0  0
   28.2434  -34.9678    1.5927 C   0  0  0  0  0  0  0  0  0  0  0  0
   29.2528  -35.6688    1.3645 O   0  0  0  0  0  0  0  0  0  0  0  0
   23.2084  -36.6976    1.9895 O   0  0  0  0  0  0  0  0  0  0  0  0
   28.2621  -34.2200    2.7512 O   0  0  0  0  0  0  0  0  0  0  0  0
  2  1  1  0
  2 12  2  0
  3  2  1  0
  4  3  2  0
  4  5  1  0
  5 11  2  0
  6  5  1  0
  7  6  1  0
  7  8  1  1
  9  7  1  0
 10  9  2  0
 11 12  1  0
 13  9  1  0
 14 13  1  0
 14 15  1  6
 16 15  1  0
 17 16  2  0
 18 14  1  0
 18 19  2  0
 20 16  1  0
 21 18  1  0
 22 21  1  0
 22 23  1  1
 23 24  1  0
 24 25  1  0
 25 29  1  0
 26 25  2  0
 27 22  1  0
 28 27  2  0
 30 27  1  0
M  END
$$$$
