YDE.pdb
     RDKit          3D

 30 30  0  0  1  0  0  0  0  0999 V2000
   29.8313  -19.5761   -3.5876 O   0  0  0  0  0  0  0  0  0  0  0  0
   28.9892  -19.6660   -4.7025 C   0  0  0  0  0  0  0  0  0  0  0  0
   28.1443  -20.7344   -4.8955 C   0  0  0  0  0  0  0  0  0  0  0  0
   27.3417  -20.7645   -6.0120 C   0  0  0  0  0  0  0  0  0  0  0  0
   27.3316  -19.7638   -6.9736 C   0  0  0  0  0  0  0  0  0  0  0  0
   26.4389  -19.8722   -8.1573 C   0  0  0  0  0  0  0  0  0  0  0  0
   27.0383  -20.9233   -9.0790 C   0  0  2  0  0  0  0  0  0  0  0  0
   28.4801  -20.7093   -9.2186 N   0  0  0  0  0  0  0  0  0  0  0  0
   26.4685  -20.6417  -10.4240 C   0  0  0  0  0  0  0  0  0  0  0  0
   26.9413  -19.8013  -11.2261 O   0  0  0  0  0  0  0  0  0  0  0  0
   28.1801  -18.7005   -6.7700 C   0  0  0  0  0  0  0  0  0  0  0  0
   28.9969  -18.6503   -5.6529 C   0  0  0  0  0  0  0  0  0  0  0  0
   25.3102  -21.3831  -10.8112 N   0  0  0  0  0  0  0  0  0  0  0  0
   24.7530  -21.1488  -12.1086 C   0  0  1  0  0  0  0  0  0  0  0  0
   25.1137  -22.2434  -13.0978 C   0  0  0  0  0  0  0  0  0  0  0  0
   24.6163  -21.8948  -14.4473 C   0  0  0  0  0  0  0  0  0  0  0  0
   23.9915  -20.8619  -14.7488 O   0  0  0  0  0  0  0  0  0  0  0  0
   23.2680  -21.1478  -11.9907 C   0  0  0  0  0  0  0  0  0  0  0  0
   22.6414  -21.9631  -11.2708 O   0  0  0  0  0  0  0  0  0  0  0  0
   24.8862  -22.8260  -15.4527 O   0  0  0  0  0  0  0  0  0  0  0  0
   22.5780  -20.1652  -12.7429 N   0  0  0  0  0  0  0  0  0  0  0  0
   21.0866  -20.0487  -12.6749 C   0  0  1  0  0  0  0  0  0  0  0  0
   20.8321  -18.7231  -13.3241 C   0  0  0  0  0  0  0  0  0  0  0  0
   19.4583  -18.2039  -13.3924 C   0  0  0  0  0  0  0  0  0  0  0  0
   19.3494  -16.9681  -14.1750 C   0  0  0  0  0  0  0  0  0  0  0  0
   18.2264  -16.4176  -14.3236 O   0  0  0  0  0  0  0  0  0  0  0  0
   20.5800  -21.2336  -13.3354 C   0  0  0  0  0  0  0  0  0  0  0  0
   21.1857  -21.7503  -14.2989 O   0  0  0  0  0  0  0  0  0  0  0  0
   20.4492  -16.3748  -14.7602 O   0  0  0  0  0  0  0  0  0  0  0  0
   19.4122  -21.8510  -12.9395 O   0  0  0  0  0  0  0  0  0  0  0  0
  2  1  1  0
  2 12  2  0
  3  2  1  0
  4  3  2  0
  4  5  1  0
  5 11  2  0
  6  5  1  0
  7  6  1  0
  7  8  1  6
  9  7  1  0
 10  9  2  0
 11 12  1  0
 13  9  1  0
 14 13  1  0
 14 15  1  6
 16 15  1  0
 17 16  2  0
 18 14  1  0
 18 19  2  0
 20 16  1  0
 21 18  1  0
 22 21  1  0
 22 23  1  6
 23 24  1  0
 24 25  1  0
 25 29  1  0
 26 25  2  0
 27 22  1  0
 28 27  2  0
 30 27  1  0
M  END
$$$$
