YDE.pdb
     RDKit          3D

 30 30  0  0  1  0  0  0  0  0999 V2000
   28.5612  -12.8405  -15.2364 O   0  0  0  0  0  0  0  0  0  0  0  0
   27.5055  -11.9844  -15.5720 C   0  0  0  0  0  0  0  0  0  0  0  0
   26.5022  -12.3645  -16.4331 C   0  0  0  0  0  0  0  0  0  0  0  0
   25.4925  -11.4769  -16.7237 C   0  0  0  0  0  0  0  0  0  0  0  0
   25.4225  -10.1974  -16.1908 C   0  0  0  0  0  0  0  0  0  0  0  0
   24.3011   -9.2936  -16.5590 C   0  0  0  0  0  0  0  0  0  0  0  0
   23.4932   -9.0399  -15.2954 C   0  0  2  0  0  0  0  0  0  0  0  0
   23.0767  -10.3107  -14.6990 N   0  0  0  0  0  0  0  0  0  0  0  0
   22.2353   -8.3912  -15.7533 C   0  0  0  0  0  0  0  0  0  0  0  0
   22.1932   -7.4179  -16.5433 O   0  0  0  0  0  0  0  0  0  0  0  0
   26.4308   -9.8283  -15.3311 C   0  0  0  0  0  0  0  0  0  0  0  0
   27.4571  -10.7063  -15.0251 C   0  0  0  0  0  0  0  0  0  0  0  0
   21.0068   -8.9217  -15.2528 N   0  0  0  0  0  0  0  0  0  0  0  0
   19.7806   -8.3146  -15.6727 C   0  0  1  0  0  0  0  0  0  0  0  0
   18.6010   -9.2657  -15.5701 C   0  0  0  0  0  0  0  0  0  0  0  0
   18.7387  -10.3572  -16.5599 C   0  0  0  0  0  0  0  0  0  0  0  0
   18.9668  -10.2142  -17.7747 O   0  0  0  0  0  0  0  0  0  0  0  0
   19.4885   -7.1676  -14.7682 C   0  0  0  0  0  0  0  0  0  0  0  0
   19.6979   -7.2052  -13.5312 O   0  0  0  0  0  0  0  0  0  0  0  0
   18.5953  -11.6528  -16.0584 O   0  0  0  0  0  0  0  0  0  0  0  0
   18.9520   -6.0065  -15.3780 N   0  0  0  0  0  0  0  0  0  0  0  0
   18.5371   -4.8257  -14.5558 C   0  0  1  0  0  0  0  0  0  0  0  0
   19.1206   -3.6755  -15.3176 C   0  0  0  0  0  0  0  0  0  0  0  0
   20.5364   -3.3274  -15.1282 C   0  0  0  0  0  0  0  0  0  0  0  0
   20.9424   -2.1396  -15.8870 C   0  0  0  0  0  0  0  0  0  0  0  0
   22.0848   -1.6411  -15.7065 O   0  0  0  0  0  0  0  0  0  0  0  0
   17.0947   -4.9127  -14.4622 C   0  0  0  0  0  0  0  0  0  0  0  0
   16.4252   -5.5457  -15.3069 O   0  0  0  0  0  0  0  0  0  0  0  0
   20.1077   -1.5409  -16.8085 O   0  0  0  0  0  0  0  0  0  0  0  0
   16.3882   -4.3078  -13.4441 O   0  0  0  0  0  0  0  0  0  0  0  0
  2  1  1  0
  2 12  2  0
  3  2  1  0
  4  3  2  0
  4  5  1  0
  5 11  2  0
  6  5  1  0
  7  6  1  0
  7  8  1  6
  9  7  1  0
 10  9  2  0
 11 12  1  0
 13  9  1  0
 14 13  1  0
 14 15  1  1
 16 15  1  0
 17 16  2  0
 18 14  1  0
 18 19  2  0
 20 16  1  0
 21 18  1  0
 22 21  1  0
 22 23  1  6
 23 24  1  0
 24 25  1  0
 25 29  1  0
 26 25  2  0
 27 22  1  0
 28 27  2  0
 30 27  1  0
M  END
$$$$
