QNL.pdb
     RDKit          3D

 26 25  0  0  1  0  0  0  0  0999 V2000
    8.5234  -12.2778   18.4046 N   0  0  0  0  0  0  0  0  0  0  0  0
    7.9715  -13.3093   17.6136 C   0  0  0  0  0  0  0  0  0  0  0  0
    8.0858  -13.2552   16.3718 O   0  0  0  0  0  0  0  0  0  0  0  0
    7.2712  -14.4329   18.2401 C   0  0  0  0  0  0  0  0  0  0  0  0
    7.2010  -14.3410   19.7323 C   0  0  0  0  0  0  0  0  0  0  0  0
    8.5739  -14.7312   20.2729 C   0  0  2  0  0  0  0  0  0  0  0  0
    9.2131  -15.6942   19.4021 N   0  0  0  0  0  0  0  0  0  0  0  0
    8.3824  -15.3661   21.5996 C   0  0  0  0  0  0  0  0  0  0  0  0
    7.3008  -15.2067   22.2329 O   0  0  0  0  0  0  0  0  0  0  0  0
    8.7780  -19.8712   22.7958 N   0  0  0  0  0  0  0  0  0  0  0  0
    9.8876  -19.0232   22.6249 C   0  0  0  0  0  0  0  0  0  0  0  0
   10.6560  -19.1708   21.6530 O   0  0  0  0  0  0  0  0  0  0  0  0
   10.1392  -17.9504   23.6088 C   0  0  0  0  0  0  0  0  0  0  0  0
    9.1656  -16.7977   23.4750 C   0  0  2  0  0  0  0  0  0  0  0  0
    9.3834  -16.1591   22.1958 N   0  0  0  0  0  0  0  0  0  0  0  0
    9.4723  -15.7867   24.5439 C   0  0  0  0  0  0  0  0  0  0  0  0
   10.5807  -15.2005   24.5334 O   0  0  0  0  0  0  0  0  0  0  0  0
    7.8855  -11.9320   25.3266 C   0  0  0  0  0  0  0  0  0  0  0  0
    7.0432  -13.0558   25.9251 C   0  0  2  0  0  0  0  0  0  0  0  0
    5.7667  -12.4666   26.4562 C   0  0  0  0  0  0  0  0  0  0  0  0
    7.7757  -13.7348   27.0336 C   0  0  0  0  0  0  0  0  0  0  0  0
    8.9246  -14.5880   26.6381 C   0  0  2  0  0  0  0  0  0  0  0  0
    8.5260  -15.4927   25.5560 N   0  0  0  0  0  0  0  0  0  0  0  0
    9.5724  -15.3411   27.7310 C   0  0  0  0  0  0  0  0  0  0  0  0
    9.7099  -16.7020   27.7467 O   0  0  0  0  0  0  0  0  0  0  0  0
   10.0335  -14.7137   28.7213 O   0  0  0  0  0  0  0  0  0  0  0  0
  2  1  1  0
  2  3  2  0
  4  5  1  0
  4  2  1  0
  6  7  1  6
  6  5  1  0
  8  6  1  0
  9  8  2  0
 11 13  1  0
 11 10  1  0
 12 11  2  0
 14 13  1  1
 14 15  1  0
 15  8  1  0
 16 14  1  0
 16 17  2  0
 19 18  1  1
 19 21  1  0
 20 19  1  0
 22 21  1  1
 22 23  1  0
 22 24  1  0
 23 16  1  0
 24 26  2  0
 24 25  1  0
M  END
$$$$
