QNL.pdb
     RDKit          3D

 26 25  0  0  1  0  0  0  0  0999 V2000
   11.3705  -12.9647   19.3387 N   0  0  0  0  0  0  0  0  0  0  0  0
   10.3499  -13.3486   18.4413 C   0  0  0  0  0  0  0  0  0  0  0  0
   10.6149  -14.1481   17.5200 O   0  0  0  0  0  0  0  0  0  0  0  0
    8.9932  -12.8166   18.5867 C   0  0  0  0  0  0  0  0  0  0  0  0
    8.2711  -13.3319   19.7921 C   0  0  0  0  0  0  0  0  0  0  0  0
    8.2012  -14.8508   19.6605 C   0  0  2  0  0  0  0  0  0  0  0  0
    7.0679  -15.2437   18.8507 N   0  0  0  0  0  0  0  0  0  0  0  0
    8.0178  -15.4221   21.0170 C   0  0  0  0  0  0  0  0  0  0  0  0
    6.8627  -15.5101   21.5213 O   0  0  0  0  0  0  0  0  0  0  0  0
    8.7725  -19.6891   24.4027 N   0  0  0  0  0  0  0  0  0  0  0  0
    9.6938  -18.6411   24.2236 C   0  0  0  0  0  0  0  0  0  0  0  0
   10.4951  -18.3378   25.1308 O   0  0  0  0  0  0  0  0  0  0  0  0
    9.7074  -17.8971   22.9474 C   0  0  0  0  0  0  0  0  0  0  0  0
    8.8982  -16.6182   23.0105 C   0  0  2  0  0  0  0  0  0  0  0  0
    9.1075  -15.8816   21.7836 N   0  0  0  0  0  0  0  0  0  0  0  0
    9.4227  -15.7762   24.1394 C   0  0  0  0  0  0  0  0  0  0  0  0
   10.5606  -15.2586   24.0409 O   0  0  0  0  0  0  0  0  0  0  0  0
    6.9423  -13.0381   24.8120 C   0  0  0  0  0  0  0  0  0  0  0  0
    7.0598  -13.5826   26.2334 C   0  0  2  0  0  0  0  0  0  0  0  0
    6.2476  -12.7104   27.1488 C   0  0  0  0  0  0  0  0  0  0  0  0
    8.4823  -13.5864   26.6838 C   0  0  0  0  0  0  0  0  0  0  0  0
    9.2538  -14.8268   26.4183 C   0  0  2  0  0  0  0  0  0  0  0  0
    8.6475  -15.5639   25.3057 N   0  0  0  0  0  0  0  0  0  0  0  0
    9.4593  -15.7170   27.5787 C   0  0  0  0  0  0  0  0  0  0  0  0
   10.0785  -15.3348   28.7370 O   0  0  0  0  0  0  0  0  0  0  0  0
    9.0491  -16.9067   27.5217 O   0  0  0  0  0  0  0  0  0  0  0  0
  2  1  1  0
  2  3  2  0
  4  5  1  0
  4  2  1  0
  6  7  1  6
  6  5  1  0
  8  6  1  0
  9  8  2  0
 11 13  1  0
 11 10  1  0
 12 11  2  0
 14 13  1  6
 14 15  1  0
 15  8  1  0
 16 14  1  0
 16 17  2  0
 19 18  1  6
 19 21  1  0
 20 19  1  0
 22 21  1  1
 22 23  1  0
 22 24  1  0
 23 16  1  0
 24 26  2  0
 24 25  1  0
M  END
$$$$
