QNL.pdb
     RDKit          3D

 26 25  0  0  1  0  0  0  0  0999 V2000
    4.5759  -22.4252   21.6602 N   0  0  0  0  0  0  0  0  0  0  0  0
    3.8871  -21.1939   21.5981 C   0  0  0  0  0  0  0  0  0  0  0  0
    2.7574  -21.1515   21.0688 O   0  0  0  0  0  0  0  0  0  0  0  0
    4.4886  -19.9770   22.1479 C   0  0  0  0  0  0  0  0  0  0  0  0
    5.8861  -20.1698   22.6479 C   0  0  0  0  0  0  0  0  0  0  0  0
    6.1837  -19.0214   23.6080 C   0  0  2  0  0  0  0  0  0  0  0  0
    4.9727  -18.2998   23.9353 N   0  0  0  0  0  0  0  0  0  0  0  0
    7.1098  -18.0825   22.9290 C   0  0  0  0  0  0  0  0  0  0  0  0
    8.2251  -18.4882   22.4958 O   0  0  0  0  0  0  0  0  0  0  0  0
    7.5404  -12.4146   20.7052 N   0  0  0  0  0  0  0  0  0  0  0  0
    7.8631  -13.7840   20.7095 C   0  0  0  0  0  0  0  0  0  0  0  0
    8.8908  -14.1962   20.1343 O   0  0  0  0  0  0  0  0  0  0  0  0
    6.9727  -14.7371   21.4033 C   0  0  0  0  0  0  0  0  0  0  0  0
    7.7376  -15.8036   22.1595 C   0  0  2  0  0  0  0  0  0  0  0  0
    6.7866  -16.7233   22.7438 N   0  0  0  0  0  0  0  0  0  0  0  0
    8.4843  -15.1474   23.2866 C   0  0  0  0  0  0  0  0  0  0  0  0
    9.6721  -14.7877   23.1077 O   0  0  0  0  0  0  0  0  0  0  0  0
    7.6477  -11.3733   25.3118 C   0  0  0  0  0  0  0  0  0  0  0  0
    6.8716  -12.5739   25.8473 C   0  0  2  0  0  0  0  0  0  0  0  0
    5.8546  -12.0828   26.8389 C   0  0  0  0  0  0  0  0  0  0  0  0
    7.7887  -13.5431   26.5150 C   0  0  0  0  0  0  0  0  0  0  0  0
    8.6596  -14.3481   25.6219 C   0  0  2  0  0  0  0  0  0  0  0  0
    7.8615  -14.9335   24.5407 N   0  0  0  0  0  0  0  0  0  0  0  0
    9.4756  -15.3858   26.2840 C   0  0  0  0  0  0  0  0  0  0  0  0
   10.4562  -15.1202   27.2001 O   0  0  0  0  0  0  0  0  0  0  0  0
    9.2759  -16.5975   26.0033 O   0  0  0  0  0  0  0  0  0  0  0  0
  2  1  1  0
  2  3  2  0
  4  5  1  0
  4  2  1  0
  6  7  1  6
  6  5  1  0
  8  6  1  0
  9  8  2  0
 11 13  1  0
 11 10  1  0
 12 11  2  0
 14 13  1  1
 14 15  1  0
 15  8  1  0
 16 14  1  0
 16 17  2  0
 19 18  1  1
 19 21  1  0
 20 19  1  0
 22 21  1  1
 22 23  1  0
 22 24  1  0
 23 16  1  0
 24 26  2  0
 24 25  1  0
M  END
$$$$
