QNL.pdb
     RDKit          3D

 26 25  0  0  1  0  0  0  0  0999 V2000
    9.4733  -14.7552   15.6560 N   0  0  0  0  0  0  0  0  0  0  0  0
    8.2173  -15.1139   16.1927 C   0  0  0  0  0  0  0  0  0  0  0  0
    7.4908  -15.9132   15.5670 O   0  0  0  0  0  0  0  0  0  0  0  0
    7.7679  -14.5561   17.4701 C   0  0  0  0  0  0  0  0  0  0  0  0
    8.7519  -13.6181   18.0962 C   0  0  0  0  0  0  0  0  0  0  0  0
    8.1814  -13.2039   19.4498 C   0  0  2  0  0  0  0  0  0  0  0  0
    8.9791  -12.1516   20.0421 N   0  0  0  0  0  0  0  0  0  0  0  0
    8.2315  -14.3817   20.3500 C   0  0  0  0  0  0  0  0  0  0  0  0
    7.2180  -15.1237   20.4866 O   0  0  0  0  0  0  0  0  0  0  0  0
    9.5509  -18.5707   20.7534 N   0  0  0  0  0  0  0  0  0  0  0  0
   10.5735  -17.6056   20.7045 C   0  0  0  0  0  0  0  0  0  0  0  0
   11.3828  -17.5852   19.7550 O   0  0  0  0  0  0  0  0  0  0  0  0
   10.6844  -16.6104   21.7907 C   0  0  0  0  0  0  0  0  0  0  0  0
    9.4034  -15.8287   21.9969 C   0  0  2  0  0  0  0  0  0  0  0  0
    9.3928  -14.7136   21.0761 N   0  0  0  0  0  0  0  0  0  0  0  0
    9.4066  -15.2655   23.3903 C   0  0  0  0  0  0  0  0  0  0  0  0
   10.4077  -14.6253   23.7905 O   0  0  0  0  0  0  0  0  0  0  0  0
    7.9853  -11.9240   25.7381 C   0  0  0  0  0  0  0  0  0  0  0  0
    6.9533  -12.9730   25.3319 C   0  0  2  0  0  0  0  0  0  0  0  0
    5.5852  -12.4600   25.6835 C   0  0  0  0  0  0  0  0  0  0  0  0
    7.1986  -14.2614   26.0433 C   0  0  0  0  0  0  0  0  0  0  0  0
    8.4145  -15.0136   25.6431 C   0  0  2  0  0  0  0  0  0  0  0  0
    8.2955  -15.4506   24.2491 N   0  0  0  0  0  0  0  0  0  0  0  0
    8.7834  -16.1491   26.5125 C   0  0  0  0  0  0  0  0  0  0  0  0
    8.8942  -17.4416   26.0784 O   0  0  0  0  0  0  0  0  0  0  0  0
    9.0138  -15.9398   27.7331 O   0  0  0  0  0  0  0  0  0  0  0  0
  2  1  1  0
  2  3  2  0
  4  5  1  0
  4  2  1  0
  6  7  1  1
  6  5  1  0
  8  6  1  0
  9  8  2  0
 11 13  1  0
 11 10  1  0
 12 11  2  0
 14 13  1  6
 14 15  1  0
 15  8  1  0
 16 14  1  0
 16 17  2  0
 19 18  1  1
 19 21  1  0
 20 19  1  0
 22 21  1  1
 22 23  1  0
 22 24  1  0
 23 16  1  0
 24 26  2  0
 24 25  1  0
M  END
$$$$
