QNL.pdb
     RDKit          3D

 26 25  0  0  1  0  0  0  0  0999 V2000
   13.0105  -16.8056   20.9739 N   0  0  0  0  0  0  0  0  0  0  0  0
   12.3196  -16.2881   19.8562 C   0  0  0  0  0  0  0  0  0  0  0  0
   12.9567  -15.6801   18.9716 O   0  0  0  0  0  0  0  0  0  0  0  0
   10.8706  -16.4609   19.7325 C   0  0  0  0  0  0  0  0  0  0  0  0
   10.2490  -17.1758   20.8913 C   0  0  0  0  0  0  0  0  0  0  0  0
    9.1713  -18.0973   20.3268 C   0  0  2  0  0  0  0  0  0  0  0  0
    8.8822  -17.7641   18.9485 N   0  0  0  0  0  0  0  0  0  0  0  0
    7.9332  -17.8962   21.1185 C   0  0  0  0  0  0  0  0  0  0  0  0
    6.8455  -18.4198   20.7457 O   0  0  0  0  0  0  0  0  0  0  0  0
    5.7158  -19.8651   25.1292 N   0  0  0  0  0  0  0  0  0  0  0  0
    6.9938  -19.2811   25.1997 C   0  0  0  0  0  0  0  0  0  0  0  0
    7.5629  -19.1292   26.2997 O   0  0  0  0  0  0  0  0  0  0  0  0
    7.6624  -18.8460   23.9562 C   0  0  0  0  0  0  0  0  0  0  0  0
    7.1317  -17.5238   23.4420 C   0  0  2  0  0  0  0  0  0  0  0  0
    7.9223  -17.1254   22.2984 N   0  0  0  0  0  0  0  0  0  0  0  0
    7.3242  -16.4839   24.5099 C   0  0  0  0  0  0  0  0  0  0  0  0
    6.6727  -16.5738   25.5776 O   0  0  0  0  0  0  0  0  0  0  0  0
    5.6280  -12.1361   26.8632 C   0  0  0  0  0  0  0  0  0  0  0  0
    7.0487  -12.6417   26.6256 C   0  0  2  0  0  0  0  0  0  0  0  0
    7.8886  -11.4963   26.1345 C   0  0  0  0  0  0  0  0  0  0  0  0
    7.0594  -13.7361   25.6114 C   0  0  0  0  0  0  0  0  0  0  0  0
    8.3603  -14.4167   25.3907 C   0  0  2  0  0  0  0  0  0  0  0  0
    8.2291  -15.4107   24.3214 N   0  0  0  0  0  0  0  0  0  0  0  0
    8.9810  -15.0211   26.5868 C   0  0  0  0  0  0  0  0  0  0  0  0
    8.5311  -16.1645   27.1881 O   0  0  0  0  0  0  0  0  0  0  0  0
    9.9870  -14.4671   27.1043 O   0  0  0  0  0  0  0  0  0  0  0  0
  2  1  1  0
  2  3  2  0
  4  5  1  0
  4  2  1  0
  6  7  1  6
  6  5  1  0
  8  6  1  0
  9  8  2  0
 11 13  1  0
 11 10  1  0
 12 11  2  0
 14 13  1  1
 14 15  1  0
 15  8  1  0
 16 14  1  0
 16 17  2  0
 19 18  1  6
 19 21  1  0
 20 19  1  0
 22 21  1  1
 22 23  1  0
 22 24  1  0
 23 16  1  0
 24 26  2  0
 24 25  1  0
M  END
$$$$
