QNL.pdb
     RDKit          3D

 26 25  0  0  1  0  0  0  0  0999 V2000
    6.6112  -14.4399   16.2167 N   0  0  0  0  0  0  0  0  0  0  0  0
    7.9568  -14.0112   16.2152 C   0  0  0  0  0  0  0  0  0  0  0  0
    8.5737  -13.9376   15.1325 O   0  0  0  0  0  0  0  0  0  0  0  0
    8.6252  -13.6556   17.4689 C   0  0  0  0  0  0  0  0  0  0  0  0
    7.7644  -13.8321   18.6805 C   0  0  0  0  0  0  0  0  0  0  0  0
    8.6136  -13.4644   19.8941 C   0  0  2  0  0  0  0  0  0  0  0  0
   10.0183  -13.4348   19.5470 N   0  0  0  0  0  0  0  0  0  0  0  0
    8.4167  -14.5103   20.9272 C   0  0  0  0  0  0  0  0  0  0  0  0
    7.2526  -14.8163   21.3113 O   0  0  0  0  0  0  0  0  0  0  0  0
    8.8710  -18.0061   20.4539 N   0  0  0  0  0  0  0  0  0  0  0  0
   10.0692  -18.1668   21.1736 C   0  0  0  0  0  0  0  0  0  0  0  0
   10.8964  -19.0405   20.8429 O   0  0  0  0  0  0  0  0  0  0  0  0
   10.3441  -17.2896   22.3300 C   0  0  0  0  0  0  0  0  0  0  0  0
    9.2905  -16.2164   22.5101 C   0  0  2  0  0  0  0  0  0  0  0  0
    9.5030  -15.1924   21.5112 N   0  0  0  0  0  0  0  0  0  0  0  0
    9.4819  -15.5804   23.8583 C   0  0  0  0  0  0  0  0  0  0  0  0
   10.5287  -14.9286   24.0857 O   0  0  0  0  0  0  0  0  0  0  0  0
    8.3469  -12.0692   26.1575 C   0  0  0  0  0  0  0  0  0  0  0  0
    7.2939  -13.1510   25.9304 C   0  0  2  0  0  0  0  0  0  0  0  0
    5.9624  -12.6268   26.3894 C   0  0  0  0  0  0  0  0  0  0  0  0
    7.6310  -14.3876   26.6942 C   0  0  0  0  0  0  0  0  0  0  0  0
    8.7898  -15.1724   26.1987 C   0  0  2  0  0  0  0  0  0  0  0  0
    8.4963  -15.7105   24.8672 N   0  0  0  0  0  0  0  0  0  0  0  0
    9.2724  -16.2423   27.0952 C   0  0  0  0  0  0  0  0  0  0  0  0
    9.9057  -16.0158   28.2864 O   0  0  0  0  0  0  0  0  0  0  0  0
    9.1033  -17.4457   26.7635 O   0  0  0  0  0  0  0  0  0  0  0  0
  2  1  1  0
  2  3  2  0
  4  5  1  0
  4  2  1  0
  6  7  1  6
  6  5  1  0
  8  6  1  0
  9  8  2  0
 11 13  1  0
 11 10  1  0
 12 11  2  0
 14 13  1  6
 14 15  1  0
 15  8  1  0
 16 14  1  0
 16 17  2  0
 19 18  1  1
 19 21  1  0
 20 19  1  0
 22 21  1  1
 22 23  1  0
 22 24  1  0
 23 16  1  0
 24 26  2  0
 24 25  1  0
M  END
$$$$
