QNL.pdb
     RDKit          3D

 26 25  0  0  1  0  0  0  0  0999 V2000
   10.0783  -12.9320   19.7181 N   0  0  0  0  0  0  0  0  0  0  0  0
    9.1376  -12.7474   18.6811 C   0  0  0  0  0  0  0  0  0  0  0  0
    9.5041  -12.2218   17.6098 O   0  0  0  0  0  0  0  0  0  0  0  0
    7.7455  -13.1668   18.8567 C   0  0  0  0  0  0  0  0  0  0  0  0
    7.4703  -13.7969   20.1862 C   0  0  0  0  0  0  0  0  0  0  0  0
    7.8620  -15.2680   20.0773 C   0  0  2  0  0  0  0  0  0  0  0  0
    6.9682  -15.9717   19.1825 N   0  0  0  0  0  0  0  0  0  0  0  0
    7.7392  -15.8776   21.4239 C   0  0  0  0  0  0  0  0  0  0  0  0
    6.6267  -16.3240   21.8230 O   0  0  0  0  0  0  0  0  0  0  0  0
    8.5509  -18.6460   25.6166 N   0  0  0  0  0  0  0  0  0  0  0  0
    9.7090  -18.5902   24.8197 C   0  0  0  0  0  0  0  0  0  0  0  0
   10.7640  -19.1422   25.1928 O   0  0  0  0  0  0  0  0  0  0  0  0
    9.6687  -17.8698   23.5306 C   0  0  0  0  0  0  0  0  0  0  0  0
    8.7309  -16.6806   23.5573 C   0  0  2  0  0  0  0  0  0  0  0  0
    8.8411  -15.9807   22.2966 N   0  0  0  0  0  0  0  0  0  0  0  0
    9.1831  -15.7398   24.6386 C   0  0  0  0  0  0  0  0  0  0  0  0
   10.3358  -15.2495   24.5820 O   0  0  0  0  0  0  0  0  0  0  0  0
    8.5414  -11.7296   25.5175 C   0  0  0  0  0  0  0  0  0  0  0  0
    7.3871  -12.6054   25.9984 C   0  0  2  0  0  0  0  0  0  0  0  0
    6.2781  -11.7134   26.4809 C   0  0  0  0  0  0  0  0  0  0  0  0
    7.8263  -13.4978   27.1107 C   0  0  0  0  0  0  0  0  0  0  0  0
    8.8397  -14.5272   26.7680 C   0  0  2  0  0  0  0  0  0  0  0  0
    8.3237  -15.4049   25.7136 N   0  0  0  0  0  0  0  0  0  0  0  0
    9.3547  -15.3243   27.8997 C   0  0  0  0  0  0  0  0  0  0  0  0
    9.2326  -16.6832   27.9977 O   0  0  0  0  0  0  0  0  0  0  0  0
    9.9454  -14.7390   28.8460 O   0  0  0  0  0  0  0  0  0  0  0  0
  2  1  1  0
  2  3  2  0
  4  5  1  0
  4  2  1  0
  6  7  1  6
  6  5  1  0
  8  6  1  0
  9  8  2  0
 11 13  1  0
 11 10  1  0
 12 11  2  0
 14 13  1  6
 14 15  1  0
 15  8  1  0
 16 14  1  0
 16 17  2  0
 19 18  1  1
 19 21  1  0
 20 19  1  0
 22 21  1  1
 22 23  1  0
 22 24  1  0
 23 16  1  0
 24 26  2  0
 24 25  1  0
M  END
$$$$
