QNL.pdb
     RDKit          3D

 26 25  0  0  1  0  0  0  0  0999 V2000
    7.9585  -12.3669   17.3965 N   0  0  0  0  0  0  0  0  0  0  0  0
    7.7198  -13.6768   16.9259 C   0  0  0  0  0  0  0  0  0  0  0  0
    6.7929  -13.8752   16.1137 O   0  0  0  0  0  0  0  0  0  0  0  0
    8.5491  -14.7939   17.3836 C   0  0  0  0  0  0  0  0  0  0  0  0
    8.0674  -15.4189   18.6554 C   0  0  0  0  0  0  0  0  0  0  0  0
    8.8327  -14.7597   19.7996 C   0  0  2  0  0  0  0  0  0  0  0  0
   10.2578  -14.7941   19.5500 N   0  0  0  0  0  0  0  0  0  0  0  0
    8.5633  -15.5309   21.0376 C   0  0  0  0  0  0  0  0  0  0  0  0
    7.3771  -15.7003   21.4381 O   0  0  0  0  0  0  0  0  0  0  0  0
   11.0438  -19.5497   21.2650 N   0  0  0  0  0  0  0  0  0  0  0  0
   10.0401  -19.1042   22.1445 C   0  0  0  0  0  0  0  0  0  0  0  0
    8.9109  -19.6351   22.1408 O   0  0  0  0  0  0  0  0  0  0  0  0
   10.3326  -17.9975   23.0784 C   0  0  0  0  0  0  0  0  0  0  0  0
    9.3192  -16.8755   22.9871 C   0  0  2  0  0  0  0  0  0  0  0  0
    9.6034  -16.0955   21.8029 N   0  0  0  0  0  0  0  0  0  0  0  0
    9.4960  -15.9740   24.1764 C   0  0  0  0  0  0  0  0  0  0  0  0
   10.6324  -15.5079   24.4288 O   0  0  0  0  0  0  0  0  0  0  0  0
    7.9920  -11.9548   25.5547 C   0  0  0  0  0  0  0  0  0  0  0  0
    7.0193  -13.1281   25.6433 C   0  0  2  0  0  0  0  0  0  0  0  0
    5.6706  -12.6025   26.0471 C   0  0  0  0  0  0  0  0  0  0  0  0
    7.4844  -14.1276   26.6488 C   0  0  0  0  0  0  0  0  0  0  0  0
    8.6629  -14.9461   26.2674 C   0  0  2  0  0  0  0  0  0  0  0  0
    8.3971  -15.6489   25.0089 N   0  0  0  0  0  0  0  0  0  0  0  0
    9.1506  -15.8888   27.2944 C   0  0  0  0  0  0  0  0  0  0  0  0
    9.1768  -17.2473   27.1362 O   0  0  0  0  0  0  0  0  0  0  0  0
    9.5721  -15.4382   28.3926 O   0  0  0  0  0  0  0  0  0  0  0  0
  2  1  1  0
  2  3  2  0
  4  5  1  0
  4  2  1  0
  6  7  1  6
  6  5  1  0
  8  6  1  0
  9  8  2  0
 11 13  1  0
 11 10  1  0
 12 11  2  0
 14 13  1  1
 14 15  1  0
 15  8  1  0
 16 14  1  0
 16 17  2  0
 19 18  1  1
 19 21  1  0
 20 19  1  0
 22 21  1  1
 22 23  1  0
 22 24  1  0
 23 16  1  0
 24 26  2  0
 24 25  1  0
M  END
$$$$
