QNL.pdb
     RDKit          3D

 26 25  0  0  1  0  0  0  0  0999 V2000
    8.2964  -15.2156   15.6846 N   0  0  0  0  0  0  0  0  0  0  0  0
    7.7390  -14.0251   16.2007 C   0  0  0  0  0  0  0  0  0  0  0  0
    7.3208  -13.1534   15.4111 O   0  0  0  0  0  0  0  0  0  0  0  0
    7.6507  -13.8114   17.6469 C   0  0  0  0  0  0  0  0  0  0  0  0
    8.1582  -14.9630   18.4570 C   0  0  0  0  0  0  0  0  0  0  0  0
    7.8386  -14.6614   19.9186 C   0  0  2  0  0  0  0  0  0  0  0  0
    8.0444  -13.2587   20.2095 N   0  0  0  0  0  0  0  0  0  0  0  0
    8.7686  -15.4483   20.7647 C   0  0  0  0  0  0  0  0  0  0  0  0
    8.7968  -16.7086   20.6798 O   0  0  0  0  0  0  0  0  0  0  0  0
   12.9742  -13.8732   20.6063 N   0  0  0  0  0  0  0  0  0  0  0  0
   12.5769  -15.0534   21.2609 C   0  0  0  0  0  0  0  0  0  0  0  0
   12.8109  -16.1698   20.7552 O   0  0  0  0  0  0  0  0  0  0  0  0
   11.8766  -14.9627   22.5586 C   0  0  0  0  0  0  0  0  0  0  0  0
   10.5108  -15.6170   22.5300 C   0  0  2  0  0  0  0  0  0  0  0  0
    9.6428  -14.8307   21.6815 N   0  0  0  0  0  0  0  0  0  0  0  0
    9.9367  -15.5853   23.9185 C   0  0  0  0  0  0  0  0  0  0  0  0
   10.7110  -15.6376   24.9034 O   0  0  0  0  0  0  0  0  0  0  0  0
    8.2099  -12.8434   26.9401 C   0  0  0  0  0  0  0  0  0  0  0  0
    7.3944  -13.1998   25.6996 C   0  0  2  0  0  0  0  0  0  0  0  0
    6.1804  -12.3151   25.6544 C   0  0  0  0  0  0  0  0  0  0  0  0
    6.9666  -14.6287   25.7388 C   0  0  0  0  0  0  0  0  0  0  0  0
    8.0243  -15.6399   25.4878 C   0  0  2  0  0  0  0  0  0  0  0  0
    8.5378  -15.4975   24.1223 N   0  0  0  0  0  0  0  0  0  0  0  0
    7.6494  -17.0429   25.7567 C   0  0  0  0  0  0  0  0  0  0  0  0
    7.5286  -17.5765   27.0105 O   0  0  0  0  0  0  0  0  0  0  0  0
    7.4232  -17.8157   24.7880 O   0  0  0  0  0  0  0  0  0  0  0  0
  2  1  1  0
  2  3  2  0
  4  5  1  0
  4  2  1  0
  6  7  1  6
  6  5  1  0
  8  6  1  0
  9  8  2  0
 11 13  1  0
 11 10  1  0
 12 11  2  0
 14 13  1  1
 14 15  1  0
 15  8  1  0
 16 14  1  0
 16 17  2  0
 19 18  1  1
 19 21  1  0
 20 19  1  0
 22 21  1  6
 22 23  1  0
 22 24  1  0
 23 16  1  0
 24 26  2  0
 24 25  1  0
M  END
$$$$
