QNL.pdb
     RDKit          3D

 26 25  0  0  1  0  0  0  0  0999 V2000
   11.3524  -14.2066   16.3556 N   0  0  0  0  0  0  0  0  0  0  0  0
   11.5365  -15.6064   16.3900 C   0  0  0  0  0  0  0  0  0  0  0  0
   11.1147  -16.3018   15.4431 O   0  0  0  0  0  0  0  0  0  0  0  0
   12.2148  -16.2394   17.5231 C   0  0  0  0  0  0  0  0  0  0  0  0
   12.7599  -15.2641   18.5190 C   0  0  0  0  0  0  0  0  0  0  0  0
   12.4003  -15.7884   19.9065 C   0  0  2  0  0  0  0  0  0  0  0  0
   11.7148  -17.0595   19.8126 N   0  0  0  0  0  0  0  0  0  0  0  0
   11.4794  -14.8146   20.5418 C   0  0  0  0  0  0  0  0  0  0  0  0
   11.8239  -13.6067   20.6789 O   0  0  0  0  0  0  0  0  0  0  0  0
    8.5394  -13.0196   19.2386 N   0  0  0  0  0  0  0  0  0  0  0  0
    7.5729  -13.8367   19.8530 C   0  0  0  0  0  0  0  0  0  0  0  0
    6.4473  -13.9876   19.3360 O   0  0  0  0  0  0  0  0  0  0  0  0
    7.9004  -14.5195   21.1215 C   0  0  0  0  0  0  0  0  0  0  0  0
    9.3076  -14.2220   21.5963 C   0  0  2  0  0  0  0  0  0  0  0  0
   10.2049  -15.1927   21.0096 N   0  0  0  0  0  0  0  0  0  0  0  0
    9.3570  -14.4028   23.0874 C   0  0  0  0  0  0  0  0  0  0  0  0
   10.3614  -14.0001   23.7209 O   0  0  0  0  0  0  0  0  0  0  0  0
    8.1741  -12.1955   26.5216 C   0  0  0  0  0  0  0  0  0  0  0  0
    7.1440  -12.8817   25.6280 C   0  0  2  0  0  0  0  0  0  0  0  0
    5.7797  -12.3608   25.9829 C   0  0  0  0  0  0  0  0  0  0  0  0
    7.1765  -14.3609   25.8207 C   0  0  0  0  0  0  0  0  0  0  0  0
    8.3424  -15.0750   25.2419 C   0  0  2  0  0  0  0  0  0  0  0  0
    8.2856  -15.0202   23.7782 N   0  0  0  0  0  0  0  0  0  0  0  0
    8.5381  -16.4649   25.7013 C   0  0  0  0  0  0  0  0  0  0  0  0
    8.6199  -17.5438   24.8643 O   0  0  0  0  0  0  0  0  0  0  0  0
    8.6371  -16.6967   26.9355 O   0  0  0  0  0  0  0  0  0  0  0  0
  2  1  1  0
  2  3  2  0
  4  5  1  0
  4  2  1  0
  6  7  1  6
  6  5  1  0
  8  6  1  0
  9  8  2  0
 11 13  1  0
 11 10  1  0
 12 11  2  0
 14 13  1  6
 14 15  1  0
 15  8  1  0
 16 14  1  0
 16 17  2  0
 19 18  1  1
 19 21  1  0
 20 19  1  0
 22 21  1  1
 22 23  1  0
 22 24  1  0
 23 16  1  0
 24 26  2  0
 24 25  1  0
M  END
$$$$
