QNL.pdb
     RDKit          3D

 26 25  0  0  1  0  0  0  0  0999 V2000
    7.4765  -13.0011   16.0014 N   0  0  0  0  0  0  0  0  0  0  0  0
    7.5705  -14.3883   16.2488 C   0  0  0  0  0  0  0  0  0  0  0  0
    7.3532  -15.1913   15.3182 O   0  0  0  0  0  0  0  0  0  0  0  0
    7.9191  -14.8838   17.5822 C   0  0  0  0  0  0  0  0  0  0  0  0
    7.9928  -13.8102   18.6224 C   0  0  0  0  0  0  0  0  0  0  0  0
    8.9244  -14.3117   19.7225 C   0  0  2  0  0  0  0  0  0  0  0  0
    9.9971  -15.1061   19.1633 N   0  0  0  0  0  0  0  0  0  0  0  0
    8.1364  -15.1779   20.6329 C   0  0  0  0  0  0  0  0  0  0  0  0
    7.1893  -15.8823   20.1823 O   0  0  0  0  0  0  0  0  0  0  0  0
   11.3624  -18.4273   22.3121 N   0  0  0  0  0  0  0  0  0  0  0  0
   11.6557  -17.0535   22.3894 C   0  0  0  0  0  0  0  0  0  0  0  0
   12.7417  -16.6616   22.8627 O   0  0  0  0  0  0  0  0  0  0  0  0
   10.6645  -16.0715   21.9041 C   0  0  0  0  0  0  0  0  0  0  0  0
    9.3048  -16.2502   22.5473 C   0  0  2  0  0  0  0  0  0  0  0  0
    8.4093  -15.2478   22.0138 N   0  0  0  0  0  0  0  0  0  0  0  0
    9.4378  -15.9995   24.0231 C   0  0  0  0  0  0  0  0  0  0  0  0
   10.1327  -16.7790   24.7173 O   0  0  0  0  0  0  0  0  0  0  0  0
    6.6989  -12.4310   25.0540 C   0  0  0  0  0  0  0  0  0  0  0  0
    7.2801  -12.9136   26.3806 C   0  0  2  0  0  0  0  0  0  0  0  0
    6.9989  -11.8771   27.4318 C   0  0  0  0  0  0  0  0  0  0  0  0
    8.7534  -13.1215   26.2697 C   0  0  0  0  0  0  0  0  0  0  0  0
    9.2032  -14.5071   25.9829 C   0  0  2  0  0  0  0  0  0  0  0  0
    8.7890  -14.8974   24.6321 N   0  0  0  0  0  0  0  0  0  0  0  0
    8.7967  -15.5315   26.9659 C   0  0  0  0  0  0  0  0  0  0  0  0
    8.1191  -16.6755   26.6441 O   0  0  0  0  0  0  0  0  0  0  0  0
    9.0788  -15.3634   28.1820 O   0  0  0  0  0  0  0  0  0  0  0  0
  2  1  1  0
  2  3  2  0
  4  5  1  0
  4  2  1  0
  6  7  1  6
  6  5  1  0
  8  6  1  0
  9  8  2  0
 11 13  1  0
 11 10  1  0
 12 11  2  0
 14 13  1  6
 14 15  1  0
 15  8  1  0
 16 14  1  0
 16 17  2  0
 19 18  1  6
 19 21  1  0
 20 19  1  0
 22 21  1  1
 22 23  1  0
 22 24  1  0
 23 16  1  0
 24 26  2  0
 24 25  1  0
M  END
$$$$
