QNL.pdb
     RDKit          3D

 26 25  0  0  1  0  0  0  0  0999 V2000
    9.0014  -14.7260   15.6610 N   0  0  0  0  0  0  0  0  0  0  0  0
    8.3117  -13.8502   16.5278 C   0  0  0  0  0  0  0  0  0  0  0  0
    7.8972  -12.7573   16.0897 O   0  0  0  0  0  0  0  0  0  0  0  0
    8.0829  -14.2166   17.9273 C   0  0  0  0  0  0  0  0  0  0  0  0
    8.5514  -15.5956   18.2722 C   0  0  0  0  0  0  0  0  0  0  0  0
    8.0886  -15.8854   19.6974 C   0  0  2  0  0  0  0  0  0  0  0  0
    7.3559  -14.7602   20.2374 N   0  0  0  0  0  0  0  0  0  0  0  0
    9.2924  -16.0970   20.5378 C   0  0  0  0  0  0  0  0  0  0  0  0
   10.2580  -16.7882   20.1064 O   0  0  0  0  0  0  0  0  0  0  0  0
   12.5048  -13.9776   19.9573 N   0  0  0  0  0  0  0  0  0  0  0  0
   12.3796  -14.9085   21.0048 C   0  0  0  0  0  0  0  0  0  0  0  0
   12.9464  -16.0182   20.9395 O   0  0  0  0  0  0  0  0  0  0  0  0
   11.5680  -14.5626   22.1897 C   0  0  0  0  0  0  0  0  0  0  0  0
   10.6242  -15.6761   22.5942 C   0  0  2  0  0  0  0  0  0  0  0  0
    9.4040  -15.5441   21.8293 N   0  0  0  0  0  0  0  0  0  0  0  0
   10.2711  -15.5000   24.0443 C   0  0  0  0  0  0  0  0  0  0  0  0
   11.1897  -15.4311   24.8951 O   0  0  0  0  0  0  0  0  0  0  0  0
    8.2591  -12.2266   25.9998 C   0  0  0  0  0  0  0  0  0  0  0  0
    7.3059  -13.2580   25.4011 C   0  0  2  0  0  0  0  0  0  0  0  0
    5.9028  -12.7298   25.5044 C   0  0  0  0  0  0  0  0  0  0  0  0
    7.4029  -14.5559   26.1307 C   0  0  0  0  0  0  0  0  0  0  0  0
    8.6306  -15.3558   25.8912 C   0  0  2  0  0  0  0  0  0  0  0  0
    8.9184  -15.4117   24.4551 N   0  0  0  0  0  0  0  0  0  0  0  0
    8.6379  -16.7127   26.4744 C   0  0  0  0  0  0  0  0  0  0  0  0
    8.8142  -17.8579   25.7472 O   0  0  0  0  0  0  0  0  0  0  0  0
    8.4723  -16.8497   27.7156 O   0  0  0  0  0  0  0  0  0  0  0  0
  2  1  1  0
  2  3  2  0
  4  5  1  0
  4  2  1  0
  6  7  1  1
  6  5  1  0
  8  6  1  0
  9  8  2  0
 11 13  1  0
 11 10  1  0
 12 11  2  0
 14 13  1  6
 14 15  1  0
 15  8  1  0
 16 14  1  0
 16 17  2  0
 19 18  1  1
 19 21  1  0
 20 19  1  0
 22 21  1  6
 22 23  1  0
 22 24  1  0
 23 16  1  0
 24 26  2  0
 24 25  1  0
M  END
$$$$
