QNL.pdb
     RDKit          3D

 26 25  0  0  1  0  0  0  0  0999 V2000
   11.4364  -13.8954   21.0354 N   0  0  0  0  0  0  0  0  0  0  0  0
   11.4969  -13.6037   19.6550 C   0  0  0  0  0  0  0  0  0  0  0  0
   12.5123  -13.9282   19.0055 O   0  0  0  0  0  0  0  0  0  0  0  0
   10.3818  -12.9275   18.9884 C   0  0  0  0  0  0  0  0  0  0  0  0
    9.0681  -13.1068   19.6828 C   0  0  0  0  0  0  0  0  0  0  0  0
    8.6200  -14.5445   19.4351 C   0  0  2  0  0  0  0  0  0  0  0  0
    7.6932  -14.6088   18.3254 N   0  0  0  0  0  0  0  0  0  0  0  0
    7.9169  -15.0230   20.6504 C   0  0  0  0  0  0  0  0  0  0  0  0
    6.6773  -14.8232   20.7904 O   0  0  0  0  0  0  0  0  0  0  0  0
    6.1548  -18.4535   24.2851 N   0  0  0  0  0  0  0  0  0  0  0  0
    7.5450  -18.3434   24.0988 C   0  0  0  0  0  0  0  0  0  0  0  0
    8.3372  -18.7537   24.9712 O   0  0  0  0  0  0  0  0  0  0  0  0
    8.0647  -17.7356   22.8566 C   0  0  0  0  0  0  0  0  0  0  0  0
    7.8783  -16.2328   22.8217 C   0  0  2  0  0  0  0  0  0  0  0  0
    8.5935  -15.7080   21.6795 N   0  0  0  0  0  0  0  0  0  0  0  0
    8.5026  -15.6452   24.0560 C   0  0  0  0  0  0  0  0  0  0  0  0
    9.7522  -15.6045   24.1511 O   0  0  0  0  0  0  0  0  0  0  0  0
    7.9382  -11.5942   25.5355 C   0  0  0  0  0  0  0  0  0  0  0  0
    6.8645  -12.5421   26.0638 C   0  0  2  0  0  0  0  0  0  0  0  0
    5.8648  -11.7421   26.8507 C   0  0  0  0  0  0  0  0  0  0  0  0
    7.4658  -13.5877   26.9420 C   0  0  0  0  0  0  0  0  0  0  0  0
    8.3622  -14.5684   26.2795 C   0  0  2  0  0  0  0  0  0  0  0  0
    7.6964  -15.1404   25.1056 N   0  0  0  0  0  0  0  0  0  0  0  0
    8.8958  -15.6391   27.1455 C   0  0  0  0  0  0  0  0  0  0  0  0
    9.8402  -15.4407   28.1150 O   0  0  0  0  0  0  0  0  0  0  0  0
    8.4716  -16.8164   27.0006 O   0  0  0  0  0  0  0  0  0  0  0  0
  2  1  1  0
  2  3  2  0
  4  5  1  0
  4  2  1  0
  6  7  1  6
  6  5  1  0
  8  6  1  0
  9  8  2  0
 11 13  1  0
 11 10  1  0
 12 11  2  0
 14 13  1  1
 14 15  1  0
 15  8  1  0
 16 14  1  0
 16 17  2  0
 19 18  1  1
 19 21  1  0
 20 19  1  0
 22 21  1  1
 22 23  1  0
 22 24  1  0
 23 16  1  0
 24 26  2  0
 24 25  1  0
M  END
$$$$
