QNL.pdb
     RDKit          3D

 26 25  0  0  1  0  0  0  0  0999 V2000
    5.6338  -19.9111   17.8078 N   0  0  0  0  0  0  0  0  0  0  0  0
    6.4880  -18.8100   17.5792 C   0  0  0  0  0  0  0  0  0  0  0  0
    7.1164  -18.7369   16.5032 O   0  0  0  0  0  0  0  0  0  0  0  0
    6.6378  -17.7624   18.5917 C   0  0  0  0  0  0  0  0  0  0  0  0
    7.4723  -18.1740   19.7640 C   0  0  0  0  0  0  0  0  0  0  0  0
    7.4272  -17.0299   20.7731 C   0  0  2  0  0  0  0  0  0  0  0  0
    7.6360  -15.7577   20.1156 N   0  0  0  0  0  0  0  0  0  0  0  0
    8.5282  -17.2314   21.7464 C   0  0  0  0  0  0  0  0  0  0  0  0
    8.4987  -18.2057   22.5502 O   0  0  0  0  0  0  0  0  0  0  0  0
   13.1682  -17.9036   21.2792 N   0  0  0  0  0  0  0  0  0  0  0  0
   12.5368  -16.6653   21.0618 C   0  0  0  0  0  0  0  0  0  0  0  0
   12.4582  -16.1855   19.9126 O   0  0  0  0  0  0  0  0  0  0  0  0
   11.9639  -15.9317   22.2090 C   0  0  0  0  0  0  0  0  0  0  0  0
   10.7089  -16.5851   22.7497 C   0  0  2  0  0  0  0  0  0  0  0  0
    9.6322  -16.3578   21.8112 N   0  0  0  0  0  0  0  0  0  0  0  0
   10.3359  -15.9092   24.0392 C   0  0  0  0  0  0  0  0  0  0  0  0
   11.1164  -15.9826   25.0179 O   0  0  0  0  0  0  0  0  0  0  0  0
    5.9300  -12.2976   26.3782 C   0  0  0  0  0  0  0  0  0  0  0  0
    7.2634  -12.9981   26.6274 C   0  0  2  0  0  0  0  0  0  0  0  0
    8.2285  -11.9999   27.2024 C   0  0  0  0  0  0  0  0  0  0  0  0
    7.8178  -13.5502   25.3570 C   0  0  0  0  0  0  0  0  0  0  0  0
    8.7132  -14.7275   25.4859 C   0  0  2  0  0  0  0  0  0  0  0  0
    9.1185  -15.1949   24.1571 N   0  0  0  0  0  0  0  0  0  0  0  0
    8.1893  -15.8486   26.2921 C   0  0  0  0  0  0  0  0  0  0  0  0
    8.6136  -16.1454   27.5582 O   0  0  0  0  0  0  0  0  0  0  0  0
    7.2970  -16.5924   25.8048 O   0  0  0  0  0  0  0  0  0  0  0  0
  2  1  1  0
  2  3  2  0
  4  5  1  0
  4  2  1  0
  6  7  1  6
  6  5  1  0
  8  6  1  0
  9  8  2  0
 11 13  1  0
 11 10  1  0
 12 11  2  0
 14 13  1  6
 14 15  1  0
 15  8  1  0
 16 14  1  0
 16 17  2  0
 19 18  1  6
 19 21  1  0
 20 19  1  0
 22 21  1  6
 22 23  1  0
 22 24  1  0
 23 16  1  0
 24 26  2  0
 24 25  1  0
M  END
$$$$
