FWD.pdb
     RDKit          3D

 34 36  0  0  1  0  0  0  0  0999 V2000
   29.2264  -20.3694  -13.3937 N   0  0  0  0  0  0  0  0  0  0  0  0
   27.9516  -19.8643  -12.9328 C   0  0  1  0  0  0  0  0  0  0  0  0
   27.0914  -19.2632  -13.9941 C   0  0  0  0  0  0  0  0  0  0  0  0
   27.8367  -18.1088  -14.6061 C   0  0  0  0  0  0  0  0  0  0  0  0
   28.5866  -18.2575  -15.7764 C   0  0  0  0  0  0  0  0  0  0  0  0
   29.2709  -17.2433  -16.3698 C   0  0  0  0  0  0  0  0  0  0  0  0
   29.2332  -15.9782  -15.7895 C   0  0  0  0  0  0  0  0  0  0  0  0
   28.5024  -15.7888  -14.6284 C   0  0  0  0  0  0  0  0  0  0  0  0
   27.8215  -16.8448  -14.0580 C   0  0  0  0  0  0  0  0  0  0  0  0
   27.2831  -20.7963  -12.0120 C   0  0  0  0  0  0  0  0  0  0  0  0
   27.2529  -22.0284  -12.2428 O   0  0  0  0  0  0  0  0  0  0  0  0
   26.6269  -20.3172  -10.7979 N   0  0  0  0  0  0  0  0  0  0  0  0
   25.5658  -21.1076  -10.2310 C   0  0  1  0  0  0  0  0  0  0  0  0
   25.3258  -21.0016   -8.7775 C   0  0  0  0  0  0  0  0  0  0  0  0
   26.2680  -20.1714   -7.9944 C   0  0  0  0  0  0  0  0  0  0  0  0
   26.5326  -18.8095   -8.1955 C   0  0  0  0  0  0  0  0  0  0  0  0
   27.4087  -18.3598   -7.2854 N   0  0  0  0  0  0  0  0  0  0  0  0
   27.7499  -19.3827   -6.4663 C   0  0  0  0  0  0  0  0  0  0  0  0
   28.6291  -19.4242   -5.3908 C   0  0  0  0  0  0  0  0  0  0  0  0
   28.8097  -20.6196   -4.7345 C   0  0  0  0  0  0  0  0  0  0  0  0
   28.1117  -21.7307   -5.1691 C   0  0  0  0  0  0  0  0  0  0  0  0
   27.2391  -21.7039   -6.2319 C   0  0  0  0  0  0  0  0  0  0  0  0
   27.0475  -20.5103   -6.8981 C   0  0  0  0  0  0  0  0  0  0  0  0
   24.2722  -20.7731  -10.9572 C   0  0  0  0  0  0  0  0  0  0  0  0
   24.0538  -19.6524  -11.4716 O   0  0  0  0  0  0  0  0  0  0  0  0
   23.2840  -21.7726  -11.0553 N   0  0  0  0  0  0  0  0  0  0  0  0
   22.0375  -21.5094  -11.8060 C   0  0  1  0  0  0  0  0  0  0  0  0
   21.7685  -22.6602  -12.7137 C   0  0  0  0  0  0  0  0  0  0  0  0
   20.4647  -22.4991  -13.3731 C   0  0  0  0  0  0  0  0  0  0  0  0
   19.7494  -21.4943  -13.0882 O   0  0  0  0  0  0  0  0  0  0  0  0
   20.9453  -21.1624  -10.8793 C   0  0  0  0  0  0  0  0  0  0  0  0
   20.0666  -20.1398  -11.0909 O   0  0  0  0  0  0  0  0  0  0  0  0
   20.0034  -23.4090  -14.2904 O   0  0  0  0  0  0  0  0  0  0  0  0
   20.8136  -21.8588   -9.8157 O   0  0  0  0  0  0  0  0  0  0  0  0
  2  1  1  6
  3  2  1  0
  4  3  1  0
  4  5  2  0
  6  5  1  0
  7  6  2  0
  8  9  2  0
  8  7  1  0
  9  4  1  0
 10  2  1  0
 10 11  2  0
 12 10  1  0
 13 12  1  0
 13 14  1  1
 15 14  1  0
 16 15  2  0
 17 18  1  0
 17 16  1  0
 18 23  2  0
 19 20  2  0
 19 18  1  0
 20 21  1  0
 21 22  2  0
 23 22  1  0
 23 15  1  0
 24 13  1  0
 25 24  2  0
 26 24  1  0
 27 26  1  0
 27 31  1  0
 27 28  1  1
 28 29  1  0
 29 30  2  0
 31 32  1  0
 33 29  1  0
 34 31  2  0
M  END
$$$$
