FWD.pdb
     RDKit          3D

 34 36  0  0  1  0  0  0  0  0999 V2000
   27.6440  -19.5204  -18.8221 N   0  0  0  0  0  0  0  0  0  0  0  0
   27.2793  -18.6926  -17.6932 C   0  0  1  0  0  0  0  0  0  0  0  0
   26.5252  -17.4521  -18.0394 C   0  0  0  0  0  0  0  0  0  0  0  0
   27.4471  -16.5374  -18.7985 C   0  0  0  0  0  0  0  0  0  0  0  0
   28.5899  -15.9917  -18.2067 C   0  0  0  0  0  0  0  0  0  0  0  0
   29.4557  -15.1664  -18.8536 C   0  0  0  0  0  0  0  0  0  0  0  0
   29.2020  -14.8355  -20.1820 C   0  0  0  0  0  0  0  0  0  0  0  0
   28.0793  -15.3544  -20.8052 C   0  0  0  0  0  0  0  0  0  0  0  0
   27.2257  -16.1889  -20.1130 C   0  0  0  0  0  0  0  0  0  0  0  0
   26.7433  -19.4819  -16.5738 C   0  0  0  0  0  0  0  0  0  0  0  0
   25.8999  -20.3901  -16.7641 O   0  0  0  0  0  0  0  0  0  0  0  0
   27.1722  -19.2314  -15.2000 N   0  0  0  0  0  0  0  0  0  0  0  0
   26.5384  -19.9652  -14.1361 C   0  0  1  0  0  0  0  0  0  0  0  0
   27.1766  -19.9413  -12.8044 C   0  0  0  0  0  0  0  0  0  0  0  0
   26.5354  -20.7342  -11.7318 C   0  0  0  0  0  0  0  0  0  0  0  0
   26.2561  -22.1073  -11.7742 C   0  0  0  0  0  0  0  0  0  0  0  0
   25.7069  -22.5127  -10.6201 N   0  0  0  0  0  0  0  0  0  0  0  0
   25.6038  -21.4486   -9.7889 C   0  0  0  0  0  0  0  0  0  0  0  0
   25.0895  -21.3545   -8.5013 C   0  0  0  0  0  0  0  0  0  0  0  0
   25.0861  -20.1259   -7.8825 C   0  0  0  0  0  0  0  0  0  0  0  0
   25.5928  -19.0350   -8.5636 C   0  0  0  0  0  0  0  0  0  0  0  0
   26.1043  -19.1139   -9.8379 C   0  0  0  0  0  0  0  0  0  0  0  0
   26.1151  -20.3411  -10.4695 C   0  0  0  0  0  0  0  0  0  0  0  0
   25.1078  -19.4700  -13.9922 C   0  0  0  0  0  0  0  0  0  0  0  0
   24.7723  -18.2874  -14.2311 O   0  0  0  0  0  0  0  0  0  0  0  0
   24.1224  -20.3874  -13.5763 N   0  0  0  0  0  0  0  0  0  0  0  0
   22.6967  -19.9952  -13.5825 C   0  0  1  0  0  0  0  0  0  0  0  0
   22.3115  -19.5974  -14.9660 C   0  0  0  0  0  0  0  0  0  0  0  0
   21.2589  -18.5719  -14.9301 C   0  0  0  0  0  0  0  0  0  0  0  0
   21.0314  -17.9593  -13.8460 O   0  0  0  0  0  0  0  0  0  0  0  0
   21.8720  -21.0536  -12.9729 C   0  0  0  0  0  0  0  0  0  0  0  0
   21.9539  -22.3719  -13.3163 O   0  0  0  0  0  0  0  0  0  0  0  0
   20.5175  -18.2607  -16.0417 O   0  0  0  0  0  0  0  0  0  0  0  0
   21.0308  -20.7177  -12.0712 O   0  0  0  0  0  0  0  0  0  0  0  0
  2  1  1  6
  3  2  1  0
  4  3  1  0
  4  5  2  0
  6  5  1  0
  7  6  2  0
  8  9  2  0
  8  7  1  0
  9  4  1  0
 10  2  1  0
 10 11  2  0
 12 10  1  0
 13 12  1  0
 13 14  1  1
 15 14  1  0
 16 15  2  0
 17 18  1  0
 17 16  1  0
 18 23  2  0
 19 20  2  0
 19 18  1  0
 20 21  1  0
 21 22  2  0
 23 22  1  0
 23 15  1  0
 24 13  1  0
 25 24  2  0
 26 24  1  0
 27 26  1  0
 27 31  1  0
 27 28  1  6
 28 29  1  0
 29 30  2  0
 31 32  1  0
 33 29  1  0
 34 31  2  0
M  END
$$$$
