FWD.pdb
     RDKit          3D

 34 36  0  0  1  0  0  0  0  0999 V2000
   28.6831  -20.8230  -15.1664 N   0  0  0  0  0  0  0  0  0  0  0  0
   27.5669  -20.0290  -14.7016 C   0  0  1  0  0  0  0  0  0  0  0  0
   26.8167  -19.3092  -15.7724 C   0  0  0  0  0  0  0  0  0  0  0  0
   27.4253  -17.9435  -15.9367 C   0  0  0  0  0  0  0  0  0  0  0  0
   28.3157  -17.6572  -16.9756 C   0  0  0  0  0  0  0  0  0  0  0  0
   28.8856  -16.4378  -17.1684 C   0  0  0  0  0  0  0  0  0  0  0  0
   28.5752  -15.4049  -16.2879 C   0  0  0  0  0  0  0  0  0  0  0  0
   27.6978  -15.6474  -15.2441 C   0  0  0  0  0  0  0  0  0  0  0  0
   27.1408  -16.8996  -15.0836 C   0  0  0  0  0  0  0  0  0  0  0  0
   26.7487  -20.7444  -13.7105 C   0  0  0  0  0  0  0  0  0  0  0  0
   26.4612  -21.9560  -13.8579 O   0  0  0  0  0  0  0  0  0  0  0  0
   26.2387  -20.0659  -12.5215 N   0  0  0  0  0  0  0  0  0  0  0  0
   25.4322  -20.8151  -11.5939 C   0  0  1  0  0  0  0  0  0  0  0  0
   25.6125  -20.5515  -10.1519 C   0  0  0  0  0  0  0  0  0  0  0  0
   26.9129  -20.9255   -9.5525 C   0  0  0  0  0  0  0  0  0  0  0  0
   27.8874  -21.7452  -10.1387 C   0  0  0  0  0  0  0  0  0  0  0  0
   28.9602  -21.8470   -9.3408 N   0  0  0  0  0  0  0  0  0  0  0  0
   28.7422  -21.1159   -8.2219 C   0  0  0  0  0  0  0  0  0  0  0  0
   29.5397  -20.9208   -7.1006 C   0  0  0  0  0  0  0  0  0  0  0  0
   29.0583  -20.1342   -6.0799 C   0  0  0  0  0  0  0  0  0  0  0  0
   27.8030  -19.5700   -6.2084 C   0  0  0  0  0  0  0  0  0  0  0  0
   27.0034  -19.7550   -7.3119 C   0  0  0  0  0  0  0  0  0  0  0  0
   27.4752  -20.5407   -8.3441 C   0  0  0  0  0  0  0  0  0  0  0  0
   23.9678  -20.5996  -11.9424 C   0  0  0  0  0  0  0  0  0  0  0  0
   23.4226  -19.4726  -11.9134 O   0  0  0  0  0  0  0  0  0  0  0  0
   23.1989  -21.7194  -12.3170 N   0  0  0  0  0  0  0  0  0  0  0  0
   21.7504  -21.5700  -12.5735 C   0  0  1  0  0  0  0  0  0  0  0  0
   21.2156  -22.8619  -13.0889 C   0  0  0  0  0  0  0  0  0  0  0  0
   19.8092  -22.7112  -13.4891 C   0  0  0  0  0  0  0  0  0  0  0  0
   19.2525  -21.5803  -13.3726 O   0  0  0  0  0  0  0  0  0  0  0  0
   21.0720  -21.0322  -11.3807 C   0  0  0  0  0  0  0  0  0  0  0  0
   20.2718  -19.9268  -11.3965 O   0  0  0  0  0  0  0  0  0  0  0  0
   19.0845  -23.7643  -13.9871 O   0  0  0  0  0  0  0  0  0  0  0  0
   21.2435  -21.6353  -10.2670 O   0  0  0  0  0  0  0  0  0  0  0  0
  2  1  1  6
  3  2  1  0
  4  3  1  0
  4  5  2  0
  6  5  1  0
  7  6  2  0
  8  9  2  0
  8  7  1  0
  9  4  1  0
 10  2  1  0
 10 11  2  0
 12 10  1  0
 13 12  1  0
 13 14  1  1
 15 14  1  0
 16 15  2  0
 17 18  1  0
 17 16  1  0
 18 23  2  0
 19 20  2  0
 19 18  1  0
 20 21  1  0
 21 22  2  0
 23 22  1  0
 23 15  1  0
 24 13  1  0
 25 24  2  0
 26 24  1  0
 27 26  1  0
 27 31  1  0
 27 28  1  1
 28 29  1  0
 29 30  2  0
 31 32  1  0
 33 29  1  0
 34 31  2  0
M  END
$$$$
