FWD.pdb
     RDKit          3D

 34 36  0  0  1  0  0  0  0  0999 V2000
   37.3360   -8.2409  -13.6408 N   0  0  0  0  0  0  0  0  0  0  0  0
   37.0504   -7.9518  -15.0291 C   0  0  1  0  0  0  0  0  0  0  0  0
   38.1669   -8.2428  -15.9757 C   0  0  0  0  0  0  0  0  0  0  0  0
   39.3461   -7.3932  -15.5880 C   0  0  0  0  0  0  0  0  0  0  0  0
   40.4304   -7.9217  -14.8815 C   0  0  0  0  0  0  0  0  0  0  0  0
   41.5202   -7.1957  -14.5150 C   0  0  0  0  0  0  0  0  0  0  0  0
   41.5732   -5.8465  -14.8546 C   0  0  0  0  0  0  0  0  0  0  0  0
   40.5185   -5.2836  -15.5538 C   0  0  0  0  0  0  0  0  0  0  0  0
   39.4306   -6.0556  -15.9071 C   0  0  0  0  0  0  0  0  0  0  0  0
   35.7197   -8.4291  -15.4351 C   0  0  0  0  0  0  0  0  0  0  0  0
   35.3528   -9.6056  -15.2039 O   0  0  0  0  0  0  0  0  0  0  0  0
   34.7807   -7.5491  -16.1266 N   0  0  0  0  0  0  0  0  0  0  0  0
   33.4937   -8.0738  -16.5015 C   0  0  1  0  0  0  0  0  0  0  0  0
   32.4040   -7.1114  -16.7614 C   0  0  0  0  0  0  0  0  0  0  0  0
   31.0922   -7.6660  -17.1636 C   0  0  0  0  0  0  0  0  0  0  0  0
   30.4969   -8.8297  -16.6566 C   0  0  0  0  0  0  0  0  0  0  0  0
   29.2913   -9.0225  -17.2109 N   0  0  0  0  0  0  0  0  0  0  0  0
   29.0479   -8.0178  -18.0856 C   0  0  0  0  0  0  0  0  0  0  0  0
   27.9548   -7.7838  -18.9111 C   0  0  0  0  0  0  0  0  0  0  0  0
   27.9748   -6.6802  -19.7321 C   0  0  0  0  0  0  0  0  0  0  0  0
   29.0787   -5.8488  -19.7045 C   0  0  0  0  0  0  0  0  0  0  0  0
   30.1671   -6.0687  -18.8930 C   0  0  0  0  0  0  0  0  0  0  0  0
   30.1590   -7.1717  -18.0631 C   0  0  0  0  0  0  0  0  0  0  0  0
   33.6678   -8.9471  -17.7343 C   0  0  0  0  0  0  0  0  0  0  0  0
   34.3019   -8.5719  -18.7469 O   0  0  0  0  0  0  0  0  0  0  0  0
   33.0921  -10.2331  -17.7281 N   0  0  0  0  0  0  0  0  0  0  0  0
   33.3334  -11.1571  -18.8571 C   0  0  1  0  0  0  0  0  0  0  0  0
   33.3975  -12.5513  -18.3346 C   0  0  0  0  0  0  0  0  0  0  0  0
   34.3886  -13.3351  -19.0858 C   0  0  0  0  0  0  0  0  0  0  0  0
   35.0823  -12.7616  -19.9759 O   0  0  0  0  0  0  0  0  0  0  0  0
   32.3482  -10.9249  -19.9283 C   0  0  0  0  0  0  0  0  0  0  0  0
   32.6747  -10.4775  -21.1756 O   0  0  0  0  0  0  0  0  0  0  0  0
   34.5821  -14.6720  -18.8463 O   0  0  0  0  0  0  0  0  0  0  0  0
   31.1169  -11.1548  -19.6745 O   0  0  0  0  0  0  0  0  0  0  0  0
  2  1  1  1
  3  2  1  0
  4  3  1  0
  4  5  2  0
  6  5  1  0
  7  6  2  0
  8  9  2  0
  8  7  1  0
  9  4  1  0
 10  2  1  0
 10 11  2  0
 12 10  1  0
 13 12  1  0
 13 14  1  6
 15 14  1  0
 16 15  2  0
 17 18  1  0
 17 16  1  0
 18 23  2  0
 19 20  2  0
 19 18  1  0
 20 21  1  0
 21 22  2  0
 23 22  1  0
 23 15  1  0
 24 13  1  0
 25 24  2  0
 26 24  1  0
 27 26  1  0
 27 31  1  0
 27 28  1  1
 28 29  1  0
 29 30  2  0
 31 32  1  0
 33 29  1  0
 34 31  2  0
M  END
$$$$
