FWD.pdb
     RDKit          3D

 34 36  0  0  1  0  0  0  0  0999 V2000
   23.3423  -17.2816  -20.4138 N   0  0  0  0  0  0  0  0  0  0  0  0
   23.9486  -16.5274  -19.3386 C   0  0  1  0  0  0  0  0  0  0  0  0
   24.6339  -15.2701  -19.7594 C   0  0  0  0  0  0  0  0  0  0  0  0
   25.5869  -15.6042  -20.8742 C   0  0  0  0  0  0  0  0  0  0  0  0
   26.8073  -16.2407  -20.6300 C   0  0  0  0  0  0  0  0  0  0  0  0
   27.6974  -16.5685  -21.6044 C   0  0  0  0  0  0  0  0  0  0  0  0
   27.3902  -16.2575  -22.9264 C   0  0  0  0  0  0  0  0  0  0  0  0
   26.1911  -15.6256  -23.2110 C   0  0  0  0  0  0  0  0  0  0  0  0
   25.3150  -15.3104  -22.1926 C   0  0  0  0  0  0  0  0  0  0  0  0
   23.0658  -16.4196  -18.1670 C   0  0  0  0  0  0  0  0  0  0  0  0
   23.3765  -15.7080  -17.1824 O   0  0  0  0  0  0  0  0  0  0  0  0
   21.7976  -17.1423  -18.1085 N   0  0  0  0  0  0  0  0  0  0  0  0
   20.8919  -16.8574  -17.0264 C   0  0  1  0  0  0  0  0  0  0  0  0
   19.6205  -16.1791  -17.3499 C   0  0  0  0  0  0  0  0  0  0  0  0
   19.7009  -14.7787  -17.8219 C   0  0  0  0  0  0  0  0  0  0  0  0
   20.0400  -14.3617  -19.1167 C   0  0  0  0  0  0  0  0  0  0  0  0
   19.9795  -13.0257  -19.2128 N   0  0  0  0  0  0  0  0  0  0  0  0
   19.6070  -12.5187  -18.0136 C   0  0  0  0  0  0  0  0  0  0  0  0
   19.4239  -11.2026  -17.6067 C   0  0  0  0  0  0  0  0  0  0  0  0
   19.0589  -10.9622  -16.3024 C   0  0  0  0  0  0  0  0  0  0  0  0
   18.8890  -12.0361  -15.4489 C   0  0  0  0  0  0  0  0  0  0  0  0
   19.0672  -13.3431  -15.8381 C   0  0  0  0  0  0  0  0  0  0  0  0
   19.4319  -13.5983  -17.1447 C   0  0  0  0  0  0  0  0  0  0  0  0
   20.5729  -18.1587  -16.3072 C   0  0  0  0  0  0  0  0  0  0  0  0
   20.4881  -19.2582  -16.9005 O   0  0  0  0  0  0  0  0  0  0  0  0
   20.3696  -18.1187  -14.9135 N   0  0  0  0  0  0  0  0  0  0  0  0
   20.0295  -19.3565  -14.1796 C   0  0  1  0  0  0  0  0  0  0  0  0
   21.0158  -19.5521  -13.0797 C   0  0  0  0  0  0  0  0  0  0  0  0
   20.7467  -20.8096  -12.3676 C   0  0  0  0  0  0  0  0  0  0  0  0
   19.7212  -21.4852  -12.6749 O   0  0  0  0  0  0  0  0  0  0  0  0
   18.6146  -19.3351  -13.7677 C   0  0  0  0  0  0  0  0  0  0  0  0
   17.8723  -18.1948  -13.6614 O   0  0  0  0  0  0  0  0  0  0  0  0
   21.5791  -21.2707  -11.3794 O   0  0  0  0  0  0  0  0  0  0  0  0
   18.0501  -20.4485  -13.4934 O   0  0  0  0  0  0  0  0  0  0  0  0
  2  1  1  6
  3  2  1  0
  4  3  1  0
  4  5  2  0
  6  5  1  0
  7  6  2  0
  8  9  2  0
  8  7  1  0
  9  4  1  0
 10  2  1  0
 10 11  2  0
 12 10  1  0
 13 12  1  0
 13 14  1  6
 15 14  1  0
 16 15  2  0
 17 18  1  0
 17 16  1  0
 18 23  2  0
 19 20  2  0
 19 18  1  0
 20 21  1  0
 21 22  2  0
 23 22  1  0
 23 15  1  0
 24 13  1  0
 25 24  2  0
 26 24  1  0
 27 26  1  0
 27 31  1  0
 27 28  1  1
 28 29  1  0
 29 30  2  0
 31 32  1  0
 33 29  1  0
 34 31  2  0
M  END
$$$$
