FWD.pdb
     RDKit          3D

 34 36  0  0  1  0  0  0  0  0999 V2000
   22.0529  -22.2551  -18.2928 N   0  0  0  0  0  0  0  0  0  0  0  0
   20.8409  -21.4724  -18.3977 C   0  0  1  0  0  0  0  0  0  0  0  0
   19.8033  -22.0372  -19.3099 C   0  0  0  0  0  0  0  0  0  0  0  0
   20.3857  -22.1137  -20.6947 C   0  0  0  0  0  0  0  0  0  0  0  0
   20.5359  -20.9749  -21.4913 C   0  0  0  0  0  0  0  0  0  0  0  0
   21.0624  -20.9932  -22.7450 C   0  0  0  0  0  0  0  0  0  0  0  0
   21.4792  -22.2090  -23.2803 C   0  0  0  0  0  0  0  0  0  0  0  0
   21.3466  -23.3616  -22.5238 C   0  0  0  0  0  0  0  0  0  0  0  0
   20.8073  -23.2997  -21.2552 C   0  0  0  0  0  0  0  0  0  0  0  0
   20.3628  -21.0075  -17.0867 C   0  0  0  0  0  0  0  0  0  0  0  0
   20.5427  -21.6895  -16.0500 O   0  0  0  0  0  0  0  0  0  0  0  0
   19.6572  -19.7358  -16.9482 N   0  0  0  0  0  0  0  0  0  0  0  0
   19.1542  -19.3651  -15.6514 C   0  0  1  0  0  0  0  0  0  0  0  0
   19.1982  -17.9375  -15.2753 C   0  0  0  0  0  0  0  0  0  0  0  0
   20.2865  -17.1181  -15.8535 C   0  0  0  0  0  0  0  0  0  0  0  0
   21.4691  -16.7383  -15.2034 C   0  0  0  0  0  0  0  0  0  0  0  0
   22.2546  -16.0312  -16.0286 N   0  0  0  0  0  0  0  0  0  0  0  0
   21.6368  -15.9182  -17.2283 C   0  0  0  0  0  0  0  0  0  0  0  0
   22.0339  -15.2697  -18.3915 C   0  0  0  0  0  0  0  0  0  0  0  0
   21.1905  -15.2925  -19.4780 C   0  0  0  0  0  0  0  0  0  0  0  0
   19.9836  -15.9575  -19.3712 C   0  0  0  0  0  0  0  0  0  0  0  0
   19.5779  -16.6029  -18.2264 C   0  0  0  0  0  0  0  0  0  0  0  0
   20.4156  -16.5891  -17.1294 C   0  0  0  0  0  0  0  0  0  0  0  0
   17.7174  -19.8491  -15.5332 C   0  0  0  0  0  0  0  0  0  0  0  0
   17.0549  -20.2527  -16.5163 O   0  0  0  0  0  0  0  0  0  0  0  0
   17.1140  -19.8446  -14.2600 N   0  0  0  0  0  0  0  0  0  0  0  0
   15.7441  -20.3743  -14.0886 C   0  0  1  0  0  0  0  0  0  0  0  0
   15.6877  -21.7557  -14.6446 C   0  0  0  0  0  0  0  0  0  0  0  0
   14.3596  -22.3445  -14.4207 C   0  0  0  0  0  0  0  0  0  0  0  0
   13.3457  -21.7963  -14.9441 O   0  0  0  0  0  0  0  0  0  0  0  0
   15.3135  -20.2359  -12.6859 C   0  0  0  0  0  0  0  0  0  0  0  0
   16.0503  -19.6075  -11.7243 O   0  0  0  0  0  0  0  0  0  0  0  0
   14.1905  -23.4737  -13.6601 O   0  0  0  0  0  0  0  0  0  0  0  0
   14.1852  -20.7339  -12.3503 O   0  0  0  0  0  0  0  0  0  0  0  0
  2  1  1  1
  3  2  1  0
  4  3  1  0
  4  5  2  0
  6  5  1  0
  7  6  2  0
  8  9  2  0
  8  7  1  0
  9  4  1  0
 10  2  1  0
 10 11  2  0
 12 10  1  0
 13 12  1  0
 13 14  1  6
 15 14  1  0
 16 15  2  0
 17 18  1  0
 17 16  1  0
 18 23  2  0
 19 20  2  0
 19 18  1  0
 20 21  1  0
 21 22  2  0
 23 22  1  0
 23 15  1  0
 24 13  1  0
 25 24  2  0
 26 24  1  0
 27 26  1  0
 27 31  1  0
 27 28  1  1
 28 29  1  0
 29 30  2  0
 31 32  1  0
 33 29  1  0
 34 31  2  0
M  END
$$$$
