FWD.pdb
     RDKit          3D

 34 36  0  0  1  0  0  0  0  0999 V2000
   22.0277  -13.7254  -19.4109 N   0  0  0  0  0  0  0  0  0  0  0  0
   22.5838  -12.3973  -19.5503 C   0  0  1  0  0  0  0  0  0  0  0  0
   22.5459  -11.8407  -20.9346 C   0  0  0  0  0  0  0  0  0  0  0  0
   23.2442  -12.8086  -21.8502 C   0  0  0  0  0  0  0  0  0  0  0  0
   22.5309  -13.6774  -22.6809 C   0  0  0  0  0  0  0  0  0  0  0  0
   23.1170  -14.5641  -23.5291 C   0  0  0  0  0  0  0  0  0  0  0  0
   24.5070  -14.6225  -23.5836 C   0  0  0  0  0  0  0  0  0  0  0  0
   25.2512  -13.7790  -22.7756 C   0  0  0  0  0  0  0  0  0  0  0  0
   24.6172  -12.8932  -21.9285 C   0  0  0  0  0  0  0  0  0  0  0  0
   22.1402  -11.4923  -18.4790 C   0  0  0  0  0  0  0  0  0  0  0  0
   20.9288  -11.3954  -18.1702 O   0  0  0  0  0  0  0  0  0  0  0  0
   23.0963  -10.6710  -17.7405 N   0  0  0  0  0  0  0  0  0  0  0  0
   22.5998   -9.7870  -16.7187 C   0  0  1  0  0  0  0  0  0  0  0  0
   23.5381   -9.3544  -15.6634 C   0  0  0  0  0  0  0  0  0  0  0  0
   23.0134   -8.4418  -14.6231 C   0  0  0  0  0  0  0  0  0  0  0  0
   22.3933   -8.8242  -13.4254 C   0  0  0  0  0  0  0  0  0  0  0  0
   22.0737   -7.7462  -12.6948 N   0  0  0  0  0  0  0  0  0  0  0  0
   22.4605   -6.6350  -13.3650 C   0  0  0  0  0  0  0  0  0  0  0  0
   22.3345   -5.2910  -13.0348 C   0  0  0  0  0  0  0  0  0  0  0  0
   22.8017   -4.3490  -13.9218 C   0  0  0  0  0  0  0  0  0  0  0  0
   23.3768   -4.7745  -15.1045 C   0  0  0  0  0  0  0  0  0  0  0  0
   23.5076   -6.1009  -15.4440 C   0  0  0  0  0  0  0  0  0  0  0  0
   23.0444   -7.0563  -14.5620 C   0  0  0  0  0  0  0  0  0  0  0  0
   22.0253   -8.5482  -17.3881 C   0  0  0  0  0  0  0  0  0  0  0  0
   22.6196   -7.9353  -18.3043 O   0  0  0  0  0  0  0  0  0  0  0  0
   20.7687   -8.0785  -16.9571 N   0  0  0  0  0  0  0  0  0  0  0  0
   20.1573   -6.8991  -17.6065 C   0  0  1  0  0  0  0  0  0  0  0  0
   18.9129   -7.3249  -18.3072 C   0  0  0  0  0  0  0  0  0  0  0  0
   19.2128   -7.7162  -19.6920 C   0  0  0  0  0  0  0  0  0  0  0  0
   20.2390   -7.2391  -20.2593 O   0  0  0  0  0  0  0  0  0  0  0  0
   19.9952   -5.8050  -16.6325 C   0  0  0  0  0  0  0  0  0  0  0  0
   20.5880   -4.5822  -16.7592 O   0  0  0  0  0  0  0  0  0  0  0  0
   18.4100   -8.5863  -20.3852 O   0  0  0  0  0  0  0  0  0  0  0  0
   19.2577   -6.0132  -15.6097 O   0  0  0  0  0  0  0  0  0  0  0  0
  2  1  1  6
  3  2  1  0
  4  3  1  0
  4  5  2  0
  6  5  1  0
  7  6  2  0
  8  9  2  0
  8  7  1  0
  9  4  1  0
 10  2  1  0
 10 11  2  0
 12 10  1  0
 13 12  1  0
 13 14  1  1
 15 14  1  0
 16 15  2  0
 17 18  1  0
 17 16  1  0
 18 23  2  0
 19 20  2  0
 19 18  1  0
 20 21  1  0
 21 22  2  0
 23 22  1  0
 23 15  1  0
 24 13  1  0
 25 24  2  0
 26 24  1  0
 27 26  1  0
 27 31  1  0
 27 28  1  1
 28 29  1  0
 29 30  2  0
 31 32  1  0
 33 29  1  0
 34 31  2  0
M  END
$$$$
