FWD.pdb
     RDKit          3D

 34 36  0  0  1  0  0  0  0  0999 V2000
   27.7317  -20.7267  -17.9931 N   0  0  0  0  0  0  0  0  0  0  0  0
   26.8989  -19.7970  -17.2620 C   0  0  1  0  0  0  0  0  0  0  0  0
   25.8120  -19.1608  -18.0629 C   0  0  0  0  0  0  0  0  0  0  0  0
   26.4458  -18.2319  -19.0620 C   0  0  0  0  0  0  0  0  0  0  0  0
   26.3438  -18.4546  -20.4382 C   0  0  0  0  0  0  0  0  0  0  0  0
   26.8934  -17.6405  -21.3787 C   0  0  0  0  0  0  0  0  0  0  0  0
   27.6027  -16.5171  -20.9623 C   0  0  0  0  0  0  0  0  0  0  0  0
   27.7281  -16.2610  -19.6070 C   0  0  0  0  0  0  0  0  0  0  0  0
   27.1548  -17.1124  -18.6848 C   0  0  0  0  0  0  0  0  0  0  0  0
   26.5078  -20.3177  -15.9432 C   0  0  0  0  0  0  0  0  0  0  0  0
   26.2048  -21.5240  -15.7845 O   0  0  0  0  0  0  0  0  0  0  0  0
   26.4545  -19.4452  -14.7727 N   0  0  0  0  0  0  0  0  0  0  0  0
   25.9567  -19.9842  -13.5342 C   0  0  1  0  0  0  0  0  0  0  0  0
   26.3631  -19.3206  -12.2788 C   0  0  0  0  0  0  0  0  0  0  0  0
   27.2152  -20.0946  -11.3488 C   0  0  0  0  0  0  0  0  0  0  0  0
   28.3166  -20.8865  -11.7025 C   0  0  0  0  0  0  0  0  0  0  0  0
   28.8860  -21.4172  -10.6107 N   0  0  0  0  0  0  0  0  0  0  0  0
   28.1995  -21.0069   -9.5179 C   0  0  0  0  0  0  0  0  0  0  0  0
   28.3865  -21.2974   -8.1718 C   0  0  0  0  0  0  0  0  0  0  0  0
   27.5157  -20.7558   -7.2549 C   0  0  0  0  0  0  0  0  0  0  0  0
   26.4907  -19.9459   -7.7065 C   0  0  0  0  0  0  0  0  0  0  0  0
   26.2939  -19.6506   -9.0353 C   0  0  0  0  0  0  0  0  0  0  0  0
   27.1616  -20.1862   -9.9656 C   0  0  0  0  0  0  0  0  0  0  0  0
   24.4374  -20.0104  -13.5939 C   0  0  0  0  0  0  0  0  0  0  0  0
   23.7612  -19.0692  -14.0684 O   0  0  0  0  0  0  0  0  0  0  0  0
   23.7692  -21.1468  -13.0964 N   0  0  0  0  0  0  0  0  0  0  0  0
   22.2933  -21.1568  -13.0062 C   0  0  1  0  0  0  0  0  0  0  0  0
   21.7986  -22.5222  -13.3401 C   0  0  0  0  0  0  0  0  0  0  0  0
   20.3369  -22.5867  -13.1981 C   0  0  0  0  0  0  0  0  0  0  0  0
   19.6331  -21.6232  -13.6209 O   0  0  0  0  0  0  0  0  0  0  0  0
   21.8564  -20.6237  -11.7036 C   0  0  0  0  0  0  0  0  0  0  0  0
   20.6156  -20.1038  -11.4740 O   0  0  0  0  0  0  0  0  0  0  0  0
   19.7156  -23.6648  -12.6204 O   0  0  0  0  0  0  0  0  0  0  0  0
   22.6875  -20.6489  -10.7329 O   0  0  0  0  0  0  0  0  0  0  0  0
  2  1  1  6
  3  2  1  0
  4  3  1  0
  4  5  2  0
  6  5  1  0
  7  6  2  0
  8  9  2  0
  8  7  1  0
  9  4  1  0
 10  2  1  0
 10 11  2  0
 12 10  1  0
 13 12  1  0
 13 14  1  1
 15 14  1  0
 16 15  2  0
 17 18  1  0
 17 16  1  0
 18 23  2  0
 19 20  2  0
 19 18  1  0
 20 21  1  0
 21 22  2  0
 23 22  1  0
 23 15  1  0
 24 13  1  0
 25 24  2  0
 26 24  1  0
 27 26  1  0
 27 31  1  0
 27 28  1  1
 28 29  1  0
 29 30  2  0
 31 32  1  0
 33 29  1  0
 34 31  2  0
M  END
$$$$
