FWD.pdb
     RDKit          3D

 34 36  0  0  1  0  0  0  0  0999 V2000
   17.0171  -19.1877    1.8294 N   0  0  0  0  0  0  0  0  0  0  0  0
   16.6216  -19.2651    3.2187 C   0  0  1  0  0  0  0  0  0  0  0  0
   16.3664  -20.6457    3.7250 C   0  0  0  0  0  0  0  0  0  0  0  0
   15.2812  -21.2617    2.8851 C   0  0  0  0  0  0  0  0  0  0  0  0
   13.9475  -20.8587    2.9989 C   0  0  0  0  0  0  0  0  0  0  0  0
   12.9340  -21.3808    2.2577 C   0  0  0  0  0  0  0  0  0  0  0  0
   13.2255  -22.3760    1.3286 C   0  0  0  0  0  0  0  0  0  0  0  0
   14.5347  -22.8046    1.1856 C   0  0  0  0  0  0  0  0  0  0  0  0
   15.5343  -22.2484    1.9574 C   0  0  0  0  0  0  0  0  0  0  0  0
   17.4450  -18.4039    4.0811 C   0  0  0  0  0  0  0  0  0  0  0  0
   18.6867  -18.3253    3.9255 O   0  0  0  0  0  0  0  0  0  0  0  0
   16.8442  -17.6133    5.1526 N   0  0  0  0  0  0  0  0  0  0  0  0
   17.7024  -16.7950    5.9689 C   0  0  1  0  0  0  0  0  0  0  0  0
   17.2088  -15.4622    6.3704 C   0  0  0  0  0  0  0  0  0  0  0  0
   17.9119  -14.2842    5.8155 C   0  0  0  0  0  0  0  0  0  0  0  0
   17.5111  -13.5315    4.7027 C   0  0  0  0  0  0  0  0  0  0  0  0
   18.3547  -12.5100    4.4957 N   0  0  0  0  0  0  0  0  0  0  0  0
   19.3238  -12.5465    5.4409 C   0  0  0  0  0  0  0  0  0  0  0  0
   20.4249  -11.7219    5.6382 C   0  0  0  0  0  0  0  0  0  0  0  0
   21.2778  -12.0017    6.6806 C   0  0  0  0  0  0  0  0  0  0  0  0
   21.0077  -13.0896    7.4893 C   0  0  0  0  0  0  0  0  0  0  0  0
   19.9223  -13.9139    7.3052 C   0  0  0  0  0  0  0  0  0  0  0  0
   19.0576  -13.6433    6.2639 C   0  0  0  0  0  0  0  0  0  0  0  0
   18.0609  -17.5733    7.2252 C   0  0  0  0  0  0  0  0  0  0  0  0
   17.3207  -18.4611    7.7072 O   0  0  0  0  0  0  0  0  0  0  0  0
   19.2811  -17.2808    7.8663 N   0  0  0  0  0  0  0  0  0  0  0  0
   19.7033  -18.0651    9.0465 C   0  0  1  0  0  0  0  0  0  0  0  0
   19.6859  -19.5132    8.6952 C   0  0  0  0  0  0  0  0  0  0  0  0
   18.8761  -20.2659    9.6639 C   0  0  0  0  0  0  0  0  0  0  0  0
   17.7217  -19.8421    9.9642 O   0  0  0  0  0  0  0  0  0  0  0  0
   20.9826  -17.5538    9.5700 C   0  0  0  0  0  0  0  0  0  0  0  0
   21.7154  -16.5767    8.9612 O   0  0  0  0  0  0  0  0  0  0  0  0
   19.3386  -21.4168   10.2502 O   0  0  0  0  0  0  0  0  0  0  0  0
   21.4323  -18.0548   10.6565 O   0  0  0  0  0  0  0  0  0  0  0  0
  2  1  1  6
  3  2  1  0
  4  3  1  0
  4  5  2  0
  6  5  1  0
  7  6  2  0
  8  9  2  0
  8  7  1  0
  9  4  1  0
 10  2  1  0
 10 11  2  0
 12 10  1  0
 13 12  1  0
 13 14  1  1
 15 14  1  0
 16 15  2  0
 17 18  1  0
 17 16  1  0
 18 23  2  0
 19 20  2  0
 19 18  1  0
 20 21  1  0
 21 22  2  0
 23 22  1  0
 23 15  1  0
 24 13  1  0
 25 24  2  0
 26 24  1  0
 27 26  1  0
 27 31  1  0
 27 28  1  6
 28 29  1  0
 29 30  2  0
 31 32  1  0
 33 29  1  0
 34 31  2  0
M  END
$$$$
