FWD.pdb
     RDKit          3D

 34 36  0  0  1  0  0  0  0  0999 V2000
   28.5487  -21.1570  -14.5382 N   0  0  0  0  0  0  0  0  0  0  0  0
   27.8298  -20.3736  -13.5574 C   0  0  1  0  0  0  0  0  0  0  0  0
   27.1369  -19.1679  -14.0994 C   0  0  0  0  0  0  0  0  0  0  0  0
   28.1232  -18.3910  -14.9278 C   0  0  0  0  0  0  0  0  0  0  0  0
   29.1021  -17.5853  -14.3388 C   0  0  0  0  0  0  0  0  0  0  0  0
   30.0184  -16.8706  -15.0450 C   0  0  0  0  0  0  0  0  0  0  0  0
   29.9920  -16.9335  -16.4356 C   0  0  0  0  0  0  0  0  0  0  0  0
   29.0370  -17.7196  -17.0586 C   0  0  0  0  0  0  0  0  0  0  0  0
   28.1250  -18.4299  -16.3050 C   0  0  0  0  0  0  0  0  0  0  0  0
   27.0418  -21.2135  -12.6425 C   0  0  0  0  0  0  0  0  0  0  0  0
   26.4495  -22.2405  -13.0507 O   0  0  0  0  0  0  0  0  0  0  0  0
   26.9183  -20.8769  -11.2263 N   0  0  0  0  0  0  0  0  0  0  0  0
   25.8768  -21.5061  -10.4573 C   0  0  1  0  0  0  0  0  0  0  0  0
   26.0297  -21.5455   -8.9888 C   0  0  0  0  0  0  0  0  0  0  0  0
   26.6466  -20.3668   -8.3404 C   0  0  0  0  0  0  0  0  0  0  0  0
   26.6139  -19.0494   -8.8186 C   0  0  0  0  0  0  0  0  0  0  0  0
   27.2383  -18.2230   -7.9672 N   0  0  0  0  0  0  0  0  0  0  0  0
   27.6978  -18.9444   -6.9173 C   0  0  0  0  0  0  0  0  0  0  0  0
   28.4171  -18.5498   -5.7956 C   0  0  0  0  0  0  0  0  0  0  0  0
   28.7823  -19.5074   -4.8780 C   0  0  0  0  0  0  0  0  0  0  0  0
   28.4209  -20.8218   -5.1065 C   0  0  0  0  0  0  0  0  0  0  0  0
   27.7098  -21.2262   -6.2121 C   0  0  0  0  0  0  0  0  0  0  0  0
   27.3356  -20.2750   -7.1398 C   0  0  0  0  0  0  0  0  0  0  0  0
   24.5561  -20.8271  -10.7847 C   0  0  0  0  0  0  0  0  0  0  0  0
   24.3965  -19.5867  -10.7182 O   0  0  0  0  0  0  0  0  0  0  0  0
   23.4716  -21.6335  -11.1833 N   0  0  0  0  0  0  0  0  0  0  0  0
   22.2110  -21.0071  -11.6364 C   0  0  1  0  0  0  0  0  0  0  0  0
   21.8701  -21.5318  -12.9888 C   0  0  0  0  0  0  0  0  0  0  0  0
   22.3657  -20.6219  -14.0315 C   0  0  0  0  0  0  0  0  0  0  0  0
   22.2003  -19.3747  -13.8913 O   0  0  0  0  0  0  0  0  0  0  0  0
   21.1639  -21.1645  -10.6113 C   0  0  0  0  0  0  0  0  0  0  0  0
   21.3489  -21.8278   -9.4330 O   0  0  0  0  0  0  0  0  0  0  0  0
   23.0041  -21.0893  -15.1523 O   0  0  0  0  0  0  0  0  0  0  0  0
   20.0158  -20.6510  -10.8391 O   0  0  0  0  0  0  0  0  0  0  0  0
  2  1  1  6
  3  2  1  0
  4  3  1  0
  4  5  2  0
  6  5  1  0
  7  6  2  0
  8  9  2  0
  8  7  1  0
  9  4  1  0
 10  2  1  0
 10 11  2  0
 12 10  1  0
 13 12  1  0
 13 14  1  1
 15 14  1  0
 16 15  2  0
 17 18  1  0
 17 16  1  0
 18 23  2  0
 19 20  2  0
 19 18  1  0
 20 21  1  0
 21 22  2  0
 23 22  1  0
 23 15  1  0
 24 13  1  0
 25 24  2  0
 26 24  1  0
 27 26  1  0
 27 31  1  0
 27 28  1  6
 28 29  1  0
 29 30  2  0
 31 32  1  0
 33 29  1  0
 34 31  2  0
M  END
$$$$
