FWD.pdb
     RDKit          3D

 34 36  0  0  1  0  0  0  0  0999 V2000
   27.3098  -19.0501  -18.5386 N   0  0  0  0  0  0  0  0  0  0  0  0
   26.7996  -18.3048  -17.4087 C   0  0  1  0  0  0  0  0  0  0  0  0
   25.8739  -17.1872  -17.7576 C   0  0  0  0  0  0  0  0  0  0  0  0
   26.6357  -16.1846  -18.5803 C   0  0  0  0  0  0  0  0  0  0  0  0
   27.6633  -15.4131  -18.0299 C   0  0  0  0  0  0  0  0  0  0  0  0
   28.3838  -14.5001  -18.7344 C   0  0  0  0  0  0  0  0  0  0  0  0
   28.0919  -14.3103  -20.0826 C   0  0  0  0  0  0  0  0  0  0  0  0
   27.0799  -15.0542  -20.6662 C   0  0  0  0  0  0  0  0  0  0  0  0
   26.3727  -15.9711  -19.9158 C   0  0  0  0  0  0  0  0  0  0  0  0
   26.3653  -19.1834  -16.3120 C   0  0  0  0  0  0  0  0  0  0  0  0
   25.6797  -20.2095  -16.5340 O   0  0  0  0  0  0  0  0  0  0  0  0
   26.7145  -18.8879  -14.9246 N   0  0  0  0  0  0  0  0  0  0  0  0
   26.2002  -19.7438  -13.8878 C   0  0  1  0  0  0  0  0  0  0  0  0
   26.7852  -19.6214  -12.5372 C   0  0  0  0  0  0  0  0  0  0  0  0
   26.2396  -20.5023  -11.4805 C   0  0  0  0  0  0  0  0  0  0  0  0
   25.9639  -21.8710  -11.6070 C   0  0  0  0  0  0  0  0  0  0  0  0
   25.5150  -22.3709  -10.4466 N   0  0  0  0  0  0  0  0  0  0  0  0
   25.4769  -21.3758   -9.5289 C   0  0  0  0  0  0  0  0  0  0  0  0
   25.0717  -21.3877   -8.1997 C   0  0  0  0  0  0  0  0  0  0  0  0
   25.1145  -20.2110   -7.4884 C   0  0  0  0  0  0  0  0  0  0  0  0
   25.5574  -19.0650   -8.1217 C   0  0  0  0  0  0  0  0  0  0  0  0
   25.9609  -19.0389   -9.4363 C   0  0  0  0  0  0  0  0  0  0  0  0
   25.9245  -20.2132  -10.1608 C   0  0  0  0  0  0  0  0  0  0  0  0
   24.6986  -19.5278  -13.7825 C   0  0  0  0  0  0  0  0  0  0  0  0
   24.1802  -18.3896  -13.7187 O   0  0  0  0  0  0  0  0  0  0  0  0
   23.8611  -20.6607  -13.7607 N   0  0  0  0  0  0  0  0  0  0  0  0
   22.4020  -20.4987  -13.5837 C   0  0  1  0  0  0  0  0  0  0  0  0
   21.7039  -21.6117  -14.2869 C   0  0  0  0  0  0  0  0  0  0  0  0
   20.2466  -21.4505  -14.1817 C   0  0  0  0  0  0  0  0  0  0  0  0
   19.7795  -20.4181  -13.6174 O   0  0  0  0  0  0  0  0  0  0  0  0
   22.0735  -20.3446  -12.1553 C   0  0  0  0  0  0  0  0  0  0  0  0
   22.5541  -21.1618  -11.1736 O   0  0  0  0  0  0  0  0  0  0  0  0
   19.3795  -22.3894  -14.6805 O   0  0  0  0  0  0  0  0  0  0  0  0
   21.2928  -19.3911  -11.8161 O   0  0  0  0  0  0  0  0  0  0  0  0
  2  1  1  6
  3  2  1  0
  4  3  1  0
  4  5  2  0
  6  5  1  0
  7  6  2  0
  8  9  2  0
  8  7  1  0
  9  4  1  0
 10  2  1  0
 10 11  2  0
 12 10  1  0
 13 12  1  0
 13 14  1  1
 15 14  1  0
 16 15  2  0
 17 18  1  0
 17 16  1  0
 18 23  2  0
 19 20  2  0
 19 18  1  0
 20 21  1  0
 21 22  2  0
 23 22  1  0
 23 15  1  0
 24 13  1  0
 25 24  2  0
 26 24  1  0
 27 26  1  0
 27 31  1  0
 27 28  1  1
 28 29  1  0
 29 30  2  0
 31 32  1  0
 33 29  1  0
 34 31  2  0
M  END
$$$$
