FWD.pdb
     RDKit          3D

 34 36  0  0  1  0  0  0  0  0999 V2000
   27.2401  -23.5156  -16.7699 N   0  0  0  0  0  0  0  0  0  0  0  0
   26.3386  -22.5531  -17.3643 C   0  0  1  0  0  0  0  0  0  0  0  0
   25.6000  -23.0405  -18.5662 C   0  0  0  0  0  0  0  0  0  0  0  0
   26.5490  -23.0413  -19.7333 C   0  0  0  0  0  0  0  0  0  0  0  0
   27.1336  -24.2212  -20.2027 C   0  0  0  0  0  0  0  0  0  0  0  0
   27.9909  -24.2729  -21.2569 C   0  0  0  0  0  0  0  0  0  0  0  0
   28.3160  -23.0905  -21.9163 C   0  0  0  0  0  0  0  0  0  0  0  0
   27.7590  -21.8992  -21.4819 C   0  0  0  0  0  0  0  0  0  0  0  0
   26.8927  -21.8902  -20.4079 C   0  0  0  0  0  0  0  0  0  0  0  0
   25.5343  -21.8464  -16.3558 C   0  0  0  0  0  0  0  0  0  0  0  0
   25.4905  -22.2410  -15.1664 O   0  0  0  0  0  0  0  0  0  0  0  0
   24.7544  -20.6620  -16.7068 N   0  0  0  0  0  0  0  0  0  0  0  0
   24.1236  -19.9150  -15.6504 C   0  0  1  0  0  0  0  0  0  0  0  0
   24.7483  -18.6426  -15.2355 C   0  0  0  0  0  0  0  0  0  0  0  0
   26.1890  -18.6737  -14.8987 C   0  0  0  0  0  0  0  0  0  0  0  0
   26.7371  -18.9579  -13.6400 C   0  0  0  0  0  0  0  0  0  0  0  0
   28.0767  -18.9387  -13.6937 N   0  0  0  0  0  0  0  0  0  0  0  0
   28.4581  -18.6478  -14.9601 C   0  0  0  0  0  0  0  0  0  0  0  0
   29.7255  -18.4977  -15.5100 C   0  0  0  0  0  0  0  0  0  0  0  0
   29.8301  -18.1737  -16.8428 C   0  0  0  0  0  0  0  0  0  0  0  0
   28.6736  -18.0100  -17.5818 C   0  0  0  0  0  0  0  0  0  0  0  0
   27.4133  -18.1551  -17.0505 C   0  0  0  0  0  0  0  0  0  0  0  0
   27.2944  -18.4818  -15.7146 C   0  0  0  0  0  0  0  0  0  0  0  0
   22.6830  -19.6354  -16.0492 C   0  0  0  0  0  0  0  0  0  0  0  0
   22.3322  -19.4485  -17.2368 O   0  0  0  0  0  0  0  0  0  0  0  0
   21.7061  -19.5905  -15.0347 N   0  0  0  0  0  0  0  0  0  0  0  0
   20.2846  -19.3833  -15.3851 C   0  0  1  0  0  0  0  0  0  0  0  0
   19.8633  -20.4458  -16.3413 C   0  0  0  0  0  0  0  0  0  0  0  0
   19.5980  -21.7027  -15.6267 C   0  0  0  0  0  0  0  0  0  0  0  0
   20.3144  -22.0077  -14.6286 O   0  0  0  0  0  0  0  0  0  0  0  0
   19.4679  -19.2677  -14.1637 C   0  0  0  0  0  0  0  0  0  0  0  0
   19.9776  -19.3431  -12.9000 O   0  0  0  0  0  0  0  0  0  0  0  0
   18.5931  -22.5532  -16.0127 O   0  0  0  0  0  0  0  0  0  0  0  0
   18.2095  -19.0871  -14.2954 O   0  0  0  0  0  0  0  0  0  0  0  0
  2  1  1  1
  3  2  1  0
  4  3  1  0
  4  5  2  0
  6  5  1  0
  7  6  2  0
  8  9  2  0
  8  7  1  0
  9  4  1  0
 10  2  1  0
 10 11  2  0
 12 10  1  0
 13 12  1  0
 13 14  1  6
 15 14  1  0
 16 15  2  0
 17 18  1  0
 17 16  1  0
 18 23  2  0
 19 20  2  0
 19 18  1  0
 20 21  1  0
 21 22  2  0
 23 22  1  0
 23 15  1  0
 24 13  1  0
 25 24  2  0
 26 24  1  0
 27 26  1  0
 27 31  1  0
 27 28  1  6
 28 29  1  0
 29 30  2  0
 31 32  1  0
 33 29  1  0
 34 31  2  0
M  END
$$$$
