FWD.pdb
     RDKit          3D

 34 36  0  0  1  0  0  0  0  0999 V2000
   22.9274  -12.2980  -18.2322 N   0  0  0  0  0  0  0  0  0  0  0  0
   22.5602  -10.9179  -18.4623 C   0  0  1  0  0  0  0  0  0  0  0  0
   21.1583  -10.7086  -18.9295 C   0  0  0  0  0  0  0  0  0  0  0  0
   21.0018  -11.3827  -20.2651 C   0  0  0  0  0  0  0  0  0  0  0  0
   21.3914  -10.7570  -21.4528 C   0  0  0  0  0  0  0  0  0  0  0  0
   21.2759  -11.3281  -22.6815 C   0  0  0  0  0  0  0  0  0  0  0  0
   20.7391  -12.6091  -22.7785 C   0  0  0  0  0  0  0  0  0  0  0  0
   20.3396  -13.2636  -21.6252 C   0  0  0  0  0  0  0  0  0  0  0  0
   20.4742  -12.6486  -20.3972 C   0  0  0  0  0  0  0  0  0  0  0  0
   23.0189  -10.0318  -17.3817 C   0  0  0  0  0  0  0  0  0  0  0  0
   23.0009  -10.4039  -16.1844 O   0  0  0  0  0  0  0  0  0  0  0  0
   23.5073   -8.6847  -17.6662 N   0  0  0  0  0  0  0  0  0  0  0  0
   23.9577   -7.8694  -16.5686 C   0  0  1  0  0  0  0  0  0  0  0  0
   25.3627   -7.4141  -16.5771 C   0  0  0  0  0  0  0  0  0  0  0  0
   26.4077   -8.4454  -16.7626 C   0  0  0  0  0  0  0  0  0  0  0  0
   27.4927   -8.3721  -17.6474 C   0  0  0  0  0  0  0  0  0  0  0  0
   28.2677   -9.4604  -17.5344 N   0  0  0  0  0  0  0  0  0  0  0  0
   27.7380  -10.2770  -16.5928 C   0  0  0  0  0  0  0  0  0  0  0  0
   28.1601  -11.5185  -16.1327 C   0  0  0  0  0  0  0  0  0  0  0  0
   27.4110  -12.1521  -15.1684 C   0  0  0  0  0  0  0  0  0  0  0  0
   26.2702  -11.5311  -14.6956 C   0  0  0  0  0  0  0  0  0  0  0  0
   25.8409  -10.3031  -15.1423 C   0  0  0  0  0  0  0  0  0  0  0  0
   26.5844   -9.6559  -16.1085 C   0  0  0  0  0  0  0  0  0  0  0  0
   23.0572   -6.6478  -16.4720 C   0  0  0  0  0  0  0  0  0  0  0  0
   23.2651   -5.5990  -17.1239 O   0  0  0  0  0  0  0  0  0  0  0  0
   21.9412   -6.7073  -15.6139 N   0  0  0  0  0  0  0  0  0  0  0  0
   20.9639   -5.5978  -15.5932 C   0  0  1  0  0  0  0  0  0  0  0  0
   20.4714   -5.3624  -16.9798 C   0  0  0  0  0  0  0  0  0  0  0  0
   19.4443   -4.3109  -16.9874 C   0  0  0  0  0  0  0  0  0  0  0  0
   19.5922   -3.2989  -16.2414 O   0  0  0  0  0  0  0  0  0  0  0  0
   19.9211   -5.8528  -14.5834 C   0  0  0  0  0  0  0  0  0  0  0  0
   19.9033   -6.9494  -13.7712 O   0  0  0  0  0  0  0  0  0  0  0  0
   18.3300   -4.3972  -17.7830 O   0  0  0  0  0  0  0  0  0  0  0  0
   18.9786   -4.9982  -14.4617 O   0  0  0  0  0  0  0  0  0  0  0  0
  2  1  1  1
  3  2  1  0
  4  3  1  0
  4  5  2  0
  6  5  1  0
  7  6  2  0
  8  9  2  0
  8  7  1  0
  9  4  1  0
 10  2  1  0
 10 11  2  0
 12 10  1  0
 13 12  1  0
 13 14  1  6
 15 14  1  0
 16 15  2  0
 17 18  1  0
 17 16  1  0
 18 23  2  0
 19 20  2  0
 19 18  1  0
 20 21  1  0
 21 22  2  0
 23 22  1  0
 23 15  1  0
 24 13  1  0
 25 24  2  0
 26 24  1  0
 27 26  1  0
 27 31  1  0
 27 28  1  6
 28 29  1  0
 29 30  2  0
 31 32  1  0
 33 29  1  0
 34 31  2  0
M  END
$$$$
