DIS.pdb
     RDKit          3D

 23 22  0  0  1  0  0  0  0  0999 V2000
    8.3375  -14.3881   20.1696 N   0  0  0  0  0  0  0  0  0  0  0  0
    7.6564  -15.1230   21.1898 C   0  0  1  0  0  0  0  0  0  0  0  0
    7.7697  -16.6002   20.8922 C   0  0  0  0  0  0  0  0  0  0  0  0
    7.2164  -17.0281   19.6189 C   0  0  0  0  0  0  0  0  0  0  0  0
    5.9910  -16.9927   19.3828 O   0  0  0  0  0  0  0  0  0  0  0  0
    8.2381  -14.9222   22.5387 C   0  0  0  0  0  0  0  0  0  0  0  0
    9.5088  -14.8858   22.6767 O   0  0  0  0  0  0  0  0  0  0  0  0
    8.0829  -17.4888   18.6408 O   0  0  0  0  0  0  0  0  0  0  0  0
    5.9837  -11.5334   26.1715 C   0  0  0  0  0  0  0  0  0  0  0  0
    6.9482  -12.3184   25.3217 C   0  0  0  0  0  0  0  0  0  0  0  0
    7.3073  -13.6371   25.8830 C   0  0  2  0  0  0  0  0  0  0  0  0
    8.0929  -13.3803   27.1818 C   0  0  0  0  0  0  0  0  0  0  0  0
    8.0685  -14.5765   25.0254 C   0  0  2  0  0  0  0  0  0  0  0  0
    7.4682  -14.7637   23.7121 N   0  0  0  0  0  0  0  0  0  0  0  0
    8.3622  -15.8573   25.7065 C   0  0  0  0  0  0  0  0  0  0  0  0
    7.4648  -16.6601   26.0670 O   0  0  0  0  0  0  0  0  0  0  0  0
   11.0827  -18.2009   24.5083 O   0  0  0  0  0  0  0  0  0  0  0  0
   11.2300  -18.1995   25.9126 C   0  0  0  0  0  0  0  0  0  0  0  0
   10.0479  -17.5386   26.5593 C   0  0  2  0  0  0  0  0  0  0  0  0
    9.7000  -16.2756   26.0074 N   0  0  0  0  0  0  0  0  0  0  0  0
   10.4193  -17.3169   28.0013 C   0  0  0  0  0  0  0  0  0  0  0  0
   10.4648  -15.9827   28.4065 O   0  0  0  0  0  0  0  0  0  0  0  0
   10.6713  -18.2384   28.7922 O   0  0  0  0  0  0  0  0  0  0  0  0
  2  1  1  6
  3  2  1  0
  3  4  1  0
  4  8  1  0
  5  4  2  0
  6  2  1  0
  6  7  2  0
  9 10  1  0
 10 11  1  0
 11 13  1  0
 11 12  1  1
 13 14  1  6
 13 15  1  0
 14  6  1  0
 15 20  1  0
 15 16  2  0
 18 17  1  0
 19 18  1  6
 20 19  1  0
 21 22  1  0
 21 19  1  0
 23 21  2  0
M  END
$$$$
