DIS.pdb
     RDKit          3D

 23 22  0  0  1  0  0  0  0  0999 V2000
    8.6390  -14.9384   20.3136 N   0  0  0  0  0  0  0  0  0  0  0  0
    7.6789  -15.2934   21.3122 C   0  0  1  0  0  0  0  0  0  0  0  0
    7.3447  -16.7608   21.1749 C   0  0  0  0  0  0  0  0  0  0  0  0
    6.7282  -17.1491   19.9182 C   0  0  0  0  0  0  0  0  0  0  0  0
    6.7114  -16.3920   18.9258 O   0  0  0  0  0  0  0  0  0  0  0  0
    8.1804  -15.1060   22.6947 C   0  0  0  0  0  0  0  0  0  0  0  0
    9.4249  -15.2676   22.9396 O   0  0  0  0  0  0  0  0  0  0  0  0
    6.1422  -18.4014   19.8263 O   0  0  0  0  0  0  0  0  0  0  0  0
    5.8855  -11.4097   26.1010 C   0  0  0  0  0  0  0  0  0  0  0  0
    6.8654  -12.2547   25.3301 C   0  0  0  0  0  0  0  0  0  0  0  0
    7.1142  -13.5825   25.9283 C   0  0  2  0  0  0  0  0  0  0  0  0
    7.8205  -13.3493   27.2762 C   0  0  0  0  0  0  0  0  0  0  0  0
    7.8820  -14.5721   25.1356 C   0  0  2  0  0  0  0  0  0  0  0  0
    7.3598  -14.7521   23.7883 N   0  0  0  0  0  0  0  0  0  0  0  0
    8.0669  -15.8540   25.8519 C   0  0  0  0  0  0  0  0  0  0  0  0
    7.1051  -16.5534   26.2589 O   0  0  0  0  0  0  0  0  0  0  0  0
   11.6246  -17.8902   25.4996 O   0  0  0  0  0  0  0  0  0  0  0  0
   10.4810  -18.5773   25.9622 C   0  0  0  0  0  0  0  0  0  0  0  0
    9.6015  -17.6519   26.7511 C   0  0  2  0  0  0  0  0  0  0  0  0
    9.3650  -16.3921   26.1365 N   0  0  0  0  0  0  0  0  0  0  0  0
   10.3119  -17.3952   28.0533 C   0  0  0  0  0  0  0  0  0  0  0  0
   10.4865  -18.5145   28.8676 O   0  0  0  0  0  0  0  0  0  0  0  0
   10.7222  -16.2773   28.3999 O   0  0  0  0  0  0  0  0  0  0  0  0
  2  1  1  6
  3  2  1  0
  3  4  1  0
  4  8  1  0
  5  4  2  0
  6  2  1  0
  6  7  2  0
  9 10  1  0
 10 11  1  0
 11 13  1  0
 11 12  1  1
 13 14  1  6
 13 15  1  0
 14  6  1  0
 15 20  1  0
 15 16  2  0
 18 17  1  0
 19 18  1  6
 20 19  1  0
 21 22  1  0
 21 19  1  0
 23 21  2  0
M  END
$$$$
