DIS.pdb
     RDKit          3D

 23 22  0  0  1  0  0  0  0  0999 V2000
   10.4735  -16.3590   15.8706 N   0  0  0  0  0  0  0  0  0  0  0  0
   10.2223  -17.2313   16.9757 C   0  0  1  0  0  0  0  0  0  0  0  0
   11.2855  -18.3047   17.0079 C   0  0  0  0  0  0  0  0  0  0  0  0
   11.2784  -19.2287   15.8869 C   0  0  0  0  0  0  0  0  0  0  0  0
   11.2710  -18.8345   14.7025 O   0  0  0  0  0  0  0  0  0  0  0  0
   10.2837  -16.5421   18.2869 C   0  0  0  0  0  0  0  0  0  0  0  0
   11.4186  -16.1939   18.7619 O   0  0  0  0  0  0  0  0  0  0  0  0
   11.2801  -20.5892   16.1493 O   0  0  0  0  0  0  0  0  0  0  0  0
    7.0859  -12.4056   19.4648 C   0  0  0  0  0  0  0  0  0  0  0  0
    8.2857  -13.3157   19.4380 C   0  0  0  0  0  0  0  0  0  0  0  0
    8.2297  -14.4125   20.4264 C   0  0  2  0  0  0  0  0  0  0  0  0
    8.3151  -13.7712   21.8233 C   0  0  0  0  0  0  0  0  0  0  0  0
    9.2336  -15.4981   20.3215 C   0  0  2  0  0  0  0  0  0  0  0  0
    9.1481  -16.2346   19.0683 N   0  0  0  0  0  0  0  0  0  0  0  0
    9.2371  -16.3856   21.5059 C   0  0  0  0  0  0  0  0  0  0  0  0
    8.2694  -17.1302   21.8037 O   0  0  0  0  0  0  0  0  0  0  0  0
   11.6426  -18.9775   22.1766 O   0  0  0  0  0  0  0  0  0  0  0  0
   11.6334  -18.2988   23.4147 C   0  0  0  0  0  0  0  0  0  0  0  0
   10.4568  -17.3702   23.4905 C   0  0  2  0  0  0  0  0  0  0  0  0
   10.3512  -16.4581   22.4053 N   0  0  0  0  0  0  0  0  0  0  0  0
   10.6324  -16.5611   24.7479 C   0  0  0  0  0  0  0  0  0  0  0  0
   10.7445  -17.3038   25.9236 O   0  0  0  0  0  0  0  0  0  0  0  0
   10.6773  -15.3218   24.7632 O   0  0  0  0  0  0  0  0  0  0  0  0
  2  1  1  6
  3  2  1  0
  3  4  1  0
  4  8  1  0
  5  4  2  0
  6  2  1  0
  6  7  2  0
  9 10  1  0
 10 11  1  0
 11 13  1  0
 11 12  1  1
 13 14  1  6
 13 15  1  0
 14  6  1  0
 15 20  1  0
 15 16  2  0
 18 17  1  0
 19 18  1  6
 20 19  1  0
 21 22  1  0
 21 19  1  0
 23 21  2  0
M  END
$$$$
