DIS.pdb
     RDKit          3D

 23 22  0  0  1  0  0  0  0  0999 V2000
    6.4034  -15.6760   21.5122 N   0  0  0  0  0  0  0  0  0  0  0  0
    7.8241  -15.8271   21.5741 C   0  0  1  0  0  0  0  0  0  0  0  0
    8.4592  -14.9532   20.5174 C   0  0  0  0  0  0  0  0  0  0  0  0
    8.1478  -15.3042   19.1426 C   0  0  0  0  0  0  0  0  0  0  0  0
    7.3046  -16.1790   18.8561 O   0  0  0  0  0  0  0  0  0  0  0  0
    8.3990  -15.3991   22.8719 C   0  0  0  0  0  0  0  0  0  0  0  0
    9.6530  -15.1641   22.9575 O   0  0  0  0  0  0  0  0  0  0  0  0
    8.8123  -14.6423   18.1226 O   0  0  0  0  0  0  0  0  0  0  0  0
    6.1144  -11.8800   26.1444 C   0  0  0  0  0  0  0  0  0  0  0  0
    7.1933  -12.6701   25.4513 C   0  0  0  0  0  0  0  0  0  0  0  0
    7.5422  -13.9348   26.1308 C   0  0  2  0  0  0  0  0  0  0  0  0
    8.3789  -13.5697   27.3703 C   0  0  0  0  0  0  0  0  0  0  0  0
    8.2510  -14.9749   25.3479 C   0  0  2  0  0  0  0  0  0  0  0  0
    7.6400  -15.2275   24.0506 N   0  0  0  0  0  0  0  0  0  0  0  0
    8.4767  -16.2151   26.1235 C   0  0  0  0  0  0  0  0  0  0  0  0
    7.5391  -16.8945   26.6124 O   0  0  0  0  0  0  0  0  0  0  0  0
   12.1524  -18.1058   25.9467 O   0  0  0  0  0  0  0  0  0  0  0  0
   11.0519  -18.8428   26.4362 C   0  0  0  0  0  0  0  0  0  0  0  0
   10.0641  -17.9264   27.0969 C   0  0  2  0  0  0  0  0  0  0  0  0
    9.7898  -16.7322   26.3760 N   0  0  0  0  0  0  0  0  0  0  0  0
   10.6675  -17.5303   28.4181 C   0  0  0  0  0  0  0  0  0  0  0  0
   10.9570  -18.5871   29.2817 O   0  0  0  0  0  0  0  0  0  0  0  0
   10.9000  -16.3551   28.7391 O   0  0  0  0  0  0  0  0  0  0  0  0
  2  1  1  1
  3  2  1  0
  3  4  1  0
  4  8  1  0
  5  4  2  0
  6  2  1  0
  6  7  2  0
  9 10  1  0
 10 11  1  0
 11 13  1  0
 11 12  1  1
 13 14  1  6
 13 15  1  0
 14  6  1  0
 15 20  1  0
 15 16  2  0
 18 17  1  0
 19 18  1  6
 20 19  1  0
 21 22  1  0
 21 19  1  0
 23 21  2  0
M  END
$$$$
