DIS.pdb
     RDKit          3D

 23 22  0  0  1  0  0  0  0  0999 V2000
    8.8722  -15.0699   20.4842 N   0  0  0  0  0  0  0  0  0  0  0  0
    7.8622  -15.3167   21.4661 C   0  0  1  0  0  0  0  0  0  0  0  0
    7.3703  -16.7382   21.3206 C   0  0  0  0  0  0  0  0  0  0  0  0
    6.9663  -17.1284   19.9810 C   0  0  0  0  0  0  0  0  0  0  0  0
    6.2680  -18.1409   19.7673 O   0  0  0  0  0  0  0  0  0  0  0  0
    8.3584  -15.1859   22.8571 C   0  0  0  0  0  0  0  0  0  0  0  0
    9.5822  -15.4510   23.1159 O   0  0  0  0  0  0  0  0  0  0  0  0
    7.3730  -16.3467   18.9117 O   0  0  0  0  0  0  0  0  0  0  0  0
    6.0363  -11.5388   26.2607 C   0  0  0  0  0  0  0  0  0  0  0  0
    7.0856  -12.3395   25.5351 C   0  0  0  0  0  0  0  0  0  0  0  0
    7.3356  -13.6726   26.1209 C   0  0  2  0  0  0  0  0  0  0  0  0
    8.0837  -13.4534   27.4484 C   0  0  0  0  0  0  0  0  0  0  0  0
    8.0679  -14.6681   25.3024 C   0  0  2  0  0  0  0  0  0  0  0  0
    7.5544  -14.7783   23.9443 N   0  0  0  0  0  0  0  0  0  0  0  0
    8.1868  -15.9808   25.9757 C   0  0  0  0  0  0  0  0  0  0  0  0
    7.2035  -16.7385   26.1724 O   0  0  0  0  0  0  0  0  0  0  0  0
   11.4208  -18.2321   25.5436 O   0  0  0  0  0  0  0  0  0  0  0  0
   10.2719  -18.7794   26.1556 C   0  0  0  0  0  0  0  0  0  0  0  0
    9.6243  -17.7629   27.0498 C   0  0  2  0  0  0  0  0  0  0  0  0
    9.4401  -16.4841   26.4567 N   0  0  0  0  0  0  0  0  0  0  0  0
   10.5415  -17.5875   28.2306 C   0  0  0  0  0  0  0  0  0  0  0  0
   10.7924  -18.7454   28.9674 O   0  0  0  0  0  0  0  0  0  0  0  0
   11.0503  -16.5014   28.5463 O   0  0  0  0  0  0  0  0  0  0  0  0
  2  1  1  6
  3  2  1  0
  3  4  1  0
  4  8  1  0
  5  4  2  0
  6  2  1  0
  6  7  2  0
  9 10  1  0
 10 11  1  0
 11 13  1  0
 11 12  1  1
 13 14  1  6
 13 15  1  0
 14  6  1  0
 15 20  1  0
 15 16  2  0
 18 17  1  0
 19 18  1  6
 20 19  1  0
 21 22  1  0
 21 19  1  0
 23 21  2  0
M  END
$$$$
