DIS.pdb
     RDKit          3D

 23 22  0  0  1  0  0  0  0  0999 V2000
    9.0454  -15.4570   20.7913 N   0  0  0  0  0  0  0  0  0  0  0  0
    8.2547  -15.9025   21.8964 C   0  0  1  0  0  0  0  0  0  0  0  0
    8.3254  -17.4099   21.9770 C   0  0  0  0  0  0  0  0  0  0  0  0
    7.7085  -18.1269   20.8744 C   0  0  0  0  0  0  0  0  0  0  0  0
    8.3384  -18.4159   19.8361 O   0  0  0  0  0  0  0  0  0  0  0  0
    8.7375  -15.3907   23.2015 C   0  0  0  0  0  0  0  0  0  0  0  0
    9.9939  -15.3512   23.4357 O   0  0  0  0  0  0  0  0  0  0  0  0
    6.3783  -18.4980   20.9866 O   0  0  0  0  0  0  0  0  0  0  0  0
    5.8619  -11.6787   26.1278 C   0  0  0  0  0  0  0  0  0  0  0  0
    7.0281  -12.3880   25.4910 C   0  0  0  0  0  0  0  0  0  0  0  0
    7.4856  -13.5795   26.2353 C   0  0  2  0  0  0  0  0  0  0  0  0
    8.1705  -13.0784   27.5198 C   0  0  0  0  0  0  0  0  0  0  0  0
    8.3816  -14.5344   25.5408 C   0  0  2  0  0  0  0  0  0  0  0  0
    7.8860  -14.9314   24.2304 N   0  0  0  0  0  0  0  0  0  0  0  0
    8.7450  -15.6922   26.3882 C   0  0  0  0  0  0  0  0  0  0  0  0
    7.9217  -16.5839   26.7151 O   0  0  0  0  0  0  0  0  0  0  0  0
   12.7104  -16.8228   26.8861 O   0  0  0  0  0  0  0  0  0  0  0  0
   11.6713  -17.7207   27.2144 C   0  0  0  0  0  0  0  0  0  0  0  0
   10.4745  -16.9694   27.7199 C   0  0  2  0  0  0  0  0  0  0  0  0
   10.0704  -15.8794   26.9017 N   0  0  0  0  0  0  0  0  0  0  0  0
   10.8584  -16.4100   29.0638 C   0  0  0  0  0  0  0  0  0  0  0  0
   11.2590  -17.3540   30.0098 O   0  0  0  0  0  0  0  0  0  0  0  0
   10.8290  -15.2001   29.3349 O   0  0  0  0  0  0  0  0  0  0  0  0
  2  1  1  6
  3  2  1  0
  3  4  1  0
  4  8  1  0
  5  4  2  0
  6  2  1  0
  6  7  2  0
  9 10  1  0
 10 11  1  0
 11 13  1  0
 11 12  1  1
 13 14  1  6
 13 15  1  0
 14  6  1  0
 15 20  1  0
 15 16  2  0
 18 17  1  0
 19 18  1  6
 20 19  1  0
 21 22  1  0
 21 19  1  0
 23 21  2  0
M  END
$$$$
