DIS.pdb
     RDKit          3D

 23 22  0  0  1  0  0  0  0  0999 V2000
    8.9661  -15.0508   20.4227 N   0  0  0  0  0  0  0  0  0  0  0  0
    8.0324  -15.5180   21.3999 C   0  0  1  0  0  0  0  0  0  0  0  0
    7.8125  -17.0000   21.2024 C   0  0  0  0  0  0  0  0  0  0  0  0
    7.1860  -17.3798   19.9480 C   0  0  0  0  0  0  0  0  0  0  0  0
    7.8015  -17.3462   18.8624 O   0  0  0  0  0  0  0  0  0  0  0  0
    8.5129  -15.3482   22.7921 C   0  0  0  0  0  0  0  0  0  0  0  0
    9.7474  -15.5464   23.0601 O   0  0  0  0  0  0  0  0  0  0  0  0
    5.8631  -17.7911   19.9655 O   0  0  0  0  0  0  0  0  0  0  0  0
    6.0204  -11.7397   26.1351 C   0  0  0  0  0  0  0  0  0  0  0  0
    7.0935  -12.5139   25.4156 C   0  0  0  0  0  0  0  0  0  0  0  0
    7.3926  -13.8288   26.0193 C   0  0  2  0  0  0  0  0  0  0  0  0
    8.1020  -13.5636   27.3596 C   0  0  0  0  0  0  0  0  0  0  0  0
    8.1868  -14.7964   25.2255 C   0  0  2  0  0  0  0  0  0  0  0  0
    7.6824  -14.9729   23.8710 N   0  0  0  0  0  0  0  0  0  0  0  0
    8.3877  -16.0816   25.9316 C   0  0  0  0  0  0  0  0  0  0  0  0
    7.4469  -16.8756   26.1848 O   0  0  0  0  0  0  0  0  0  0  0  0
   11.9191  -18.0244   25.6783 O   0  0  0  0  0  0  0  0  0  0  0  0
   10.7858  -18.7016   26.1791 C   0  0  0  0  0  0  0  0  0  0  0  0
    9.9414  -17.7687   26.9972 C   0  0  2  0  0  0  0  0  0  0  0  0
    9.6782  -16.5145   26.3819 N   0  0  0  0  0  0  0  0  0  0  0  0
   10.7080  -17.5003   28.2647 C   0  0  0  0  0  0  0  0  0  0  0  0
   10.9604  -18.6205   29.0571 O   0  0  0  0  0  0  0  0  0  0  0  0
   11.0983  -16.3724   28.6023 O   0  0  0  0  0  0  0  0  0  0  0  0
  2  1  1  6
  3  2  1  0
  3  4  1  0
  4  8  1  0
  5  4  2  0
  6  2  1  0
  6  7  2  0
  9 10  1  0
 10 11  1  0
 11 13  1  0
 11 12  1  1
 13 14  1  6
 13 15  1  0
 14  6  1  0
 15 20  1  0
 15 16  2  0
 18 17  1  0
 19 18  1  6
 20 19  1  0
 21 22  1  0
 21 19  1  0
 23 21  2  0
M  END
$$$$
