DIS.pdb
     RDKit          3D

 23 22  0  0  1  0  0  0  0  0999 V2000
   10.3434  -17.5687   16.3176 N   0  0  0  0  0  0  0  0  0  0  0  0
    9.4348  -17.8089   17.3955 C   0  0  1  0  0  0  0  0  0  0  0  0
    9.5973  -19.2350   17.8685 C   0  0  0  0  0  0  0  0  0  0  0  0
    9.2793  -20.2607   16.8902 C   0  0  0  0  0  0  0  0  0  0  0  0
    8.1797  -20.2966   16.3004 O   0  0  0  0  0  0  0  0  0  0  0  0
    9.6885  -16.9458   18.5740 C   0  0  0  0  0  0  0  0  0  0  0  0
   10.8864  -16.7897   18.9931 O   0  0  0  0  0  0  0  0  0  0  0  0
   10.2323  -21.2263   16.6084 O   0  0  0  0  0  0  0  0  0  0  0  0
    6.6390  -12.4422   19.7432 C   0  0  0  0  0  0  0  0  0  0  0  0
    7.7951  -13.3874   19.5469 C   0  0  0  0  0  0  0  0  0  0  0  0
    7.9741  -14.3545   20.6494 C   0  0  2  0  0  0  0  0  0  0  0  0
    8.3492  -13.5480   21.9059 C   0  0  0  0  0  0  0  0  0  0  0  0
    8.9501  -15.4541   20.4613 C   0  0  2  0  0  0  0  0  0  0  0  0
    8.6746  -16.2660   19.2843 N   0  0  0  0  0  0  0  0  0  0  0  0
    9.1340  -16.2666   21.6847 C   0  0  0  0  0  0  0  0  0  0  0  0
    8.1967  -16.9036   22.2282 O   0  0  0  0  0  0  0  0  0  0  0  0
   12.1385  -18.5435   22.2567 O   0  0  0  0  0  0  0  0  0  0  0  0
   11.1247  -18.5578   23.2395 C   0  0  0  0  0  0  0  0  0  0  0  0
   10.6402  -17.1629   23.5078 C   0  0  2  0  0  0  0  0  0  0  0  0
   10.4024  -16.3841   22.3426 N   0  0  0  0  0  0  0  0  0  0  0  0
   11.7247  -16.4792   24.2970 C   0  0  0  0  0  0  0  0  0  0  0  0
   12.2505  -15.3266   23.7126 O   0  0  0  0  0  0  0  0  0  0  0  0
   12.1382  -16.8918   25.3911 O   0  0  0  0  0  0  0  0  0  0  0  0
  2  1  1  6
  3  2  1  0
  3  4  1  0
  4  8  1  0
  5  4  2  0
  6  2  1  0
  6  7  2  0
  9 10  1  0
 10 11  1  0
 11 13  1  0
 11 12  1  1
 13 14  1  6
 13 15  1  0
 14  6  1  0
 15 20  1  0
 15 16  2  0
 18 17  1  0
 19 18  1  6
 20 19  1  0
 21 22  1  0
 21 19  1  0
 23 21  2  0
M  END
$$$$
