DIS.pdb
     RDKit          3D

 23 22  0  0  1  0  0  0  0  0999 V2000
    8.8107  -15.3990   20.6890 N   0  0  0  0  0  0  0  0  0  0  0  0
    8.0586  -16.0086   21.7415 C   0  0  1  0  0  0  0  0  0  0  0  0
    8.1306  -17.5107   21.5925 C   0  0  0  0  0  0  0  0  0  0  0  0
    7.5821  -18.0459   20.3584 C   0  0  0  0  0  0  0  0  0  0  0  0
    7.3083  -17.3165   19.3830 O   0  0  0  0  0  0  0  0  0  0  0  0
    8.5870  -15.6962   23.0910 C   0  0  0  0  0  0  0  0  0  0  0  0
    9.8179  -15.9231   23.3526 O   0  0  0  0  0  0  0  0  0  0  0  0
    7.3586  -19.4105   20.2692 O   0  0  0  0  0  0  0  0  0  0  0  0
    6.2418  -11.7374   26.0894 C   0  0  0  0  0  0  0  0  0  0  0  0
    7.3354  -12.5665   25.4688 C   0  0  0  0  0  0  0  0  0  0  0  0
    7.6157  -13.8263   26.1880 C   0  0  2  0  0  0  0  0  0  0  0  0
    8.3891  -13.4578   27.4671 C   0  0  0  0  0  0  0  0  0  0  0  0
    8.3433  -14.8958   25.4642 C   0  0  2  0  0  0  0  0  0  0  0  0
    7.8071  -15.1512   24.1348 N   0  0  0  0  0  0  0  0  0  0  0  0
    8.4871  -16.1301   26.2683 C   0  0  0  0  0  0  0  0  0  0  0  0
    7.6532  -17.0697   26.2314 O   0  0  0  0  0  0  0  0  0  0  0  0
   11.4403  -19.5152   26.9502 O   0  0  0  0  0  0  0  0  0  0  0  0
   10.9580  -18.2748   26.4784 C   0  0  0  0  0  0  0  0  0  0  0  0
   10.1028  -17.6178   27.5221 C   0  0  2  0  0  0  0  0  0  0  0  0
    9.5942  -16.3423   27.1542 N   0  0  0  0  0  0  0  0  0  0  0  0
   10.9782  -17.4255   28.7317 C   0  0  0  0  0  0  0  0  0  0  0  0
   11.3563  -18.5982   29.3862 O   0  0  0  0  0  0  0  0  0  0  0  0
   11.3501  -16.3140   29.1372 O   0  0  0  0  0  0  0  0  0  0  0  0
  2  1  1  6
  3  2  1  0
  3  4  1  0
  4  8  1  0
  5  4  2  0
  6  2  1  0
  6  7  2  0
  9 10  1  0
 10 11  1  0
 11 13  1  0
 11 12  1  1
 13 14  1  6
 13 15  1  0
 14  6  1  0
 15 20  1  0
 15 16  2  0
 18 17  1  0
 19 18  1  6
 20 19  1  0
 21 22  1  0
 21 19  1  0
 23 21  2  0
M  END
$$$$
