DIS.pdb
     RDKit          3D

 23 22  0  0  1  0  0  0  0  0999 V2000
   10.3281  -18.3312   17.4860 N   0  0  0  0  0  0  0  0  0  0  0  0
    9.1399  -18.1040   18.2486 C   0  0  1  0  0  0  0  0  0  0  0  0
    8.6131  -19.4298   18.7470 C   0  0  0  0  0  0  0  0  0  0  0  0
    8.1085  -20.3292   17.7239 C   0  0  0  0  0  0  0  0  0  0  0  0
    8.1912  -20.0628   16.5071 O   0  0  0  0  0  0  0  0  0  0  0  0
    9.3706  -17.2670   19.4504 C   0  0  0  0  0  0  0  0  0  0  0  0
   10.4884  -17.3454   20.0663 O   0  0  0  0  0  0  0  0  0  0  0  0
    7.5179  -21.5186   18.1195 O   0  0  0  0  0  0  0  0  0  0  0  0
    6.9831  -12.2673   19.9330 C   0  0  0  0  0  0  0  0  0  0  0  0
    7.9895  -13.3878   19.9416 C   0  0  0  0  0  0  0  0  0  0  0  0
    7.9024  -14.2645   21.1276 C   0  0  2  0  0  0  0  0  0  0  0  0
    8.2914  -13.4149   22.3511 C   0  0  0  0  0  0  0  0  0  0  0  0
    8.6930  -15.5182   21.1281 C   0  0  2  0  0  0  0  0  0  0  0  0
    8.4189  -16.3657   19.9761 N   0  0  0  0  0  0  0  0  0  0  0  0
    8.5971  -16.2504   22.4108 C   0  0  0  0  0  0  0  0  0  0  0  0
    7.5095  -16.6795   22.8721 O   0  0  0  0  0  0  0  0  0  0  0  0
   11.1232  -18.9842   23.4090 O   0  0  0  0  0  0  0  0  0  0  0  0
    9.9550  -18.7815   24.1757 C   0  0  0  0  0  0  0  0  0  0  0  0
    9.7308  -17.3154   24.4049 C   0  0  2  0  0  0  0  0  0  0  0  0
    9.7453  -16.5224   23.2251 N   0  0  0  0  0  0  0  0  0  0  0  0
   10.8592  -16.8435   25.2827 C   0  0  0  0  0  0  0  0  0  0  0  0
   11.5887  -15.7630   24.7859 O   0  0  0  0  0  0  0  0  0  0  0  0
   11.1399  -17.3620   26.3738 O   0  0  0  0  0  0  0  0  0  0  0  0
  2  1  1  1
  3  2  1  0
  3  4  1  0
  4  8  1  0
  5  4  2  0
  6  2  1  0
  6  7  2  0
  9 10  1  0
 10 11  1  0
 11 13  1  0
 11 12  1  1
 13 14  1  6
 13 15  1  0
 14  6  1  0
 15 20  1  0
 15 16  2  0
 18 17  1  0
 19 18  1  6
 20 19  1  0
 21 22  1  0
 21 19  1  0
 23 21  2  0
M  END
$$$$
