DIS.pdb
     RDKit          3D

 23 22  0  0  1  0  0  0  0  0999 V2000
    8.2119  -14.6309   20.0892 N   0  0  0  0  0  0  0  0  0  0  0  0
    7.6081  -15.3313   21.1800 C   0  0  1  0  0  0  0  0  0  0  0  0
    7.7662  -16.8179   20.9591 C   0  0  0  0  0  0  0  0  0  0  0  0
    7.1744  -17.3372   19.7383 C   0  0  0  0  0  0  0  0  0  0  0  0
    6.0262  -17.0157   19.3688 O   0  0  0  0  0  0  0  0  0  0  0  0
    8.2428  -15.0327   22.4862 C   0  0  0  0  0  0  0  0  0  0  0  0
    9.5152  -14.9291   22.5582 O   0  0  0  0  0  0  0  0  0  0  0  0
    7.9146  -18.2170   18.9649 O   0  0  0  0  0  0  0  0  0  0  0  0
    5.7852  -11.6828   25.9809 C   0  0  0  0  0  0  0  0  0  0  0  0
    6.8723  -12.3588   25.1873 C   0  0  0  0  0  0  0  0  0  0  0  0
    7.3716  -13.6091   25.7961 C   0  0  2  0  0  0  0  0  0  0  0  0
    8.1906  -13.2147   27.0385 C   0  0  0  0  0  0  0  0  0  0  0  0
    8.1720  -14.5259   24.9500 C   0  0  2  0  0  0  0  0  0  0  0  0
    7.5229  -14.8493   23.6873 N   0  0  0  0  0  0  0  0  0  0  0  0
    8.6228  -15.7292   25.6845 C   0  0  0  0  0  0  0  0  0  0  0  0
    7.8256  -16.5488   26.2064 O   0  0  0  0  0  0  0  0  0  0  0  0
   12.3295  -18.7677   26.7130 O   0  0  0  0  0  0  0  0  0  0  0  0
   11.9281  -17.5709   26.0802 C   0  0  0  0  0  0  0  0  0  0  0  0
   10.4996  -17.2576   26.4174 C   0  0  2  0  0  0  0  0  0  0  0  0
   10.0103  -16.0468   25.8559 N   0  0  0  0  0  0  0  0  0  0  0  0
   10.4350  -17.1218   27.9154 C   0  0  0  0  0  0  0  0  0  0  0  0
   10.6339  -18.3034   28.6300 O   0  0  0  0  0  0  0  0  0  0  0  0
   10.2214  -16.0470   28.4962 O   0  0  0  0  0  0  0  0  0  0  0  0
  2  1  1  6
  3  2  1  0
  3  4  1  0
  4  8  1  0
  5  4  2  0
  6  2  1  0
  6  7  2  0
  9 10  1  0
 10 11  1  0
 11 13  1  0
 11 12  1  1
 13 14  1  6
 13 15  1  0
 14  6  1  0
 15 20  1  0
 15 16  2  0
 18 17  1  0
 19 18  1  1
 20 19  1  0
 21 22  1  0
 21 19  1  0
 23 21  2  0
M  END
$$$$
