DIS.pdb
     RDKit          3D

 23 22  0  0  1  0  0  0  0  0999 V2000
   10.6218  -17.6684   16.7108 N   0  0  0  0  0  0  0  0  0  0  0  0
    9.5574  -17.7487   17.6624 C   0  0  1  0  0  0  0  0  0  0  0  0
    9.4677  -19.1645   18.1832 C   0  0  0  0  0  0  0  0  0  0  0  0
    9.0952  -20.1709   17.2041 C   0  0  0  0  0  0  0  0  0  0  0  0
    8.2278  -19.9585   16.3318 O   0  0  0  0  0  0  0  0  0  0  0  0
    9.7676  -16.8802   18.8455 C   0  0  0  0  0  0  0  0  0  0  0  0
   10.9520  -16.7034   19.2936 O   0  0  0  0  0  0  0  0  0  0  0  0
    9.7274  -21.4031   17.2465 O   0  0  0  0  0  0  0  0  0  0  0  0
    6.9923  -12.1948   19.7817 C   0  0  0  0  0  0  0  0  0  0  0  0
    8.0768  -13.2364   19.6966 C   0  0  0  0  0  0  0  0  0  0  0  0
    8.0440  -14.2286   20.7909 C   0  0  2  0  0  0  0  0  0  0  0  0
    8.3051  -13.4674   22.1033 C   0  0  0  0  0  0  0  0  0  0  0  0
    8.9595  -15.3912   20.7062 C   0  0  2  0  0  0  0  0  0  0  0  0
    8.7253  -16.2169   19.5299 N   0  0  0  0  0  0  0  0  0  0  0  0
    8.9953  -16.1791   21.9586 C   0  0  0  0  0  0  0  0  0  0  0  0
    7.9817  -16.7492   22.4355 O   0  0  0  0  0  0  0  0  0  0  0  0
   12.6942  -16.9615   23.8001 O   0  0  0  0  0  0  0  0  0  0  0  0
   11.6367  -17.8742   24.0062 C   0  0  0  0  0  0  0  0  0  0  0  0
   10.3143  -17.1776   23.8715 C   0  0  2  0  0  0  0  0  0  0  0  0
   10.1962  -16.3476   22.7234 N   0  0  0  0  0  0  0  0  0  0  0  0
   10.1704  -16.2974   25.0844 C   0  0  0  0  0  0  0  0  0  0  0  0
   10.1562  -16.9671   26.3082 O   0  0  0  0  0  0  0  0  0  0  0  0
   10.0699  -15.0627   25.0255 O   0  0  0  0  0  0  0  0  0  0  0  0
  2  1  1  6
  3  2  1  0
  3  4  1  0
  4  8  1  0
  5  4  2  0
  6  2  1  0
  6  7  2  0
  9 10  1  0
 10 11  1  0
 11 13  1  0
 11 12  1  1
 13 14  1  6
 13 15  1  0
 14  6  1  0
 15 20  1  0
 15 16  2  0
 18 17  1  0
 19 18  1  1
 20 19  1  0
 21 22  1  0
 21 19  1  0
 23 21  2  0
M  END
$$$$
