DIS.pdb
     RDKit          3D

 23 22  0  0  1  0  0  0  0  0999 V2000
   10.6283  -17.7711   16.7355 N   0  0  0  0  0  0  0  0  0  0  0  0
    9.6617  -17.8821   17.7835 C   0  0  1  0  0  0  0  0  0  0  0  0
    9.7606  -19.2575   18.4016 C   0  0  0  0  0  0  0  0  0  0  0  0
    9.4310  -20.3659   17.5222 C   0  0  0  0  0  0  0  0  0  0  0  0
    8.7328  -20.2152   16.4985 O   0  0  0  0  0  0  0  0  0  0  0  0
    9.8817  -16.9124   18.8833 C   0  0  0  0  0  0  0  0  0  0  0  0
   11.0744  -16.5673   19.1885 O   0  0  0  0  0  0  0  0  0  0  0  0
    9.9108  -21.6270   17.8369 O   0  0  0  0  0  0  0  0  0  0  0  0
    6.9288  -12.3515   19.8568 C   0  0  0  0  0  0  0  0  0  0  0  0
    8.0580  -13.3421   19.7462 C   0  0  0  0  0  0  0  0  0  0  0  0
    8.1028  -14.3272   20.8464 C   0  0  2  0  0  0  0  0  0  0  0  0
    8.3323  -13.5424   22.1508 C   0  0  0  0  0  0  0  0  0  0  0  0
    9.0893  -15.4298   20.7558 C   0  0  2  0  0  0  0  0  0  0  0  0
    8.8401  -16.3274   19.6367 N   0  0  0  0  0  0  0  0  0  0  0  0
    9.2568  -16.1495   22.0382 C   0  0  0  0  0  0  0  0  0  0  0  0
    8.3862  -16.9279   22.5028 O   0  0  0  0  0  0  0  0  0  0  0  0
   12.3114  -17.5180   25.6233 O   0  0  0  0  0  0  0  0  0  0  0  0
   12.1311  -16.7022   24.4850 C   0  0  0  0  0  0  0  0  0  0  0  0
   10.7087  -16.7757   24.0119 C   0  0  2  0  0  0  0  0  0  0  0  0
   10.4311  -16.0076   22.8484 N   0  0  0  0  0  0  0  0  0  0  0  0
    9.8591  -16.2307   25.1288 C   0  0  0  0  0  0  0  0  0  0  0  0
    9.7905  -17.0304   26.2700 O   0  0  0  0  0  0  0  0  0  0  0  0
    9.2535  -15.1504   25.0630 O   0  0  0  0  0  0  0  0  0  0  0  0
  2  1  1  6
  3  2  1  0
  3  4  1  0
  4  8  1  0
  5  4  2  0
  6  2  1  0
  6  7  2  0
  9 10  1  0
 10 11  1  0
 11 13  1  0
 11 12  1  1
 13 14  1  6
 13 15  1  0
 14  6  1  0
 15 20  1  0
 15 16  2  0
 18 17  1  0
 19 18  1  1
 20 19  1  0
 21 22  1  0
 21 19  1  0
 23 21  2  0
M  END
$$$$
