DIS.pdb
     RDKit          3D

 23 22  0  0  1  0  0  0  0  0999 V2000
    9.9133  -17.9128   16.4160 N   0  0  0  0  0  0  0  0  0  0  0  0
    8.9498  -17.9638   17.4715 C   0  0  1  0  0  0  0  0  0  0  0  0
    8.8616  -19.3804   17.9903 C   0  0  0  0  0  0  0  0  0  0  0  0
    8.3252  -20.3576   17.0588 C   0  0  0  0  0  0  0  0  0  0  0  0
    8.0929  -20.0776   15.8646 O   0  0  0  0  0  0  0  0  0  0  0  0
    9.3122  -17.1151   18.6319 C   0  0  0  0  0  0  0  0  0  0  0  0
   10.5393  -17.0100   18.9755 O   0  0  0  0  0  0  0  0  0  0  0  0
    8.0660  -21.6388   17.5182 O   0  0  0  0  0  0  0  0  0  0  0  0
    6.6860  -12.3693   19.7928 C   0  0  0  0  0  0  0  0  0  0  0  0
    7.7442  -13.4203   19.5832 C   0  0  0  0  0  0  0  0  0  0  0  0
    7.8694  -14.3780   20.7013 C   0  0  2  0  0  0  0  0  0  0  0  0
    8.3175  -13.5779   21.9379 C   0  0  0  0  0  0  0  0  0  0  0  0
    8.7627  -15.5472   20.5218 C   0  0  2  0  0  0  0  0  0  0  0  0
    8.3738  -16.3957   19.4042 N   0  0  0  0  0  0  0  0  0  0  0  0
    8.9604  -16.3093   21.7751 C   0  0  0  0  0  0  0  0  0  0  0  0
    8.0345  -16.9424   22.3422 O   0  0  0  0  0  0  0  0  0  0  0  0
   12.0695  -18.4690   22.3656 O   0  0  0  0  0  0  0  0  0  0  0  0
   11.0304  -18.5307   23.3196 C   0  0  0  0  0  0  0  0  0  0  0  0
   10.4963  -17.1559   23.5972 C   0  0  2  0  0  0  0  0  0  0  0  0
   10.2301  -16.3784   22.4372 N   0  0  0  0  0  0  0  0  0  0  0  0
   11.5559  -16.4390   24.3907 C   0  0  0  0  0  0  0  0  0  0  0  0
   11.8637  -17.0098   25.6260 O   0  0  0  0  0  0  0  0  0  0  0  0
   12.1289  -15.4123   23.9958 O   0  0  0  0  0  0  0  0  0  0  0  0
  2  1  1  6
  3  2  1  0
  3  4  1  0
  4  8  1  0
  5  4  2  0
  6  2  1  0
  6  7  2  0
  9 10  1  0
 10 11  1  0
 11 13  1  0
 11 12  1  1
 13 14  1  6
 13 15  1  0
 14  6  1  0
 15 20  1  0
 15 16  2  0
 18 17  1  0
 19 18  1  6
 20 19  1  0
 21 22  1  0
 21 19  1  0
 23 21  2  0
M  END
$$$$
