YTG.pdb
     RDKit          3D

 24 24  0  0  1  0  0  0  0  0999 V2000
    9.3826  -12.3008   18.8124 O   0  0  0  0  0  0  0  0  0  0  0  0
    8.6746  -13.1282   19.6988 C   0  0  0  0  0  0  0  0  0  0  0  0
    8.2401  -12.6658   20.9234 C   0  0  0  0  0  0  0  0  0  0  0  0
    7.5454  -13.4467   21.8151 C   0  0  0  0  0  0  0  0  0  0  0  0
    7.2550  -14.7594   21.4962 C   0  0  0  0  0  0  0  0  0  0  0  0
    6.5430  -15.6634   22.4228 C   0  0  0  0  0  0  0  0  0  0  0  0
    6.9668  -17.0726   22.2533 C   0  0  2  0  0  0  0  0  0  0  0  0
    5.8292  -17.8950   22.7498 N   0  0  0  0  0  0  0  0  0  0  0  0
    8.1482  -17.5152   23.0086 C   0  0  0  0  0  0  0  0  0  0  0  0
    8.0662  -17.5418   24.2797 O   0  0  0  0  0  0  0  0  0  0  0  0
    7.6781  -15.2359   20.2847 C   0  0  0  0  0  0  0  0  0  0  0  0
    8.3740  -14.4392   19.4019 C   0  0  0  0  0  0  0  0  0  0  0  0
   10.0679  -20.8088   23.0815 C   0  0  0  0  0  0  0  0  0  0  0  0
   11.0619  -19.7127   22.7801 C   0  0  1  0  0  0  0  0  0  0  0  0
   11.4195  -19.8111   21.4406 O   0  0  0  0  0  0  0  0  0  0  0  0
   10.5440  -18.3686   23.1517 C   0  0  2  0  0  0  0  0  0  0  0  0
    9.3893  -17.9259   22.4404 N   0  0  0  0  0  0  0  0  0  0  0  0
   11.6129  -17.3228   23.2517 C   0  0  0  0  0  0  0  0  0  0  0  0
   12.3469  -17.3526   24.2663 O   0  0  0  0  0  0  0  0  0  0  0  0
   11.8057  -16.3433   22.2689 N   0  0  0  0  0  0  0  0  0  0  0  0
   12.9273  -15.4179   22.4498 C   0  0  0  0  0  0  0  0  0  0  0  0
   14.0937  -15.8413   21.6335 C   0  0  0  0  0  0  0  0  0  0  0  0
   14.3327  -17.0623   21.4969 O   0  0  0  0  0  0  0  0  0  0  0  0
   14.8910  -14.8895   21.0421 O   0  0  0  0  0  0  0  0  0  0  0  0
  2 12  2  0
  2  1  1  0
  3  2  1  0
  4  5  1  0
  4  3  2  0
  5 11  2  0
  6  5  1  0
  7  8  1  1
  7  6  1  0
  9  7  1  0
 10  9  2  0
 11 12  1  0
 14 13  1  6
 15 14  1  0
 16 17  1  6
 16 14  1  0
 17  9  1  0
 18 16  1  0
 19 18  2  0
 20 18  1  0
 21 20  1  0
 22 24  1  0
 22 21  1  0
 23 22  2  0
M  END
$$$$
