YTG.pdb
     RDKit          3D

 24 24  0  0  1  0  0  0  0  0999 V2000
    4.6942  -10.8495   27.7726 O   0  0  0  0  0  0  0  0  0  0  0  0
    5.6422  -11.7230   27.2159 C   0  0  0  0  0  0  0  0  0  0  0  0
    5.5016  -12.2166   25.9358 C   0  0  0  0  0  0  0  0  0  0  0  0
    6.4087  -13.0725   25.3595 C   0  0  0  0  0  0  0  0  0  0  0  0
    7.5221  -13.4737   26.0726 C   0  0  0  0  0  0  0  0  0  0  0  0
    8.5174  -14.4190   25.5262 C   0  0  0  0  0  0  0  0  0  0  0  0
    7.8731  -15.5863   24.8807 C   0  0  2  0  0  0  0  0  0  0  0  0
    7.2804  -16.3812   25.9915 N   0  0  0  0  0  0  0  0  0  0  0  0
    8.7440  -16.5106   24.1394 C   0  0  0  0  0  0  0  0  0  0  0  0
    9.2240  -17.5092   24.7681 O   0  0  0  0  0  0  0  0  0  0  0  0
    7.6786  -12.9938   27.3449 C   0  0  0  0  0  0  0  0  0  0  0  0
    6.7592  -12.1359   27.9080 C   0  0  0  0  0  0  0  0  0  0  0  0
    8.7036  -18.0650   20.4413 C   0  0  0  0  0  0  0  0  0  0  0  0
   10.0163  -17.3590   20.6836 C   0  0  1  0  0  0  0  0  0  0  0  0
   10.0750  -16.2562   19.8397 O   0  0  0  0  0  0  0  0  0  0  0  0
   10.2096  -17.0116   22.1171 C   0  0  2  0  0  0  0  0  0  0  0  0
    9.0999  -16.3910   22.7643 N   0  0  0  0  0  0  0  0  0  0  0  0
   11.5137  -16.3276   22.3957 C   0  0  0  0  0  0  0  0  0  0  0  0
   11.4883  -15.0819   22.5245 O   0  0  0  0  0  0  0  0  0  0  0  0
   12.7229  -17.0253   22.5123 N   0  0  0  0  0  0  0  0  0  0  0  0
   13.9438  -16.2343   22.6872 C   0  0  0  0  0  0  0  0  0  0  0  0
   15.1380  -17.1162   22.7353 C   0  0  0  0  0  0  0  0  0  0  0  0
   16.2773  -16.5998   22.7780 O   0  0  0  0  0  0  0  0  0  0  0  0
   14.9752  -18.4817   22.7324 O   0  0  0  0  0  0  0  0  0  0  0  0
  2 12  2  0
  2  1  1  0
  3  2  1  0
  4  5  1  0
  4  3  2  0
  5 11  2  0
  6  5  1  0
  7  8  1  1
  7  6  1  0
  9  7  1  0
 10  9  2  0
 11 12  1  0
 14 13  1  1
 15 14  1  0
 16 17  1  6
 16 14  1  0
 17  9  1  0
 18 16  1  0
 19 18  2  0
 20 18  1  0
 21 20  1  0
 22 24  1  0
 22 21  1  0
 23 22  2  0
M  END
$$$$
