YTG.pdb
     RDKit          3D

 24 24  0  0  1  0  0  0  0  0999 V2000
    7.3898  -10.8721   26.2618 O   0  0  0  0  0  0  0  0  0  0  0  0
    7.3102  -12.2698   26.3709 C   0  0  0  0  0  0  0  0  0  0  0  0
    8.4440  -13.0528   26.4302 C   0  0  0  0  0  0  0  0  0  0  0  0
    8.4037  -14.4219   26.5368 C   0  0  0  0  0  0  0  0  0  0  0  0
    7.1847  -15.0703   26.5890 C   0  0  0  0  0  0  0  0  0  0  0  0
    7.0699  -16.5412   26.6681 C   0  0  0  0  0  0  0  0  0  0  0  0
    6.9142  -17.1551   25.3290 C   0  0  2  0  0  0  0  0  0  0  0  0
    6.4196  -18.5373   25.5775 N   0  0  0  0  0  0  0  0  0  0  0  0
    8.1269  -17.2987   24.5099 C   0  0  0  0  0  0  0  0  0  0  0  0
    8.9238  -18.2528   24.7887 O   0  0  0  0  0  0  0  0  0  0  0  0
    6.0483  -14.3095   26.5317 C   0  0  0  0  0  0  0  0  0  0  0  0
    6.1064  -12.9370   26.4247 C   0  0  0  0  0  0  0  0  0  0  0  0
    8.1743  -17.0819   20.6102 C   0  0  0  0  0  0  0  0  0  0  0  0
    9.4040  -16.3701   21.1218 C   0  0  1  0  0  0  0  0  0  0  0  0
    9.2843  -15.0218   20.8065 O   0  0  0  0  0  0  0  0  0  0  0  0
    9.6315  -16.6156   22.5712 C   0  0  2  0  0  0  0  0  0  0  0  0
    8.4931  -16.4600   23.4170 N   0  0  0  0  0  0  0  0  0  0  0  0
   10.8603  -15.9443   23.1055 C   0  0  0  0  0  0  0  0  0  0  0  0
   10.6900  -15.0038   23.9153 O   0  0  0  0  0  0  0  0  0  0  0  0
   12.1545  -16.3306   22.7336 N   0  0  0  0  0  0  0  0  0  0  0  0
   13.2666  -15.4967   23.1971 C   0  0  0  0  0  0  0  0  0  0  0  0
   14.5499  -15.9601   22.6102 C   0  0  0  0  0  0  0  0  0  0  0  0
   14.5651  -17.0065   21.9237 O   0  0  0  0  0  0  0  0  0  0  0  0
   15.6982  -15.2355   22.8287 O   0  0  0  0  0  0  0  0  0  0  0  0
  2 12  2  0
  2  1  1  0
  3  2  1  0
  4  5  1  0
  4  3  2  0
  5 11  2  0
  6  5  1  0
  7  8  1  1
  7  6  1  0
  9  7  1  0
 10  9  2  0
 11 12  1  0
 14 13  1  1
 15 14  1  0
 16 17  1  1
 16 14  1  0
 17  9  1  0
 18 16  1  0
 19 18  2  0
 20 18  1  0
 21 20  1  0
 22 24  1  0
 22 21  1  0
 23 22  2  0
M  END
$$$$
