YTG.pdb
     RDKit          3D

 24 24  0  0  1  0  0  0  0  0999 V2000
    5.3127  -10.4497   28.3287 O   0  0  0  0  0  0  0  0  0  0  0  0
    5.9992  -11.4297   27.5938 C   0  0  0  0  0  0  0  0  0  0  0  0
    7.0973  -12.0819   28.1143 C   0  0  0  0  0  0  0  0  0  0  0  0
    7.7927  -13.0450   27.4242 C   0  0  0  0  0  0  0  0  0  0  0  0
    7.3956  -13.3960   26.1482 C   0  0  0  0  0  0  0  0  0  0  0  0
    8.1193  -14.3975   25.3381 C   0  0  0  0  0  0  0  0  0  0  0  0
    7.1977  -15.3835   24.7278 C   0  0  2  0  0  0  0  0  0  0  0  0
    6.8943  -16.3670   25.8038 N   0  0  0  0  0  0  0  0  0  0  0  0
    7.7069  -16.1674   23.5928 C   0  0  0  0  0  0  0  0  0  0  0  0
    8.3390  -17.2436   23.8487 O   0  0  0  0  0  0  0  0  0  0  0  0
    6.3074  -12.7594   25.6151 C   0  0  0  0  0  0  0  0  0  0  0  0
    5.6212  -11.7954   26.3209 C   0  0  0  0  0  0  0  0  0  0  0  0
    8.5375  -16.7348   18.6697 C   0  0  0  0  0  0  0  0  0  0  0  0
    7.7787  -16.0218   19.7634 C   0  0  1  0  0  0  0  0  0  0  0  0
    6.4237  -16.2737   19.5830 O   0  0  0  0  0  0  0  0  0  0  0  0
    8.2687  -16.3917   21.1183 C   0  0  2  0  0  0  0  0  0  0  0  0
    7.5517  -15.8302   22.2165 N   0  0  0  0  0  0  0  0  0  0  0  0
    9.7561  -16.2823   21.2665 C   0  0  0  0  0  0  0  0  0  0  0  0
   10.2075  -15.1988   21.7042 O   0  0  0  0  0  0  0  0  0  0  0  0
   10.6271  -17.3292   20.9380 N   0  0  0  0  0  0  0  0  0  0  0  0
   12.0619  -17.0959   21.1229 C   0  0  0  0  0  0  0  0  0  0  0  0
   12.8537  -18.2102   20.5419 C   0  0  0  0  0  0  0  0  0  0  0  0
   12.2636  -19.2486   20.1678 O   0  0  0  0  0  0  0  0  0  0  0  0
   14.2182  -18.0852   20.4239 O   0  0  0  0  0  0  0  0  0  0  0  0
  2 12  2  0
  2  1  1  0
  3  2  1  0
  4  5  1  0
  4  3  2  0
  5 11  2  0
  6  5  1  0
  7  8  1  1
  7  6  1  0
  9  7  1  0
 10  9  2  0
 11 12  1  0
 14 13  1  6
 15 14  1  0
 16 17  1  1
 16 14  1  0
 17  9  1  0
 18 16  1  0
 19 18  2  0
 20 18  1  0
 21 20  1  0
 22 24  1  0
 22 21  1  0
 23 22  2  0
M  END
$$$$
