YTG.pdb
     RDKit          3D

 24 24  0  0  1  0  0  0  0  0999 V2000
    5.3439  -10.2862   27.8387 O   0  0  0  0  0  0  0  0  0  0  0  0
    6.0351  -11.4390   27.4325 C   0  0  0  0  0  0  0  0  0  0  0  0
    7.2733  -11.7559   27.9508 C   0  0  0  0  0  0  0  0  0  0  0  0
    7.9776  -12.8746   27.5766 C   0  0  0  0  0  0  0  0  0  0  0  0
    7.4447  -13.7393   26.6399 C   0  0  0  0  0  0  0  0  0  0  0  0
    8.1639  -14.9403   26.1675 C   0  0  0  0  0  0  0  0  0  0  0  0
    7.3733  -15.7008   25.1721 C   0  0  2  0  0  0  0  0  0  0  0  0
    6.6853  -16.7733   25.9425 N   0  0  0  0  0  0  0  0  0  0  0  0
    8.1162  -16.3823   24.1017 C   0  0  0  0  0  0  0  0  0  0  0  0
    8.7272  -17.4610   24.3951 O   0  0  0  0  0  0  0  0  0  0  0  0
    6.2164  -13.4412   26.1145 C   0  0  0  0  0  0  0  0  0  0  0  0
    5.5233  -12.3148   26.5007 C   0  0  0  0  0  0  0  0  0  0  0  0
    7.3839  -16.0035   20.0925 C   0  0  0  0  0  0  0  0  0  0  0  0
    8.8684  -16.0225   20.3684 C   0  0  1  0  0  0  0  0  0  0  0  0
    9.3951  -14.7965   19.9792 O   0  0  0  0  0  0  0  0  0  0  0  0
    9.1712  -16.3684   21.7831 C   0  0  2  0  0  0  0  0  0  0  0  0
    8.2118  -15.9422   22.7492 N   0  0  0  0  0  0  0  0  0  0  0  0
   10.5844  -16.0689   22.1825 C   0  0  0  0  0  0  0  0  0  0  0  0
   10.7652  -15.1020   22.9581 O   0  0  0  0  0  0  0  0  0  0  0  0
   11.6743  -16.8202   21.7242 N   0  0  0  0  0  0  0  0  0  0  0  0
   13.0096  -16.4107   22.1671 C   0  0  0  0  0  0  0  0  0  0  0  0
   14.0518  -17.2819   21.5663 C   0  0  0  0  0  0  0  0  0  0  0  0
   13.7041  -18.2246   20.8200 O   0  0  0  0  0  0  0  0  0  0  0  0
   15.3784  -17.0411   21.8376 O   0  0  0  0  0  0  0  0  0  0  0  0
  2 12  2  0
  2  1  1  0
  3  2  1  0
  4  5  1  0
  4  3  2  0
  5 11  2  0
  6  5  1  0
  7  8  1  1
  7  6  1  0
  9  7  1  0
 10  9  2  0
 11 12  1  0
 14 13  1  1
 15 14  1  0
 16 17  1  1
 16 14  1  0
 17  9  1  0
 18 16  1  0
 19 18  2  0
 20 18  1  0
 21 20  1  0
 22 24  1  0
 22 21  1  0
 23 22  2  0
M  END
$$$$
