YTG.pdb
     RDKit          3D

 24 24  0  0  1  0  0  0  0  0999 V2000
    5.1621  -10.4737   27.7276 O   0  0  0  0  0  0  0  0  0  0  0  0
    5.8248  -11.6431   27.3214 C   0  0  0  0  0  0  0  0  0  0  0  0
    7.1996  -11.6945   27.2244 C   0  0  0  0  0  0  0  0  0  0  0  0
    7.8808  -12.8207   26.8306 C   0  0  0  0  0  0  0  0  0  0  0  0
    7.1816  -13.9688   26.5110 C   0  0  0  0  0  0  0  0  0  0  0  0
    7.8492  -15.2023   26.0469 C   0  0  0  0  0  0  0  0  0  0  0  0
    7.0902  -15.8653   24.9612 C   0  0  2  0  0  0  0  0  0  0  0  0
    6.4348  -17.0436   25.5930 N   0  0  0  0  0  0  0  0  0  0  0  0
    7.8617  -16.3903   23.8249 C   0  0  0  0  0  0  0  0  0  0  0  0
    8.3695  -17.5534   23.9370 O   0  0  0  0  0  0  0  0  0  0  0  0
    5.8162  -13.9366   26.6016 C   0  0  0  0  0  0  0  0  0  0  0  0
    5.1484  -12.7986   26.9982 C   0  0  0  0  0  0  0  0  0  0  0  0
    7.0639  -14.9721   20.1230 C   0  0  0  0  0  0  0  0  0  0  0  0
    8.4585  -15.5504   20.1553 C   0  0  1  0  0  0  0  0  0  0  0  0
    9.3553  -14.5304   19.8598 O   0  0  0  0  0  0  0  0  0  0  0  0
    8.7519  -16.2345   21.4433 C   0  0  2  0  0  0  0  0  0  0  0  0
    8.0914  -15.7095   22.5937 N   0  0  0  0  0  0  0  0  0  0  0  0
   10.2120  -16.4893   21.6657 C   0  0  0  0  0  0  0  0  0  0  0  0
   10.8051  -15.7395   22.4751 O   0  0  0  0  0  0  0  0  0  0  0  0
   10.9083  -17.5137   21.0112 N   0  0  0  0  0  0  0  0  0  0  0  0
   12.2999  -17.7437   21.4082 C   0  0  0  0  0  0  0  0  0  0  0  0
   13.2255  -16.9496   20.5603 C   0  0  0  0  0  0  0  0  0  0  0  0
   13.2621  -17.1656   19.3280 O   0  0  0  0  0  0  0  0  0  0  0  0
   14.0256  -15.9925   21.1392 O   0  0  0  0  0  0  0  0  0  0  0  0
  2 12  2  0
  2  1  1  0
  3  2  1  0
  4  5  1  0
  4  3  2  0
  5 11  2  0
  6  5  1  0
  7  8  1  1
  7  6  1  0
  9  7  1  0
 10  9  2  0
 11 12  1  0
 14 13  1  1
 15 14  1  0
 16 17  1  1
 16 14  1  0
 17  9  1  0
 18 16  1  0
 19 18  2  0
 20 18  1  0
 21 20  1  0
 22 24  1  0
 22 21  1  0
 23 22  2  0
M  END
$$$$
