YTG.pdb
     RDKit          3D

 24 24  0  0  1  0  0  0  0  0999 V2000
    4.9930  -10.4851   28.2273 O   0  0  0  0  0  0  0  0  0  0  0  0
    5.7798  -11.4536   27.5833 C   0  0  0  0  0  0  0  0  0  0  0  0
    6.9372  -11.9377   28.1562 C   0  0  0  0  0  0  0  0  0  0  0  0
    7.7309  -12.8844   27.5552 C   0  0  0  0  0  0  0  0  0  0  0  0
    7.3772  -13.3923   26.3198 C   0  0  0  0  0  0  0  0  0  0  0  0
    8.2034  -14.3852   25.6028 C   0  0  0  0  0  0  0  0  0  0  0  0
    7.3725  -15.3613   24.8604 C   0  0  2  0  0  0  0  0  0  0  0  0
    6.8985  -16.3392   25.8783 N   0  0  0  0  0  0  0  0  0  0  0  0
    8.0376  -16.1532   23.8151 C   0  0  0  0  0  0  0  0  0  0  0  0
    8.4643  -17.3122   24.1276 O   0  0  0  0  0  0  0  0  0  0  0  0
    6.2313  -12.9238   25.7358 C   0  0  0  0  0  0  0  0  0  0  0  0
    5.4466  -11.9738   26.3523 C   0  0  0  0  0  0  0  0  0  0  0  0
    7.2667  -16.1239   19.8544 C   0  0  0  0  0  0  0  0  0  0  0  0
    8.7594  -16.1326   20.0828 C   0  0  1  0  0  0  0  0  0  0  0  0
    9.2809  -14.9504   19.5707 O   0  0  0  0  0  0  0  0  0  0  0  0
    9.1065  -16.3564   21.5118 C   0  0  2  0  0  0  0  0  0  0  0  0
    8.2464  -15.7380   22.4675 N   0  0  0  0  0  0  0  0  0  0  0  0
   10.5616  -16.1581   21.8117 C   0  0  0  0  0  0  0  0  0  0  0  0
   10.8830  -15.1028   22.4051 O   0  0  0  0  0  0  0  0  0  0  0  0
   11.5406  -17.0948   21.4559 N   0  0  0  0  0  0  0  0  0  0  0  0
   12.9314  -16.7764   21.7896 C   0  0  0  0  0  0  0  0  0  0  0  0
   13.8355  -17.8812   21.3795 C   0  0  0  0  0  0  0  0  0  0  0  0
   13.3472  -18.9070   20.8543 O   0  0  0  0  0  0  0  0  0  0  0  0
   15.1905  -17.7615   21.5820 O   0  0  0  0  0  0  0  0  0  0  0  0
  2 12  2  0
  2  1  1  0
  3  2  1  0
  4  5  1  0
  4  3  2  0
  5 11  2  0
  6  5  1  0
  7  8  1  1
  7  6  1  0
  9  7  1  0
 10  9  2  0
 11 12  1  0
 14 13  1  1
 15 14  1  0
 16 17  1  1
 16 14  1  0
 17  9  1  0
 18 16  1  0
 19 18  2  0
 20 18  1  0
 21 20  1  0
 22 24  1  0
 22 21  1  0
 23 22  2  0
M  END
$$$$
