SKI.pdb
     RDKit          3D

 24 23  0  0  1  0  0  0  0  0999 V2000
   10.2337  -13.3042   19.6446 O   0  0  0  0  0  0  0  0  0  0  0  0
    9.5761  -14.3254   18.9922 C   0  0  0  0  0  0  0  0  0  0  0  0
    8.0816  -14.2980   19.2260 C   0  0  2  0  0  0  0  0  0  0  0  0
    7.5391  -13.0216   18.8063 N   0  0  0  0  0  0  0  0  0  0  0  0
    7.7163  -14.6155   20.6240 C   0  0  0  0  0  0  0  0  0  0  0  0
    7.2722  -13.6889   21.3406 O   0  0  0  0  0  0  0  0  0  0  0  0
    7.8647  -15.9289   21.1364 N   0  0  0  0  0  0  0  0  0  0  0  0
    7.5024  -16.2889   22.4915 C   0  0  1  0  0  0  0  0  0  0  0  0
    7.6929  -17.7817   22.6493 C   0  0  0  0  0  0  0  0  0  0  0  0
    7.1896  -18.2562   24.0004 C   0  0  0  0  0  0  0  0  0  0  0  0
    7.3270  -19.7445   24.1547 C   0  0  0  0  0  0  0  0  0  0  0  0
    6.7307  -20.0942   25.5236 C   0  0  0  0  0  0  0  0  0  0  0  0
    6.8083  -21.5294   25.7358 N   0  0  0  0  0  0  0  0  0  0  0  0
    8.3482  -15.5826   23.5047 C   0  0  0  0  0  0  0  0  0  0  0  0
    9.5870  -15.5172   23.4060 O   0  0  0  0  0  0  0  0  0  0  0  0
    5.7280  -11.8983   27.2597 C   0  0  0  0  0  0  0  0  0  0  0  0
    6.1502  -13.0709   26.4105 C   0  0  0  0  0  0  0  0  0  0  0  0
    7.5524  -12.8540   25.8571 C   0  0  2  0  0  0  0  0  0  0  0  0
    7.3294  -12.1745   24.4949 C   0  0  0  0  0  0  0  0  0  0  0  0
    8.2783  -14.1479   25.5788 C   0  0  2  0  0  0  0  0  0  0  0  0
    7.6724  -14.9918   24.5817 N   0  0  0  0  0  0  0  0  0  0  0  0
    8.7191  -14.8264   26.7847 C   0  0  0  0  0  0  0  0  0  0  0  0
    8.4406  -16.0012   27.1106 O   0  0  0  0  0  0  0  0  0  0  0  0
    9.5363  -14.1214   27.6882 O   0  0  0  0  0  0  0  0  0  0  0  0
  2  1  1  0
  3  2  1  0
  3  4  1  1
  5  6  2  0
  5  3  1  0
  7  5  1  0
  8  7  1  0
  9 10  1  0
  8  9  1  6
 10 11  1  0
 12 11  1  0
 13 12  1  0
 14 21  1  0
 14  8  1  0
 15 14  2  0
 17 16  1  0
 18 17  1  0
 18 19  1  6
 20 18  1  0
 20 21  1  1
 22 20  1  0
 23 22  2  0
 24 22  1  0
M  END
$$$$
