SKI.pdb
     RDKit          3D

 24 23  0  0  1  0  0  0  0  0999 V2000
   11.7728  -15.5064   19.2342 O   0  0  0  0  0  0  0  0  0  0  0  0
   10.8579  -15.2273   20.2273 C   0  0  0  0  0  0  0  0  0  0  0  0
    9.6155  -16.0853   20.1317 C   0  0  2  0  0  0  0  0  0  0  0  0
    8.8478  -15.7142   18.9601 N   0  0  0  0  0  0  0  0  0  0  0  0
    8.7945  -16.0404   21.3616 C   0  0  0  0  0  0  0  0  0  0  0  0
    8.0320  -15.0597   21.5239 O   0  0  0  0  0  0  0  0  0  0  0  0
    8.8690  -17.0761   22.3265 N   0  0  0  0  0  0  0  0  0  0  0  0
    8.1537  -17.0301   23.5848 C   0  0  1  0  0  0  0  0  0  0  0  0
    7.9249  -18.4521   24.0489 C   0  0  0  0  0  0  0  0  0  0  0  0
    6.9393  -19.1694   23.1445 C   0  0  0  0  0  0  0  0  0  0  0  0
    6.7903  -20.6167   23.5198 C   0  0  0  0  0  0  0  0  0  0  0  0
    5.8390  -21.2352   22.4881 C   0  0  0  0  0  0  0  0  0  0  0  0
    5.7440  -22.6677   22.7113 N   0  0  0  0  0  0  0  0  0  0  0  0
    8.9198  -16.2936   24.6390 C   0  0  0  0  0  0  0  0  0  0  0  0
   10.1535  -16.4018   24.7608 O   0  0  0  0  0  0  0  0  0  0  0  0
    6.8337  -11.4079   26.1232 C   0  0  0  0  0  0  0  0  0  0  0  0
    7.7712  -12.5356   25.7713 C   0  0  0  0  0  0  0  0  0  0  0  0
    7.9604  -13.4661   26.9619 C   0  0  2  0  0  0  0  0  0  0  0  0
    8.8620  -12.6788   27.9284 C   0  0  0  0  0  0  0  0  0  0  0  0
    8.7092  -14.7275   26.6058 C   0  0  2  0  0  0  0  0  0  0  0  0
    8.1746  -15.4672   25.4920 N   0  0  0  0  0  0  0  0  0  0  0  0
    9.0722  -15.5230   27.7651 C   0  0  0  0  0  0  0  0  0  0  0  0
    8.5486  -16.6062   28.1065 O   0  0  0  0  0  0  0  0  0  0  0  0
   10.1053  -15.0566   28.5995 O   0  0  0  0  0  0  0  0  0  0  0  0
  2  1  1  0
  3  2  1  0
  3  4  1  6
  5  6  2  0
  5  3  1  0
  7  5  1  0
  8  7  1  0
  9 10  1  0
  8  9  1  1
 10 11  1  0
 12 11  1  0
 13 12  1  0
 14 21  1  0
 14  8  1  0
 15 14  2  0
 17 16  1  0
 18 17  1  0
 18 19  1  1
 20 18  1  0
 20 21  1  6
 22 20  1  0
 23 22  2  0
 24 22  1  0
M  END
$$$$
