SKI.pdb
     RDKit          3D

 24 23  0  0  1  0  0  0  0  0999 V2000
   10.6297  -17.4705   15.9006 O   0  0  0  0  0  0  0  0  0  0  0  0
   11.0272  -18.5684   16.6338 C   0  0  0  0  0  0  0  0  0  0  0  0
   10.2320  -18.7347   17.9101 C   0  0  2  0  0  0  0  0  0  0  0  0
    8.8140  -18.6543   17.6228 N   0  0  0  0  0  0  0  0  0  0  0  0
   10.6332  -17.7751   18.9621 C   0  0  0  0  0  0  0  0  0  0  0  0
   11.8313  -17.7708   19.3280 O   0  0  0  0  0  0  0  0  0  0  0  0
    9.6898  -16.8875   19.5379 N   0  0  0  0  0  0  0  0  0  0  0  0
   10.0492  -15.8931   20.5275 C   0  0  1  0  0  0  0  0  0  0  0  0
    8.9175  -14.8933   20.6232 C   0  0  0  0  0  0  0  0  0  0  0  0
    8.5744  -14.3250   19.2582 C   0  0  0  0  0  0  0  0  0  0  0  0
    7.4778  -13.3011   19.3406 C   0  0  0  0  0  0  0  0  0  0  0  0
    7.2913  -12.7520   17.9209 C   0  0  0  0  0  0  0  0  0  0  0  0
    6.1218  -11.8909   17.8821 N   0  0  0  0  0  0  0  0  0  0  0  0
   10.2748  -16.5005   21.8769 C   0  0  0  0  0  0  0  0  0  0  0  0
    9.3436  -16.9620   22.5614 O   0  0  0  0  0  0  0  0  0  0  0  0
   12.6263  -20.7282   22.5267 C   0  0  0  0  0  0  0  0  0  0  0  0
   11.8188  -19.5047   22.8808 C   0  0  0  0  0  0  0  0  0  0  0  0
   12.7107  -18.4333   23.4938 C   0  0  2  0  0  0  0  0  0  0  0  0
   12.9505  -18.9094   24.9370 C   0  0  0  0  0  0  0  0  0  0  0  0
   12.0293  -17.0899   23.5914 C   0  0  2  0  0  0  0  0  0  0  0  0
   11.5984  -16.5256   22.3386 N   0  0  0  0  0  0  0  0  0  0  0  0
   12.7053  -16.1702   24.4890 C   0  0  0  0  0  0  0  0  0  0  0  0
   13.4975  -15.2631   24.1521 O   0  0  0  0  0  0  0  0  0  0  0  0
   12.4660  -16.2870   25.8712 O   0  0  0  0  0  0  0  0  0  0  0  0
  2  1  1  0
  3  2  1  0
  3  4  1  6
  5  6  2  0
  5  3  1  0
  7  5  1  0
  8  7  1  0
  9 10  1  0
  8  9  1  1
 10 11  1  0
 12 11  1  0
 13 12  1  0
 14 21  1  0
 14  8  1  0
 15 14  2  0
 17 16  1  0
 18 17  1  0
 18 19  1  1
 20 18  1  0
 20 21  1  6
 22 20  1  0
 23 22  2  0
 24 22  1  0
M  END
$$$$
