SKI.pdb
     RDKit          3D

 24 23  0  0  1  0  0  0  0  0999 V2000
    8.6811  -15.9699   18.1838 O   0  0  0  0  0  0  0  0  0  0  0  0
    8.0712  -15.6980   19.3900 C   0  0  0  0  0  0  0  0  0  0  0  0
    7.3752  -16.9069   19.9757 C   0  0  2  0  0  0  0  0  0  0  0  0
    6.2413  -17.2721   19.1507 N   0  0  0  0  0  0  0  0  0  0  0  0
    6.9842  -16.7118   21.3891 C   0  0  0  0  0  0  0  0  0  0  0  0
    5.9450  -16.0535   21.6260 O   0  0  0  0  0  0  0  0  0  0  0  0
    7.7625  -17.2536   22.4427 N   0  0  0  0  0  0  0  0  0  0  0  0
    7.4064  -17.1056   23.8386 C   0  0  1  0  0  0  0  0  0  0  0  0
    7.6211  -18.4378   24.5233 C   0  0  0  0  0  0  0  0  0  0  0  0
    6.5554  -19.4389   24.1158 C   0  0  0  0  0  0  0  0  0  0  0  0
    6.8002  -20.7913   24.7230 C   0  0  0  0  0  0  0  0  0  0  0  0
    5.6582  -21.6946   24.2415 C   0  0  0  0  0  0  0  0  0  0  0  0
    5.7802  -23.0040   24.8592 N   0  0  0  0  0  0  0  0  0  0  0  0
    8.2407  -16.0685   24.5235 C   0  0  0  0  0  0  0  0  0  0  0  0
    9.4782  -16.0239   24.3995 O   0  0  0  0  0  0  0  0  0  0  0  0
    5.3255  -11.8190   27.2622 C   0  0  0  0  0  0  0  0  0  0  0  0
    5.9484  -13.0919   26.7463 C   0  0  0  0  0  0  0  0  0  0  0  0
    7.3555  -12.8274   26.2273 C   0  0  2  0  0  0  0  0  0  0  0  0
    7.1461  -12.2777   24.8057 C   0  0  0  0  0  0  0  0  0  0  0  0
    8.1735  -14.0881   26.0850 C   0  0  2  0  0  0  0  0  0  0  0  0
    7.5557  -15.1398   25.3196 N   0  0  0  0  0  0  0  0  0  0  0  0
    8.7989  -14.5066   27.3270 C   0  0  0  0  0  0  0  0  0  0  0  0
    9.5160  -13.7958   28.0649 O   0  0  0  0  0  0  0  0  0  0  0  0
    8.5966  -15.8287   27.7654 O   0  0  0  0  0  0  0  0  0  0  0  0
  2  1  1  0
  3  2  1  0
  3  4  1  6
  5  6  2  0
  5  3  1  0
  7  5  1  0
  8  7  1  0
  9 10  1  0
  8  9  1  1
 10 11  1  0
 12 11  1  0
 13 12  1  0
 14 21  1  0
 14  8  1  0
 15 14  2  0
 17 16  1  0
 18 17  1  0
 18 19  1  6
 20 18  1  0
 20 21  1  1
 22 20  1  0
 23 22  2  0
 24 22  1  0
M  END
$$$$
