SKI.pdb
     RDKit          3D

 24 23  0  0  1  0  0  0  0  0999 V2000
    9.0948  -15.7023   18.1457 O   0  0  0  0  0  0  0  0  0  0  0  0
    8.4589  -15.4381   19.3402 C   0  0  0  0  0  0  0  0  0  0  0  0
    7.5265  -16.5524   19.7619 C   0  0  2  0  0  0  0  0  0  0  0  0
    6.3801  -16.5989   18.8770 N   0  0  0  0  0  0  0  0  0  0  0  0
    7.1197  -16.4504   21.1807 C   0  0  0  0  0  0  0  0  0  0  0  0
    6.1439  -15.7166   21.4611 O   0  0  0  0  0  0  0  0  0  0  0  0
    7.8137  -17.1619   22.1913 N   0  0  0  0  0  0  0  0  0  0  0  0
    7.4794  -17.0566   23.5965 C   0  0  1  0  0  0  0  0  0  0  0  0
    7.7753  -18.3879   24.2521 C   0  0  0  0  0  0  0  0  0  0  0  0
    7.4507  -18.3503   25.7344 C   0  0  0  0  0  0  0  0  0  0  0  0
    7.8254  -19.6340   26.4194 C   0  0  0  0  0  0  0  0  0  0  0  0
    7.2743  -19.5390   27.8475 C   0  0  0  0  0  0  0  0  0  0  0  0
    7.5403  -20.7797   28.5551 N   0  0  0  0  0  0  0  0  0  0  0  0
    8.2741  -15.9905   24.2839 C   0  0  0  0  0  0  0  0  0  0  0  0
    9.5161  -15.9439   24.2216 O   0  0  0  0  0  0  0  0  0  0  0  0
    5.9768  -11.5818   27.2849 C   0  0  0  0  0  0  0  0  0  0  0  0
    6.0233  -12.5744   26.1504 C   0  0  0  0  0  0  0  0  0  0  0  0
    7.4087  -12.6010   25.5186 C   0  0  2  0  0  0  0  0  0  0  0  0
    7.1474  -12.4651   24.0085 C   0  0  0  0  0  0  0  0  0  0  0  0
    8.1168  -13.9193   25.7159 C   0  0  2  0  0  0  0  0  0  0  0  0
    7.5462  -15.0366   25.0091 N   0  0  0  0  0  0  0  0  0  0  0  0
    8.4737  -14.1746   27.1001 C   0  0  0  0  0  0  0  0  0  0  0  0
    9.1161  -13.4049   27.8476 O   0  0  0  0  0  0  0  0  0  0  0  0
    8.0728  -15.3927   27.6806 O   0  0  0  0  0  0  0  0  0  0  0  0
  2  1  1  0
  3  2  1  0
  3  4  1  6
  5  6  2  0
  5  3  1  0
  7  5  1  0
  8  7  1  0
  9 10  1  0
  8  9  1  1
 10 11  1  0
 12 11  1  0
 13 12  1  0
 14 21  1  0
 14  8  1  0
 15 14  2  0
 17 16  1  0
 18 17  1  0
 18 19  1  6
 20 18  1  0
 20 21  1  1
 22 20  1  0
 23 22  2  0
 24 22  1  0
M  END
$$$$
