SKI.pdb
     RDKit          3D

 24 23  0  0  1  0  0  0  0  0999 V2000
    9.4871  -14.5034   20.5020 O   0  0  0  0  0  0  0  0  0  0  0  0
    8.7951  -15.4615   19.7919 C   0  0  0  0  0  0  0  0  0  0  0  0
    7.2994  -15.3740   20.0016 C   0  0  2  0  0  0  0  0  0  0  0  0
    6.7986  -14.1217   19.4718 N   0  0  0  0  0  0  0  0  0  0  0  0
    6.9087  -15.5662   21.4154 C   0  0  0  0  0  0  0  0  0  0  0  0
    6.3933  -14.5974   22.0198 O   0  0  0  0  0  0  0  0  0  0  0  0
    7.1119  -16.8092   22.0658 N   0  0  0  0  0  0  0  0  0  0  0  0
    6.8940  -16.9979   23.4850 C   0  0  1  0  0  0  0  0  0  0  0  0
    7.0454  -18.4716   23.7930 C   0  0  0  0  0  0  0  0  0  0  0  0
    6.9082  -18.7349   25.2816 C   0  0  0  0  0  0  0  0  0  0  0  0
    7.1202  -20.1851   25.6127 C   0  0  0  0  0  0  0  0  0  0  0  0
    6.8121  -20.3369   27.1074 C   0  0  0  0  0  0  0  0  0  0  0  0
    6.9759  -21.7264   27.4991 N   0  0  0  0  0  0  0  0  0  0  0  0
    7.8760  -16.2267   24.3108 C   0  0  0  0  0  0  0  0  0  0  0  0
    9.0796  -16.1442   24.0058 O   0  0  0  0  0  0  0  0  0  0  0  0
    5.9546  -11.6149   26.3748 C   0  0  0  0  0  0  0  0  0  0  0  0
    6.8840  -12.6536   25.7988 C   0  0  0  0  0  0  0  0  0  0  0  0
    7.4179  -13.5628   26.8978 C   0  0  2  0  0  0  0  0  0  0  0  0
    8.4745  -12.7122   27.6237 C   0  0  0  0  0  0  0  0  0  0  0  0
    8.1380  -14.7741   26.3569 C   0  0  2  0  0  0  0  0  0  0  0  0
    7.3710  -15.5951   25.4561 N   0  0  0  0  0  0  0  0  0  0  0  0
    8.8863  -15.4944   27.3717 C   0  0  0  0  0  0  0  0  0  0  0  0
    8.6368  -16.6462   27.7900 O   0  0  0  0  0  0  0  0  0  0  0  0
   10.0002  -14.8626   27.9559 O   0  0  0  0  0  0  0  0  0  0  0  0
  2  1  1  0
  3  2  1  0
  3  4  1  1
  5  6  2  0
  5  3  1  0
  7  5  1  0
  8  7  1  0
  9 10  1  0
  8  9  1  6
 10 11  1  0
 12 11  1  0
 13 12  1  0
 14 21  1  0
 14  8  1  0
 15 14  2  0
 17 16  1  0
 18 17  1  0
 18 19  1  1
 20 18  1  0
 20 21  1  1
 22 20  1  0
 23 22  2  0
 24 22  1  0
M  END
$$$$
