SKI.pdb
     RDKit          3D

 24 23  0  0  1  0  0  0  0  0999 V2000
    9.6254  -13.9532   20.0555 O   0  0  0  0  0  0  0  0  0  0  0  0
    8.8963  -14.8781   19.3386 C   0  0  0  0  0  0  0  0  0  0  0  0
    7.4279  -14.8706   19.7030 C   0  0  2  0  0  0  0  0  0  0  0  0
    6.8399  -13.5919   19.3581 N   0  0  0  0  0  0  0  0  0  0  0  0
    7.1896  -15.2186   21.1210 C   0  0  0  0  0  0  0  0  0  0  0  0
    6.7707  -14.3185   21.8849 O   0  0  0  0  0  0  0  0  0  0  0  0
    7.4283  -16.5313   21.5998 N   0  0  0  0  0  0  0  0  0  0  0  0
    7.2129  -16.9153   22.9795 C   0  0  1  0  0  0  0  0  0  0  0  0
    7.5221  -18.3906   23.1116 C   0  0  0  0  0  0  0  0  0  0  0  0
    7.2859  -18.8727   24.5313 C   0  0  0  0  0  0  0  0  0  0  0  0
    7.5648  -20.3422   24.6743 C   0  0  0  0  0  0  0  0  0  0  0  0
    7.2478  -20.7028   26.1309 C   0  0  0  0  0  0  0  0  0  0  0  0
    5.9398  -21.3312   26.2029 N   0  0  0  0  0  0  0  0  0  0  0  0
    8.0920  -16.1499   23.9187 C   0  0  0  0  0  0  0  0  0  0  0  0
    9.2956  -15.9420   23.6808 O   0  0  0  0  0  0  0  0  0  0  0  0
    5.7163  -11.9312   26.3623 C   0  0  0  0  0  0  0  0  0  0  0  0
    6.7439  -12.8291   25.7202 C   0  0  0  0  0  0  0  0  0  0  0  0
    7.3078  -13.8113   26.7383 C   0  0  2  0  0  0  0  0  0  0  0  0
    8.2573  -12.9666   27.6054 C   0  0  0  0  0  0  0  0  0  0  0  0
    8.1502  -14.8918   26.1048 C   0  0  2  0  0  0  0  0  0  0  0  0
    7.4895  -15.6729   25.0914 N   0  0  0  0  0  0  0  0  0  0  0  0
    8.9256  -15.6511   27.0696 C   0  0  0  0  0  0  0  0  0  0  0  0
    8.5799  -16.7255   27.6082 O   0  0  0  0  0  0  0  0  0  0  0  0
   10.1865  -15.1564   27.4524 O   0  0  0  0  0  0  0  0  0  0  0  0
  2  1  1  0
  3  2  1  0
  3  4  1  1
  5  6  2  0
  5  3  1  0
  7  5  1  0
  8  7  1  0
  9 10  1  0
  8  9  1  6
 10 11  1  0
 12 11  1  0
 13 12  1  0
 14 21  1  0
 14  8  1  0
 15 14  2  0
 17 16  1  0
 18 17  1  0
 18 19  1  1
 20 18  1  0
 20 21  1  1
 22 20  1  0
 23 22  2  0
 24 22  1  0
M  END
$$$$
