SKI.pdb
     RDKit          3D

 24 23  0  0  1  0  0  0  0  0999 V2000
   10.0219  -15.8703   19.2046 O   0  0  0  0  0  0  0  0  0  0  0  0
    9.5438  -17.1407   19.4465 C   0  0  0  0  0  0  0  0  0  0  0  0
    8.0338  -17.1889   19.5263 C   0  0  2  0  0  0  0  0  0  0  0  0
    7.4572  -16.3860   18.4668 N   0  0  0  0  0  0  0  0  0  0  0  0
    7.5193  -16.7931   20.8557 C   0  0  0  0  0  0  0  0  0  0  0  0
    6.8936  -15.7115   20.9457 O   0  0  0  0  0  0  0  0  0  0  0  0
    7.7284  -17.6135   21.9926 N   0  0  0  0  0  0  0  0  0  0  0  0
    7.1653  -17.3127   23.2925 C   0  0  1  0  0  0  0  0  0  0  0  0
    7.0589  -18.6061   24.0705 C   0  0  0  0  0  0  0  0  0  0  0  0
    6.0276  -19.5320   23.4515 C   0  0  0  0  0  0  0  0  0  0  0  0
    5.8909  -20.8115   24.2272 C   0  0  0  0  0  0  0  0  0  0  0  0
    4.8919  -21.6812   23.4540 C   0  0  0  0  0  0  0  0  0  0  0  0
    5.6105  -22.5488   22.5365 N   0  0  0  0  0  0  0  0  0  0  0  0
    8.0158  -16.3519   24.0635 C   0  0  0  0  0  0  0  0  0  0  0  0
    9.2461  -16.2710   23.8947 O   0  0  0  0  0  0  0  0  0  0  0  0
    6.9815  -10.7833   26.4314 C   0  0  0  0  0  0  0  0  0  0  0  0
    7.8080  -12.0429   26.5008 C   0  0  0  0  0  0  0  0  0  0  0  0
    7.1135  -13.1804   25.7638 C   0  0  2  0  0  0  0  0  0  0  0  0
    5.8877  -13.5121   26.6323 C   0  0  0  0  0  0  0  0  0  0  0  0
    7.9501  -14.4353   25.7029 C   0  0  2  0  0  0  0  0  0  0  0  0
    7.3545  -15.5386   24.9946 N   0  0  0  0  0  0  0  0  0  0  0  0
    8.5688  -14.7717   26.9728 C   0  0  0  0  0  0  0  0  0  0  0  0
    9.2602  -14.0058   27.6794 O   0  0  0  0  0  0  0  0  0  0  0  0
    8.3908  -16.0727   27.4798 O   0  0  0  0  0  0  0  0  0  0  0  0
  2  1  1  0
  3  2  1  0
  3  4  1  6
  5  6  2  0
  5  3  1  0
  7  5  1  0
  8  7  1  0
  9 10  1  0
  8  9  1  1
 10 11  1  0
 12 11  1  0
 13 12  1  0
 14 21  1  0
 14  8  1  0
 15 14  2  0
 17 16  1  0
 18 17  1  0
 18 19  1  1
 20 18  1  0
 20 21  1  1
 22 20  1  0
 23 22  2  0
 24 22  1  0
M  END
$$$$
