SKI.pdb
     RDKit          3D

 24 23  0  0  1  0  0  0  0  0999 V2000
   10.5104  -17.3649   18.4613 O   0  0  0  0  0  0  0  0  0  0  0  0
    9.7243  -16.6178   19.3128 C   0  0  0  0  0  0  0  0  0  0  0  0
    8.3469  -17.2130   19.5058 C   0  0  2  0  0  0  0  0  0  0  0  0
    7.4976  -16.8671   18.3839 N   0  0  0  0  0  0  0  0  0  0  0  0
    7.7341  -16.8280   20.7961 C   0  0  0  0  0  0  0  0  0  0  0  0
    7.0936  -15.7525   20.8450 O   0  0  0  0  0  0  0  0  0  0  0  0
    7.8681  -17.6518   21.9418 N   0  0  0  0  0  0  0  0  0  0  0  0
    7.1822  -17.3812   23.1883 C   0  0  1  0  0  0  0  0  0  0  0  0
    6.8847  -18.7045   23.8592 C   0  0  0  0  0  0  0  0  0  0  0  0
    7.4985  -18.7634   25.2461 C   0  0  0  0  0  0  0  0  0  0  0  0
    7.2541  -20.0901   25.9076 C   0  0  0  0  0  0  0  0  0  0  0  0
    7.8432  -19.9844   27.3197 C   0  0  0  0  0  0  0  0  0  0  0  0
    7.7037  -21.2596   28.0017 N   0  0  0  0  0  0  0  0  0  0  0  0
    8.0093  -16.5440   24.1134 C   0  0  0  0  0  0  0  0  0  0  0  0
    9.2399  -16.6933   24.2226 O   0  0  0  0  0  0  0  0  0  0  0  0
    7.0841  -10.8374   26.3519 C   0  0  0  0  0  0  0  0  0  0  0  0
    7.8943  -12.1089   26.3880 C   0  0  0  0  0  0  0  0  0  0  0  0
    7.1201  -13.2555   25.7516 C   0  0  2  0  0  0  0  0  0  0  0  0
    6.0083  -13.5802   26.7643 C   0  0  0  0  0  0  0  0  0  0  0  0
    7.9474  -14.5095   25.6041 C   0  0  2  0  0  0  0  0  0  0  0  0
    7.3255  -15.5733   24.8590 N   0  0  0  0  0  0  0  0  0  0  0  0
    8.6001  -14.9118   26.8373 C   0  0  0  0  0  0  0  0  0  0  0  0
    9.3803  -14.2110   27.5185 O   0  0  0  0  0  0  0  0  0  0  0  0
    8.3502  -16.2042   27.3356 O   0  0  0  0  0  0  0  0  0  0  0  0
  2  1  1  0
  3  2  1  0
  3  4  1  6
  5  6  2  0
  5  3  1  0
  7  5  1  0
  8  7  1  0
  9 10  1  0
  8  9  1  1
 10 11  1  0
 12 11  1  0
 13 12  1  0
 14 21  1  0
 14  8  1  0
 15 14  2  0
 17 16  1  0
 18 17  1  0
 18 19  1  1
 20 18  1  0
 20 21  1  1
 22 20  1  0
 23 22  2  0
 24 22  1  0
M  END
$$$$
