SKI.pdb
     RDKit          3D

 24 23  0  0  1  0  0  0  0  0999 V2000
   12.3151  -19.3015   22.0558 O   0  0  0  0  0  0  0  0  0  0  0  0
   11.4745  -19.0909   20.9835 C   0  0  0  0  0  0  0  0  0  0  0  0
   11.5495  -17.6754   20.4545 C   0  0  2  0  0  0  0  0  0  0  0  0
   12.8940  -17.3900   19.9957 N   0  0  0  0  0  0  0  0  0  0  0  0
   11.0814  -16.6731   21.4368 C   0  0  0  0  0  0  0  0  0  0  0  0
   11.9440  -15.9955   22.0417 O   0  0  0  0  0  0  0  0  0  0  0  0
    9.6984  -16.4858   21.6851 N   0  0  0  0  0  0  0  0  0  0  0  0
    9.1987  -15.6121   22.7264 C   0  0  1  0  0  0  0  0  0  0  0  0
    7.7185  -15.4011   22.4941 C   0  0  0  0  0  0  0  0  0  0  0  0
    7.4646  -14.1191   21.7221 C   0  0  0  0  0  0  0  0  0  0  0  0
    7.4993  -14.3468   20.2373 C   0  0  0  0  0  0  0  0  0  0  0  0
    7.1531  -13.0025   19.5854 C   0  0  0  0  0  0  0  0  0  0  0  0
    7.2616  -13.1198   18.1413 N   0  0  0  0  0  0  0  0  0  0  0  0
    9.3970  -16.1949   24.0908 C   0  0  0  0  0  0  0  0  0  0  0  0
    9.4460  -17.4227   24.2877 O   0  0  0  0  0  0  0  0  0  0  0  0
    9.5264  -12.1064   28.0508 C   0  0  0  0  0  0  0  0  0  0  0  0
    9.9786  -13.1964   27.1117 C   0  0  0  0  0  0  0  0  0  0  0  0
    9.3844  -14.5373   27.5218 C   0  0  2  0  0  0  0  0  0  0  0  0
   10.1171  -14.9026   28.8243 C   0  0  0  0  0  0  0  0  0  0  0  0
    9.6871  -15.6382   26.5344 C   0  0  2  0  0  0  0  0  0  0  0  0
    9.5263  -15.2833   25.1481 N   0  0  0  0  0  0  0  0  0  0  0  0
    9.1244  -16.9206   26.9183 C   0  0  0  0  0  0  0  0  0  0  0  0
    8.0148  -17.3732   26.5605 O   0  0  0  0  0  0  0  0  0  0  0  0
    9.8747  -17.7521   27.7708 O   0  0  0  0  0  0  0  0  0  0  0  0
  2  1  1  0
  3  2  1  0
  3  4  1  1
  5  6  2  0
  5  3  1  0
  7  5  1  0
  8  7  1  0
  9 10  1  0
  8  9  1  6
 10 11  1  0
 12 11  1  0
 13 12  1  0
 14 21  1  0
 14  8  1  0
 15 14  2  0
 17 16  1  0
 18 17  1  0
 18 19  1  1
 20 18  1  0
 20 21  1  6
 22 20  1  0
 23 22  2  0
 24 22  1  0
M  END
$$$$
