SKI.pdb
     RDKit          3D

 24 23  0  0  1  0  0  0  0  0999 V2000
   10.3301  -12.9475   19.6968 O   0  0  0  0  0  0  0  0  0  0  0  0
    9.7462  -14.1282   19.2895 C   0  0  0  0  0  0  0  0  0  0  0  0
    8.2348  -14.0605   19.2900 C   0  0  2  0  0  0  0  0  0  0  0  0
    7.8000  -12.7237   18.9382 N   0  0  0  0  0  0  0  0  0  0  0  0
    7.6434  -14.5102   20.5693 C   0  0  0  0  0  0  0  0  0  0  0  0
    7.0570  -13.6590   21.2772 O   0  0  0  0  0  0  0  0  0  0  0  0
    7.7377  -15.8634   20.9807 N   0  0  0  0  0  0  0  0  0  0  0  0
    7.2860  -16.3233   22.2775 C   0  0  1  0  0  0  0  0  0  0  0  0
    7.3546  -17.8348   22.2913 C   0  0  0  0  0  0  0  0  0  0  0  0
    6.8728  -18.3908   23.6190 C   0  0  0  0  0  0  0  0  0  0  0  0
    6.8568  -19.8933   23.6209 C   0  0  0  0  0  0  0  0  0  0  0  0
    6.3695  -20.3188   25.0114 C   0  0  0  0  0  0  0  0  0  0  0  0
    6.2628  -21.7667   25.0674 N   0  0  0  0  0  0  0  0  0  0  0  0
    8.1346  -15.7893   23.3890 C   0  0  0  0  0  0  0  0  0  0  0  0
    9.3776  -15.8406   23.3588 O   0  0  0  0  0  0  0  0  0  0  0  0
    5.9836  -11.4847   26.1242 C   0  0  0  0  0  0  0  0  0  0  0  0
    6.9096  -12.4459   25.4221 C   0  0  0  0  0  0  0  0  0  0  0  0
    7.3020  -13.5869   26.3513 C   0  0  2  0  0  0  0  0  0  0  0  0
    8.2592  -12.9440   27.3698 C   0  0  0  0  0  0  0  0  0  0  0  0
    8.0845  -14.6703   25.6496 C   0  0  2  0  0  0  0  0  0  0  0  0
    7.4564  -15.2226   24.4774 N   0  0  0  0  0  0  0  0  0  0  0  0
    8.6616  -15.6409   26.5627 C   0  0  0  0  0  0  0  0  0  0  0  0
    8.1609  -16.7429   26.8768 O   0  0  0  0  0  0  0  0  0  0  0  0
    9.8980  -15.3403   27.1646 O   0  0  0  0  0  0  0  0  0  0  0  0
  2  1  1  0
  3  2  1  0
  3  4  1  1
  5  6  2  0
  5  3  1  0
  7  5  1  0
  8  7  1  0
  9 10  1  0
  8  9  1  6
 10 11  1  0
 12 11  1  0
 13 12  1  0
 14 21  1  0
 14  8  1  0
 15 14  2  0
 17 16  1  0
 18 17  1  0
 18 19  1  1
 20 18  1  0
 20 21  1  6
 22 20  1  0
 23 22  2  0
 24 22  1  0
M  END
$$$$
