SKI.pdb
     RDKit          3D

 24 23  0  0  1  0  0  0  0  0999 V2000
   11.3532  -17.1896   20.6028 O   0  0  0  0  0  0  0  0  0  0  0  0
   10.7815  -16.6109   19.4896 C   0  0  0  0  0  0  0  0  0  0  0  0
    9.3162  -16.9572   19.3413 C   0  0  2  0  0  0  0  0  0  0  0  0
    8.7919  -16.3750   18.1223 N   0  0  0  0  0  0  0  0  0  0  0  0
    8.5152  -16.5686   20.5228 C   0  0  0  0  0  0  0  0  0  0  0  0
    8.1428  -15.3759   20.6141 O   0  0  0  0  0  0  0  0  0  0  0  0
    8.1795  -17.5177   21.5206 N   0  0  0  0  0  0  0  0  0  0  0  0
    7.4201  -17.1763   22.7056 C   0  0  1  0  0  0  0  0  0  0  0  0
    6.9579  -18.4623   23.3556 C   0  0  0  0  0  0  0  0  0  0  0  0
    6.0454  -19.2449   22.4289 C   0  0  0  0  0  0  0  0  0  0  0  0
    5.6901  -20.5881   23.0007 C   0  0  0  0  0  0  0  0  0  0  0  0
    4.8546  -21.3053   21.9332 C   0  0  0  0  0  0  0  0  0  0  0  0
    5.7244  -21.7720   20.8671 N   0  0  0  0  0  0  0  0  0  0  0  0
    8.2372  -16.4012   23.6916 C   0  0  0  0  0  0  0  0  0  0  0  0
    9.4815  -16.4144   23.6787 O   0  0  0  0  0  0  0  0  0  0  0  0
    7.2620  -11.1133   26.6827 C   0  0  0  0  0  0  0  0  0  0  0  0
    8.0305  -12.4096   26.6233 C   0  0  0  0  0  0  0  0  0  0  0  0
    7.3693  -13.3802   25.6537 C   0  0  2  0  0  0  0  0  0  0  0  0
    6.0072  -13.6985   26.2942 C   0  0  0  0  0  0  0  0  0  0  0  0
    8.1092  -14.6911   25.5421 C   0  0  2  0  0  0  0  0  0  0  0  0
    7.5277  -15.6516   24.6405 N   0  0  0  0  0  0  0  0  0  0  0  0
    8.5323  -15.2196   26.8268 C   0  0  0  0  0  0  0  0  0  0  0  0
    8.1414  -16.2875   27.3471 O   0  0  0  0  0  0  0  0  0  0  0  0
    9.4678  -14.4833   27.5777 O   0  0  0  0  0  0  0  0  0  0  0  0
  2  1  1  0
  3  2  1  0
  3  4  1  6
  5  6  2  0
  5  3  1  0
  7  5  1  0
  8  7  1  0
  9 10  1  0
  8  9  1  1
 10 11  1  0
 12 11  1  0
 13 12  1  0
 14 21  1  0
 14  8  1  0
 15 14  2  0
 17 16  1  0
 18 17  1  0
 18 19  1  1
 20 18  1  0
 20 21  1  1
 22 20  1  0
 23 22  2  0
 24 22  1  0
M  END
$$$$
