VPI.pdb
     RDKit          3D

 23 23  0  0  1  0  0  0  0  0999 V2000
   26.1158  -23.3926  -18.4740 C   0  0  0  0  0  0  0  0  0  0  0  0
   26.1436  -22.9542  -17.0213 C   0  0  2  0  0  0  0  0  0  0  0  0
   24.8619  -22.1741  -16.7544 C   0  0  0  0  0  0  0  0  0  0  0  0
   27.3064  -21.9694  -16.8622 C   0  0  2  0  0  0  0  0  0  0  0  0
   28.4881  -22.7424  -17.2158 N   0  0  0  0  0  0  0  0  0  0  0  0
   27.4007  -21.4512  -15.4738 C   0  0  0  0  0  0  0  0  0  0  0  0
   27.8473  -22.2075  -14.5782 O   0  0  0  0  0  0  0  0  0  0  0  0
   27.0093  -20.1368  -15.1150 N   0  0  0  0  0  0  0  0  0  0  0  0
   26.6309  -19.1372  -16.1194 C   0  0  0  0  0  0  0  0  0  0  0  0
   27.1952  -17.8648  -15.4836 C   0  0  0  0  0  0  0  0  0  0  0  0
   26.6600  -18.0463  -14.0584 C   0  0  0  0  0  0  0  0  0  0  0  0
   26.8847  -19.5021  -13.8247 C   0  0  1  0  0  0  0  0  0  0  0  0
   25.9241  -20.1560  -12.9319 C   0  0  0  0  0  0  0  0  0  0  0  0
   24.9760  -20.8259  -13.4859 O   0  0  0  0  0  0  0  0  0  0  0  0
   27.1906  -20.0124   -7.6389 C   0  0  0  0  0  0  0  0  0  0  0  0
   26.7791  -20.7558   -8.9085 C   0  0  0  0  0  0  0  0  0  0  0  0
   25.3718  -20.3371   -9.2223 C   0  0  2  0  0  0  0  0  0  0  0  0
   24.3688  -20.9600   -8.2841 C   0  0  0  0  0  0  0  0  0  0  0  0
   24.9615  -20.6590  -10.6381 C   0  0  2  0  0  0  0  0  0  0  0  0
   25.9561  -20.1095  -11.5419 N   0  0  0  0  0  0  0  0  0  0  0  0
   23.6015  -20.2330  -10.9893 C   0  0  0  0  0  0  0  0  0  0  0  0
   22.5832  -21.2262  -10.9281 O   0  0  0  0  0  0  0  0  0  0  0  0
   23.2454  -19.0906  -11.3371 O   0  0  0  0  0  0  0  0  0  0  0  0
  2  1  1  6
  2  3  1  0
  4  2  1  0
  4  5  1  1
  6  4  1  0
  6  8  1  0
  7  6  2  0
  8 12  1  0
  9  8  1  0
 10  9  1  0
 10 11  1  0
 12 11  1  0
 13 20  1  0
 12 13  1  6
 14 13  2  0
 16 15  1  0
 17 16  1  0
 17 18  1  1
 19 17  1  0
 19 20  1  6
 21 22  1  0
 21 19  1  0
 23 21  2  0
M  END
$$$$
