VPI.pdb
     RDKit          3D

 23 23  0  0  1  0  0  0  0  0999 V2000
   23.5491  -27.8289  -20.2485 C   0  0  0  0  0  0  0  0  0  0  0  0
   23.0339  -27.8205  -18.8211 C   0  0  2  0  0  0  0  0  0  0  0  0
   22.2029  -26.5556  -18.6423 C   0  0  0  0  0  0  0  0  0  0  0  0
   24.2486  -27.6905  -17.8964 C   0  0  2  0  0  0  0  0  0  0  0  0
   24.9551  -28.9545  -18.0448 N   0  0  0  0  0  0  0  0  0  0  0  0
   23.8429  -27.4658  -16.4857 C   0  0  0  0  0  0  0  0  0  0  0  0
   23.3405  -28.4199  -15.8447 O   0  0  0  0  0  0  0  0  0  0  0  0
   23.9997  -26.2191  -15.8294 N   0  0  0  0  0  0  0  0  0  0  0  0
   24.6496  -25.0756  -16.4784 C   0  0  0  0  0  0  0  0  0  0  0  0
   25.3771  -24.4464  -15.2881 C   0  0  0  0  0  0  0  0  0  0  0  0
   24.2297  -24.4505  -14.2712 C   0  0  0  0  0  0  0  0  0  0  0  0
   23.6069  -25.7844  -14.5103 C   0  0  1  0  0  0  0  0  0  0  0  0
   22.1643  -25.8632  -14.2646 C   0  0  0  0  0  0  0  0  0  0  0  0
   21.3927  -25.7758  -15.2901 O   0  0  0  0  0  0  0  0  0  0  0  0
   18.3983  -28.4033  -10.2552 C   0  0  0  0  0  0  0  0  0  0  0  0
   18.4660  -27.3227  -11.3331 C   0  0  0  0  0  0  0  0  0  0  0  0
   19.9166  -27.1355  -11.6723 C   0  0  2  0  0  0  0  0  0  0  0  0
   20.7393  -26.7537  -10.4675 C   0  0  0  0  0  0  0  0  0  0  0  0
   20.1430  -26.1027  -12.7487 C   0  0  2  0  0  0  0  0  0  0  0  0
   21.5674  -26.0233  -13.0183 N   0  0  0  0  0  0  0  0  0  0  0  0
   19.5617  -24.7861  -12.4607 C   0  0  0  0  0  0  0  0  0  0  0  0
   20.4693  -23.7501  -12.1001 O   0  0  0  0  0  0  0  0  0  0  0  0
   18.3541  -24.4809  -12.4983 O   0  0  0  0  0  0  0  0  0  0  0  0
  2  1  1  6
  2  3  1  0
  4  2  1  0
  4  5  1  1
  6  4  1  0
  6  8  1  0
  7  6  2  0
  8 12  1  0
  9  8  1  0
 10  9  1  0
 10 11  1  0
 12 11  1  0
 13 20  1  0
 12 13  1  6
 14 13  2  0
 16 15  1  0
 17 16  1  0
 17 18  1  1
 19 17  1  0
 19 20  1  1
 21 22  1  0
 21 19  1  0
 23 21  2  0
M  END
$$$$
