VPI.pdb
     RDKit          3D

 23 23  0  0  1  0  0  0  0  0999 V2000
   26.0010  -19.5420  -13.8609 C   0  0  0  0  0  0  0  0  0  0  0  0
   26.3988  -19.6958  -12.4045 C   0  0  2  0  0  0  0  0  0  0  0  0
   27.6091  -18.8013  -12.1640 C   0  0  0  0  0  0  0  0  0  0  0  0
   26.8666  -21.1414  -12.2075 C   0  0  2  0  0  0  0  0  0  0  0  0
   25.6921  -21.9474  -12.5076 N   0  0  0  0  0  0  0  0  0  0  0  0
   27.3408  -21.3808  -10.8208 C   0  0  0  0  0  0  0  0  0  0  0  0
   26.4900  -21.5460   -9.9140 O   0  0  0  0  0  0  0  0  0  0  0  0
   28.7147  -21.4324  -10.4758 N   0  0  0  0  0  0  0  0  0  0  0  0
   29.7738  -21.3350  -11.4858 C   0  0  0  0  0  0  0  0  0  0  0  0
   30.8140  -22.2945  -10.9034 C   0  0  0  0  0  0  0  0  0  0  0  0
   30.8195  -21.7970   -9.4531 C   0  0  0  0  0  0  0  0  0  0  0  0
   29.3678  -21.5712   -9.1961 C   0  0  1  0  0  0  0  0  0  0  0  0
   29.0516  -20.4986   -8.2490 C   0  0  0  0  0  0  0  0  0  0  0  0
   28.7663  -19.3471   -8.7464 O   0  0  0  0  0  0  0  0  0  0  0  0
   26.3655  -21.0273   -3.4130 C   0  0  0  0  0  0  0  0  0  0  0  0
   27.6974  -20.9417   -4.1564 C   0  0  0  0  0  0  0  0  0  0  0  0
   27.5776  -19.8111   -5.1370 C   0  0  2  0  0  0  0  0  0  0  0  0
   26.4650  -20.0333   -6.1305 C   0  0  0  0  0  0  0  0  0  0  0  0
   28.8528  -19.5546   -5.9016 C   0  0  2  0  0  0  0  0  0  0  0  0
   29.0361  -20.6263   -6.8639 N   0  0  0  0  0  0  0  0  0  0  0  0
   30.0389  -19.3606   -5.0591 C   0  0  0  0  0  0  0  0  0  0  0  0
   30.9964  -20.4142   -5.0484 O   0  0  0  0  0  0  0  0  0  0  0  0
   30.2947  -18.3680   -4.3504 O   0  0  0  0  0  0  0  0  0  0  0  0
  2  1  1  6
  2  3  1  0
  4  2  1  0
  4  5  1  1
  6  4  1  0
  6  8  1  0
  7  6  2  0
  8 12  1  0
  9  8  1  0
 10  9  1  0
 10 11  1  0
 12 11  1  0
 13 20  1  0
 12 13  1  1
 14 13  2  0
 16 15  1  0
 17 16  1  0
 17 18  1  6
 19 17  1  0
 19 20  1  6
 21 22  1  0
 21 19  1  0
 23 21  2  0
M  END
$$$$
