VPI.pdb
     RDKit          3D

 23 23  0  0  1  0  0  0  0  0999 V2000
   24.2006  -16.3561  -18.0935 C   0  0  0  0  0  0  0  0  0  0  0  0
   24.4731  -17.1535  -16.8314 C   0  0  2  0  0  0  0  0  0  0  0  0
   25.6046  -16.4564  -16.0854 C   0  0  0  0  0  0  0  0  0  0  0  0
   25.0015  -18.5258  -17.2615 C   0  0  2  0  0  0  0  0  0  0  0  0
   23.9393  -19.0816  -18.0871 N   0  0  0  0  0  0  0  0  0  0  0  0
   25.2828  -19.3968  -16.0921 C   0  0  0  0  0  0  0  0  0  0  0  0
   24.3167  -19.8426  -15.4276 O   0  0  0  0  0  0  0  0  0  0  0  0
   26.5967  -19.7489  -15.6935 N   0  0  0  0  0  0  0  0  0  0  0  0
   27.7824  -19.2527  -16.4001 C   0  0  0  0  0  0  0  0  0  0  0  0
   28.7046  -20.4699  -16.3016 C   0  0  0  0  0  0  0  0  0  0  0  0
   28.5351  -20.7842  -14.8105 C   0  0  0  0  0  0  0  0  0  0  0  0
   27.0705  -20.5825  -14.6146 C   0  0  1  0  0  0  0  0  0  0  0  0
   26.6674  -20.1177  -13.2845 C   0  0  0  0  0  0  0  0  0  0  0  0
   26.7471  -18.8536  -13.0599 O   0  0  0  0  0  0  0  0  0  0  0  0
   22.1670  -21.0296  -11.1305 C   0  0  0  0  0  0  0  0  0  0  0  0
   23.5152  -20.4421  -11.5441 C   0  0  0  0  0  0  0  0  0  0  0  0
   24.5245  -20.9166  -10.5389 C   0  0  2  0  0  0  0  0  0  0  0  0
   24.2204  -20.4206   -9.1476 C   0  0  0  0  0  0  0  0  0  0  0  0
   25.9375  -20.5179  -10.8870 C   0  0  2  0  0  0  0  0  0  0  0  0
   26.2090  -20.9300  -12.2525 N   0  0  0  0  0  0  0  0  0  0  0  0
   26.9561  -21.0068   -9.9502 C   0  0  0  0  0  0  0  0  0  0  0  0
   27.0881  -20.3001   -8.7212 O   0  0  0  0  0  0  0  0  0  0  0  0
   27.7193  -21.9772  -10.1197 O   0  0  0  0  0  0  0  0  0  0  0  0
  2  1  1  6
  2  3  1  0
  4  2  1  0
  4  5  1  6
  6  4  1  0
  6  8  1  0
  7  6  2  0
  8 12  1  0
  9  8  1  0
 10  9  1  0
 10 11  1  0
 12 11  1  0
 13 20  1  0
 12 13  1  1
 14 13  2  0
 16 15  1  0
 17 16  1  0
 17 18  1  1
 19 17  1  0
 19 20  1  6
 21 22  1  0
 21 19  1  0
 23 21  2  0
M  END
$$$$
