VPI.pdb
     RDKit          3D

 23 23  0  0  1  0  0  0  0  0999 V2000
   26.1883  -23.9390  -16.4886 C   0  0  0  0  0  0  0  0  0  0  0  0
   26.4706  -22.8136  -17.4668 C   0  0  2  0  0  0  0  0  0  0  0  0
   26.5677  -23.4301  -18.8573 C   0  0  0  0  0  0  0  0  0  0  0  0
   27.8555  -22.2510  -17.1308 C   0  0  2  0  0  0  0  0  0  0  0  0
   28.7415  -23.4043  -17.1954 N   0  0  0  0  0  0  0  0  0  0  0  0
   27.8829  -21.6290  -15.7827 C   0  0  0  0  0  0  0  0  0  0  0  0
   28.3454  -22.2918  -14.8234 O   0  0  0  0  0  0  0  0  0  0  0  0
   27.4102  -20.3164  -15.5314 N   0  0  0  0  0  0  0  0  0  0  0  0
   27.0813  -19.3876  -16.6178 C   0  0  0  0  0  0  0  0  0  0  0  0
   27.5376  -18.0604  -16.0077 C   0  0  0  0  0  0  0  0  0  0  0  0
   26.8882  -18.1916  -14.6250 C   0  0  0  0  0  0  0  0  0  0  0  0
   27.1491  -19.6220  -14.2932 C   0  0  1  0  0  0  0  0  0  0  0  0
   26.1411  -20.2708  -13.4501 C   0  0  0  0  0  0  0  0  0  0  0  0
   25.2770  -21.0162  -14.0436 O   0  0  0  0  0  0  0  0  0  0  0  0
   27.0124  -20.3336   -8.0309 C   0  0  0  0  0  0  0  0  0  0  0  0
   26.6465  -20.9657   -9.3727 C   0  0  0  0  0  0  0  0  0  0  0  0
   25.3283  -20.3779   -9.7866 C   0  0  2  0  0  0  0  0  0  0  0  0
   24.1919  -20.8598   -8.9203 C   0  0  0  0  0  0  0  0  0  0  0  0
   24.9810  -20.6622  -11.2271 C   0  0  2  0  0  0  0  0  0  0  0  0
   26.0454  -20.1446  -12.0681 N   0  0  0  0  0  0  0  0  0  0  0  0
   23.6614  -20.1724  -11.6431 C   0  0  0  0  0  0  0  0  0  0  0  0
   22.5721  -21.0804  -11.5172 O   0  0  0  0  0  0  0  0  0  0  0  0
   23.3955  -19.0425  -12.0966 O   0  0  0  0  0  0  0  0  0  0  0  0
  2  1  1  1
  2  3  1  0
  4  2  1  0
  4  5  1  1
  6  4  1  0
  6  8  1  0
  7  6  2  0
  8 12  1  0
  9  8  1  0
 10  9  1  0
 10 11  1  0
 12 11  1  0
 13 20  1  0
 12 13  1  6
 14 13  2  0
 16 15  1  0
 17 16  1  0
 17 18  1  1
 19 17  1  0
 19 20  1  6
 21 22  1  0
 21 19  1  0
 23 21  2  0
M  END
$$$$
