VPI.pdb
     RDKit          3D

 23 23  0  0  1  0  0  0  0  0999 V2000
   15.1824  -23.3079   -2.9601 C   0  0  0  0  0  0  0  0  0  0  0  0
   15.2963  -24.8204   -3.0084 C   0  0  2  0  0  0  0  0  0  0  0  0
   15.1492  -25.2438   -4.4651 C   0  0  0  0  0  0  0  0  0  0  0  0
   14.0931  -25.3949   -2.2535 C   0  0  2  0  0  0  0  0  0  0  0  0
   12.9440  -25.0276   -3.0682 N   0  0  0  0  0  0  0  0  0  0  0  0
   13.9826  -24.8289   -0.8850 C   0  0  0  0  0  0  0  0  0  0  0  0
   13.1643  -23.9001   -0.6822 O   0  0  0  0  0  0  0  0  0  0  0  0
   14.7610  -25.2936    0.2047 N   0  0  0  0  0  0  0  0  0  0  0  0
   15.6365  -26.4649    0.0908 C   0  0  0  0  0  0  0  0  0  0  0  0
   15.4779  -27.0774    1.4842 C   0  0  0  0  0  0  0  0  0  0  0  0
   15.6689  -25.8127    2.3296 C   0  0  0  0  0  0  0  0  0  0  0  0
   14.8946  -24.8006    1.5547 C   0  0  1  0  0  0  0  0  0  0  0  0
   15.3909  -23.4242    1.6373 C   0  0  0  0  0  0  0  0  0  0  0  0
   16.3180  -23.0882    0.8113 O   0  0  0  0  0  0  0  0  0  0  0  0
   12.3382  -19.1492    1.9065 C   0  0  0  0  0  0  0  0  0  0  0  0
   13.3571  -20.2716    1.7167 C   0  0  0  0  0  0  0  0  0  0  0  0
   14.3547  -20.1482    2.8320 C   0  0  2  0  0  0  0  0  0  0  0  0
   14.9318  -18.7584    2.9298 C   0  0  0  0  0  0  0  0  0  0  0  0
   15.4953  -21.1290    2.7155 C   0  0  2  0  0  0  0  0  0  0  0  0
   14.9420  -22.4589    2.5329 N   0  0  0  0  0  0  0  0  0  0  0  0
   16.4567  -21.0787    3.8234 C   0  0  0  0  0  0  0  0  0  0  0  0
   17.4061  -20.0180    3.8001 O   0  0  0  0  0  0  0  0  0  0  0  0
   16.5288  -21.8701    4.7833 O   0  0  0  0  0  0  0  0  0  0  0  0
  2  1  1  6
  2  3  1  0
  4  2  1  0
  4  5  1  6
  6  4  1  0
  6  8  1  0
  7  6  2  0
  8 12  1  0
  9  8  1  0
 10  9  1  0
 10 11  1  0
 12 11  1  0
 13 20  1  0
 12 13  1  6
 14 13  2  0
 16 15  1  0
 17 16  1  0
 17 18  1  6
 19 17  1  0
 19 20  1  1
 21 22  1  0
 21 19  1  0
 23 21  2  0
M  END
$$$$
