VPI.pdb
     RDKit          3D

 23 23  0  0  1  0  0  0  0  0999 V2000
   21.5788  -18.3329  -14.9476 C   0  0  0  0  0  0  0  0  0  0  0  0
   22.6070  -18.5306  -16.0462 C   0  0  2  0  0  0  0  0  0  0  0  0
   22.0424  -17.9092  -17.3181 C   0  0  0  0  0  0  0  0  0  0  0  0
   22.7230  -20.0371  -16.2994 C   0  0  2  0  0  0  0  0  0  0  0  0
   21.3590  -20.4654  -16.5738 N   0  0  0  0  0  0  0  0  0  0  0  0
   23.2820  -20.7501  -15.1228 C   0  0  0  0  0  0  0  0  0  0  0  0
   22.4925  -21.1752  -14.2457 O   0  0  0  0  0  0  0  0  0  0  0  0
   24.6708  -20.9733  -14.9472 N   0  0  0  0  0  0  0  0  0  0  0  0
   25.6476  -20.6549  -15.9939 C   0  0  0  0  0  0  0  0  0  0  0  0
   26.6500  -21.7960  -15.8069 C   0  0  0  0  0  0  0  0  0  0  0  0
   26.8155  -21.7279  -14.2841 C   0  0  0  0  0  0  0  0  0  0  0  0
   25.4134  -21.5028  -13.8284 C   0  0  1  0  0  0  0  0  0  0  0  0
   25.2652  -20.7241  -12.5958 C   0  0  0  0  0  0  0  0  0  0  0  0
   25.1926  -19.4458  -12.7191 O   0  0  0  0  0  0  0  0  0  0  0  0
   22.8932  -20.9995   -7.1099 C   0  0  0  0  0  0  0  0  0  0  0  0
   24.2037  -20.5492   -7.7533 C   0  0  0  0  0  0  0  0  0  0  0  0
   24.2944  -21.2363   -9.0851 C   0  0  2  0  0  0  0  0  0  0  0  0
   24.7973  -22.6528   -8.9629 C   0  0  0  0  0  0  0  0  0  0  0  0
   25.1726  -20.5037  -10.0692 C   0  0  2  0  0  0  0  0  0  0  0  0
   25.1978  -21.2546  -11.3116 N   0  0  0  0  0  0  0  0  0  0  0  0
   26.5229  -20.2070   -9.5764 C   0  0  0  0  0  0  0  0  0  0  0  0
   26.6415  -19.1509   -8.6290 O   0  0  0  0  0  0  0  0  0  0  0  0
   27.5782  -20.7840   -9.9026 O   0  0  0  0  0  0  0  0  0  0  0  0
  2  1  1  1
  2  3  1  0
  4  2  1  0
  4  5  1  1
  6  4  1  0
  6  8  1  0
  7  6  2  0
  8 12  1  0
  9  8  1  0
 10  9  1  0
 10 11  1  0
 12 11  1  0
 13 20  1  0
 12 13  1  1
 14 13  2  0
 16 15  1  0
 17 16  1  0
 17 18  1  1
 19 17  1  0
 19 20  1  6
 21 22  1  0
 21 19  1  0
 23 21  2  0
M  END
$$$$
