VPI.pdb
     RDKit          3D

 23 23  0  0  1  0  0  0  0  0999 V2000
   21.8693  -19.3253  -13.8058 C   0  0  0  0  0  0  0  0  0  0  0  0
   22.9214  -19.3182  -14.8994 C   0  0  2  0  0  0  0  0  0  0  0  0
   22.2281  -18.9253  -16.1985 C   0  0  0  0  0  0  0  0  0  0  0  0
   23.4111  -20.7595  -15.0735 C   0  0  2  0  0  0  0  0  0  0  0  0
   22.2028  -21.5226  -15.3504 N   0  0  0  0  0  0  0  0  0  0  0  0
   24.0923  -21.2590  -13.8522 C   0  0  0  0  0  0  0  0  0  0  0  0
   23.4059  -21.8305  -12.9713 O   0  0  0  0  0  0  0  0  0  0  0  0
   25.4866  -21.1201  -13.6377 N   0  0  0  0  0  0  0  0  0  0  0  0
   26.3885  -20.6274  -14.6842 C   0  0  0  0  0  0  0  0  0  0  0  0
   27.6349  -21.4714  -14.4085 C   0  0  0  0  0  0  0  0  0  0  0  0
   27.7281  -21.2799  -12.8902 C   0  0  0  0  0  0  0  0  0  0  0  0
   26.2996  -21.3855  -12.4750 C   0  0  1  0  0  0  0  0  0  0  0  0
   25.9229  -20.6009  -11.2959 C   0  0  0  0  0  0  0  0  0  0  0  0
   25.5060  -19.4017  -11.5025 O   0  0  0  0  0  0  0  0  0  0  0  0
   23.0191  -21.0020   -6.1637 C   0  0  0  0  0  0  0  0  0  0  0  0
   24.1180  -20.1775   -6.8319 C   0  0  0  0  0  0  0  0  0  0  0  0
   24.5834  -20.9581   -8.0270 C   0  0  2  0  0  0  0  0  0  0  0  0
   25.0575  -22.3407   -7.6557 C   0  0  0  0  0  0  0  0  0  0  0  0
   25.6857  -20.2673   -8.7912 C   0  0  2  0  0  0  0  0  0  0  0  0
   25.9809  -21.0474   -9.9796 N   0  0  0  0  0  0  0  0  0  0  0  0
   26.8909  -19.9875   -8.0014 C   0  0  0  0  0  0  0  0  0  0  0  0
   26.8148  -18.9070   -7.0774 O   0  0  0  0  0  0  0  0  0  0  0  0
   27.9757  -20.5982   -8.0567 O   0  0  0  0  0  0  0  0  0  0  0  0
  2  1  1  1
  2  3  1  0
  4  2  1  0
  4  5  1  1
  6  4  1  0
  6  8  1  0
  7  6  2  0
  8 12  1  0
  9  8  1  0
 10  9  1  0
 10 11  1  0
 12 11  1  0
 13 20  1  0
 12 13  1  1
 14 13  2  0
 16 15  1  0
 17 16  1  0
 17 18  1  1
 19 17  1  0
 19 20  1  6
 21 22  1  0
 21 19  1  0
 23 21  2  0
M  END
$$$$
