VPI.pdb
     RDKit          3D

 23 23  0  0  1  0  0  0  0  0999 V2000
   26.3148  -24.2660  -17.1585 C   0  0  0  0  0  0  0  0  0  0  0  0
   25.3842  -23.4003  -16.3294 C   0  0  2  0  0  0  0  0  0  0  0  0
   23.9848  -23.5404  -16.9168 C   0  0  0  0  0  0  0  0  0  0  0  0
   25.8099  -21.9429  -16.5345 C   0  0  2  0  0  0  0  0  0  0  0  0
   27.2147  -21.9179  -16.1537 N   0  0  0  0  0  0  0  0  0  0  0  0
   25.0107  -21.0142  -15.6954 C   0  0  0  0  0  0  0  0  0  0  0  0
   25.1840  -21.0253  -14.4531 O   0  0  0  0  0  0  0  0  0  0  0  0
   24.0600  -20.1130  -16.2371 N   0  0  0  0  0  0  0  0  0  0  0  0
   23.8869  -19.9426  -17.6835 C   0  0  0  0  0  0  0  0  0  0  0  0
   23.5844  -18.4445  -17.7611 C   0  0  0  0  0  0  0  0  0  0  0  0
   22.5331  -18.3502  -16.6491 C   0  0  0  0  0  0  0  0  0  0  0  0
   23.1149  -19.2308  -15.5954 C   0  0  1  0  0  0  0  0  0  0  0  0
   22.1453  -19.9207  -14.7400 C   0  0  0  0  0  0  0  0  0  0  0  0
   21.6987  -21.0516  -15.1597 O   0  0  0  0  0  0  0  0  0  0  0  0
   22.4987  -19.9550   -9.3464 C   0  0  0  0  0  0  0  0  0  0  0  0
   22.3189  -20.3256  -10.8175 C   0  0  0  0  0  0  0  0  0  0  0  0
   20.9820  -19.7899  -11.2420 C   0  0  2  0  0  0  0  0  0  0  0  0
   19.8576  -20.3228  -10.3899 C   0  0  0  0  0  0  0  0  0  0  0  0
   20.6612  -20.0801  -12.6874 C   0  0  2  0  0  0  0  0  0  0  0  0
   21.6726  -19.4520  -13.5185 N   0  0  0  0  0  0  0  0  0  0  0  0
   19.3017  -19.7069  -13.0959 C   0  0  0  0  0  0  0  0  0  0  0  0
   19.1228  -18.3858  -13.5956 O   0  0  0  0  0  0  0  0  0  0  0  0
   18.2861  -20.4275  -13.0496 O   0  0  0  0  0  0  0  0  0  0  0  0
  2  1  1  6
  2  3  1  0
  4  2  1  0
  4  5  1  1
  6  4  1  0
  6  8  1  0
  7  6  2  0
  8 12  1  0
  9  8  1  0
 10  9  1  0
 10 11  1  0
 12 11  1  0
 13 20  1  0
 12 13  1  6
 14 13  2  0
 16 15  1  0
 17 16  1  0
 17 18  1  1
 19 17  1  0
 19 20  1  6
 21 22  1  0
 21 19  1  0
 23 21  2  0
M  END
$$$$
