VPI.pdb
     RDKit          3D

 23 23  0  0  1  0  0  0  0  0999 V2000
   25.9108  -19.7704  -13.4258 C   0  0  0  0  0  0  0  0  0  0  0  0
   26.4235  -19.8334  -11.9989 C   0  0  2  0  0  0  0  0  0  0  0  0
   27.6449  -18.9259  -11.9114 C   0  0  0  0  0  0  0  0  0  0  0  0
   26.9123  -21.2640  -11.7502 C   0  0  2  0  0  0  0  0  0  0  0  0
   25.7333  -22.0920  -11.9591 N   0  0  0  0  0  0  0  0  0  0  0  0
   27.4470  -21.4301  -10.3748 C   0  0  0  0  0  0  0  0  0  0  0  0
   26.6369  -21.5363   -9.4230 O   0  0  0  0  0  0  0  0  0  0  0  0
   28.8347  -21.4757  -10.0893 N   0  0  0  0  0  0  0  0  0  0  0  0
   29.8491  -21.3350  -11.1393 C   0  0  0  0  0  0  0  0  0  0  0  0
   30.9232  -22.2992  -10.6306 C   0  0  0  0  0  0  0  0  0  0  0  0
   30.9845  -21.8458   -9.1672 C   0  0  0  0  0  0  0  0  0  0  0  0
   29.5426  -21.6453   -8.8430 C   0  0  1  0  0  0  0  0  0  0  0  0
   29.2551  -20.6056   -7.8509 C   0  0  0  0  0  0  0  0  0  0  0  0
   28.6818  -19.5359   -8.2771 O   0  0  0  0  0  0  0  0  0  0  0  0
   26.1321  -18.8798   -3.5967 C   0  0  0  0  0  0  0  0  0  0  0  0
   27.5505  -18.5973   -4.0890 C   0  0  0  0  0  0  0  0  0  0  0  0
   27.9024  -19.6908   -5.0558 C   0  0  2  0  0  0  0  0  0  0  0  0
   27.6281  -21.0618   -4.4906 C   0  0  0  0  0  0  0  0  0  0  0  0
   29.3420  -19.6415   -5.5049 C   0  0  2  0  0  0  0  0  0  0  0  0
   29.5516  -20.6835   -6.4940 N   0  0  0  0  0  0  0  0  0  0  0  0
   30.3223  -19.7104   -4.4147 C   0  0  0  0  0  0  0  0  0  0  0  0
   30.8635  -20.9939   -4.1199 O   0  0  0  0  0  0  0  0  0  0  0  0
   30.7299  -18.7605   -3.7187 O   0  0  0  0  0  0  0  0  0  0  0  0
  2  1  1  6
  2  3  1  0
  4  2  1  0
  4  5  1  1
  6  4  1  0
  6  8  1  0
  7  6  2  0
  8 12  1  0
  9  8  1  0
 10  9  1  0
 10 11  1  0
 12 11  1  0
 13 20  1  0
 12 13  1  1
 14 13  2  0
 16 15  1  0
 17 16  1  0
 17 18  1  1
 19 17  1  0
 19 20  1  6
 21 22  1  0
 21 19  1  0
 23 21  2  0
M  END
$$$$
