VPI.pdb
     RDKit          3D

 23 23  0  0  1  0  0  0  0  0999 V2000
   20.2375  -16.3697  -19.1649 C   0  0  0  0  0  0  0  0  0  0  0  0
   20.2555  -15.0894  -18.3503 C   0  0  2  0  0  0  0  0  0  0  0  0
   20.7416  -13.9718  -19.2656 C   0  0  0  0  0  0  0  0  0  0  0  0
   21.3118  -15.2588  -17.2537 C   0  0  2  0  0  0  0  0  0  0  0  0
   20.8089  -16.3488  -16.4302 N   0  0  0  0  0  0  0  0  0  0  0  0
   21.4787  -14.0175  -16.4559 C   0  0  0  0  0  0  0  0  0  0  0  0
   20.5147  -13.6137  -15.7622 O   0  0  0  0  0  0  0  0  0  0  0  0
   22.6818  -13.2679  -16.4421 N   0  0  0  0  0  0  0  0  0  0  0  0
   23.8616  -13.6777  -17.2111 C   0  0  0  0  0  0  0  0  0  0  0  0
   24.9839  -13.2556  -16.2603 C   0  0  0  0  0  0  0  0  0  0  0  0
   24.4992  -11.8405  -15.9240 C   0  0  0  0  0  0  0  0  0  0  0  0
   23.0312  -12.0455  -15.7588 C   0  0  1  0  0  0  0  0  0  0  0  0
   22.1875  -10.9025  -16.1186 C   0  0  0  0  0  0  0  0  0  0  0  0
   21.7764  -10.8418  -17.3359 O   0  0  0  0  0  0  0  0  0  0  0  0
   17.2045   -8.4004  -15.1691 C   0  0  0  0  0  0  0  0  0  0  0  0
   18.5981   -7.9429  -15.5966 C   0  0  0  0  0  0  0  0  0  0  0  0
   19.5559   -9.0258  -15.1915 C   0  0  2  0  0  0  0  0  0  0  0  0
   19.5227   -9.2907  -13.7073 C   0  0  0  0  0  0  0  0  0  0  0  0
   20.9814   -8.7330  -15.5899 C   0  0  2  0  0  0  0  0  0  0  0  0
   21.7992   -9.8846  -15.2536 N   0  0  0  0  0  0  0  0  0  0  0  0
   21.5254   -7.4885  -15.0336 C   0  0  0  0  0  0  0  0  0  0  0  0
   21.1797   -6.2816  -15.7051 O   0  0  0  0  0  0  0  0  0  0  0  0
   22.2605   -7.3787  -14.0333 O   0  0  0  0  0  0  0  0  0  0  0  0
  2  1  1  6
  2  3  1  0
  4  2  1  0
  4  5  1  1
  6  4  1  0
  6  8  1  0
  7  6  2  0
  8 12  1  0
  9  8  1  0
 10  9  1  0
 10 11  1  0
 12 11  1  0
 13 20  1  0
 12 13  1  6
 14 13  2  0
 16 15  1  0
 17 16  1  0
 17 18  1  1
 19 17  1  0
 19 20  1  1
 21 22  1  0
 21 19  1  0
 23 21  2  0
M  END
$$$$
