VPI.pdb
     RDKit          3D

 23 23  0  0  1  0  0  0  0  0999 V2000
   23.7990  -19.6511  -11.5215 C   0  0  0  0  0  0  0  0  0  0  0  0
   24.8234  -19.7512  -12.6367 C   0  0  2  0  0  0  0  0  0  0  0  0
   24.0846  -19.5547  -13.9552 C   0  0  0  0  0  0  0  0  0  0  0  0
   25.3619  -21.1856  -12.6368 C   0  0  2  0  0  0  0  0  0  0  0  0
   24.1879  -22.0143  -12.8692 N   0  0  0  0  0  0  0  0  0  0  0  0
   26.0124  -21.5277  -11.3464 C   0  0  0  0  0  0  0  0  0  0  0  0
   25.3189  -22.0551  -10.4440 O   0  0  0  0  0  0  0  0  0  0  0  0
   27.3853  -21.2858  -11.0892 N   0  0  0  0  0  0  0  0  0  0  0  0
   28.3059  -20.8392  -12.1400 C   0  0  0  0  0  0  0  0  0  0  0  0
   29.5834  -21.5774  -11.7340 C   0  0  0  0  0  0  0  0  0  0  0  0
   29.5950  -21.2403  -10.2384 C   0  0  0  0  0  0  0  0  0  0  0  0
   28.1568  -21.3925   -9.8740 C   0  0  1  0  0  0  0  0  0  0  0  0
   27.6824  -20.5258   -8.7917 C   0  0  0  0  0  0  0  0  0  0  0  0
   26.9169  -19.5464   -9.1223 O   0  0  0  0  0  0  0  0  0  0  0  0
   29.1735  -21.4059   -3.2825 C   0  0  0  0  0  0  0  0  0  0  0  0
   29.2585  -20.7404   -4.6550 C   0  0  0  0  0  0  0  0  0  0  0  0
   27.8543  -20.3983   -5.0616 C   0  0  2  0  0  0  0  0  0  0  0  0
   26.9637  -21.6142   -5.1146 C   0  0  0  0  0  0  0  0  0  0  0  0
   27.7797  -19.6965   -6.3951 C   0  0  2  0  0  0  0  0  0  0  0  0
   27.9928  -20.6773   -7.4442 N   0  0  0  0  0  0  0  0  0  0  0  0
   28.6782  -18.5434   -6.5271 C   0  0  0  0  0  0  0  0  0  0  0  0
   28.3402  -17.3791   -5.7806 O   0  0  0  0  0  0  0  0  0  0  0  0
   29.7074  -18.4775   -7.2266 O   0  0  0  0  0  0  0  0  0  0  0  0
  2  1  1  1
  2  3  1  0
  4  2  1  0
  4  5  1  1
  6  4  1  0
  6  8  1  0
  7  6  2  0
  8 12  1  0
  9  8  1  0
 10  9  1  0
 10 11  1  0
 12 11  1  0
 13 20  1  0
 12 13  1  1
 14 13  2  0
 16 15  1  0
 17 16  1  0
 17 18  1  6
 19 17  1  0
 19 20  1  6
 21 22  1  0
 21 19  1  0
 23 21  2  0
M  END
$$$$
