VPI.pdb
     RDKit          3D

 23 23  0  0  1  0  0  0  0  0999 V2000
   18.4279  -22.1236  -17.2566 C   0  0  0  0  0  0  0  0  0  0  0  0
   19.5388  -22.0834  -16.2235 C   0  0  2  0  0  0  0  0  0  0  0  0
   20.7205  -21.3534  -16.8508 C   0  0  0  0  0  0  0  0  0  0  0  0
   19.9871  -23.5275  -15.9763 C   0  0  2  0  0  0  0  0  0  0  0  0
   18.8256  -24.1714  -15.3802 N   0  0  0  0  0  0  0  0  0  0  0  0
   21.1599  -23.5902  -15.0676 C   0  0  0  0  0  0  0  0  0  0  0  0
   20.9871  -23.3651  -13.8457 O   0  0  0  0  0  0  0  0  0  0  0  0
   22.4682  -23.8953  -15.5200 N   0  0  0  0  0  0  0  0  0  0  0  0
   22.7419  -24.2679  -16.9119 C   0  0  0  0  0  0  0  0  0  0  0  0
   23.8512  -25.3041  -16.7180 C   0  0  0  0  0  0  0  0  0  0  0  0
   24.7395  -24.5296  -15.7374 C   0  0  0  0  0  0  0  0  0  0  0  0
   23.7330  -23.9146  -14.8248 C   0  0  1  0  0  0  0  0  0  0  0  0
   24.1103  -22.6234  -14.2435 C   0  0  0  0  0  0  0  0  0  0  0  0
   23.6481  -21.5686  -14.8166 O   0  0  0  0  0  0  0  0  0  0  0  0
   25.5088  -20.3176   -8.8367 C   0  0  0  0  0  0  0  0  0  0  0  0
   25.5861  -20.0252  -10.3342 C   0  0  0  0  0  0  0  0  0  0  0  0
   25.3286  -21.3221  -11.0455 C   0  0  2  0  0  0  0  0  0  0  0  0
   26.3257  -22.3882  -10.6666 C   0  0  0  0  0  0  0  0  0  0  0  0
   25.3307  -21.1823  -12.5479 C   0  0  2  0  0  0  0  0  0  0  0  0
   24.9240  -22.4494  -13.1286 N   0  0  0  0  0  0  0  0  0  0  0  0
   26.5959  -20.6974  -13.1122 C   0  0  0  0  0  0  0  0  0  0  0  0
   26.7970  -19.2880  -13.1164 O   0  0  0  0  0  0  0  0  0  0  0  0
   27.5132  -21.3927  -13.5897 O   0  0  0  0  0  0  0  0  0  0  0  0
  2  1  1  6
  2  3  1  0
  4  2  1  0
  4  5  1  1
  6  4  1  0
  6  8  1  0
  7  6  2  0
  8 12  1  0
  9  8  1  0
 10  9  1  0
 10 11  1  0
 12 11  1  0
 13 20  1  0
 12 13  1  6
 14 13  2  0
 16 15  1  0
 17 16  1  0
 17 18  1  6
 19 17  1  0
 19 20  1  6
 21 22  1  0
 21 19  1  0
 23 21  2  0
M  END
$$$$
