AVS.pdb
     RDKit          3D

 19 18  0  0  1  0  0  0  0  0999 V2000
   13.9583  -13.4280  -16.6159 C   0  0  0  0  0  0  0  0  0  0  0  0
   15.2945  -14.0621  -16.3125 C   0  0  2  0  0  0  0  0  0  0  0  0
   15.1669  -15.2092  -15.4391 N   0  0  0  0  0  0  0  0  0  0  0  0
   16.2101  -13.0485  -15.7179 C   0  0  0  0  0  0  0  0  0  0  0  0
   16.1365  -12.8182  -14.4835 O   0  0  0  0  0  0  0  0  0  0  0  0
   20.4780  -10.6720  -16.0032 C   0  0  0  0  0  0  0  0  0  0  0  0
   19.4843  -11.7301  -16.4119 C   0  0  1  0  0  0  0  0  0  0  0  0
   19.9112  -13.0604  -15.8348 C   0  0  0  0  0  0  0  0  0  0  0  0
   18.0869  -11.3617  -15.9564 C   0  0  2  0  0  0  0  0  0  0  0  0
   17.1673  -12.3253  -16.4801 N   0  0  0  0  0  0  0  0  0  0  0  0
   17.7413   -9.9730  -16.2402 C   0  0  0  0  0  0  0  0  0  0  0  0
   17.6433   -9.6179  -17.4441 O   0  0  0  0  0  0  0  0  0  0  0  0
   15.0367   -7.7273  -14.6771 O   0  0  0  0  0  0  0  0  0  0  0  0
   16.2646   -7.0622  -14.4785 C   0  0  0  0  0  0  0  0  0  0  0  0
   17.1959   -7.5994  -15.5616 C   0  0  2  0  0  0  0  0  0  0  0  0
   17.5047   -8.9817  -15.2530 N   0  0  0  0  0  0  0  0  0  0  0  0
   18.3965   -6.7660  -15.6918 C   0  0  0  0  0  0  0  0  0  0  0  0
   19.5094   -7.2136  -15.3282 O   0  0  0  0  0  0  0  0  0  0  0  0
   18.3453   -5.4837  -16.2094 O   0  0  0  0  0  0  0  0  0  0  0  0
  2  3  1  0
  2  1  1  1
  4  2  1  0
  5  4  2  0
  7  6  1  1
  7  8  1  0
  7  9  1  0
  9 10  1  6
 10  4  1  0
 11  9  1  0
 11 16  1  0
 12 11  2  0
 13 14  1  0
 15 14  1  1
 16 15  1  0
 17 15  1  0
 18 17  2  0
 19 17  1  0
M  END
$$$$
