AVS.pdb
     RDKit          3D

 19 18  0  0  1  0  0  0  0  0999 V2000
   17.0700   -9.6964  -17.9834 C   0  0  0  0  0  0  0  0  0  0  0  0
   17.8370  -10.7632  -17.2394 C   0  0  2  0  0  0  0  0  0  0  0  0
   16.9601  -11.6624  -16.5201 N   0  0  0  0  0  0  0  0  0  0  0  0
   18.8134  -10.1274  -16.3111 C   0  0  0  0  0  0  0  0  0  0  0  0
   18.3961   -9.6695  -15.2164 O   0  0  0  0  0  0  0  0  0  0  0  0
   23.5039   -9.9492  -14.8659 C   0  0  0  0  0  0  0  0  0  0  0  0
   22.4031  -10.4396  -15.7723 C   0  0  1  0  0  0  0  0  0  0  0  0
   22.0346  -11.8534  -15.3846 C   0  0  0  0  0  0  0  0  0  0  0  0
   21.1982   -9.5235  -15.7013 C   0  0  2  0  0  0  0  0  0  0  0  0
   20.1996  -10.0121  -16.6027 N   0  0  0  0  0  0  0  0  0  0  0  0
   21.5401   -8.1159  -15.8759 C   0  0  0  0  0  0  0  0  0  0  0  0
   21.6539   -7.6719  -17.0485 O   0  0  0  0  0  0  0  0  0  0  0  0
   20.6697   -3.8600  -15.6399 O   0  0  0  0  0  0  0  0  0  0  0  0
   20.5602   -5.2661  -15.6226 C   0  0  0  0  0  0  0  0  0  0  0  0
   21.8612   -5.7658  -15.0007 C   0  0  2  0  0  0  0  0  0  0  0  0
   21.7562   -7.1996  -14.8144 N   0  0  0  0  0  0  0  0  0  0  0  0
   22.1630   -5.0530  -13.7543 C   0  0  0  0  0  0  0  0  0  0  0  0
   21.8196   -5.5462  -12.6544 O   0  0  0  0  0  0  0  0  0  0  0  0
   22.8232   -3.8369  -13.7475 O   0  0  0  0  0  0  0  0  0  0  0  0
  2  3  1  0
  2  1  1  1
  4  2  1  0
  5  4  2  0
  7  6  1  1
  7  8  1  0
  7  9  1  0
  9 10  1  6
 10  4  1  0
 11  9  1  0
 11 16  1  0
 12 11  2  0
 13 14  1  0
 15 14  1  1
 16 15  1  0
 17 15  1  0
 18 17  2  0
 19 17  1  0
M  END
$$$$
