AVS.pdb
     RDKit          3D

 19 18  0  0  1  0  0  0  0  0999 V2000
   24.8171  -11.0591  -15.1792 C   0  0  0  0  0  0  0  0  0  0  0  0
   23.3588  -11.3596  -15.4300 C   0  0  2  0  0  0  0  0  0  0  0  0
   23.1802  -12.4156  -16.4036 N   0  0  0  0  0  0  0  0  0  0  0  0
   22.6563  -10.1200  -15.8649 C   0  0  0  0  0  0  0  0  0  0  0  0
   22.7898   -9.7358  -17.0551 O   0  0  0  0  0  0  0  0  0  0  0  0
   19.5845   -9.5432  -16.7551 C   0  0  0  0  0  0  0  0  0  0  0  0
   19.6795   -8.5361  -15.6368 C   0  0  1  0  0  0  0  0  0  0  0  0
   19.0261   -9.1067  -14.3989 C   0  0  0  0  0  0  0  0  0  0  0  0
   21.1235   -8.1634  -15.3683 C   0  0  2  0  0  0  0  0  0  0  0  0
   21.8386   -9.3463  -14.9972 N   0  0  0  0  0  0  0  0  0  0  0  0
   21.2620   -7.0501  -14.4357 C   0  0  0  0  0  0  0  0  0  0  0  0
   22.0190   -7.1976  -13.4406 O   0  0  0  0  0  0  0  0  0  0  0  0
   23.1232   -3.2231  -14.3888 O   0  0  0  0  0  0  0  0  0  0  0  0
   22.5724   -4.4373  -14.8489 C   0  0  0  0  0  0  0  0  0  0  0  0
   21.1994   -4.5346  -14.1899 C   0  0  2  0  0  0  0  0  0  0  0  0
   20.6019   -5.8008  -14.5657 N   0  0  0  0  0  0  0  0  0  0  0  0
   20.3583   -3.3848  -14.5411 C   0  0  0  0  0  0  0  0  0  0  0  0
   20.3586   -2.3653  -13.8119 O   0  0  0  0  0  0  0  0  0  0  0  0
   19.5518   -3.3837  -15.6655 O   0  0  0  0  0  0  0  0  0  0  0  0
  2  3  1  0
  2  1  1  6
  4  2  1  0
  5  4  2  0
  7  6  1  6
  7  8  1  0
  7  9  1  0
  9 10  1  1
 10  4  1  0
 11  9  1  0
 11 16  1  0
 12 11  2  0
 13 14  1  0
 15 14  1  6
 16 15  1  0
 17 15  1  0
 18 17  2  0
 19 17  1  0
M  END
$$$$
