AVS.pdb
     RDKit          3D

 19 18  0  0  1  0  0  0  0  0999 V2000
   16.7594   -9.5241  -17.4396 C   0  0  0  0  0  0  0  0  0  0  0  0
   17.5730  -10.6549  -16.8575 C   0  0  2  0  0  0  0  0  0  0  0  0
   16.7365  -11.7057  -16.3177 N   0  0  0  0  0  0  0  0  0  0  0  0
   18.4938  -10.1274  -15.8119 C   0  0  0  0  0  0  0  0  0  0  0  0
   18.0298   -9.8733  -14.6707 O   0  0  0  0  0  0  0  0  0  0  0  0
   23.0884   -9.4012  -14.2065 C   0  0  0  0  0  0  0  0  0  0  0  0
   22.0537  -10.0850  -15.0642 C   0  0  1  0  0  0  0  0  0  0  0  0
   21.7922  -11.4695  -14.5167 C   0  0  0  0  0  0  0  0  0  0  0  0
   20.7768   -9.2710  -15.1201 C   0  0  2  0  0  0  0  0  0  0  0  0
   19.8772   -9.8959  -16.0413 N   0  0  0  0  0  0  0  0  0  0  0  0
   21.0140   -7.8528  -15.3674 C   0  0  0  0  0  0  0  0  0  0  0  0
   21.4685   -7.5123  -16.4910 O   0  0  0  0  0  0  0  0  0  0  0  0
   20.1523   -3.2738  -14.7337 O   0  0  0  0  0  0  0  0  0  0  0  0
   19.8168   -4.6006  -14.3923 C   0  0  0  0  0  0  0  0  0  0  0  0
   21.0715   -5.4215  -14.6767 C   0  0  2  0  0  0  0  0  0  0  0  0
   20.7690   -6.8174  -14.4288 N   0  0  0  0  0  0  0  0  0  0  0  0
   22.2118   -4.9401  -13.8887 C   0  0  0  0  0  0  0  0  0  0  0  0
   22.4590   -5.4520  -12.7716 O   0  0  0  0  0  0  0  0  0  0  0  0
   23.0378   -3.9259  -14.3400 O   0  0  0  0  0  0  0  0  0  0  0  0
  2  3  1  0
  2  1  1  1
  4  2  1  0
  5  4  2  0
  7  6  1  1
  7  8  1  0
  7  9  1  0
  9 10  1  6
 10  4  1  0
 11  9  1  0
 11 16  1  0
 12 11  2  0
 13 14  1  0
 15 14  1  1
 16 15  1  0
 17 15  1  0
 18 17  2  0
 19 17  1  0
M  END
$$$$
