AVS.pdb
     RDKit          3D

 19 18  0  0  1  0  0  0  0  0999 V2000
   15.8486  -10.2330  -14.8298 C   0  0  0  0  0  0  0  0  0  0  0  0
   16.7530  -11.0149  -15.7519 C   0  0  2  0  0  0  0  0  0  0  0  0
   16.6452  -12.4424  -15.5384 N   0  0  0  0  0  0  0  0  0  0  0  0
   18.1619  -10.5629  -15.5789 C   0  0  0  0  0  0  0  0  0  0  0  0
   18.8389  -11.0436  -14.6340 O   0  0  0  0  0  0  0  0  0  0  0  0
   22.2046   -8.5667  -17.4741 C   0  0  0  0  0  0  0  0  0  0  0  0
   20.8947   -9.3124  -17.5166 C   0  0  1  0  0  0  0  0  0  0  0  0
   21.1694  -10.7864  -17.7087 C   0  0  0  0  0  0  0  0  0  0  0  0
   20.0939   -9.0675  -16.2537 C   0  0  2  0  0  0  0  0  0  0  0  0
   18.7819   -9.6108  -16.4328 N   0  0  0  0  0  0  0  0  0  0  0  0
   20.1224   -7.6746  -15.8206 C   0  0  0  0  0  0  0  0  0  0  0  0
   19.3969   -6.8463  -16.4310 O   0  0  0  0  0  0  0  0  0  0  0  0
   21.0869   -6.4409  -12.1617 O   0  0  0  0  0  0  0  0  0  0  0  0
   21.7825   -5.6496  -13.0995 C   0  0  0  0  0  0  0  0  0  0  0  0
   20.9921   -5.7733  -14.3991 C   0  0  2  0  0  0  0  0  0  0  0  0
   20.9135   -7.1769  -14.7531 N   0  0  0  0  0  0  0  0  0  0  0  0
   21.5844   -4.9532  -15.4618 C   0  0  0  0  0  0  0  0  0  0  0  0
   22.4358   -5.4525  -16.2344 O   0  0  0  0  0  0  0  0  0  0  0  0
   21.2326   -3.6276  -15.6460 O   0  0  0  0  0  0  0  0  0  0  0  0
  2  3  1  0
  2  1  1  1
  4  2  1  0
  5  4  2  0
  7  6  1  1
  7  8  1  0
  7  9  1  0
  9 10  1  6
 10  4  1  0
 11  9  1  0
 11 16  1  0
 12 11  2  0
 13 14  1  0
 15 14  1  1
 16 15  1  0
 17 15  1  0
 18 17  2  0
 19 17  1  0
M  END
$$$$
