AVS.pdb
     RDKit          3D

 19 18  0  0  1  0  0  0  0  0999 V2000
   17.6013  -10.4247  -18.5365 C   0  0  0  0  0  0  0  0  0  0  0  0
   18.4440  -11.4055  -17.7569 C   0  0  2  0  0  0  0  0  0  0  0  0
   17.6597  -12.5071  -17.2407 N   0  0  0  0  0  0  0  0  0  0  0  0
   19.1475  -10.6979  -16.6506 C   0  0  0  0  0  0  0  0  0  0  0  0
   18.4991  -10.4016  -15.6143 O   0  0  0  0  0  0  0  0  0  0  0  0
   23.4632   -9.8541  -14.4642 C   0  0  0  0  0  0  0  0  0  0  0  0
   22.5812  -10.5031  -15.5008 C   0  0  1  0  0  0  0  0  0  0  0  0
   22.3445  -11.9460  -15.1173 C   0  0  0  0  0  0  0  0  0  0  0  0
   21.2712   -9.7541  -15.6391 C   0  0  2  0  0  0  0  0  0  0  0  0
   20.5216  -10.3393  -16.7087 N   0  0  0  0  0  0  0  0  0  0  0  0
   21.4473   -8.3092  -15.7380 C   0  0  0  0  0  0  0  0  0  0  0  0
   22.0289   -7.8485  -16.7551 O   0  0  0  0  0  0  0  0  0  0  0  0
   20.1350   -3.8814  -15.0443 O   0  0  0  0  0  0  0  0  0  0  0  0
   19.8575   -5.2586  -14.9189 C   0  0  0  0  0  0  0  0  0  0  0  0
   21.2205   -5.9438  -14.8746 C   0  0  2  0  0  0  0  0  0  0  0  0
   21.0086   -7.3737  -14.7655 N   0  0  0  0  0  0  0  0  0  0  0  0
   22.0493   -5.4093  -13.7882 C   0  0  0  0  0  0  0  0  0  0  0  0
   22.0603   -5.9805  -12.6726 O   0  0  0  0  0  0  0  0  0  0  0  0
   22.8318   -4.2798  -13.9518 O   0  0  0  0  0  0  0  0  0  0  0  0
  2  3  1  0
  2  1  1  1
  4  2  1  0
  5  4  2  0
  7  6  1  1
  7  8  1  0
  7  9  1  0
  9 10  1  6
 10  4  1  0
 11  9  1  0
 11 16  1  0
 12 11  2  0
 13 14  1  0
 15 14  1  1
 16 15  1  0
 17 15  1  0
 18 17  2  0
 19 17  1  0
M  END
$$$$
