AVS.pdb
     RDKit          3D

 19 18  0  0  1  0  0  0  0  0999 V2000
   24.3796  -11.7927  -15.2222 C   0  0  0  0  0  0  0  0  0  0  0  0
   23.2446  -12.1150  -16.1642 C   0  0  2  0  0  0  0  0  0  0  0  0
   23.6837  -12.9033  -17.2960 N   0  0  0  0  0  0  0  0  0  0  0  0
   22.5961  -10.8544  -16.6222 C   0  0  0  0  0  0  0  0  0  0  0  0
   23.1712  -10.1644  -17.5026 O   0  0  0  0  0  0  0  0  0  0  0  0
   18.5132   -8.2385  -17.2002 C   0  0  0  0  0  0  0  0  0  0  0  0
   19.3242   -9.4953  -17.0095 C   0  0  1  0  0  0  0  0  0  0  0  0
   19.4027  -10.2389  -18.3232 C   0  0  0  0  0  0  0  0  0  0  0  0
   20.7078   -9.1694  -16.4843 C   0  0  2  0  0  0  0  0  0  0  0  0
   21.3536  -10.3908  -16.1109 N   0  0  0  0  0  0  0  0  0  0  0  0
   20.6977   -8.1437  -15.4468 C   0  0  0  0  0  0  0  0  0  0  0  0
   20.2004   -8.4342  -14.3272 O   0  0  0  0  0  0  0  0  0  0  0  0
   22.5169   -4.3188  -13.3631 O   0  0  0  0  0  0  0  0  0  0  0  0
   22.6073   -5.2839  -14.3877 C   0  0  0  0  0  0  0  0  0  0  0  0
   21.1922   -5.8301  -14.5555 C   0  0  2  0  0  0  0  0  0  0  0  0
   21.2109   -6.8304  -15.6045 N   0  0  0  0  0  0  0  0  0  0  0  0
   20.2334   -4.7510  -14.8184 C   0  0  0  0  0  0  0  0  0  0  0  0
   20.0472   -4.3540  -15.9926 O   0  0  0  0  0  0  0  0  0  0  0  0
   19.5156   -4.1453  -13.8022 O   0  0  0  0  0  0  0  0  0  0  0  0
  2  3  1  0
  2  1  1  1
  4  2  1  0
  5  4  2  0
  7  6  1  6
  7  8  1  0
  7  9  1  0
  9 10  1  1
 10  4  1  0
 11  9  1  0
 11 16  1  0
 12 11  2  0
 13 14  1  0
 15 14  1  6
 16 15  1  0
 17 15  1  0
 18 17  2  0
 19 17  1  0
M  END
$$$$
