AVS.pdb
     RDKit          3D

 19 18  0  0  1  0  0  0  0  0999 V2000
   24.2002   -9.8716  -18.7206 C   0  0  0  0  0  0  0  0  0  0  0  0
   22.9644  -10.6188  -18.2799 C   0  0  2  0  0  0  0  0  0  0  0  0
   22.4056  -11.4231  -19.3457 N   0  0  0  0  0  0  0  0  0  0  0  0
   21.9517   -9.6569  -17.7616 C   0  0  0  0  0  0  0  0  0  0  0  0
   21.3143   -8.9495  -18.5835 O   0  0  0  0  0  0  0  0  0  0  0  0
   18.4796   -8.6989  -14.6096 C   0  0  0  0  0  0  0  0  0  0  0  0
   19.5621   -9.5359  -15.2432 C   0  0  1  0  0  0  0  0  0  0  0  0
   18.9473  -10.4231  -16.3014 C   0  0  0  0  0  0  0  0  0  0  0  0
   20.6475   -8.6575  -15.8318 C   0  0  2  0  0  0  0  0  0  0  0  0
   21.6689   -9.4983  -16.3778 N   0  0  0  0  0  0  0  0  0  0  0  0
   21.1276   -7.6419  -14.9009 C   0  0  0  0  0  0  0  0  0  0  0  0
   22.1326   -7.9115  -14.1921 O   0  0  0  0  0  0  0  0  0  0  0  0
   23.1519   -3.8771  -14.4970 O   0  0  0  0  0  0  0  0  0  0  0  0
   22.5497   -5.0485  -15.0015 C   0  0  0  0  0  0  0  0  0  0  0  0
   21.2582   -5.2147  -14.2055 C   0  0  2  0  0  0  0  0  0  0  0  0
   20.5426   -6.3604  -14.7316 N   0  0  0  0  0  0  0  0  0  0  0  0
   20.4567   -3.9860  -14.2298 C   0  0  0  0  0  0  0  0  0  0  0  0
   19.6903   -3.7597  -15.1954 O   0  0  0  0  0  0  0  0  0  0  0  0
   20.5163   -3.0525  -13.2101 O   0  0  0  0  0  0  0  0  0  0  0  0
  2  3  1  0
  2  1  1  6
  4  2  1  0
  5  4  2  0
  7  6  1  6
  7  8  1  0
  7  9  1  0
  9 10  1  1
 10  4  1  0
 11  9  1  0
 11 16  1  0
 12 11  2  0
 13 14  1  0
 15 14  1  6
 16 15  1  0
 17 15  1  0
 18 17  2  0
 19 17  1  0
M  END
$$$$
