AVS.pdb
     RDKit          3D

 19 18  0  0  1  0  0  0  0  0999 V2000
   18.4974  -10.0553  -19.0012 C   0  0  0  0  0  0  0  0  0  0  0  0
   18.9980  -11.2188  -18.1794 C   0  0  2  0  0  0  0  0  0  0  0  0
   17.9641  -12.2043  -17.9447 N   0  0  0  0  0  0  0  0  0  0  0  0
   19.5532  -10.7226  -16.8890 C   0  0  0  0  0  0  0  0  0  0  0  0
   18.7588  -10.4678  -15.9477 O   0  0  0  0  0  0  0  0  0  0  0  0
   23.3408  -10.1106  -13.8373 C   0  0  0  0  0  0  0  0  0  0  0  0
   22.6448  -10.7661  -15.0034 C   0  0  1  0  0  0  0  0  0  0  0  0
   22.1324  -12.1225  -14.5763 C   0  0  0  0  0  0  0  0  0  0  0  0
   21.5168   -9.8944  -15.5170 C   0  0  2  0  0  0  0  0  0  0  0  0
   20.9428  -10.5221  -16.6681 N   0  0  0  0  0  0  0  0  0  0  0  0
   21.9140   -8.5047  -15.7156 C   0  0  0  0  0  0  0  0  0  0  0  0
   22.8466   -8.2620  -16.5257 O   0  0  0  0  0  0  0  0  0  0  0  0
   20.1005   -5.7599  -16.9338 O   0  0  0  0  0  0  0  0  0  0  0  0
   20.5025   -5.2166  -15.6958 C   0  0  0  0  0  0  0  0  0  0  0  0
   21.7311   -6.0209  -15.2805 C   0  0  2  0  0  0  0  0  0  0  0  0
   21.3235   -7.3943  -15.0587 N   0  0  0  0  0  0  0  0  0  0  0  0
   22.3839   -5.4273  -14.1082 C   0  0  0  0  0  0  0  0  0  0  0  0
   22.2300   -5.9471  -12.9780 O   0  0  0  0  0  0  0  0  0  0  0  0
   23.1760   -4.2967  -14.2051 O   0  0  0  0  0  0  0  0  0  0  0  0
  2  3  1  0
  2  1  1  1
  4  2  1  0
  5  4  2  0
  7  6  1  1
  7  8  1  0
  7  9  1  0
  9 10  1  6
 10  4  1  0
 11  9  1  0
 11 16  1  0
 12 11  2  0
 13 14  1  0
 15 14  1  1
 16 15  1  0
 17 15  1  0
 18 17  2  0
 19 17  1  0
M  END
$$$$
