AVS.pdb
     RDKit          3D

 19 18  0  0  1  0  0  0  0  0999 V2000
   26.1370  -11.3937  -16.6318 C   0  0  0  0  0  0  0  0  0  0  0  0
   24.7799  -12.0266  -16.4387 C   0  0  2  0  0  0  0  0  0  0  0  0
   24.5938  -13.1849  -17.2864 N   0  0  0  0  0  0  0  0  0  0  0  0
   23.7129  -11.0170  -16.6872 C   0  0  0  0  0  0  0  0  0  0  0  0
   23.3463  -10.8045  -17.8715 O   0  0  0  0  0  0  0  0  0  0  0  0
   20.8111  -10.2370  -13.9466 C   0  0  0  0  0  0  0  0  0  0  0  0
   20.7577   -9.7896  -15.3856 C   0  0  1  0  0  0  0  0  0  0  0  0
   19.6781   -8.7428  -15.5396 C   0  0  0  0  0  0  0  0  0  0  0  0
   22.1028   -9.2553  -15.8341 C   0  0  2  0  0  0  0  0  0  0  0  0
   23.0857  -10.2786  -15.6472 N   0  0  0  0  0  0  0  0  0  0  0  0
   22.4379   -7.9710  -15.2283 C   0  0  0  0  0  0  0  0  0  0  0  0
   22.8549   -7.9638  -14.0404 O   0  0  0  0  0  0  0  0  0  0  0  0
   22.1573   -4.4991  -17.3345 O   0  0  0  0  0  0  0  0  0  0  0  0
   23.2291   -4.5432  -16.4187 C   0  0  0  0  0  0  0  0  0  0  0  0
   22.7635   -5.4647  -15.2948 C   0  0  2  0  0  0  0  0  0  0  0  0
   22.3285   -6.7166  -15.8822 N   0  0  0  0  0  0  0  0  0  0  0  0
   21.7211   -4.8276  -14.4822 C   0  0  0  0  0  0  0  0  0  0  0  0
   22.0063   -3.8424  -13.7617 O   0  0  0  0  0  0  0  0  0  0  0  0
   20.4137   -5.2809  -14.4815 O   0  0  0  0  0  0  0  0  0  0  0  0
  2  3  1  0
  2  1  1  6
  4  2  1  0
  5  4  2  0
  7  6  1  1
  7  8  1  0
  7  9  1  0
  9 10  1  1
 10  4  1  0
 11  9  1  0
 11 16  1  0
 12 11  2  0
 13 14  1  0
 15 14  1  6
 16 15  1  0
 17 15  1  0
 18 17  2  0
 19 17  1  0
M  END
$$$$
