AVS.pdb
     RDKit          3D

 19 18  0  0  1  0  0  0  0  0999 V2000
   27.2517  -11.6312  -15.5794 C   0  0  0  0  0  0  0  0  0  0  0  0
   26.4188  -11.9985  -16.7840 C   0  0  2  0  0  0  0  0  0  0  0  0
   27.2269  -12.5184  -17.8665 N   0  0  0  0  0  0  0  0  0  0  0  0
   25.6354  -10.8144  -17.2352 C   0  0  0  0  0  0  0  0  0  0  0  0
   26.2021   -9.9547  -17.9577 O   0  0  0  0  0  0  0  0  0  0  0  0
   21.3105   -8.9015  -18.3712 C   0  0  0  0  0  0  0  0  0  0  0  0
   22.3104  -10.0011  -18.1162 C   0  0  1  0  0  0  0  0  0  0  0  0
   22.7831  -10.5580  -19.4396 C   0  0  0  0  0  0  0  0  0  0  0  0
   23.4752   -9.4899  -17.2928 C   0  0  2  0  0  0  0  0  0  0  0  0
   24.2729  -10.6071  -16.8879 N   0  0  0  0  0  0  0  0  0  0  0  0
   23.0627   -8.6097  -16.2048 C   0  0  0  0  0  0  0  0  0  0  0  0
   22.5209   -9.1274  -15.1931 O   0  0  0  0  0  0  0  0  0  0  0  0
   23.0005   -4.2337  -14.1605 O   0  0  0  0  0  0  0  0  0  0  0  0
   23.3841   -4.9655  -15.3036 C   0  0  0  0  0  0  0  0  0  0  0  0
   22.7409   -6.3397  -15.1394 C   0  0  2  0  0  0  0  0  0  0  0  0
   23.2272   -7.2005  -16.1996 N   0  0  0  0  0  0  0  0  0  0  0  0
   21.2771   -6.2421  -15.1152 C   0  0  0  0  0  0  0  0  0  0  0  0
   20.6423   -6.1147  -16.1885 O   0  0  0  0  0  0  0  0  0  0  0  0
   20.5595   -6.2861  -13.9329 O   0  0  0  0  0  0  0  0  0  0  0  0
  2  3  1  0
  2  1  1  1
  4  2  1  0
  5  4  2  0
  7  6  1  6
  7  8  1  0
  7  9  1  0
  9 10  1  1
 10  4  1  0
 11  9  1  0
 11 16  1  0
 12 11  2  0
 13 14  1  0
 15 14  1  6
 16 15  1  0
 17 15  1  0
 18 17  2  0
 19 17  1  0
M  END
$$$$
