AVS.pdb
     RDKit          3D

 19 18  0  0  1  0  0  0  0  0999 V2000
   18.1539  -12.1588  -14.5092 C   0  0  0  0  0  0  0  0  0  0  0  0
   18.3182  -12.1190  -16.0095 C   0  0  2  0  0  0  0  0  0  0  0  0
   18.9643  -13.3102  -16.5181 N   0  0  0  0  0  0  0  0  0  0  0  0
   19.0802  -10.9003  -16.4011 C   0  0  0  0  0  0  0  0  0  0  0  0
   20.3262  -10.9883  -16.5487 O   0  0  0  0  0  0  0  0  0  0  0  0
   18.9123   -6.4361  -18.4689 C   0  0  0  0  0  0  0  0  0  0  0  0
   18.3987   -7.8237  -18.1777 C   0  0  1  0  0  0  0  0  0  0  0  0
   18.5319   -8.6727  -19.4213 C   0  0  0  0  0  0  0  0  0  0  0  0
   19.1461   -8.4417  -17.0134 C   0  0  2  0  0  0  0  0  0  0  0  0
   18.4658   -9.6370  -16.6173 N   0  0  0  0  0  0  0  0  0  0  0  0
   19.3980   -7.4969  -15.9305 C   0  0  0  0  0  0  0  0  0  0  0  0
   18.4216   -7.1175  -15.2322 O   0  0  0  0  0  0  0  0  0  0  0  0
   22.5502   -4.9925  -13.2350 O   0  0  0  0  0  0  0  0  0  0  0  0
   22.3999   -5.8213  -14.3664 C   0  0  0  0  0  0  0  0  0  0  0  0
   20.8956   -6.0264  -14.5211 C   0  0  2  0  0  0  0  0  0  0  0  0
   20.6724   -6.9676  -15.6008 N   0  0  0  0  0  0  0  0  0  0  0  0
   20.2036   -4.7496  -14.7301 C   0  0  0  0  0  0  0  0  0  0  0  0
   20.2663   -4.1810  -15.8454 O   0  0  0  0  0  0  0  0  0  0  0  0
   19.4724   -4.1399  -13.7260 O   0  0  0  0  0  0  0  0  0  0  0  0
  2  3  1  0
  2  1  1  1
  4  2  1  0
  5  4  2  0
  7  6  1  6
  7  8  1  0
  7  9  1  0
  9 10  1  1
 10  4  1  0
 11  9  1  0
 11 16  1  0
 12 11  2  0
 13 14  1  0
 15 14  1  6
 16 15  1  0
 17 15  1  0
 18 17  2  0
 19 17  1  0
M  END
$$$$
