AVS.pdb
     RDKit          3D

 19 18  0  0  1  0  0  0  0  0999 V2000
   17.3949  -10.4214  -18.4010 C   0  0  0  0  0  0  0  0  0  0  0  0
   18.1382  -11.3926  -17.5156 C   0  0  2  0  0  0  0  0  0  0  0  0
   17.2577  -12.3847  -16.9363 N   0  0  0  0  0  0  0  0  0  0  0  0
   18.8644  -10.6481  -16.4489 C   0  0  0  0  0  0  0  0  0  0  0  0
   18.2262  -10.2743  -15.4315 O   0  0  0  0  0  0  0  0  0  0  0  0
   23.1275  -10.5621  -16.5275 C   0  0  0  0  0  0  0  0  0  0  0  0
   22.2805  -10.5684  -15.2800 C   0  0  1  0  0  0  0  0  0  0  0  0
   23.0986  -10.0431  -14.1226 C   0  0  0  0  0  0  0  0  0  0  0  0
   21.0241   -9.7447  -15.4774 C   0  0  2  0  0  0  0  0  0  0  0  0
   20.2494  -10.3379  -16.5245 N   0  0  0  0  0  0  0  0  0  0  0  0
   21.2956   -8.3219  -15.6518 C   0  0  0  0  0  0  0  0  0  0  0  0
   21.7339   -7.9315  -16.7657 O   0  0  0  0  0  0  0  0  0  0  0  0
   20.4821   -3.8449  -15.3436 O   0  0  0  0  0  0  0  0  0  0  0  0
   20.1114   -5.1934  -15.1607 C   0  0  0  0  0  0  0  0  0  0  0  0
   21.4090   -5.9301  -14.8403 C   0  0  2  0  0  0  0  0  0  0  0  0
   21.1016   -7.3342  -14.6519 N   0  0  0  0  0  0  0  0  0  0  0  0
   22.0846   -5.3373  -13.6806 C   0  0  0  0  0  0  0  0  0  0  0  0
   21.9201   -5.8336  -12.5414 O   0  0  0  0  0  0  0  0  0  0  0  0
   22.9098   -4.2329  -13.7993 O   0  0  0  0  0  0  0  0  0  0  0  0
  2  3  1  0
  2  1  1  1
  4  2  1  0
  5  4  2  0
  7  6  1  6
  7  8  1  0
  7  9  1  0
  9 10  1  6
 10  4  1  0
 11  9  1  0
 11 16  1  0
 12 11  2  0
 13 14  1  0
 15 14  1  1
 16 15  1  0
 17 15  1  0
 18 17  2  0
 19 17  1  0
M  END
$$$$
