AVS.pdb
     RDKit          3D

 19 18  0  0  1  0  0  0  0  0999 V2000
   17.9656   -9.7738  -13.1777 C   0  0  0  0  0  0  0  0  0  0  0  0
   17.0356  -10.2555  -12.0901 C   0  0  2  0  0  0  0  0  0  0  0  0
   16.2439  -11.3906  -12.5141 N   0  0  0  0  0  0  0  0  0  0  0  0
   16.1559   -9.1376  -11.6474 C   0  0  0  0  0  0  0  0  0  0  0  0
   15.1472   -8.8511  -12.3421 O   0  0  0  0  0  0  0  0  0  0  0  0
   14.9073   -6.0399   -7.9897 C   0  0  0  0  0  0  0  0  0  0  0  0
   15.4470   -7.3358   -8.5402 C   0  0  1  0  0  0  0  0  0  0  0  0
   14.5056   -8.4604   -8.1739 C   0  0  0  0  0  0  0  0  0  0  0  0
   15.6327   -7.2478  -10.0415 C   0  0  2  0  0  0  0  0  0  0  0  0
   16.4013   -8.3753  -10.4732 N   0  0  0  0  0  0  0  0  0  0  0  0
   16.1495   -5.9552  -10.4781 C   0  0  0  0  0  0  0  0  0  0  0  0
   17.3382   -5.6599  -10.1865 O   0  0  0  0  0  0  0  0  0  0  0  0
   16.4581   -2.5510  -13.6545 O   0  0  0  0  0  0  0  0  0  0  0  0
   15.8656   -3.7604  -13.2355 C   0  0  0  0  0  0  0  0  0  0  0  0
   15.9703   -3.7563  -11.7130 C   0  0  2  0  0  0  0  0  0  0  0  0
   15.4074   -4.9955  -11.2139 N   0  0  0  0  0  0  0  0  0  0  0  0
   15.3263   -2.5696  -11.1389 C   0  0  0  0  0  0  0  0  0  0  0  0
   14.1048   -2.5964  -10.8586 O   0  0  0  0  0  0  0  0  0  0  0  0
   16.0281   -1.4030  -10.8912 O   0  0  0  0  0  0  0  0  0  0  0  0
  2  3  1  0
  2  1  1  6
  4  2  1  0
  5  4  2  0
  7  6  1  6
  7  8  1  0
  7  9  1  0
  9 10  1  1
 10  4  1  0
 11  9  1  0
 11 16  1  0
 12 11  2  0
 13 14  1  0
 15 14  1  6
 16 15  1  0
 17 15  1  0
 18 17  2  0
 19 17  1  0
M  END
$$$$
