AVS.pdb
     RDKit          3D

 19 18  0  0  1  0  0  0  0  0999 V2000
   17.1572   -9.8468  -17.4378 C   0  0  0  0  0  0  0  0  0  0  0  0
   17.9294  -10.9712  -16.7904 C   0  0  2  0  0  0  0  0  0  0  0  0
   17.0664  -11.8732  -16.0578 N   0  0  0  0  0  0  0  0  0  0  0  0
   18.9824  -10.4111  -15.8977 C   0  0  0  0  0  0  0  0  0  0  0  0
   18.6704  -10.0918  -14.7217 O   0  0  0  0  0  0  0  0  0  0  0  0
   23.7033   -9.8921  -14.7491 C   0  0  0  0  0  0  0  0  0  0  0  0
   22.6040  -10.4609  -15.6103 C   0  0  1  0  0  0  0  0  0  0  0  0
   22.3188  -11.8806  -15.1766 C   0  0  0  0  0  0  0  0  0  0  0  0
   21.3566   -9.6047  -15.5271 C   0  0  2  0  0  0  0  0  0  0  0  0
   20.3286  -10.2186  -16.3112 N   0  0  0  0  0  0  0  0  0  0  0  0
   21.6052   -8.2015  -15.8400 C   0  0  0  0  0  0  0  0  0  0  0  0
   21.5400   -7.8393  -17.0440 O   0  0  0  0  0  0  0  0  0  0  0  0
   20.5222   -4.0136  -15.8370 O   0  0  0  0  0  0  0  0  0  0  0  0
   20.4722   -5.3965  -15.5643 C   0  0  0  0  0  0  0  0  0  0  0  0
   21.8938   -5.7822  -15.1652 C   0  0  2  0  0  0  0  0  0  0  0  0
   21.9180   -7.2035  -14.8812 N   0  0  0  0  0  0  0  0  0  0  0  0
   22.3684   -4.9710  -14.0385 C   0  0  0  0  0  0  0  0  0  0  0  0
   22.1912   -5.3702  -12.8636 O   0  0  0  0  0  0  0  0  0  0  0  0
   23.0147   -3.7621  -14.2273 O   0  0  0  0  0  0  0  0  0  0  0  0
  2  3  1  0
  2  1  1  1
  4  2  1  0
  5  4  2  0
  7  6  1  1
  7  8  1  0
  7  9  1  0
  9 10  1  6
 10  4  1  0
 11  9  1  0
 11 16  1  0
 12 11  2  0
 13 14  1  0
 15 14  1  1
 16 15  1  0
 17 15  1  0
 18 17  2  0
 19 17  1  0
M  END
$$$$
