QQM.pdb
     RDKit          3D

 27 26  0  0  1  0  0  0  0  0999 V2000
   10.8768  -10.1687   -8.9218 N   0  0  0  0  0  0  0  0  0  0  0  0
   11.4426   -8.9749   -8.3813 C   0  0  0  0  0  0  0  0  0  0  0  0
   10.6618   -8.1977   -7.7622 O   0  0  0  0  0  0  0  0  0  0  0  0
   12.9058   -8.6551   -8.5410 C   0  0  0  0  0  0  0  0  0  0  0  0
   13.5794   -9.7854   -9.2455 C   0  0  0  0  0  0  0  0  0  0  0  0
   13.3774   -9.8463  -10.7187 C   0  0  2  0  0  0  0  0  0  0  0  0
   12.6756  -11.1078  -10.9860 N   0  0  0  0  0  0  0  0  0  0  0  0
   14.6165   -9.7539  -11.5216 C   0  0  0  0  0  0  0  0  0  0  0  0
   15.3228  -10.7707  -11.7311 O   0  0  0  0  0  0  0  0  0  0  0  0
   15.5483   -6.9472  -16.7614 N   0  0  0  0  0  0  0  0  0  0  0  0
   16.8924   -7.2432  -16.4371 C   0  0  0  0  0  0  0  0  0  0  0  0
   17.7825   -7.0477  -17.2853 O   0  0  0  0  0  0  0  0  0  0  0  0
   17.2389   -7.7780  -15.1087 C   0  0  0  0  0  0  0  0  0  0  0  0
   16.0021   -7.9006  -14.2859 C   0  0  0  0  0  0  0  0  0  0  0  0
   16.2725   -8.4262  -12.8916 C   0  0  2  0  0  0  0  0  0  0  0  0
   15.0806   -8.5267  -12.0991 N   0  0  0  0  0  0  0  0  0  0  0  0
   17.2508   -7.5752  -12.1834 C   0  0  0  0  0  0  0  0  0  0  0  0
   16.8881   -6.4862  -11.6894 O   0  0  0  0  0  0  0  0  0  0  0  0
   24.3562   -8.0574   -8.7473 C   0  0  0  0  0  0  0  0  0  0  0  0
   22.9493   -8.7160   -9.5762 S   0  0  0  0  0  0  0  0  0  0  0  0
   21.8271   -7.5240  -10.2651 C   0  0  0  0  0  0  0  0  0  0  0  0
   20.5836   -8.1369  -10.8150 C   0  0  0  0  0  0  0  0  0  0  0  0
   19.6380   -7.1622  -11.4305 C   0  0  2  0  0  0  0  0  0  0  0  0
   18.5881   -7.9925  -12.0661 N   0  0  0  0  0  0  0  0  0  0  0  0
   20.2888   -6.3500  -12.4870 C   0  0  0  0  0  0  0  0  0  0  0  0
   20.3629   -5.0864  -12.2837 O   0  0  0  0  0  0  0  0  0  0  0  0
   20.8047   -6.8453  -13.6413 O   0  0  0  0  0  0  0  0  0  0  0  0
  2  1  1  0
  3  2  2  0
  4  2  1  0
  5  4  1  0
  6  5  1  0
  6  8  1  0
  6  7  1  1
  8  9  2  0
 11 12  2  0
 11 10  1  0
 13 11  1  0
 14 13  1  0
 15 14  1  6
 16  8  1  0
 16 15  1  0
 17 15  1  0
 17 18  2  0
 20 19  1  0
 20 21  1  0
 21 22  1  0
 23 22  1  6
 23 24  1  0
 24 17  1  0
 25 27  1  0
 25 23  1  0
 26 25  2  0
M  END
$$$$
