QQM.pdb
     RDKit          3D

 27 26  0  0  1  0  0  0  0  0999 V2000
   17.4853  -11.2425  -18.8496 N   0  0  0  0  0  0  0  0  0  0  0  0
   16.4443  -12.2074  -18.6989 C   0  0  0  0  0  0  0  0  0  0  0  0
   16.4277  -13.1682  -19.5196 O   0  0  0  0  0  0  0  0  0  0  0  0
   15.4110  -12.0866  -17.6097 C   0  0  0  0  0  0  0  0  0  0  0  0
   15.6337  -10.8136  -16.8632 C   0  0  0  0  0  0  0  0  0  0  0  0
   16.5387  -10.9006  -15.6849 C   0  0  2  0  0  0  0  0  0  0  0  0
   15.8586  -11.7579  -14.7062 N   0  0  0  0  0  0  0  0  0  0  0  0
   16.9017   -9.5996  -15.0812 C   0  0  0  0  0  0  0  0  0  0  0  0
   16.2039   -9.1003  -14.1646 O   0  0  0  0  0  0  0  0  0  0  0  0
   22.5696   -6.9185  -14.9495 N   0  0  0  0  0  0  0  0  0  0  0  0
   21.7705   -5.9058  -14.3705 C   0  0  0  0  0  0  0  0  0  0  0  0
   22.3167   -4.8885  -13.9047 O   0  0  0  0  0  0  0  0  0  0  0  0
   20.3053   -6.0505  -14.3177 C   0  0  0  0  0  0  0  0  0  0  0  0
   19.9144   -7.3571  -14.9192 C   0  0  0  0  0  0  0  0  0  0  0  0
   18.4175   -7.5860  -14.9077 C   0  0  2  0  0  0  0  0  0  0  0  0
   18.0470   -8.8424  -15.4935 N   0  0  0  0  0  0  0  0  0  0  0  0
   17.7082   -6.4986  -15.6128 C   0  0  0  0  0  0  0  0  0  0  0  0
   17.7915   -6.4026  -16.8559 O   0  0  0  0  0  0  0  0  0  0  0  0
   10.9936   -6.1190  -15.4745 C   0  0  0  0  0  0  0  0  0  0  0  0
   12.2614   -5.1295  -14.7579 S   0  0  0  0  0  0  0  0  0  0  0  0
   13.8380   -5.1791  -15.5742 C   0  0  0  0  0  0  0  0  0  0  0  0
   14.8929   -4.4009  -14.8629 C   0  0  0  0  0  0  0  0  0  0  0  0
   16.2315   -4.4379  -15.5184 C   0  0  2  0  0  0  0  0  0  0  0  0
   16.9403   -5.5739  -14.8837 N   0  0  0  0  0  0  0  0  0  0  0  0
   17.0102   -3.2028  -15.2586 C   0  0  0  0  0  0  0  0  0  0  0  0
   16.5381   -2.1093  -15.7327 O   0  0  0  0  0  0  0  0  0  0  0  0
   18.1751   -3.1501  -14.5626 O   0  0  0  0  0  0  0  0  0  0  0  0
  2  1  1  0
  3  2  2  0
  4  2  1  0
  5  4  1  0
  6  5  1  0
  6  8  1  0
  6  7  1  1
  8  9  2  0
 11 12  2  0
 11 10  1  0
 13 11  1  0
 14 13  1  0
 15 14  1  6
 16  8  1  0
 16 15  1  0
 17 15  1  0
 17 18  2  0
 20 19  1  0
 20 21  1  0
 21 22  1  0
 23 22  1  1
 23 24  1  0
 24 17  1  0
 25 27  1  0
 25 23  1  0
 26 25  2  0
M  END
$$$$
