QQM.pdb
     RDKit          3D

 27 26  0  0  1  0  0  0  0  0999 V2000
   25.6475  -27.0102  -17.7803 N   0  0  0  0  0  0  0  0  0  0  0  0
   26.8718  -27.7038  -18.0202 C   0  0  0  0  0  0  0  0  0  0  0  0
   26.8270  -28.6956  -18.8019 O   0  0  0  0  0  0  0  0  0  0  0  0
   28.1608  -27.2728  -17.3709 C   0  0  0  0  0  0  0  0  0  0  0  0
   27.8954  -26.0983  -16.4891 C   0  0  0  0  0  0  0  0  0  0  0  0
   28.1806  -24.7630  -17.0813 C   0  0  2  0  0  0  0  0  0  0  0  0
   29.5212  -24.8531  -17.6729 N   0  0  0  0  0  0  0  0  0  0  0  0
   28.1000  -23.6309  -16.1323 C   0  0  0  0  0  0  0  0  0  0  0  0
   29.1146  -23.2529  -15.4964 O   0  0  0  0  0  0  0  0  0  0  0  0
   26.2225  -18.1036  -16.7164 N   0  0  0  0  0  0  0  0  0  0  0  0
   27.4621  -18.7426  -16.9498 C   0  0  0  0  0  0  0  0  0  0  0  0
   28.3128  -18.1822  -17.6655 O   0  0  0  0  0  0  0  0  0  0  0  0
   27.7468  -20.0591  -16.3527 C   0  0  0  0  0  0  0  0  0  0  0  0
   26.5768  -20.4983  -15.5403 C   0  0  0  0  0  0  0  0  0  0  0  0
   26.7763  -21.8604  -14.9094 C   0  0  2  0  0  0  0  0  0  0  0  0
   26.8871  -22.9086  -15.8830 N   0  0  0  0  0  0  0  0  0  0  0  0
   25.6741  -22.1820  -13.9796 C   0  0  0  0  0  0  0  0  0  0  0  0
   25.5262  -23.3527  -13.5686 O   0  0  0  0  0  0  0  0  0  0  0  0
   26.2888  -20.4066   -7.1201 C   0  0  0  0  0  0  0  0  0  0  0  0
   26.5427  -20.3575   -8.8617 S   0  0  0  0  0  0  0  0  0  0  0  0
   25.1157  -20.6979   -9.8629 C   0  0  0  0  0  0  0  0  0  0  0  0
   25.4230  -20.7643  -11.3209 C   0  0  0  0  0  0  0  0  0  0  0  0
   24.2516  -21.0958  -12.1817 C   0  0  2  0  0  0  0  0  0  0  0  0
   24.7939  -21.1700  -13.5587 N   0  0  0  0  0  0  0  0  0  0  0  0
   23.2194  -20.0315  -12.1471 C   0  0  0  0  0  0  0  0  0  0  0  0
   23.4576  -18.9708  -12.8264 O   0  0  0  0  0  0  0  0  0  0  0  0
   22.0540  -20.1009  -11.4536 O   0  0  0  0  0  0  0  0  0  0  0  0
  2  1  1  0
  3  2  2  0
  4  2  1  0
  5  4  1  0
  6  5  1  0
  6  8  1  0
  6  7  1  1
  8  9  2  0
 11 12  2  0
 11 10  1  0
 13 11  1  0
 14 13  1  0
 15 14  1  6
 16  8  1  0
 16 15  1  0
 17 15  1  0
 17 18  2  0
 20 19  1  0
 20 21  1  0
 21 22  1  0
 23 22  1  1
 23 24  1  0
 24 17  1  0
 25 27  1  0
 25 23  1  0
 26 25  2  0
M  END
$$$$
