QQM.pdb
     RDKit          3D

 27 26  0  0  1  0  0  0  0  0999 V2000
   15.0580   -5.8782   -8.1960 N   0  0  0  0  0  0  0  0  0  0  0  0
   13.6897   -6.2263   -7.9858 C   0  0  0  0  0  0  0  0  0  0  0  0
   12.9240   -5.3163   -7.5585 O   0  0  0  0  0  0  0  0  0  0  0  0
   13.1801   -7.6167   -8.2613 C   0  0  0  0  0  0  0  0  0  0  0  0
   14.3185   -8.4770   -8.6988 C   0  0  0  0  0  0  0  0  0  0  0  0
   14.2406   -9.0008  -10.0897 C   0  0  2  0  0  0  0  0  0  0  0  0
   13.8120  -10.4006   -9.9788 N   0  0  0  0  0  0  0  0  0  0  0  0
   15.4955   -8.8954  -10.8661 C   0  0  0  0  0  0  0  0  0  0  0  0
   16.3154   -9.8459  -10.8929 O   0  0  0  0  0  0  0  0  0  0  0  0
   16.1726   -6.2761  -16.3358 N   0  0  0  0  0  0  0  0  0  0  0  0
   17.5193   -6.6065  -16.0587 C   0  0  0  0  0  0  0  0  0  0  0  0
   18.3746   -6.4858  -16.9553 O   0  0  0  0  0  0  0  0  0  0  0  0
   17.9092   -7.0893  -14.7224 C   0  0  0  0  0  0  0  0  0  0  0  0
   16.7058   -7.1433  -13.8445 C   0  0  0  0  0  0  0  0  0  0  0  0
   17.0164   -7.6469  -12.4505 C   0  0  2  0  0  0  0  0  0  0  0  0
   15.8488   -7.7288  -11.6205 N   0  0  0  0  0  0  0  0  0  0  0  0
   18.0193   -6.7888  -11.7866 C   0  0  0  0  0  0  0  0  0  0  0  0
   17.6550   -5.7615  -11.1756 O   0  0  0  0  0  0  0  0  0  0  0  0
   24.1917   -7.1637   -7.2408 C   0  0  0  0  0  0  0  0  0  0  0  0
   22.8704   -7.8032   -8.2131 S   0  0  0  0  0  0  0  0  0  0  0  0
   22.2512   -6.7270   -9.4831 C   0  0  0  0  0  0  0  0  0  0  0  0
   21.0524   -7.2726  -10.1828 C   0  0  0  0  0  0  0  0  0  0  0  0
   20.4387   -6.3390  -11.1701 C   0  0  2  0  0  0  0  0  0  0  0  0
   19.3819   -7.1299  -11.8434 N   0  0  0  0  0  0  0  0  0  0  0  0
   21.4137   -5.8995  -12.1976 C   0  0  0  0  0  0  0  0  0  0  0  0
   21.4990   -6.6136  -13.2588 O   0  0  0  0  0  0  0  0  0  0  0  0
   22.2135   -4.8070  -12.0936 O   0  0  0  0  0  0  0  0  0  0  0  0
  2  1  1  0
  3  2  2  0
  4  2  1  0
  5  4  1  0
  6  5  1  0
  6  8  1  0
  6  7  1  1
  8  9  2  0
 11 12  2  0
 11 10  1  0
 13 11  1  0
 14 13  1  0
 15 14  1  6
 16  8  1  0
 16 15  1  0
 17 15  1  0
 17 18  2  0
 20 19  1  0
 20 21  1  0
 21 22  1  0
 23 22  1  1
 23 24  1  0
 24 17  1  0
 25 27  1  0
 25 23  1  0
 26 25  2  0
M  END
$$$$
