QQM.pdb
     RDKit          3D

 27 26  0  0  1  0  0  0  0  0999 V2000
   15.3453  -14.1634  -14.6828 N   0  0  0  0  0  0  0  0  0  0  0  0
   15.2430  -13.5067  -15.9461 C   0  0  0  0  0  0  0  0  0  0  0  0
   14.7455  -14.1697  -16.9000 O   0  0  0  0  0  0  0  0  0  0  0  0
   15.7070  -12.0862  -16.1345 C   0  0  0  0  0  0  0  0  0  0  0  0
   16.1912  -11.5524  -14.8275 C   0  0  0  0  0  0  0  0  0  0  0  0
   17.4519  -10.7628  -14.8744 C   0  0  2  0  0  0  0  0  0  0  0  0
   18.5266  -11.7205  -15.1628 N   0  0  0  0  0  0  0  0  0  0  0  0
   17.7500   -9.9921  -13.6473 C   0  0  0  0  0  0  0  0  0  0  0  0
   17.7062  -10.5403  -12.5186 O   0  0  0  0  0  0  0  0  0  0  0  0
   21.7497   -5.2649  -13.1726 N   0  0  0  0  0  0  0  0  0  0  0  0
   21.9645   -6.6286  -13.4787 C   0  0  0  0  0  0  0  0  0  0  0  0
   23.0829   -6.9943  -13.8855 O   0  0  0  0  0  0  0  0  0  0  0  0
   20.8767   -7.6093  -13.3187 C   0  0  0  0  0  0  0  0  0  0  0  0
   19.6622   -6.9213  -12.7958 C   0  0  0  0  0  0  0  0  0  0  0  0
   18.5244   -7.8769  -12.5035 C   0  0  2  0  0  0  0  0  0  0  0  0
   18.1003   -8.6022  -13.6666 N   0  0  0  0  0  0  0  0  0  0  0  0
   17.3640   -7.1626  -11.9323 C   0  0  0  0  0  0  0  0  0  0  0  0
   16.5501   -6.5901  -12.6881 O   0  0  0  0  0  0  0  0  0  0  0  0
   11.8758   -7.9538   -6.5946 C   0  0  0  0  0  0  0  0  0  0  0  0
   13.2914   -8.4161   -7.5338 S   0  0  0  0  0  0  0  0  0  0  0  0
   14.1695   -7.0861   -8.3179 C   0  0  0  0  0  0  0  0  0  0  0  0
   15.3472   -7.5454   -9.1095 C   0  0  0  0  0  0  0  0  0  0  0  0
   16.0148   -6.4708   -9.8984 C   0  0  2  0  0  0  0  0  0  0  0  0
   17.1774   -7.1288  -10.5394 N   0  0  0  0  0  0  0  0  0  0  0  0
   16.5204   -5.3792   -9.0312 C   0  0  0  0  0  0  0  0  0  0  0  0
   17.7332   -5.4747   -8.6268 O   0  0  0  0  0  0  0  0  0  0  0  0
   15.7969   -4.2989   -8.6394 O   0  0  0  0  0  0  0  0  0  0  0  0
  2  1  1  0
  3  2  2  0
  4  2  1  0
  5  4  1  0
  6  5  1  0
  6  8  1  0
  6  7  1  1
  8  9  2  0
 11 12  2  0
 11 10  1  0
 13 11  1  0
 14 13  1  0
 15 14  1  6
 16  8  1  0
 16 15  1  0
 17 15  1  0
 17 18  2  0
 20 19  1  0
 20 21  1  0
 21 22  1  0
 23 22  1  1
 23 24  1  0
 24 17  1  0
 25 27  1  0
 25 23  1  0
 26 25  2  0
M  END
$$$$
