QQM.pdb
     RDKit          3D

 27 26  0  0  1  0  0  0  0  0999 V2000
   13.7870   -9.5465  -15.8124 N   0  0  0  0  0  0  0  0  0  0  0  0
   13.2426  -10.8658  -15.8331 C   0  0  0  0  0  0  0  0  0  0  0  0
   12.5158  -11.1725  -16.8203 O   0  0  0  0  0  0  0  0  0  0  0  0
   13.5221  -11.8498  -14.7274 C   0  0  0  0  0  0  0  0  0  0  0  0
   14.3779  -11.1951  -13.6948 C   0  0  0  0  0  0  0  0  0  0  0  0
   15.8466  -11.2722  -13.9234 C   0  0  2  0  0  0  0  0  0  0  0  0
   16.2141  -12.6847  -13.7644 N   0  0  0  0  0  0  0  0  0  0  0  0
   16.6609  -10.4142  -13.0350 C   0  0  0  0  0  0  0  0  0  0  0  0
   16.8163  -10.7084  -11.8243 O   0  0  0  0  0  0  0  0  0  0  0  0
   21.7598   -8.2523  -15.8125 N   0  0  0  0  0  0  0  0  0  0  0  0
   21.2537   -7.7600  -14.5874 C   0  0  0  0  0  0  0  0  0  0  0  0
   21.6574   -6.6640  -14.1563 O   0  0  0  0  0  0  0  0  0  0  0  0
   20.2581   -8.5347  -13.8263 C   0  0  0  0  0  0  0  0  0  0  0  0
   19.1725   -7.6253  -13.3615 C   0  0  0  0  0  0  0  0  0  0  0  0
   18.0671   -8.3553  -12.6276 C   0  0  2  0  0  0  0  0  0  0  0  0
   17.3106   -9.2192  -13.4879 N   0  0  0  0  0  0  0  0  0  0  0  0
   17.1468   -7.4041  -11.9711 C   0  0  0  0  0  0  0  0  0  0  0  0
   16.0873   -7.0666  -12.5413 O   0  0  0  0  0  0  0  0  0  0  0  0
   11.5514   -6.8076   -7.6428 C   0  0  0  0  0  0  0  0  0  0  0  0
   12.8446   -7.4249   -8.6659 S   0  0  0  0  0  0  0  0  0  0  0  0
   14.2938   -6.4049   -8.7836 C   0  0  0  0  0  0  0  0  0  0  0  0
   15.3425   -6.9747   -9.6780 C   0  0  0  0  0  0  0  0  0  0  0  0
   16.5117   -6.0774   -9.9041 C   0  0  2  0  0  0  0  0  0  0  0  0
   17.4646   -6.8806  -10.7057 N   0  0  0  0  0  0  0  0  0  0  0  0
   17.1769   -5.7029   -8.6327 C   0  0  0  0  0  0  0  0  0  0  0  0
   18.1246   -6.4653   -8.2277 O   0  0  0  0  0  0  0  0  0  0  0  0
   16.8554   -4.6220   -7.8760 O   0  0  0  0  0  0  0  0  0  0  0  0
  2  1  1  0
  3  2  2  0
  4  2  1  0
  5  4  1  0
  6  5  1  0
  6  8  1  0
  6  7  1  1
  8  9  2  0
 11 12  2  0
 11 10  1  0
 13 11  1  0
 14 13  1  0
 15 14  1  6
 16  8  1  0
 16 15  1  0
 17 15  1  0
 17 18  2  0
 20 19  1  0
 20 21  1  0
 21 22  1  0
 23 22  1  1
 23 24  1  0
 24 17  1  0
 25 27  1  0
 25 23  1  0
 26 25  2  0
M  END
$$$$
