QQM.pdb
     RDKit          3D

 27 26  0  0  1  0  0  0  0  0999 V2000
   28.7896  -23.4744  -17.6259 N   0  0  0  0  0  0  0  0  0  0  0  0
   28.5202  -22.5926  -16.5362 C   0  0  0  0  0  0  0  0  0  0  0  0
   27.6423  -22.9584  -15.7042 O   0  0  0  0  0  0  0  0  0  0  0  0
   29.2499  -21.2838  -16.3841 C   0  0  0  0  0  0  0  0  0  0  0  0
   28.6287  -20.5037  -15.2737 C   0  0  0  0  0  0  0  0  0  0  0  0
   27.2532  -19.9948  -15.5267 C   0  0  2  0  0  0  0  0  0  0  0  0
   27.4029  -18.8150  -16.3876 N   0  0  0  0  0  0  0  0  0  0  0  0
   26.4784  -19.6632  -14.3109 C   0  0  0  0  0  0  0  0  0  0  0  0
   26.7716  -18.6588  -13.6169 O   0  0  0  0  0  0  0  0  0  0  0  0
   20.5097  -20.9744  -13.1352 N   0  0  0  0  0  0  0  0  0  0  0  0
   20.9020  -20.3793  -11.9139 C   0  0  0  0  0  0  0  0  0  0  0  0
   20.0450  -20.1628  -11.0372 O   0  0  0  0  0  0  0  0  0  0  0  0
   22.3109  -20.0182  -11.6787 C   0  0  0  0  0  0  0  0  0  0  0  0
   23.1142  -20.3402  -12.8923 C   0  0  0  0  0  0  0  0  0  0  0  0
   24.5998  -20.1302  -12.6875 C   0  0  2  0  0  0  0  0  0  0  0  0
   25.3684  -20.4485  -13.8566 N   0  0  0  0  0  0  0  0  0  0  0  0
   25.0982  -20.9320  -11.5510 C   0  0  0  0  0  0  0  0  0  0  0  0
   25.1123  -22.1792  -11.6262 O   0  0  0  0  0  0  0  0  0  0  0  0
   28.4063  -17.7903   -6.8358 C   0  0  0  0  0  0  0  0  0  0  0  0
   28.5234  -19.4786   -6.3500 S   0  0  0  0  0  0  0  0  0  0  0  0
   27.3979  -20.5954   -7.1503 C   0  0  0  0  0  0  0  0  0  0  0  0
   26.9460  -20.1157   -8.4882 C   0  0  0  0  0  0  0  0  0  0  0  0
   25.9898  -21.0286   -9.1779 C   0  0  2  0  0  0  0  0  0  0  0  0
   25.5560  -20.2901  -10.3872 N   0  0  0  0  0  0  0  0  0  0  0  0
   24.7914  -21.3048   -8.3492 C   0  0  0  0  0  0  0  0  0  0  0  0
   23.7630  -20.5670   -8.5530 O   0  0  0  0  0  0  0  0  0  0  0  0
   24.7086  -22.2726   -7.4002 O   0  0  0  0  0  0  0  0  0  0  0  0
  2  1  1  0
  3  2  2  0
  4  2  1  0
  5  4  1  0
  6  5  1  0
  6  8  1  0
  6  7  1  6
  8  9  2  0
 11 12  2  0
 11 10  1  0
 13 11  1  0
 14 13  1  0
 15 14  1  6
 16  8  1  0
 16 15  1  0
 17 15  1  0
 17 18  2  0
 20 19  1  0
 20 21  1  0
 21 22  1  0
 23 22  1  1
 23 24  1  0
 24 17  1  0
 25 27  1  0
 25 23  1  0
 26 25  2  0
M  END
$$$$
