QQM.pdb
     RDKit          3D

 27 26  0  0  1  0  0  0  0  0999 V2000
   26.4645  -19.2026  -19.1912 N   0  0  0  0  0  0  0  0  0  0  0  0
   27.7399  -18.7420  -18.7458 C   0  0  0  0  0  0  0  0  0  0  0  0
   28.4833  -18.1883  -19.6047 O   0  0  0  0  0  0  0  0  0  0  0  0
   28.1809  -18.9079  -17.3152 C   0  0  0  0  0  0  0  0  0  0  0  0
   27.0458  -19.4520  -16.5134 C   0  0  0  0  0  0  0  0  0  0  0  0
   27.3771  -20.5773  -15.5975 C   0  0  2  0  0  0  0  0  0  0  0  0
   27.7763  -21.7010  -16.4539 N   0  0  0  0  0  0  0  0  0  0  0  0
   26.2863  -20.9765  -14.6813 C   0  0  0  0  0  0  0  0  0  0  0  0
   25.3294  -21.6791  -15.0903 O   0  0  0  0  0  0  0  0  0  0  0  0
   26.0917  -20.3065   -8.3679 N   0  0  0  0  0  0  0  0  0  0  0  0
   24.8312  -20.8812   -8.6517 C   0  0  0  0  0  0  0  0  0  0  0  0
   24.0927  -21.2281   -7.7114 O   0  0  0  0  0  0  0  0  0  0  0  0
   24.3938  -21.0687  -10.0461 C   0  0  0  0  0  0  0  0  0  0  0  0
   25.4838  -20.6424  -10.9690 C   0  0  0  0  0  0  0  0  0  0  0  0
   25.1519  -20.8893  -12.4257 C   0  0  2  0  0  0  0  0  0  0  0  0
   26.2515  -20.5962  -13.2996 N   0  0  0  0  0  0  0  0  0  0  0  0
   23.9789  -20.0951  -12.8454 C   0  0  0  0  0  0  0  0  0  0  0  0
   24.1284  -18.9135  -13.2235 O   0  0  0  0  0  0  0  0  0  0  0  0
   19.4399  -17.9519  -17.9510 C   0  0  0  0  0  0  0  0  0  0  0  0
   20.7414  -18.7855  -17.1076 S   0  0  0  0  0  0  0  0  0  0  0  0
   20.5033  -19.0311  -15.3648 C   0  0  0  0  0  0  0  0  0  0  0  0
   21.6704  -19.6770  -14.6974 C   0  0  0  0  0  0  0  0  0  0  0  0
   21.4780  -19.9415  -13.2428 C   0  0  2  0  0  0  0  0  0  0  0  0
   22.6965  -20.6705  -12.8191 N   0  0  0  0  0  0  0  0  0  0  0  0
   20.3051  -20.8127  -12.9882 C   0  0  0  0  0  0  0  0  0  0  0  0
   19.1537  -20.2490  -12.9868 O   0  0  0  0  0  0  0  0  0  0  0  0
   20.3650  -22.1497  -12.7583 O   0  0  0  0  0  0  0  0  0  0  0  0
  2  1  1  0
  3  2  2  0
  4  2  1  0
  5  4  1  0
  6  5  1  0
  6  8  1  0
  6  7  1  6
  8  9  2  0
 11 12  2  0
 11 10  1  0
 13 11  1  0
 14 13  1  0
 15 14  1  1
 16  8  1  0
 16 15  1  0
 17 15  1  0
 17 18  2  0
 20 19  1  0
 20 21  1  0
 21 22  1  0
 23 22  1  6
 23 24  1  0
 24 17  1  0
 25 27  1  0
 25 23  1  0
 26 25  2  0
M  END
$$$$
