QQM.pdb
     RDKit          3D

 27 26  0  0  1  0  0  0  0  0999 V2000
   19.4797  -17.6308  -15.1491 N   0  0  0  0  0  0  0  0  0  0  0  0
   20.3362  -18.7017  -14.7528 C   0  0  0  0  0  0  0  0  0  0  0  0
   19.7810  -19.7655  -14.3567 O   0  0  0  0  0  0  0  0  0  0  0  0
   21.8358  -18.5703  -14.8043 C   0  0  0  0  0  0  0  0  0  0  0  0
   22.1910  -17.1858  -15.2338 C   0  0  0  0  0  0  0  0  0  0  0  0
   22.1483  -16.9285  -16.6991 C   0  0  2  0  0  0  0  0  0  0  0  0
   23.2197  -17.7395  -17.2906 N   0  0  0  0  0  0  0  0  0  0  0  0
   22.2899  -15.5077  -17.0863 C   0  0  0  0  0  0  0  0  0  0  0  0
   23.4186  -15.0223  -17.3448 O   0  0  0  0  0  0  0  0  0  0  0  0
   17.5561  -11.5078  -18.4973 N   0  0  0  0  0  0  0  0  0  0  0  0
   18.6988  -10.7047  -18.7183 C   0  0  0  0  0  0  0  0  0  0  0  0
   18.5552   -9.5383  -19.1290 O   0  0  0  0  0  0  0  0  0  0  0  0
   20.0477  -11.2410  -18.4657 C   0  0  0  0  0  0  0  0  0  0  0  0
   19.9373  -12.6267  -17.9277 C   0  0  0  0  0  0  0  0  0  0  0  0
   21.2848  -13.2598  -17.6513 C   0  0  2  0  0  0  0  0  0  0  0  0
   21.1740  -14.6137  -17.1892 N   0  0  0  0  0  0  0  0  0  0  0  0
   22.0479  -12.4740  -16.6598 C   0  0  0  0  0  0  0  0  0  0  0  0
   21.7936  -12.5908  -15.4420 O   0  0  0  0  0  0  0  0  0  0  0  0
   29.2247   -9.4111  -15.8601 C   0  0  0  0  0  0  0  0  0  0  0  0
   27.9345  -10.2443  -16.7210 S   0  0  0  0  0  0  0  0  0  0  0  0
   26.3221  -10.1488  -15.9824 C   0  0  0  0  0  0  0  0  0  0  0  0
   25.2988  -10.9648  -16.6975 C   0  0  0  0  0  0  0  0  0  0  0  0
   23.9181  -10.8377  -16.1493 C   0  0  2  0  0  0  0  0  0  0  0  0
   23.0591  -11.5965  -17.0884 N   0  0  0  0  0  0  0  0  0  0  0  0
   23.4554   -9.4288  -16.1338 C   0  0  0  0  0  0  0  0  0  0  0  0
   23.0271   -8.9471  -17.2420 O   0  0  0  0  0  0  0  0  0  0  0  0
   23.4547   -8.6226  -15.0411 O   0  0  0  0  0  0  0  0  0  0  0  0
  2  1  1  0
  3  2  2  0
  4  2  1  0
  5  4  1  0
  6  5  1  0
  6  8  1  0
  6  7  1  6
  8  9  2  0
 11 12  2  0
 11 10  1  0
 13 11  1  0
 14 13  1  0
 15 14  1  1
 16  8  1  0
 16 15  1  0
 17 15  1  0
 17 18  2  0
 20 19  1  0
 20 21  1  0
 21 22  1  0
 23 22  1  6
 23 24  1  0
 24 17  1  0
 25 27  1  0
 25 23  1  0
 26 25  2  0
M  END
$$$$
