QQM.pdb
     RDKit          3D

 27 26  0  0  1  0  0  0  0  0999 V2000
   22.3095  -12.1221  -22.4770 N   0  0  0  0  0  0  0  0  0  0  0  0
   23.3116  -12.7800  -23.2520 C   0  0  0  0  0  0  0  0  0  0  0  0
   22.9835  -13.1618  -24.4110 O   0  0  0  0  0  0  0  0  0  0  0  0
   24.6992  -13.0090  -22.7127 C   0  0  0  0  0  0  0  0  0  0  0  0
   24.7948  -12.4226  -21.3436 C   0  0  0  0  0  0  0  0  0  0  0  0
   26.1375  -12.4795  -20.7042 C   0  0  2  0  0  0  0  0  0  0  0  0
   26.3511  -13.8802  -20.3196 N   0  0  0  0  0  0  0  0  0  0  0  0
   26.3117  -11.5827  -19.5406 C   0  0  0  0  0  0  0  0  0  0  0  0
   25.7951  -11.8631  -18.4311 O   0  0  0  0  0  0  0  0  0  0  0  0
   31.3486   -8.5108  -18.0541 N   0  0  0  0  0  0  0  0  0  0  0  0
   31.0097   -9.8721  -17.8759 C   0  0  0  0  0  0  0  0  0  0  0  0
   31.9088  -10.6984  -17.6331 O   0  0  0  0  0  0  0  0  0  0  0  0
   29.6068  -10.3109  -17.9761 C   0  0  0  0  0  0  0  0  0  0  0  0
   28.7429   -9.1394  -18.2969 C   0  0  0  0  0  0  0  0  0  0  0  0
   27.2854   -9.5125  -18.4689 C   0  0  2  0  0  0  0  0  0  0  0  0
   27.0639  -10.3639  -19.6024 N   0  0  0  0  0  0  0  0  0  0  0  0
   26.4403   -8.3077  -18.5998 C   0  0  0  0  0  0  0  0  0  0  0  0
   26.2979   -7.7638  -19.7158 O   0  0  0  0  0  0  0  0  0  0  0  0
   21.0568   -7.3719  -15.0556 C   0  0  0  0  0  0  0  0  0  0  0  0
   21.8107   -5.7807  -15.0441 S   0  0  0  0  0  0  0  0  0  0  0  0
   23.0745   -5.5130  -16.2629 C   0  0  0  0  0  0  0  0  0  0  0  0
   24.0219   -6.6581  -16.3885 C   0  0  0  0  0  0  0  0  0  0  0  0
   24.9972   -6.5291  -17.5088 C   0  0  2  0  0  0  0  0  0  0  0  0
   25.7976   -7.7756  -17.4685 N   0  0  0  0  0  0  0  0  0  0  0  0
   25.9166   -5.3819  -17.3140 C   0  0  0  0  0  0  0  0  0  0  0  0
   26.9648   -5.5927  -16.6067 O   0  0  0  0  0  0  0  0  0  0  0  0
   25.7275   -4.1384  -17.8257 O   0  0  0  0  0  0  0  0  0  0  0  0
  2  1  1  0
  3  2  2  0
  4  2  1  0
  5  4  1  0
  6  5  1  0
  6  8  1  0
  6  7  1  1
  8  9  2  0
 11 12  2  0
 11 10  1  0
 13 11  1  0
 14 13  1  0
 15 14  1  6
 16  8  1  0
 16 15  1  0
 17 15  1  0
 17 18  2  0
 20 19  1  0
 20 21  1  0
 21 22  1  0
 23 22  1  1
 23 24  1  0
 24 17  1  0
 25 27  1  0
 25 23  1  0
 26 25  2  0
M  END
$$$$
