QQM.pdb
     RDKit          3D

 27 26  0  0  1  0  0  0  0  0999 V2000
   20.2787  -19.9108  -15.1855 N   0  0  0  0  0  0  0  0  0  0  0  0
   19.6039  -20.7421  -16.1294 C   0  0  0  0  0  0  0  0  0  0  0  0
   18.6235  -20.2350  -16.7446 O   0  0  0  0  0  0  0  0  0  0  0  0
   20.0408  -22.1614  -16.3818 C   0  0  0  0  0  0  0  0  0  0  0  0
   21.2780  -22.4395  -15.5949 C   0  0  0  0  0  0  0  0  0  0  0  0
   22.5478  -21.9250  -16.1763 C   0  0  2  0  0  0  0  0  0  0  0  0
   22.8644  -22.7998  -17.3121 N   0  0  0  0  0  0  0  0  0  0  0  0
   23.6839  -21.8592  -15.2310 C   0  0  0  0  0  0  0  0  0  0  0  0
   24.2535  -22.9069  -14.8382 O   0  0  0  0  0  0  0  0  0  0  0  0
   27.3557  -16.9285  -14.3952 N   0  0  0  0  0  0  0  0  0  0  0  0
   27.7621  -18.0248  -15.1906 C   0  0  0  0  0  0  0  0  0  0  0  0
   28.6629  -17.8658  -16.0351 O   0  0  0  0  0  0  0  0  0  0  0  0
   27.1270  -19.3437  -15.0233 C   0  0  0  0  0  0  0  0  0  0  0  0
   26.0919  -19.2633  -13.9539 C   0  0  0  0  0  0  0  0  0  0  0  0
   25.3014  -20.5459  -13.8023 C   0  0  2  0  0  0  0  0  0  0  0  0
   24.1964  -20.6242  -14.7143 N   0  0  0  0  0  0  0  0  0  0  0  0
   24.7977  -20.6997  -12.4219 C   0  0  0  0  0  0  0  0  0  0  0  0
   23.6112  -20.4123  -12.1551 O   0  0  0  0  0  0  0  0  0  0  0  0
   28.6949  -18.9062   -7.6886 C   0  0  0  0  0  0  0  0  0  0  0  0
   27.6046  -20.0161   -6.8643 S   0  0  0  0  0  0  0  0  0  0  0  0
   26.1549  -20.4954   -7.7717 C   0  0  0  0  0  0  0  0  0  0  0  0
   26.4116  -20.6937   -9.2274 C   0  0  0  0  0  0  0  0  0  0  0  0
   25.2530  -21.2454   -9.9865 C   0  0  2  0  0  0  0  0  0  0  0  0
   25.6541  -21.1695  -11.4110 N   0  0  0  0  0  0  0  0  0  0  0  0
   24.0306  -20.4254   -9.8054 C   0  0  0  0  0  0  0  0  0  0  0  0
   23.2010  -20.8120   -8.9078 O   0  0  0  0  0  0  0  0  0  0  0  0
   23.7318  -19.3076  -10.5161 O   0  0  0  0  0  0  0  0  0  0  0  0
  2  1  1  0
  3  2  2  0
  4  2  1  0
  5  4  1  0
  6  5  1  0
  6  8  1  0
  6  7  1  6
  8  9  2  0
 11 12  2  0
 11 10  1  0
 13 11  1  0
 14 13  1  0
 15 14  1  1
 16  8  1  0
 16 15  1  0
 17 15  1  0
 17 18  2  0
 20 19  1  0
 20 21  1  0
 21 22  1  0
 23 22  1  1
 23 24  1  0
 24 17  1  0
 25 27  1  0
 25 23  1  0
 26 25  2  0
M  END
$$$$
