YWC.pdb
     RDKit          3D

 33 35  0  0  1  0  0  0  0  0999 V2000
   23.0167  -14.7503  -21.2155 O   0  0  0  0  0  0  0  0  0  0  0  0
   23.2354  -15.7242  -20.2418 C   0  0  0  0  0  0  0  0  0  0  0  0
   22.9164  -17.0475  -20.4486 C   0  0  0  0  0  0  0  0  0  0  0  0
   23.1661  -17.9377  -19.4359 C   0  0  0  0  0  0  0  0  0  0  0  0
   23.7230  -17.5673  -18.2177 C   0  0  0  0  0  0  0  0  0  0  0  0
   23.9711  -18.5911  -17.1514 C   0  0  0  0  0  0  0  0  0  0  0  0
   25.4249  -19.0068  -17.2497 C   0  0  2  0  0  0  0  0  0  0  0  0
   25.6414  -19.6814  -18.4711 N   0  0  0  0  0  0  0  0  0  0  0  0
   25.7650  -19.7476  -16.0331 C   0  0  0  0  0  0  0  0  0  0  0  0
   25.3546  -20.9361  -15.9484 O   0  0  0  0  0  0  0  0  0  0  0  0
   24.0305  -16.2351  -18.0430 C   0  0  0  0  0  0  0  0  0  0  0  0
   23.7920  -15.2956  -19.0500 C   0  0  0  0  0  0  0  0  0  0  0  0
   26.5136  -19.2444  -14.9459 N   0  0  0  0  0  0  0  0  0  0  0  0
   26.7021  -20.0056  -13.7301 C   0  0  1  0  0  0  0  0  0  0  0  0
   27.7764  -19.3605  -12.8689 C   0  0  0  0  0  0  0  0  0  0  0  0
   28.0024  -20.2153  -11.6747 C   0  0  0  0  0  0  0  0  0  0  0  0
   28.5410  -21.4732  -11.6664 C   0  0  0  0  0  0  0  0  0  0  0  0
   28.5734  -21.8970  -10.3933 N   0  0  0  0  0  0  0  0  0  0  0  0
   28.0694  -20.9399   -9.5971 C   0  0  0  0  0  0  0  0  0  0  0  0
   27.8798  -20.8718   -8.2312 C   0  0  0  0  0  0  0  0  0  0  0  0
   27.3320  -19.7612   -7.6235 C   0  0  0  0  0  0  0  0  0  0  0  0
   26.9648  -18.6835   -8.4332 C   0  0  0  0  0  0  0  0  0  0  0  0
   27.1491  -18.7391   -9.7993 C   0  0  0  0  0  0  0  0  0  0  0  0
   27.7061  -19.8792  -10.3783 C   0  0  0  0  0  0  0  0  0  0  0  0
   25.3874  -19.9620  -12.9865 C   0  0  0  0  0  0  0  0  0  0  0  0
   24.6351  -18.9610  -13.0742 O   0  0  0  0  0  0  0  0  0  0  0  0
   24.9761  -21.0471  -12.1762 N   0  0  0  0  0  0  0  0  0  0  0  0
   23.8248  -21.0683  -11.3087 C   0  0  1  0  0  0  0  0  0  0  0  0
   22.6329  -21.6745  -11.9861 C   0  0  0  0  0  0  0  0  0  0  0  0
   21.2024  -21.8071  -10.9221 S   0  0  0  0  0  0  0  0  0  0  0  0
   24.0989  -21.6551   -9.9645 C   0  0  0  0  0  0  0  0  0  0  0  0
   23.6719  -21.0540   -8.8037 O   0  0  0  0  0  0  0  0  0  0  0  0
   24.7347  -22.7332   -9.8479 O   0  0  0  0  0  0  0  0  0  0  0  0
  2  1  1  0
  3  2  2  0
  4  3  1  0
  5  4  2  0
  5 11  1  0
  6  5  1  0
  7  6  1  0
  7  8  1  6
  9  7  1  0
  9 10  2  0
 11 12  2  0
 12  2  1  0
 13  9  1  0
 14 13  1  0
 14 15  1  1
 16 15  1  0
 16 17  2  0
 18 17  1  0
 19 18  1  0
 20 19  2  0
 21 20  1  0
 22 21  2  0
 22 23  1  0
 23 24  2  0
 24 19  1  0
 24 16  1  0
 25 14  1  0
 26 25  2  0
 27 25  1  0
 28 27  1  0
 28 29  1  6
 29 30  1  0
 31 28  1  0
 31 32  1  0
 33 31  2  0
M  END
$$$$
