YWC.pdb
     RDKit          3D

 33 35  0  0  1  0  0  0  0  0999 V2000
   23.3030  -17.2332  -18.7643 O   0  0  0  0  0  0  0  0  0  0  0  0
   23.3164  -17.8600  -17.5187 C   0  0  0  0  0  0  0  0  0  0  0  0
   23.7192  -17.2051  -16.3765 C   0  0  0  0  0  0  0  0  0  0  0  0
   23.7003  -17.8988  -15.1938 C   0  0  0  0  0  0  0  0  0  0  0  0
   23.2954  -19.2246  -15.0961 C   0  0  0  0  0  0  0  0  0  0  0  0
   23.2978  -19.9256  -13.7712 C   0  0  0  0  0  0  0  0  0  0  0  0
   24.7250  -20.3440  -13.4808 C   0  0  2  0  0  0  0  0  0  0  0  0
   25.1377  -21.3046  -14.4298 N   0  0  0  0  0  0  0  0  0  0  0  0
   24.7983  -20.7504  -12.0758 C   0  0  0  0  0  0  0  0  0  0  0  0
   24.2318  -21.8304  -11.7581 O   0  0  0  0  0  0  0  0  0  0  0  0
   22.8985  -19.8509  -16.2580 C   0  0  0  0  0  0  0  0  0  0  0  0
   22.9029  -19.1797  -17.4839 C   0  0  0  0  0  0  0  0  0  0  0  0
   25.4494  -20.0359  -11.0458 N   0  0  0  0  0  0  0  0  0  0  0  0
   25.4769  -20.5165   -9.6814 C   0  0  1  0  0  0  0  0  0  0  0  0
   26.5970  -19.8379   -8.9090 C   0  0  0  0  0  0  0  0  0  0  0  0
   26.5737  -20.3330   -7.5082 C   0  0  0  0  0  0  0  0  0  0  0  0
   25.7420  -21.2936   -7.0000 C   0  0  0  0  0  0  0  0  0  0  0  0
   26.0411  -21.4493   -5.7009 N   0  0  0  0  0  0  0  0  0  0  0  0
   27.0398  -20.6124   -5.3750 C   0  0  0  0  0  0  0  0  0  0  0  0
   27.7078  -20.3799   -4.1893 C   0  0  0  0  0  0  0  0  0  0  0  0
   28.7226  -19.4505   -4.0919 C   0  0  0  0  0  0  0  0  0  0  0  0
   29.0692  -18.7337   -5.2399 C   0  0  0  0  0  0  0  0  0  0  0  0
   28.4093  -18.9568   -6.4307 C   0  0  0  0  0  0  0  0  0  0  0  0
   27.3881  -19.9049   -6.4910 C   0  0  0  0  0  0  0  0  0  0  0  0
   24.1531  -20.1320   -9.0626 C   0  0  0  0  0  0  0  0  0  0  0  0
   23.6385  -19.0112   -9.2965 O   0  0  0  0  0  0  0  0  0  0  0  0
   23.4655  -21.0257   -8.2072 N   0  0  0  0  0  0  0  0  0  0  0  0
   22.0437  -21.2641   -8.1969 C   0  0  1  0  0  0  0  0  0  0  0  0
   21.5355  -21.6369   -9.5570 C   0  0  0  0  0  0  0  0  0  0  0  0
   19.7776  -21.9600   -9.5943 S   0  0  0  0  0  0  0  0  0  0  0  0
   21.6022  -22.2046   -7.1259 C   0  0  0  0  0  0  0  0  0  0  0  0
   22.2698  -23.3777   -6.8628 O   0  0  0  0  0  0  0  0  0  0  0  0
   20.5946  -21.9508   -6.4185 O   0  0  0  0  0  0  0  0  0  0  0  0
  2  1  1  0
  3  2  2  0
  4  3  1  0
  5  4  2  0
  5 11  1  0
  6  5  1  0
  7  6  1  0
  7  8  1  6
  9  7  1  0
  9 10  2  0
 11 12  2  0
 12  2  1  0
 13  9  1  0
 14 13  1  0
 14 15  1  1
 16 15  1  0
 16 17  2  0
 18 17  1  0
 19 18  1  0
 20 19  2  0
 21 20  1  0
 22 21  2  0
 22 23  1  0
 23 24  2  0
 24 19  1  0
 24 16  1  0
 25 14  1  0
 26 25  2  0
 27 25  1  0
 28 27  1  0
 28 29  1  6
 29 30  1  0
 31 28  1  0
 31 32  1  0
 33 31  2  0
M  END
$$$$
