YWC.pdb
     RDKit          3D

 33 35  0  0  1  0  0  0  0  0999 V2000
   25.3716  -18.4767  -20.1713 O   0  0  0  0  0  0  0  0  0  0  0  0
   25.2787  -19.0926  -18.9237 C   0  0  0  0  0  0  0  0  0  0  0  0
   25.5267  -20.4361  -18.7527 C   0  0  0  0  0  0  0  0  0  0  0  0
   25.4120  -20.9582  -17.4900 C   0  0  0  0  0  0  0  0  0  0  0  0
   25.0590  -20.1979  -16.3816 C   0  0  0  0  0  0  0  0  0  0  0  0
   24.9515  -20.8307  -15.0272 C   0  0  0  0  0  0  0  0  0  0  0  0
   26.0639  -20.2616  -14.1700 C   0  0  2  0  0  0  0  0  0  0  0  0
   27.3140  -20.6322  -14.7119 N   0  0  0  0  0  0  0  0  0  0  0  0
   25.8155  -20.6640  -12.7840 C   0  0  0  0  0  0  0  0  0  0  0  0
   24.9701  -21.5788  -12.5923 O   0  0  0  0  0  0  0  0  0  0  0  0
   24.8173  -18.8565  -16.5872 C   0  0  0  0  0  0  0  0  0  0  0  0
   24.9233  -18.2849  -17.8582 C   0  0  0  0  0  0  0  0  0  0  0  0
   26.4420  -20.1150  -11.6432 N   0  0  0  0  0  0  0  0  0  0  0  0
   26.1114  -20.5526  -10.3043 C   0  0  1  0  0  0  0  0  0  0  0  0
   27.0354  -19.8918   -9.2937 C   0  0  0  0  0  0  0  0  0  0  0  0
   26.7218  -20.4284   -7.9440 C   0  0  0  0  0  0  0  0  0  0  0  0
   25.7917  -21.3873   -7.6471 C   0  0  0  0  0  0  0  0  0  0  0  0
   25.8187  -21.5879   -6.3203 N   0  0  0  0  0  0  0  0  0  0  0  0
   26.7414  -20.7808   -5.7711 C   0  0  0  0  0  0  0  0  0  0  0  0
   27.1578  -20.5972   -4.4676 C   0  0  0  0  0  0  0  0  0  0  0  0
   28.1437  -19.6912   -4.1358 C   0  0  0  0  0  0  0  0  0  0  0  0
   28.7254  -18.9471   -5.1652 C   0  0  0  0  0  0  0  0  0  0  0  0
   28.3182  -19.1214   -6.4718 C   0  0  0  0  0  0  0  0  0  0  0  0
   27.3182  -20.0470   -6.7692 C   0  0  0  0  0  0  0  0  0  0  0  0
   24.6941  -20.0996  -10.0409 C   0  0  0  0  0  0  0  0  0  0  0  0
   24.4286  -18.8818   -9.8910 O   0  0  0  0  0  0  0  0  0  0  0  0
   23.6368  -21.0367   -9.9575 N   0  0  0  0  0  0  0  0  0  0  0  0
   22.2463  -20.7279   -9.7345 C   0  0  1  0  0  0  0  0  0  0  0  0
   21.4099  -21.0427  -10.9381 C   0  0  0  0  0  0  0  0  0  0  0  0
   22.2392  -22.0920  -12.1244 S   0  0  0  0  0  0  0  0  0  0  0  0
   21.7001  -21.3050   -8.4715 C   0  0  0  0  0  0  0  0  0  0  0  0
   20.4297  -21.0214   -8.0279 O   0  0  0  0  0  0  0  0  0  0  0  0
   22.3911  -22.0812   -7.7643 O   0  0  0  0  0  0  0  0  0  0  0  0
  2  1  1  0
  3  2  2  0
  4  3  1  0
  5  4  2  0
  5 11  1  0
  6  5  1  0
  7  6  1  0
  7  8  1  6
  9  7  1  0
  9 10  2  0
 11 12  2  0
 12  2  1  0
 13  9  1  0
 14 13  1  0
 14 15  1  1
 16 15  1  0
 16 17  2  0
 18 17  1  0
 19 18  1  0
 20 19  2  0
 21 20  1  0
 22 21  2  0
 22 23  1  0
 23 24  2  0
 24 19  1  0
 24 16  1  0
 25 14  1  0
 26 25  2  0
 27 25  1  0
 28 27  1  0
 28 29  1  6
 29 30  1  0
 31 28  1  0
 31 32  1  0
 33 31  2  0
M  END
$$$$
