YWC.pdb
     RDKit          3D

 33 35  0  0  1  0  0  0  0  0999 V2000
   22.0843  -19.3597  -17.8382 O   0  0  0  0  0  0  0  0  0  0  0  0
   22.5754  -19.8640  -16.6345 C   0  0  0  0  0  0  0  0  0  0  0  0
   22.7576  -21.2132  -16.4287 C   0  0  0  0  0  0  0  0  0  0  0  0
   23.2456  -21.6208  -15.2138 C   0  0  0  0  0  0  0  0  0  0  0  0
   23.5628  -20.7397  -14.1870 C   0  0  0  0  0  0  0  0  0  0  0  0
   24.0934  -21.2510  -12.8818 C   0  0  0  0  0  0  0  0  0  0  0  0
   25.5416  -20.8169  -12.7784 C   0  0  2  0  0  0  0  0  0  0  0  0
   26.3120  -21.5116  -13.7362 N   0  0  0  0  0  0  0  0  0  0  0  0
   25.9580  -20.9661  -11.3824 C   0  0  0  0  0  0  0  0  0  0  0  0
   26.1189  -22.1393  -10.9512 O   0  0  0  0  0  0  0  0  0  0  0  0
   23.3686  -19.3961  -14.4255 C   0  0  0  0  0  0  0  0  0  0  0  0
   22.8732  -18.9390  -15.6499 C   0  0  0  0  0  0  0  0  0  0  0  0
   26.1949  -19.9078  -10.4771 N   0  0  0  0  0  0  0  0  0  0  0  0
   26.4703  -20.1466   -9.0770 C   0  0  1  0  0  0  0  0  0  0  0  0
   26.8745  -18.8499   -8.3936 C   0  0  0  0  0  0  0  0  0  0  0  0
   27.3180  -19.1622   -7.0102 C   0  0  0  0  0  0  0  0  0  0  0  0
   26.7155  -18.7517   -5.8520 C   0  0  0  0  0  0  0  0  0  0  0  0
   27.4235  -19.2455   -4.8243 N   0  0  0  0  0  0  0  0  0  0  0  0
   28.4575  -19.9570   -5.3027 C   0  0  0  0  0  0  0  0  0  0  0  0
   29.4700  -20.6590   -4.6795 C   0  0  0  0  0  0  0  0  0  0  0  0
   30.4429  -21.3274   -5.3934 C   0  0  0  0  0  0  0  0  0  0  0  0
   30.3834  -21.2797   -6.7884 C   0  0  0  0  0  0  0  0  0  0  0  0
   29.3768  -20.5817   -7.4230 C   0  0  0  0  0  0  0  0  0  0  0  0
   28.4101  -19.9179   -6.6678 C   0  0  0  0  0  0  0  0  0  0  0  0
   25.1816  -20.6422   -8.4630 C   0  0  0  0  0  0  0  0  0  0  0  0
   24.0753  -20.1831   -8.8387 O   0  0  0  0  0  0  0  0  0  0  0  0
   25.1937  -21.6333   -7.4527 N   0  0  0  0  0  0  0  0  0  0  0  0
   24.0409  -22.1469   -6.7556 C   0  0  1  0  0  0  0  0  0  0  0  0
   24.4345  -22.9500   -5.5525 C   0  0  0  0  0  0  0  0  0  0  0  0
   24.4811  -21.9923   -4.0437 S   0  0  0  0  0  0  0  0  0  0  0  0
   23.0099  -21.1099   -6.4589 C   0  0  0  0  0  0  0  0  0  0  0  0
   21.6760  -21.4203   -6.3341 O   0  0  0  0  0  0  0  0  0  0  0  0
   23.3312  -19.9039   -6.3087 O   0  0  0  0  0  0  0  0  0  0  0  0
  2  1  1  0
  3  2  2  0
  4  3  1  0
  5  4  2  0
  5 11  1  0
  6  5  1  0
  7  6  1  0
  7  8  1  6
  9  7  1  0
  9 10  2  0
 11 12  2  0
 12  2  1  0
 13  9  1  0
 14 13  1  0
 14 15  1  1
 16 15  1  0
 16 17  2  0
 18 17  1  0
 19 18  1  0
 20 19  2  0
 21 20  1  0
 22 21  2  0
 22 23  1  0
 23 24  2  0
 24 19  1  0
 24 16  1  0
 25 14  1  0
 26 25  2  0
 27 25  1  0
 28 27  1  0
 28 29  1  1
 29 30  1  0
 31 28  1  0
 31 32  1  0
 33 31  2  0
M  END
$$$$
