YWC.pdb
     RDKit          3D

 33 35  0  0  1  0  0  0  0  0999 V2000
   21.9334  -38.5796  -15.5819 O   0  0  0  0  0  0  0  0  0  0  0  0
   22.7996  -38.4485  -14.4970 C   0  0  0  0  0  0  0  0  0  0  0  0
   23.8961  -39.2654  -14.3357 C   0  0  0  0  0  0  0  0  0  0  0  0
   24.6943  -39.0655  -13.2389 C   0  0  0  0  0  0  0  0  0  0  0  0
   24.4486  -38.0819  -12.2884 C   0  0  0  0  0  0  0  0  0  0  0  0
   25.3618  -37.9155  -11.1115 C   0  0  0  0  0  0  0  0  0  0  0  0
   26.3874  -36.8618  -11.4773 C   0  0  2  0  0  0  0  0  0  0  0  0
   27.1911  -37.3336  -12.5380 N   0  0  0  0  0  0  0  0  0  0  0  0
   27.0934  -36.4763  -10.2535 C   0  0  0  0  0  0  0  0  0  0  0  0
   28.1939  -37.0442  -10.0199 O   0  0  0  0  0  0  0  0  0  0  0  0
   23.3430  -37.2815  -12.4794 C   0  0  0  0  0  0  0  0  0  0  0  0
   22.5037  -37.4521  -13.5840 C   0  0  0  0  0  0  0  0  0  0  0  0
   26.6469  -35.5224   -9.3122 N   0  0  0  0  0  0  0  0  0  0  0  0
   27.3982  -35.2222   -8.1127 C   0  0  1  0  0  0  0  0  0  0  0  0
   27.2578  -33.7497   -7.7608 C   0  0  0  0  0  0  0  0  0  0  0  0
   27.8019  -33.5355   -6.3948 C   0  0  0  0  0  0  0  0  0  0  0  0
   29.0975  -33.7256   -5.9975 C   0  0  0  0  0  0  0  0  0  0  0  0
   29.1749  -33.4222   -4.6924 N   0  0  0  0  0  0  0  0  0  0  0  0
   27.9622  -33.0454   -4.2547 C   0  0  0  0  0  0  0  0  0  0  0  0
   27.5059  -32.6399   -3.0164 C   0  0  0  0  0  0  0  0  0  0  0  0
   26.1880  -32.2941   -2.8000 C   0  0  0  0  0  0  0  0  0  0  0  0
   25.3050  -32.3634   -3.8804 C   0  0  0  0  0  0  0  0  0  0  0  0
   25.7486  -32.7670   -5.1228 C   0  0  0  0  0  0  0  0  0  0  0  0
   27.0886  -33.1090   -5.3036 C   0  0  0  0  0  0  0  0  0  0  0  0
   26.7897  -36.0503   -7.0048 C   0  0  0  0  0  0  0  0  0  0  0  0
   25.5436  -36.1290   -6.8749 O   0  0  0  0  0  0  0  0  0  0  0  0
   27.6099  -36.7540   -6.0910 N   0  0  0  0  0  0  0  0  0  0  0  0
   27.1505  -37.5868   -5.0075 C   0  0  1  0  0  0  0  0  0  0  0  0
   28.1850  -38.5956   -4.6083 C   0  0  0  0  0  0  0  0  0  0  0  0
   28.3190  -39.9650   -5.7497 S   0  0  0  0  0  0  0  0  0  0  0  0
   26.6025  -36.8176   -3.8523 C   0  0  0  0  0  0  0  0  0  0  0  0
   25.2506  -36.6771   -3.6432 O   0  0  0  0  0  0  0  0  0  0  0  0
   27.3684  -36.2685   -3.0203 O   0  0  0  0  0  0  0  0  0  0  0  0
  2  1  1  0
  3  2  2  0
  4  3  1  0
  5  4  2  0
  5 11  1  0
  6  5  1  0
  7  6  1  0
  7  8  1  6
  9  7  1  0
  9 10  2  0
 11 12  2  0
 12  2  1  0
 13  9  1  0
 14 13  1  0
 14 15  1  1
 16 15  1  0
 16 17  2  0
 18 17  1  0
 19 18  1  0
 20 19  2  0
 21 20  1  0
 22 21  2  0
 22 23  1  0
 23 24  2  0
 24 19  1  0
 24 16  1  0
 25 14  1  0
 26 25  2  0
 27 25  1  0
 28 27  1  0
 28 29  1  1
 29 30  1  0
 31 28  1  0
 31 32  1  0
 33 31  2  0
M  END
$$$$
