YWC.pdb
     RDKit          3D

 33 35  0  0  1  0  0  0  0  0999 V2000
   24.5359  -15.3130  -21.1409 O   0  0  0  0  0  0  0  0  0  0  0  0
   24.2943  -16.3635  -20.2563 C   0  0  0  0  0  0  0  0  0  0  0  0
   24.4778  -17.6792  -20.6183 C   0  0  0  0  0  0  0  0  0  0  0  0
   24.2162  -18.6483  -19.6840 C   0  0  0  0  0  0  0  0  0  0  0  0
   23.7770  -18.3647  -18.3964 C   0  0  0  0  0  0  0  0  0  0  0  0
   23.5095  -19.4719  -17.4222 C   0  0  0  0  0  0  0  0  0  0  0  0
   24.7677  -19.6690  -16.6012 C   0  0  2  0  0  0  0  0  0  0  0  0
   25.7555  -20.2933  -17.3938 N   0  0  0  0  0  0  0  0  0  0  0  0
   24.3959  -20.3631  -15.3664 C   0  0  0  0  0  0  0  0  0  0  0  0
   24.2514  -21.6135  -15.4294 O   0  0  0  0  0  0  0  0  0  0  0  0
   23.6034  -17.0378  -18.0664 C   0  0  0  0  0  0  0  0  0  0  0  0
   23.8589  -16.0195  -18.9890 C   0  0  0  0  0  0  0  0  0  0  0  0
   24.1852  -19.7516  -14.1106 N   0  0  0  0  0  0  0  0  0  0  0  0
   23.7464  -20.5063  -12.9568 C   0  0  1  0  0  0  0  0  0  0  0  0
   24.3031  -19.8887  -11.6838 C   0  0  0  0  0  0  0  0  0  0  0  0
   25.6873  -20.3894  -11.4807 C   0  0  0  0  0  0  0  0  0  0  0  0
   26.0922  -21.3004  -10.5432 C   0  0  0  0  0  0  0  0  0  0  0  0
   27.4137  -21.4814  -10.6913 N   0  0  0  0  0  0  0  0  0  0  0  0
   27.8545  -20.7087  -11.6978 C   0  0  0  0  0  0  0  0  0  0  0  0
   29.1075  -20.5240  -12.2475 C   0  0  0  0  0  0  0  0  0  0  0  0
   29.3238  -19.6587  -13.2999 C   0  0  0  0  0  0  0  0  0  0  0  0
   28.2281  -18.9579  -13.8099 C   0  0  0  0  0  0  0  0  0  0  0  0
   26.9711  -19.1337  -13.2694 C   0  0  0  0  0  0  0  0  0  0  0  0
   26.7907  -20.0174  -12.2055 C   0  0  0  0  0  0  0  0  0  0  0  0
   22.2386  -20.4112  -12.9280 C   0  0  0  0  0  0  0  0  0  0  0  0
   21.6537  -19.3831  -13.3484 O   0  0  0  0  0  0  0  0  0  0  0  0
   21.4541  -21.4775  -12.4273 N   0  0  0  0  0  0  0  0  0  0  0  0
   20.0312  -21.6353  -12.5974 C   0  0  1  0  0  0  0  0  0  0  0  0
   19.6330  -21.5437  -14.0397 C   0  0  0  0  0  0  0  0  0  0  0  0
   17.9166  -21.9511  -14.3297 S   0  0  0  0  0  0  0  0  0  0  0  0
   19.4758  -22.8371  -11.9091 C   0  0  0  0  0  0  0  0  0  0  0  0
   18.3321  -22.7798  -11.1476 O   0  0  0  0  0  0  0  0  0  0  0  0
   20.0407  -23.9558  -12.0064 O   0  0  0  0  0  0  0  0  0  0  0  0
  2  1  1  0
  3  2  2  0
  4  3  1  0
  5  4  2  0
  5 11  1  0
  6  5  1  0
  7  6  1  0
  7  8  1  6
  9  7  1  0
  9 10  2  0
 11 12  2  0
 12  2  1  0
 13  9  1  0
 14 13  1  0
 14 15  1  1
 16 15  1  0
 16 17  2  0
 18 17  1  0
 19 18  1  0
 20 19  2  0
 21 20  1  0
 22 21  2  0
 22 23  1  0
 23 24  2  0
 24 19  1  0
 24 16  1  0
 25 14  1  0
 26 25  2  0
 27 25  1  0
 28 27  1  0
 28 29  1  6
 29 30  1  0
 31 28  1  0
 31 32  1  0
 33 31  2  0
M  END
$$$$
