YWC.pdb
     RDKit          3D

 33 35  0  0  1  0  0  0  0  0999 V2000
   28.9559  -16.7274  -18.6674 O   0  0  0  0  0  0  0  0  0  0  0  0
   28.2509  -17.3265  -17.6241 C   0  0  0  0  0  0  0  0  0  0  0  0
   27.1551  -18.1290  -17.8499 C   0  0  0  0  0  0  0  0  0  0  0  0
   26.5220  -18.6776  -16.7644 C   0  0  0  0  0  0  0  0  0  0  0  0
   26.9334  -18.4620  -15.4546 C   0  0  0  0  0  0  0  0  0  0  0  0
   26.1967  -19.0927  -14.3117 C   0  0  0  0  0  0  0  0  0  0  0  0
   27.0311  -20.2584  -13.8209 C   0  0  2  0  0  0  0  0  0  0  0  0
   27.0315  -21.2814  -14.7942 N   0  0  0  0  0  0  0  0  0  0  0  0
   26.5453  -20.6318  -12.4908 C   0  0  0  0  0  0  0  0  0  0  0  0
   25.6489  -21.5157  -12.4320 O   0  0  0  0  0  0  0  0  0  0  0  0
   28.0333  -17.6538  -15.2633 C   0  0  0  0  0  0  0  0  0  0  0  0
   28.7072  -17.0752  -16.3424 C   0  0  0  0  0  0  0  0  0  0  0  0
   26.9950  -20.0864  -11.2678 N   0  0  0  0  0  0  0  0  0  0  0  0
   26.4233  -20.4809   -9.9986 C   0  0  1  0  0  0  0  0  0  0  0  0
   27.1285  -19.7615   -8.8598 C   0  0  0  0  0  0  0  0  0  0  0  0
   26.6626  -20.3410   -7.5733 C   0  0  0  0  0  0  0  0  0  0  0  0
   25.6138  -21.2035   -7.4034 C   0  0  0  0  0  0  0  0  0  0  0  0
   25.5244  -21.4875   -6.0947 N   0  0  0  0  0  0  0  0  0  0  0  0
   26.4890  -20.8271   -5.4333 C   0  0  0  0  0  0  0  0  0  0  0  0
   26.8295  -20.7734   -4.0964 C   0  0  0  0  0  0  0  0  0  0  0  0
   27.8832  -20.0086   -3.6404 C   0  0  0  0  0  0  0  0  0  0  0  0
   28.6149  -19.2739   -4.5766 C   0  0  0  0  0  0  0  0  0  0  0  0
   28.2848  -19.3192   -5.9154 C   0  0  0  0  0  0  0  0  0  0  0  0
   27.2125  -20.1039   -6.3393 C   0  0  0  0  0  0  0  0  0  0  0  0
   24.9749  -20.0510  -10.0266 C   0  0  0  0  0  0  0  0  0  0  0  0
   24.6690  -18.8351  -10.0882 O   0  0  0  0  0  0  0  0  0  0  0  0
   23.9333  -21.0083   -9.9840 N   0  0  0  0  0  0  0  0  0  0  0  0
   22.5403  -20.7577  -10.2583 C   0  0  1  0  0  0  0  0  0  0  0  0
   22.1847  -21.1011  -11.6734 C   0  0  0  0  0  0  0  0  0  0  0  0
   21.1912  -22.5804  -11.8170 S   0  0  0  0  0  0  0  0  0  0  0  0
   21.6148  -21.3622   -9.2560 C   0  0  0  0  0  0  0  0  0  0  0  0
   20.3240  -20.9174   -9.0917 O   0  0  0  0  0  0  0  0  0  0  0  0
   21.9886  -22.3117   -8.5219 O   0  0  0  0  0  0  0  0  0  0  0  0
  2  1  1  0
  3  2  2  0
  4  3  1  0
  5  4  2  0
  5 11  1  0
  6  5  1  0
  7  6  1  0
  7  8  1  6
  9  7  1  0
  9 10  2  0
 11 12  2  0
 12  2  1  0
 13  9  1  0
 14 13  1  0
 14 15  1  1
 16 15  1  0
 16 17  2  0
 18 17  1  0
 19 18  1  0
 20 19  2  0
 21 20  1  0
 22 21  2  0
 22 23  1  0
 23 24  2  0
 24 19  1  0
 24 16  1  0
 25 14  1  0
 26 25  2  0
 27 25  1  0
 28 27  1  0
 28 29  1  6
 29 30  1  0
 31 28  1  0
 31 32  1  0
 33 31  2  0
M  END
$$$$
