YWC.pdb
     RDKit          3D

 33 35  0  0  1  0  0  0  0  0999 V2000
   19.4173  -17.6050  -16.3161 O   0  0  0  0  0  0  0  0  0  0  0  0
   20.1615  -18.2954  -15.3601 C   0  0  0  0  0  0  0  0  0  0  0  0
   20.5511  -17.7102  -14.1762 C   0  0  0  0  0  0  0  0  0  0  0  0
   21.2809  -18.4637  -13.2931 C   0  0  0  0  0  0  0  0  0  0  0  0
   21.6430  -19.7831  -13.5370 C   0  0  0  0  0  0  0  0  0  0  0  0
   22.4420  -20.5520  -12.5285 C   0  0  0  0  0  0  0  0  0  0  0  0
   23.8928  -20.1465  -12.6930 C   0  0  2  0  0  0  0  0  0  0  0  0
   24.3610  -20.5703  -13.9559 N   0  0  0  0  0  0  0  0  0  0  0  0
   24.6332  -20.6403  -11.5301 C   0  0  0  0  0  0  0  0  0  0  0  0
   24.8875  -21.8740  -11.4902 O   0  0  0  0  0  0  0  0  0  0  0  0
   21.2374  -20.3387  -14.7313 C   0  0  0  0  0  0  0  0  0  0  0  0
   20.4921  -19.6052  -15.6587 C   0  0  0  0  0  0  0  0  0  0  0  0
   25.0872  -19.8527  -10.4489 N   0  0  0  0  0  0  0  0  0  0  0  0
   25.8400  -20.4212   -9.3519 C   0  0  1  0  0  0  0  0  0  0  0  0
   26.7999  -19.3880   -8.7837 C   0  0  0  0  0  0  0  0  0  0  0  0
   27.7006  -20.0620   -7.8130 C   0  0  0  0  0  0  0  0  0  0  0  0
   28.3008  -21.2813   -7.9732 C   0  0  0  0  0  0  0  0  0  0  0  0
   29.0302  -21.5270   -6.8737 N   0  0  0  0  0  0  0  0  0  0  0  0
   28.9065  -20.4949   -6.0230 C   0  0  0  0  0  0  0  0  0  0  0  0
   29.4411  -20.2514   -4.7735 C   0  0  0  0  0  0  0  0  0  0  0  0
   29.1664  -19.0949   -4.0735 C   0  0  0  0  0  0  0  0  0  0  0  0
   28.3191  -18.1546   -4.6651 C   0  0  0  0  0  0  0  0  0  0  0  0
   27.7786  -18.3862   -5.9130 C   0  0  0  0  0  0  0  0  0  0  0  0
   28.0792  -19.5674   -6.5910 C   0  0  0  0  0  0  0  0  0  0  0  0
   24.8347  -20.7931   -8.2868 C   0  0  0  0  0  0  0  0  0  0  0  0
   23.9695  -19.9668   -7.9066 O   0  0  0  0  0  0  0  0  0  0  0  0
   24.8467  -22.0789   -7.6955 N   0  0  0  0  0  0  0  0  0  0  0  0
   24.0138  -22.5171   -6.6033 C   0  0  1  0  0  0  0  0  0  0  0  0
   24.2458  -23.9614   -6.2757 C   0  0  0  0  0  0  0  0  0  0  0  0
   23.2085  -24.5646   -4.9505 S   0  0  0  0  0  0  0  0  0  0  0  0
   24.0758  -21.6257   -5.4083 C   0  0  0  0  0  0  0  0  0  0  0  0
   22.9834  -21.4071   -4.6021 O   0  0  0  0  0  0  0  0  0  0  0  0
   25.1429  -21.0403   -5.0938 O   0  0  0  0  0  0  0  0  0  0  0  0
  2  1  1  0
  3  2  2  0
  4  3  1  0
  5  4  2  0
  5 11  1  0
  6  5  1  0
  7  6  1  0
  7  8  1  6
  9  7  1  0
  9 10  2  0
 11 12  2  0
 12  2  1  0
 13  9  1  0
 14 13  1  0
 14 15  1  1
 16 15  1  0
 16 17  2  0
 18 17  1  0
 19 18  1  0
 20 19  2  0
 21 20  1  0
 22 21  2  0
 22 23  1  0
 23 24  2  0
 24 19  1  0
 24 16  1  0
 25 14  1  0
 26 25  2  0
 27 25  1  0
 28 27  1  0
 28 29  1  1
 29 30  1  0
 31 28  1  0
 31 32  1  0
 33 31  2  0
M  END
$$$$
