YWC.pdb
     RDKit          3D

 33 35  0  0  1  0  0  0  0  0999 V2000
   27.4269  -15.2196  -19.8748 O   0  0  0  0  0  0  0  0  0  0  0  0
   26.9250  -16.2224  -19.0460 C   0  0  0  0  0  0  0  0  0  0  0  0
   26.3102  -15.9385  -17.8471 C   0  0  0  0  0  0  0  0  0  0  0  0
   25.8458  -16.9872  -17.0956 C   0  0  0  0  0  0  0  0  0  0  0  0
   25.9665  -18.3154  -17.4864 C   0  0  0  0  0  0  0  0  0  0  0  0
   25.4363  -19.4157  -16.6176 C   0  0  0  0  0  0  0  0  0  0  0  0
   26.4678  -19.6811  -15.5398 C   0  0  2  0  0  0  0  0  0  0  0  0
   27.6484  -20.1830  -16.1296 N   0  0  0  0  0  0  0  0  0  0  0  0
   25.8453  -20.5266  -14.5189 C   0  0  0  0  0  0  0  0  0  0  0  0
   25.6418  -21.7342  -14.8165 O   0  0  0  0  0  0  0  0  0  0  0  0
   26.5870  -18.5650  -18.6915 C   0  0  0  0  0  0  0  0  0  0  0  0
   27.0743  -17.5248  -19.4878 C   0  0  0  0  0  0  0  0  0  0  0  0
   25.4532  -20.1051  -13.2289 N   0  0  0  0  0  0  0  0  0  0  0  0
   24.8790  -21.0207  -12.2671 C   0  0  1  0  0  0  0  0  0  0  0  0
   25.1544  -20.5359  -10.8526 C   0  0  0  0  0  0  0  0  0  0  0  0
   26.5612  -20.8647  -10.5050 C   0  0  0  0  0  0  0  0  0  0  0  0
   27.4563  -21.5374  -11.2917 C   0  0  0  0  0  0  0  0  0  0  0  0
   28.6115  -21.6267  -10.6143 N   0  0  0  0  0  0  0  0  0  0  0  0
   28.4697  -21.0281   -9.4202 C   0  0  0  0  0  0  0  0  0  0  0  0
   29.3396  -20.8440   -8.3639 C   0  0  0  0  0  0  0  0  0  0  0  0
   28.9626  -20.1835   -7.2130 C   0  0  0  0  0  0  0  0  0  0  0  0
   27.6564  -19.6940   -7.1345 C   0  0  0  0  0  0  0  0  0  0  0  0
   26.7777  -19.8715   -8.1831 C   0  0  0  0  0  0  0  0  0  0  0  0
   27.1947  -20.5445   -9.3313 C   0  0  0  0  0  0  0  0  0  0  0  0
   23.3867  -21.0147  -12.5045 C   0  0  0  0  0  0  0  0  0  0  0  0
   22.7338  -19.9440  -12.4489 O   0  0  0  0  0  0  0  0  0  0  0  0
   22.6936  -22.2142  -12.7942 N   0  0  0  0  0  0  0  0  0  0  0  0
   21.2633  -22.3625  -12.8984 C   0  0  1  0  0  0  0  0  0  0  0  0
   20.8560  -23.8051  -12.9081 C   0  0  0  0  0  0  0  0  0  0  0  0
   19.0880  -24.0430  -13.0246 S   0  0  0  0  0  0  0  0  0  0  0  0
   20.5031  -21.5434  -11.9096 C   0  0  0  0  0  0  0  0  0  0  0  0
   19.4547  -20.7352  -12.2822 O   0  0  0  0  0  0  0  0  0  0  0  0
   20.7980  -21.5679  -10.6879 O   0  0  0  0  0  0  0  0  0  0  0  0
  2  1  1  0
  3  2  2  0
  4  3  1  0
  5  4  2  0
  5 11  1  0
  6  5  1  0
  7  6  1  0
  7  8  1  6
  9  7  1  0
  9 10  2  0
 11 12  2  0
 12  2  1  0
 13  9  1  0
 14 13  1  0
 14 15  1  1
 16 15  1  0
 16 17  2  0
 18 17  1  0
 19 18  1  0
 20 19  2  0
 21 20  1  0
 22 21  2  0
 22 23  1  0
 23 24  2  0
 24 19  1  0
 24 16  1  0
 25 14  1  0
 26 25  2  0
 27 25  1  0
 28 27  1  0
 28 29  1  1
 29 30  1  0
 31 28  1  0
 31 32  1  0
 33 31  2  0
M  END
$$$$
