YWC.pdb
     RDKit          3D

 33 35  0  0  1  0  0  0  0  0999 V2000
   23.5594  -40.9747  -14.7343 O   0  0  0  0  0  0  0  0  0  0  0  0
   24.1159  -39.7570  -14.3447 C   0  0  0  0  0  0  0  0  0  0  0  0
   25.0868  -39.1265  -15.0902 C   0  0  0  0  0  0  0  0  0  0  0  0
   25.5779  -37.9311  -14.6319 C   0  0  0  0  0  0  0  0  0  0  0  0
   25.1431  -37.3305  -13.4565 C   0  0  0  0  0  0  0  0  0  0  0  0
   25.7213  -36.0212  -13.0115 C   0  0  0  0  0  0  0  0  0  0  0  0
   24.7856  -34.9269  -13.4839 C   0  0  2  0  0  0  0  0  0  0  0  0
   25.2366  -34.4226  -14.7232 N   0  0  0  0  0  0  0  0  0  0  0  0
   24.6496  -33.9515  -12.4001 C   0  0  0  0  0  0  0  0  0  0  0  0
   25.3743  -32.9221  -12.4570 O   0  0  0  0  0  0  0  0  0  0  0  0
   24.1705  -37.9876  -12.7340 C   0  0  0  0  0  0  0  0  0  0  0  0
   23.6434  -39.2078  -13.1661 C   0  0  0  0  0  0  0  0  0  0  0  0
   23.7757  -34.0652  -11.2960 N   0  0  0  0  0  0  0  0  0  0  0  0
   23.6705  -33.0267  -10.2941 C   0  0  1  0  0  0  0  0  0  0  0  0
   22.2103  -32.6829  -10.0467 C   0  0  0  0  0  0  0  0  0  0  0  0
   21.7357  -31.8099  -11.1516 C   0  0  0  0  0  0  0  0  0  0  0  0
   21.2979  -32.2214  -12.3810 C   0  0  0  0  0  0  0  0  0  0  0  0
   20.9607  -31.1284  -13.0831 N   0  0  0  0  0  0  0  0  0  0  0  0
   21.1741  -30.0372  -12.3296 C   0  0  0  0  0  0  0  0  0  0  0  0
   20.9938  -28.6901  -12.5728 C   0  0  0  0  0  0  0  0  0  0  0  0
   21.2887  -27.7304  -11.6267 C   0  0  0  0  0  0  0  0  0  0  0  0
   21.7836  -28.1561  -10.3916 C   0  0  0  0  0  0  0  0  0  0  0  0
   21.9682  -29.4992  -10.1362 C   0  0  0  0  0  0  0  0  0  0  0  0
   21.6588  -30.4409  -11.1174 C   0  0  0  0  0  0  0  0  0  0  0  0
   24.2621  -33.5923   -9.0239 C   0  0  0  0  0  0  0  0  0  0  0  0
   23.8746  -34.6985   -8.5744 O   0  0  0  0  0  0  0  0  0  0  0  0
   25.2642  -32.8885   -8.3144 N   0  0  0  0  0  0  0  0  0  0  0  0
   25.9750  -33.3658   -7.1544 C   0  0  1  0  0  0  0  0  0  0  0  0
   27.2618  -32.6244   -6.9504 C   0  0  0  0  0  0  0  0  0  0  0  0
   28.1027  -32.2279   -8.4774 S   0  0  0  0  0  0  0  0  0  0  0  0
   25.1343  -33.4344   -5.9236 C   0  0  0  0  0  0  0  0  0  0  0  0
   25.6160  -33.9343   -4.7365 O   0  0  0  0  0  0  0  0  0  0  0  0
   23.9442  -33.0299   -5.9310 O   0  0  0  0  0  0  0  0  0  0  0  0
  2  1  1  0
  3  2  2  0
  4  3  1  0
  5  4  2  0
  5 11  1  0
  6  5  1  0
  7  6  1  0
  7  8  1  6
  9  7  1  0
  9 10  2  0
 11 12  2  0
 12  2  1  0
 13  9  1  0
 14 13  1  0
 14 15  1  1
 16 15  1  0
 16 17  2  0
 18 17  1  0
 19 18  1  0
 20 19  2  0
 21 20  1  0
 22 21  2  0
 22 23  1  0
 23 24  2  0
 24 19  1  0
 24 16  1  0
 25 14  1  0
 26 25  2  0
 27 25  1  0
 28 27  1  0
 28 29  1  1
 29 30  1  0
 31 28  1  0
 31 32  1  0
 33 31  2  0
M  END
$$$$
