HIL.pdb
     RDKit          3D

 27 27  0  0  1  0  0  0  0  0999 V2000
   12.3293  -17.6498   19.2323 N   0  0  0  0  0  0  0  0  0  0  0  0
   11.2820  -18.0087   20.1643 C   0  0  1  0  0  0  0  0  0  0  0  0
   11.7562  -19.2216   20.9379 C   0  0  0  0  0  0  0  0  0  0  0  0
   11.6391  -20.3904   20.0264 C   0  0  0  0  0  0  0  0  0  0  0  0
   10.7628  -20.5069   18.9598 C   0  0  0  0  0  0  0  0  0  0  0  0
   10.9359  -21.7023   18.3581 N   0  0  0  0  0  0  0  0  0  0  0  0
   11.9082  -22.3392   19.0308 C   0  0  0  0  0  0  0  0  0  0  0  0
   12.3278  -21.5483   20.0317 N   0  0  0  0  0  0  0  0  0  0  0  0
   10.9740  -16.8690   21.0746 C   0  0  0  0  0  0  0  0  0  0  0  0
   11.9278  -16.2696   21.6089 O   0  0  0  0  0  0  0  0  0  0  0  0
    6.7631  -13.5269   20.0031 C   0  0  0  0  0  0  0  0  0  0  0  0
    8.1044  -14.0376   20.4568 C   0  0  0  0  0  0  0  0  0  0  0  0
    7.9933  -14.7398   21.8167 C   0  0  2  0  0  0  0  0  0  0  0  0
    7.5960  -13.7111   22.8561 C   0  0  0  0  0  0  0  0  0  0  0  0
    9.3465  -15.2893   22.2042 C   0  0  2  0  0  0  0  0  0  0  0  0
    9.6560  -16.4486   21.3504 N   0  0  0  0  0  0  0  0  0  0  0  0
    9.4351  -15.6626   23.6106 C   0  0  0  0  0  0  0  0  0  0  0  0
    9.0098  -16.8514   23.8936 O   0  0  0  0  0  0  0  0  0  0  0  0
   11.1207  -14.8134   29.0860 C   0  0  0  0  0  0  0  0  0  0  0  0
    9.8176  -14.4990   28.4393 C   0  0  1  0  0  0  0  0  0  0  0  0
    9.2642  -13.2537   29.1133 C   0  0  0  0  0  0  0  0  0  0  0  0
    9.9402  -14.2373   26.9924 C   0  0  0  0  0  0  0  0  0  0  0  0
    9.8882  -15.4272   26.0843 C   0  0  2  0  0  0  0  0  0  0  0  0
    9.9130  -14.9375   24.7002 N   0  0  0  0  0  0  0  0  0  0  0  0
    8.7489  -16.3260   26.2454 C   0  0  0  0  0  0  0  0  0  0  0  0
    8.8808  -17.4514   26.7894 O   0  0  0  0  0  0  0  0  0  0  0  0
    7.4866  -15.9780   25.8065 O   0  0  0  0  0  0  0  0  0  0  0  0
  2  1  1  6
  3  2  1  0
  4  3  1  0
  4  8  1  0
  5  6  1  0
  5  4  2  0
  6  7  1  0
  7  8  2  0
  9  2  1  0
 10  9  2  0
 12 11  1  0
 13 12  1  0
 13 14  1  1
 15 13  1  0
 15 16  1  6
 16  9  1  0
 17 15  1  0
 18 17  2  0
 20 19  1  1
 21 20  1  0
 22 20  1  0
 23 22  1  1
 23 24  1  0
 24 17  1  0
 25 27  1  0
 25 23  1  0
 26 25  2  0
M  END
$$$$
