HIL.pdb
     RDKit          3D

 27 27  0  0  1  0  0  0  0  0999 V2000
   12.3866  -17.5039   19.4495 N   0  0  0  0  0  0  0  0  0  0  0  0
   12.0985  -17.6748   20.8573 C   0  0  1  0  0  0  0  0  0  0  0  0
   13.4123  -17.9410   21.5626 C   0  0  0  0  0  0  0  0  0  0  0  0
   13.7299  -19.3792   21.3595 C   0  0  0  0  0  0  0  0  0  0  0  0
   12.8547  -20.4389   21.5331 C   0  0  0  0  0  0  0  0  0  0  0  0
   13.4866  -21.5996   21.2599 N   0  0  0  0  0  0  0  0  0  0  0  0
   14.7464  -21.2852   20.9171 C   0  0  0  0  0  0  0  0  0  0  0  0
   14.8886  -19.9512   20.9781 N   0  0  0  0  0  0  0  0  0  0  0  0
   11.4214  -16.4656   21.4067 C   0  0  0  0  0  0  0  0  0  0  0  0
   12.1194  -15.4623   21.6527 O   0  0  0  0  0  0  0  0  0  0  0  0
    7.0093  -14.3598   19.3258 C   0  0  0  0  0  0  0  0  0  0  0  0
    8.2988  -14.5141   20.0868 C   0  0  0  0  0  0  0  0  0  0  0  0
    8.0398  -15.0365   21.5062 C   0  0  2  0  0  0  0  0  0  0  0  0
    7.2567  -13.9861   22.2678 C   0  0  0  0  0  0  0  0  0  0  0  0
    9.3610  -15.2306   22.2131 C   0  0  2  0  0  0  0  0  0  0  0  0
   10.0337  -16.4162   21.6557 N   0  0  0  0  0  0  0  0  0  0  0  0
    9.2268  -15.3617   23.6588 C   0  0  0  0  0  0  0  0  0  0  0  0
    9.2736  -16.5737   24.1094 O   0  0  0  0  0  0  0  0  0  0  0  0
    6.6534  -12.5625   27.7263 C   0  0  0  0  0  0  0  0  0  0  0  0
    7.5657  -12.5790   26.5506 C   0  0  1  0  0  0  0  0  0  0  0  0
    7.9525  -11.1387   26.2549 C   0  0  0  0  0  0  0  0  0  0  0  0
    8.7960  -13.3588   26.7862 C   0  0  0  0  0  0  0  0  0  0  0  0
    8.9141  -14.6673   26.0670 C   0  0  2  0  0  0  0  0  0  0  0  0
    9.0605  -14.3809   24.6343 N   0  0  0  0  0  0  0  0  0  0  0  0
    7.8194  -15.6163   26.2480 C   0  0  0  0  0  0  0  0  0  0  0  0
    7.7347  -16.3208   27.2856 O   0  0  0  0  0  0  0  0  0  0  0  0
    6.8384  -15.7790   25.2896 O   0  0  0  0  0  0  0  0  0  0  0  0
  2  1  1  6
  3  2  1  0
  4  3  1  0
  4  8  1  0
  5  6  1  0
  5  4  2  0
  6  7  1  0
  7  8  2  0
  9  2  1  0
 10  9  2  0
 12 11  1  0
 13 12  1  0
 13 14  1  1
 15 13  1  0
 15 16  1  6
 16  9  1  0
 17 15  1  0
 18 17  2  0
 20 19  1  1
 21 20  1  0
 22 20  1  0
 23 22  1  1
 23 24  1  0
 24 17  1  0
 25 27  1  0
 25 23  1  0
 26 25  2  0
M  END
$$$$
