HIL.pdb
     RDKit          3D

 27 27  0  0  1  0  0  0  0  0999 V2000
   11.0114  -18.1022   19.0743 N   0  0  0  0  0  0  0  0  0  0  0  0
   10.5008  -18.2411   20.4213 C   0  0  1  0  0  0  0  0  0  0  0  0
   11.4755  -19.1081   21.1911 C   0  0  0  0  0  0  0  0  0  0  0  0
   11.4343  -20.4601   20.5739 C   0  0  0  0  0  0  0  0  0  0  0  0
   10.3013  -21.1119   20.1152 C   0  0  0  0  0  0  0  0  0  0  0  0
   10.6416  -22.3196   19.6185 N   0  0  0  0  0  0  0  0  0  0  0  0
   11.9721  -22.4368   19.7583 C   0  0  0  0  0  0  0  0  0  0  0  0
   12.4444  -21.3183   20.3323 N   0  0  0  0  0  0  0  0  0  0  0  0
   10.3369  -16.9054   21.0626 C   0  0  0  0  0  0  0  0  0  0  0  0
   11.3589  -16.2187   21.2589 O   0  0  0  0  0  0  0  0  0  0  0  0
    6.6207  -13.5534   19.3787 C   0  0  0  0  0  0  0  0  0  0  0  0
    7.8203  -14.2430   19.9712 C   0  0  0  0  0  0  0  0  0  0  0  0
    7.6549  -14.4286   21.4854 C   0  0  2  0  0  0  0  0  0  0  0  0
    7.4995  -13.0620   22.1214 C   0  0  0  0  0  0  0  0  0  0  0  0
    8.9067  -15.0605   22.0483 C   0  0  2  0  0  0  0  0  0  0  0  0
    9.0803  -16.3956   21.4513 N   0  0  0  0  0  0  0  0  0  0  0  0
    8.8988  -15.1573   23.5029 C   0  0  0  0  0  0  0  0  0  0  0  0
    9.9326  -15.7363   24.0227 O   0  0  0  0  0  0  0  0  0  0  0  0
    5.8357  -11.9213   26.6299 C   0  0  0  0  0  0  0  0  0  0  0  0
    7.0551  -12.6518   26.1890 C   0  0  1  0  0  0  0  0  0  0  0  0
    8.2468  -12.0027   26.8744 C   0  0  0  0  0  0  0  0  0  0  0  0
    7.0293  -14.0838   26.5439 C   0  0  0  0  0  0  0  0  0  0  0  0
    8.0344  -14.9650   25.8683 C   0  0  2  0  0  0  0  0  0  0  0  0
    7.9502  -14.7171   24.4235 N   0  0  0  0  0  0  0  0  0  0  0  0
    7.9143  -16.4003   26.1076 C   0  0  0  0  0  0  0  0  0  0  0  0
    7.2514  -17.1352   25.3328 O   0  0  0  0  0  0  0  0  0  0  0  0
    8.5196  -17.0051   27.1916 O   0  0  0  0  0  0  0  0  0  0  0  0
  2  1  1  6
  3  2  1  0
  4  3  1  0
  4  8  1  0
  5  6  1  0
  5  4  2  0
  6  7  1  0
  7  8  2  0
  9  2  1  0
 10  9  2  0
 12 11  1  0
 13 12  1  0
 13 14  1  1
 15 13  1  0
 15 16  1  6
 16  9  1  0
 17 15  1  0
 18 17  2  0
 20 19  1  1
 21 20  1  0
 22 20  1  0
 23 22  1  1
 23 24  1  0
 24 17  1  0
 25 27  1  0
 25 23  1  0
 26 25  2  0
M  END
$$$$
