HIL.pdb
     RDKit          3D

 27 27  0  0  1  0  0  0  0  0999 V2000
    9.5335  -16.1862   20.1196 N   0  0  0  0  0  0  0  0  0  0  0  0
    8.6485  -16.5018   21.2202 C   0  0  1  0  0  0  0  0  0  0  0  0
    8.6823  -18.0034   21.4164 C   0  0  0  0  0  0  0  0  0  0  0  0
    7.7589  -18.5930   20.4113 C   0  0  0  0  0  0  0  0  0  0  0  0
    7.0991  -17.9027   19.4076 C   0  0  0  0  0  0  0  0  0  0  0  0
    6.3470  -18.7595   18.6857 N   0  0  0  0  0  0  0  0  0  0  0  0
    6.5241  -19.9784   19.2206 C   0  0  0  0  0  0  0  0  0  0  0  0
    7.3725  -19.8744   20.2565 N   0  0  0  0  0  0  0  0  0  0  0  0
    9.0682  -15.7820   22.4563 C   0  0  0  0  0  0  0  0  0  0  0  0
   10.2813  -15.5396   22.6117 O   0  0  0  0  0  0  0  0  0  0  0  0
    5.7863  -12.0337   24.7348 C   0  0  0  0  0  0  0  0  0  0  0  0
    7.0073  -12.7735   24.2577 C   0  0  0  0  0  0  0  0  0  0  0  0
    7.3750  -13.9074   25.2242 C   0  0  2  0  0  0  0  0  0  0  0  0
    7.7904  -13.2942   26.5462 C   0  0  0  0  0  0  0  0  0  0  0  0
    8.5607  -14.6649   24.6733 C   0  0  2  0  0  0  0  0  0  0  0  0
    8.1519  -15.3696   23.4465 N   0  0  0  0  0  0  0  0  0  0  0  0
    9.1356  -15.6065   25.6262 C   0  0  0  0  0  0  0  0  0  0  0  0
    8.3328  -16.5338   26.0381 O   0  0  0  0  0  0  0  0  0  0  0  0
    9.2799  -14.0711   29.8485 C   0  0  0  0  0  0  0  0  0  0  0  0
    9.9961  -14.5114   28.6205 C   0  0  1  0  0  0  0  0  0  0  0  0
   11.3930  -13.9132   28.6695 C   0  0  0  0  0  0  0  0  0  0  0  0
   10.1148  -15.9785   28.5168 C   0  0  0  0  0  0  0  0  0  0  0  0
   10.7973  -16.5161   27.2968 C   0  0  2  0  0  0  0  0  0  0  0  0
   10.4212  -15.6660   26.1602 N   0  0  0  0  0  0  0  0  0  0  0  0
   10.5256  -17.9089   26.9534 C   0  0  0  0  0  0  0  0  0  0  0  0
    9.8066  -18.2067   25.9663 O   0  0  0  0  0  0  0  0  0  0  0  0
   11.0435  -18.9507   27.6975 O   0  0  0  0  0  0  0  0  0  0  0  0
  2  1  1  6
  3  2  1  0
  4  3  1  0
  4  8  1  0
  5  6  1  0
  5  4  2  0
  6  7  1  0
  7  8  2  0
  9  2  1  0
 10  9  2  0
 12 11  1  0
 13 12  1  0
 13 14  1  1
 15 13  1  0
 15 16  1  6
 16  9  1  0
 17 15  1  0
 18 17  2  0
 20 19  1  1
 21 20  1  0
 22 20  1  0
 23 22  1  1
 23 24  1  0
 24 17  1  0
 25 27  1  0
 25 23  1  0
 26 25  2  0
M  END
$$$$
