HIL.pdb
     RDKit          3D

 27 27  0  0  1  0  0  0  0  0999 V2000
    8.6253  -15.1633   20.4044 N   0  0  0  0  0  0  0  0  0  0  0  0
    8.0514  -15.7889   21.5763 C   0  0  1  0  0  0  0  0  0  0  0  0
    8.2757  -17.2817   21.4523 C   0  0  0  0  0  0  0  0  0  0  0  0
    7.4420  -17.7525   20.3148 C   0  0  0  0  0  0  0  0  0  0  0  0
    6.1672  -17.3101   20.0015 C   0  0  0  0  0  0  0  0  0  0  0  0
    5.7180  -17.9574   18.9059 N   0  0  0  0  0  0  0  0  0  0  0  0
    6.6918  -18.8004   18.5257 C   0  0  0  0  0  0  0  0  0  0  0  0
    7.7252  -18.6745   19.3741 N   0  0  0  0  0  0  0  0  0  0  0  0
    8.6712  -15.2470   22.8191 C   0  0  0  0  0  0  0  0  0  0  0  0
    9.9133  -15.1471   22.8608 O   0  0  0  0  0  0  0  0  0  0  0  0
    5.9838  -11.6734   25.8625 C   0  0  0  0  0  0  0  0  0  0  0  0
    7.1050  -12.4191   25.1898 C   0  0  0  0  0  0  0  0  0  0  0  0
    7.5203  -13.6457   26.0131 C   0  0  2  0  0  0  0  0  0  0  0  0
    8.2096  -13.1652   27.2742 C   0  0  0  0  0  0  0  0  0  0  0  0
    8.5180  -14.4600   25.2228 C   0  0  2  0  0  0  0  0  0  0  0  0
    7.9110  -14.8474   23.9383 N   0  0  0  0  0  0  0  0  0  0  0  0
    8.9881  -15.6426   25.9339 C   0  0  0  0  0  0  0  0  0  0  0  0
    8.0706  -16.5001   26.2451 O   0  0  0  0  0  0  0  0  0  0  0  0
   13.4376  -17.8542   24.5260 C   0  0  0  0  0  0  0  0  0  0  0  0
   12.0258  -17.7493   24.9850 C   0  0  1  0  0  0  0  0  0  0  0  0
   11.2742  -18.9446   24.4213 C   0  0  0  0  0  0  0  0  0  0  0  0
   11.8950  -17.7603   26.4547 C   0  0  0  0  0  0  0  0  0  0  0  0
   10.6071  -17.2473   27.0217 C   0  0  2  0  0  0  0  0  0  0  0  0
   10.2771  -15.9964   26.3272 N   0  0  0  0  0  0  0  0  0  0  0  0
   10.5733  -17.0094   28.4619 C   0  0  0  0  0  0  0  0  0  0  0  0
   10.7022  -17.9548   29.2801 O   0  0  0  0  0  0  0  0  0  0  0  0
   10.3966  -15.7417   28.9807 O   0  0  0  0  0  0  0  0  0  0  0  0
  2  1  1  6
  3  2  1  0
  4  3  1  0
  4  8  1  0
  5  6  1  0
  5  4  2  0
  6  7  1  0
  7  8  2  0
  9  2  1  0
 10  9  2  0
 12 11  1  0
 13 12  1  0
 13 14  1  1
 15 13  1  0
 15 16  1  6
 16  9  1  0
 17 15  1  0
 18 17  2  0
 20 19  1  1
 21 20  1  0
 22 20  1  0
 23 22  1  6
 23 24  1  0
 24 17  1  0
 25 27  1  0
 25 23  1  0
 26 25  2  0
M  END
$$$$
