HIL.pdb
     RDKit          3D

 27 27  0  0  1  0  0  0  0  0999 V2000
   10.0184  -16.1710   20.0031 N   0  0  0  0  0  0  0  0  0  0  0  0
    9.2253  -16.7240   21.0798 C   0  0  1  0  0  0  0  0  0  0  0  0
    9.5474  -18.2013   21.1711 C   0  0  0  0  0  0  0  0  0  0  0  0
    8.8975  -18.8596   20.0070 C   0  0  0  0  0  0  0  0  0  0  0  0
    7.5440  -19.1213   19.8703 C   0  0  0  0  0  0  0  0  0  0  0  0
    7.3159  -19.7282   18.6868 N   0  0  0  0  0  0  0  0  0  0  0  0
    8.5061  -19.8520   18.0774 C   0  0  0  0  0  0  0  0  0  0  0  0
    9.4532  -19.3293   18.8731 N   0  0  0  0  0  0  0  0  0  0  0  0
    9.5176  -16.0232   22.3627 C   0  0  0  0  0  0  0  0  0  0  0  0
   10.6888  -15.6523   22.5758 O   0  0  0  0  0  0  0  0  0  0  0  0
    5.9691  -12.5193   24.7910 C   0  0  0  0  0  0  0  0  0  0  0  0
    7.2537  -13.1577   24.3350 C   0  0  0  0  0  0  0  0  0  0  0  0
    7.5328  -14.4489   25.1159 C   0  0  2  0  0  0  0  0  0  0  0  0
    7.7454  -14.0911   26.5730 C   0  0  0  0  0  0  0  0  0  0  0  0
    8.8090  -15.0741   24.6026 C   0  0  2  0  0  0  0  0  0  0  0  0
    8.5274  -15.7673   23.3342 N   0  0  0  0  0  0  0  0  0  0  0  0
    9.4223  -15.9939   25.5530 C   0  0  0  0  0  0  0  0  0  0  0  0
    9.3035  -17.2488   25.2612 O   0  0  0  0  0  0  0  0  0  0  0  0
   10.8583  -14.7922   30.7866 C   0  0  0  0  0  0  0  0  0  0  0  0
   10.4358  -15.1488   29.4048 C   0  0  1  0  0  0  0  0  0  0  0  0
   10.4225  -13.8666   28.5881 C   0  0  0  0  0  0  0  0  0  0  0  0
   11.3444  -16.1127   28.7548 C   0  0  0  0  0  0  0  0  0  0  0  0
   10.8603  -16.7480   27.4877 C   0  0  2  0  0  0  0  0  0  0  0  0
   10.1234  -15.7303   26.7279 N   0  0  0  0  0  0  0  0  0  0  0  0
   10.0182  -17.9324   27.6280 C   0  0  0  0  0  0  0  0  0  0  0  0
    8.7939  -17.8968   27.3454 O   0  0  0  0  0  0  0  0  0  0  0  0
   10.5303  -19.1338   28.0772 O   0  0  0  0  0  0  0  0  0  0  0  0
  2  1  1  6
  3  2  1  0
  4  3  1  0
  4  8  1  0
  5  6  1  0
  5  4  2  0
  6  7  1  0
  7  8  2  0
  9  2  1  0
 10  9  2  0
 12 11  1  0
 13 12  1  0
 13 14  1  1
 15 13  1  0
 15 16  1  6
 16  9  1  0
 17 15  1  0
 18 17  2  0
 20 19  1  1
 21 20  1  0
 22 20  1  0
 23 22  1  1
 23 24  1  0
 24 17  1  0
 25 27  1  0
 25 23  1  0
 26 25  2  0
M  END
$$$$
