HIL.pdb
     RDKit          3D

 27 27  0  0  1  0  0  0  0  0999 V2000
    7.7818  -19.9612   21.5838 N   0  0  0  0  0  0  0  0  0  0  0  0
    7.8198  -18.9968   22.6621 C   0  0  1  0  0  0  0  0  0  0  0  0
    8.6288  -19.6047   23.7892 C   0  0  0  0  0  0  0  0  0  0  0  0
    7.6885  -19.8503   24.9145 C   0  0  0  0  0  0  0  0  0  0  0  0
    6.3891  -19.3793   25.0076 C   0  0  0  0  0  0  0  0  0  0  0  0
    5.8358  -19.7983   26.1650 N   0  0  0  0  0  0  0  0  0  0  0  0
    6.7683  -20.5258   26.8009 C   0  0  0  0  0  0  0  0  0  0  0  0
    7.8793  -20.5548   26.0469 N   0  0  0  0  0  0  0  0  0  0  0  0
    8.4143  -17.7110   22.1977 C   0  0  0  0  0  0  0  0  0  0  0  0
    9.5337  -17.7454   21.6498 O   0  0  0  0  0  0  0  0  0  0  0  0
    6.6151  -13.5095   19.4175 C   0  0  0  0  0  0  0  0  0  0  0  0
    7.5552  -14.4492   20.1238 C   0  0  0  0  0  0  0  0  0  0  0  0
    7.5953  -14.1569   21.6297 C   0  0  2  0  0  0  0  0  0  0  0  0
    8.2256  -12.7944   21.8366 C   0  0  0  0  0  0  0  0  0  0  0  0
    8.4734  -15.1804   22.3113 C   0  0  2  0  0  0  0  0  0  0  0  0
    7.7629  -16.4696   22.3543 N   0  0  0  0  0  0  0  0  0  0  0  0
    8.8815  -14.7861   23.6542 C   0  0  0  0  0  0  0  0  0  0  0  0
    9.8246  -13.9019   23.7067 O   0  0  0  0  0  0  0  0  0  0  0  0
    5.7672  -12.5091   26.4925 C   0  0  0  0  0  0  0  0  0  0  0  0
    7.1137  -12.8920   25.9873 C   0  0  1  0  0  0  0  0  0  0  0  0
    7.9777  -11.6411   26.0025 C   0  0  0  0  0  0  0  0  0  0  0  0
    7.7666  -13.9262   26.8127 C   0  0  0  0  0  0  0  0  0  0  0  0
    8.8900  -14.6867   26.1780 C   0  0  2  0  0  0  0  0  0  0  0  0
    8.4084  -15.2112   24.8939 N   0  0  0  0  0  0  0  0  0  0  0  0
    9.4577  -15.7864   26.9527 C   0  0  0  0  0  0  0  0  0  0  0  0
    9.3981  -16.9718   26.5389 O   0  0  0  0  0  0  0  0  0  0  0  0
   10.0782  -15.5695   28.1673 O   0  0  0  0  0  0  0  0  0  0  0  0
  2  1  1  6
  3  2  1  0
  4  3  1  0
  4  8  1  0
  5  6  1  0
  5  4  2  0
  6  7  1  0
  7  8  2  0
  9  2  1  0
 10  9  2  0
 12 11  1  0
 13 12  1  0
 13 14  1  6
 15 13  1  0
 15 16  1  1
 16  9  1  0
 17 15  1  0
 18 17  2  0
 20 19  1  1
 21 20  1  0
 22 20  1  0
 23 22  1  1
 23 24  1  0
 24 17  1  0
 25 27  1  0
 25 23  1  0
 26 25  2  0
M  END
$$$$
