HIL.pdb
     RDKit          3D

 27 27  0  0  1  0  0  0  0  0999 V2000
    8.4611  -18.5038   20.4170 N   0  0  0  0  0  0  0  0  0  0  0  0
    9.7187  -17.9310   19.9875 C   0  0  1  0  0  0  0  0  0  0  0  0
    9.7205  -17.9189   18.4728 C   0  0  0  0  0  0  0  0  0  0  0  0
   10.3312  -19.2001   18.0296 C   0  0  0  0  0  0  0  0  0  0  0  0
   11.1343  -20.0280   18.7969 C   0  0  0  0  0  0  0  0  0  0  0  0
   11.5075  -21.1011   18.0688 N   0  0  0  0  0  0  0  0  0  0  0  0
   10.9508  -20.9601   16.8549 C   0  0  0  0  0  0  0  0  0  0  0  0
   10.2453  -19.8176   16.8353 N   0  0  0  0  0  0  0  0  0  0  0  0
    9.8888  -16.5581   20.5427 C   0  0  0  0  0  0  0  0  0  0  0  0
   10.9655  -15.9670   20.3285 O   0  0  0  0  0  0  0  0  0  0  0  0
    6.8660  -12.5771   19.5432 C   0  0  0  0  0  0  0  0  0  0  0  0
    8.0582  -13.3626   20.0204 C   0  0  0  0  0  0  0  0  0  0  0  0
    7.9417  -13.6828   21.5166 C   0  0  2  0  0  0  0  0  0  0  0  0
    8.0819  -12.3905   22.2955 C   0  0  0  0  0  0  0  0  0  0  0  0
    9.0796  -14.5913   21.9203 C   0  0  2  0  0  0  0  0  0  0  0  0
    8.8860  -15.9101   21.2940 N   0  0  0  0  0  0  0  0  0  0  0  0
    9.2166  -14.7357   23.3645 C   0  0  0  0  0  0  0  0  0  0  0  0
   10.1603  -14.0324   23.9020 O   0  0  0  0  0  0  0  0  0  0  0  0
    6.1354  -12.8446   26.6207 C   0  0  0  0  0  0  0  0  0  0  0  0
    7.4268  -13.3964   26.1280 C   0  0  1  0  0  0  0  0  0  0  0  0
    8.5417  -12.6719   26.8652 C   0  0  0  0  0  0  0  0  0  0  0  0
    7.5649  -14.8452   26.3705 C   0  0  0  0  0  0  0  0  0  0  0  0
    8.7186  -15.5337   25.7086 C   0  0  2  0  0  0  0  0  0  0  0  0
    8.4833  -15.5121   24.2594 N   0  0  0  0  0  0  0  0  0  0  0  0
    8.9869  -16.9082   26.1217 C   0  0  0  0  0  0  0  0  0  0  0  0
    9.1302  -17.2062   27.3344 O   0  0  0  0  0  0  0  0  0  0  0  0
    9.0958  -17.9312   25.2004 O   0  0  0  0  0  0  0  0  0  0  0  0
  2  1  1  6
  3  2  1  0
  4  3  1  0
  4  8  1  0
  5  6  1  0
  5  4  2  0
  6  7  1  0
  7  8  2  0
  9  2  1  0
 10  9  2  0
 12 11  1  0
 13 12  1  0
 13 14  1  1
 15 13  1  0
 15 16  1  6
 16  9  1  0
 17 15  1  0
 18 17  2  0
 20 19  1  1
 21 20  1  0
 22 20  1  0
 23 22  1  1
 23 24  1  0
 24 17  1  0
 25 27  1  0
 25 23  1  0
 26 25  2  0
M  END
$$$$
