HIL.pdb
     RDKit          3D

 27 27  0  0  1  0  0  0  0  0999 V2000
   10.1221  -16.5258   19.7837 N   0  0  0  0  0  0  0  0  0  0  0  0
    9.3326  -17.0132   20.8943 C   0  0  1  0  0  0  0  0  0  0  0  0
    9.7250  -18.4565   21.1339 C   0  0  0  0  0  0  0  0  0  0  0  0
    9.2288  -19.2396   19.9715 C   0  0  0  0  0  0  0  0  0  0  0  0
    7.9548  -19.7640   19.8269 C   0  0  0  0  0  0  0  0  0  0  0  0
    7.8621  -20.4138   18.6478 N   0  0  0  0  0  0  0  0  0  0  0  0
    9.0592  -20.3057   18.0490 C   0  0  0  0  0  0  0  0  0  0  0  0
    9.8771  -19.6000   18.8468 N   0  0  0  0  0  0  0  0  0  0  0  0
    9.5602  -16.1787   22.1084 C   0  0  0  0  0  0  0  0  0  0  0  0
   10.7332  -15.8712   22.3983 O   0  0  0  0  0  0  0  0  0  0  0  0
    6.4317  -12.4567   25.9731 C   0  0  0  0  0  0  0  0  0  0  0  0
    7.6865  -13.2125   25.6264 C   0  0  0  0  0  0  0  0  0  0  0  0
    7.4246  -14.2268   24.5050 C   0  0  2  0  0  0  0  0  0  0  0  0
    6.4872  -15.2938   25.0335 C   0  0  0  0  0  0  0  0  0  0  0  0
    8.7247  -14.8988   24.1293 C   0  0  2  0  0  0  0  0  0  0  0  0
    8.5074  -15.7291   22.9326 N   0  0  0  0  0  0  0  0  0  0  0  0
    9.2880  -15.7053   25.2053 C   0  0  0  0  0  0  0  0  0  0  0  0
    9.1762  -16.9851   25.0519 O   0  0  0  0  0  0  0  0  0  0  0  0
   11.1083  -14.4899   30.5582 C   0  0  0  0  0  0  0  0  0  0  0  0
   10.4964  -14.6966   29.2174 C   0  0  1  0  0  0  0  0  0  0  0  0
   10.1564  -13.3251   28.6563 C   0  0  0  0  0  0  0  0  0  0  0  0
   11.3977  -15.3827   28.2718 C   0  0  0  0  0  0  0  0  0  0  0  0
   10.7520  -16.2075   27.2013 C   0  0  2  0  0  0  0  0  0  0  0  0
    9.9346  -15.3105   26.3746 N   0  0  0  0  0  0  0  0  0  0  0  0
    9.9234  -17.3250   27.6445 C   0  0  0  0  0  0  0  0  0  0  0  0
   10.4272  -18.3138   28.2348 O   0  0  0  0  0  0  0  0  0  0  0  0
    8.5589  -17.3415   27.4318 O   0  0  0  0  0  0  0  0  0  0  0  0
  2  1  1  6
  3  2  1  0
  4  3  1  0
  4  8  1  0
  5  6  1  0
  5  4  2  0
  6  7  1  0
  7  8  2  0
  9  2  1  0
 10  9  2  0
 12 11  1  0
 13 12  1  0
 13 14  1  1
 15 13  1  0
 15 16  1  6
 16  9  1  0
 17 15  1  0
 18 17  2  0
 20 19  1  1
 21 20  1  0
 22 20  1  0
 23 22  1  1
 23 24  1  0
 24 17  1  0
 25 27  1  0
 25 23  1  0
 26 25  2  0
M  END
$$$$
