HIL.pdb
     RDKit          3D

 27 27  0  0  1  0  0  0  0  0999 V2000
    7.5380  -19.8418   20.9742 N   0  0  0  0  0  0  0  0  0  0  0  0
    7.0961  -18.8671   21.9482 C   0  0  1  0  0  0  0  0  0  0  0  0
    7.1227  -19.5359   23.3070 C   0  0  0  0  0  0  0  0  0  0  0  0
    6.1317  -20.6435   23.2647 C   0  0  0  0  0  0  0  0  0  0  0  0
    4.9524  -20.6538   22.5379 C   0  0  0  0  0  0  0  0  0  0  0  0
    4.3047  -21.8205   22.7393 N   0  0  0  0  0  0  0  0  0  0  0  0
    5.0595  -22.5438   23.5822 C   0  0  0  0  0  0  0  0  0  0  0  0
    6.1556  -21.8338   23.8953 N   0  0  0  0  0  0  0  0  0  0  0  0
    7.9703  -17.6599   21.9189 C   0  0  0  0  0  0  0  0  0  0  0  0
    9.1753  -17.8139   21.6384 O   0  0  0  0  0  0  0  0  0  0  0  0
    6.5502  -13.1089   19.5268 C   0  0  0  0  0  0  0  0  0  0  0  0
    7.3848  -14.2120   20.1204 C   0  0  0  0  0  0  0  0  0  0  0  0
    7.5803  -14.0023   21.6280 C   0  0  2  0  0  0  0  0  0  0  0  0
    8.4124  -12.7527   21.8339 C   0  0  0  0  0  0  0  0  0  0  0  0
    8.3522  -15.1703   22.1961 C   0  0  2  0  0  0  0  0  0  0  0  0
    7.4883  -16.3630   22.1941 N   0  0  0  0  0  0  0  0  0  0  0  0
    8.8653  -14.9233   23.5381 C   0  0  0  0  0  0  0  0  0  0  0  0
    9.4630  -13.7872   23.6996 O   0  0  0  0  0  0  0  0  0  0  0  0
    6.0055  -12.4349   25.8227 C   0  0  0  0  0  0  0  0  0  0  0  0
    7.3499  -13.0625   25.7055 C   0  0  1  0  0  0  0  0  0  0  0  0
    8.2987  -12.2745   26.5943 C   0  0  0  0  0  0  0  0  0  0  0  0
    7.3663  -14.4746   26.1332 C   0  0  0  0  0  0  0  0  0  0  0  0
    8.6778  -15.1923   26.0425 C   0  0  2  0  0  0  0  0  0  0  0  0
    8.8072  -15.7212   24.6789 N   0  0  0  0  0  0  0  0  0  0  0  0
    8.8975  -16.2794   26.9921 C   0  0  0  0  0  0  0  0  0  0  0  0
    8.9366  -16.0634   28.2298 O   0  0  0  0  0  0  0  0  0  0  0  0
    9.0728  -17.5827   26.5703 O   0  0  0  0  0  0  0  0  0  0  0  0
  2  1  1  6
  3  2  1  0
  4  3  1  0
  4  8  1  0
  5  6  1  0
  5  4  2  0
  6  7  1  0
  7  8  2  0
  9  2  1  0
 10  9  2  0
 12 11  1  0
 13 12  1  0
 13 14  1  6
 15 13  1  0
 15 16  1  1
 16  9  1  0
 17 15  1  0
 18 17  2  0
 20 19  1  1
 21 20  1  0
 22 20  1  0
 23 22  1  6
 23 24  1  0
 24 17  1  0
 25 27  1  0
 25 23  1  0
 26 25  2  0
M  END
$$$$
