LAY.pdb
     RDKit          3D

 26 26  0  0  1  0  0  0  0  0999 V2000
    7.2339  -12.3943   17.8386 C   0  0  0  0  0  0  0  0  0  0  0  0
    8.1231  -13.3694   18.5164 C   0  0  1  0  0  0  0  0  0  0  0  0
    9.4409  -12.6598   18.8638 C   0  0  0  0  0  0  0  0  0  0  0  0
    7.6241  -13.9942   19.7609 C   0  0  0  0  0  0  0  0  0  0  0  0
    8.5098  -14.9705   20.4522 C   0  0  2  0  0  0  0  0  0  0  0  0
    8.7583  -16.0901   19.5779 N   0  0  0  0  0  0  0  0  0  0  0  0
    7.7433  -15.4355   21.6669 C   0  0  0  0  0  0  0  0  0  0  0  0
    7.3478  -14.5902   22.5287 O   0  0  0  0  0  0  0  0  0  0  0  0
    6.7867  -18.6992   23.2970 C   0  0  0  0  0  0  0  0  0  0  0  0
    6.7190  -17.1701   23.1359 C   0  0  2  0  0  0  0  0  0  0  0  0
    7.4232  -16.7823   21.9209 N   0  0  0  0  0  0  0  0  0  0  0  0
    7.3094  -16.5532   24.3357 C   0  0  0  0  0  0  0  0  0  0  0  0
    6.8322  -15.5080   24.8300 O   0  0  0  0  0  0  0  0  0  0  0  0
    5.9869  -10.9984   26.4850 O   0  0  0  0  0  0  0  0  0  0  0  0
    6.5419  -12.2700   26.6631 C   0  0  0  0  0  0  0  0  0  0  0  0
    7.8667  -12.4310   27.0128 C   0  0  0  0  0  0  0  0  0  0  0  0
    8.3472  -13.7146   27.1722 C   0  0  0  0  0  0  0  0  0  0  0  0
    7.5461  -14.8386   26.9931 C   0  0  0  0  0  0  0  0  0  0  0  0
    8.1252  -16.1875   27.1602 C   0  0  0  0  0  0  0  0  0  0  0  0
    9.0975  -16.5297   26.0812 C   0  0  2  0  0  0  0  0  0  0  0  0
    8.4376  -17.1543   24.9392 N   0  0  0  0  0  0  0  0  0  0  0  0
   10.2501  -17.3208   26.5370 C   0  0  0  0  0  0  0  0  0  0  0  0
   11.2834  -16.7852   27.3069 O   0  0  0  0  0  0  0  0  0  0  0  0
    6.2307  -14.6560   26.6451 C   0  0  0  0  0  0  0  0  0  0  0  0
    5.7387  -13.3831   26.4829 C   0  0  0  0  0  0  0  0  0  0  0  0
   10.3320  -18.5282   26.2348 O   0  0  0  0  0  0  0  0  0  0  0  0
  2  1  1  1
  3  2  1  0
  4  2  1  0
  5  6  1  6
  5  4  1  0
  7  5  1  0
  8  7  2  0
 10  9  1  1
 10 11  1  0
 11  7  1  0
 12 10  1  0
 12 21  1  0
 13 12  2  0
 15 14  1  0
 16 15  2  0
 17 16  1  0
 18 24  1  0
 18 17  2  0
 19 18  1  0
 20 19  1  1
 20 21  1  0
 20 22  1  0
 22 23  1  0
 24 25  2  0
 25 15  1  0
 26 22  2  0
M  END
$$$$
