LAY.pdb
     RDKit          3D

 26 26  0  0  1  0  0  0  0  0999 V2000
    5.1135  -21.1589   20.0932 C   0  0  0  0  0  0  0  0  0  0  0  0
    5.5000  -20.5636   21.3960 C   0  0  1  0  0  0  0  0  0  0  0  0
    5.6883  -21.7028   22.4096 C   0  0  0  0  0  0  0  0  0  0  0  0
    6.7300  -19.7428   21.4305 C   0  0  0  0  0  0  0  0  0  0  0  0
    7.1177  -19.1256   22.7283 C   0  0  2  0  0  0  0  0  0  0  0  0
    5.9408  -18.6034   23.3777 N   0  0  0  0  0  0  0  0  0  0  0  0
    8.0525  -17.9913   22.3834 C   0  0  0  0  0  0  0  0  0  0  0  0
    9.1834  -18.2386   21.8605 O   0  0  0  0  0  0  0  0  0  0  0  0
    7.9986  -14.2640   22.0648 C   0  0  0  0  0  0  0  0  0  0  0  0
    8.7300  -15.5926   22.3271 C   0  0  2  0  0  0  0  0  0  0  0  0
    7.7505  -16.6347   22.6052 N   0  0  0  0  0  0  0  0  0  0  0  0
    9.6579  -15.3940   23.4532 C   0  0  0  0  0  0  0  0  0  0  0  0
   10.7798  -14.8673   23.2849 O   0  0  0  0  0  0  0  0  0  0  0  0
    4.5667  -12.6405   26.0490 O   0  0  0  0  0  0  0  0  0  0  0  0
    5.8956  -13.0510   26.1979 C   0  0  0  0  0  0  0  0  0  0  0  0
    6.9408  -12.1627   26.0496 C   0  0  0  0  0  0  0  0  0  0  0  0
    8.2266  -12.6368   26.2111 C   0  0  0  0  0  0  0  0  0  0  0  0
    8.4984  -13.9675   26.5151 C   0  0  0  0  0  0  0  0  0  0  0  0
    9.8985  -14.4174   26.6569 C   0  0  0  0  0  0  0  0  0  0  0  0
   10.1802  -15.6613   25.8823 C   0  0  2  0  0  0  0  0  0  0  0  0
    9.2726  -15.8077   24.7489 N   0  0  0  0  0  0  0  0  0  0  0  0
   10.2243  -16.8832   26.6992 C   0  0  0  0  0  0  0  0  0  0  0  0
    9.4305  -18.0010   26.4391 O   0  0  0  0  0  0  0  0  0  0  0  0
    7.4438  -14.8347   26.6582 C   0  0  0  0  0  0  0  0  0  0  0  0
    6.1579  -14.3763   26.5002 C   0  0  0  0  0  0  0  0  0  0  0  0
   10.9980  -16.9489   27.6754 O   0  0  0  0  0  0  0  0  0  0  0  0
  2  1  1  6
  3  2  1  0
  4  2  1  0
  5  6  1  6
  5  4  1  0
  7  5  1  0
  8  7  2  0
 10  9  1  1
 10 11  1  0
 11  7  1  0
 12 10  1  0
 12 21  1  0
 13 12  2  0
 15 14  1  0
 16 15  2  0
 17 16  1  0
 18 24  1  0
 18 17  2  0
 19 18  1  0
 20 19  1  1
 20 21  1  0
 20 22  1  0
 22 23  1  0
 24 25  2  0
 25 15  1  0
 26 22  2  0
M  END
$$$$
