LAY.pdb
     RDKit          3D

 26 26  0  0  1  0  0  0  0  0999 V2000
    7.5742  -12.0356   20.1499 C   0  0  0  0  0  0  0  0  0  0  0  0
    7.6658  -13.4697   19.7811 C   0  0  1  0  0  0  0  0  0  0  0  0
    8.7076  -13.6138   18.6609 C   0  0  0  0  0  0  0  0  0  0  0  0
    8.0392  -14.4238   20.8479 C   0  0  0  0  0  0  0  0  0  0  0  0
    8.1873  -15.8579   20.4774 C   0  0  2  0  0  0  0  0  0  0  0  0
    6.9081  -16.3763   20.0597 N   0  0  0  0  0  0  0  0  0  0  0  0
    8.6357  -16.5649   21.7337 C   0  0  0  0  0  0  0  0  0  0  0  0
    7.7917  -16.8389   22.6426 O   0  0  0  0  0  0  0  0  0  0  0  0
   11.8061  -18.0564   23.1505 C   0  0  0  0  0  0  0  0  0  0  0  0
   10.3430  -17.5867   23.2360 C   0  0  2  0  0  0  0  0  0  0  0  0
    9.9652  -16.9568   21.9778 N   0  0  0  0  0  0  0  0  0  0  0  0
   10.2216  -16.6602   24.3742 C   0  0  0  0  0  0  0  0  0  0  0  0
    9.9666  -15.4482   24.2005 O   0  0  0  0  0  0  0  0  0  0  0  0
    6.7401  -10.8811   26.2609 O   0  0  0  0  0  0  0  0  0  0  0  0
    7.1100  -12.2281   26.3363 C   0  0  0  0  0  0  0  0  0  0  0  0
    6.3669  -13.2110   25.7157 C   0  0  0  0  0  0  0  0  0  0  0  0
    6.7908  -14.5190   25.8314 C   0  0  0  0  0  0  0  0  0  0  0  0
    7.9312  -14.8733   26.5465 C   0  0  0  0  0  0  0  0  0  0  0  0
    8.3221  -16.2943   26.6488 C   0  0  0  0  0  0  0  0  0  0  0  0
    9.7929  -16.4708   26.8288 C   0  0  2  0  0  0  0  0  0  0  0  0
   10.3977  -17.1512   25.6882 N   0  0  0  0  0  0  0  0  0  0  0  0
   10.1728  -17.1062   28.0993 C   0  0  0  0  0  0  0  0  0  0  0  0
   10.4096  -16.3843   29.2697 O   0  0  0  0  0  0  0  0  0  0  0  0
    8.6560  -13.8796   27.1564 C   0  0  0  0  0  0  0  0  0  0  0  0
    8.2455  -12.5724   27.0496 C   0  0  0  0  0  0  0  0  0  0  0  0
   10.2962  -18.3460   28.1600 O   0  0  0  0  0  0  0  0  0  0  0  0
  2  1  1  1
  3  2  1  0
  4  2  1  0
  5  6  1  1
  5  4  1  0
  7  5  1  0
  8  7  2  0
 10  9  1  6
 10 11  1  0
 11  7  1  0
 12 10  1  0
 12 21  1  0
 13 12  2  0
 15 14  1  0
 16 15  2  0
 17 16  1  0
 18 24  1  0
 18 17  2  0
 19 18  1  0
 20 19  1  6
 20 21  1  0
 20 22  1  0
 22 23  1  0
 24 25  2  0
 25 15  1  0
 26 22  2  0
M  END
$$$$
