LAY.pdb
     RDKit          3D

 26 26  0  0  1  0  0  0  0  0999 V2000
    8.2487  -19.5444   16.5943 C   0  0  0  0  0  0  0  0  0  0  0  0
    8.2697  -19.5320   18.0777 C   0  0  1  0  0  0  0  0  0  0  0  0
    9.0479  -20.7662   18.5592 C   0  0  0  0  0  0  0  0  0  0  0  0
    8.8702  -18.3534   18.7396 C   0  0  0  0  0  0  0  0  0  0  0  0
    8.8939  -18.3287   20.2277 C   0  0  2  0  0  0  0  0  0  0  0  0
    7.6152  -18.7649   20.7317 N   0  0  0  0  0  0  0  0  0  0  0  0
    9.1267  -16.8877   20.6133 C   0  0  0  0  0  0  0  0  0  0  0  0
   10.2604  -16.3522   20.4097 O   0  0  0  0  0  0  0  0  0  0  0  0
    7.1675  -13.8614   21.5898 C   0  0  0  0  0  0  0  0  0  0  0  0
    8.4546  -14.7048   21.6129 C   0  0  2  0  0  0  0  0  0  0  0  0
    8.1451  -16.0672   21.1999 N   0  0  0  0  0  0  0  0  0  0  0  0
    9.0143  -14.6554   22.9741 C   0  0  0  0  0  0  0  0  0  0  0  0
    9.4088  -13.5796   23.4753 O   0  0  0  0  0  0  0  0  0  0  0  0
    5.8987  -10.8462   26.6716 O   0  0  0  0  0  0  0  0  0  0  0  0
    6.5386  -12.0824   26.5329 C   0  0  0  0  0  0  0  0  0  0  0  0
    7.8850  -12.2259   26.7978 C   0  0  0  0  0  0  0  0  0  0  0  0
    8.4505  -13.4746   26.6403 C   0  0  0  0  0  0  0  0  0  0  0  0
    7.7135  -14.5807   26.2273 C   0  0  0  0  0  0  0  0  0  0  0  0
    8.3817  -15.8876   26.0594 C   0  0  0  0  0  0  0  0  0  0  0  0
    9.5402  -15.8206   25.1213 C   0  0  2  0  0  0  0  0  0  0  0  0
    9.1077  -15.8478   23.7278 N   0  0  0  0  0  0  0  0  0  0  0  0
   10.5851  -16.8221   25.3814 C   0  0  0  0  0  0  0  0  0  0  0  0
   11.0638  -17.6935   24.4023 O   0  0  0  0  0  0  0  0  0  0  0  0
    6.3753  -14.4159   25.9689 C   0  0  0  0  0  0  0  0  0  0  0  0
    5.7987  -13.1777   26.1215 C   0  0  0  0  0  0  0  0  0  0  0  0
   11.0824  -16.9176   26.5213 O   0  0  0  0  0  0  0  0  0  0  0  0
  2  1  1  6
  3  2  1  0
  4  2  1  0
  5  6  1  1
  5  4  1  0
  7  5  1  0
  8  7  2  0
 10  9  1  1
 10 11  1  0
 11  7  1  0
 12 10  1  0
 12 21  1  0
 13 12  2  0
 15 14  1  0
 16 15  2  0
 17 16  1  0
 18 24  1  0
 18 17  2  0
 19 18  1  0
 20 19  1  1
 20 21  1  0
 20 22  1  0
 22 23  1  0
 24 25  2  0
 25 15  1  0
 26 22  2  0
M  END
$$$$
