LAY.pdb
     RDKit          3D

 26 26  0  0  1  0  0  0  0  0999 V2000
   10.6222  -13.3871   19.4436 C   0  0  0  0  0  0  0  0  0  0  0  0
    9.2264  -13.6132   19.8928 C   0  0  1  0  0  0  0  0  0  0  0  0
    8.4475  -12.2995   19.7257 C   0  0  0  0  0  0  0  0  0  0  0  0
    8.4526  -14.6686   19.2034 C   0  0  0  0  0  0  0  0  0  0  0  0
    8.9231  -16.0745   19.3360 C   0  0  2  0  0  0  0  0  0  0  0  0
    8.1074  -16.9296   18.5096 N   0  0  0  0  0  0  0  0  0  0  0  0
    8.7312  -16.4392   20.7884 C   0  0  0  0  0  0  0  0  0  0  0  0
    7.6088  -16.2400   21.3490 O   0  0  0  0  0  0  0  0  0  0  0  0
    9.7753  -18.9063   23.1264 C   0  0  0  0  0  0  0  0  0  0  0  0
    9.4658  -17.4073   22.9653 C   0  0  2  0  0  0  0  0  0  0  0  0
    9.7389  -17.0041   21.5922 N   0  0  0  0  0  0  0  0  0  0  0  0
   10.2872  -16.6600   23.9326 C   0  0  0  0  0  0  0  0  0  0  0  0
   11.4736  -16.3562   23.6790 O   0  0  0  0  0  0  0  0  0  0  0  0
    4.8523  -12.7886   27.2984 O   0  0  0  0  0  0  0  0  0  0  0  0
    6.1688  -13.1072   26.9486 C   0  0  0  0  0  0  0  0  0  0  0  0
    6.4523  -13.8294   25.8078 C   0  0  0  0  0  0  0  0  0  0  0  0
    7.7737  -14.1073   25.5242 C   0  0  0  0  0  0  0  0  0  0  0  0
    8.8171  -13.6868   26.3438 C   0  0  0  0  0  0  0  0  0  0  0  0
   10.2104  -14.0327   25.9950 C   0  0  0  0  0  0  0  0  0  0  0  0
   10.4884  -15.4923   26.1328 C   0  0  2  0  0  0  0  0  0  0  0  0
    9.7228  -16.2798   25.1718 N   0  0  0  0  0  0  0  0  0  0  0  0
   10.3317  -16.0094   27.5004 C   0  0  0  0  0  0  0  0  0  0  0  0
    9.5053  -17.0888   27.8153 O   0  0  0  0  0  0  0  0  0  0  0  0
    8.5129  -12.9696   27.4742 C   0  0  0  0  0  0  0  0  0  0  0  0
    7.2010  -12.6855   27.7691 C   0  0  0  0  0  0  0  0  0  0  0  0
   10.9547  -15.4760   28.4402 O   0  0  0  0  0  0  0  0  0  0  0  0
  2  1  1  6
  3  2  1  0
  4  2  1  0
  5  6  1  6
  5  4  1  0
  7  5  1  0
  8  7  2  0
 10  9  1  6
 10 11  1  0
 11  7  1  0
 12 10  1  0
 12 21  1  0
 13 12  2  0
 15 14  1  0
 16 15  2  0
 17 16  1  0
 18 24  1  0
 18 17  2  0
 19 18  1  0
 20 19  1  1
 20 21  1  0
 20 22  1  0
 22 23  1  0
 24 25  2  0
 25 15  1  0
 26 22  2  0
M  END
$$$$
