LAY.pdb
     RDKit          3D

 26 26  0  0  1  0  0  0  0  0999 V2000
    7.0934  -12.6872   19.6203 C   0  0  0  0  0  0  0  0  0  0  0  0
    8.3415  -13.4891   19.6026 C   0  0  1  0  0  0  0  0  0  0  0  0
    9.5260  -12.5328   19.3951 C   0  0  0  0  0  0  0  0  0  0  0  0
    8.6439  -14.3030   20.8000 C   0  0  0  0  0  0  0  0  0  0  0  0
    8.7884  -15.7739   20.6225 C   0  0  2  0  0  0  0  0  0  0  0  0
    7.5492  -16.3172   20.1237 N   0  0  0  0  0  0  0  0  0  0  0  0
    9.0695  -16.3303   21.9975 C   0  0  0  0  0  0  0  0  0  0  0  0
    8.2386  -16.1418   22.9397 O   0  0  0  0  0  0  0  0  0  0  0  0
   11.3747  -18.8239   23.5726 C   0  0  0  0  0  0  0  0  0  0  0  0
   10.4053  -17.6312   23.6525 C   0  0  2  0  0  0  0  0  0  0  0  0
   10.2232  -17.0686   22.3210 N   0  0  0  0  0  0  0  0  0  0  0  0
   10.9621  -16.6464   24.5953 C   0  0  0  0  0  0  0  0  0  0  0  0
   11.8337  -15.8245   24.2362 O   0  0  0  0  0  0  0  0  0  0  0  0
    5.2864  -12.9192   26.8185 O   0  0  0  0  0  0  0  0  0  0  0  0
    6.6376  -13.2614   26.7004 C   0  0  0  0  0  0  0  0  0  0  0  0
    7.1032  -13.9779   25.6172 C   0  0  0  0  0  0  0  0  0  0  0  0
    8.4485  -14.2802   25.5656 C   0  0  0  0  0  0  0  0  0  0  0  0
    9.3397  -13.8893   26.5607 C   0  0  0  0  0  0  0  0  0  0  0  0
   10.7659  -14.2604   26.4566 C   0  0  0  0  0  0  0  0  0  0  0  0
   11.0244  -15.6641   26.8922 C   0  0  2  0  0  0  0  0  0  0  0  0
   10.5024  -16.6312   25.9321 N   0  0  0  0  0  0  0  0  0  0  0  0
   10.5731  -15.9638   28.2592 C   0  0  0  0  0  0  0  0  0  0  0  0
   11.0505  -15.2882   29.3830 O   0  0  0  0  0  0  0  0  0  0  0  0
    8.8555  -13.1772   27.6299 C   0  0  0  0  0  0  0  0  0  0  0  0
    7.5177  -12.8692   27.6944 C   0  0  0  0  0  0  0  0  0  0  0  0
    9.7255  -16.8589   28.4502 O   0  0  0  0  0  0  0  0  0  0  0  0
  2  1  1  1
  3  2  1  0
  4  2  1  0
  5  6  1  1
  5  4  1  0
  7  5  1  0
  8  7  2  0
 10  9  1  6
 10 11  1  0
 11  7  1  0
 12 10  1  0
 12 21  1  0
 13 12  2  0
 15 14  1  0
 16 15  2  0
 17 16  1  0
 18 24  1  0
 18 17  2  0
 19 18  1  0
 20 19  1  6
 20 21  1  0
 20 22  1  0
 22 23  1  0
 24 25  2  0
 25 15  1  0
 26 22  2  0
M  END
$$$$
