LAY.pdb
     RDKit          3D

 26 26  0  0  1  0  0  0  0  0999 V2000
    7.5876  -12.3797   18.6846 C   0  0  0  0  0  0  0  0  0  0  0  0
    8.0444  -13.7342   18.2873 C   0  0  1  0  0  0  0  0  0  0  0  0
    9.3040  -13.5832   17.4206 C   0  0  0  0  0  0  0  0  0  0  0  0
    8.3732  -14.6861   19.3706 C   0  0  0  0  0  0  0  0  0  0  0  0
    8.8727  -16.0339   18.9840 C   0  0  2  0  0  0  0  0  0  0  0  0
    7.8396  -16.7359   18.2633 N   0  0  0  0  0  0  0  0  0  0  0  0
    9.1664  -16.7527   20.2787 C   0  0  0  0  0  0  0  0  0  0  0  0
    8.2181  -17.0398   21.0737 O   0  0  0  0  0  0  0  0  0  0  0  0
   12.1807  -18.0741   22.1425 C   0  0  0  0  0  0  0  0  0  0  0  0
   10.6971  -17.6863   22.0111 C   0  0  2  0  0  0  0  0  0  0  0  0
   10.4576  -17.1422   20.6810 N   0  0  0  0  0  0  0  0  0  0  0  0
   10.3790  -16.7135   23.0699 C   0  0  0  0  0  0  0  0  0  0  0  0
   10.9921  -15.6271   23.1589 O   0  0  0  0  0  0  0  0  0  0  0  0
    6.0666  -11.2426   28.1054 O   0  0  0  0  0  0  0  0  0  0  0  0
    6.5308  -12.1937   27.1906 C   0  0  0  0  0  0  0  0  0  0  0  0
    7.6589  -11.9652   26.4299 C   0  0  0  0  0  0  0  0  0  0  0  0
    8.0599  -12.9476   25.5478 C   0  0  0  0  0  0  0  0  0  0  0  0
    7.3695  -14.1475   25.4033 C   0  0  0  0  0  0  0  0  0  0  0  0
    7.8392  -15.1523   24.4274 C   0  0  0  0  0  0  0  0  0  0  0  0
    8.9206  -16.0212   24.9773 C   0  0  2  0  0  0  0  0  0  0  0  0
    9.3612  -17.0148   24.0036 N   0  0  0  0  0  0  0  0  0  0  0  0
    8.5968  -16.6405   26.2711 C   0  0  0  0  0  0  0  0  0  0  0  0
    8.9776  -16.0887   27.4949 O   0  0  0  0  0  0  0  0  0  0  0  0
    6.2495  -14.3544   26.1698 C   0  0  0  0  0  0  0  0  0  0  0  0
    5.8386  -13.3846   27.0525 C   0  0  0  0  0  0  0  0  0  0  0  0
    7.9535  -17.7087   26.3035 O   0  0  0  0  0  0  0  0  0  0  0  0
  2  1  1  1
  3  2  1  0
  4  2  1  0
  5  6  1  1
  5  4  1  0
  7  5  1  0
  8  7  2  0
 10  9  1  6
 10 11  1  0
 11  7  1  0
 12 10  1  0
 12 21  1  0
 13 12  2  0
 15 14  1  0
 16 15  2  0
 17 16  1  0
 18 24  1  0
 18 17  2  0
 19 18  1  0
 20 19  1  6
 20 21  1  0
 20 22  1  0
 22 23  1  0
 24 25  2  0
 25 15  1  0
 26 22  2  0
M  END
$$$$
