LAY.pdb
     RDKit          3D

 26 26  0  0  1  0  0  0  0  0999 V2000
    6.4668  -12.8035   18.6423 C   0  0  0  0  0  0  0  0  0  0  0  0
    7.9063  -13.1407   18.7652 C   0  0  1  0  0  0  0  0  0  0  0  0
    8.6957  -11.8326   18.9276 C   0  0  0  0  0  0  0  0  0  0  0  0
    8.3040  -14.0300   19.8782 C   0  0  0  0  0  0  0  0  0  0  0  0
    9.7537  -14.3189   20.0534 C   0  0  2  0  0  0  0  0  0  0  0  0
   10.3536  -14.5452   18.7617 N   0  0  0  0  0  0  0  0  0  0  0  0
    9.8266  -15.5831   20.8754 C   0  0  0  0  0  0  0  0  0  0  0  0
    9.1132  -15.7023   21.9196 O   0  0  0  0  0  0  0  0  0  0  0  0
   11.7273  -18.8532   20.8422 C   0  0  0  0  0  0  0  0  0  0  0  0
   10.8010  -17.7986   21.4735 C   0  0  2  0  0  0  0  0  0  0  0  0
   10.6540  -16.6760   20.5566 N   0  0  0  0  0  0  0  0  0  0  0  0
   11.3827  -17.3854   22.7617 C   0  0  0  0  0  0  0  0  0  0  0  0
   12.1555  -16.4052   22.8405 O   0  0  0  0  0  0  0  0  0  0  0  0
   10.3759  -14.1579   30.6066 O   0  0  0  0  0  0  0  0  0  0  0  0
   10.4149  -14.6853   29.3115 C   0  0  0  0  0  0  0  0  0  0  0  0
   11.4728  -15.4618   28.8856 C   0  0  0  0  0  0  0  0  0  0  0  0
   11.4450  -15.9494   27.5952 C   0  0  0  0  0  0  0  0  0  0  0  0
   10.3953  -15.6852   26.7202 C   0  0  0  0  0  0  0  0  0  0  0  0
   10.4335  -16.2212   25.3440 C   0  0  0  0  0  0  0  0  0  0  0  0
   11.1927  -17.5024   25.2506 C   0  0  2  0  0  0  0  0  0  0  0  0
   11.0614  -18.1118   23.9311 N   0  0  0  0  0  0  0  0  0  0  0  0
   10.8877  -18.4633   26.3212 C   0  0  0  0  0  0  0  0  0  0  0  0
    9.7659  -19.2929   26.3016 O   0  0  0  0  0  0  0  0  0  0  0  0
    9.3526  -14.9103   27.1642 C   0  0  0  0  0  0  0  0  0  0  0  0
    9.3671  -14.4178   28.4471 C   0  0  0  0  0  0  0  0  0  0  0  0
   11.6508  -18.5603   27.3032 O   0  0  0  0  0  0  0  0  0  0  0  0
  2  1  1  1
  3  2  1  0
  4  2  1  0
  5  6  1  6
  5  4  1  0
  7  5  1  0
  8  7  2  0
 10  9  1  6
 10 11  1  0
 11  7  1  0
 12 10  1  0
 12 21  1  0
 13 12  2  0
 15 14  1  0
 16 15  2  0
 17 16  1  0
 18 24  1  0
 18 17  2  0
 19 18  1  0
 20 19  1  6
 20 21  1  0
 20 22  1  0
 22 23  1  0
 24 25  2  0
 25 15  1  0
 26 22  2  0
M  END
$$$$
