LAY.pdb
     RDKit          3D

 26 26  0  0  1  0  0  0  0  0999 V2000
    8.1644  -19.3305   16.4248 C   0  0  0  0  0  0  0  0  0  0  0  0
    8.0421  -19.3487   17.9032 C   0  0  1  0  0  0  0  0  0  0  0  0
    8.6726  -20.6498   18.4231 C   0  0  0  0  0  0  0  0  0  0  0  0
    8.6644  -18.2345   18.6510 C   0  0  0  0  0  0  0  0  0  0  0  0
    8.5019  -18.2136   20.1304 C   0  0  2  0  0  0  0  0  0  0  0  0
    7.1083  -18.3858   20.4588 N   0  0  0  0  0  0  0  0  0  0  0  0
    8.9637  -16.8476   20.5775 C   0  0  0  0  0  0  0  0  0  0  0  0
   10.1718  -16.4974   20.4000 O   0  0  0  0  0  0  0  0  0  0  0  0
    7.5133  -13.5805   21.6542 C   0  0  0  0  0  0  0  0  0  0  0  0
    8.6462  -14.6224   21.6561 C   0  0  2  0  0  0  0  0  0  0  0  0
    8.1241  -15.9022   21.1956 N   0  0  0  0  0  0  0  0  0  0  0  0
    9.1913  -14.7087   23.0214 C   0  0  0  0  0  0  0  0  0  0  0  0
    9.8672  -13.7771   23.5108 O   0  0  0  0  0  0  0  0  0  0  0  0
    5.6156  -11.0785   26.5826 O   0  0  0  0  0  0  0  0  0  0  0  0
    6.3022  -12.2939   26.4912 C   0  0  0  0  0  0  0  0  0  0  0  0
    7.5868  -12.4293   26.9758 C   0  0  0  0  0  0  0  0  0  0  0  0
    8.2036  -13.6574   26.8524 C   0  0  0  0  0  0  0  0  0  0  0  0
    7.5774  -14.7507   26.2610 C   0  0  0  0  0  0  0  0  0  0  0  0
    8.2986  -16.0346   26.1419 C   0  0  0  0  0  0  0  0  0  0  0  0
    9.4264  -15.9681   25.1670 C   0  0  2  0  0  0  0  0  0  0  0  0
    8.9457  -15.8678   23.7927 N   0  0  0  0  0  0  0  0  0  0  0  0
   10.4156  -17.0460   25.3150 C   0  0  0  0  0  0  0  0  0  0  0  0
   10.8250  -17.8536   24.2533 O   0  0  0  0  0  0  0  0  0  0  0  0
    6.2991  -14.5943   25.7852 C   0  0  0  0  0  0  0  0  0  0  0  0
    5.6726  -13.3766   25.9014 C   0  0  0  0  0  0  0  0  0  0  0  0
   10.9268  -17.2696   26.4306 O   0  0  0  0  0  0  0  0  0  0  0  0
  2  1  1  6
  3  2  1  0
  4  2  1  0
  5  6  1  6
  5  4  1  0
  7  5  1  0
  8  7  2  0
 10  9  1  1
 10 11  1  0
 11  7  1  0
 12 10  1  0
 12 21  1  0
 13 12  2  0
 15 14  1  0
 16 15  2  0
 17 16  1  0
 18 24  1  0
 18 17  2  0
 19 18  1  0
 20 19  1  1
 20 21  1  0
 20 22  1  0
 22 23  1  0
 24 25  2  0
 25 15  1  0
 26 22  2  0
M  END
$$$$
