LAY.pdb
     RDKit          3D

 26 26  0  0  1  0  0  0  0  0999 V2000
    7.6967  -12.5746   20.1542 C   0  0  0  0  0  0  0  0  0  0  0  0
    7.5202  -13.8924   19.4960 C   0  0  1  0  0  0  0  0  0  0  0  0
    8.3097  -13.8826   18.1780 C   0  0  0  0  0  0  0  0  0  0  0  0
    7.9465  -15.0916   20.2497 C   0  0  0  0  0  0  0  0  0  0  0  0
    7.6122  -16.4257   19.6804 C   0  0  2  0  0  0  0  0  0  0  0  0
    6.1800  -16.5500   19.5675 N   0  0  0  0  0  0  0  0  0  0  0  0
    8.1332  -17.4396   20.6703 C   0  0  0  0  0  0  0  0  0  0  0  0
    7.4337  -17.7543   21.6829 O   0  0  0  0  0  0  0  0  0  0  0  0
   10.4905  -20.2545   20.7053 C   0  0  0  0  0  0  0  0  0  0  0  0
    9.7768  -19.1312   21.4783 C   0  0  2  0  0  0  0  0  0  0  0  0
    9.3784  -18.0838   20.5473 N   0  0  0  0  0  0  0  0  0  0  0  0
   10.6953  -18.6279   22.5136 C   0  0  0  0  0  0  0  0  0  0  0  0
   11.8282  -18.1881   22.2182 O   0  0  0  0  0  0  0  0  0  0  0  0
    7.3732  -13.4690   22.6923 O   0  0  0  0  0  0  0  0  0  0  0  0
    8.1108  -14.3782   23.4579 C   0  0  0  0  0  0  0  0  0  0  0  0
    7.4944  -15.2216   24.3591 C   0  0  0  0  0  0  0  0  0  0  0  0
    8.2839  -16.0936   25.0805 C   0  0  0  0  0  0  0  0  0  0  0  0
    9.6665  -16.1477   24.9289 C   0  0  0  0  0  0  0  0  0  0  0  0
   10.4585  -17.0908   25.7449 C   0  0  0  0  0  0  0  0  0  0  0  0
   11.1555  -18.1176   24.9162 C   0  0  2  0  0  0  0  0  0  0  0  0
   10.2877  -18.6433   23.8672 N   0  0  0  0  0  0  0  0  0  0  0  0
   11.7774  -19.1994   25.6941 C   0  0  0  0  0  0  0  0  0  0  0  0
   11.4272  -20.5419   25.5448 O   0  0  0  0  0  0  0  0  0  0  0  0
   10.2596  -15.2997   24.0268 C   0  0  0  0  0  0  0  0  0  0  0  0
    9.4855  -14.4259   23.3015 C   0  0  0  0  0  0  0  0  0  0  0  0
   12.6610  -18.9312   26.5328 O   0  0  0  0  0  0  0  0  0  0  0  0
  2  1  1  1
  3  2  1  0
  4  2  1  0
  5  6  1  1
  5  4  1  0
  7  5  1  0
  8  7  2  0
 10  9  1  6
 10 11  1  0
 11  7  1  0
 12 10  1  0
 12 21  1  0
 13 12  2  0
 15 14  1  0
 16 15  2  0
 17 16  1  0
 18 24  1  0
 18 17  2  0
 19 18  1  0
 20 19  1  1
 20 21  1  0
 20 22  1  0
 22 23  1  0
 24 25  2  0
 25 15  1  0
 26 22  2  0
M  END
$$$$
