LAY.pdb
     RDKit          3D

 26 26  0  0  1  0  0  0  0  0999 V2000
    7.7346  -12.6587   20.1851 C   0  0  0  0  0  0  0  0  0  0  0  0
    7.8204  -13.6627   21.2740 C   0  0  1  0  0  0  0  0  0  0  0  0
    6.9562  -13.1762   22.4475 C   0  0  0  0  0  0  0  0  0  0  0  0
    7.3921  -15.0435   20.9613 C   0  0  0  0  0  0  0  0  0  0  0  0
    7.4500  -16.0535   22.0531 C   0  0  2  0  0  0  0  0  0  0  0  0
    7.3509  -15.3842   23.3266 N   0  0  0  0  0  0  0  0  0  0  0  0
    8.8012  -16.7160   21.9318 C   0  0  0  0  0  0  0  0  0  0  0  0
    9.3706  -16.7918   20.7988 O   0  0  0  0  0  0  0  0  0  0  0  0
   11.1724  -15.5608   22.5252 C   0  0  0  0  0  0  0  0  0  0  0  0
   10.8129  -16.7725   23.4035 C   0  0  2  0  0  0  0  0  0  0  0  0
    9.4994  -17.2725   23.0197 N   0  0  0  0  0  0  0  0  0  0  0  0
   10.8506  -16.3480   24.8131 C   0  0  0  0  0  0  0  0  0  0  0  0
   11.8356  -15.7351   25.2805 O   0  0  0  0  0  0  0  0  0  0  0  0
    6.7347  -11.3095   25.1553 O   0  0  0  0  0  0  0  0  0  0  0  0
    7.1864  -12.4836   25.7671 C   0  0  0  0  0  0  0  0  0  0  0  0
    6.7429  -13.7231   25.3541 C   0  0  0  0  0  0  0  0  0  0  0  0
    7.2310  -14.8390   26.0025 C   0  0  0  0  0  0  0  0  0  0  0  0
    8.1458  -14.7539   27.0480 C   0  0  0  0  0  0  0  0  0  0  0  0
    8.6164  -15.9856   27.7144 C   0  0  0  0  0  0  0  0  0  0  0  0
    9.8671  -16.5236   27.1036 C   0  0  2  0  0  0  0  0  0  0  0  0
    9.7519  -16.6399   25.6535 N   0  0  0  0  0  0  0  0  0  0  0  0
   10.3431  -17.7763   27.7090 C   0  0  0  0  0  0  0  0  0  0  0  0
   10.4356  -18.9756   27.0019 O   0  0  0  0  0  0  0  0  0  0  0  0
    8.5739  -13.5108   27.4433 C   0  0  0  0  0  0  0  0  0  0  0  0
    8.0961  -12.3907   26.8064 C   0  0  0  0  0  0  0  0  0  0  0  0
   10.6855  -17.7944   28.9083 O   0  0  0  0  0  0  0  0  0  0  0  0
  2  1  1  6
  3  2  1  0
  4  2  1  0
  5  6  1  1
  5  4  1  0
  7  5  1  0
  8  7  2  0
 10  9  1  6
 10 11  1  0
 11  7  1  0
 12 10  1  0
 12 21  1  0
 13 12  2  0
 15 14  1  0
 16 15  2  0
 17 16  1  0
 18 24  1  0
 18 17  2  0
 19 18  1  0
 20 19  1  1
 20 21  1  0
 20 22  1  0
 22 23  1  0
 24 25  2  0
 25 15  1  0
 26 22  2  0
M  END
$$$$
