LAY.pdb
     RDKit          3D

 26 26  0  0  1  0  0  0  0  0999 V2000
    7.5482  -12.1002   27.0630 C   0  0  0  0  0  0  0  0  0  0  0  0
    6.8690  -13.2961   26.5068 C   0  0  1  0  0  0  0  0  0  0  0  0
    5.6807  -12.8232   25.6552 C   0  0  0  0  0  0  0  0  0  0  0  0
    7.6748  -14.2050   25.6627 C   0  0  0  0  0  0  0  0  0  0  0  0
    7.0005  -15.4016   25.0891 C   0  0  2  0  0  0  0  0  0  0  0  0
    6.5717  -16.2660   26.1608 N   0  0  0  0  0  0  0  0  0  0  0  0
    8.0453  -16.1052   24.2567 C   0  0  0  0  0  0  0  0  0  0  0  0
    8.5665  -17.1857   24.6744 O   0  0  0  0  0  0  0  0  0  0  0  0
    9.4814  -15.8123   20.7792 C   0  0  0  0  0  0  0  0  0  0  0  0
    9.3838  -16.4414   22.1804 C   0  0  2  0  0  0  0  0  0  0  0  0
    8.4971  -15.6356   23.0093 N   0  0  0  0  0  0  0  0  0  0  0  0
   10.7415  -16.5241   22.7447 C   0  0  0  0  0  0  0  0  0  0  0  0
   11.6676  -17.0944   22.1272 O   0  0  0  0  0  0  0  0  0  0  0  0
    9.7226  -16.2389   30.3086 O   0  0  0  0  0  0  0  0  0  0  0  0
   10.4139  -15.9153   29.1363 C   0  0  0  0  0  0  0  0  0  0  0  0
   11.2204  -16.8378   28.5023 C   0  0  0  0  0  0  0  0  0  0  0  0
   11.8722  -16.4502   27.3495 C   0  0  0  0  0  0  0  0  0  0  0  0
   11.7428  -15.1724   26.8130 C   0  0  0  0  0  0  0  0  0  0  0  0
   12.4821  -14.8128   25.5856 C   0  0  0  0  0  0  0  0  0  0  0  0
   12.3647  -15.8531   24.5222 C   0  0  2  0  0  0  0  0  0  0  0  0
   11.0018  -15.9479   24.0091 N   0  0  0  0  0  0  0  0  0  0  0  0
   12.8884  -17.1718   24.9085 C   0  0  0  0  0  0  0  0  0  0  0  0
   12.1013  -18.3236   24.9386 O   0  0  0  0  0  0  0  0  0  0  0  0
   10.9354  -14.2699   27.4598 C   0  0  0  0  0  0  0  0  0  0  0  0
   10.2802  -14.6423   28.6090 C   0  0  0  0  0  0  0  0  0  0  0  0
   14.0878  -17.2930   25.2288 O   0  0  0  0  0  0  0  0  0  0  0  0
  2  1  1  6
  3  2  1  0
  4  2  1  0
  5  6  1  1
  5  4  1  0
  7  5  1  0
  8  7  2  0
 10  9  1  6
 10 11  1  0
 11  7  1  0
 12 10  1  0
 12 21  1  0
 13 12  2  0
 15 14  1  0
 16 15  2  0
 17 16  1  0
 18 24  1  0
 18 17  2  0
 19 18  1  0
 20 19  1  1
 20 21  1  0
 20 22  1  0
 22 23  1  0
 24 25  2  0
 25 15  1  0
 26 22  2  0
M  END
$$$$
