LAY.pdb
     RDKit          3D

 26 26  0  0  1  0  0  0  0  0999 V2000
    6.8152  -12.8541   17.7596 C   0  0  0  0  0  0  0  0  0  0  0  0
    7.5464  -13.9289   18.4745 C   0  0  1  0  0  0  0  0  0  0  0  0
    8.8659  -14.1905   17.7321 C   0  0  0  0  0  0  0  0  0  0  0  0
    7.8856  -13.6924   19.8946 C   0  0  0  0  0  0  0  0  0  0  0  0
    8.4674  -14.8233   20.6681 C   0  0  2  0  0  0  0  0  0  0  0  0
    7.6231  -15.9834   20.5234 N   0  0  0  0  0  0  0  0  0  0  0  0
    8.4740  -14.3772   22.1104 C   0  0  0  0  0  0  0  0  0  0  0  0
    9.1085  -13.3294   22.4469 O   0  0  0  0  0  0  0  0  0  0  0  0
    6.6883  -15.1562   25.3151 C   0  0  0  0  0  0  0  0  0  0  0  0
    7.8842  -14.5990   24.5226 C   0  0  2  0  0  0  0  0  0  0  0  0
    7.8042  -15.0600   23.1428 N   0  0  0  0  0  0  0  0  0  0  0  0
    9.1229  -15.0457   25.1819 C   0  0  0  0  0  0  0  0  0  0  0  0
    9.3899  -14.7113   26.3571 O   0  0  0  0  0  0  0  0  0  0  0  0
   10.1218  -14.3834   31.0336 O   0  0  0  0  0  0  0  0  0  0  0  0
   10.3534  -15.0593   29.8310 C   0  0  0  0  0  0  0  0  0  0  0  0
   10.4654  -14.3783   28.6364 C   0  0  0  0  0  0  0  0  0  0  0  0
   10.6944  -15.1093   27.4887 C   0  0  0  0  0  0  0  0  0  0  0  0
   10.8142  -16.4959   27.4988 C   0  0  0  0  0  0  0  0  0  0  0  0
   11.0405  -17.2229   26.2327 C   0  0  0  0  0  0  0  0  0  0  0  0
   11.2794  -16.3044   25.0812 C   0  0  2  0  0  0  0  0  0  0  0  0
   10.0275  -15.8676   24.4714 N   0  0  0  0  0  0  0  0  0  0  0  0
   12.2148  -16.8293   24.0754 C   0  0  0  0  0  0  0  0  0  0  0  0
   13.5307  -17.1854   24.3733 O   0  0  0  0  0  0  0  0  0  0  0  0
   10.6992  -17.1539   28.6982 C   0  0  0  0  0  0  0  0  0  0  0  0
   10.4711  -16.4386   29.8492 C   0  0  0  0  0  0  0  0  0  0  0  0
   11.8397  -16.9719   22.8943 O   0  0  0  0  0  0  0  0  0  0  0  0
  2  1  1  6
  3  2  1  0
  4  2  1  0
  5  6  1  1
  5  4  1  0
  7  5  1  0
  8  7  2  0
 10  9  1  1
 10 11  1  0
 11  7  1  0
 12 10  1  0
 12 21  1  0
 13 12  2  0
 15 14  1  0
 16 15  2  0
 17 16  1  0
 18 24  1  0
 18 17  2  0
 19 18  1  0
 20 19  1  1
 20 21  1  0
 20 22  1  0
 22 23  1  0
 24 25  2  0
 25 15  1  0
 26 22  2  0
M  END
$$$$
