PHH.pdb
     RDKit          3D

 28 30  0  0  1  0  0  0  0  0999 V2000
   26.3455  -11.7894  -15.8297 N   0  0  0  0  0  0  0  0  0  0  0  0
   27.5140  -12.6584  -15.9369 C   0  0  0  0  0  0  0  0  0  0  0  0
   27.7899  -12.8395  -17.3955 C   0  0  0  0  0  0  0  0  0  0  0  0
   26.7361  -11.9686  -18.0862 C   0  0  0  0  0  0  0  0  0  0  0  0
   26.4677  -10.9491  -16.9819 C   0  0  1  0  0  0  0  0  0  0  0  0
   25.2374  -10.1634  -17.2557 C   0  0  0  0  0  0  0  0  0  0  0  0
   25.1609   -9.4329  -18.2533 O   0  0  0  0  0  0  0  0  0  0  0  0
   24.1519  -10.2725  -16.3431 N   0  0  0  0  0  0  0  0  0  0  0  0
   22.8552   -9.6819  -16.6073 C   0  0  1  0  0  0  0  0  0  0  0  0
   21.7780  -10.6346  -16.1788 C   0  0  0  0  0  0  0  0  0  0  0  0
   21.4940  -11.6885  -17.1635 C   0  0  0  0  0  0  0  0  0  0  0  0
   22.1527  -11.7755  -18.3802 C   0  0  0  0  0  0  0  0  0  0  0  0
   21.6751  -12.8370  -19.0533 N   0  0  0  0  0  0  0  0  0  0  0  0
   20.7322  -13.4196  -18.2896 C   0  0  0  0  0  0  0  0  0  0  0  0
   20.6380  -12.7151  -17.1586 N   0  0  0  0  0  0  0  0  0  0  0  0
   22.7316   -8.3633  -15.9410 C   0  0  0  0  0  0  0  0  0  0  0  0
   23.1357   -8.2576  -14.7582 O   0  0  0  0  0  0  0  0  0  0  0  0
   22.1768   -7.2391  -16.5988 N   0  0  0  0  0  0  0  0  0  0  0  0
   22.1766   -5.9670  -15.8403 C   0  0  1  0  0  0  0  0  0  0  0  0
   21.8048   -4.8424  -16.7684 C   0  0  0  0  0  0  0  0  0  0  0  0
   21.7770   -3.5571  -16.0523 C   0  0  0  0  0  0  0  0  0  0  0  0
   22.8511   -2.9966  -15.3627 C   0  0  0  0  0  0  0  0  0  0  0  0
   22.4720   -1.8249  -14.8328 N   0  0  0  0  0  0  0  0  0  0  0  0
   21.1879   -1.6305  -15.1692 C   0  0  0  0  0  0  0  0  0  0  0  0
   20.7789   -2.6760  -15.9016 N   0  0  0  0  0  0  0  0  0  0  0  0
   21.1115   -6.1295  -14.8350 C   0  0  0  0  0  0  0  0  0  0  0  0
   21.2371   -5.5168  -13.5932 O   0  0  0  0  0  0  0  0  0  0  0  0
   20.0850   -6.8021  -15.0484 O   0  0  0  0  0  0  0  0  0  0  0  0
  1  5  1  0
  2  3  1  0
  2  1  1  0
  3  4  1  0
  4  5  1  0
  5  6  1  6
  6  7  2  0
  8  9  1  0
  8  6  1  0
  9 16  1  0
  9 10  1  1
 11 10  1  0
 11 15  1  0
 12 13  1  0
 12 11  2  0
 13 14  1  0
 14 15  2  0
 16 18  1  0
 16 17  2  0
 18 19  1  0
 19 26  1  0
 19 20  1  6
 21 20  1  0
 21 22  2  0
 23 22  1  0
 24 25  2  0
 24 23  1  0
 25 21  1  0
 26 28  2  0
 26 27  1  0
M  END
$$$$
