PHH.pdb
     RDKit          3D

 28 30  0  0  1  0  0  0  0  0999 V2000
   15.4278  -23.0127    1.7541 N   0  0  0  0  0  0  0  0  0  0  0  0
   15.5882  -24.2244    0.9553 C   0  0  0  0  0  0  0  0  0  0  0  0
   15.3879  -23.8336   -0.4742 C   0  0  0  0  0  0  0  0  0  0  0  0
   15.1648  -22.3192   -0.4198 C   0  0  0  0  0  0  0  0  0  0  0  0
   15.9023  -21.9876    0.8752 C   0  0  1  0  0  0  0  0  0  0  0  0
   15.5729  -20.6204    1.3528 C   0  0  0  0  0  0  0  0  0  0  0  0
   15.9102  -19.6228    0.7004 O   0  0  0  0  0  0  0  0  0  0  0  0
   14.8611  -20.4883    2.5771 N   0  0  0  0  0  0  0  0  0  0  0  0
   14.3096  -19.2235    3.0202 C   0  0  1  0  0  0  0  0  0  0  0  0
   13.2112  -19.4792    4.0101 C   0  0  0  0  0  0  0  0  0  0  0  0
   11.9205  -19.8108    3.3895 C   0  0  0  0  0  0  0  0  0  0  0  0
   11.5484  -19.3454    2.1377 C   0  0  0  0  0  0  0  0  0  0  0  0
   10.3230  -19.8177    1.8497 N   0  0  0  0  0  0  0  0  0  0  0  0
    9.9154  -20.5687    2.8898 C   0  0  0  0  0  0  0  0  0  0  0  0
   10.8887  -20.5522    3.8044 N   0  0  0  0  0  0  0  0  0  0  0  0
   15.3717  -18.3523    3.5775 C   0  0  0  0  0  0  0  0  0  0  0  0
   16.3007  -18.8919    4.2251 O   0  0  0  0  0  0  0  0  0  0  0  0
   15.3614  -16.9480    3.3983 N   0  0  0  0  0  0  0  0  0  0  0  0
   16.5000  -16.2020    3.9819 C   0  0  1  0  0  0  0  0  0  0  0  0
   16.8405  -15.0443    3.0830 C   0  0  0  0  0  0  0  0  0  0  0  0
   17.8641  -14.1843    3.6981 C   0  0  0  0  0  0  0  0  0  0  0  0
   18.5133  -14.4426    4.9044 C   0  0  0  0  0  0  0  0  0  0  0  0
   19.3803  -13.4525    5.1596 N   0  0  0  0  0  0  0  0  0  0  0  0
   19.2962  -12.5761    4.1472 C   0  0  0  0  0  0  0  0  0  0  0  0
   18.3830  -13.0241    3.2741 N   0  0  0  0  0  0  0  0  0  0  0  0
   15.9901  -15.6798    5.2620 C   0  0  0  0  0  0  0  0  0  0  0  0
   14.6686  -15.2580    5.3565 O   0  0  0  0  0  0  0  0  0  0  0  0
   16.6996  -15.5966    6.2825 O   0  0  0  0  0  0  0  0  0  0  0  0
  1  5  1  0
  2  3  1  0
  2  1  1  0
  3  4  1  0
  4  5  1  0
  5  6  1  1
  6  7  2  0
  8  9  1  0
  8  6  1  0
  9 16  1  0
  9 10  1  1
 11 10  1  0
 11 15  1  0
 12 13  1  0
 12 11  2  0
 13 14  1  0
 14 15  2  0
 16 18  1  0
 16 17  2  0
 18 19  1  0
 19 26  1  0
 19 20  1  6
 21 20  1  0
 21 22  2  0
 23 22  1  0
 24 25  2  0
 24 23  1  0
 25 21  1  0
 26 28  2  0
 26 27  1  0
M  END
$$$$
