PHH.pdb
     RDKit          3D

 28 30  0  0  1  0  0  0  0  0999 V2000
   35.4010  -38.0750   -2.0393 N   0  0  0  0  0  0  0  0  0  0  0  0
   35.7640  -38.6860   -3.3147 C   0  0  0  0  0  0  0  0  0  0  0  0
   36.9851  -37.9761   -3.8061 C   0  0  0  0  0  0  0  0  0  0  0  0
   37.3077  -36.9739   -2.6936 C   0  0  0  0  0  0  0  0  0  0  0  0
   36.6685  -37.6834   -1.5024 C   0  0  1  0  0  0  0  0  0  0  0  0
   36.5441  -36.7761   -0.3330 C   0  0  0  0  0  0  0  0  0  0  0  0
   37.5477  -36.4072    0.2925 O   0  0  0  0  0  0  0  0  0  0  0  0
   35.2439  -36.3435    0.0480 N   0  0  0  0  0  0  0  0  0  0  0  0
   35.0268  -35.3911    1.1186 C   0  0  1  0  0  0  0  0  0  0  0  0
   34.2344  -34.2284    0.5971 C   0  0  0  0  0  0  0  0  0  0  0  0
   34.8432  -33.5730   -0.5695 C   0  0  0  0  0  0  0  0  0  0  0  0
   35.9852  -34.0553   -1.1899 C   0  0  0  0  0  0  0  0  0  0  0  0
   36.2919  -33.2445   -2.2177 N   0  0  0  0  0  0  0  0  0  0  0  0
   35.3705  -32.2641   -2.2588 C   0  0  0  0  0  0  0  0  0  0  0  0
   34.5090  -32.4790   -1.2609 N   0  0  0  0  0  0  0  0  0  0  0  0
   34.3676  -36.0415    2.2763 C   0  0  0  0  0  0  0  0  0  0  0  0
   34.0822  -35.3319    3.2704 O   0  0  0  0  0  0  0  0  0  0  0  0
   34.0581  -37.4230    2.2849 N   0  0  0  0  0  0  0  0  0  0  0  0
   33.3615  -37.9336    3.4881 C   0  0  1  0  0  0  0  0  0  0  0  0
   32.3611  -38.9770    3.0702 C   0  0  0  0  0  0  0  0  0  0  0  0
   31.1870  -38.3558    2.4369 C   0  0  0  0  0  0  0  0  0  0  0  0
   31.0030  -36.9866    2.2509 C   0  0  0  0  0  0  0  0  0  0  0  0
   29.8258  -36.7781    1.6441 N   0  0  0  0  0  0  0  0  0  0  0  0
   29.2617  -37.9785    1.4420 C   0  0  0  0  0  0  0  0  0  0  0  0
   30.0865  -38.9201    1.9214 N   0  0  0  0  0  0  0  0  0  0  0  0
   34.4180  -38.5772    4.2887 C   0  0  0  0  0  0  0  0  0  0  0  0
   34.0747  -39.3167    5.4150 O   0  0  0  0  0  0  0  0  0  0  0  0
   35.6263  -38.4888    3.9994 O   0  0  0  0  0  0  0  0  0  0  0  0
  1  5  1  0
  2  3  1  0
  2  1  1  0
  3  4  1  0
  4  5  1  0
  5  6  1  1
  6  7  2  0
  8  9  1  0
  8  6  1  0
  9 16  1  0
  9 10  1  6
 11 10  1  0
 11 15  1  0
 12 13  1  0
 12 11  2  0
 13 14  1  0
 14 15  2  0
 16 18  1  0
 16 17  2  0
 18 19  1  0
 19 26  1  0
 19 20  1  6
 21 20  1  0
 21 22  2  0
 23 22  1  0
 24 25  2  0
 24 23  1  0
 25 21  1  0
 26 28  2  0
 26 27  1  0
M  END
$$$$
