PHH.pdb
     RDKit          3D

 28 30  0  0  1  0  0  0  0  0999 V2000
   14.5803  -24.0039   -0.6547 N   0  0  0  0  0  0  0  0  0  0  0  0
   15.1213  -24.9391   -1.6369 C   0  0  0  0  0  0  0  0  0  0  0  0
   14.7239  -24.4319   -2.9864 C   0  0  0  0  0  0  0  0  0  0  0  0
   13.9795  -23.1263   -2.6907 C   0  0  0  0  0  0  0  0  0  0  0  0
   14.6144  -22.7549   -1.3528 C   0  0  1  0  0  0  0  0  0  0  0  0
   13.8442  -21.6880   -0.6639 C   0  0  0  0  0  0  0  0  0  0  0  0
   13.8194  -20.5338   -1.1130 O   0  0  0  0  0  0  0  0  0  0  0  0
   13.1374  -22.0273    0.5228 N   0  0  0  0  0  0  0  0  0  0  0  0
   12.3287  -21.0656    1.2448 C   0  0  1  0  0  0  0  0  0  0  0  0
   10.9499  -21.6238    1.4425 C   0  0  0  0  0  0  0  0  0  0  0  0
   10.1981  -21.8009    0.1918 C   0  0  0  0  0  0  0  0  0  0  0  0
   10.6988  -21.4227   -1.0444 C   0  0  0  0  0  0  0  0  0  0  0  0
    9.7835  -21.7113   -1.9862 N   0  0  0  0  0  0  0  0  0  0  0  0
    8.7195  -22.2617   -1.3723 C   0  0  0  0  0  0  0  0  0  0  0  0
    8.9878  -22.3069   -0.0646 N   0  0  0  0  0  0  0  0  0  0  0  0
   12.9709  -20.6963    2.5289 C   0  0  0  0  0  0  0  0  0  0  0  0
   12.3803  -19.8759    3.2717 O   0  0  0  0  0  0  0  0  0  0  0  0
   14.2154  -21.2397    2.9293 N   0  0  0  0  0  0  0  0  0  0  0  0
   14.7418  -20.7846    4.2367 C   0  0  1  0  0  0  0  0  0  0  0  0
   13.8980  -19.6427    4.7348 C   0  0  0  0  0  0  0  0  0  0  0  0
   14.4925  -18.3487    4.3638 C   0  0  0  0  0  0  0  0  0  0  0  0
   13.8620  -17.3600    3.6100 C   0  0  0  0  0  0  0  0  0  0  0  0
   14.6937  -16.3186    3.4646 N   0  0  0  0  0  0  0  0  0  0  0  0
   15.8320  -16.6230    4.1061 C   0  0  0  0  0  0  0  0  0  0  0  0
   15.7019  -17.8443    4.6431 N   0  0  0  0  0  0  0  0  0  0  0  0
   14.5637  -21.9387    5.1354 C   0  0  0  0  0  0  0  0  0  0  0  0
   14.8719  -21.8145    6.4855 O   0  0  0  0  0  0  0  0  0  0  0  0
   14.1425  -23.0409    4.7360 O   0  0  0  0  0  0  0  0  0  0  0  0
  1  5  1  0
  2  3  1  0
  2  1  1  0
  3  4  1  0
  4  5  1  0
  5  6  1  1
  6  7  2  0
  8  9  1  0
  8  6  1  0
  9 16  1  0
  9 10  1  1
 11 10  1  0
 11 15  1  0
 12 13  1  0
 12 11  2  0
 13 14  1  0
 14 15  2  0
 16 18  1  0
 16 17  2  0
 18 19  1  0
 19 26  1  0
 19 20  1  1
 21 20  1  0
 21 22  2  0
 23 22  1  0
 24 25  2  0
 24 23  1  0
 25 21  1  0
 26 28  2  0
 26 27  1  0
M  END
$$$$
