PHH.pdb
     RDKit          3D

 28 30  0  0  1  0  0  0  0  0999 V2000
   25.5835  -21.1326   -7.9704 N   0  0  0  0  0  0  0  0  0  0  0  0
   25.7783  -21.1449   -6.5234 C   0  0  0  0  0  0  0  0  0  0  0  0
   26.8496  -20.1468   -6.2195 C   0  0  0  0  0  0  0  0  0  0  0  0
   27.1931  -19.5403   -7.5834 C   0  0  0  0  0  0  0  0  0  0  0  0
   25.8760  -19.7756   -8.3189 C   0  0  1  0  0  0  0  0  0  0  0  0
   26.0286  -19.5761   -9.7828 C   0  0  0  0  0  0  0  0  0  0  0  0
   26.3148  -18.4627  -10.2442 O   0  0  0  0  0  0  0  0  0  0  0  0
   25.8373  -20.6961  -10.6383 N   0  0  0  0  0  0  0  0  0  0  0  0
   25.9851  -20.6063  -12.0772 C   0  0  1  0  0  0  0  0  0  0  0  0
   26.6722  -21.8399  -12.5847 C   0  0  0  0  0  0  0  0  0  0  0  0
   26.8890  -21.8408  -14.0387 C   0  0  0  0  0  0  0  0  0  0  0  0
   27.1177  -20.6816  -14.7638 C   0  0  0  0  0  0  0  0  0  0  0  0
   27.2769  -21.0079  -16.0584 N   0  0  0  0  0  0  0  0  0  0  0  0
   27.1540  -22.3441  -16.1651 C   0  0  0  0  0  0  0  0  0  0  0  0
   26.9213  -22.8261  -14.9413 N   0  0  0  0  0  0  0  0  0  0  0  0
   24.6711  -20.3909  -12.7290 C   0  0  0  0  0  0  0  0  0  0  0  0
   24.6480  -20.2154  -13.9708 O   0  0  0  0  0  0  0  0  0  0  0  0
   23.4614  -20.3790  -11.9934 N   0  0  0  0  0  0  0  0  0  0  0  0
   22.2109  -20.3220  -12.7849 C   0  0  1  0  0  0  0  0  0  0  0  0
   21.9360  -21.6822  -13.3668 C   0  0  0  0  0  0  0  0  0  0  0  0
   22.3628  -21.7482  -14.7736 C   0  0  0  0  0  0  0  0  0  0  0  0
   22.9221  -20.6949  -15.4952 C   0  0  0  0  0  0  0  0  0  0  0  0
   23.1897  -21.1075  -16.7424 N   0  0  0  0  0  0  0  0  0  0  0  0
   22.8143  -22.3928  -16.8277 C   0  0  0  0  0  0  0  0  0  0  0  0
   22.3188  -22.7690  -15.6404 N   0  0  0  0  0  0  0  0  0  0  0  0
   21.1598  -20.0002  -11.8035 C   0  0  0  0  0  0  0  0  0  0  0  0
   21.4895  -19.8696  -10.4590 O   0  0  0  0  0  0  0  0  0  0  0  0
   19.9680  -19.8367  -12.1267 O   0  0  0  0  0  0  0  0  0  0  0  0
  1  5  1  0
  2  3  1  0
  2  1  1  0
  3  4  1  0
  4  5  1  0
  5  6  1  6
  6  7  2  0
  8  9  1  0
  8  6  1  0
  9 16  1  0
  9 10  1  6
 11 10  1  0
 11 15  1  0
 12 13  1  0
 12 11  2  0
 13 14  1  0
 14 15  2  0
 16 18  1  0
 16 17  2  0
 18 19  1  0
 19 26  1  0
 19 20  1  1
 21 20  1  0
 21 22  2  0
 23 22  1  0
 24 25  2  0
 24 23  1  0
 25 21  1  0
 26 28  2  0
 26 27  1  0
M  END
$$$$
