PHH.pdb
     RDKit          3D

 28 30  0  0  1  0  0  0  0  0999 V2000
   28.3369  -33.8587   -3.0874 N   0  0  0  0  0  0  0  0  0  0  0  0
   28.2465  -34.8903   -4.1167 C   0  0  0  0  0  0  0  0  0  0  0  0
   27.9295  -36.1748   -3.4196 C   0  0  0  0  0  0  0  0  0  0  0  0
   27.7927  -35.7768   -1.9469 C   0  0  0  0  0  0  0  0  0  0  0  0
   27.4010  -34.3094   -2.1028 C   0  0  1  0  0  0  0  0  0  0  0  0
   27.5193  -33.5763   -0.8165 C   0  0  0  0  0  0  0  0  0  0  0  0
   28.6170  -33.1564   -0.4250 O   0  0  0  0  0  0  0  0  0  0  0  0
   26.3402  -33.3702   -0.0483 N   0  0  0  0  0  0  0  0  0  0  0  0
   26.3530  -32.6620    1.2160 C   0  0  1  0  0  0  0  0  0  0  0  0
   24.9515  -32.2689    1.5803 C   0  0  0  0  0  0  0  0  0  0  0  0
   24.8608  -31.4791    2.8169 C   0  0  0  0  0  0  0  0  0  0  0  0
   25.8595  -30.6091    3.2263 C   0  0  0  0  0  0  0  0  0  0  0  0
   25.4857  -30.0397    4.3856 N   0  0  0  0  0  0  0  0  0  0  0  0
   24.2763  -30.5304    4.7151 C   0  0  0  0  0  0  0  0  0  0  0  0
   23.9181  -31.3933    3.7606 N   0  0  0  0  0  0  0  0  0  0  0  0
   26.9954  -33.4809    2.2717 C   0  0  0  0  0  0  0  0  0  0  0  0
   26.9070  -34.7294    2.1883 O   0  0  0  0  0  0  0  0  0  0  0  0
   27.6950  -32.8952    3.3543 N   0  0  0  0  0  0  0  0  0  0  0  0
   28.2834  -33.8305    4.3404 C   0  0  1  0  0  0  0  0  0  0  0  0
   29.3747  -34.6237    3.6738 C   0  0  0  0  0  0  0  0  0  0  0  0
   29.1495  -36.0687    3.8377 C   0  0  0  0  0  0  0  0  0  0  0  0
   27.9501  -36.6561    4.2373 C   0  0  0  0  0  0  0  0  0  0  0  0
   28.1034  -37.9872    4.2798 N   0  0  0  0  0  0  0  0  0  0  0  0
   29.3670  -38.2562    3.9179 C   0  0  0  0  0  0  0  0  0  0  0  0
   29.9877  -37.0977    3.6542 N   0  0  0  0  0  0  0  0  0  0  0  0
   28.8831  -32.9629    5.3695 C   0  0  0  0  0  0  0  0  0  0  0  0
   29.5339  -33.5334    6.4576 O   0  0  0  0  0  0  0  0  0  0  0  0
   28.8338  -31.7196    5.3100 O   0  0  0  0  0  0  0  0  0  0  0  0
  1  5  1  0
  2  3  1  0
  2  1  1  0
  3  4  1  0
  4  5  1  0
  5  6  1  1
  6  7  2  0
  8  9  1  0
  8  6  1  0
  9 16  1  0
  9 10  1  1
 11 10  1  0
 11 15  1  0
 12 13  1  0
 12 11  2  0
 13 14  1  0
 14 15  2  0
 16 18  1  0
 16 17  2  0
 18 19  1  0
 19 26  1  0
 19 20  1  6
 21 20  1  0
 21 22  2  0
 23 22  1  0
 24 25  2  0
 24 23  1  0
 25 21  1  0
 26 28  2  0
 26 27  1  0
M  END
$$$$
