PHH.pdb
     RDKit          3D

 28 30  0  0  1  0  0  0  0  0999 V2000
   24.4688  -32.6431  -17.9605 N   0  0  0  0  0  0  0  0  0  0  0  0
   24.7472  -31.9179  -19.1968 C   0  0  0  0  0  0  0  0  0  0  0  0
   23.5581  -31.0539  -19.4724 C   0  0  0  0  0  0  0  0  0  0  0  0
   22.6303  -31.3036  -18.2795 C   0  0  0  0  0  0  0  0  0  0  0  0
   23.6551  -31.7214  -17.2278 C   0  0  1  0  0  0  0  0  0  0  0  0
   23.0001  -32.3419  -16.0480 C   0  0  0  0  0  0  0  0  0  0  0  0
   22.2120  -31.6929  -15.3465 O   0  0  0  0  0  0  0  0  0  0  0  0
   23.3021  -33.6987  -15.7465 N   0  0  0  0  0  0  0  0  0  0  0  0
   22.6384  -34.4218  -14.6802 C   0  0  1  0  0  0  0  0  0  0  0  0
   22.6103  -35.8845  -15.0135 C   0  0  0  0  0  0  0  0  0  0  0  0
   21.8772  -36.7005  -14.0349 C   0  0  0  0  0  0  0  0  0  0  0  0
   21.1448  -36.1476  -12.9957 C   0  0  0  0  0  0  0  0  0  0  0  0
   20.5950  -37.1436  -12.2790 N   0  0  0  0  0  0  0  0  0  0  0  0
   20.9637  -38.3093  -12.8422 C   0  0  0  0  0  0  0  0  0  0  0  0
   21.7335  -38.0220  -13.8953 N   0  0  0  0  0  0  0  0  0  0  0  0
   23.2952  -34.1586  -13.3774 C   0  0  0  0  0  0  0  0  0  0  0  0
   24.5480  -34.1952  -13.3279 O   0  0  0  0  0  0  0  0  0  0  0  0
   22.5522  -33.8715  -12.2069 N   0  0  0  0  0  0  0  0  0  0  0  0
   23.3366  -33.5891  -10.9827 C   0  0  1  0  0  0  0  0  0  0  0  0
   22.5131  -32.7330  -10.0590 C   0  0  0  0  0  0  0  0  0  0  0  0
   23.1958  -32.5441   -8.7691 C   0  0  0  0  0  0  0  0  0  0  0  0
   24.3350  -31.7664   -8.5676 C   0  0  0  0  0  0  0  0  0  0  0  0
   24.6832  -31.8207   -7.2741 N   0  0  0  0  0  0  0  0  0  0  0  0
   23.7947  -32.6116   -6.6535 C   0  0  0  0  0  0  0  0  0  0  0  0
   22.9051  -33.0415   -7.5594 N   0  0  0  0  0  0  0  0  0  0  0  0
   23.5428  -34.9070  -10.3566 C   0  0  0  0  0  0  0  0  0  0  0  0
   24.6203  -35.1014   -9.4995 O   0  0  0  0  0  0  0  0  0  0  0  0
   22.7840  -35.8732  -10.5624 O   0  0  0  0  0  0  0  0  0  0  0  0
  1  5  1  0
  2  3  1  0
  2  1  1  0
  3  4  1  0
  4  5  1  0
  5  6  1  1
  6  7  2  0
  8  9  1  0
  8  6  1  0
  9 16  1  0
  9 10  1  6
 11 10  1  0
 11 15  1  0
 12 13  1  0
 12 11  2  0
 13 14  1  0
 14 15  2  0
 16 18  1  0
 16 17  2  0
 18 19  1  0
 19 26  1  0
 19 20  1  1
 21 20  1  0
 21 22  2  0
 23 22  1  0
 24 25  2  0
 24 23  1  0
 25 21  1  0
 26 28  2  0
 26 27  1  0
M  END
$$$$
