PHH.pdb
     RDKit          3D

 28 30  0  0  1  0  0  0  0  0999 V2000
   23.8386  -15.1133  -20.8767 N   0  0  0  0  0  0  0  0  0  0  0  0
   24.1012  -14.4925  -22.1719 C   0  0  0  0  0  0  0  0  0  0  0  0
   25.3377  -15.1316  -22.7187 C   0  0  0  0  0  0  0  0  0  0  0  0
   25.7083  -16.1856  -21.6708 C   0  0  0  0  0  0  0  0  0  0  0  0
   24.3351  -16.4437  -21.0555 C   0  0  1  0  0  0  0  0  0  0  0  0
   24.4447  -17.1948  -19.7788 C   0  0  0  0  0  0  0  0  0  0  0  0
   24.8654  -18.3598  -19.7631 O   0  0  0  0  0  0  0  0  0  0  0  0
   24.0543  -16.5410  -18.5775 N   0  0  0  0  0  0  0  0  0  0  0  0
   24.2152  -17.1540  -17.2742 C   0  0  1  0  0  0  0  0  0  0  0  0
   25.2664  -16.4123  -16.5019 C   0  0  0  0  0  0  0  0  0  0  0  0
   26.6228  -16.5707  -17.0461 C   0  0  0  0  0  0  0  0  0  0  0  0
   27.3034  -15.5403  -17.6759 C   0  0  0  0  0  0  0  0  0  0  0  0
   28.5100  -15.9928  -18.0599 N   0  0  0  0  0  0  0  0  0  0  0  0
   28.6046  -17.2827  -17.6868 C   0  0  0  0  0  0  0  0  0  0  0  0
   27.4611  -17.6112  -17.0795 N   0  0  0  0  0  0  0  0  0  0  0  0
   22.9215  -17.2022  -16.5518 C   0  0  0  0  0  0  0  0  0  0  0  0
   22.3240  -16.1208  -16.3350 O   0  0  0  0  0  0  0  0  0  0  0  0
   22.3546  -18.4213  -16.1082 N   0  0  0  0  0  0  0  0  0  0  0  0
   21.1075  -18.3171  -15.3161 C   0  0  1  0  0  0  0  0  0  0  0  0
   20.0211  -19.0964  -16.0065 C   0  0  0  0  0  0  0  0  0  0  0  0
   19.5660  -18.4011  -17.2211 C   0  0  0  0  0  0  0  0  0  0  0  0
   18.9346  -17.1586  -17.2484 C   0  0  0  0  0  0  0  0  0  0  0  0
   18.6608  -16.8307  -18.5191 N   0  0  0  0  0  0  0  0  0  0  0  0
   19.1021  -17.8325  -19.2948 C   0  0  0  0  0  0  0  0  0  0  0  0
   19.6443  -18.7712  -18.5064 N   0  0  0  0  0  0  0  0  0  0  0  0
   21.4222  -18.9692  -14.0327 C   0  0  0  0  0  0  0  0  0  0  0  0
   22.6667  -19.5611  -13.8478 O   0  0  0  0  0  0  0  0  0  0  0  0
   20.6116  -19.0166  -13.0881 O   0  0  0  0  0  0  0  0  0  0  0  0
  1  5  1  0
  2  3  1  0
  2  1  1  0
  3  4  1  0
  4  5  1  0
  5  6  1  1
  6  7  2  0
  8  9  1  0
  8  6  1  0
  9 16  1  0
  9 10  1  1
 11 10  1  0
 11 15  1  0
 12 13  1  0
 12 11  2  0
 13 14  1  0
 14 15  2  0
 16 18  1  0
 16 17  2  0
 18 19  1  0
 19 26  1  0
 19 20  1  6
 21 20  1  0
 21 22  2  0
 23 22  1  0
 24 25  2  0
 24 23  1  0
 25 21  1  0
 26 28  2  0
 26 27  1  0
M  END
$$$$
