HMV.pdb
     RDKit          3D

 26 26  0  0  1  0  0  0  0  0999 V2000
    9.3402  -16.5198   19.4221 N   0  0  0  0  0  0  0  0  0  0  0  0
    8.2424  -16.4795   20.3754 C   0  0  1  0  0  0  0  0  0  0  0  0
    7.7868  -17.9086   20.5907 C   0  0  0  0  0  0  0  0  0  0  0  0
    7.0312  -18.4123   19.4011 C   0  0  0  0  0  0  0  0  0  0  0  0
    6.8319  -17.7598   18.2010 C   0  0  0  0  0  0  0  0  0  0  0  0
    6.1125  -18.5521   17.4202 N   0  0  0  0  0  0  0  0  0  0  0  0
    5.8396  -19.6920   18.0710 C   0  0  0  0  0  0  0  0  0  0  0  0
    6.4055  -19.5961   19.2802 N   0  0  0  0  0  0  0  0  0  0  0  0
    8.7110  -15.9768   21.7039 C   0  0  0  0  0  0  0  0  0  0  0  0
    9.9046  -16.1785   22.0361 O   0  0  0  0  0  0  0  0  0  0  0  0
    7.0285  -11.3628   27.8720 C   0  0  0  0  0  0  0  0  0  0  0  0
    6.3928  -12.1981   26.3733 S   0  0  0  0  0  0  0  0  0  0  0  0
    7.6471  -13.3678   25.7878 C   0  0  0  0  0  0  0  0  0  0  0  0
    7.1803  -13.9112   24.4606 C   0  0  0  0  0  0  0  0  0  0  0  0
    8.2622  -14.8101   23.9021 C   0  0  2  0  0  0  0  0  0  0  0  0
    7.8594  -15.2853   22.5950 N   0  0  0  0  0  0  0  0  0  0  0  0
    8.5170  -15.9634   24.8311 C   0  0  0  0  0  0  0  0  0  0  0  0
    7.5924  -16.7614   25.1297 O   0  0  0  0  0  0  0  0  0  0  0  0
   11.6426  -19.2807   26.6142 C   0  0  0  0  0  0  0  0  0  0  0  0
   11.3025  -18.1125   25.7412 C   0  0  1  0  0  0  0  0  0  0  0  0
   11.2610  -18.5183   24.2620 C   0  0  0  0  0  0  0  0  0  0  0  0
   10.0488  -17.4031   26.1451 C   0  0  2  0  0  0  0  0  0  0  0  0
    9.7989  -16.1953   25.4030 N   0  0  0  0  0  0  0  0  0  0  0  0
   10.1615  -17.0701   27.5985 C   0  0  0  0  0  0  0  0  0  0  0  0
   10.0897  -18.0330   28.5962 O   0  0  0  0  0  0  0  0  0  0  0  0
   10.3290  -15.8768   27.9736 O   0  0  0  0  0  0  0  0  0  0  0  0
  2  1  1  6
  2  9  1  0
  3  2  1  0
  4  3  1  0
  5  4  2  0
  6  5  1  0
  7  6  1  0
  7  8  2  0
  8  4  1  0
  9 16  1  0
  9 10  2  0
 12 11  1  0
 12 13  1  0
 13 14  1  0
 15 14  1  1
 16 15  1  0
 17 15  1  0
 17 18  2  0
 20 19  1  1
 20 22  1  0
 21 20  1  0
 22 23  1  6
 23 17  1  0
 24 22  1  0
 24 25  1  0
 26 24  2  0
M  END
$$$$
