HMV.pdb
     RDKit          3D

 26 26  0  0  1  0  0  0  0  0999 V2000
    9.9059  -16.0142   19.5077 N   0  0  0  0  0  0  0  0  0  0  0  0
    8.7547  -16.1597   20.3847 C   0  0  1  0  0  0  0  0  0  0  0  0
    8.4194  -17.6366   20.4381 C   0  0  0  0  0  0  0  0  0  0  0  0
    7.7598  -18.0798   19.1698 C   0  0  0  0  0  0  0  0  0  0  0  0
    7.2473  -17.2770   18.1705 C   0  0  0  0  0  0  0  0  0  0  0  0
    6.7540  -18.0649   17.2267 N   0  0  0  0  0  0  0  0  0  0  0  0
    6.9286  -19.3467   17.5790 C   0  0  0  0  0  0  0  0  0  0  0  0
    7.5439  -19.3444   18.7676 N   0  0  0  0  0  0  0  0  0  0  0  0
    9.0963  -15.7495   21.7818 C   0  0  0  0  0  0  0  0  0  0  0  0
   10.2631  -15.9501   22.1991 O   0  0  0  0  0  0  0  0  0  0  0  0
    6.9793  -10.9471   26.9711 C   0  0  0  0  0  0  0  0  0  0  0  0
    6.2272  -12.5741   26.6037 S   0  0  0  0  0  0  0  0  0  0  0  0
    7.5284  -13.6945   26.0240 C   0  0  0  0  0  0  0  0  0  0  0  0
    7.2861  -13.9559   24.5585 C   0  0  0  0  0  0  0  0  0  0  0  0
    8.4157  -14.8135   24.0303 C   0  0  2  0  0  0  0  0  0  0  0  0
    8.1543  -15.1461   22.6455 N   0  0  0  0  0  0  0  0  0  0  0  0
    8.5591  -16.0597   24.8577 C   0  0  0  0  0  0  0  0  0  0  0  0
    7.6388  -16.9158   24.8908 O   0  0  0  0  0  0  0  0  0  0  0  0
   10.7759  -18.8723   24.3620 C   0  0  0  0  0  0  0  0  0  0  0  0
   10.9864  -18.4253   25.7756 C   0  0  1  0  0  0  0  0  0  0  0  0
   12.3469  -17.7357   25.9430 C   0  0  0  0  0  0  0  0  0  0  0  0
    9.8773  -17.5755   26.3104 C   0  0  2  0  0  0  0  0  0  0  0  0
    9.7274  -16.3172   25.6275 N   0  0  0  0  0  0  0  0  0  0  0  0
   10.1575  -17.3173   27.7564 C   0  0  0  0  0  0  0  0  0  0  0  0
   10.1874  -18.3291   28.7067 O   0  0  0  0  0  0  0  0  0  0  0  0
   10.3807  -16.1456   28.1689 O   0  0  0  0  0  0  0  0  0  0  0  0
  2  1  1  6
  2  9  1  0
  3  2  1  0
  4  3  1  0
  5  4  2  0
  6  5  1  0
  7  6  1  0
  7  8  2  0
  8  4  1  0
  9 16  1  0
  9 10  2  0
 12 11  1  0
 12 13  1  0
 13 14  1  0
 15 14  1  1
 16 15  1  0
 17 15  1  0
 17 18  2  0
 20 19  1  6
 20 22  1  0
 21 20  1  0
 22 23  1  6
 23 17  1  0
 24 22  1  0
 24 25  1  0
 26 24  2  0
M  END
$$$$
