HMV.pdb
     RDKit          3D

 26 26  0  0  1  0  0  0  0  0999 V2000
   10.9335  -16.7228   20.0040 N   0  0  0  0  0  0  0  0  0  0  0  0
    9.9170  -17.1068   20.9710 C   0  0  1  0  0  0  0  0  0  0  0  0
   10.2884  -18.4831   21.4849 C   0  0  0  0  0  0  0  0  0  0  0  0
    9.8158  -19.5484   20.5458 C   0  0  0  0  0  0  0  0  0  0  0  0
    8.6788  -19.5269   19.7630 C   0  0  0  0  0  0  0  0  0  0  0  0
    8.6314  -20.6616   19.0810 N   0  0  0  0  0  0  0  0  0  0  0  0
    9.6951  -21.4153   19.3940 C   0  0  0  0  0  0  0  0  0  0  0  0
   10.4120  -20.7258   20.2896 N   0  0  0  0  0  0  0  0  0  0  0  0
    9.9361  -16.1910   22.1533 C   0  0  0  0  0  0  0  0  0  0  0  0
   11.0301  -15.6857   22.5050 O   0  0  0  0  0  0  0  0  0  0  0  0
    5.5946  -11.6418   26.8870 C   0  0  0  0  0  0  0  0  0  0  0  0
    5.6112  -12.9010   25.5597 S   0  0  0  0  0  0  0  0  0  0  0  0
    7.2900  -13.5686   25.4175 C   0  0  0  0  0  0  0  0  0  0  0  0
    7.3095  -14.5075   24.2374 C   0  0  0  0  0  0  0  0  0  0  0  0
    8.7348  -14.9621   24.0084 C   0  0  2  0  0  0  0  0  0  0  0  0
    8.7692  -15.8759   22.8858 N   0  0  0  0  0  0  0  0  0  0  0  0
    9.2806  -15.6191   25.2448 C   0  0  0  0  0  0  0  0  0  0  0  0
    9.2921  -16.8717   25.3523 O   0  0  0  0  0  0  0  0  0  0  0  0
    9.8465  -13.6172   28.9643 C   0  0  0  0  0  0  0  0  0  0  0  0
   10.8880  -14.5972   28.5201 C   0  0  1  0  0  0  0  0  0  0  0  0
   11.4657  -15.3718   29.7121 C   0  0  0  0  0  0  0  0  0  0  0  0
   10.4218  -15.5256   27.4436 C   0  0  2  0  0  0  0  0  0  0  0  0
    9.7994  -14.8591   26.3298 N   0  0  0  0  0  0  0  0  0  0  0  0
    9.4425  -16.4765   28.0543 C   0  0  0  0  0  0  0  0  0  0  0  0
    8.0844  -16.4411   27.7675 O   0  0  0  0  0  0  0  0  0  0  0  0
    9.8271  -17.3612   28.8680 O   0  0  0  0  0  0  0  0  0  0  0  0
  2  1  1  6
  2  9  1  0
  3  2  1  0
  4  3  1  0
  5  4  2  0
  6  5  1  0
  7  6  1  0
  7  8  2  0
  8  4  1  0
  9 16  1  0
  9 10  2  0
 12 11  1  0
 12 13  1  0
 13 14  1  0
 15 14  1  1
 16 15  1  0
 17 15  1  0
 17 18  2  0
 20 19  1  1
 20 22  1  0
 21 20  1  0
 22 23  1  6
 23 17  1  0
 24 22  1  0
 24 25  1  0
 26 24  2  0
M  END
$$$$
