HMV.pdb
     RDKit          3D

 26 26  0  0  1  0  0  0  0  0999 V2000
    9.1534  -15.3358   20.1611 N   0  0  0  0  0  0  0  0  0  0  0  0
    8.2998  -16.0057   21.1297 C   0  0  1  0  0  0  0  0  0  0  0  0
    8.5323  -17.4949   20.9734 C   0  0  0  0  0  0  0  0  0  0  0  0
    7.9270  -17.9983   19.7004 C   0  0  0  0  0  0  0  0  0  0  0  0
    6.6668  -17.7224   19.2089 C   0  0  0  0  0  0  0  0  0  0  0  0
    6.5281  -18.3641   18.0582 N   0  0  0  0  0  0  0  0  0  0  0  0
    7.6515  -19.0441   17.7881 C   0  0  0  0  0  0  0  0  0  0  0  0
    8.4995  -18.8137   18.7977 N   0  0  0  0  0  0  0  0  0  0  0  0
    8.7048  -15.6555   22.5262 C   0  0  0  0  0  0  0  0  0  0  0  0
    9.9255  -15.5084   22.7793 O   0  0  0  0  0  0  0  0  0  0  0  0
    7.5331  -10.7058   26.5537 C   0  0  0  0  0  0  0  0  0  0  0  0
    7.7168  -12.5107   26.7906 S   0  0  0  0  0  0  0  0  0  0  0  0
    6.7819  -13.3621   25.4923 C   0  0  0  0  0  0  0  0  0  0  0  0
    6.9120  -14.8450   25.7338 C   0  0  0  0  0  0  0  0  0  0  0  0
    8.1133  -15.3533   24.9662 C   0  0  2  0  0  0  0  0  0  0  0  0
    7.7642  -15.4851   23.5672 N   0  0  0  0  0  0  0  0  0  0  0  0
    8.5738  -16.6701   25.5250 C   0  0  0  0  0  0  0  0  0  0  0  0
    7.7777  -17.6385   25.6208 O   0  0  0  0  0  0  0  0  0  0  0  0
   11.5192  -18.8280   24.3540 C   0  0  0  0  0  0  0  0  0  0  0  0
   11.5919  -18.6640   25.8407 C   0  0  1  0  0  0  0  0  0  0  0  0
   12.7904  -17.7955   26.2454 C   0  0  0  0  0  0  0  0  0  0  0  0
   10.3240  -18.1597   26.4541 C   0  0  2  0  0  0  0  0  0  0  0  0
    9.9125  -16.8708   25.9627 N   0  0  0  0  0  0  0  0  0  0  0  0
   10.5347  -18.0756   27.9321 C   0  0  0  0  0  0  0  0  0  0  0  0
   10.7833  -19.1922   28.7189 O   0  0  0  0  0  0  0  0  0  0  0  0
   10.4922  -16.9624   28.5253 O   0  0  0  0  0  0  0  0  0  0  0  0
  2  1  1  6
  2  9  1  0
  3  2  1  0
  4  3  1  0
  5  4  2  0
  6  5  1  0
  7  6  1  0
  7  8  2  0
  8  4  1  0
  9 16  1  0
  9 10  2  0
 12 11  1  0
 12 13  1  0
 13 14  1  0
 15 14  1  1
 16 15  1  0
 17 15  1  0
 17 18  2  0
 20 19  1  6
 20 22  1  0
 21 20  1  0
 22 23  1  6
 23 17  1  0
 24 22  1  0
 24 25  1  0
 26 24  2  0
M  END
$$$$
