HMV.pdb
     RDKit          3D

 26 26  0  0  1  0  0  0  0  0999 V2000
    8.8881  -16.5620   19.5168 N   0  0  0  0  0  0  0  0  0  0  0  0
    7.9973  -16.7912   20.6436 C   0  0  1  0  0  0  0  0  0  0  0  0
    7.9714  -18.2854   20.8940 C   0  0  0  0  0  0  0  0  0  0  0  0
    7.2184  -18.9945   19.8122 C   0  0  0  0  0  0  0  0  0  0  0  0
    6.0269  -18.6070   19.2325 C   0  0  0  0  0  0  0  0  0  0  0  0
    5.7048  -19.5105   18.3188 N   0  0  0  0  0  0  0  0  0  0  0  0
    6.6435  -20.4672   18.2866 C   0  0  0  0  0  0  0  0  0  0  0  0
    7.5635  -20.1421   19.2028 N   0  0  0  0  0  0  0  0  0  0  0  0
    8.5399  -16.1602   21.8863 C   0  0  0  0  0  0  0  0  0  0  0  0
    9.7478  -16.3426   22.1752 O   0  0  0  0  0  0  0  0  0  0  0  0
    6.9765  -11.4874   28.0762 C   0  0  0  0  0  0  0  0  0  0  0  0
    6.4071  -12.1584   26.4720 S   0  0  0  0  0  0  0  0  0  0  0  0
    7.5944  -13.4090   25.9146 C   0  0  0  0  0  0  0  0  0  0  0  0
    7.1432  -13.8950   24.5601 C   0  0  0  0  0  0  0  0  0  0  0  0
    8.1902  -14.8430   24.0164 C   0  0  2  0  0  0  0  0  0  0  0  0
    7.7426  -15.3684   22.7435 N   0  0  0  0  0  0  0  0  0  0  0  0
    8.4447  -15.9580   24.9912 C   0  0  0  0  0  0  0  0  0  0  0  0
    7.5238  -16.7524   25.3101 O   0  0  0  0  0  0  0  0  0  0  0  0
   10.9961  -18.7884   24.7351 C   0  0  0  0  0  0  0  0  0  0  0  0
   11.1352  -18.1123   26.0640 C   0  0  1  0  0  0  0  0  0  0  0  0
   12.4304  -17.2927   26.1370 C   0  0  0  0  0  0  0  0  0  0  0  0
    9.9479  -17.2867   26.4474 C   0  0  2  0  0  0  0  0  0  0  0  0
    9.7222  -16.1565   25.5851 N   0  0  0  0  0  0  0  0  0  0  0  0
   10.1628  -16.8007   27.8452 C   0  0  0  0  0  0  0  0  0  0  0  0
   10.2656  -17.6605   28.9305 O   0  0  0  0  0  0  0  0  0  0  0  0
   10.2596  -15.5662   28.0889 O   0  0  0  0  0  0  0  0  0  0  0  0
  2  1  1  6
  2  9  1  0
  3  2  1  0
  4  3  1  0
  5  4  2  0
  6  5  1  0
  7  6  1  0
  7  8  2  0
  8  4  1  0
  9 16  1  0
  9 10  2  0
 12 11  1  0
 12 13  1  0
 13 14  1  0
 15 14  1  1
 16 15  1  0
 17 15  1  0
 17 18  2  0
 20 19  1  6
 20 22  1  0
 21 20  1  0
 22 23  1  6
 23 17  1  0
 24 22  1  0
 24 25  1  0
 26 24  2  0
M  END
$$$$
