HMV.pdb
     RDKit          3D

 26 26  0  0  1  0  0  0  0  0999 V2000
   10.1263  -13.1797   20.1304 N   0  0  0  0  0  0  0  0  0  0  0  0
    8.9332  -13.8219   20.6594 C   0  0  1  0  0  0  0  0  0  0  0  0
    8.7705  -15.1357   19.9220 C   0  0  0  0  0  0  0  0  0  0  0  0
    8.3917  -14.9018   18.4931 C   0  0  0  0  0  0  0  0  0  0  0  0
    8.3089  -13.6889   17.8391 C   0  0  0  0  0  0  0  0  0  0  0  0
    7.9417  -13.9239   16.5881 N   0  0  0  0  0  0  0  0  0  0  0  0
    7.7841  -15.2433   16.4096 C   0  0  0  0  0  0  0  0  0  0  0  0
    8.0615  -15.8313   17.5796 N   0  0  0  0  0  0  0  0  0  0  0  0
    9.1106  -14.1635   22.1047 C   0  0  0  0  0  0  0  0  0  0  0  0
   10.2721  -14.3617   22.5376 O   0  0  0  0  0  0  0  0  0  0  0  0
    6.9395  -10.5364   27.1158 C   0  0  0  0  0  0  0  0  0  0  0  0
    6.9808  -12.3594   26.9645 S   0  0  0  0  0  0  0  0  0  0  0  0
    6.7557  -12.7998   25.2210 C   0  0  0  0  0  0  0  0  0  0  0  0
    6.8567  -14.3006   25.1126 C   0  0  0  0  0  0  0  0  0  0  0  0
    8.1413  -14.6448   24.3902 C   0  0  2  0  0  0  0  0  0  0  0  0
    8.0196  -14.2707   22.9967 N   0  0  0  0  0  0  0  0  0  0  0  0
    8.4402  -16.1116   24.5221 C   0  0  0  0  0  0  0  0  0  0  0  0
    7.6040  -16.9718   24.1454 O   0  0  0  0  0  0  0  0  0  0  0  0
   11.3602  -18.2161   23.1172 C   0  0  0  0  0  0  0  0  0  0  0  0
   11.2483  -18.4027   24.5987 C   0  0  1  0  0  0  0  0  0  0  0  0
   12.4025  -17.7090   25.3344 C   0  0  0  0  0  0  0  0  0  0  0  0
    9.9230  -17.9933   25.1593 C   0  0  2  0  0  0  0  0  0  0  0  0
    9.6659  -16.5797   25.0720 N   0  0  0  0  0  0  0  0  0  0  0  0
    9.8872  -18.4095   26.5951 C   0  0  0  0  0  0  0  0  0  0  0  0
    9.7495  -17.5009   27.6360 O   0  0  0  0  0  0  0  0  0  0  0  0
    9.9831  -19.6267   26.9144 O   0  0  0  0  0  0  0  0  0  0  0  0
  2  1  1  6
  2  9  1  0
  3  2  1  0
  4  3  1  0
  5  4  2  0
  6  5  1  0
  7  6  1  0
  7  8  2  0
  8  4  1  0
  9 16  1  0
  9 10  2  0
 12 11  1  0
 12 13  1  0
 13 14  1  0
 15 14  1  1
 16 15  1  0
 17 15  1  0
 17 18  2  0
 20 19  1  6
 20 22  1  0
 21 20  1  0
 22 23  1  1
 23 17  1  0
 24 22  1  0
 24 25  1  0
 26 24  2  0
M  END
$$$$
