HMV.pdb
     RDKit          3D

 26 26  0  0  1  0  0  0  0  0999 V2000
    9.2064  -15.2873   19.7827 N   0  0  0  0  0  0  0  0  0  0  0  0
    8.1724  -15.7130   20.7130 C   0  0  1  0  0  0  0  0  0  0  0  0
    8.0901  -17.2236   20.6264 C   0  0  0  0  0  0  0  0  0  0  0  0
    7.5339  -17.6525   19.3047 C   0  0  0  0  0  0  0  0  0  0  0  0
    7.2464  -16.8490   18.2196 C   0  0  0  0  0  0  0  0  0  0  0  0
    6.7731  -17.6219   17.2534 N   0  0  0  0  0  0  0  0  0  0  0  0
    6.7440  -18.8947   17.6739 C   0  0  0  0  0  0  0  0  0  0  0  0
    7.2109  -18.9020   18.9282 N   0  0  0  0  0  0  0  0  0  0  0  0
    8.5582  -15.3873   22.1208 C   0  0  0  0  0  0  0  0  0  0  0  0
    9.7778  -15.3319   22.4127 O   0  0  0  0  0  0  0  0  0  0  0  0
    7.2310  -10.5175   26.2840 C   0  0  0  0  0  0  0  0  0  0  0  0
    6.8310  -12.2680   26.6354 S   0  0  0  0  0  0  0  0  0  0  0  0
    6.4927  -13.1096   25.0664 C   0  0  0  0  0  0  0  0  0  0  0  0
    6.6783  -14.5891   25.2927 C   0  0  0  0  0  0  0  0  0  0  0  0
    7.9122  -15.0392   24.5408 C   0  0  2  0  0  0  0  0  0  0  0  0
    7.6004  -15.1406   23.1305 N   0  0  0  0  0  0  0  0  0  0  0  0
    8.3988  -16.3575   25.0732 C   0  0  0  0  0  0  0  0  0  0  0  0
    7.6389  -17.3590   25.0952 O   0  0  0  0  0  0  0  0  0  0  0  0
   11.4145  -18.4685   23.9422 C   0  0  0  0  0  0  0  0  0  0  0  0
   11.4706  -18.2473   25.4221 C   0  0  1  0  0  0  0  0  0  0  0  0
   12.6009  -17.2793   25.7963 C   0  0  0  0  0  0  0  0  0  0  0  0
   10.1673  -17.8161   26.0169 C   0  0  2  0  0  0  0  0  0  0  0  0
    9.7224  -16.5229   25.5679 N   0  0  0  0  0  0  0  0  0  0  0  0
   10.3313  -17.7885   27.5030 C   0  0  0  0  0  0  0  0  0  0  0  0
   10.6287  -18.9232   28.2458 O   0  0  0  0  0  0  0  0  0  0  0  0
   10.2017  -16.7092   28.1442 O   0  0  0  0  0  0  0  0  0  0  0  0
  2  1  1  6
  2  9  1  0
  3  2  1  0
  4  3  1  0
  5  4  2  0
  6  5  1  0
  7  6  1  0
  7  8  2  0
  8  4  1  0
  9 16  1  0
  9 10  2  0
 12 11  1  0
 12 13  1  0
 13 14  1  0
 15 14  1  1
 16 15  1  0
 17 15  1  0
 17 18  2  0
 20 19  1  6
 20 22  1  0
 21 20  1  0
 22 23  1  6
 23 17  1  0
 24 22  1  0
 24 25  1  0
 26 24  2  0
M  END
$$$$
