HMV.pdb
     RDKit          3D

 26 26  0  0  1  0  0  0  0  0999 V2000
    9.6555  -18.1636   20.6126 N   0  0  0  0  0  0  0  0  0  0  0  0
    8.9983  -18.1551   21.9102 C   0  0  1  0  0  0  0  0  0  0  0  0
    9.6569  -19.2307   22.7501 C   0  0  0  0  0  0  0  0  0  0  0  0
    8.9325  -20.5331   22.6122 C   0  0  0  0  0  0  0  0  0  0  0  0
    7.8185  -20.7910   21.8386 C   0  0  0  0  0  0  0  0  0  0  0  0
    7.4957  -22.0657   22.0001 N   0  0  0  0  0  0  0  0  0  0  0  0
    8.3594  -22.6407   22.8491 C   0  0  0  0  0  0  0  0  0  0  0  0
    9.2329  -21.6957   23.2170 N   0  0  0  0  0  0  0  0  0  0  0  0
    9.2351  -16.8582   22.6168 C   0  0  0  0  0  0  0  0  0  0  0  0
   10.3385  -16.2807   22.4599 O   0  0  0  0  0  0  0  0  0  0  0  0
    5.7670  -10.9879   26.6029 C   0  0  0  0  0  0  0  0  0  0  0  0
    5.6694  -12.7271   26.0431 S   0  0  0  0  0  0  0  0  0  0  0  0
    7.2499  -13.1779   25.2793 C   0  0  0  0  0  0  0  0  0  0  0  0
    7.1269  -14.5949   24.7780 C   0  0  0  0  0  0  0  0  0  0  0  0
    8.4273  -14.9820   24.1075 C   0  0  2  0  0  0  0  0  0  0  0  0
    8.2629  -16.2626   23.4520 N   0  0  0  0  0  0  0  0  0  0  0  0
    9.5400  -15.0405   25.1158 C   0  0  0  0  0  0  0  0  0  0  0  0
   10.4557  -14.1789   25.1095 O   0  0  0  0  0  0  0  0  0  0  0  0
   10.5470  -13.5070   27.3771 C   0  0  0  0  0  0  0  0  0  0  0  0
   10.4478  -14.8347   28.0626 C   0  0  1  0  0  0  0  0  0  0  0  0
    9.1566  -14.9398   28.8849 C   0  0  0  0  0  0  0  0  0  0  0  0
   10.6005  -16.0022   27.1397 C   0  0  2  0  0  0  0  0  0  0  0  0
    9.6010  -16.0608   26.1054 N   0  0  0  0  0  0  0  0  0  0  0  0
   10.5253  -17.2477   27.9639 C   0  0  0  0  0  0  0  0  0  0  0  0
   11.4240  -17.5265   28.9849 O   0  0  0  0  0  0  0  0  0  0  0  0
    9.6229  -18.1045   27.7534 O   0  0  0  0  0  0  0  0  0  0  0  0
  2  1  1  6
  2  9  1  0
  3  2  1  0
  4  3  1  0
  5  4  2  0
  6  5  1  0
  7  6  1  0
  7  8  2  0
  8  4  1  0
  9 16  1  0
  9 10  2  0
 12 11  1  0
 12 13  1  0
 13 14  1  0
 15 14  1  1
 16 15  1  0
 17 15  1  0
 17 18  2  0
 20 19  1  6
 20 22  1  0
 21 20  1  0
 22 23  1  6
 23 17  1  0
 24 22  1  0
 24 25  1  0
 26 24  2  0
M  END
$$$$
