HMV.pdb
     RDKit          3D

 26 26  0  0  1  0  0  0  0  0999 V2000
   10.5062  -16.3404   20.1432 N   0  0  0  0  0  0  0  0  0  0  0  0
    9.5787  -16.8171   21.1571 C   0  0  1  0  0  0  0  0  0  0  0  0
   10.0392  -18.2016   21.5662 C   0  0  0  0  0  0  0  0  0  0  0  0
    9.1600  -19.2546   20.9675 C   0  0  0  0  0  0  0  0  0  0  0  0
    8.0598  -19.0614   20.1563 C   0  0  0  0  0  0  0  0  0  0  0  0
    7.5680  -20.2516   19.8454 N   0  0  0  0  0  0  0  0  0  0  0  0
    8.3094  -21.2063   20.4255 C   0  0  0  0  0  0  0  0  0  0  0  0
    9.2792  -20.5863   21.1085 N   0  0  0  0  0  0  0  0  0  0  0  0
    9.6492  -15.9647   22.3841 C   0  0  0  0  0  0  0  0  0  0  0  0
   10.7477  -15.4395   22.6891 O   0  0  0  0  0  0  0  0  0  0  0  0
    5.6980  -11.2292   26.0198 C   0  0  0  0  0  0  0  0  0  0  0  0
    5.5913  -13.0228   26.3652 S   0  0  0  0  0  0  0  0  0  0  0  0
    7.2248  -13.7609   26.0982 C   0  0  0  0  0  0  0  0  0  0  0  0
    7.1614  -14.5597   24.8205 C   0  0  0  0  0  0  0  0  0  0  0  0
    8.5664  -14.9793   24.4460 C   0  0  2  0  0  0  0  0  0  0  0  0
    8.5257  -15.7310   23.2091 N   0  0  0  0  0  0  0  0  0  0  0  0
    9.1795  -15.7994   25.5459 C   0  0  0  0  0  0  0  0  0  0  0  0
    9.1184  -17.0550   25.5185 O   0  0  0  0  0  0  0  0  0  0  0  0
   11.7700  -14.0318   28.4967 C   0  0  0  0  0  0  0  0  0  0  0  0
   10.9822  -15.2612   28.8289 C   0  0  1  0  0  0  0  0  0  0  0  0
    9.8200  -14.9365   29.7767 C   0  0  0  0  0  0  0  0  0  0  0  0
   10.5084  -16.0162   27.6273 C   0  0  2  0  0  0  0  0  0  0  0  0
    9.8450  -15.1953   26.6486 N   0  0  0  0  0  0  0  0  0  0  0  0
    9.5643  -17.0761   28.0980 C   0  0  0  0  0  0  0  0  0  0  0  0
    9.9812  -18.1814   28.8276 O   0  0  0  0  0  0  0  0  0  0  0  0
    8.3310  -16.9986   27.8416 O   0  0  0  0  0  0  0  0  0  0  0  0
  2  1  1  6
  2  9  1  0
  3  2  1  0
  4  3  1  0
  5  4  2  0
  6  5  1  0
  7  6  1  0
  7  8  2  0
  8  4  1  0
  9 16  1  0
  9 10  2  0
 12 11  1  0
 12 13  1  0
 13 14  1  0
 15 14  1  1
 16 15  1  0
 17 15  1  0
 17 18  2  0
 20 19  1  6
 20 22  1  0
 21 20  1  0
 22 23  1  6
 23 17  1  0
 24 22  1  0
 24 25  1  0
 26 24  2  0
M  END
$$$$
