HMV.pdb
     RDKit          3D

 26 26  0  0  1  0  0  0  0  0999 V2000
    9.4979  -16.6834   19.8076 N   0  0  0  0  0  0  0  0  0  0  0  0
    8.5196  -16.8790   20.8661 C   0  0  1  0  0  0  0  0  0  0  0  0
    8.4466  -18.3685   21.1353 C   0  0  0  0  0  0  0  0  0  0  0  0
    7.9037  -19.0991   19.9472 C   0  0  0  0  0  0  0  0  0  0  0  0
    6.8344  -18.7288   19.1564 C   0  0  0  0  0  0  0  0  0  0  0  0
    6.6858  -19.6483   18.2143 N   0  0  0  0  0  0  0  0  0  0  0  0
    7.6190  -20.5987   18.3671 C   0  0  0  0  0  0  0  0  0  0  0  0
    8.3577  -20.2533   19.4285 N   0  0  0  0  0  0  0  0  0  0  0  0
    8.9777  -16.2382   22.1375 C   0  0  0  0  0  0  0  0  0  0  0  0
   10.2054  -16.2313   22.3991 O   0  0  0  0  0  0  0  0  0  0  0  0
    7.1238  -11.1391   27.8281 C   0  0  0  0  0  0  0  0  0  0  0  0
    6.5235  -12.1694   26.4403 S   0  0  0  0  0  0  0  0  0  0  0  0
    7.8487  -13.3026   25.9464 C   0  0  0  0  0  0  0  0  0  0  0  0
    7.3701  -14.0648   24.7363 C   0  0  0  0  0  0  0  0  0  0  0  0
    8.4819  -14.9827   24.2759 C   0  0  2  0  0  0  0  0  0  0  0  0
    8.0793  -15.6423   23.0514 N   0  0  0  0  0  0  0  0  0  0  0  0
    8.8037  -15.9921   25.3417 C   0  0  0  0  0  0  0  0  0  0  0  0
    7.9309  -16.8064   25.7368 O   0  0  0  0  0  0  0  0  0  0  0  0
   11.9727  -18.3487   25.3129 C   0  0  0  0  0  0  0  0  0  0  0  0
   11.7711  -17.7152   26.6547 C   0  0  1  0  0  0  0  0  0  0  0  0
   12.8628  -16.6777   26.9484 C   0  0  0  0  0  0  0  0  0  0  0  0
   10.4053  -17.1363   26.8487 C   0  0  2  0  0  0  0  0  0  0  0  0
   10.0928  -16.0653   25.9390 N   0  0  0  0  0  0  0  0  0  0  0  0
   10.3214  -16.6265   28.2520 C   0  0  0  0  0  0  0  0  0  0  0  0
   10.4310  -17.4570   29.3593 O   0  0  0  0  0  0  0  0  0  0  0  0
   10.1443  -15.3980   28.4804 O   0  0  0  0  0  0  0  0  0  0  0  0
  2  1  1  6
  2  9  1  0
  3  2  1  0
  4  3  1  0
  5  4  2  0
  6  5  1  0
  7  6  1  0
  7  8  2  0
  8  4  1  0
  9 16  1  0
  9 10  2  0
 12 11  1  0
 12 13  1  0
 13 14  1  0
 15 14  1  1
 16 15  1  0
 17 15  1  0
 17 18  2  0
 20 19  1  6
 20 22  1  0
 21 20  1  0
 22 23  1  6
 23 17  1  0
 24 22  1  0
 24 25  1  0
 26 24  2  0
M  END
$$$$
