HMV.pdb
     RDKit          3D

 26 26  0  0  1  0  0  0  0  0999 V2000
   11.0544  -14.0027   19.9827 N   0  0  0  0  0  0  0  0  0  0  0  0
    9.6892  -14.0398   20.4833 C   0  0  1  0  0  0  0  0  0  0  0  0
    8.9764  -15.1583   19.7506 C   0  0  0  0  0  0  0  0  0  0  0  0
    8.3913  -14.6651   18.4643 C   0  0  0  0  0  0  0  0  0  0  0  0
    8.5273  -13.4066   17.9135 C   0  0  0  0  0  0  0  0  0  0  0  0
    7.8549  -13.3857   16.7722 N   0  0  0  0  0  0  0  0  0  0  0  0
    7.2896  -14.5836   16.5652 C   0  0  0  0  0  0  0  0  0  0  0  0
    7.6236  -15.3577   17.6048 N   0  0  0  0  0  0  0  0  0  0  0  0
    9.6657  -14.3987   21.9351 C   0  0  0  0  0  0  0  0  0  0  0  0
   10.6703  -14.9650   22.4309 O   0  0  0  0  0  0  0  0  0  0  0  0
    6.6723  -10.8372   26.7167 C   0  0  0  0  0  0  0  0  0  0  0  0
    6.1312  -12.5669   26.9676 S   0  0  0  0  0  0  0  0  0  0  0  0
    7.3929  -13.6724   26.2815 C   0  0  0  0  0  0  0  0  0  0  0  0
    7.3878  -13.4969   24.7837 C   0  0  0  0  0  0  0  0  0  0  0  0
    8.5652  -14.2532   24.2073 C   0  0  2  0  0  0  0  0  0  0  0  0
    8.5555  -14.1233   22.7652 N   0  0  0  0  0  0  0  0  0  0  0  0
    8.5074  -15.6997   24.6105 C   0  0  0  0  0  0  0  0  0  0  0  0
    7.4788  -16.3867   24.3849 O   0  0  0  0  0  0  0  0  0  0  0  0
   10.5321  -18.6903   23.5344 C   0  0  0  0  0  0  0  0  0  0  0  0
   10.5942  -18.5800   25.0265 C   0  0  1  0  0  0  0  0  0  0  0  0
   11.9799  -18.1128   25.4915 C   0  0  0  0  0  0  0  0  0  0  0  0
    9.5101  -17.7327   25.6139 C   0  0  2  0  0  0  0  0  0  0  0  0
    9.6007  -16.3414   25.2561 N   0  0  0  0  0  0  0  0  0  0  0  0
    9.5866  -17.8614   27.1017 C   0  0  0  0  0  0  0  0  0  0  0  0
    9.3004  -19.0457   27.7677 O   0  0  0  0  0  0  0  0  0  0  0  0
    9.9209  -16.8761   27.8160 O   0  0  0  0  0  0  0  0  0  0  0  0
  2  1  1  6
  2  9  1  0
  3  2  1  0
  4  3  1  0
  5  4  2  0
  6  5  1  0
  7  6  1  0
  7  8  2  0
  8  4  1  0
  9 16  1  0
  9 10  2  0
 12 11  1  0
 12 13  1  0
 13 14  1  0
 15 14  1  1
 16 15  1  0
 17 15  1  0
 17 18  2  0
 20 19  1  6
 20 22  1  0
 21 20  1  0
 22 23  1  1
 23 17  1  0
 24 22  1  0
 24 25  1  0
 26 24  2  0
M  END
$$$$
