HMV.pdb
     RDKit          3D

 26 26  0  0  1  0  0  0  0  0999 V2000
    7.3242  -20.6768   23.4642 N   0  0  0  0  0  0  0  0  0  0  0  0
    6.9087  -19.3937   24.0089 C   0  0  1  0  0  0  0  0  0  0  0  0
    7.2240  -19.4160   25.4909 C   0  0  0  0  0  0  0  0  0  0  0  0
    6.4230  -20.4689   26.1908 C   0  0  0  0  0  0  0  0  0  0  0  0
    5.4591  -21.2890   25.6392 C   0  0  0  0  0  0  0  0  0  0  0  0
    4.9957  -22.0765   26.5984 N   0  0  0  0  0  0  0  0  0  0  0  0
    5.6241  -21.7958   27.7490 C   0  0  0  0  0  0  0  0  0  0  0  0
    6.4939  -20.8123   27.4887 N   0  0  0  0  0  0  0  0  0  0  0  0
    7.7142  -18.2804   23.4186 C   0  0  0  0  0  0  0  0  0  0  0  0
    8.9366  -18.4701   23.2052 O   0  0  0  0  0  0  0  0  0  0  0  0
    7.5796  -11.1986   19.9478 C   0  0  0  0  0  0  0  0  0  0  0  0
    6.6731  -12.7200   20.4076 S   0  0  0  0  0  0  0  0  0  0  0  0
    7.7993  -13.8113   21.3161 C   0  0  0  0  0  0  0  0  0  0  0  0
    6.9987  -14.9959   21.7960 C   0  0  0  0  0  0  0  0  0  0  0  0
    7.9074  -15.8925   22.6090 C   0  0  2  0  0  0  0  0  0  0  0  0
    7.1488  -17.0264   23.0939 N   0  0  0  0  0  0  0  0  0  0  0  0
    8.5105  -15.1283   23.7538 C   0  0  0  0  0  0  0  0  0  0  0  0
    9.2609  -14.1422   23.5408 O   0  0  0  0  0  0  0  0  0  0  0  0
    7.7254  -12.4955   25.5406 C   0  0  0  0  0  0  0  0  0  0  0  0
    7.8831  -13.5561   26.5859 C   0  0  1  0  0  0  0  0  0  0  0  0
    6.5195  -14.0816   27.0538 C   0  0  0  0  0  0  0  0  0  0  0  0
    8.7854  -14.6769   26.1758 C   0  0  2  0  0  0  0  0  0  0  0  0
    8.2596  -15.4860   25.1077 N   0  0  0  0  0  0  0  0  0  0  0  0
    9.0153  -15.5393   27.3756 C   0  0  0  0  0  0  0  0  0  0  0  0
    9.6566  -15.0794   28.5179 O   0  0  0  0  0  0  0  0  0  0  0  0
    8.6253  -16.7395   27.3889 O   0  0  0  0  0  0  0  0  0  0  0  0
  2  1  1  6
  2  9  1  0
  3  2  1  0
  4  3  1  0
  5  4  2  0
  6  5  1  0
  7  6  1  0
  7  8  2  0
  8  4  1  0
  9 16  1  0
  9 10  2  0
 12 11  1  0
 12 13  1  0
 13 14  1  0
 15 14  1  1
 16 15  1  0
 17 15  1  0
 17 18  2  0
 20 19  1  6
 20 22  1  0
 21 20  1  0
 22 23  1  6
 23 17  1  0
 24 22  1  0
 24 25  1  0
 26 24  2  0
M  END
$$$$
