VWS.pdb
     RDKit          3D

 28 29  0  0  1  0  0  0  0  0999 V2000
   27.2897  -18.3157  -14.6831 C   0  0  0  0  0  0  0  0  0  0  0  0
   27.5081  -19.5304  -15.5564 C   0  0  1  0  0  0  0  0  0  0  0  0
   28.3495  -19.0835  -16.7299 C   0  0  0  0  0  0  0  0  0  0  0  0
   28.2197  -20.5701  -14.7204 C   0  0  2  0  0  0  0  0  0  0  0  0
   28.4015  -21.7810  -15.5027 N   0  0  0  0  0  0  0  0  0  0  0  0
   27.4364  -20.9200  -13.5021 C   0  0  0  0  0  0  0  0  0  0  0  0
   26.4075  -21.6254  -13.6085 O   0  0  0  0  0  0  0  0  0  0  0  0
   27.8139  -20.4811  -12.2003 N   0  0  0  0  0  0  0  0  0  0  0  0
   27.1089  -20.6551  -10.9787 C   0  0  1  0  0  0  0  0  0  0  0  0
   27.8449  -20.3424   -9.7329 C   0  0  0  0  0  0  0  0  0  0  0  0
   27.0989  -20.5767   -8.4988 C   0  0  0  0  0  0  0  0  0  0  0  0
   25.8577  -21.1114   -8.3131 C   0  0  0  0  0  0  0  0  0  0  0  0
   25.5827  -21.1001   -6.9775 N   0  0  0  0  0  0  0  0  0  0  0  0
   26.6064  -20.5743   -6.2858 C   0  0  0  0  0  0  0  0  0  0  0  0
   26.7992  -20.3471   -4.9321 C   0  0  0  0  0  0  0  0  0  0  0  0
   27.9693  -19.7752   -4.4829 C   0  0  0  0  0  0  0  0  0  0  0  0
   28.9476  -19.4322   -5.4085 C   0  0  0  0  0  0  0  0  0  0  0  0
   28.7254  -19.6693   -6.7335 C   0  0  0  0  0  0  0  0  0  0  0  0
   27.5615  -20.2420   -7.2219 C   0  0  0  0  0  0  0  0  0  0  0  0
   25.6976  -20.1705  -10.9803 C   0  0  0  0  0  0  0  0  0  0  0  0
   25.4914  -18.9445  -10.9550 O   0  0  0  0  0  0  0  0  0  0  0  0
   23.3007  -21.2094  -13.6075 O   0  0  0  0  0  0  0  0  0  0  0  0
   22.6732  -21.3787  -12.3793 C   0  0  0  0  0  0  0  0  0  0  0  0
   23.2298  -20.4867  -11.3031 C   0  0  2  0  0  0  0  0  0  0  0  0
   24.5822  -21.0073  -11.0075 N   0  0  0  0  0  0  0  0  0  0  0  0
   22.4053  -20.5255  -10.0664 C   0  0  0  0  0  0  0  0  0  0  0  0
   21.0928  -20.1112  -10.1358 O   0  0  0  0  0  0  0  0  0  0  0  0
   22.9013  -20.9244   -9.0087 O   0  0  0  0  0  0  0  0  0  0  0  0
  2  1  1  1
  3  2  1  0
  4  2  1  0
  4  5  1  6
  6  4  1  0
  7  6  2  0
  8  6  1  0
  9  8  1  0
  9 10  1  1
 10 11  1  0
 11 19  1  0
 11 12  2  0
 12 13  1  0
 14 13  1  0
 14 15  2  0
 16 15  1  0
 17 16  2  0
 18 19  2  0
 18 17  1  0
 19 14  1  0
 20 25  1  0
 20  9  1  0
 21 20  2  0
 24 23  1  6
 23 22  1  0
 24 26  1  0
 24 25  1  0
 26 27  1  0
 28 26  2  0
M  END
$$$$
