VWS.pdb
     RDKit          3D

 28 29  0  0  1  0  0  0  0  0999 V2000
   25.5813  -17.2043  -16.5670 C   0  0  0  0  0  0  0  0  0  0  0  0
   26.6775  -17.9240  -17.3195 C   0  0  1  0  0  0  0  0  0  0  0  0
   27.1632  -16.9823  -18.3974 C   0  0  0  0  0  0  0  0  0  0  0  0
   27.7707  -18.2522  -16.3277 C   0  0  2  0  0  0  0  0  0  0  0  0
   28.8980  -18.8456  -17.0263 N   0  0  0  0  0  0  0  0  0  0  0  0
   27.3010  -19.2228  -15.2993 C   0  0  0  0  0  0  0  0  0  0  0  0
   27.2270  -20.4398  -15.5842 O   0  0  0  0  0  0  0  0  0  0  0  0
   26.9278  -18.8204  -13.9845 N   0  0  0  0  0  0  0  0  0  0  0  0
   26.4957  -19.6404  -12.9073 C   0  0  1  0  0  0  0  0  0  0  0  0
   26.6782  -19.0990  -11.5415 C   0  0  0  0  0  0  0  0  0  0  0  0
   26.2795  -19.9985  -10.4616 C   0  0  0  0  0  0  0  0  0  0  0  0
   25.5446  -21.1471  -10.5041 C   0  0  0  0  0  0  0  0  0  0  0  0
   25.4155  -21.6194   -9.2313 N   0  0  0  0  0  0  0  0  0  0  0  0
   26.0436  -20.8141   -8.3595 C   0  0  0  0  0  0  0  0  0  0  0  0
   26.1906  -20.8638   -6.9821 C   0  0  0  0  0  0  0  0  0  0  0  0
   26.8968  -19.8819   -6.3224 C   0  0  0  0  0  0  0  0  0  0  0  0
   27.4559  -18.8458   -7.0609 C   0  0  0  0  0  0  0  0  0  0  0  0
   27.2918  -18.8271   -8.4151 C   0  0  0  0  0  0  0  0  0  0  0  0
   26.5881  -19.7966   -9.1124 C   0  0  0  0  0  0  0  0  0  0  0  0
   25.1866  -20.3268  -13.1112 C   0  0  0  0  0  0  0  0  0  0  0  0
   24.1756  -19.6299  -13.3073 O   0  0  0  0  0  0  0  0  0  0  0  0
   22.8972  -24.5782  -13.8656 O   0  0  0  0  0  0  0  0  0  0  0  0
   24.0147  -23.8267  -13.5236 C   0  0  0  0  0  0  0  0  0  0  0  0
   23.7633  -22.3437  -13.5593 C   0  0  2  0  0  0  0  0  0  0  0  0
   25.0174  -21.7111  -13.0961 N   0  0  0  0  0  0  0  0  0  0  0  0
   22.6488  -21.9462  -12.6590 C   0  0  0  0  0  0  0  0  0  0  0  0
   21.3539  -22.1086  -13.1015 O   0  0  0  0  0  0  0  0  0  0  0  0
   22.8959  -21.4835  -11.5415 O   0  0  0  0  0  0  0  0  0  0  0  0
  2  1  1  1
  3  2  1  0
  4  2  1  0
  4  5  1  6
  6  4  1  0
  7  6  2  0
  8  6  1  0
  9  8  1  0
  9 10  1  1
 10 11  1  0
 11 19  1  0
 11 12  2  0
 12 13  1  0
 14 13  1  0
 14 15  2  0
 16 15  1  0
 17 16  2  0
 18 19  2  0
 18 17  1  0
 19 14  1  0
 20 25  1  0
 20  9  1  0
 21 20  2  0
 24 23  1  1
 23 22  1  0
 24 26  1  0
 24 25  1  0
 26 27  1  0
 28 26  2  0
M  END
$$$$
