VWS.pdb
     RDKit          3D

 28 29  0  0  1  0  0  0  0  0999 V2000
   27.8969  -19.5028  -17.0721 C   0  0  0  0  0  0  0  0  0  0  0  0
   26.8845  -19.9992  -16.0649 C   0  0  1  0  0  0  0  0  0  0  0  0
   25.9131  -20.8814  -16.8151 C   0  0  0  0  0  0  0  0  0  0  0  0
   27.6377  -20.7703  -15.0044 C   0  0  2  0  0  0  0  0  0  0  0  0
   28.2591  -21.9392  -15.6032 N   0  0  0  0  0  0  0  0  0  0  0  0
   26.7288  -21.2348  -13.9188 C   0  0  0  0  0  0  0  0  0  0  0  0
   26.1785  -22.3558  -14.0090 O   0  0  0  0  0  0  0  0  0  0  0  0
   26.4553  -20.4471  -12.7636 N   0  0  0  0  0  0  0  0  0  0  0  0
   25.5673  -20.7407  -11.6936 C   0  0  1  0  0  0  0  0  0  0  0  0
   25.9090  -20.1758  -10.3686 C   0  0  0  0  0  0  0  0  0  0  0  0
   27.1478  -20.6812   -9.7819 C   0  0  0  0  0  0  0  0  0  0  0  0
   28.0634  -21.5571  -10.2875 C   0  0  0  0  0  0  0  0  0  0  0  0
   29.0411  -21.7397   -9.3545 N   0  0  0  0  0  0  0  0  0  0  0  0
   28.7916  -21.0098   -8.2555 C   0  0  0  0  0  0  0  0  0  0  0  0
   29.4732  -20.8640   -7.0574 C   0  0  0  0  0  0  0  0  0  0  0  0
   28.9803  -20.0350   -6.0736 C   0  0  0  0  0  0  0  0  0  0  0  0
   27.7925  -19.3514   -6.3044 C   0  0  0  0  0  0  0  0  0  0  0  0
   27.1469  -19.5181   -7.4946 C   0  0  0  0  0  0  0  0  0  0  0  0
   27.6121  -20.3431   -8.5066 C   0  0  0  0  0  0  0  0  0  0  0  0
   24.1151  -20.6561  -12.0262 C   0  0  0  0  0  0  0  0  0  0  0  0
   23.6476  -19.5552  -12.3662 O   0  0  0  0  0  0  0  0  0  0  0  0
   19.8886  -23.0266  -12.6462 O   0  0  0  0  0  0  0  0  0  0  0  0
   21.2458  -22.9885  -12.3511 C   0  0  0  0  0  0  0  0  0  0  0  0
   21.8086  -21.5932  -12.3357 C   0  0  2  0  0  0  0  0  0  0  0  0
   23.2370  -21.7387  -11.9807 N   0  0  0  0  0  0  0  0  0  0  0  0
   21.1351  -20.7324  -11.3276 C   0  0  0  0  0  0  0  0  0  0  0  0
   21.6893  -20.6331  -10.0699 O   0  0  0  0  0  0  0  0  0  0  0  0
   20.1029  -20.1255  -11.6281 O   0  0  0  0  0  0  0  0  0  0  0  0
  2  1  1  6
  3  2  1  0
  4  2  1  0
  4  5  1  6
  6  4  1  0
  7  6  2  0
  8  6  1  0
  9  8  1  0
  9 10  1  1
 10 11  1  0
 11 19  1  0
 11 12  2  0
 12 13  1  0
 14 13  1  0
 14 15  2  0
 16 15  1  0
 17 16  2  0
 18 19  2  0
 18 17  1  0
 19 14  1  0
 20 25  1  0
 20  9  1  0
 21 20  2  0
 24 23  1  1
 23 22  1  0
 24 26  1  0
 24 25  1  0
 26 27  1  0
 28 26  2  0
M  END
$$$$
