VWS.pdb
     RDKit          3D

 28 29  0  0  1  0  0  0  0  0999 V2000
   26.7552  -21.9042  -16.0893 C   0  0  0  0  0  0  0  0  0  0  0  0
   27.8414  -21.1954  -15.3125 C   0  0  1  0  0  0  0  0  0  0  0  0
   28.8164  -20.6403  -16.3253 C   0  0  0  0  0  0  0  0  0  0  0  0
   27.1832  -20.0972  -14.5081 C   0  0  2  0  0  0  0  0  0  0  0  0
   28.1621  -19.0696  -14.1970 N   0  0  0  0  0  0  0  0  0  0  0  0
   26.6335  -20.6160  -13.2239 C   0  0  0  0  0  0  0  0  0  0  0  0
   25.7989  -21.5492  -13.2394 O   0  0  0  0  0  0  0  0  0  0  0  0
   27.0234  -20.0893  -11.9589 N   0  0  0  0  0  0  0  0  0  0  0  0
   26.4150  -20.3090  -10.6936 C   0  0  1  0  0  0  0  0  0  0  0  0
   27.1116  -19.7515   -9.5122 C   0  0  0  0  0  0  0  0  0  0  0  0
   26.6254  -20.2356   -8.2224 C   0  0  0  0  0  0  0  0  0  0  0  0
   25.4983  -20.9422   -7.9198 C   0  0  0  0  0  0  0  0  0  0  0  0
   25.4661  -21.1386   -6.5707 N   0  0  0  0  0  0  0  0  0  0  0  0
   26.5377  -20.5818   -5.9836 C   0  0  0  0  0  0  0  0  0  0  0  0
   26.9445  -20.5091   -4.6605 C   0  0  0  0  0  0  0  0  0  0  0  0
   28.1113  -19.8571   -4.3267 C   0  0  0  0  0  0  0  0  0  0  0  0
   28.8687  -19.2766   -5.3371 C   0  0  0  0  0  0  0  0  0  0  0  0
   28.4392  -19.3663   -6.6288 C   0  0  0  0  0  0  0  0  0  0  0  0
   27.2715  -20.0134   -7.0020 C   0  0  0  0  0  0  0  0  0  0  0  0
   24.9339  -20.1316  -10.6567 C   0  0  0  0  0  0  0  0  0  0  0  0
   24.4745  -18.9761  -10.6667 O   0  0  0  0  0  0  0  0  0  0  0  0
   20.7645  -22.1492  -11.9386 O   0  0  0  0  0  0  0  0  0  0  0  0
   22.1363  -22.1257  -11.7192 C   0  0  0  0  0  0  0  0  0  0  0  0
   22.5784  -20.9702  -10.8630 C   0  0  2  0  0  0  0  0  0  0  0  0
   24.0199  -21.1840  -10.6105 N   0  0  0  0  0  0  0  0  0  0  0  0
   21.8516  -20.9280   -9.5665 C   0  0  0  0  0  0  0  0  0  0  0  0
   20.6499  -20.2563   -9.5060 O   0  0  0  0  0  0  0  0  0  0  0  0
   22.3282  -21.4893   -8.5756 O   0  0  0  0  0  0  0  0  0  0  0  0
  2  1  1  6
  3  2  1  0
  4  2  1  0
  4  5  1  1
  6  4  1  0
  7  6  2  0
  8  6  1  0
  9  8  1  0
  9 10  1  1
 10 11  1  0
 11 19  1  0
 11 12  2  0
 12 13  1  0
 14 13  1  0
 14 15  2  0
 16 15  1  0
 17 16  2  0
 18 19  2  0
 18 17  1  0
 19 14  1  0
 20 25  1  0
 20  9  1  0
 21 20  2  0
 24 23  1  6
 23 22  1  0
 24 26  1  0
 24 25  1  0
 26 27  1  0
 28 26  2  0
M  END
$$$$
