VWS.pdb
     RDKit          3D

 28 29  0  0  1  0  0  0  0  0999 V2000
   26.8323  -28.7505  -17.6952 C   0  0  0  0  0  0  0  0  0  0  0  0
   28.0161  -28.3586  -16.8403 C   0  0  1  0  0  0  0  0  0  0  0  0
   29.0930  -29.3919  -17.0791 C   0  0  0  0  0  0  0  0  0  0  0  0
   28.4562  -26.9794  -17.2770 C   0  0  2  0  0  0  0  0  0  0  0  0
   29.6170  -26.5725  -16.5036 N   0  0  0  0  0  0  0  0  0  0  0  0
   27.3809  -25.9703  -17.0629 C   0  0  0  0  0  0  0  0  0  0  0  0
   27.0905  -25.6121  -15.8989 O   0  0  0  0  0  0  0  0  0  0  0  0
   26.6582  -25.3848  -18.1421 N   0  0  0  0  0  0  0  0  0  0  0  0
   25.5923  -24.4472  -18.0758 C   0  0  1  0  0  0  0  0  0  0  0  0
   25.5616  -23.3968  -19.1185 C   0  0  0  0  0  0  0  0  0  0  0  0
   24.5976  -22.3238  -18.8869 C   0  0  0  0  0  0  0  0  0  0  0  0
   24.5472  -21.3903  -17.8933 C   0  0  0  0  0  0  0  0  0  0  0  0
   23.4419  -20.6161  -18.0896 N   0  0  0  0  0  0  0  0  0  0  0  0
   22.7692  -21.0159  -19.1808 C   0  0  0  0  0  0  0  0  0  0  0  0
   21.6050  -20.5594  -19.7788 C   0  0  0  0  0  0  0  0  0  0  0  0
   21.1217  -21.1700  -20.9153 C   0  0  0  0  0  0  0  0  0  0  0  0
   21.8203  -22.2470  -21.4478 C   0  0  0  0  0  0  0  0  0  0  0  0
   22.9625  -22.6710  -20.8339 C   0  0  0  0  0  0  0  0  0  0  0  0
   23.4782  -22.0821  -19.6900 C   0  0  0  0  0  0  0  0  0  0  0  0
   24.2518  -25.0239  -17.7646 C   0  0  0  0  0  0  0  0  0  0  0  0
   23.9032  -26.0642  -18.3498 O   0  0  0  0  0  0  0  0  0  0  0  0
   20.3910  -25.0582  -14.8055 O   0  0  0  0  0  0  0  0  0  0  0  0
   21.6086  -24.5458  -15.2363 C   0  0  0  0  0  0  0  0  0  0  0  0
   22.0546  -25.1125  -16.5567 C   0  0  2  0  0  0  0  0  0  0  0  0
   23.3533  -24.4697  -16.8531 N   0  0  0  0  0  0  0  0  0  0  0  0
   21.0922  -24.8056  -17.6478 C   0  0  0  0  0  0  0  0  0  0  0  0
   20.6221  -25.8432  -18.4234 O   0  0  0  0  0  0  0  0  0  0  0  0
   20.7313  -23.6408  -17.8401 O   0  0  0  0  0  0  0  0  0  0  0  0
  2  1  1  6
  3  2  1  0
  4  2  1  0
  4  5  1  1
  6  4  1  0
  7  6  2  0
  8  6  1  0
  9  8  1  0
  9 10  1  6
 10 11  1  0
 11 19  1  0
 11 12  2  0
 12 13  1  0
 14 13  1  0
 14 15  2  0
 16 15  1  0
 17 16  2  0
 18 19  2  0
 18 17  1  0
 19 14  1  0
 20 25  1  0
 20  9  1  0
 21 20  2  0
 24 23  1  1
 23 22  1  0
 24 26  1  0
 24 25  1  0
 26 27  1  0
 28 26  2  0
M  END
$$$$
