VWS.pdb
     RDKit          3D

 28 29  0  0  1  0  0  0  0  0999 V2000
   29.8811  -18.4614  -13.4692 C   0  0  0  0  0  0  0  0  0  0  0  0
   28.6485  -19.2161  -13.0258 C   0  0  1  0  0  0  0  0  0  0  0  0
   28.0513  -19.8490  -14.2616 C   0  0  0  0  0  0  0  0  0  0  0  0
   29.0887  -20.2563  -12.0205 C   0  0  2  0  0  0  0  0  0  0  0  0
   30.0032  -21.1895  -12.6560 N   0  0  0  0  0  0  0  0  0  0  0  0
   27.9297  -21.0309  -11.4938 C   0  0  0  0  0  0  0  0  0  0  0  0
   27.7130  -22.1881  -11.9199 O   0  0  0  0  0  0  0  0  0  0  0  0
   27.0440  -20.5043  -10.5099 N   0  0  0  0  0  0  0  0  0  0  0  0
   25.7909  -21.0269  -10.0902 C   0  0  1  0  0  0  0  0  0  0  0  0
   25.4828  -20.9422   -8.6447 C   0  0  0  0  0  0  0  0  0  0  0  0
   26.2996  -19.9921   -7.8933 C   0  0  0  0  0  0  0  0  0  0  0  0
   26.4410  -18.6440   -8.0475 C   0  0  0  0  0  0  0  0  0  0  0  0
   27.3376  -18.1993   -7.1212 N   0  0  0  0  0  0  0  0  0  0  0  0
   27.7857  -19.2160   -6.3671 C   0  0  0  0  0  0  0  0  0  0  0  0
   28.6919  -19.2723   -5.3197 C   0  0  0  0  0  0  0  0  0  0  0  0
   28.9797  -20.4755   -4.7134 C   0  0  0  0  0  0  0  0  0  0  0  0
   28.3471  -21.6257   -5.1699 C   0  0  0  0  0  0  0  0  0  0  0  0
   27.4608  -21.5348   -6.2031 C   0  0  0  0  0  0  0  0  0  0  0  0
   27.1470  -20.3428   -6.8371 C   0  0  0  0  0  0  0  0  0  0  0  0
   24.6329  -20.6969  -10.9714 C   0  0  0  0  0  0  0  0  0  0  0  0
   24.3639  -19.4999  -11.1741 O   0  0  0  0  0  0  0  0  0  0  0  0
   23.4681  -22.7450  -14.1565 O   0  0  0  0  0  0  0  0  0  0  0  0
   22.3980  -22.4341  -13.3266 C   0  0  0  0  0  0  0  0  0  0  0  0
   22.6688  -21.2581  -12.4281 C   0  0  2  0  0  0  0  0  0  0  0  0
   23.8225  -21.6491  -11.5893 N   0  0  0  0  0  0  0  0  0  0  0  0
   21.5070  -20.9461  -11.5541 C   0  0  0  0  0  0  0  0  0  0  0  0
   21.6701  -21.0239  -10.1880 O   0  0  0  0  0  0  0  0  0  0  0  0
   20.4270  -20.6245  -12.0581 O   0  0  0  0  0  0  0  0  0  0  0  0
  2  1  1  6
  3  2  1  0
  4  2  1  0
  4  5  1  6
  6  4  1  0
  7  6  2  0
  8  6  1  0
  9  8  1  0
  9 10  1  1
 10 11  1  0
 11 19  1  0
 11 12  2  0
 12 13  1  0
 14 13  1  0
 14 15  2  0
 16 15  1  0
 17 16  2  0
 18 19  2  0
 18 17  1  0
 19 14  1  0
 20 25  1  0
 20  9  1  0
 21 20  2  0
 24 23  1  6
 23 22  1  0
 24 26  1  0
 24 25  1  0
 26 27  1  0
 28 26  2  0
M  END
$$$$
