VWS.pdb
     RDKit          3D

 28 29  0  0  1  0  0  0  0  0999 V2000
   37.3321   -1.6749  -15.4140 C   0  0  0  0  0  0  0  0  0  0  0  0
   36.7162   -1.0280  -14.1942 C   0  0  1  0  0  0  0  0  0  0  0  0
   37.2342    0.3909  -14.1393 C   0  0  0  0  0  0  0  0  0  0  0  0
   35.2144   -1.0700  -14.3658 C   0  0  2  0  0  0  0  0  0  0  0  0
   34.5757   -0.4881  -13.1977 N   0  0  0  0  0  0  0  0  0  0  0  0
   34.7212   -2.4682  -14.5142 C   0  0  0  0  0  0  0  0  0  0  0  0
   34.7129   -3.2309  -13.5212 O   0  0  0  0  0  0  0  0  0  0  0  0
   34.2497   -2.9831  -15.7561 N   0  0  0  0  0  0  0  0  0  0  0  0
   33.8449   -4.3119  -16.0562 C   0  0  1  0  0  0  0  0  0  0  0  0
   32.4802   -4.4865  -16.6028 C   0  0  0  0  0  0  0  0  0  0  0  0
   32.0874   -5.8710  -16.8539 C   0  0  0  0  0  0  0  0  0  0  0  0
   32.1600   -6.9639  -16.0406 C   0  0  0  0  0  0  0  0  0  0  0  0
   31.6952   -8.0433  -16.7323 N   0  0  0  0  0  0  0  0  0  0  0  0
   31.3215   -7.6884  -17.9722 C   0  0  0  0  0  0  0  0  0  0  0  0
   30.8008   -8.4125  -19.0333 C   0  0  0  0  0  0  0  0  0  0  0  0
   30.5044   -7.7857  -20.2238 C   0  0  0  0  0  0  0  0  0  0  0  0
   30.7364   -6.4203  -20.3397 C   0  0  0  0  0  0  0  0  0  0  0  0
   31.2501   -5.7379  -19.2760 C   0  0  0  0  0  0  0  0  0  0  0  0
   31.5605   -6.3344  -18.0640 C   0  0  0  0  0  0  0  0  0  0  0  0
   34.8740   -5.1576  -16.7287 C   0  0  0  0  0  0  0  0  0  0  0  0
   35.4604   -4.6986  -17.7245 O   0  0  0  0  0  0  0  0  0  0  0  0
   37.7376   -7.6497  -15.2134 O   0  0  0  0  0  0  0  0  0  0  0  0
   36.7857   -8.2199  -16.0497 C   0  0  0  0  0  0  0  0  0  0  0  0
   36.2212   -7.2493  -17.0512 C   0  0  2  0  0  0  0  0  0  0  0  0
   35.2265   -6.4413  -16.3128 N   0  0  0  0  0  0  0  0  0  0  0  0
   35.5508   -7.9435  -18.1824 C   0  0  0  0  0  0  0  0  0  0  0  0
   35.9294   -7.6251  -19.4686 O   0  0  0  0  0  0  0  0  0  0  0  0
   34.6768   -8.7854  -17.9563 O   0  0  0  0  0  0  0  0  0  0  0  0
  2  1  1  6
  3  2  1  0
  4  2  1  0
  4  5  1  1
  6  4  1  0
  7  6  2  0
  8  6  1  0
  9  8  1  0
  9 10  1  6
 10 11  1  0
 11 19  1  0
 11 12  2  0
 12 13  1  0
 14 13  1  0
 14 15  2  0
 16 15  1  0
 17 16  2  0
 18 19  2  0
 18 17  1  0
 19 14  1  0
 20 25  1  0
 20  9  1  0
 21 20  2  0
 24 23  1  1
 23 22  1  0
 24 26  1  0
 24 25  1  0
 26 27  1  0
 28 26  2  0
M  END
$$$$
