VWS.pdb
     RDKit          3D

 28 29  0  0  1  0  0  0  0  0999 V2000
   28.7935  -17.9926  -15.3947 C   0  0  0  0  0  0  0  0  0  0  0  0
   27.6874  -18.6882  -14.6341 C   0  0  1  0  0  0  0  0  0  0  0  0
   26.7034  -19.2022  -15.6599 C   0  0  0  0  0  0  0  0  0  0  0  0
   28.3158  -19.8155  -13.8463 C   0  0  2  0  0  0  0  0  0  0  0  0
   28.8168  -20.8270  -14.7612 N   0  0  0  0  0  0  0  0  0  0  0  0
   27.3282  -20.4626  -12.9373 C   0  0  0  0  0  0  0  0  0  0  0  0
   26.7789  -21.5338  -13.2813 O   0  0  0  0  0  0  0  0  0  0  0  0
   26.9771  -19.9076  -11.6730 N   0  0  0  0  0  0  0  0  0  0  0  0
   26.0420  -20.4069  -10.7267 C   0  0  1  0  0  0  0  0  0  0  0  0
   26.2206  -19.9773   -9.3213 C   0  0  0  0  0  0  0  0  0  0  0  0
   27.3959  -20.5286   -8.6510 C   0  0  0  0  0  0  0  0  0  0  0  0
   28.3249  -21.4198   -9.1027 C   0  0  0  0  0  0  0  0  0  0  0  0
   29.2212  -21.6479   -8.1005 N   0  0  0  0  0  0  0  0  0  0  0  0
   28.9056  -20.9329   -7.0086 C   0  0  0  0  0  0  0  0  0  0  0  0
   29.4948  -20.8296   -5.7582 C   0  0  0  0  0  0  0  0  0  0  0  0
   28.9482  -20.0066   -4.7980 C   0  0  0  0  0  0  0  0  0  0  0  0
   27.8006  -19.2856   -5.1058 C   0  0  0  0  0  0  0  0  0  0  0  0
   27.2462  -19.4109   -6.3460 C   0  0  0  0  0  0  0  0  0  0  0  0
   27.7674  -20.2287   -7.3363 C   0  0  0  0  0  0  0  0  0  0  0  0
   24.6191  -20.4143  -11.1762 C   0  0  0  0  0  0  0  0  0  0  0  0
   24.0660  -19.3260  -11.4121 O   0  0  0  0  0  0  0  0  0  0  0  0
   20.7741  -23.0480  -12.6198 O   0  0  0  0  0  0  0  0  0  0  0  0
   22.0973  -22.9161  -12.2169 C   0  0  0  0  0  0  0  0  0  0  0  0
   22.4541  -21.5124  -11.8094 C   0  0  2  0  0  0  0  0  0  0  0  0
   23.8590  -21.5705  -11.3510 N   0  0  0  0  0  0  0  0  0  0  0  0
   21.5939  -21.0187  -10.7016 C   0  0  0  0  0  0  0  0  0  0  0  0
   20.3757  -20.4552  -11.0137 O   0  0  0  0  0  0  0  0  0  0  0  0
   21.9776  -21.1205   -9.5327 O   0  0  0  0  0  0  0  0  0  0  0  0
  2  1  1  6
  3  2  1  0
  4  2  1  0
  4  5  1  6
  6  4  1  0
  7  6  2  0
  8  6  1  0
  9  8  1  0
  9 10  1  1
 10 11  1  0
 11 19  1  0
 11 12  2  0
 12 13  1  0
 14 13  1  0
 14 15  2  0
 16 15  1  0
 17 16  2  0
 18 19  2  0
 18 17  1  0
 19 14  1  0
 20 25  1  0
 20  9  1  0
 21 20  2  0
 24 23  1  1
 23 22  1  0
 24 26  1  0
 24 25  1  0
 26 27  1  0
 28 26  2  0
M  END
$$$$
