VWS.pdb
     RDKit          3D

 28 29  0  0  1  0  0  0  0  0999 V2000
   32.9693  -36.6770   -3.3436 C   0  0  0  0  0  0  0  0  0  0  0  0
   33.5404  -35.7178   -4.3633 C   0  0  1  0  0  0  0  0  0  0  0  0
   34.8288  -36.3266   -4.8673 C   0  0  0  0  0  0  0  0  0  0  0  0
   32.5204  -35.5692   -5.4697 C   0  0  2  0  0  0  0  0  0  0  0  0
   33.0538  -34.7052   -6.5090 N   0  0  0  0  0  0  0  0  0  0  0  0
   31.2555  -34.9622   -4.9677 C   0  0  0  0  0  0  0  0  0  0  0  0
   31.2426  -33.7612   -4.6136 O   0  0  0  0  0  0  0  0  0  0  0  0
   30.0404  -35.6999   -4.8727 N   0  0  0  0  0  0  0  0  0  0  0  0
   28.7994  -35.2765   -4.3249 C   0  0  1  0  0  0  0  0  0  0  0  0
   27.6142  -35.3688   -5.2072 C   0  0  0  0  0  0  0  0  0  0  0  0
   27.6449  -34.4943   -6.3771 C   0  0  0  0  0  0  0  0  0  0  0  0
   28.5549  -34.4179   -7.3906 C   0  0  0  0  0  0  0  0  0  0  0  0
   28.1656  -33.4255   -8.2409 N   0  0  0  0  0  0  0  0  0  0  0  0
   27.0294  -32.8518   -7.8134 C   0  0  0  0  0  0  0  0  0  0  0  0
   26.2577  -31.8179   -8.3205 C   0  0  0  0  0  0  0  0  0  0  0  0
   25.1157  -31.4159   -7.6631 C   0  0  0  0  0  0  0  0  0  0  0  0
   24.7541  -32.0636   -6.4879 C   0  0  0  0  0  0  0  0  0  0  0  0
   25.5363  -33.0770   -6.0164 C   0  0  0  0  0  0  0  0  0  0  0  0
   26.6913  -33.5081   -6.6499 C   0  0  0  0  0  0  0  0  0  0  0  0
   28.5385  -35.7106   -2.9213 C   0  0  0  0  0  0  0  0  0  0  0  0
   28.6396  -36.9189   -2.6456 O   0  0  0  0  0  0  0  0  0  0  0  0
   29.2421  -33.6810    0.5375 O   0  0  0  0  0  0  0  0  0  0  0  0
   27.9449  -34.1526    0.3776 C   0  0  0  0  0  0  0  0  0  0  0  0
   27.8580  -35.3462   -0.5342 C   0  0  2  0  0  0  0  0  0  0  0  0
   28.1846  -34.8448   -1.8867 N   0  0  0  0  0  0  0  0  0  0  0  0
   26.4952  -35.9407   -0.5445 C   0  0  0  0  0  0  0  0  0  0  0  0
   26.0299  -36.5430    0.6043 O   0  0  0  0  0  0  0  0  0  0  0  0
   25.8079  -35.8859   -1.5685 O   0  0  0  0  0  0  0  0  0  0  0  0
  2  1  1  1
  3  2  1  0
  4  2  1  0
  4  5  1  6
  6  4  1  0
  7  6  2  0
  8  6  1  0
  9  8  1  0
  9 10  1  6
 10 11  1  0
 11 19  1  0
 11 12  2  0
 12 13  1  0
 14 13  1  0
 14 15  2  0
 16 15  1  0
 17 16  2  0
 18 19  2  0
 18 17  1  0
 19 14  1  0
 20 25  1  0
 20  9  1  0
 21 20  2  0
 24 23  1  1
 23 22  1  0
 24 26  1  0
 24 25  1  0
 26 27  1  0
 28 26  2  0
M  END
$$$$
