VWS.pdb
     RDKit          3D

 28 29  0  0  1  0  0  0  0  0999 V2000
   26.5659  -19.7010  -16.4150 C   0  0  0  0  0  0  0  0  0  0  0  0
   27.2903  -21.0028  -16.6724 C   0  0  1  0  0  0  0  0  0  0  0  0
   28.3536  -20.7177  -17.7081 C   0  0  0  0  0  0  0  0  0  0  0  0
   27.8922  -21.4558  -15.3613 C   0  0  2  0  0  0  0  0  0  0  0  0
   28.5681  -22.7279  -15.5511 N   0  0  0  0  0  0  0  0  0  0  0  0
   26.8468  -21.6392  -14.3154 C   0  0  0  0  0  0  0  0  0  0  0  0
   26.1690  -22.6917  -14.2948 O   0  0  0  0  0  0  0  0  0  0  0  0
   26.5813  -20.6540  -13.3211 N   0  0  0  0  0  0  0  0  0  0  0  0
   25.6345  -20.7107  -12.2628 C   0  0  1  0  0  0  0  0  0  0  0  0
   26.0254  -20.0776  -10.9830 C   0  0  0  0  0  0  0  0  0  0  0  0
   27.2268  -20.6299  -10.3617 C   0  0  0  0  0  0  0  0  0  0  0  0
   28.1609  -21.4857  -10.8679 C   0  0  0  0  0  0  0  0  0  0  0  0
   29.0857  -21.7326   -9.8966 N   0  0  0  0  0  0  0  0  0  0  0  0
   28.7837  -21.0641   -8.7719 C   0  0  0  0  0  0  0  0  0  0  0  0
   29.4014  -20.9949   -7.5329 C   0  0  0  0  0  0  0  0  0  0  0  0
   28.8634  -20.2182   -6.5303 C   0  0  0  0  0  0  0  0  0  0  0  0
   27.6953  -19.5091   -6.7838 C   0  0  0  0  0  0  0  0  0  0  0  0
   27.1130  -19.5999   -8.0142 C   0  0  0  0  0  0  0  0  0  0  0  0
   27.6249  -20.3708   -9.0461 C   0  0  0  0  0  0  0  0  0  0  0  0
   24.2195  -20.4468  -12.6559 C   0  0  0  0  0  0  0  0  0  0  0  0
   23.8856  -19.2788  -12.9214 O   0  0  0  0  0  0  0  0  0  0  0  0
   21.1934  -23.3765  -12.6656 O   0  0  0  0  0  0  0  0  0  0  0  0
   21.2693  -22.4109  -13.6619 C   0  0  0  0  0  0  0  0  0  0  0  0
   21.8585  -21.1121  -13.1827 C   0  0  2  0  0  0  0  0  0  0  0  0
   23.2352  -21.4308  -12.7461 N   0  0  0  0  0  0  0  0  0  0  0  0
   21.0974  -20.5442  -12.0385 C   0  0  0  0  0  0  0  0  0  0  0  0
   19.8104  -20.1026  -12.2571 O   0  0  0  0  0  0  0  0  0  0  0  0
   21.6218  -20.4783  -10.9229 O   0  0  0  0  0  0  0  0  0  0  0  0
  2  1  1  1
  3  2  1  0
  4  2  1  0
  4  5  1  6
  6  4  1  0
  7  6  2  0
  8  6  1  0
  9  8  1  0
  9 10  1  1
 10 11  1  0
 11 19  1  0
 11 12  2  0
 12 13  1  0
 14 13  1  0
 14 15  2  0
 16 15  1  0
 17 16  2  0
 18 19  2  0
 18 17  1  0
 19 14  1  0
 20 25  1  0
 20  9  1  0
 21 20  2  0
 24 23  1  1
 23 22  1  0
 24 26  1  0
 24 25  1  0
 26 27  1  0
 28 26  2  0
M  END
$$$$
