VWS.pdb
     RDKit          3D

 28 29  0  0  1  0  0  0  0  0999 V2000
   26.4268  -22.0608  -18.7952 C   0  0  0  0  0  0  0  0  0  0  0  0
   27.7234  -22.8384  -18.8029 C   0  0  1  0  0  0  0  0  0  0  0  0
   28.2603  -22.7852  -20.2148 C   0  0  0  0  0  0  0  0  0  0  0  0
   28.6604  -22.1710  -17.8216 C   0  0  2  0  0  0  0  0  0  0  0  0
   29.9367  -22.8654  -17.8197 N   0  0  0  0  0  0  0  0  0  0  0  0
   28.1136  -22.2047  -16.4358 C   0  0  0  0  0  0  0  0  0  0  0  0
   28.0399  -23.2954  -15.8254 O   0  0  0  0  0  0  0  0  0  0  0  0
   27.6650  -21.0312  -15.7639 N   0  0  0  0  0  0  0  0  0  0  0  0
   27.1242  -20.9247  -14.4540 C   0  0  1  0  0  0  0  0  0  0  0  0
   27.6748  -19.8565  -13.5895 C   0  0  0  0  0  0  0  0  0  0  0  0
   27.3858  -20.0038  -12.1650 C   0  0  0  0  0  0  0  0  0  0  0  0
   26.2816  -19.6378  -11.4523 C   0  0  0  0  0  0  0  0  0  0  0  0
   26.4908  -19.9607  -10.1440 N   0  0  0  0  0  0  0  0  0  0  0  0
   27.6978  -20.5261   -9.9810 C   0  0  0  0  0  0  0  0  0  0  0  0
   28.3580  -21.0106   -8.8627 C   0  0  0  0  0  0  0  0  0  0  0  0
   29.6217  -21.5468   -8.9795 C   0  0  0  0  0  0  0  0  0  0  0  0
   30.2185  -21.5924  -10.2337 C   0  0  0  0  0  0  0  0  0  0  0  0
   29.5408  -21.1064  -11.3135 C   0  0  0  0  0  0  0  0  0  0  0  0
   28.2695  -20.5599  -11.2343 C   0  0  0  0  0  0  0  0  0  0  0  0
   25.6420  -21.0690  -14.3604 C   0  0  0  0  0  0  0  0  0  0  0  0
   24.9418  -20.6046  -15.2770 O   0  0  0  0  0  0  0  0  0  0  0  0
   21.7914  -22.5113  -11.7317 O   0  0  0  0  0  0  0  0  0  0  0  0
   23.1500  -22.2712  -11.8971 C   0  0  0  0  0  0  0  0  0  0  0  0
   23.5119  -21.8634  -13.2994 C   0  0  2  0  0  0  0  0  0  0  0  0
   24.9813  -21.6949  -13.3036 N   0  0  0  0  0  0  0  0  0  0  0  0
   22.8675  -20.5817  -13.6903 C   0  0  0  0  0  0  0  0  0  0  0  0
   23.3491  -19.4096  -13.1486 O   0  0  0  0  0  0  0  0  0  0  0  0
   21.9231  -20.5853  -14.4853 O   0  0  0  0  0  0  0  0  0  0  0  0
  2  1  1  6
  3  2  1  0
  4  2  1  0
  4  5  1  1
  6  4  1  0
  7  6  2  0
  8  6  1  0
  9  8  1  0
  9 10  1  6
 10 11  1  0
 11 19  1  0
 11 12  2  0
 12 13  1  0
 14 13  1  0
 14 15  2  0
 16 15  1  0
 17 16  2  0
 18 19  2  0
 18 17  1  0
 19 14  1  0
 20 25  1  0
 20  9  1  0
 21 20  2  0
 24 23  1  1
 23 22  1  0
 24 26  1  0
 24 25  1  0
 26 27  1  0
 28 26  2  0
M  END
$$$$
