VWS.pdb
     RDKit          3D

 28 29  0  0  1  0  0  0  0  0999 V2000
   27.3055  -21.3063  -17.8412 C   0  0  0  0  0  0  0  0  0  0  0  0
   27.7055  -22.7615  -17.9320 C   0  0  1  0  0  0  0  0  0  0  0  0
   28.6772  -22.8802  -19.0836 C   0  0  0  0  0  0  0  0  0  0  0  0
   28.3470  -23.1403  -16.6161 C   0  0  2  0  0  0  0  0  0  0  0  0
   28.6465  -24.5620  -16.6133 N   0  0  0  0  0  0  0  0  0  0  0  0
   27.4427  -22.8559  -15.4664 C   0  0  0  0  0  0  0  0  0  0  0  0
   26.3983  -23.5304  -15.3182 O   0  0  0  0  0  0  0  0  0  0  0  0
   27.7196  -21.8347  -14.5124 N   0  0  0  0  0  0  0  0  0  0  0  0
   26.9656  -21.4855  -13.3595 C   0  0  1  0  0  0  0  0  0  0  0  0
   27.6770  -20.7382  -12.2979 C   0  0  0  0  0  0  0  0  0  0  0  0
   26.9269  -20.5633  -11.0565 C   0  0  0  0  0  0  0  0  0  0  0  0
   25.5954  -20.3398  -10.8610 C   0  0  0  0  0  0  0  0  0  0  0  0
   25.3742  -20.2190   -9.5208 N   0  0  0  0  0  0  0  0  0  0  0  0
   26.5207  -20.3568   -8.8356 C   0  0  0  0  0  0  0  0  0  0  0  0
   26.8094  -20.3107   -7.4806 C   0  0  0  0  0  0  0  0  0  0  0  0
   28.1032  -20.4826   -7.0393 C   0  0  0  0  0  0  0  0  0  0  0  0
   29.1080  -20.7020   -7.9740 C   0  0  0  0  0  0  0  0  0  0  0  0
   28.7892  -20.7411   -9.2999 C   0  0  0  0  0  0  0  0  0  0  0  0
   27.5002  -20.5721   -9.7806 C   0  0  0  0  0  0  0  0  0  0  0  0
   25.5858  -20.9837  -13.6257 C   0  0  0  0  0  0  0  0  0  0  0  0
   25.4498  -19.8327  -14.0762 O   0  0  0  0  0  0  0  0  0  0  0  0
   22.3040  -23.5094  -13.7705 O   0  0  0  0  0  0  0  0  0  0  0  0
   22.4421  -22.3663  -14.5482 C   0  0  0  0  0  0  0  0  0  0  0  0
   23.0959  -21.2272  -13.8143 C   0  0  2  0  0  0  0  0  0  0  0  0
   24.4259  -21.7248  -13.4007 N   0  0  0  0  0  0  0  0  0  0  0  0
   22.3234  -20.8250  -12.6092 C   0  0  0  0  0  0  0  0  0  0  0  0
   21.0816  -20.2533  -12.7827 O   0  0  0  0  0  0  0  0  0  0  0  0
   22.7985  -21.0078  -11.4845 O   0  0  0  0  0  0  0  0  0  0  0  0
  2  1  1  1
  3  2  1  0
  4  2  1  0
  4  5  1  6
  6  4  1  0
  7  6  2  0
  8  6  1  0
  9  8  1  0
  9 10  1  6
 10 11  1  0
 11 19  1  0
 11 12  2  0
 12 13  1  0
 14 13  1  0
 14 15  2  0
 16 15  1  0
 17 16  2  0
 18 19  2  0
 18 17  1  0
 19 14  1  0
 20 25  1  0
 20  9  1  0
 21 20  2  0
 24 23  1  1
 23 22  1  0
 24 26  1  0
 24 25  1  0
 26 27  1  0
 28 26  2  0
M  END
$$$$
