VWS.pdb
     RDKit          3D

 28 29  0  0  1  0  0  0  0  0999 V2000
   22.8090  -22.4878  -14.8231 C   0  0  0  0  0  0  0  0  0  0  0  0
   21.8097  -21.5798  -14.1429 C   0  0  1  0  0  0  0  0  0  0  0  0
   20.4557  -22.2386  -14.2742 C   0  0  0  0  0  0  0  0  0  0  0  0
   22.2289  -21.4440  -12.6964 C   0  0  2  0  0  0  0  0  0  0  0  0
   21.2674  -20.6167  -11.9878 N   0  0  0  0  0  0  0  0  0  0  0  0
   23.5687  -20.8033  -12.5745 C   0  0  0  0  0  0  0  0  0  0  0  0
   23.6776  -19.5638  -12.7137 O   0  0  0  0  0  0  0  0  0  0  0  0
   24.7500  -21.5513  -12.3009 N   0  0  0  0  0  0  0  0  0  0  0  0
   26.0958  -21.0949  -12.3032 C   0  0  1  0  0  0  0  0  0  0  0  0
   26.9536  -21.5404  -11.1820 C   0  0  0  0  0  0  0  0  0  0  0  0
   26.6778  -20.8975   -9.8994 C   0  0  0  0  0  0  0  0  0  0  0  0
   25.5687  -20.2249   -9.4767 C   0  0  0  0  0  0  0  0  0  0  0  0
   25.7948  -19.7830   -8.2066 N   0  0  0  0  0  0  0  0  0  0  0  0
   27.0175  -20.1465   -7.7874 C   0  0  0  0  0  0  0  0  0  0  0  0
   27.6977  -19.9346   -6.5984 C   0  0  0  0  0  0  0  0  0  0  0  0
   28.9746  -20.4242   -6.4312 C   0  0  0  0  0  0  0  0  0  0  0  0
   29.5645  -21.1309   -7.4724 C   0  0  0  0  0  0  0  0  0  0  0  0
   28.8671  -21.3210   -8.6295 C   0  0  0  0  0  0  0  0  0  0  0  0
   27.5820  -20.8433   -8.8336 C   0  0  0  0  0  0  0  0  0  0  0  0
   26.7784  -21.1234  -13.6298 C   0  0  0  0  0  0  0  0  0  0  0  0
   26.7684  -22.1837  -14.2793 O   0  0  0  0  0  0  0  0  0  0  0  0
   27.6156  -17.7074  -15.8690 O   0  0  0  0  0  0  0  0  0  0  0  0
   28.5658  -18.7204  -15.8295 C   0  0  0  0  0  0  0  0  0  0  0  0
   27.9716  -20.0788  -15.5738 C   0  0  2  0  0  0  0  0  0  0  0  0
   27.4344  -20.0309  -14.1967 N   0  0  0  0  0  0  0  0  0  0  0  0
   28.9895  -21.1585  -15.6688 C   0  0  0  0  0  0  0  0  0  0  0  0
   29.5053  -21.6826  -14.5034 O   0  0  0  0  0  0  0  0  0  0  0  0
   29.3526  -21.5659  -16.7761 O   0  0  0  0  0  0  0  0  0  0  0  0
  2  1  1  6
  3  2  1  0
  4  2  1  0
  4  5  1  1
  6  4  1  0
  7  6  2  0
  8  6  1  0
  9  8  1  0
  9 10  1  1
 10 11  1  0
 11 19  1  0
 11 12  2  0
 12 13  1  0
 14 13  1  0
 14 15  2  0
 16 15  1  0
 17 16  2  0
 18 19  2  0
 18 17  1  0
 19 14  1  0
 20 25  1  0
 20  9  1  0
 21 20  2  0
 24 23  1  1
 23 22  1  0
 24 26  1  0
 24 25  1  0
 26 27  1  0
 28 26  2  0
M  END
$$$$
