VWS.pdb
     RDKit          3D

 28 29  0  0  1  0  0  0  0  0999 V2000
   26.9247  -18.0953  -15.0329 C   0  0  0  0  0  0  0  0  0  0  0  0
   27.6393  -19.2620  -15.6763 C   0  0  1  0  0  0  0  0  0  0  0  0
   28.7899  -18.6893  -16.4717 C   0  0  0  0  0  0  0  0  0  0  0  0
   28.1217  -20.1687  -14.5665 C   0  0  2  0  0  0  0  0  0  0  0  0
   28.8761  -21.2728  -15.1347 N   0  0  0  0  0  0  0  0  0  0  0  0
   26.9824  -20.7370  -13.7923 C   0  0  0  0  0  0  0  0  0  0  0  0
   26.3079  -21.6726  -14.2794 O   0  0  0  0  0  0  0  0  0  0  0  0
   26.6220  -20.2556  -12.5007 N   0  0  0  0  0  0  0  0  0  0  0  0
   25.5882  -20.7272  -11.6473 C   0  0  1  0  0  0  0  0  0  0  0  0
   25.7377  -20.4488  -10.2010 C   0  0  0  0  0  0  0  0  0  0  0  0
   27.0487  -20.7698   -9.6420 C   0  0  0  0  0  0  0  0  0  0  0  0
   28.0940  -21.4508  -10.1941 C   0  0  0  0  0  0  0  0  0  0  0  0
   29.0963  -21.5166   -9.2718 N   0  0  0  0  0  0  0  0  0  0  0  0
   28.7371  -20.8996   -8.1345 C   0  0  0  0  0  0  0  0  0  0  0  0
   29.3948  -20.7063   -6.9298 C   0  0  0  0  0  0  0  0  0  0  0  0
   28.7780  -20.0264   -5.9024 C   0  0  0  0  0  0  0  0  0  0  0  0
   27.4904  -19.5407   -6.0963 C   0  0  0  0  0  0  0  0  0  0  0  0
   26.8718  -19.7488   -7.2944 C   0  0  0  0  0  0  0  0  0  0  0  0
   27.4604  -20.4280   -8.3497 C   0  0  0  0  0  0  0  0  0  0  0  0
   24.1993  -20.5309  -12.1563 C   0  0  0  0  0  0  0  0  0  0  0  0
   23.7508  -19.3732  -12.2247 O   0  0  0  0  0  0  0  0  0  0  0  0
   21.9194  -23.6791  -13.5995 O   0  0  0  0  0  0  0  0  0  0  0  0
   21.8253  -22.4167  -14.1723 C   0  0  0  0  0  0  0  0  0  0  0  0
   22.0454  -21.3021  -13.1860 C   0  0  2  0  0  0  0  0  0  0  0  0
   23.3608  -21.5680  -12.5643 N   0  0  0  0  0  0  0  0  0  0  0  0
   20.9976  -21.2770  -12.1313 C   0  0  0  0  0  0  0  0  0  0  0  0
   19.7000  -20.9923  -12.4978 O   0  0  0  0  0  0  0  0  0  0  0  0
   21.3006  -21.5101  -10.9575 O   0  0  0  0  0  0  0  0  0  0  0  0
  2  1  1  1
  3  2  1  0
  4  2  1  0
  4  5  1  6
  6  4  1  0
  7  6  2  0
  8  6  1  0
  9  8  1  0
  9 10  1  1
 10 11  1  0
 11 19  1  0
 11 12  2  0
 12 13  1  0
 14 13  1  0
 14 15  2  0
 16 15  1  0
 17 16  2  0
 18 19  2  0
 18 17  1  0
 19 14  1  0
 20 25  1  0
 20  9  1  0
 21 20  2  0
 24 23  1  6
 23 22  1  0
 24 26  1  0
 24 25  1  0
 26 27  1  0
 28 26  2  0
M  END
$$$$
