VWS.pdb
     RDKit          3D

 28 29  0  0  1  0  0  0  0  0999 V2000
   28.5808  -18.4027  -15.9914 C   0  0  0  0  0  0  0  0  0  0  0  0
   27.6490  -18.9289  -14.9234 C   0  0  1  0  0  0  0  0  0  0  0  0
   26.2807  -19.0507  -15.5540 C   0  0  0  0  0  0  0  0  0  0  0  0
   28.1813  -20.2716  -14.4760 C   0  0  2  0  0  0  0  0  0  0  0  0
   28.0391  -21.2344  -15.5549 N   0  0  0  0  0  0  0  0  0  0  0  0
   27.4351  -20.7880  -13.2941 C   0  0  0  0  0  0  0  0  0  0  0  0
   26.3844  -21.4472  -13.4645 O   0  0  0  0  0  0  0  0  0  0  0  0
   27.8727  -20.5620  -11.9572 N   0  0  0  0  0  0  0  0  0  0  0  0
   27.1125  -20.6515  -10.7599 C   0  0  1  0  0  0  0  0  0  0  0  0
   27.7739  -20.2019   -9.5141 C   0  0  0  0  0  0  0  0  0  0  0  0
   26.9982  -20.4078   -8.2934 C   0  0  0  0  0  0  0  0  0  0  0  0
   25.7146  -20.8412   -8.1333 C   0  0  0  0  0  0  0  0  0  0  0  0
   25.4277  -20.8452   -6.8001 N   0  0  0  0  0  0  0  0  0  0  0  0
   26.4848  -20.4276   -6.0852 C   0  0  0  0  0  0  0  0  0  0  0  0
   26.6820  -20.2564   -4.7239 C   0  0  0  0  0  0  0  0  0  0  0  0
   27.8913  -19.7982   -4.2488 C   0  0  0  0  0  0  0  0  0  0  0  0
   28.9044  -19.5124   -5.1562 C   0  0  0  0  0  0  0  0  0  0  0  0
   28.6767  -19.6917   -6.4893 C   0  0  0  0  0  0  0  0  0  0  0  0
   27.4740  -20.1502   -7.0036 C   0  0  0  0  0  0  0  0  0  0  0  0
   25.6883  -20.2208  -10.8730 C   0  0  0  0  0  0  0  0  0  0  0  0
   25.4229  -19.0120  -10.7530 O   0  0  0  0  0  0  0  0  0  0  0  0
   23.1790  -22.7202  -12.6413 O   0  0  0  0  0  0  0  0  0  0  0  0
   22.9156  -21.3596  -12.7415 C   0  0  0  0  0  0  0  0  0  0  0  0
   23.2882  -20.5924  -11.5019 C   0  0  2  0  0  0  0  0  0  0  0  0
   24.6232  -21.0906  -11.1056 N   0  0  0  0  0  0  0  0  0  0  0  0
   22.3257  -20.8254  -10.3928 C   0  0  0  0  0  0  0  0  0  0  0  0
   21.0103  -20.4560  -10.5729 O   0  0  0  0  0  0  0  0  0  0  0  0
   22.7132  -21.3411   -9.3402 O   0  0  0  0  0  0  0  0  0  0  0  0
  2  1  1  6
  3  2  1  0
  4  2  1  0
  4  5  1  6
  6  4  1  0
  7  6  2  0
  8  6  1  0
  9  8  1  0
  9 10  1  1
 10 11  1  0
 11 19  1  0
 11 12  2  0
 12 13  1  0
 14 13  1  0
 14 15  2  0
 16 15  1  0
 17 16  2  0
 18 19  2  0
 18 17  1  0
 19 14  1  0
 20 25  1  0
 20  9  1  0
 21 20  2  0
 24 23  1  6
 23 22  1  0
 24 26  1  0
 24 25  1  0
 26 27  1  0
 28 26  2  0
M  END
$$$$
