VWS.pdb
     RDKit          3D

 28 29  0  0  1  0  0  0  0  0999 V2000
   27.8033  -16.5084  -14.8486 C   0  0  0  0  0  0  0  0  0  0  0  0
   26.9136  -17.7046  -14.5973 C   0  0  1  0  0  0  0  0  0  0  0  0
   26.3863  -18.1513  -15.9415 C   0  0  0  0  0  0  0  0  0  0  0  0
   27.7612  -18.7733  -13.9446 C   0  0  2  0  0  0  0  0  0  0  0  0
   28.7668  -19.2373  -14.8851 N   0  0  0  0  0  0  0  0  0  0  0  0
   26.9388  -19.9452  -13.5314 C   0  0  0  0  0  0  0  0  0  0  0  0
   27.0024  -21.0091  -14.1884 O   0  0  0  0  0  0  0  0  0  0  0  0
   26.0705  -19.9078  -12.4025 N   0  0  0  0  0  0  0  0  0  0  0  0
   25.1960  -20.9264  -11.9362 C   0  0  1  0  0  0  0  0  0  0  0  0
   25.0371  -21.0496  -10.4695 C   0  0  0  0  0  0  0  0  0  0  0  0
   26.1606  -20.5481   -9.6817 C   0  0  0  0  0  0  0  0  0  0  0  0
   26.1805  -19.6432   -8.6609 C   0  0  0  0  0  0  0  0  0  0  0  0
   27.4736  -19.4797   -8.2597 N   0  0  0  0  0  0  0  0  0  0  0  0
   28.2981  -20.2501   -8.9874 C   0  0  0  0  0  0  0  0  0  0  0  0
   29.6726  -20.4279   -8.9639 C   0  0  0  0  0  0  0  0  0  0  0  0
   30.2764  -21.2966   -9.8463 C   0  0  0  0  0  0  0  0  0  0  0  0
   29.4849  -21.9876  -10.7559 C   0  0  0  0  0  0  0  0  0  0  0  0
   28.1352  -21.7889  -10.7523 C   0  0  0  0  0  0  0  0  0  0  0  0
   27.4933  -20.9235   -9.8804 C   0  0  0  0  0  0  0  0  0  0  0  0
   23.9177  -21.0676  -12.6928 C   0  0  0  0  0  0  0  0  0  0  0  0
   23.1771  -20.0742  -12.7966 O   0  0  0  0  0  0  0  0  0  0  0  0
   22.4656  -24.7071  -14.0846 O   0  0  0  0  0  0  0  0  0  0  0  0
   22.3495  -23.5880  -14.9000 C   0  0  0  0  0  0  0  0  0  0  0  0
   22.2689  -22.2994  -14.1275 C   0  0  2  0  0  0  0  0  0  0  0  0
   23.4919  -22.2502  -13.2972 N   0  0  0  0  0  0  0  0  0  0  0  0
   21.0723  -22.2526  -13.2462 C   0  0  0  0  0  0  0  0  0  0  0  0
   19.8235  -22.2671  -13.8288 O   0  0  0  0  0  0  0  0  0  0  0  0
   21.2125  -22.2035  -12.0207 O   0  0  0  0  0  0  0  0  0  0  0  0
  2  1  1  6
  3  2  1  0
  4  2  1  0
  4  5  1  6
  6  4  1  0
  7  6  2  0
  8  6  1  0
  9  8  1  0
  9 10  1  1
 10 11  1  0
 11 19  1  0
 11 12  2  0
 12 13  1  0
 14 13  1  0
 14 15  2  0
 16 15  1  0
 17 16  2  0
 18 19  2  0
 18 17  1  0
 19 14  1  0
 20 25  1  0
 20  9  1  0
 21 20  2  0
 24 23  1  1
 23 22  1  0
 24 26  1  0
 24 25  1  0
 26 27  1  0
 28 26  2  0
M  END
$$$$
