NRA.pdb
     RDKit          3D

 25 24  0  0  1  0  0  0  0  0999 V2000
   22.9864  -23.5547  -15.5582 N   0  0  0  0  0  0  0  0  0  0  0  0
   21.8605  -22.7126  -15.6629 C   0  0  0  0  0  0  0  0  0  0  0  0
   21.8665  -21.5778  -16.2289 O   0  0  0  0  0  0  0  0  0  0  0  0
   20.5580  -23.1819  -15.0699 C   0  0  0  0  0  0  0  0  0  0  0  0
   20.8094  -24.4883  -14.3348 C   0  0  2  0  0  0  0  0  0  0  0  0
   21.1196  -25.5333  -15.2691 N   0  0  0  0  0  0  0  0  0  0  0  0
   19.5917  -24.7592  -13.5284 C   0  0  0  0  0  0  0  0  0  0  0  0
   18.6528  -25.3616  -14.0994 O   0  0  0  0  0  0  0  0  0  0  0  0
   18.1350  -25.5364   -4.7377 N   0  0  0  0  0  0  0  0  0  0  0  0
   18.1553  -26.5293   -5.7475 C   0  0  0  0  0  0  0  0  0  0  0  0
   18.4355  -27.7875   -5.4911 N   0  0  0  0  0  0  0  0  0  0  0  0
   17.8802  -26.2404   -7.1097 N   0  0  0  0  0  0  0  0  0  0  0  0
   17.5785  -24.9387   -7.6201 C   0  0  0  0  0  0  0  0  0  0  0  0
   17.2658  -24.9596   -9.0999 C   0  0  0  0  0  0  0  0  0  0  0  0
   18.5695  -24.6974   -9.8756 C   0  0  0  0  0  0  0  0  0  0  0  0
   18.3281  -24.6343  -11.3352 C   0  0  2  0  0  0  0  0  0  0  0  0
   19.4473  -24.3775  -12.1774 N   0  0  0  0  0  0  0  0  0  0  0  0
   17.2122  -23.7200  -11.7239 C   0  0  0  0  0  0  0  0  0  0  0  0
   17.3483  -22.4851  -11.5861 O   0  0  0  0  0  0  0  0  0  0  0  0
   18.3120  -28.4333   -6.3242 C   0  0  0  0  0  0  0  0  0  0  0  0
   13.7914  -24.1691  -13.3793 C   0  0  1  0  0  0  0  0  0  0  0  0
   14.8534  -23.4332  -12.6220 N   0  0  0  0  0  0  0  0  0  0  0  0
   15.9919  -24.2116  -12.2432 C   0  0  0  0  0  0  0  0  0  0  0  0
   14.1825  -22.8605  -11.3828 O   0  0  0  0  0  0  0  0  0  0  0  0
   14.0917  -23.5795  -10.3751 O   0  0  0  0  0  0  0  0  0  0  0  0
  2  1  1  0
  3  2  2  0
  4  2  1  0
  5  4  1  0
  5  6  1  6
  7  5  1  0
  7  8  2  0
  9 10  1  0
 10 11  2  0
 12 13  1  0
 12 10  1  0
 14 13  1  0
 15 14  1  0
 16 15  1  1
 16 17  1  0
 17  7  1  0
 18 16  1  0
 19 18  2  0
 21 20  1  6
 21 22  1  0
 21 23  1  0
 22 18  1  0
 23 25  1  0
 24 23  2  0
M  END
$$$$
