NRA.pdb
     RDKit          3D

 25 24  0  0  1  0  0  0  0  0999 V2000
   29.6088  -18.2962  -21.7932 N   0  0  0  0  0  0  0  0  0  0  0  0
   30.1169  -19.4205  -21.1109 C   0  0  0  0  0  0  0  0  0  0  0  0
   31.2076  -19.9995  -21.3996 O   0  0  0  0  0  0  0  0  0  0  0  0
   29.3222  -19.9784  -19.9595 C   0  0  0  0  0  0  0  0  0  0  0  0
   28.0430  -19.1690  -19.8234 C   0  0  2  0  0  0  0  0  0  0  0  0
   28.3465  -17.7677  -19.7481 N   0  0  0  0  0  0  0  0  0  0  0  0
   27.3424  -19.6870  -18.6204 C   0  0  0  0  0  0  0  0  0  0  0  0
   26.8613  -20.8417  -18.6945 O   0  0  0  0  0  0  0  0  0  0  0  0
   26.3760  -21.7389  -11.7182 N   0  0  0  0  0  0  0  0  0  0  0  0
   25.8262  -20.6534  -10.9935 C   0  0  0  0  0  0  0  0  0  0  0  0
   25.0232  -20.8274   -9.9678 N   0  0  0  0  0  0  0  0  0  0  0  0
   26.0962  -19.2993  -11.3225 N   0  0  0  0  0  0  0  0  0  0  0  0
   26.8191  -18.8723  -12.4805 C   0  0  0  0  0  0  0  0  0  0  0  0
   26.2249  -19.4146  -13.7615 C   0  0  0  0  0  0  0  0  0  0  0  0
   27.0733  -18.9093  -14.9426 C   0  0  0  0  0  0  0  0  0  0  0  0
   26.5335  -19.3811  -16.2382 C   0  0  2  0  0  0  0  0  0  0  0  0
   27.1975  -18.9537  -17.4232 N   0  0  0  0  0  0  0  0  0  0  0  0
   25.0656  -19.1544  -16.3996 C   0  0  0  0  0  0  0  0  0  0  0  0
   24.6308  -17.9901  -16.5328 O   0  0  0  0  0  0  0  0  0  0  0  0
   24.6924  -19.9223   -9.5230 C   0  0  0  0  0  0  0  0  0  0  0  0
   22.0929  -21.3647  -17.2010 C   0  0  1  0  0  0  0  0  0  0  0  0
   22.7339  -20.1338  -16.6379 N   0  0  0  0  0  0  0  0  0  0  0  0
   24.1414  -20.2251  -16.4012 C   0  0  0  0  0  0  0  0  0  0  0  0
   22.0091  -19.8257  -15.3366 O   0  0  0  0  0  0  0  0  0  0  0  0
   22.5851  -20.0776  -14.2663 O   0  0  0  0  0  0  0  0  0  0  0  0
  2  1  1  0
  3  2  2  0
  4  2  1  0
  5  4  1  0
  5  6  1  1
  7  5  1  0
  7  8  2  0
  9 10  1  0
 10 11  2  0
 12 13  1  0
 12 10  1  0
 14 13  1  0
 15 14  1  0
 16 15  1  1
 16 17  1  0
 17  7  1  0
 18 16  1  0
 19 18  2  0
 21 20  1  6
 21 22  1  0
 21 23  1  0
 22 18  1  0
 23 25  1  0
 24 23  2  0
M  END
$$$$
