NRA.pdb
     RDKit          3D

 25 24  0  0  1  0  0  0  0  0999 V2000
   17.3710   -0.8677  -15.3495 N   0  0  0  0  0  0  0  0  0  0  0  0
   16.9276   -1.1418  -14.0395 C   0  0  0  0  0  0  0  0  0  0  0  0
   16.7827   -0.2644  -13.1354 O   0  0  0  0  0  0  0  0  0  0  0  0
   16.5983   -2.5665  -13.6786 C   0  0  0  0  0  0  0  0  0  0  0  0
   16.7349   -3.4211  -14.9281 C   0  0  2  0  0  0  0  0  0  0  0  0
   15.5305   -3.3595  -15.7072 N   0  0  0  0  0  0  0  0  0  0  0  0
   17.0700   -4.7925  -14.4661 C   0  0  0  0  0  0  0  0  0  0  0  0
   18.0852   -4.9176  -13.7423 O   0  0  0  0  0  0  0  0  0  0  0  0
   12.7639  -12.2428  -11.8781 N   0  0  0  0  0  0  0  0  0  0  0  0
   14.1169  -12.5680  -12.1415 C   0  0  0  0  0  0  0  0  0  0  0  0
   14.6074  -13.7675  -11.9222 N   0  0  0  0  0  0  0  0  0  0  0  0
   15.0442  -11.6244  -12.6559 N   0  0  0  0  0  0  0  0  0  0  0  0
   14.7359  -10.2592  -12.9513 C   0  0  0  0  0  0  0  0  0  0  0  0
   15.9067   -9.5258  -13.5672 C   0  0  0  0  0  0  0  0  0  0  0  0
   15.4735   -8.0776  -13.8590 C   0  0  0  0  0  0  0  0  0  0  0  0
   16.5896   -7.2803  -14.4170 C   0  0  2  0  0  0  0  0  0  0  0  0
   16.3129   -5.9364  -14.7980 N   0  0  0  0  0  0  0  0  0  0  0  0
   17.3173   -7.9577  -15.5322 C   0  0  0  0  0  0  0  0  0  0  0  0
   16.7651   -8.0791  -16.6471 O   0  0  0  0  0  0  0  0  0  0  0  0
   15.6132  -13.8848  -12.2400 C   0  0  0  0  0  0  0  0  0  0  0  0
   20.8540   -9.2972  -16.0585 C   0  0  1  0  0  0  0  0  0  0  0  0
   19.3874   -9.1874  -16.3417 N   0  0  0  0  0  0  0  0  0  0  0  0
   18.6224   -8.4764  -15.3646 C   0  0  0  0  0  0  0  0  0  0  0  0
   18.8649  -10.6099  -16.4732 O   0  0  0  0  0  0  0  0  0  0  0  0
   18.1105  -11.0456  -15.5891 O   0  0  0  0  0  0  0  0  0  0  0  0
  2  1  1  0
  3  2  2  0
  4  2  1  0
  5  4  1  0
  5  6  1  1
  7  5  1  0
  7  8  2  0
  9 10  1  0
 10 11  2  0
 12 13  1  0
 12 10  1  0
 14 13  1  0
 15 14  1  0
 16 15  1  6
 16 17  1  0
 17  7  1  0
 18 16  1  0
 19 18  2  0
 21 20  1  6
 21 22  1  0
 21 23  1  0
 22 18  1  0
 23 25  1  0
 24 23  2  0
M  END
$$$$
