NRA.pdb
     RDKit          3D

 25 24  0  0  1  0  0  0  0  0999 V2000
   25.9769  -20.9804   -8.5339 N   0  0  0  0  0  0  0  0  0  0  0  0
   24.7844  -20.3904   -9.0004 C   0  0  0  0  0  0  0  0  0  0  0  0
   23.8951  -19.8860   -8.2502 O   0  0  0  0  0  0  0  0  0  0  0  0
   24.5405  -20.3477  -10.4861 C   0  0  0  0  0  0  0  0  0  0  0  0
   25.6774  -21.0803  -11.1795 C   0  0  2  0  0  0  0  0  0  0  0  0
   26.9302  -20.4404  -10.8923 N   0  0  0  0  0  0  0  0  0  0  0  0
   25.3438  -21.1025  -12.6268 C   0  0  0  0  0  0  0  0  0  0  0  0
   25.8958  -20.2425  -13.3519 O   0  0  0  0  0  0  0  0  0  0  0  0
   25.1069  -26.2479  -18.8797 N   0  0  0  0  0  0  0  0  0  0  0  0
   25.0607  -26.4711  -17.4819 C   0  0  0  0  0  0  0  0  0  0  0  0
   25.8493  -27.3338  -16.8811 N   0  0  0  0  0  0  0  0  0  0  0  0
   24.1583  -25.7853  -16.6274 N   0  0  0  0  0  0  0  0  0  0  0  0
   23.1658  -24.8556  -17.0707 C   0  0  0  0  0  0  0  0  0  0  0  0
   23.4535  -23.4440  -16.6097 C   0  0  0  0  0  0  0  0  0  0  0  0
   23.8992  -23.4953  -15.1370 C   0  0  0  0  0  0  0  0  0  0  0  0
   24.1202  -22.1370  -14.5903 C   0  0  2  0  0  0  0  0  0  0  0  0
   24.4526  -22.0287  -13.2099 N   0  0  0  0  0  0  0  0  0  0  0  0
   23.0188  -21.1755  -14.8980 C   0  0  0  0  0  0  0  0  0  0  0  0
   21.9329  -21.2624  -14.2849 O   0  0  0  0  0  0  0  0  0  0  0  0
   25.7179  -27.3752  -15.8287 C   0  0  0  0  0  0  0  0  0  0  0  0
   22.6590  -18.1342  -17.2030 C   0  0  1  0  0  0  0  0  0  0  0  0
   22.2086  -19.1490  -16.1978 N   0  0  0  0  0  0  0  0  0  0  0  0
   23.1643  -20.1627  -15.8745 C   0  0  0  0  0  0  0  0  0  0  0  0
   20.9485  -19.7870  -16.7626 O   0  0  0  0  0  0  0  0  0  0  0  0
   21.0592  -20.8412  -17.4083 O   0  0  0  0  0  0  0  0  0  0  0  0
  2  1  1  0
  3  2  2  0
  4  2  1  0
  5  4  1  0
  5  6  1  6
  7  5  1  0
  7  8  2  0
  9 10  1  0
 10 11  2  0
 12 13  1  0
 12 10  1  0
 14 13  1  0
 15 14  1  0
 16 15  1  1
 16 17  1  0
 17  7  1  0
 18 16  1  0
 19 18  2  0
 21 20  1  1
 21 22  1  0
 21 23  1  0
 22 18  1  0
 23 25  1  0
 24 23  2  0
M  END
$$$$
