NRA.pdb
     RDKit          3D

 25 24  0  0  1  0  0  0  0  0999 V2000
   23.0262  -26.4063  -17.7841 N   0  0  0  0  0  0  0  0  0  0  0  0
   22.7584  -26.1104  -16.4318 C   0  0  0  0  0  0  0  0  0  0  0  0
   23.6451  -25.8087  -15.5768 O   0  0  0  0  0  0  0  0  0  0  0  0
   21.3286  -26.1489  -15.9602 C   0  0  0  0  0  0  0  0  0  0  0  0
   21.1882  -27.2738  -14.9478 C   0  0  2  0  0  0  0  0  0  0  0  0
   21.2890  -28.5477  -15.6022 N   0  0  0  0  0  0  0  0  0  0  0  0
   19.8875  -27.0635  -14.2619 C   0  0  0  0  0  0  0  0  0  0  0  0
   18.8535  -27.3962  -14.8869 O   0  0  0  0  0  0  0  0  0  0  0  0
   18.3202  -24.3507   -6.5265 N   0  0  0  0  0  0  0  0  0  0  0  0
   17.4660  -25.3874   -6.9752 C   0  0  0  0  0  0  0  0  0  0  0  0
   16.2426  -25.5375   -6.5189 N   0  0  0  0  0  0  0  0  0  0  0  0
   17.8671  -26.3430   -7.9451 N   0  0  0  0  0  0  0  0  0  0  0  0
   19.1867  -26.4470   -8.4870 C   0  0  0  0  0  0  0  0  0  0  0  0
   19.2799  -25.8804   -9.8863 C   0  0  0  0  0  0  0  0  0  0  0  0
   18.5142  -26.8147  -10.8407 C   0  0  0  0  0  0  0  0  0  0  0  0
   18.5596  -26.3198  -12.2355 C   0  0  2  0  0  0  0  0  0  0  0  0
   19.7658  -26.5181  -12.9659 N   0  0  0  0  0  0  0  0  0  0  0  0
   18.1339  -24.8955  -12.3852 C   0  0  0  0  0  0  0  0  0  0  0  0
   18.9237  -23.9781  -12.0735 O   0  0  0  0  0  0  0  0  0  0  0  0
   15.7307  -26.3719   -6.9291 C   0  0  0  0  0  0  0  0  0  0  0  0
   15.4233  -23.0076  -14.1818 C   0  0  1  0  0  0  0  0  0  0  0  0
   16.3228  -23.2252  -13.0043 N   0  0  0  0  0  0  0  0  0  0  0  0
   16.8508  -24.5475  -12.8681 C   0  0  0  0  0  0  0  0  0  0  0  0
   15.5135  -22.8613  -11.7689 O   0  0  0  0  0  0  0  0  0  0  0  0
   15.3462  -23.7282  -10.8965 O   0  0  0  0  0  0  0  0  0  0  0  0
  2  1  1  0
  3  2  2  0
  4  2  1  0
  5  4  1  0
  5  6  1  6
  7  5  1  0
  7  8  2  0
  9 10  1  0
 10 11  2  0
 12 13  1  0
 12 10  1  0
 14 13  1  0
 15 14  1  0
 16 15  1  1
 16 17  1  0
 17  7  1  0
 18 16  1  0
 19 18  2  0
 21 20  1  6
 21 22  1  0
 21 23  1  0
 22 18  1  0
 23 25  1  0
 24 23  2  0
M  END
$$$$
