NRA.pdb
     RDKit          3D

 25 24  0  0  1  0  0  0  0  0999 V2000
   24.1954  -20.6545   -8.8526 N   0  0  0  0  0  0  0  0  0  0  0  0
   25.4469  -20.0150   -8.9648 C   0  0  0  0  0  0  0  0  0  0  0  0
   26.1674  -19.6754   -7.9781 O   0  0  0  0  0  0  0  0  0  0  0  0
   25.9750  -19.7124  -10.3425 C   0  0  0  0  0  0  0  0  0  0  0  0
   24.9349  -20.1492  -11.3610 C   0  0  2  0  0  0  0  0  0  0  0  0
   24.6783  -21.5564  -11.2379 N   0  0  0  0  0  0  0  0  0  0  0  0
   25.4608  -19.7591  -12.6943 C   0  0  0  0  0  0  0  0  0  0  0  0
   25.7176  -18.5456  -12.8727 O   0  0  0  0  0  0  0  0  0  0  0  0
   28.7394  -24.2671  -16.4360 N   0  0  0  0  0  0  0  0  0  0  0  0
   28.4339  -23.8768  -17.7627 C   0  0  0  0  0  0  0  0  0  0  0  0
   28.0050  -24.7301  -18.6657 N   0  0  0  0  0  0  0  0  0  0  0  0
   28.5722  -22.5394  -18.2175 N   0  0  0  0  0  0  0  0  0  0  0  0
   28.9496  -21.4344  -17.3913 C   0  0  0  0  0  0  0  0  0  0  0  0
   27.7577  -20.6167  -16.9453 C   0  0  0  0  0  0  0  0  0  0  0  0
   27.2815  -21.1550  -15.5838 C   0  0  0  0  0  0  0  0  0  0  0  0
   26.1432  -20.3673  -15.0580 C   0  0  2  0  0  0  0  0  0  0  0  0
   25.6802  -20.6736  -13.7467 N   0  0  0  0  0  0  0  0  0  0  0  0
   24.9707  -20.3093  -15.9821 C   0  0  0  0  0  0  0  0  0  0  0  0
   24.1994  -21.2896  -16.0646 O   0  0  0  0  0  0  0  0  0  0  0  0
   27.9056  -24.3137  -19.6369 C   0  0  0  0  0  0  0  0  0  0  0  0
   23.5623  -17.6979  -18.4094 C   0  0  1  0  0  0  0  0  0  0  0  0
   23.5525  -18.9571  -17.5987 N   0  0  0  0  0  0  0  0  0  0  0  0
   24.7050  -19.1716  -16.7793 C   0  0  0  0  0  0  0  0  0  0  0  0
   23.3979  -20.1049  -18.5849 O   0  0  0  0  0  0  0  0  0  0  0  0
   24.4101  -20.5191  -19.1719 O   0  0  0  0  0  0  0  0  0  0  0  0
  2  1  1  0
  3  2  2  0
  4  2  1  0
  5  4  1  0
  5  6  1  6
  7  5  1  0
  7  8  2  0
  9 10  1  0
 10 11  2  0
 12 13  1  0
 12 10  1  0
 14 13  1  0
 15 14  1  0
 16 15  1  6
 16 17  1  0
 17  7  1  0
 18 16  1  0
 19 18  2  0
 21 20  1  1
 21 22  1  0
 21 23  1  0
 22 18  1  0
 23 25  1  0
 24 23  2  0
M  END
$$$$
