NRA.pdb
     RDKit          3D

 25 24  0  0  1  0  0  0  0  0999 V2000
   22.5379  -21.3665   -9.3119 N   0  0  0  0  0  0  0  0  0  0  0  0
   21.4953  -21.1498  -10.2359 C   0  0  0  0  0  0  0  0  0  0  0  0
   20.3063  -21.5635  -10.0823 O   0  0  0  0  0  0  0  0  0  0  0  0
   21.8004  -20.3749  -11.4908 C   0  0  0  0  0  0  0  0  0  0  0  0
   23.2873  -20.0604  -11.5100 C   0  0  2  0  0  0  0  0  0  0  0  0
   23.7296  -19.6670  -10.2020 N   0  0  0  0  0  0  0  0  0  0  0  0
   23.4823  -19.0086  -12.5406 C   0  0  0  0  0  0  0  0  0  0  0  0
   22.8191  -17.9534  -12.4102 O   0  0  0  0  0  0  0  0  0  0  0  0
   29.0525  -22.0834  -14.9860 N   0  0  0  0  0  0  0  0  0  0  0  0
   28.4938  -21.5365  -16.1669 C   0  0  0  0  0  0  0  0  0  0  0  0
   28.0255  -22.2891  -17.1373 N   0  0  0  0  0  0  0  0  0  0  0  0
   28.4022  -20.1382  -16.3932 N   0  0  0  0  0  0  0  0  0  0  0  0
   28.2045  -19.1598  -15.3687 C   0  0  0  0  0  0  0  0  0  0  0  0
   26.8423  -19.2729  -14.7210 C   0  0  0  0  0  0  0  0  0  0  0  0
   25.9520  -18.1388  -15.2608 C   0  0  0  0  0  0  0  0  0  0  0  0
   24.6002  -18.1776  -14.6578 C   0  0  2  0  0  0  0  0  0  0  0  0
   24.3620  -19.1408  -13.6364 N   0  0  0  0  0  0  0  0  0  0  0  0
   23.4940  -18.2531  -15.6592 C   0  0  0  0  0  0  0  0  0  0  0  0
   23.0163  -19.3656  -15.9701 O   0  0  0  0  0  0  0  0  0  0  0  0
   27.6479  -21.7394  -17.9630 C   0  0  0  0  0  0  0  0  0  0  0  0
   21.6926  -18.3424  -17.9962 C   0  0  2  0  0  0  0  0  0  0  0  0
   21.9430  -17.0541  -17.2748 N   0  0  0  0  0  0  0  0  0  0  0  0
   22.9675  -17.0951  -16.2776 C   0  0  0  0  0  0  0  0  0  0  0  0
   20.6206  -16.6491  -16.6417 O   0  0  0  0  0  0  0  0  0  0  0  0
   19.7157  -16.2308  -17.3812 O   0  0  0  0  0  0  0  0  0  0  0  0
  2  1  1  0
  3  2  2  0
  4  2  1  0
  5  4  1  0
  5  6  1  1
  7  5  1  0
  7  8  2  0
  9 10  1  0
 10 11  2  0
 12 13  1  0
 12 10  1  0
 14 13  1  0
 15 14  1  0
 16 15  1  6
 16 17  1  0
 17  7  1  0
 18 16  1  0
 19 18  2  0
 21 20  1  6
 21 22  1  0
 21 23  1  0
 22 18  1  0
 23 25  1  0
 24 23  2  0
M  END
$$$$
