NRA.pdb
     RDKit          3D

 25 24  0  0  1  0  0  0  0  0999 V2000
   28.8160  -22.7735  -17.3571 N   0  0  0  0  0  0  0  0  0  0  0  0
   27.7286  -22.0757  -17.9215 C   0  0  0  0  0  0  0  0  0  0  0  0
   27.8061  -21.3478  -18.9571 O   0  0  0  0  0  0  0  0  0  0  0  0
   26.3801  -22.1972  -17.2618 C   0  0  0  0  0  0  0  0  0  0  0  0
   26.5185  -23.1080  -16.0529 C   0  0  2  0  0  0  0  0  0  0  0  0
   26.5198  -24.4837  -16.4640 N   0  0  0  0  0  0  0  0  0  0  0  0
   25.3997  -22.7662  -15.1375 C   0  0  0  0  0  0  0  0  0  0  0  0
   24.3839  -23.4987  -15.1811 O   0  0  0  0  0  0  0  0  0  0  0  0
   26.8258  -19.5319   -7.5173 N   0  0  0  0  0  0  0  0  0  0  0  0
   25.6656  -20.2549   -7.8872 C   0  0  0  0  0  0  0  0  0  0  0  0
   24.6502  -20.4213   -7.0695 N   0  0  0  0  0  0  0  0  0  0  0  0
   25.5142  -20.8569   -9.1637 N   0  0  0  0  0  0  0  0  0  0  0  0
   26.5388  -20.9201  -10.1597 C   0  0  0  0  0  0  0  0  0  0  0  0
   26.0655  -21.5922  -11.4295 C   0  0  0  0  0  0  0  0  0  0  0  0
   24.8720  -20.7945  -11.9856 C   0  0  0  0  0  0  0  0  0  0  0  0
   24.4244  -21.3292  -13.2919 C   0  0  2  0  0  0  0  0  0  0  0  0
   25.4283  -21.6775  -14.2399 N   0  0  0  0  0  0  0  0  0  0  0  0
   23.3938  -20.4855  -13.9688 C   0  0  0  0  0  0  0  0  0  0  0  0
   23.7363  -19.7082  -14.8859 O   0  0  0  0  0  0  0  0  0  0  0  0
   23.8584  -20.9969   -7.4797 C   0  0  0  0  0  0  0  0  0  0  0  0
   21.1904  -20.0080  -15.8687 C   0  0  2  0  0  0  0  0  0  0  0  0
   20.9152  -20.1373  -14.4022 N   0  0  0  0  0  0  0  0  0  0  0  0
   22.0297  -20.5340  -13.5984 C   0  0  0  0  0  0  0  0  0  0  0  0
   19.7891  -21.1502  -14.2615 O   0  0  0  0  0  0  0  0  0  0  0  0
   19.9983  -22.1768  -13.5959 O   0  0  0  0  0  0  0  0  0  0  0  0
  2  1  1  0
  3  2  2  0
  4  2  1  0
  5  4  1  0
  5  6  1  6
  7  5  1  0
  7  8  2  0
  9 10  1  0
 10 11  2  0
 12 13  1  0
 12 10  1  0
 14 13  1  0
 15 14  1  0
 16 15  1  1
 16 17  1  0
 17  7  1  0
 18 16  1  0
 19 18  2  0
 21 20  1  1
 21 22  1  0
 21 23  1  0
 22 18  1  0
 23 25  1  0
 24 23  2  0
M  END
$$$$
