NRA.pdb
     RDKit          3D

 25 24  0  0  1  0  0  0  0  0999 V2000
   22.1199   -9.6819  -14.2929 N   0  0  0  0  0  0  0  0  0  0  0  0
   21.9250   -8.3197  -14.6003 C   0  0  0  0  0  0  0  0  0  0  0  0
   22.8357   -7.5444  -15.0219 O   0  0  0  0  0  0  0  0  0  0  0  0
   20.5479   -7.7359  -14.4232 C   0  0  0  0  0  0  0  0  0  0  0  0
   19.6966   -8.7389  -13.6620 C   0  0  2  0  0  0  0  0  0  0  0  0
   19.5772   -9.9589  -14.4095 N   0  0  0  0  0  0  0  0  0  0  0  0
   18.3933   -8.0749  -13.4032 C   0  0  0  0  0  0  0  0  0  0  0  0
   17.4732   -8.2852  -14.2275 O   0  0  0  0  0  0  0  0  0  0  0  0
   13.4676   -8.1302   -6.6498 N   0  0  0  0  0  0  0  0  0  0  0  0
   13.2645   -8.5653   -7.9822 C   0  0  0  0  0  0  0  0  0  0  0  0
   12.4752   -9.5730   -8.2803 N   0  0  0  0  0  0  0  0  0  0  0  0
   13.9003   -7.9509   -9.0926 N   0  0  0  0  0  0  0  0  0  0  0  0
   14.4090   -6.6141   -9.1012 C   0  0  0  0  0  0  0  0  0  0  0  0
   14.9662   -6.2197  -10.4510 C   0  0  0  0  0  0  0  0  0  0  0  0
   16.3251   -6.9186  -10.6386 C   0  0  0  0  0  0  0  0  0  0  0  0
   16.9175   -6.6055  -11.9591 C   0  0  2  0  0  0  0  0  0  0  0  0
   18.1493   -7.2362  -12.2946 N   0  0  0  0  0  0  0  0  0  0  0  0
   17.0335   -5.1421  -12.2374 C   0  0  0  0  0  0  0  0  0  0  0  0
   17.8382   -4.4493  -11.5779 O   0  0  0  0  0  0  0  0  0  0  0  0
   12.3224   -9.7050   -9.3223 C   0  0  0  0  0  0  0  0  0  0  0  0
   15.9948   -2.1579  -12.4884 C   0  0  2  0  0  0  0  0  0  0  0  0
   16.2943   -3.1246  -13.5924 N   0  0  0  0  0  0  0  0  0  0  0  0
   16.2505   -4.5074  -13.2296 C   0  0  0  0  0  0  0  0  0  0  0  0
   17.6785   -2.7700  -14.1138 O   0  0  0  0  0  0  0  0  0  0  0  0
   18.5237   -3.6742  -14.2069 O   0  0  0  0  0  0  0  0  0  0  0  0
  2  1  1  0
  3  2  2  0
  4  2  1  0
  5  4  1  0
  5  6  1  6
  7  5  1  0
  7  8  2  0
  9 10  1  0
 10 11  2  0
 12 13  1  0
 12 10  1  0
 14 13  1  0
 15 14  1  0
 16 15  1  1
 16 17  1  0
 17  7  1  0
 18 16  1  0
 19 18  2  0
 21 20  1  6
 21 22  1  0
 21 23  1  0
 22 18  1  0
 23 25  1  0
 24 23  2  0
M  END
$$$$
