NRA.pdb
     RDKit          3D

 25 24  0  0  1  0  0  0  0  0999 V2000
   20.9364  -25.1920  -12.0712 N   0  0  0  0  0  0  0  0  0  0  0  0
   19.9473  -24.1920  -11.9740 C   0  0  0  0  0  0  0  0  0  0  0  0
   20.0174  -23.0595  -12.5405 O   0  0  0  0  0  0  0  0  0  0  0  0
   18.7204  -24.4765  -11.1480 C   0  0  0  0  0  0  0  0  0  0  0  0
   18.8970  -25.8293  -10.4781 C   0  0  2  0  0  0  0  0  0  0  0  0
   18.9717  -26.8680  -11.4665 N   0  0  0  0  0  0  0  0  0  0  0  0
   17.7559  -25.9874   -9.5404 C   0  0  0  0  0  0  0  0  0  0  0  0
   16.6590  -26.3409  -10.0324 O   0  0  0  0  0  0  0  0  0  0  0  0
   18.8987  -29.3329   -2.1191 N   0  0  0  0  0  0  0  0  0  0  0  0
   18.6182  -28.0105   -2.5416 C   0  0  0  0  0  0  0  0  0  0  0  0
   18.7596  -26.9734   -1.7466 N   0  0  0  0  0  0  0  0  0  0  0  0
   18.1598  -27.7066   -3.8501 N   0  0  0  0  0  0  0  0  0  0  0  0
   17.5212  -28.6404   -4.7254 C   0  0  0  0  0  0  0  0  0  0  0  0
   17.2024  -28.0375   -6.0755 C   0  0  0  0  0  0  0  0  0  0  0  0
   17.0808  -26.5118   -5.9097 C   0  0  0  0  0  0  0  0  0  0  0  0
   16.7909  -25.8479   -7.2012 C   0  0  2  0  0  0  0  0  0  0  0  0
   17.8491  -25.7627   -8.1501 N   0  0  0  0  0  0  0  0  0  0  0  0
   16.1603  -24.5009   -7.0597 C   0  0  0  0  0  0  0  0  0  0  0  0
   16.8571  -23.5265   -6.7024 O   0  0  0  0  0  0  0  0  0  0  0  0
   18.4158  -26.0610   -2.1659 C   0  0  0  0  0  0  0  0  0  0  0  0
   12.8521  -22.9572   -8.1022 C   0  0  1  0  0  0  0  0  0  0  0  0
   14.0920  -23.0405   -7.2663 N   0  0  0  0  0  0  0  0  0  0  0  0
   14.7850  -24.2908   -7.3145 C   0  0  0  0  0  0  0  0  0  0  0  0
   13.6707  -22.7371   -5.8366 O   0  0  0  0  0  0  0  0  0  0  0  0
   13.7729  -23.6368   -4.9876 O   0  0  0  0  0  0  0  0  0  0  0  0
  2  1  1  0
  3  2  2  0
  4  2  1  0
  5  4  1  0
  5  6  1  6
  7  5  1  0
  7  8  2  0
  9 10  1  0
 10 11  2  0
 12 13  1  0
 12 10  1  0
 14 13  1  0
 15 14  1  0
 16 15  1  1
 16 17  1  0
 17  7  1  0
 18 16  1  0
 19 18  2  0
 21 20  1  6
 21 22  1  0
 21 23  1  0
 22 18  1  0
 23 25  1  0
 24 23  2  0
M  END
$$$$
