NRA.pdb
     RDKit          3D

 25 24  0  0  1  0  0  0  0  0999 V2000
   20.1827  -26.5552  -14.1611 N   0  0  0  0  0  0  0  0  0  0  0  0
   20.6815  -27.1086  -12.9641 C   0  0  0  0  0  0  0  0  0  0  0  0
   21.4146  -28.1418  -12.9051 O   0  0  0  0  0  0  0  0  0  0  0  0
   20.3298  -26.4358  -11.6633 C   0  0  0  0  0  0  0  0  0  0  0  0
   19.4641  -25.2246  -11.9691 C   0  0  2  0  0  0  0  0  0  0  0  0
   20.2347  -24.2206  -12.6470 N   0  0  0  0  0  0  0  0  0  0  0  0
   18.9079  -24.7654  -10.6706 C   0  0  0  0  0  0  0  0  0  0  0  0
   19.4495  -23.7679  -10.1397 O   0  0  0  0  0  0  0  0  0  0  0  0
   12.7973  -21.1893   -9.0338 N   0  0  0  0  0  0  0  0  0  0  0  0
   12.9591  -21.3876   -7.6409 C   0  0  0  0  0  0  0  0  0  0  0  0
   12.7573  -20.4280   -6.7658 N   0  0  0  0  0  0  0  0  0  0  0  0
   13.3551  -22.6329   -7.0865 N   0  0  0  0  0  0  0  0  0  0  0  0
   13.6622  -23.8024   -7.8507 C   0  0  0  0  0  0  0  0  0  0  0  0
   15.0784  -24.2825   -7.6231 C   0  0  0  0  0  0  0  0  0  0  0  0
   15.7553  -24.4658   -8.9936 C   0  0  0  0  0  0  0  0  0  0  0  0
   17.1536  -24.9312   -8.8491 C   0  0  2  0  0  0  0  0  0  0  0  0
   17.8202  -25.3880  -10.0216 N   0  0  0  0  0  0  0  0  0  0  0  0
   17.3459  -25.9378   -7.7619 C   0  0  0  0  0  0  0  0  0  0  0  0
   17.1087  -27.1442   -7.9873 O   0  0  0  0  0  0  0  0  0  0  0  0
   12.9204  -20.7232   -5.7595 C   0  0  0  0  0  0  0  0  0  0  0  0
   18.6112  -25.8069   -4.1474 C   0  0  1  0  0  0  0  0  0  0  0  0
   18.0030  -26.4409   -5.3603 N   0  0  0  0  0  0  0  0  0  0  0  0
   17.7872  -25.5657   -6.4707 C   0  0  0  0  0  0  0  0  0  0  0  0
   16.6810  -27.0468   -4.9143 O   0  0  0  0  0  0  0  0  0  0  0  0
   15.6287  -26.5519   -5.3484 O   0  0  0  0  0  0  0  0  0  0  0  0
  2  1  1  0
  3  2  2  0
  4  2  1  0
  5  4  1  0
  5  6  1  1
  7  5  1  0
  7  8  2  0
  9 10  1  0
 10 11  2  0
 12 13  1  0
 12 10  1  0
 14 13  1  0
 15 14  1  0
 16 15  1  6
 16 17  1  0
 17  7  1  0
 18 16  1  0
 19 18  2  0
 21 20  1  6
 21 22  1  0
 21 23  1  0
 22 18  1  0
 23 25  1  0
 24 23  2  0
M  END
$$$$
