NRA.pdb
     RDKit          3D

 25 24  0  0  1  0  0  0  0  0999 V2000
   27.7482  -18.4404  -19.2382 N   0  0  0  0  0  0  0  0  0  0  0  0
   27.6399  -19.8427  -19.1402 C   0  0  0  0  0  0  0  0  0  0  0  0
   28.1205  -20.6577  -19.9846 O   0  0  0  0  0  0  0  0  0  0  0  0
   26.9099  -20.4233  -17.9577 C   0  0  0  0  0  0  0  0  0  0  0  0
   26.4330  -19.2781  -17.0795 C   0  0  2  0  0  0  0  0  0  0  0  0
   27.5370  -18.7123  -16.3567 N   0  0  0  0  0  0  0  0  0  0  0  0
   25.3739  -19.8347  -16.1993 C   0  0  0  0  0  0  0  0  0  0  0  0
   24.4651  -20.4982  -16.7510 O   0  0  0  0  0  0  0  0  0  0  0  0
   24.3128  -21.2982   -7.2425 N   0  0  0  0  0  0  0  0  0  0  0  0
   23.0866  -21.5004   -7.9218 C   0  0  0  0  0  0  0  0  0  0  0  0
   22.0146  -21.9601   -7.3161 N   0  0  0  0  0  0  0  0  0  0  0  0
   22.9247  -21.2272   -9.3052 N   0  0  0  0  0  0  0  0  0  0  0  0
   23.9758  -20.8072  -10.1797 C   0  0  0  0  0  0  0  0  0  0  0  0
   23.5187  -20.6992  -11.6176 C   0  0  0  0  0  0  0  0  0  0  0  0
   24.7310  -20.3147  -12.4851 C   0  0  0  0  0  0  0  0  0  0  0  0
   24.3444  -20.1225  -13.9015 C   0  0  2  0  0  0  0  0  0  0  0  0
   25.3453  -19.6545  -14.7998 N   0  0  0  0  0  0  0  0  0  0  0  0
   23.1099  -19.3009  -14.0845 C   0  0  0  0  0  0  0  0  0  0  0  0
   23.1586  -18.0643  -13.9086 O   0  0  0  0  0  0  0  0  0  0  0  0
   21.1707  -22.0577   -7.9522 C   0  0  0  0  0  0  0  0  0  0  0  0
   19.9057  -19.5567  -15.9171 C   0  0  1  0  0  0  0  0  0  0  0  0
   20.6385  -19.1946  -14.6621 N   0  0  0  0  0  0  0  0  0  0  0  0
   21.8737  -19.8834  -14.4490 C   0  0  0  0  0  0  0  0  0  0  0  0
   19.6855  -19.4724  -13.5096 O   0  0  0  0  0  0  0  0  0  0  0  0
   19.8082  -20.5387  -12.8862 O   0  0  0  0  0  0  0  0  0  0  0  0
  2  1  1  0
  3  2  2  0
  4  2  1  0
  5  4  1  0
  5  6  1  1
  7  5  1  0
  7  8  2  0
  9 10  1  0
 10 11  2  0
 12 13  1  0
 12 10  1  0
 14 13  1  0
 15 14  1  0
 16 15  1  1
 16 17  1  0
 17  7  1  0
 18 16  1  0
 19 18  2  0
 21 20  1  6
 21 22  1  0
 21 23  1  0
 22 18  1  0
 23 25  1  0
 24 23  2  0
M  END
$$$$
