NRA.pdb
     RDKit          3D

 25 24  0  0  1  0  0  0  0  0999 V2000
   26.1897  -23.9534  -20.2346 N   0  0  0  0  0  0  0  0  0  0  0  0
   26.0018  -22.9955  -19.2173 C   0  0  0  0  0  0  0  0  0  0  0  0
   26.6580  -21.9144  -19.1231 O   0  0  0  0  0  0  0  0  0  0  0  0
   24.9536  -23.2610  -18.1689 C   0  0  0  0  0  0  0  0  0  0  0  0
   25.6558  -23.5870  -16.8610 C   0  0  2  0  0  0  0  0  0  0  0  0
   26.2573  -24.8888  -16.9302 N   0  0  0  0  0  0  0  0  0  0  0  0
   24.6322  -23.4654  -15.7914 C   0  0  0  0  0  0  0  0  0  0  0  0
   24.7964  -24.1636  -14.7639 O   0  0  0  0  0  0  0  0  0  0  0  0
   23.8337  -20.9173   -9.1895 N   0  0  0  0  0  0  0  0  0  0  0  0
   25.0092  -21.0561   -9.9672 C   0  0  0  0  0  0  0  0  0  0  0  0
   26.1006  -21.6182   -9.4979 N   0  0  0  0  0  0  0  0  0  0  0  0
   25.0987  -20.5953  -11.3068 N   0  0  0  0  0  0  0  0  0  0  0  0
   24.1658  -19.7042  -11.9244 C   0  0  0  0  0  0  0  0  0  0  0  0
   23.1478  -20.4345  -12.7719 C   0  0  0  0  0  0  0  0  0  0  0  0
   23.8803  -21.0802  -13.9621 C   0  0  0  0  0  0  0  0  0  0  0  0
   22.9465  -21.8374  -14.8267 C   0  0  2  0  0  0  0  0  0  0  0  0
   23.5076  -22.6171  -15.8779 N   0  0  0  0  0  0  0  0  0  0  0  0
   21.8320  -21.0112  -15.3811 C   0  0  0  0  0  0  0  0  0  0  0  0
   22.0935  -20.0263  -16.1051 O   0  0  0  0  0  0  0  0  0  0  0  0
   26.9088  -21.6272  -10.1858 C   0  0  0  0  0  0  0  0  0  0  0  0
   19.6351  -18.9889  -15.3394 C   0  0  2  0  0  0  0  0  0  0  0  0
   19.3525  -20.4595  -15.3600 N   0  0  0  0  0  0  0  0  0  0  0  0
   20.4764  -21.3068  -15.1063 C   0  0  0  0  0  0  0  0  0  0  0  0
   18.7704  -20.7686  -16.7309 O   0  0  0  0  0  0  0  0  0  0  0  0
   19.3362  -21.6208  -17.4339 O   0  0  0  0  0  0  0  0  0  0  0  0
  2  1  1  0
  3  2  2  0
  4  2  1  0
  5  4  1  0
  5  6  1  6
  7  5  1  0
  7  8  2  0
  9 10  1  0
 10 11  2  0
 12 13  1  0
 12 10  1  0
 14 13  1  0
 15 14  1  0
 16 15  1  6
 16 17  1  0
 17  7  1  0
 18 16  1  0
 19 18  2  0
 21 20  1  1
 21 22  1  0
 21 23  1  0
 22 18  1  0
 23 25  1  0
 24 23  2  0
M  END
$$$$
