KAW.pdb
     RDKit          3D

 29 30  0  0  1  0  0  0  0  0999 V2000
   29.4979  -20.6417  -18.4005 N   0  0  0  0  0  0  0  0  0  0  0  0
   28.9702  -21.7162  -17.6059 C   0  0  1  0  0  0  0  0  0  0  0  0
   29.9679  -22.8185  -17.4084 C   0  0  0  0  0  0  0  0  0  0  0  0
   30.0823  -23.7224  -18.6105 C   0  0  0  0  0  0  0  0  0  0  0  0
   28.7577  -24.0733  -19.2094 C   0  0  0  0  0  0  0  0  0  0  0  0
   28.8181  -25.5611  -19.5699 C   0  0  0  0  0  0  0  0  0  0  0  0
   27.5694  -25.9919  -20.1551 N   0  0  0  0  0  0  0  0  0  0  0  0
   28.5450  -21.2496  -16.2516 C   0  0  0  0  0  0  0  0  0  0  0  0
   28.7881  -21.9454  -15.2342 O   0  0  0  0  0  0  0  0  0  0  0  0
   26.9289  -18.1342  -14.7687 C   0  0  0  0  0  0  0  0  0  0  0  0
   27.4804  -19.5187  -14.7621 C   0  0  2  0  0  0  0  0  0  0  0  0
   27.8602  -20.0260  -16.0451 N   0  0  0  0  0  0  0  0  0  0  0  0
   26.5792  -20.4680  -14.0295 C   0  0  0  0  0  0  0  0  0  0  0  0
   25.7447  -21.1209  -14.6846 O   0  0  0  0  0  0  0  0  0  0  0  0
   26.6376  -20.6506  -12.6370 N   0  0  0  0  0  0  0  0  0  0  0  0
   25.7980  -21.5705  -11.9017 C   0  0  1  0  0  0  0  0  0  0  0  0
   26.5301  -22.0493  -10.6650 C   0  0  0  0  0  0  0  0  0  0  0  0
   26.4975  -21.0782   -9.5697 C   0  0  0  0  0  0  0  0  0  0  0  0
   25.5405  -20.1248   -9.2879 C   0  0  0  0  0  0  0  0  0  0  0  0
   25.9391  -19.4573   -8.1759 N   0  0  0  0  0  0  0  0  0  0  0  0
   27.1011  -19.9312   -7.7284 C   0  0  0  0  0  0  0  0  0  0  0  0
   27.8808  -19.5856   -6.6613 C   0  0  0  0  0  0  0  0  0  0  0  0
   29.0631  -20.2547   -6.4214 C   0  0  0  0  0  0  0  0  0  0  0  0
   29.4139  -21.2674   -7.2905 C   0  0  0  0  0  0  0  0  0  0  0  0
   28.6450  -21.6343   -8.3727 C   0  0  0  0  0  0  0  0  0  0  0  0
   27.4606  -20.9429   -8.5887 C   0  0  0  0  0  0  0  0  0  0  0  0
   24.4765  -21.0140  -11.5925 C   0  0  0  0  0  0  0  0  0  0  0  0
   24.2064  -19.7882  -11.6057 O   0  0  0  0  0  0  0  0  0  0  0  0
   23.4447  -21.8866  -11.2610 O   0  0  0  0  0  0  0  0  0  0  0  0
  2  1  1  1
  2  8  1  0
  3  2  1  0
  4  3  1  0
  4  5  1  0
  6  5  1  0
  7  6  1  0
  8  9  2  0
 11 10  1  6
 11 13  1  0
 12  8  1  0
 12 11  1  0
 13 15  1  0
 13 14  2  0
 15 16  1  0
 16 27  1  0
 16 17  1  1
 18 19  2  0
 18 17  1  0
 20 19  1  0
 21 26  2  0
 21 20  1  0
 22 21  1  0
 23 22  2  0
 23 24  1  0
 24 25  2  0
 25 26  1  0
 26 18  1  0
 27 28  2  0
 27 29  1  0
M  END
$$$$
