KAW.pdb
     RDKit          3D

 29 30  0  0  1  0  0  0  0  0999 V2000
   26.2171  -20.5838  -16.7904 N   0  0  0  0  0  0  0  0  0  0  0  0
   26.0878  -21.5016  -15.6926 C   0  0  1  0  0  0  0  0  0  0  0  0
   27.3613  -22.2467  -15.4232 C   0  0  0  0  0  0  0  0  0  0  0  0
   27.5948  -23.3723  -16.3999 C   0  0  0  0  0  0  0  0  0  0  0  0
   26.4643  -24.3499  -16.4501 C   0  0  0  0  0  0  0  0  0  0  0  0
   26.8974  -25.4750  -17.3955 C   0  0  0  0  0  0  0  0  0  0  0  0
   25.9003  -26.5201  -17.4300 N   0  0  0  0  0  0  0  0  0  0  0  0
   25.7008  -20.8054  -14.4283 C   0  0  0  0  0  0  0  0  0  0  0  0
   26.4615  -19.9458  -13.9176 O   0  0  0  0  0  0  0  0  0  0  0  0
   22.6828  -20.5929  -12.1382 C   0  0  0  0  0  0  0  0  0  0  0  0
   24.1326  -20.5247  -12.4764 C   0  0  2  0  0  0  0  0  0  0  0  0
   24.4838  -21.0703  -13.7518 N   0  0  0  0  0  0  0  0  0  0  0  0
   24.9829  -21.0849  -11.3749 C   0  0  0  0  0  0  0  0  0  0  0  0
   25.2111  -22.3095  -11.3640 O   0  0  0  0  0  0  0  0  0  0  0  0
   25.5317  -20.2863  -10.3567 N   0  0  0  0  0  0  0  0  0  0  0  0
   26.3340  -20.7963   -9.2666 C   0  0  1  0  0  0  0  0  0  0  0  0
   27.3418  -19.7476   -8.8432 C   0  0  0  0  0  0  0  0  0  0  0  0
   28.2326  -20.2088   -7.7767 C   0  0  0  0  0  0  0  0  0  0  0  0
   29.0737  -21.3027   -7.7656 C   0  0  0  0  0  0  0  0  0  0  0  0
   29.6998  -21.3286   -6.5620 N   0  0  0  0  0  0  0  0  0  0  0  0
   29.3055  -20.3096   -5.7996 C   0  0  0  0  0  0  0  0  0  0  0  0
   29.6501  -19.9259   -4.5346 C   0  0  0  0  0  0  0  0  0  0  0  0
   29.0780  -18.8044   -3.9708 C   0  0  0  0  0  0  0  0  0  0  0  0
   28.1615  -18.1034   -4.7274 C   0  0  0  0  0  0  0  0  0  0  0  0
   27.7980  -18.4700   -6.0044 C   0  0  0  0  0  0  0  0  0  0  0  0
   28.3904  -19.6030   -6.5452 C   0  0  0  0  0  0  0  0  0  0  0  0
   25.5262  -21.2852   -8.1441 C   0  0  0  0  0  0  0  0  0  0  0  0
   24.4539  -20.7556   -7.7629 O   0  0  0  0  0  0  0  0  0  0  0  0
   25.9619  -22.4071   -7.4459 O   0  0  0  0  0  0  0  0  0  0  0  0
  2  1  1  6
  2  8  1  0
  3  2  1  0
  4  3  1  0
  4  5  1  0
  6  5  1  0
  7  6  1  0
  8  9  2  0
 11 10  1  1
 11 13  1  0
 12  8  1  0
 12 11  1  0
 13 15  1  0
 13 14  2  0
 15 16  1  0
 16 27  1  0
 16 17  1  1
 18 19  2  0
 18 17  1  0
 20 19  1  0
 21 26  2  0
 21 20  1  0
 22 21  1  0
 23 22  2  0
 23 24  1  0
 24 25  2  0
 25 26  1  0
 26 18  1  0
 27 28  2  0
 27 29  1  0
M  END
$$$$
