KAW.pdb
     RDKit          3D

 29 30  0  0  1  0  0  0  0  0999 V2000
   22.6559  -21.5385  -15.6570 N   0  0  0  0  0  0  0  0  0  0  0  0
   23.3264  -20.5213  -14.8953 C   0  0  1  0  0  0  0  0  0  0  0  0
   22.3679  -19.6772  -14.1091 C   0  0  0  0  0  0  0  0  0  0  0  0
   21.2248  -19.1607  -14.9468 C   0  0  0  0  0  0  0  0  0  0  0  0
   21.5561  -17.8993  -15.6784 C   0  0  0  0  0  0  0  0  0  0  0  0
   20.2802  -17.0514  -15.6936 C   0  0  0  0  0  0  0  0  0  0  0  0
   20.3719  -15.9801  -14.7286 N   0  0  0  0  0  0  0  0  0  0  0  0
   24.3054  -21.1048  -13.9289 C   0  0  0  0  0  0  0  0  0  0  0  0
   23.9292  -21.9405  -13.0696 O   0  0  0  0  0  0  0  0  0  0  0  0
   28.0581  -21.0258  -13.3425 C   0  0  0  0  0  0  0  0  0  0  0  0
   26.6296  -21.2162  -12.9627 C   0  0  2  0  0  0  0  0  0  0  0  0
   25.6791  -20.7558  -13.9282 N   0  0  0  0  0  0  0  0  0  0  0  0
   26.3455  -20.6716  -11.5942 C   0  0  0  0  0  0  0  0  0  0  0  0
   25.4437  -19.8216  -11.4678 O   0  0  0  0  0  0  0  0  0  0  0  0
   27.0537  -21.0803  -10.4509 N   0  0  0  0  0  0  0  0  0  0  0  0
   26.8747  -20.5066   -9.1352 C   0  0  1  0  0  0  0  0  0  0  0  0
   26.2513  -21.5340   -8.2131 C   0  0  0  0  0  0  0  0  0  0  0  0
   26.1062  -21.0540   -6.8376 C   0  0  0  0  0  0  0  0  0  0  0  0
   24.9559  -20.9109   -6.0888 C   0  0  0  0  0  0  0  0  0  0  0  0
   25.3141  -20.4311   -4.8712 N   0  0  0  0  0  0  0  0  0  0  0  0
   26.6331  -20.2583   -4.7981 C   0  0  0  0  0  0  0  0  0  0  0  0
   27.4430  -19.8063   -3.7951 C   0  0  0  0  0  0  0  0  0  0  0  0
   28.8064  -19.7255   -3.9888 C   0  0  0  0  0  0  0  0  0  0  0  0
   29.3035  -20.1140   -5.2159 C   0  0  0  0  0  0  0  0  0  0  0  0
   28.5078  -20.5730   -6.2423 C   0  0  0  0  0  0  0  0  0  0  0  0
   27.1395  -20.6433   -6.0180 C   0  0  0  0  0  0  0  0  0  0  0  0
   28.1110  -19.9372   -8.5884 C   0  0  0  0  0  0  0  0  0  0  0  0
   29.1920  -20.5667   -8.4839 O   0  0  0  0  0  0  0  0  0  0  0  0
   28.1027  -18.6158   -8.1528 O   0  0  0  0  0  0  0  0  0  0  0  0
  2  1  1  1
  2  8  1  0
  3  2  1  0
  4  3  1  0
  4  5  1  0
  6  5  1  0
  7  6  1  0
  8  9  2  0
 11 10  1  6
 11 13  1  0
 12  8  1  0
 12 11  1  0
 13 15  1  0
 13 14  2  0
 15 16  1  0
 16 27  1  0
 16 17  1  1
 18 19  2  0
 18 17  1  0
 20 19  1  0
 21 26  2  0
 21 20  1  0
 22 21  1  0
 23 22  2  0
 23 24  1  0
 24 25  2  0
 25 26  1  0
 26 18  1  0
 27 28  2  0
 27 29  1  0
M  END
$$$$
