KAW.pdb
     RDKit          3D

 29 30  0  0  1  0  0  0  0  0999 V2000
   30.5759  -22.0594  -18.0320 N   0  0  0  0  0  0  0  0  0  0  0  0
   29.2412  -22.3939  -17.6184 C   0  0  1  0  0  0  0  0  0  0  0  0
   29.0578  -23.8711  -17.4346 C   0  0  0  0  0  0  0  0  0  0  0  0
   29.8643  -24.6843  -18.4163 C   0  0  0  0  0  0  0  0  0  0  0  0
   30.8309  -25.6138  -17.7544 C   0  0  0  0  0  0  0  0  0  0  0  0
   31.6100  -26.3094  -18.8752 C   0  0  0  0  0  0  0  0  0  0  0  0
   32.6706  -27.1226  -18.3261 N   0  0  0  0  0  0  0  0  0  0  0  0
   28.8769  -21.7340  -16.3282 C   0  0  0  0  0  0  0  0  0  0  0  0
   29.3053  -22.1890  -15.2383 O   0  0  0  0  0  0  0  0  0  0  0  0
   27.1556  -18.5315  -15.2359 C   0  0  0  0  0  0  0  0  0  0  0  0
   27.6993  -19.9071  -15.0539 C   0  0  2  0  0  0  0  0  0  0  0  0
   28.0479  -20.5862  -16.2643 N   0  0  0  0  0  0  0  0  0  0  0  0
   26.8089  -20.7411  -14.1811 C   0  0  0  0  0  0  0  0  0  0  0  0
   25.9696  -21.4838  -14.7249 O   0  0  0  0  0  0  0  0  0  0  0  0
   26.8828  -20.7189  -12.7776 N   0  0  0  0  0  0  0  0  0  0  0  0
   26.0470  -21.5158  -11.9067 C   0  0  1  0  0  0  0  0  0  0  0  0
   26.8118  -21.8627  -10.6460 C   0  0  0  0  0  0  0  0  0  0  0  0
   26.6904  -20.8407   -9.6045 C   0  0  0  0  0  0  0  0  0  0  0  0
   25.6744  -19.9291   -9.4021 C   0  0  0  0  0  0  0  0  0  0  0  0
   25.9992  -19.1851   -8.3150 N   0  0  0  0  0  0  0  0  0  0  0  0
   27.1697  -19.5702   -7.8083 C   0  0  0  0  0  0  0  0  0  0  0  0
   27.8938  -19.1280   -6.7376 C   0  0  0  0  0  0  0  0  0  0  0  0
   29.1019  -19.7172   -6.4273 C   0  0  0  0  0  0  0  0  0  0  0  0
   29.5356  -20.7514   -7.2311 C   0  0  0  0  0  0  0  0  0  0  0  0
   28.8240  -21.2149   -8.3155 C   0  0  0  0  0  0  0  0  0  0  0  0
   27.6118  -20.6024   -8.6032 C   0  0  0  0  0  0  0  0  0  0  0  0
   24.7534  -20.8849  -11.6238 C   0  0  0  0  0  0  0  0  0  0  0  0
   23.7430  -21.5026  -11.2077 O   0  0  0  0  0  0  0  0  0  0  0  0
   24.6201  -19.5145  -11.8242 O   0  0  0  0  0  0  0  0  0  0  0  0
  2  1  1  1
  2  8  1  0
  3  2  1  0
  4  3  1  0
  4  5  1  0
  6  5  1  0
  7  6  1  0
  8  9  2  0
 11 10  1  6
 11 13  1  0
 12  8  1  0
 12 11  1  0
 13 15  1  0
 13 14  2  0
 15 16  1  0
 16 27  1  0
 16 17  1  1
 18 19  2  0
 18 17  1  0
 20 19  1  0
 21 26  2  0
 21 20  1  0
 22 21  1  0
 23 22  2  0
 23 24  1  0
 24 25  2  0
 25 26  1  0
 26 18  1  0
 27 28  2  0
 27 29  1  0
M  END
$$$$
