KAW.pdb
     RDKit          3D

 29 30  0  0  1  0  0  0  0  0999 V2000
   28.0620  -19.7146  -16.7770 N   0  0  0  0  0  0  0  0  0  0  0  0
   27.4666  -20.7768  -16.0144 C   0  0  1  0  0  0  0  0  0  0  0  0
   28.3950  -21.9425  -15.8447 C   0  0  0  0  0  0  0  0  0  0  0  0
   28.6284  -22.6930  -17.1322 C   0  0  0  0  0  0  0  0  0  0  0  0
   30.0727  -22.9841  -17.3884 C   0  0  0  0  0  0  0  0  0  0  0  0
   30.2165  -23.2014  -18.8981 C   0  0  0  0  0  0  0  0  0  0  0  0
   29.1685  -24.0670  -19.3878 N   0  0  0  0  0  0  0  0  0  0  0  0
   27.0638  -20.3231  -14.6490 C   0  0  0  0  0  0  0  0  0  0  0  0
   27.9132  -19.8254  -13.8683 O   0  0  0  0  0  0  0  0  0  0  0  0
   23.8716  -19.5798  -12.7955 C   0  0  0  0  0  0  0  0  0  0  0  0
   25.3027  -19.9872  -12.8787 C   0  0  2  0  0  0  0  0  0  0  0  0
   25.7337  -20.4267  -14.1705 N   0  0  0  0  0  0  0  0  0  0  0  0
   25.6591  -20.9723  -11.8050 C   0  0  0  0  0  0  0  0  0  0  0  0
   25.5823  -22.1882  -12.0642 O   0  0  0  0  0  0  0  0  0  0  0  0
   26.0756  -20.5801  -10.5210 N   0  0  0  0  0  0  0  0  0  0  0  0
   26.1552  -21.4712   -9.3846 C   0  0  1  0  0  0  0  0  0  0  0  0
   27.5446  -21.4071   -8.7846 C   0  0  0  0  0  0  0  0  0  0  0  0
   27.7047  -20.3087   -7.8298 C   0  0  0  0  0  0  0  0  0  0  0  0
   27.1038  -19.0664   -7.8326 C   0  0  0  0  0  0  0  0  0  0  0  0
   27.5591  -18.3863   -6.7504 N   0  0  0  0  0  0  0  0  0  0  0  0
   28.4205  -19.1256   -6.0527 C   0  0  0  0  0  0  0  0  0  0  0  0
   29.1261  -18.8750   -4.9101 C   0  0  0  0  0  0  0  0  0  0  0  0
   29.9663  -19.8373   -4.3896 C   0  0  0  0  0  0  0  0  0  0  0  0
   30.0589  -21.0387   -5.0619 C   0  0  0  0  0  0  0  0  0  0  0  0
   29.3579  -21.3150   -6.2150 C   0  0  0  0  0  0  0  0  0  0  0  0
   28.5203  -20.3272   -6.7151 C   0  0  0  0  0  0  0  0  0  0  0  0
   25.1028  -21.2259   -8.3927 C   0  0  0  0  0  0  0  0  0  0  0  0
   24.3017  -20.2606   -8.4378 O   0  0  0  0  0  0  0  0  0  0  0  0
   24.9699  -22.1102   -7.3267 O   0  0  0  0  0  0  0  0  0  0  0  0
  2  1  1  1
  2  8  1  0
  3  2  1  0
  4  3  1  0
  4  5  1  0
  6  5  1  0
  7  6  1  0
  8  9  2  0
 11 10  1  6
 11 13  1  0
 12  8  1  0
 12 11  1  0
 13 15  1  0
 13 14  2  0
 15 16  1  0
 16 27  1  0
 16 17  1  1
 18 19  2  0
 18 17  1  0
 20 19  1  0
 21 26  2  0
 21 20  1  0
 22 21  1  0
 23 22  2  0
 23 24  1  0
 24 25  2  0
 25 26  1  0
 26 18  1  0
 27 28  2  0
 27 29  1  0
M  END
$$$$
