KAW.pdb
     RDKit          3D

 29 30  0  0  1  0  0  0  0  0999 V2000
   28.2406  -21.5513  -19.2240 N   0  0  0  0  0  0  0  0  0  0  0  0
   26.9493  -22.0973  -19.5385 C   0  0  1  0  0  0  0  0  0  0  0  0
   26.9406  -23.5963  -19.4914 C   0  0  0  0  0  0  0  0  0  0  0  0
   27.9495  -24.1540  -18.5185 C   0  0  0  0  0  0  0  0  0  0  0  0
   27.9945  -25.6487  -18.5117 C   0  0  0  0  0  0  0  0  0  0  0  0
   29.0611  -26.0521  -17.4886 C   0  0  0  0  0  0  0  0  0  0  0  0
   29.0861  -27.4870  -17.3214 N   0  0  0  0  0  0  0  0  0  0  0  0
   25.8964  -21.6139  -18.5950 C   0  0  0  0  0  0  0  0  0  0  0  0
   26.2032  -21.2507  -17.4321 O   0  0  0  0  0  0  0  0  0  0  0  0
   22.2522  -20.6040  -18.7897 C   0  0  0  0  0  0  0  0  0  0  0  0
   23.4936  -21.0453  -18.0933 C   0  0  2  0  0  0  0  0  0  0  0  0
   24.5265  -21.5404  -18.9511 N   0  0  0  0  0  0  0  0  0  0  0  0
   23.1899  -21.9984  -16.9755 C   0  0  0  0  0  0  0  0  0  0  0  0
   23.6174  -23.1656  -17.0565 O   0  0  0  0  0  0  0  0  0  0  0  0
   22.4442  -21.6291  -15.8427 N   0  0  0  0  0  0  0  0  0  0  0  0
   22.2608  -22.4701  -14.6803 C   0  0  1  0  0  0  0  0  0  0  0  0
   23.6108  -22.8311  -14.0959 C   0  0  0  0  0  0  0  0  0  0  0  0
   24.3516  -21.6668  -13.6067 C   0  0  0  0  0  0  0  0  0  0  0  0
   23.9633  -20.7229  -12.6780 C   0  0  0  0  0  0  0  0  0  0  0  0
   24.9785  -19.8323  -12.5466 N   0  0  0  0  0  0  0  0  0  0  0  0
   25.9982  -20.1540  -13.3415 C   0  0  0  0  0  0  0  0  0  0  0  0
   27.2150  -19.5695  -13.5516 C   0  0  0  0  0  0  0  0  0  0  0  0
   28.1030  -20.1221  -14.4510 C   0  0  0  0  0  0  0  0  0  0  0  0
   27.7138  -21.2678  -15.1142 C   0  0  0  0  0  0  0  0  0  0  0  0
   26.4932  -21.8756  -14.9196 C   0  0  0  0  0  0  0  0  0  0  0  0
   25.6204  -21.2965  -14.0083 C   0  0  0  0  0  0  0  0  0  0  0  0
   21.3576  -21.8802  -13.6864 C   0  0  0  0  0  0  0  0  0  0  0  0
   20.9073  -22.4952  -12.6891 O   0  0  0  0  0  0  0  0  0  0  0  0
   20.9644  -20.5549  -13.8440 O   0  0  0  0  0  0  0  0  0  0  0  0
  2  1  1  1
  2  8  1  0
  3  2  1  0
  4  3  1  0
  4  5  1  0
  6  5  1  0
  7  6  1  0
  8  9  2  0
 11 10  1  6
 11 13  1  0
 12  8  1  0
 12 11  1  0
 13 15  1  0
 13 14  2  0
 15 16  1  0
 16 27  1  0
 16 17  1  1
 18 19  2  0
 18 17  1  0
 20 19  1  0
 21 26  2  0
 21 20  1  0
 22 21  1  0
 23 22  2  0
 23 24  1  0
 24 25  2  0
 25 26  1  0
 26 18  1  0
 27 28  2  0
 27 29  1  0
M  END
$$$$
