KAW.pdb
     RDKit          3D

 29 30  0  0  1  0  0  0  0  0999 V2000
   28.6620  -23.1444  -17.2733 N   0  0  0  0  0  0  0  0  0  0  0  0
   27.3718  -23.0335  -16.6508 C   0  0  1  0  0  0  0  0  0  0  0  0
   26.7737  -24.3739  -16.3425 C   0  0  0  0  0  0  0  0  0  0  0  0
   26.0042  -24.9493  -17.5054 C   0  0  0  0  0  0  0  0  0  0  0  0
   26.5956  -24.5965  -18.8328 C   0  0  0  0  0  0  0  0  0  0  0  0
   25.6616  -25.1779  -19.8990 C   0  0  0  0  0  0  0  0  0  0  0  0
   26.1710  -24.9038  -21.2230 N   0  0  0  0  0  0  0  0  0  0  0  0
   27.4365  -22.2671  -15.3697 C   0  0  0  0  0  0  0  0  0  0  0  0
   28.1885  -22.6484  -14.4382 O   0  0  0  0  0  0  0  0  0  0  0  0
   26.2659  -18.8825  -14.1351 C   0  0  0  0  0  0  0  0  0  0  0  0
   26.7881  -20.2694  -13.9780 C   0  0  2  0  0  0  0  0  0  0  0  0
   26.6715  -21.0963  -15.1400 N   0  0  0  0  0  0  0  0  0  0  0  0
   26.2245  -20.9361  -12.7582 C   0  0  0  0  0  0  0  0  0  0  0  0
   25.2049  -21.6406  -12.8830 O   0  0  0  0  0  0  0  0  0  0  0  0
   26.7988  -20.7987  -11.4826 N   0  0  0  0  0  0  0  0  0  0  0  0
   26.2951  -21.4441  -10.2902 C   0  0  1  0  0  0  0  0  0  0  0  0
   27.4009  -21.5426   -9.2597 C   0  0  0  0  0  0  0  0  0  0  0  0
   27.3935  -20.4321   -8.3055 C   0  0  0  0  0  0  0  0  0  0  0  0
   26.6673  -19.2595   -8.3494 C   0  0  0  0  0  0  0  0  0  0  0  0
   26.9898  -18.5340   -7.2491 N   0  0  0  0  0  0  0  0  0  0  0  0
   27.8844  -19.1781   -6.5009 C   0  0  0  0  0  0  0  0  0  0  0  0
   28.4971  -18.8535   -5.3238 C   0  0  0  0  0  0  0  0  0  0  0  0
   29.4036  -19.7219   -4.7521 C   0  0  0  0  0  0  0  0  0  0  0  0
   29.6574  -20.9080   -5.4099 C   0  0  0  0  0  0  0  0  0  0  0  0
   29.0526  -21.2578   -6.5970 C   0  0  0  0  0  0  0  0  0  0  0  0
   28.1449  -20.3637   -7.1484 C   0  0  0  0  0  0  0  0  0  0  0  0
   25.0883  -20.8005   -9.7600 C   0  0  0  0  0  0  0  0  0  0  0  0
   24.2768  -21.3564   -8.9802 O   0  0  0  0  0  0  0  0  0  0  0  0
   24.8099  -19.4900  -10.1355 O   0  0  0  0  0  0  0  0  0  0  0  0
  2  1  1  1
  2  8  1  0
  3  2  1  0
  4  3  1  0
  4  5  1  0
  6  5  1  0
  7  6  1  0
  8  9  2  0
 11 10  1  6
 11 13  1  0
 12  8  1  0
 12 11  1  0
 13 15  1  0
 13 14  2  0
 15 16  1  0
 16 27  1  0
 16 17  1  1
 18 19  2  0
 18 17  1  0
 20 19  1  0
 21 26  2  0
 21 20  1  0
 22 21  1  0
 23 22  2  0
 23 24  1  0
 24 25  2  0
 25 26  1  0
 26 18  1  0
 27 28  2  0
 27 29  1  0
M  END
$$$$
