KAW.pdb
     RDKit          3D

 29 30  0  0  1  0  0  0  0  0999 V2000
   26.2372  -19.3847  -19.7722 N   0  0  0  0  0  0  0  0  0  0  0  0
   27.2185  -19.4441  -18.7244 C   0  0  1  0  0  0  0  0  0  0  0  0
   27.5569  -18.0854  -18.1867 C   0  0  0  0  0  0  0  0  0  0  0  0
   26.8681  -16.9738  -18.9384 C   0  0  0  0  0  0  0  0  0  0  0  0
   25.3884  -16.9488  -18.7237 C   0  0  0  0  0  0  0  0  0  0  0  0
   24.8503  -15.7476  -19.5076 C   0  0  0  0  0  0  0  0  0  0  0  0
   23.4062  -15.7730  -19.5459 N   0  0  0  0  0  0  0  0  0  0  0  0
   26.7544  -20.2775  -17.5743 C   0  0  0  0  0  0  0  0  0  0  0  0
   25.8387  -19.8654  -16.8193 O   0  0  0  0  0  0  0  0  0  0  0  0
   27.2948  -23.8016  -16.2799 C   0  0  0  0  0  0  0  0  0  0  0  0
   26.9127  -22.3651  -16.1725 C   0  0  2  0  0  0  0  0  0  0  0  0
   27.3084  -21.5482  -17.2788 N   0  0  0  0  0  0  0  0  0  0  0  0
   27.3416  -21.7768  -14.8610 C   0  0  0  0  0  0  0  0  0  0  0  0
   28.2661  -20.9419  -14.8577 O   0  0  0  0  0  0  0  0  0  0  0  0
   26.7444  -22.1284  -13.6381 N   0  0  0  0  0  0  0  0  0  0  0  0
   27.1493  -21.6003  -12.3539 C   0  0  1  0  0  0  0  0  0  0  0  0
   26.7118  -20.1548  -12.2377 C   0  0  0  0  0  0  0  0  0  0  0  0
   25.2698  -20.0090  -12.0302 C   0  0  0  0  0  0  0  0  0  0  0  0
   24.5442  -20.1618  -10.8665 C   0  0  0  0  0  0  0  0  0  0  0  0
   23.2403  -19.9283  -11.1605 N   0  0  0  0  0  0  0  0  0  0  0  0
   23.0899  -19.6336  -12.4511 C   0  0  0  0  0  0  0  0  0  0  0  0
   21.9874  -19.3297  -13.1983 C   0  0  0  0  0  0  0  0  0  0  0  0
   22.1160  -19.0593  -14.5449 C   0  0  0  0  0  0  0  0  0  0  0  0
   23.3825  -19.1090  -15.0903 C   0  0  0  0  0  0  0  0  0  0  0  0
   24.5089  -19.4128  -14.3581 C   0  0  0  0  0  0  0  0  0  0  0  0
   24.3482  -19.6803  -13.0054 C   0  0  0  0  0  0  0  0  0  0  0  0
   26.6866  -22.4199  -11.2288 C   0  0  0  0  0  0  0  0  0  0  0  0
   25.8556  -23.3550  -11.3317 O   0  0  0  0  0  0  0  0  0  0  0  0
   27.1908  -22.1573   -9.9589 O   0  0  0  0  0  0  0  0  0  0  0  0
  2  1  1  6
  2  8  1  0
  3  2  1  0
  4  3  1  0
  4  5  1  0
  6  5  1  0
  7  6  1  0
  8  9  2  0
 11 10  1  6
 11 13  1  0
 12  8  1  0
 12 11  1  0
 13 15  1  0
 13 14  2  0
 15 16  1  0
 16 27  1  0
 16 17  1  1
 18 19  2  0
 18 17  1  0
 20 19  1  0
 21 26  2  0
 21 20  1  0
 22 21  1  0
 23 22  2  0
 23 24  1  0
 24 25  2  0
 25 26  1  0
 26 18  1  0
 27 28  2  0
 27 29  1  0
M  END
$$$$
