KAW.pdb
     RDKit          3D

 29 30  0  0  1  0  0  0  0  0999 V2000
   32.5723  -28.2409  -17.7925 N   0  0  0  0  0  0  0  0  0  0  0  0
   32.0632  -27.0436  -18.4023 C   0  0  1  0  0  0  0  0  0  0  0  0
   31.5576  -27.2865  -19.7932 C   0  0  0  0  0  0  0  0  0  0  0  0
   32.2585  -28.4350  -20.4751 C   0  0  0  0  0  0  0  0  0  0  0  0
   33.5059  -28.0211  -21.1887 C   0  0  0  0  0  0  0  0  0  0  0  0
   33.5236  -28.7797  -22.5195 C   0  0  0  0  0  0  0  0  0  0  0  0
   34.7283  -28.4790  -23.2584 N   0  0  0  0  0  0  0  0  0  0  0  0
   30.9394  -26.4528  -17.6144 C   0  0  0  0  0  0  0  0  0  0  0  0
   30.1289  -27.1965  -17.0075 O   0  0  0  0  0  0  0  0  0  0  0  0
   29.7615  -22.9650  -16.6342 C   0  0  0  0  0  0  0  0  0  0  0  0
   29.6788  -24.4482  -16.7539 C   0  0  2  0  0  0  0  0  0  0  0  0
   30.7307  -25.0547  -17.5110 N   0  0  0  0  0  0  0  0  0  0  0  0
   28.3246  -24.8890  -17.2249 C   0  0  0  0  0  0  0  0  0  0  0  0
   28.1329  -25.0156  -18.4492 O   0  0  0  0  0  0  0  0  0  0  0  0
   27.2652  -25.1645  -16.3430 N   0  0  0  0  0  0  0  0  0  0  0  0
   25.9260  -25.5121  -16.7644 C   0  0  1  0  0  0  0  0  0  0  0  0
   25.1747  -26.1366  -15.6068 C   0  0  0  0  0  0  0  0  0  0  0  0
   23.7907  -26.4777  -15.9411 C   0  0  0  0  0  0  0  0  0  0  0  0
   23.3224  -27.3207  -16.9281 C   0  0  0  0  0  0  0  0  0  0  0  0
   21.9674  -27.3231  -16.8590 N   0  0  0  0  0  0  0  0  0  0  0  0
   21.5403  -26.5266  -15.8801 C   0  0  0  0  0  0  0  0  0  0  0  0
   20.2871  -26.2127  -15.4361 C   0  0  0  0  0  0  0  0  0  0  0  0
   20.1244  -25.3405  -14.3799 C   0  0  0  0  0  0  0  0  0  0  0  0
   21.2616  -24.8112  -13.8050 C   0  0  0  0  0  0  0  0  0  0  0  0
   22.5353  -25.1122  -14.2343 C   0  0  0  0  0  0  0  0  0  0  0  0
   22.6676  -25.9930  -15.2992 C   0  0  0  0  0  0  0  0  0  0  0  0
   25.2039  -24.3821  -17.3589 C   0  0  0  0  0  0  0  0  0  0  0  0
   24.3416  -24.4933  -18.2643 O   0  0  0  0  0  0  0  0  0  0  0  0
   25.4804  -23.0974  -16.9017 O   0  0  0  0  0  0  0  0  0  0  0  0
  2  1  1  1
  2  8  1  0
  3  2  1  0
  4  3  1  0
  4  5  1  0
  6  5  1  0
  7  6  1  0
  8  9  2  0
 11 10  1  6
 11 13  1  0
 12  8  1  0
 12 11  1  0
 13 15  1  0
 13 14  2  0
 15 16  1  0
 16 27  1  0
 16 17  1  1
 18 19  2  0
 18 17  1  0
 20 19  1  0
 21 26  2  0
 21 20  1  0
 22 21  1  0
 23 22  2  0
 23 24  1  0
 24 25  2  0
 25 26  1  0
 26 18  1  0
 27 28  2  0
 27 29  1  0
M  END
$$$$
