KAW.pdb
     RDKit          3D

 29 30  0  0  1  0  0  0  0  0999 V2000
   26.7930  -18.2608  -15.6119 N   0  0  0  0  0  0  0  0  0  0  0  0
   26.5446  -19.5317  -14.9893 C   0  0  1  0  0  0  0  0  0  0  0  0
   27.7669  -20.4005  -14.9661 C   0  0  0  0  0  0  0  0  0  0  0  0
   27.5513  -21.7270  -15.6511 C   0  0  0  0  0  0  0  0  0  0  0  0
   28.6086  -22.0458  -16.6595 C   0  0  0  0  0  0  0  0  0  0  0  0
   28.2221  -23.3858  -17.2935 C   0  0  0  0  0  0  0  0  0  0  0  0
   29.1507  -23.7364  -18.3434 N   0  0  0  0  0  0  0  0  0  0  0  0
   26.0782  -19.3779  -13.5781 C   0  0  0  0  0  0  0  0  0  0  0  0
   26.7841  -18.7655  -12.7385 O   0  0  0  0  0  0  0  0  0  0  0  0
   22.9438  -20.0426  -11.5557 C   0  0  0  0  0  0  0  0  0  0  0  0
   24.4114  -19.8775  -11.7559 C   0  0  2  0  0  0  0  0  0  0  0  0
   24.8436  -19.9020  -13.1198 N   0  0  0  0  0  0  0  0  0  0  0  0
   25.1951  -20.8310  -10.9035 C   0  0  0  0  0  0  0  0  0  0  0  0
   25.4252  -21.9726  -11.3455 O   0  0  0  0  0  0  0  0  0  0  0  0
   25.6796  -20.4896   -9.6289 N   0  0  0  0  0  0  0  0  0  0  0  0
   26.1988  -21.4438   -8.6739 C   0  0  1  0  0  0  0  0  0  0  0  0
   27.6130  -21.0605   -8.2898 C   0  0  0  0  0  0  0  0  0  0  0  0
   27.6656  -19.9466   -7.3411 C   0  0  0  0  0  0  0  0  0  0  0  0
   26.9200  -18.7855   -7.3290 C   0  0  0  0  0  0  0  0  0  0  0  0
   27.3192  -18.0508   -6.2604 N   0  0  0  0  0  0  0  0  0  0  0  0
   28.2815  -18.6782   -5.5855 C   0  0  0  0  0  0  0  0  0  0  0  0
   28.9824  -18.3396   -4.4629 C   0  0  0  0  0  0  0  0  0  0  0  0
   29.9458  -19.1917   -3.9643 C   0  0  0  0  0  0  0  0  0  0  0  0
   30.1639  -20.3763   -4.6374 C   0  0  0  0  0  0  0  0  0  0  0  0
   29.4705  -20.7400   -5.7706 C   0  0  0  0  0  0  0  0  0  0  0  0
   28.5071  -19.8621   -6.2489 C   0  0  0  0  0  0  0  0  0  0  0  0
   25.3263  -21.6154   -7.5073 C   0  0  0  0  0  0  0  0  0  0  0  0
   25.5215  -22.4585   -6.5981 O   0  0  0  0  0  0  0  0  0  0  0  0
   24.2059  -20.7996   -7.3850 O   0  0  0  0  0  0  0  0  0  0  0  0
  2  1  1  1
  2  8  1  0
  3  2  1  0
  4  3  1  0
  4  5  1  0
  6  5  1  0
  7  6  1  0
  8  9  2  0
 11 10  1  6
 11 13  1  0
 12  8  1  0
 12 11  1  0
 13 15  1  0
 13 14  2  0
 15 16  1  0
 16 27  1  0
 16 17  1  1
 18 19  2  0
 18 17  1  0
 20 19  1  0
 21 26  2  0
 21 20  1  0
 22 21  1  0
 23 22  2  0
 23 24  1  0
 24 25  2  0
 25 26  1  0
 26 18  1  0
 27 28  2  0
 27 29  1  0
M  END
$$$$
