KAW.pdb
     RDKit          3D

 29 30  0  0  1  0  0  0  0  0999 V2000
   27.9550  -22.0783  -19.2180 N   0  0  0  0  0  0  0  0  0  0  0  0
   27.0039  -21.2840  -18.4907 C   0  0  1  0  0  0  0  0  0  0  0  0
   25.6085  -21.8211  -18.6084 C   0  0  0  0  0  0  0  0  0  0  0  0
   24.8804  -21.2896  -19.8179 C   0  0  0  0  0  0  0  0  0  0  0  0
   25.5376  -21.6606  -21.1088 C   0  0  0  0  0  0  0  0  0  0  0  0
   24.6982  -21.0328  -22.2261 C   0  0  0  0  0  0  0  0  0  0  0  0
   25.2255  -21.3958  -23.5214 N   0  0  0  0  0  0  0  0  0  0  0  0
   27.3351  -21.2141  -17.0353 C   0  0  0  0  0  0  0  0  0  0  0  0
   27.5630  -22.2641  -16.3842 O   0  0  0  0  0  0  0  0  0  0  0  0
   28.2568  -18.5091  -14.5472 C   0  0  0  0  0  0  0  0  0  0  0  0
   27.8093  -19.8700  -14.9577 C   0  0  2  0  0  0  0  0  0  0  0  0
   27.4084  -19.9892  -16.3262 N   0  0  0  0  0  0  0  0  0  0  0  0
   26.7720  -20.4154  -14.0214 C   0  0  0  0  0  0  0  0  0  0  0  0
   25.5713  -20.3053  -14.3346 O   0  0  0  0  0  0  0  0  0  0  0  0
   27.0986  -21.0443  -12.8075 N   0  0  0  0  0  0  0  0  0  0  0  0
   26.1419  -21.3491  -11.7664 C   0  0  1  0  0  0  0  0  0  0  0  0
   26.8684  -21.8803  -10.5480 C   0  0  0  0  0  0  0  0  0  0  0  0
   26.5372  -21.1512   -9.3222 C   0  0  0  0  0  0  0  0  0  0  0  0
   25.2980  -20.7640   -8.8548 C   0  0  0  0  0  0  0  0  0  0  0  0
   25.4861  -20.1131   -7.6792 N   0  0  0  0  0  0  0  0  0  0  0  0
   26.7803  -20.0618   -7.3666 C   0  0  0  0  0  0  0  0  0  0  0  0
   27.4443  -19.5211   -6.3022 C   0  0  0  0  0  0  0  0  0  0  0  0
   28.8185  -19.6115   -6.2243 C   0  0  0  0  0  0  0  0  0  0  0  0
   29.4772  -20.2594   -7.2491 C   0  0  0  0  0  0  0  0  0  0  0  0
   28.8304  -20.8125   -8.3322 C   0  0  0  0  0  0  0  0  0  0  0  0
   27.4472  -20.7058   -8.3831 C   0  0  0  0  0  0  0  0  0  0  0  0
   25.2648  -20.2171  -11.4488 C   0  0  0  0  0  0  0  0  0  0  0  0
   25.6503  -19.0248  -11.3748 O   0  0  0  0  0  0  0  0  0  0  0  0
   23.9161  -20.4628  -11.2112 O   0  0  0  0  0  0  0  0  0  0  0  0
  2  1  1  6
  2  8  1  0
  3  2  1  0
  4  3  1  0
  4  5  1  0
  6  5  1  0
  7  6  1  0
  8  9  2  0
 11 10  1  1
 11 13  1  0
 12  8  1  0
 12 11  1  0
 13 15  1  0
 13 14  2  0
 15 16  1  0
 16 27  1  0
 16 17  1  1
 18 19  2  0
 18 17  1  0
 20 19  1  0
 21 26  2  0
 21 20  1  0
 22 21  1  0
 23 22  2  0
 23 24  1  0
 24 25  2  0
 25 26  1  0
 26 18  1  0
 27 28  2  0
 27 29  1  0
M  END
$$$$
