KAW.pdb
     RDKit          3D

 29 30  0  0  1  0  0  0  0  0999 V2000
   27.6577  -16.1990  -19.6593 N   0  0  0  0  0  0  0  0  0  0  0  0
   26.9768  -15.9222  -18.4247 C   0  0  1  0  0  0  0  0  0  0  0  0
   25.6922  -15.1787  -18.6398 C   0  0  0  0  0  0  0  0  0  0  0  0
   25.9116  -13.7513  -19.0755 C   0  0  0  0  0  0  0  0  0  0  0  0
   25.7924  -13.5639  -20.5544 C   0  0  0  0  0  0  0  0  0  0  0  0
   26.0665  -12.0827  -20.8336 C   0  0  0  0  0  0  0  0  0  0  0  0
   26.2696  -11.8625  -22.2471 N   0  0  0  0  0  0  0  0  0  0  0  0
   26.6496  -17.1739  -17.6773 C   0  0  0  0  0  0  0  0  0  0  0  0
   25.9496  -18.0693  -18.2126 O   0  0  0  0  0  0  0  0  0  0  0  0
   27.3935  -18.6797  -14.2602 C   0  0  0  0  0  0  0  0  0  0  0  0
   26.6212  -18.4715  -15.5177 C   0  0  2  0  0  0  0  0  0  0  0  0
   27.0998  -17.4143  -16.3550 N   0  0  0  0  0  0  0  0  0  0  0  0
   25.1506  -18.3495  -15.2481 C   0  0  0  0  0  0  0  0  0  0  0  0
   24.7490  -17.3889  -14.5643 O   0  0  0  0  0  0  0  0  0  0  0  0
   24.2091  -19.2730  -15.7345 N   0  0  0  0  0  0  0  0  0  0  0  0
   22.7797  -19.1497  -15.5516 C   0  0  1  0  0  0  0  0  0  0  0  0
   22.2967  -17.8574  -16.1770 C   0  0  0  0  0  0  0  0  0  0  0  0
   21.8014  -16.8953  -15.1907 C   0  0  0  0  0  0  0  0  0  0  0  0
   22.3026  -15.6502  -14.8703 C   0  0  0  0  0  0  0  0  0  0  0  0
   21.5144  -15.1267  -13.8978 N   0  0  0  0  0  0  0  0  0  0  0  0
   20.5336  -15.9693  -13.5765 C   0  0  0  0  0  0  0  0  0  0  0  0
   19.5139  -15.8848  -12.6714 C   0  0  0  0  0  0  0  0  0  0  0  0
   18.6174  -16.9248  -12.5386 C   0  0  0  0  0  0  0  0  0  0  0  0
   18.7946  -18.0304  -13.3449 C   0  0  0  0  0  0  0  0  0  0  0  0
   19.8142  -18.1391  -14.2645 C   0  0  0  0  0  0  0  0  0  0  0  0
   20.7009  -17.0766  -14.3756 C   0  0  0  0  0  0  0  0  0  0  0  0
   22.0397  -20.3198  -16.0364 C   0  0  0  0  0  0  0  0  0  0  0  0
   20.8026  -20.4800  -15.8966 O   0  0  0  0  0  0  0  0  0  0  0  0
   22.7384  -21.3263  -16.6956 O   0  0  0  0  0  0  0  0  0  0  0  0
  2  1  1  6
  2  8  1  0
  3  2  1  0
  4  3  1  0
  4  5  1  0
  6  5  1  0
  7  6  1  0
  8  9  2  0
 11 10  1  1
 11 13  1  0
 12  8  1  0
 12 11  1  0
 13 15  1  0
 13 14  2  0
 15 16  1  0
 16 27  1  0
 16 17  1  6
 18 19  2  0
 18 17  1  0
 20 19  1  0
 21 26  2  0
 21 20  1  0
 22 21  1  0
 23 22  2  0
 23 24  1  0
 24 25  2  0
 25 26  1  0
 26 18  1  0
 27 28  2  0
 27 29  1  0
M  END
$$$$
