KAW.pdb
     RDKit          3D

 29 30  0  0  1  0  0  0  0  0999 V2000
   23.6216  -19.5854  -15.2099 N   0  0  0  0  0  0  0  0  0  0  0  0
   24.1795  -20.8734  -15.5174 C   0  0  1  0  0  0  0  0  0  0  0  0
   24.1874  -21.1508  -16.9913 C   0  0  0  0  0  0  0  0  0  0  0  0
   23.0545  -20.4696  -17.7179 C   0  0  0  0  0  0  0  0  0  0  0  0
   23.5153  -19.6226  -18.8610 C   0  0  0  0  0  0  0  0  0  0  0  0
   24.3094  -20.5402  -19.7962 C   0  0  0  0  0  0  0  0  0  0  0  0
   24.7481  -19.8145  -20.9660 N   0  0  0  0  0  0  0  0  0  0  0  0
   25.5864  -21.0006  -15.0306 C   0  0  0  0  0  0  0  0  0  0  0  0
   26.2085  -22.0843  -15.1608 O   0  0  0  0  0  0  0  0  0  0  0  0
   28.1361  -18.8086  -13.2400 C   0  0  0  0  0  0  0  0  0  0  0  0
   27.4748  -20.0836  -13.6373 C   0  0  2  0  0  0  0  0  0  0  0  0
   26.2800  -19.9317  -14.4099 N   0  0  0  0  0  0  0  0  0  0  0  0
   27.2678  -20.9882  -12.4588 C   0  0  0  0  0  0  0  0  0  0  0  0
   27.3622  -22.2185  -12.6296 O   0  0  0  0  0  0  0  0  0  0  0  0
   26.9722  -20.5055  -11.1722 N   0  0  0  0  0  0  0  0  0  0  0  0
   26.5695  -21.3414  -10.0627 C   0  0  1  0  0  0  0  0  0  0  0  0
   27.7162  -21.4711   -9.0815 C   0  0  0  0  0  0  0  0  0  0  0  0
   27.7512  -20.3880   -8.0969 C   0  0  0  0  0  0  0  0  0  0  0  0
   27.1618  -19.1420   -8.1613 C   0  0  0  0  0  0  0  0  0  0  0  0
   27.4702  -18.4809   -7.0172 N   0  0  0  0  0  0  0  0  0  0  0  0
   28.2264  -19.2360   -6.2215 C   0  0  0  0  0  0  0  0  0  0  0  0
   28.7730  -19.0070   -4.9906 C   0  0  0  0  0  0  0  0  0  0  0  0
   29.5311  -19.9824   -4.3768 C   0  0  0  0  0  0  0  0  0  0  0  0
   29.7079  -21.1742   -5.0491 C   0  0  0  0  0  0  0  0  0  0  0  0
   29.1673  -21.4289   -6.2901 C   0  0  0  0  0  0  0  0  0  0  0  0
   28.4091  -20.4284   -6.8830 C   0  0  0  0  0  0  0  0  0  0  0  0
   25.3315  -20.8829   -9.4232 C   0  0  0  0  0  0  0  0  0  0  0  0
   24.8291  -19.7452   -9.5928 O   0  0  0  0  0  0  0  0  0  0  0  0
   24.6582  -21.7521   -8.5705 O   0  0  0  0  0  0  0  0  0  0  0  0
  2  1  1  6
  2  8  1  0
  3  2  1  0
  4  3  1  0
  4  5  1  0
  6  5  1  0
  7  6  1  0
  8  9  2  0
 11 10  1  1
 11 13  1  0
 12  8  1  0
 12 11  1  0
 13 15  1  0
 13 14  2  0
 15 16  1  0
 16 27  1  0
 16 17  1  1
 18 19  2  0
 18 17  1  0
 20 19  1  0
 21 26  2  0
 21 20  1  0
 22 21  1  0
 23 22  2  0
 23 24  1  0
 24 25  2  0
 25 26  1  0
 26 18  1  0
 27 28  2  0
 27 29  1  0
M  END
$$$$
