KAW.pdb
     RDKit          3D

 29 30  0  0  1  0  0  0  0  0999 V2000
   27.5670  -19.6469  -16.0993 N   0  0  0  0  0  0  0  0  0  0  0  0
   28.3328  -19.2009  -14.9683 C   0  0  1  0  0  0  0  0  0  0  0  0
   28.8616  -17.8098  -15.1545 C   0  0  0  0  0  0  0  0  0  0  0  0
   28.5558  -17.2489  -16.5210 C   0  0  0  0  0  0  0  0  0  0  0  0
   29.7348  -17.2679  -17.4407 C   0  0  0  0  0  0  0  0  0  0  0  0
   29.3194  -16.5076  -18.7042 C   0  0  0  0  0  0  0  0  0  0  0  0
   30.3869  -16.5208  -19.6777 N   0  0  0  0  0  0  0  0  0  0  0  0
   27.5243  -19.2078  -13.7117 C   0  0  0  0  0  0  0  0  0  0  0  0
   28.0030  -18.7472  -12.6454 O   0  0  0  0  0  0  0  0  0  0  0  0
   23.9271  -19.8964  -12.7290 C   0  0  0  0  0  0  0  0  0  0  0  0
   25.3859  -19.7189  -12.4813 C   0  0  2  0  0  0  0  0  0  0  0  0
   26.2048  -19.7221  -13.6547 N   0  0  0  0  0  0  0  0  0  0  0  0
   25.8901  -20.6786  -11.4445 C   0  0  0  0  0  0  0  0  0  0  0  0
   26.3013  -21.7940  -11.8166 O   0  0  0  0  0  0  0  0  0  0  0  0
   25.9175  -20.3714  -10.0731 N   0  0  0  0  0  0  0  0  0  0  0  0
   26.2205  -21.3280   -9.0315 C   0  0  1  0  0  0  0  0  0  0  0  0
   27.6268  -21.0939   -8.5196 C   0  0  0  0  0  0  0  0  0  0  0  0
   27.7005  -20.0286   -7.5179 C   0  0  0  0  0  0  0  0  0  0  0  0
   27.0711  -18.8006   -7.5142 C   0  0  0  0  0  0  0  0  0  0  0  0
   27.4415  -18.1514   -6.3817 N   0  0  0  0  0  0  0  0  0  0  0  0
   28.2752  -18.8971   -5.6579 C   0  0  0  0  0  0  0  0  0  0  0  0
   28.9021  -18.6739   -4.4648 C   0  0  0  0  0  0  0  0  0  0  0  0
   29.7312  -19.6363   -3.9271 C   0  0  0  0  0  0  0  0  0  0  0  0
   29.8945  -20.8095   -4.6348 C   0  0  0  0  0  0  0  0  0  0  0  0
   29.2736  -21.0580   -5.8389 C   0  0  0  0  0  0  0  0  0  0  0  0
   28.4452  -20.0708   -6.3552 C   0  0  0  0  0  0  0  0  0  0  0  0
   25.2241  -21.3336   -7.9549 C   0  0  0  0  0  0  0  0  0  0  0  0
   25.2792  -22.0787   -6.9463 O   0  0  0  0  0  0  0  0  0  0  0  0
   24.1418  -20.4634   -8.0415 O   0  0  0  0  0  0  0  0  0  0  0  0
  2  1  1  6
  2  8  1  0
  3  2  1  0
  4  3  1  0
  4  5  1  0
  6  5  1  0
  7  6  1  0
  8  9  2  0
 11 10  1  6
 11 13  1  0
 12  8  1  0
 12 11  1  0
 13 15  1  0
 13 14  2  0
 15 16  1  0
 16 27  1  0
 16 17  1  1
 18 19  2  0
 18 17  1  0
 20 19  1  0
 21 26  2  0
 21 20  1  0
 22 21  1  0
 23 22  2  0
 23 24  1  0
 24 25  2  0
 25 26  1  0
 26 18  1  0
 27 28  2  0
 27 29  1  0
M  END
$$$$
