PSV.pdb
     RDKit          3D

 21 21  0  0  1  0  0  0  0  0999 V2000
    9.4261  -13.9058   18.2540 N   0  0  0  0  0  0  0  0  0  0  0  0
    8.6659  -13.6431   17.0373 C   0  0  0  0  0  0  0  0  0  0  0  0
    7.2119  -13.6732   17.4156 C   0  0  0  0  0  0  0  0  0  0  0  0
    7.2258  -14.0975   18.8554 C   0  0  0  0  0  0  0  0  0  0  0  0
    8.5550  -13.4992   19.3183 C   0  0  1  0  0  0  0  0  0  0  0  0
    8.8823  -14.0613   20.6303 C   0  0  0  0  0  0  0  0  0  0  0  0
   10.1253  -14.1093   20.9229 O   0  0  0  0  0  0  0  0  0  0  0  0
    6.3235  -16.2329   23.1774 O   0  0  0  0  0  0  0  0  0  0  0  0
    7.1351  -15.2519   23.6962 C   0  0  0  0  0  0  0  0  0  0  0  0
    8.3856  -15.0436   22.8316 C   0  0  2  0  0  0  0  0  0  0  0  0
    7.9238  -14.5391   21.5617 N   0  0  0  0  0  0  0  0  0  0  0  0
    9.1278  -16.3188   22.6973 C   0  0  0  0  0  0  0  0  0  0  0  0
    8.8326  -17.0630   21.7276 O   0  0  0  0  0  0  0  0  0  0  0  0
   12.8315  -17.1913   22.3597 C   0  0  0  0  0  0  0  0  0  0  0  0
   12.3223  -17.8788   23.5844 C   0  0  1  0  0  0  0  0  0  0  0  0
   12.7679  -17.2266   24.8709 C   0  0  0  0  0  0  0  0  0  0  0  0
   10.8235  -18.0045   23.4903 C   0  0  2  0  0  0  0  0  0  0  0  0
   10.1402  -16.7526   23.5818 N   0  0  0  0  0  0  0  0  0  0  0  0
   10.3524  -18.9063   24.5551 C   0  0  0  0  0  0  0  0  0  0  0  0
   10.6996  -20.2367   24.5291 O   0  0  0  0  0  0  0  0  0  0  0  0
    9.6402  -18.4746   25.4823 O   0  0  0  0  0  0  0  0  0  0  0  0
  1  2  1  0
  3  2  1  0
  4  5  1  0
  4  3  1  0
  5  1  1  0
  5  6  1  1
  6 11  1  0
  7  6  2  0
  8  9  1  0
 10 11  1  0
 10 12  1  0
 10  9  1  1
 12 13  2  0
 12 18  1  0
 15 16  1  1
 15 14  1  0
 17 15  1  0
 17 18  1  1
 19 20  1  0
 19 17  1  0
 21 19  2  0
M  END
$$$$
