PSV.pdb
     RDKit          3D

 21 21  0  0  1  0  0  0  0  0999 V2000
    8.1549  -16.5740   20.4242 N   0  0  0  0  0  0  0  0  0  0  0  0
    7.9638  -16.2887   19.0067 C   0  0  0  0  0  0  0  0  0  0  0  0
    7.8189  -14.7986   18.8766 C   0  0  0  0  0  0  0  0  0  0  0  0
    7.8044  -14.3155   20.2978 C   0  0  0  0  0  0  0  0  0  0  0  0
    8.6974  -15.3620   20.9660 C   0  0  1  0  0  0  0  0  0  0  0  0
    8.5644  -15.2231   22.4177 C   0  0  0  0  0  0  0  0  0  0  0  0
    9.0563  -14.1579   22.9241 O   0  0  0  0  0  0  0  0  0  0  0  0
    6.8484  -18.0401   25.0573 O   0  0  0  0  0  0  0  0  0  0  0  0
    6.5425  -16.7012   25.1227 C   0  0  0  0  0  0  0  0  0  0  0  0
    7.7153  -15.8344   24.6455 C   0  0  2  0  0  0  0  0  0  0  0  0
    7.9392  -16.1771   23.2624 N   0  0  0  0  0  0  0  0  0  0  0  0
    8.9070  -16.0835   25.4898 C   0  0  0  0  0  0  0  0  0  0  0  0
    9.8108  -16.8182   25.0160 O   0  0  0  0  0  0  0  0  0  0  0  0
   10.4172  -13.2964   28.0085 C   0  0  0  0  0  0  0  0  0  0  0  0
   10.4299  -14.6510   28.6385 C   0  0  1  0  0  0  0  0  0  0  0  0
    9.4102  -14.8129   29.7399 C   0  0  0  0  0  0  0  0  0  0  0  0
   10.2865  -15.6953   27.5615 C   0  0  2  0  0  0  0  0  0  0  0  0
    9.0947  -15.5533   26.7856 N   0  0  0  0  0  0  0  0  0  0  0  0
   10.3179  -17.0298   28.1836 C   0  0  0  0  0  0  0  0  0  0  0  0
   11.4854  -17.4996   28.7380 O   0  0  0  0  0  0  0  0  0  0  0  0
    9.2941  -17.7398   28.2127 O   0  0  0  0  0  0  0  0  0  0  0  0
  1  2  1  0
  3  2  1  0
  4  5  1  0
  4  3  1  0
  5  1  1  0
  5  6  1  1
  6 11  1  0
  7  6  2  0
  8  9  1  0
 10 11  1  0
 10 12  1  0
 10  9  1  1
 12 13  2  0
 12 18  1  0
 15 16  1  1
 15 14  1  0
 17 15  1  0
 17 18  1  1
 19 20  1  0
 19 17  1  0
 21 19  2  0
M  END
$$$$
