PSV.pdb
     RDKit          3D

 21 21  0  0  1  0  0  0  0  0999 V2000
    7.8520  -15.0809   18.4713 N   0  0  0  0  0  0  0  0  0  0  0  0
    8.0943  -14.1687   17.3594 C   0  0  0  0  0  0  0  0  0  0  0  0
    8.2760  -12.7988   17.9499 C   0  0  0  0  0  0  0  0  0  0  0  0
    7.9852  -12.9971   19.4091 C   0  0  0  0  0  0  0  0  0  0  0  0
    8.4564  -14.4392   19.6025 C   0  0  1  0  0  0  0  0  0  0  0  0
    7.9796  -14.9100   20.9046 C   0  0  0  0  0  0  0  0  0  0  0  0
    6.7128  -14.9004   21.0721 O   0  0  0  0  0  0  0  0  0  0  0  0
   10.0708  -17.1574   23.7937 O   0  0  0  0  0  0  0  0  0  0  0  0
    8.7219  -17.1491   23.5281 C   0  0  0  0  0  0  0  0  0  0  0  0
    8.2216  -15.7334   23.2113 C   0  0  2  0  0  0  0  0  0  0  0  0
    8.8223  -15.3607   21.9541 N   0  0  0  0  0  0  0  0  0  0  0  0
    8.5877  -14.8084   24.3092 C   0  0  0  0  0  0  0  0  0  0  0  0
    9.7104  -14.2458   24.2442 O   0  0  0  0  0  0  0  0  0  0  0  0
    7.0143  -11.6440   25.7556 C   0  0  0  0  0  0  0  0  0  0  0  0
    7.0931  -12.6463   26.8607 C   0  0  1  0  0  0  0  0  0  0  0  0
    5.7608  -13.2642   27.2100 C   0  0  0  0  0  0  0  0  0  0  0  0
    8.1350  -13.6787   26.5147 C   0  0  2  0  0  0  0  0  0  0  0  0
    7.7635  -14.5175   25.4189 N   0  0  0  0  0  0  0  0  0  0  0  0
    8.4017  -14.5048   27.7043 C   0  0  0  0  0  0  0  0  0  0  0  0
    8.9231  -13.9257   28.8374 O   0  0  0  0  0  0  0  0  0  0  0  0
    8.1589  -15.7272   27.6945 O   0  0  0  0  0  0  0  0  0  0  0  0
  1  2  1  0
  3  2  1  0
  4  5  1  0
  4  3  1  0
  5  1  1  0
  5  6  1  1
  6 11  1  0
  7  6  2  0
  8  9  1  0
 10 11  1  0
 10 12  1  0
 10  9  1  1
 12 13  2  0
 12 18  1  0
 15 16  1  6
 15 14  1  0
 17 15  1  0
 17 18  1  6
 19 20  1  0
 19 17  1  0
 21 19  2  0
M  END
$$$$
