PSV.pdb
     RDKit          3D

 21 21  0  0  1  0  0  0  0  0999 V2000
    8.7542  -15.2044   18.8124 N   0  0  0  0  0  0  0  0  0  0  0  0
    8.9017  -14.6918   17.4550 C   0  0  0  0  0  0  0  0  0  0  0  0
    8.2033  -13.3619   17.4119 C   0  0  0  0  0  0  0  0  0  0  0  0
    7.5619  -13.2511   18.7646 C   0  0  0  0  0  0  0  0  0  0  0  0
    8.5579  -14.0355   19.6199 C   0  0  1  0  0  0  0  0  0  0  0  0
    7.9470  -14.2860   20.9270 C   0  0  0  0  0  0  0  0  0  0  0  0
    7.7793  -13.2603   21.6706 O   0  0  0  0  0  0  0  0  0  0  0  0
    7.6331  -17.7855   23.4118 O   0  0  0  0  0  0  0  0  0  0  0  0
    6.5431  -17.1392   22.8786 C   0  0  0  0  0  0  0  0  0  0  0  0
    6.8328  -15.6503   22.6459 C   0  0  2  0  0  0  0  0  0  0  0  0
    7.5454  -15.5644   21.3948 N   0  0  0  0  0  0  0  0  0  0  0  0
    7.6129  -15.1019   23.7798 C   0  0  0  0  0  0  0  0  0  0  0  0
    8.8666  -15.1681   23.7078 O   0  0  0  0  0  0  0  0  0  0  0  0
    5.7089  -13.0987   27.0276 C   0  0  0  0  0  0  0  0  0  0  0  0
    7.0211  -12.6207   26.4966 C   0  0  1  0  0  0  0  0  0  0  0  0
    7.8333  -11.8456   27.5059 C   0  0  0  0  0  0  0  0  0  0  0  0
    7.7768  -13.7930   25.9258 C   0  0  2  0  0  0  0  0  0  0  0  0
    7.0451  -14.5123   24.9310 N   0  0  0  0  0  0  0  0  0  0  0  0
    8.1477  -14.7019   27.0236 C   0  0  0  0  0  0  0  0  0  0  0  0
    7.5875  -15.9559   27.0933 O   0  0  0  0  0  0  0  0  0  0  0  0
    8.9666  -14.3451   27.8927 O   0  0  0  0  0  0  0  0  0  0  0  0
  1  2  1  0
  3  2  1  0
  4  5  1  0
  4  3  1  0
  5  1  1  0
  5  6  1  1
  6 11  1  0
  7  6  2  0
  8  9  1  0
 10 11  1  0
 10 12  1  0
 10  9  1  1
 12 13  2  0
 12 18  1  0
 15 16  1  1
 15 14  1  0
 17 15  1  0
 17 18  1  6
 19 20  1  0
 19 17  1  0
 21 19  2  0
M  END
$$$$
