PSV.pdb
     RDKit          3D

 21 21  0  0  1  0  0  0  0  0999 V2000
    8.3375  -15.2514   19.1650 N   0  0  0  0  0  0  0  0  0  0  0  0
    8.4011  -14.6272   17.8484 C   0  0  0  0  0  0  0  0  0  0  0  0
    7.8487  -13.2375   17.9966 C   0  0  0  0  0  0  0  0  0  0  0  0
    7.3629  -13.1955   19.4163 C   0  0  0  0  0  0  0  0  0  0  0  0
    8.3503  -14.1522   20.0861 C   0  0  1  0  0  0  0  0  0  0  0  0
    7.8514  -14.4666   21.4266 C   0  0  0  0  0  0  0  0  0  0  0  0
    7.8294  -13.4950   22.2563 O   0  0  0  0  0  0  0  0  0  0  0  0
    7.5620  -18.1446   23.6811 O   0  0  0  0  0  0  0  0  0  0  0  0
    6.4808  -17.3796   23.3123 C   0  0  0  0  0  0  0  0  0  0  0  0
    6.8640  -15.9010   23.1658 C   0  0  2  0  0  0  0  0  0  0  0  0
    7.4064  -15.7501   21.8379 N   0  0  0  0  0  0  0  0  0  0  0  0
    7.8341  -15.5215   24.2193 C   0  0  0  0  0  0  0  0  0  0  0  0
    9.0565  -15.5740   23.9290 O   0  0  0  0  0  0  0  0  0  0  0  0
    7.8525  -12.2605   26.1664 C   0  0  0  0  0  0  0  0  0  0  0  0
    7.9367  -13.3543   27.1806 C   0  0  1  0  0  0  0  0  0  0  0  0
    6.6606  -13.5501   27.9630 C   0  0  0  0  0  0  0  0  0  0  0  0
    8.3976  -14.6188   26.5026 C   0  0  2  0  0  0  0  0  0  0  0  0
    7.4793  -15.1065   25.5221 N   0  0  0  0  0  0  0  0  0  0  0  0
    8.6267  -15.6527   27.5261 C   0  0  0  0  0  0  0  0  0  0  0  0
    9.5681  -15.4481   28.5074 O   0  0  0  0  0  0  0  0  0  0  0  0
    7.9741  -16.7144   27.5117 O   0  0  0  0  0  0  0  0  0  0  0  0
  1  2  1  0
  3  2  1  0
  4  5  1  0
  4  3  1  0
  5  1  1  0
  5  6  1  1
  6 11  1  0
  7  6  2  0
  8  9  1  0
 10 11  1  0
 10 12  1  0
 10  9  1  1
 12 13  2  0
 12 18  1  0
 15 16  1  6
 15 14  1  0
 17 15  1  0
 17 18  1  6
 19 20  1  0
 19 17  1  0
 21 19  2  0
M  END
$$$$
