PSV.pdb
     RDKit          3D

 21 21  0  0  1  0  0  0  0  0999 V2000
    8.1591  -15.1213   18.3984 N   0  0  0  0  0  0  0  0  0  0  0  0
    8.4291  -14.2820   17.2365 C   0  0  0  0  0  0  0  0  0  0  0  0
    8.3518  -12.8550   17.7010 C   0  0  0  0  0  0  0  0  0  0  0  0
    7.8955  -12.9673   19.1266 C   0  0  0  0  0  0  0  0  0  0  0  0
    8.5183  -14.3067   19.5228 C   0  0  1  0  0  0  0  0  0  0  0  0
    7.9355  -14.7274   20.7987 C   0  0  0  0  0  0  0  0  0  0  0  0
    6.7073  -14.4238   20.9786 O   0  0  0  0  0  0  0  0  0  0  0  0
    9.5544  -17.4864   23.4407 O   0  0  0  0  0  0  0  0  0  0  0  0
    8.2106  -17.2182   23.3295 C   0  0  0  0  0  0  0  0  0  0  0  0
    7.9573  -15.7316   23.0456 C   0  0  2  0  0  0  0  0  0  0  0  0
    8.6395  -15.4304   21.8109 N   0  0  0  0  0  0  0  0  0  0  0  0
    8.4456  -14.9086   24.1767 C   0  0  0  0  0  0  0  0  0  0  0  0
    9.6419  -14.5230   24.1401 O   0  0  0  0  0  0  0  0  0  0  0  0
    7.2646  -11.5769   25.6955 C   0  0  0  0  0  0  0  0  0  0  0  0
    7.2082  -12.6198   26.7637 C   0  0  1  0  0  0  0  0  0  0  0  0
    5.8076  -13.0906   27.0729 C   0  0  0  0  0  0  0  0  0  0  0  0
    8.1292  -13.7535   26.3928 C   0  0  2  0  0  0  0  0  0  0  0  0
    7.6605  -14.5300   25.2883 N   0  0  0  0  0  0  0  0  0  0  0  0
    8.3139  -14.6222   27.5677 C   0  0  0  0  0  0  0  0  0  0  0  0
    8.9206  -14.1260   28.6976 O   0  0  0  0  0  0  0  0  0  0  0  0
    7.9246  -15.8060   27.5481 O   0  0  0  0  0  0  0  0  0  0  0  0
  1  2  1  0
  3  2  1  0
  4  5  1  0
  4  3  1  0
  5  1  1  0
  5  6  1  1
  6 11  1  0
  7  6  2  0
  8  9  1  0
 10 11  1  0
 10 12  1  0
 10  9  1  1
 12 13  2  0
 12 18  1  0
 15 16  1  6
 15 14  1  0
 17 15  1  0
 17 18  1  6
 19 20  1  0
 19 17  1  0
 21 19  2  0
M  END
$$$$
