PSV.pdb
     RDKit          3D

 21 21  0  0  1  0  0  0  0  0999 V2000
    8.7530  -14.9657   19.0544 N   0  0  0  0  0  0  0  0  0  0  0  0
    8.8226  -14.4431   17.6946 C   0  0  0  0  0  0  0  0  0  0  0  0
    8.0466  -13.1563   17.6809 C   0  0  0  0  0  0  0  0  0  0  0  0
    7.4475  -13.0855   19.0554 C   0  0  0  0  0  0  0  0  0  0  0  0
    8.5170  -13.8117   19.8726 C   0  0  1  0  0  0  0  0  0  0  0  0
    7.9679  -14.0997   21.1993 C   0  0  0  0  0  0  0  0  0  0  0  0
    7.7014  -13.0829   21.9260 O   0  0  0  0  0  0  0  0  0  0  0  0
    8.0829  -17.6165   23.6895 O   0  0  0  0  0  0  0  0  0  0  0  0
    6.9184  -17.0471   23.2313 C   0  0  0  0  0  0  0  0  0  0  0  0
    7.0880  -15.5413   22.9895 C   0  0  2  0  0  0  0  0  0  0  0  0
    7.7248  -15.4044   21.7025 N   0  0  0  0  0  0  0  0  0  0  0  0
    7.8864  -14.9387   24.0824 C   0  0  0  0  0  0  0  0  0  0  0  0
    9.1361  -14.9169   23.9444 O   0  0  0  0  0  0  0  0  0  0  0  0
    7.2779  -11.5074   26.0307 C   0  0  0  0  0  0  0  0  0  0  0  0
    7.3937  -12.6456   26.9916 C   0  0  1  0  0  0  0  0  0  0  0  0
    6.0743  -13.0591   27.5977 C   0  0  0  0  0  0  0  0  0  0  0  0
    8.1016  -13.7906   26.3143 C   0  0  2  0  0  0  0  0  0  0  0  0
    7.3400  -14.3894   25.2636 N   0  0  0  0  0  0  0  0  0  0  0  0
    8.4393  -14.8076   27.3246 C   0  0  0  0  0  0  0  0  0  0  0  0
    9.3069  -14.4971   28.3453 O   0  0  0  0  0  0  0  0  0  0  0  0
    7.9452  -15.9501   27.2636 O   0  0  0  0  0  0  0  0  0  0  0  0
  1  2  1  0
  3  2  1  0
  4  5  1  0
  4  3  1  0
  5  1  1  0
  5  6  1  1
  6 11  1  0
  7  6  2  0
  8  9  1  0
 10 11  1  0
 10 12  1  0
 10  9  1  1
 12 13  2  0
 12 18  1  0
 15 16  1  6
 15 14  1  0
 17 15  1  0
 17 18  1  6
 19 20  1  0
 19 17  1  0
 21 19  2  0
M  END
$$$$
