PSV.pdb
     RDKit          3D

 21 21  0  0  1  0  0  0  0  0999 V2000
    8.1080  -15.3087   19.8946 N   0  0  0  0  0  0  0  0  0  0  0  0
    7.9988  -14.6407   18.6027 C   0  0  0  0  0  0  0  0  0  0  0  0
    7.5967  -13.2192   18.8785 C   0  0  0  0  0  0  0  0  0  0  0  0
    7.3640  -13.1949   20.3612 C   0  0  0  0  0  0  0  0  0  0  0  0
    8.3681  -14.2504   20.8269 C   0  0  1  0  0  0  0  0  0  0  0  0
    8.0795  -14.5771   22.2249 C   0  0  0  0  0  0  0  0  0  0  0  0
    8.3093  -13.6499   23.0738 O   0  0  0  0  0  0  0  0  0  0  0  0
    7.4886  -18.3778   24.0111 O   0  0  0  0  0  0  0  0  0  0  0  0
    6.5871  -17.3585   24.2079 C   0  0  0  0  0  0  0  0  0  0  0  0
    7.2554  -15.9843   24.0683 C   0  0  2  0  0  0  0  0  0  0  0  0
    7.5753  -15.8267   22.6707 N   0  0  0  0  0  0  0  0  0  0  0  0
    8.4553  -15.9133   24.9345 C   0  0  0  0  0  0  0  0  0  0  0  0
    9.5742  -16.1031   24.3930 O   0  0  0  0  0  0  0  0  0  0  0  0
   10.6521  -14.2135   28.9631 C   0  0  0  0  0  0  0  0  0  0  0  0
    9.3855  -14.3700   28.1864 C   0  0  1  0  0  0  0  0  0  0  0  0
    8.8692  -13.0745   27.6083 C   0  0  0  0  0  0  0  0  0  0  0  0
    9.5809  -15.4331   27.1363 C   0  0  2  0  0  0  0  0  0  0  0  0
    8.4265  -15.6477   26.3216 N   0  0  0  0  0  0  0  0  0  0  0  0
    9.9631  -16.6924   27.7975 C   0  0  0  0  0  0  0  0  0  0  0  0
   11.1925  -16.8017   28.4038 O   0  0  0  0  0  0  0  0  0  0  0  0
    9.1812  -17.6628   27.8130 O   0  0  0  0  0  0  0  0  0  0  0  0
  1  2  1  0
  3  2  1  0
  4  5  1  0
  4  3  1  0
  5  1  1  0
  5  6  1  1
  6 11  1  0
  7  6  2  0
  8  9  1  0
 10 11  1  0
 10 12  1  0
 10  9  1  6
 12 13  2  0
 12 18  1  0
 15 16  1  6
 15 14  1  0
 17 15  1  0
 17 18  1  1
 19 20  1  0
 19 17  1  0
 21 19  2  0
M  END
$$$$
