PSV.pdb
     RDKit          3D

 21 21  0  0  1  0  0  0  0  0999 V2000
    8.7872  -15.1291   19.0405 N   0  0  0  0  0  0  0  0  0  0  0  0
    8.9450  -14.5265   17.7217 C   0  0  0  0  0  0  0  0  0  0  0  0
    8.1060  -13.2798   17.7079 C   0  0  0  0  0  0  0  0  0  0  0  0
    7.3887  -13.3170   19.0260 C   0  0  0  0  0  0  0  0  0  0  0  0
    8.4214  -14.0366   19.8947 C   0  0  1  0  0  0  0  0  0  0  0  0
    7.7770  -14.4264   21.1506 C   0  0  0  0  0  0  0  0  0  0  0  0
    7.3557  -13.4677   21.8830 O   0  0  0  0  0  0  0  0  0  0  0  0
    6.5077  -17.8648   24.3150 O   0  0  0  0  0  0  0  0  0  0  0  0
    7.0385  -17.5231   23.0936 C   0  0  0  0  0  0  0  0  0  0  0  0
    6.9907  -16.0063   22.8661 C   0  0  2  0  0  0  0  0  0  0  0  0
    7.6021  -15.7674   21.5818 N   0  0  0  0  0  0  0  0  0  0  0  0
    7.6937  -15.3059   23.9662 C   0  0  0  0  0  0  0  0  0  0  0  0
    8.9469  -15.2282   23.8976 O   0  0  0  0  0  0  0  0  0  0  0  0
    7.5630  -12.1961   27.7892 C   0  0  0  0  0  0  0  0  0  0  0  0
    6.7668  -13.0647   26.8707 C   0  0  1  0  0  0  0  0  0  0  0  0
    5.8151  -12.2946   25.9874 C   0  0  0  0  0  0  0  0  0  0  0  0
    7.7076  -13.9382   26.0816 C   0  0  2  0  0  0  0  0  0  0  0  0
    7.0532  -14.7221   25.0817 N   0  0  0  0  0  0  0  0  0  0  0  0
    8.4308  -14.8224   27.0112 C   0  0  0  0  0  0  0  0  0  0  0  0
    9.4318  -14.3111   27.8036 O   0  0  0  0  0  0  0  0  0  0  0  0
    8.1440  -16.0328   27.0872 O   0  0  0  0  0  0  0  0  0  0  0  0
  1  2  1  0
  3  2  1  0
  4  5  1  0
  4  3  1  0
  5  1  1  0
  5  6  1  1
  6 11  1  0
  7  6  2  0
  8  9  1  0
 10 11  1  0
 10 12  1  0
 10  9  1  1
 12 13  2  0
 12 18  1  0
 15 16  1  6
 15 14  1  0
 17 15  1  0
 17 18  1  6
 19 20  1  0
 19 17  1  0
 21 19  2  0
M  END
$$$$
