PSV.pdb
     RDKit          3D

 21 21  0  0  1  0  0  0  0  0999 V2000
    8.1325  -15.2659   20.0518 N   0  0  0  0  0  0  0  0  0  0  0  0
    7.8919  -14.5891   18.7824 C   0  0  0  0  0  0  0  0  0  0  0  0
    7.4574  -13.1883   19.1096 C   0  0  0  0  0  0  0  0  0  0  0  0
    7.3454  -13.1893   20.6066 C   0  0  0  0  0  0  0  0  0  0  0  0
    8.4253  -14.2079   20.9746 C   0  0  1  0  0  0  0  0  0  0  0  0
    8.2647  -14.5609   22.3868 C   0  0  0  0  0  0  0  0  0  0  0  0
    8.5102  -13.6295   23.2265 O   0  0  0  0  0  0  0  0  0  0  0  0
    7.7403  -18.4084   24.1592 O   0  0  0  0  0  0  0  0  0  0  0  0
    6.8882  -17.3594   24.4116 C   0  0  0  0  0  0  0  0  0  0  0  0
    7.6020  -16.0092   24.2631 C   0  0  2  0  0  0  0  0  0  0  0  0
    7.8645  -15.8397   22.8550 N   0  0  0  0  0  0  0  0  0  0  0  0
    8.8414  -15.9984   25.0747 C   0  0  0  0  0  0  0  0  0  0  0  0
    9.9195  -16.2796   24.4917 O   0  0  0  0  0  0  0  0  0  0  0  0
   10.0029  -13.0747   27.1812 C   0  0  0  0  0  0  0  0  0  0  0  0
   10.0873  -14.2772   28.0637 C   0  0  1  0  0  0  0  0  0  0  0  0
    9.0197  -14.3182   29.1302 C   0  0  0  0  0  0  0  0  0  0  0  0
   10.0942  -15.5166   27.2064 C   0  0  2  0  0  0  0  0  0  0  0  0
    8.8927  -15.6948   26.4533 N   0  0  0  0  0  0  0  0  0  0  0  0
   10.3199  -16.6906   28.0665 C   0  0  0  0  0  0  0  0  0  0  0  0
   11.5166  -16.8345   28.7285 O   0  0  0  0  0  0  0  0  0  0  0  0
    9.4347  -17.5575   28.2009 O   0  0  0  0  0  0  0  0  0  0  0  0
  1  2  1  0
  3  2  1  0
  4  5  1  0
  4  3  1  0
  5  1  1  0
  5  6  1  1
  6 11  1  0
  7  6  2  0
  8  9  1  0
 10 11  1  0
 10 12  1  0
 10  9  1  6
 12 13  2  0
 12 18  1  0
 15 16  1  1
 15 14  1  0
 17 15  1  0
 17 18  1  1
 19 20  1  0
 19 17  1  0
 21 19  2  0
M  END
$$$$
