PSV.pdb
     RDKit          3D

 21 21  0  0  1  0  0  0  0  0999 V2000
    9.0855  -14.7634   19.2190 N   0  0  0  0  0  0  0  0  0  0  0  0
    8.6906  -14.0399   18.0157 C   0  0  0  0  0  0  0  0  0  0  0  0
    7.7081  -12.9859   18.4424 C   0  0  0  0  0  0  0  0  0  0  0  0
    7.4933  -13.2670   19.9011 C   0  0  0  0  0  0  0  0  0  0  0  0
    8.8595  -13.8349   20.2884 C   0  0  1  0  0  0  0  0  0  0  0  0
    8.7477  -14.4413   21.6167 C   0  0  0  0  0  0  0  0  0  0  0  0
    8.4918  -13.6384   22.5773 O   0  0  0  0  0  0  0  0  0  0  0  0
    9.9552  -18.2683   22.9383 O   0  0  0  0  0  0  0  0  0  0  0  0
    8.6585  -17.8498   23.1216 C   0  0  0  0  0  0  0  0  0  0  0  0
    8.5687  -16.3197   23.1968 C   0  0  2  0  0  0  0  0  0  0  0  0
    8.9034  -15.8267   21.8834 N   0  0  0  0  0  0  0  0  0  0  0  0
    9.4846  -15.8085   24.2431 C   0  0  0  0  0  0  0  0  0  0  0  0
   10.6473  -15.4854   23.8895 O   0  0  0  0  0  0  0  0  0  0  0  0
    8.0726  -13.9858   27.6040 C   0  0  0  0  0  0  0  0  0  0  0  0
    9.4969  -13.8159   27.1864 C   0  0  1  0  0  0  0  0  0  0  0  0
   10.3883  -13.2891   28.2850 C   0  0  0  0  0  0  0  0  0  0  0  0
    9.9984  -15.1147   26.6096 C   0  0  2  0  0  0  0  0  0  0  0  0
    9.1406  -15.6605   25.6052 N   0  0  0  0  0  0  0  0  0  0  0  0
   10.1665  -16.0885   27.7017 C   0  0  0  0  0  0  0  0  0  0  0  0
   11.1684  -15.9132   28.6272 O   0  0  0  0  0  0  0  0  0  0  0  0
    9.4077  -17.0726   27.7957 O   0  0  0  0  0  0  0  0  0  0  0  0
  1  2  1  0
  3  2  1  0
  4  5  1  0
  4  3  1  0
  5  1  1  0
  5  6  1  1
  6 11  1  0
  7  6  2  0
  8  9  1  0
 10 11  1  0
 10 12  1  0
 10  9  1  6
 12 13  2  0
 12 18  1  0
 15 16  1  1
 15 14  1  0
 17 15  1  0
 17 18  1  6
 19 20  1  0
 19 17  1  0
 21 19  2  0
M  END
$$$$
