PSV.pdb
     RDKit          3D

 21 21  0  0  1  0  0  0  0  0999 V2000
    8.6301  -15.0102   18.9587 N   0  0  0  0  0  0  0  0  0  0  0  0
    8.6792  -14.4443   17.6154 C   0  0  0  0  0  0  0  0  0  0  0  0
    8.0121  -13.0994   17.6833 C   0  0  0  0  0  0  0  0  0  0  0  0
    7.4856  -13.0321   19.0874 C   0  0  0  0  0  0  0  0  0  0  0  0
    8.5285  -13.8724   19.8258 C   0  0  1  0  0  0  0  0  0  0  0  0
    8.0199  -14.1647   21.1677 C   0  0  0  0  0  0  0  0  0  0  0  0
    7.8288  -13.1531   21.9249 O   0  0  0  0  0  0  0  0  0  0  0  0
    8.0579  -17.6951   23.5916 O   0  0  0  0  0  0  0  0  0  0  0  0
    6.8909  -17.1068   23.1649 C   0  0  0  0  0  0  0  0  0  0  0  0
    7.0756  -15.6019   22.9283 C   0  0  2  0  0  0  0  0  0  0  0  0
    7.7380  -15.4679   21.6541 N   0  0  0  0  0  0  0  0  0  0  0  0
    7.8570  -15.0061   24.0372 C   0  0  0  0  0  0  0  0  0  0  0  0
    9.1053  -14.9428   23.8992 O   0  0  0  0  0  0  0  0  0  0  0  0
    7.3625  -11.5407   25.6857 C   0  0  0  0  0  0  0  0  0  0  0  0
    7.3346  -12.5815   26.7571 C   0  0  1  0  0  0  0  0  0  0  0  0
    5.9493  -12.8649   27.2860 C   0  0  0  0  0  0  0  0  0  0  0  0
    8.0254  -13.8229   26.2547 C   0  0  2  0  0  0  0  0  0  0  0  0
    7.2960  -14.5068   25.2336 N   0  0  0  0  0  0  0  0  0  0  0  0
    8.2604  -14.7310   27.3901 C   0  0  0  0  0  0  0  0  0  0  0  0
    7.7044  -15.9887   27.3874 O   0  0  0  0  0  0  0  0  0  0  0  0
    8.9601  -14.3700   28.3562 O   0  0  0  0  0  0  0  0  0  0  0  0
  1  2  1  0
  3  2  1  0
  4  5  1  0
  4  3  1  0
  5  1  1  0
  5  6  1  1
  6 11  1  0
  7  6  2  0
  8  9  1  0
 10 11  1  0
 10 12  1  0
 10  9  1  1
 12 13  2  0
 12 18  1  0
 15 16  1  6
 15 14  1  0
 17 15  1  0
 17 18  1  6
 19 20  1  0
 19 17  1  0
 21 19  2  0
M  END
$$$$
