PSV.pdb
     RDKit          3D

 21 21  0  0  1  0  0  0  0  0999 V2000
    8.6528  -14.9750   19.0607 N   0  0  0  0  0  0  0  0  0  0  0  0
    8.6223  -14.4062   17.7181 C   0  0  0  0  0  0  0  0  0  0  0  0
    7.8614  -13.1135   17.8085 C   0  0  0  0  0  0  0  0  0  0  0  0
    7.3715  -13.0856   19.2271 C   0  0  0  0  0  0  0  0  0  0  0  0
    8.4934  -13.8482   19.9334 C   0  0  1  0  0  0  0  0  0  0  0  0
    8.0458  -14.1775   21.2883 C   0  0  0  0  0  0  0  0  0  0  0  0
    7.8186  -13.1833   22.0583 O   0  0  0  0  0  0  0  0  0  0  0  0
    8.4804  -17.6267   23.7460 O   0  0  0  0  0  0  0  0  0  0  0  0
    7.2424  -17.1883   23.3391 C   0  0  0  0  0  0  0  0  0  0  0  0
    7.2442  -15.6781   23.0668 C   0  0  2  0  0  0  0  0  0  0  0  0
    7.8579  -15.4979   21.7739 N   0  0  0  0  0  0  0  0  0  0  0  0
    7.9748  -14.9693   24.1432 C   0  0  0  0  0  0  0  0  0  0  0  0
    9.2198  -14.8461   24.0162 O   0  0  0  0  0  0  0  0  0  0  0  0
    7.2338  -11.4587   25.7255 C   0  0  0  0  0  0  0  0  0  0  0  0
    7.2851  -12.4893   26.8060 C   0  0  1  0  0  0  0  0  0  0  0  0
    5.9264  -12.8623   27.3480 C   0  0  0  0  0  0  0  0  0  0  0  0
    8.0560  -13.6849   26.3087 C   0  0  2  0  0  0  0  0  0  0  0  0
    7.3690  -14.4250   25.2975 N   0  0  0  0  0  0  0  0  0  0  0  0
    8.3587  -14.5657   27.4496 C   0  0  0  0  0  0  0  0  0  0  0  0
    7.8801  -15.8547   27.4653 O   0  0  0  0  0  0  0  0  0  0  0  0
    9.0464  -14.1533   28.4037 O   0  0  0  0  0  0  0  0  0  0  0  0
  1  2  1  0
  3  2  1  0
  4  5  1  0
  4  3  1  0
  5  1  1  0
  5  6  1  1
  6 11  1  0
  7  6  2  0
  8  9  1  0
 10 11  1  0
 10 12  1  0
 10  9  1  1
 12 13  2  0
 12 18  1  0
 15 16  1  6
 15 14  1  0
 17 15  1  0
 17 18  1  6
 19 20  1  0
 19 17  1  0
 21 19  2  0
M  END
$$$$
