PSV.pdb
     RDKit          3D

 21 21  0  0  1  0  0  0  0  0999 V2000
    8.6872  -15.0842   18.9473 N   0  0  0  0  0  0  0  0  0  0  0  0
    8.8076  -14.5200   17.6077 C   0  0  0  0  0  0  0  0  0  0  0  0
    8.1749  -13.1576   17.6491 C   0  0  0  0  0  0  0  0  0  0  0  0
    7.5922  -13.0759   19.0301 C   0  0  0  0  0  0  0  0  0  0  0  0
    8.5802  -13.9440   19.8105 C   0  0  1  0  0  0  0  0  0  0  0  0
    8.0083  -14.2222   21.1297 C   0  0  0  0  0  0  0  0  0  0  0  0
    7.8279  -13.2076   21.8853 O   0  0  0  0  0  0  0  0  0  0  0  0
    7.9152  -17.7739   23.4511 O   0  0  0  0  0  0  0  0  0  0  0  0
    6.7518  -17.1317   23.0985 C   0  0  0  0  0  0  0  0  0  0  0  0
    6.9865  -15.6328   22.8685 C   0  0  2  0  0  0  0  0  0  0  0  0
    7.6562  -15.5156   21.5964 N   0  0  0  0  0  0  0  0  0  0  0  0
    7.7843  -15.0675   23.9816 C   0  0  0  0  0  0  0  0  0  0  0  0
    9.0322  -15.0190   23.8353 O   0  0  0  0  0  0  0  0  0  0  0  0
    7.3659  -11.6496   25.6894 C   0  0  0  0  0  0  0  0  0  0  0  0
    7.3457  -12.6939   26.7577 C   0  0  1  0  0  0  0  0  0  0  0  0
    5.9709  -12.9455   27.3284 C   0  0  0  0  0  0  0  0  0  0  0  0
    7.9900  -13.9497   26.2297 C   0  0  2  0  0  0  0  0  0  0  0  0
    7.2390  -14.5815   25.1908 N   0  0  0  0  0  0  0  0  0  0  0  0
    8.1842  -14.8916   27.3451 C   0  0  0  0  0  0  0  0  0  0  0  0
    9.0214  -14.5592   28.3842 O   0  0  0  0  0  0  0  0  0  0  0  0
    7.5958  -15.9901   27.3568 O   0  0  0  0  0  0  0  0  0  0  0  0
  1  2  1  0
  3  2  1  0
  4  5  1  0
  4  3  1  0
  5  1  1  0
  5  6  1  1
  6 11  1  0
  7  6  2  0
  8  9  1  0
 10 11  1  0
 10 12  1  0
 10  9  1  1
 12 13  2  0
 12 18  1  0
 15 16  1  6
 15 14  1  0
 17 15  1  0
 17 18  1  6
 19 20  1  0
 19 17  1  0
 21 19  2  0
M  END
$$$$
