PSV.pdb
     RDKit          3D

 21 21  0  0  1  0  0  0  0  0999 V2000
    8.8922  -14.9827   18.8865 N   0  0  0  0  0  0  0  0  0  0  0  0
    8.9753  -14.3836   17.5593 C   0  0  0  0  0  0  0  0  0  0  0  0
    8.0895  -13.1698   17.5718 C   0  0  0  0  0  0  0  0  0  0  0  0
    7.4263  -13.2250   18.9172 C   0  0  0  0  0  0  0  0  0  0  0  0
    8.5188  -13.8991   19.7485 C   0  0  1  0  0  0  0  0  0  0  0  0
    7.9393  -14.3043   21.0309 C   0  0  0  0  0  0  0  0  0  0  0  0
    7.5398  -13.3554   21.7878 O   0  0  0  0  0  0  0  0  0  0  0  0
    8.4984  -17.9067   23.1978 O   0  0  0  0  0  0  0  0  0  0  0  0
    7.2344  -17.4284   22.9448 C   0  0  0  0  0  0  0  0  0  0  0  0
    7.2375  -15.9046   22.7640 C   0  0  2  0  0  0  0  0  0  0  0  0
    7.8030  -15.6498   21.4619 N   0  0  0  0  0  0  0  0  0  0  0  0
    8.0138  -15.2661   23.8525 C   0  0  0  0  0  0  0  0  0  0  0  0
    9.1854  -14.8935   23.5885 O   0  0  0  0  0  0  0  0  0  0  0  0
    5.9836  -13.4426   26.9753 C   0  0  0  0  0  0  0  0  0  0  0  0
    7.3230  -12.9936   26.4891 C   0  0  1  0  0  0  0  0  0  0  0  0
    8.0347  -12.0717   27.4495 C   0  0  0  0  0  0  0  0  0  0  0  0
    8.1475  -14.2035   26.1325 C   0  0  2  0  0  0  0  0  0  0  0  0
    7.5279  -15.0488   25.1609 N   0  0  0  0  0  0  0  0  0  0  0  0
    8.4206  -14.9730   27.3583 C   0  0  0  0  0  0  0  0  0  0  0  0
    9.2420  -14.4475   28.3280 O   0  0  0  0  0  0  0  0  0  0  0  0
    7.9132  -16.0989   27.5260 O   0  0  0  0  0  0  0  0  0  0  0  0
  1  2  1  0
  3  2  1  0
  4  5  1  0
  4  3  1  0
  5  1  1  0
  5  6  1  1
  6 11  1  0
  7  6  2  0
  8  9  1  0
 10 11  1  0
 10 12  1  0
 10  9  1  1
 12 13  2  0
 12 18  1  0
 15 16  1  1
 15 14  1  0
 17 15  1  0
 17 18  1  6
 19 20  1  0
 19 17  1  0
 21 19  2  0
M  END
$$$$
