GAR.pdb
     RDKit          3D

 21 20  0  0  1  0  0  0  0  0999 V2000
   15.1421  -11.7978  -16.0065 N   0  0  0  0  0  0  0  0  0  0  0  0
   15.1497  -10.4815  -15.4255 C   0  0  0  0  0  0  0  0  0  0  0  0
   16.1446   -9.5758  -16.0713 C   0  0  0  0  0  0  0  0  0  0  0  0
   16.9623  -10.0814  -16.8607 O   0  0  0  0  0  0  0  0  0  0  0  0
   16.8257   -5.8783  -16.3366 C   0  0  0  0  0  0  0  0  0  0  0  0
   17.2112   -7.3472  -16.4411 C   0  0  2  0  0  0  0  0  0  0  0  0
   16.1995   -8.1879  -15.8301 N   0  0  0  0  0  0  0  0  0  0  0  0
   18.5397   -7.5944  -15.8102 C   0  0  0  0  0  0  0  0  0  0  0  0
   18.5951   -7.8261  -14.5593 O   0  0  0  0  0  0  0  0  0  0  0  0
   25.5409  -12.3711  -16.4862 N   0  0  0  0  0  0  0  0  0  0  0  0
   26.1811  -11.1241  -16.2527 C   0  0  0  0  0  0  0  0  0  0  0  0
   27.4463  -11.1386  -15.9134 N   0  0  0  0  0  0  0  0  0  0  0  0
   25.4830   -9.8920  -16.3796 N   0  0  0  0  0  0  0  0  0  0  0  0
   24.0491   -9.9205  -16.6246 C   0  0  0  0  0  0  0  0  0  0  0  0
   23.4003   -8.6200  -16.7554 C   0  0  0  0  0  0  0  0  0  0  0  0
   21.9813   -8.4153  -16.9442 C   0  0  0  0  0  0  0  0  0  0  0  0
   21.0427   -7.9472  -15.9172 C   0  0  2  0  0  0  0  0  0  0  0  0
   19.7478   -7.5878  -16.5170 N   0  0  0  0  0  0  0  0  0  0  0  0
   21.4970   -6.8203  -15.1391 C   0  0  0  0  0  0  0  0  0  0  0  0
   22.2925   -6.8591  -14.2081 O   0  0  0  0  0  0  0  0  0  0  0  0
   20.9991   -5.5307  -15.4505 O   0  0  0  0  0  0  0  0  0  0  0  0
  2  3  1  0
  2  1  1  0
  3  4  2  0
  6  5  1  1
  6  8  1  0
  7  6  1  0
  7  3  1  0
  8  9  2  0
  8 18  1  0
 10 11  1  0
 11 12  2  0
 13 14  1  0
 13 11  1  0
 14 15  1  0
 17 16  1  6
 16 15  1  0
 17 19  1  0
 18 17  1  0
 19 20  2  0
 19 21  1  0
M  END
$$$$
