GAR.pdb
     RDKit          3D

 21 20  0  0  1  0  0  0  0  0999 V2000
   25.4326  -18.6787  -17.5560 N   0  0  0  0  0  0  0  0  0  0  0  0
   26.2493  -17.5307  -17.8478 C   0  0  0  0  0  0  0  0  0  0  0  0
   25.6944  -16.2711  -17.2713 C   0  0  0  0  0  0  0  0  0  0  0  0
   24.4781  -16.2384  -17.0125 O   0  0  0  0  0  0  0  0  0  0  0  0
   26.9506  -12.8585  -16.2305 C   0  0  0  0  0  0  0  0  0  0  0  0
   25.8783  -13.8663  -16.6198 C   0  0  2  0  0  0  0  0  0  0  0  0
   26.4775  -15.1284  -17.0093 N   0  0  0  0  0  0  0  0  0  0  0  0
   25.0254  -13.3361  -17.7223 C   0  0  0  0  0  0  0  0  0  0  0  0
   25.3990  -13.5064  -18.9277 O   0  0  0  0  0  0  0  0  0  0  0  0
   16.2803  -13.4163  -18.6005 N   0  0  0  0  0  0  0  0  0  0  0  0
   16.7450  -12.9205  -19.8487 C   0  0  0  0  0  0  0  0  0  0  0  0
   15.8754  -12.7945  -20.8202 N   0  0  0  0  0  0  0  0  0  0  0  0
   18.1076  -12.5685  -20.0508 N   0  0  0  0  0  0  0  0  0  0  0  0
   19.0561  -12.7871  -18.9693 C   0  0  0  0  0  0  0  0  0  0  0  0
   20.4368  -12.4055  -19.2476 C   0  0  0  0  0  0  0  0  0  0  0  0
   21.5610  -12.6618  -18.3748 C   0  0  0  0  0  0  0  0  0  0  0  0
   22.9385  -12.2088  -18.6026 C   0  0  2  0  0  0  0  0  0  0  0  0
   23.8221  -12.6528  -17.5126 N   0  0  0  0  0  0  0  0  0  0  0  0
   23.0990  -10.7823  -18.7480 C   0  0  0  0  0  0  0  0  0  0  0  0
   22.7096  -10.1040  -19.6910 O   0  0  0  0  0  0  0  0  0  0  0  0
   23.7642  -10.0625  -17.7245 O   0  0  0  0  0  0  0  0  0  0  0  0
  2  3  1  0
  2  1  1  0
  3  4  2  0
  6  5  1  6
  6  8  1  0
  7  6  1  0
  7  3  1  0
  8  9  2  0
  8 18  1  0
 10 11  1  0
 11 12  2  0
 13 14  1  0
 13 11  1  0
 14 15  1  0
 17 16  1  1
 16 15  1  0
 17 19  1  0
 18 17  1  0
 19 20  2  0
 19 21  1  0
M  END
$$$$
