GAR.pdb
     RDKit          3D

 21 20  0  0  1  0  0  0  0  0999 V2000
   27.4360  -20.7840   -9.7264 N   0  0  0  0  0  0  0  0  0  0  0  0
   26.1581  -21.3752  -10.0222 C   0  0  0  0  0  0  0  0  0  0  0  0
   25.6704  -21.0316  -11.3900 C   0  0  0  0  0  0  0  0  0  0  0  0
   25.7485  -19.8441  -11.7522 O   0  0  0  0  0  0  0  0  0  0  0  0
   24.7841  -22.8323  -14.5482 C   0  0  0  0  0  0  0  0  0  0  0  0
   24.7283  -21.6215  -13.6274 C   0  0  2  0  0  0  0  0  0  0  0  0
   25.1308  -21.9814  -12.2813 N   0  0  0  0  0  0  0  0  0  0  0  0
   23.3618  -21.0242  -13.6167 C   0  0  0  0  0  0  0  0  0  0  0  0
   22.5306  -21.4012  -12.7287 O   0  0  0  0  0  0  0  0  0  0  0  0
   19.5124  -14.4887  -18.4341 N   0  0  0  0  0  0  0  0  0  0  0  0
   18.6294  -14.6935  -17.3396 C   0  0  0  0  0  0  0  0  0  0  0  0
   17.5300  -13.9825  -17.2978 N   0  0  0  0  0  0  0  0  0  0  0  0
   18.9172  -15.6367  -16.3154 N   0  0  0  0  0  0  0  0  0  0  0  0
   20.1897  -16.3415  -16.3486 C   0  0  0  0  0  0  0  0  0  0  0  0
   20.4287  -17.2745  -15.2524 C   0  0  0  0  0  0  0  0  0  0  0  0
   21.5756  -18.1481  -15.1408 C   0  0  0  0  0  0  0  0  0  0  0  0
   21.5753  -19.4827  -14.5296 C   0  0  2  0  0  0  0  0  0  0  0  0
   22.9288  -20.0606  -14.5349 N   0  0  0  0  0  0  0  0  0  0  0  0
   20.6847  -20.4379  -15.1427 C   0  0  0  0  0  0  0  0  0  0  0  0
   20.9784  -21.2374  -16.0234 O   0  0  0  0  0  0  0  0  0  0  0  0
   19.3354  -20.4867  -14.7127 O   0  0  0  0  0  0  0  0  0  0  0  0
  2  3  1  0
  2  1  1  0
  3  4  2  0
  6  5  1  6
  6  8  1  0
  7  6  1  0
  7  3  1  0
  8  9  2  0
  8 18  1  0
 10 11  1  0
 11 12  2  0
 13 14  1  0
 13 11  1  0
 14 15  1  0
 17 16  1  6
 16 15  1  0
 17 19  1  0
 18 17  1  0
 19 20  2  0
 19 21  1  0
M  END
$$$$
