GAR.pdb
     RDKit          3D

 21 20  0  0  1  0  0  0  0  0999 V2000
   24.0389   -3.6309  -21.6432 N   0  0  0  0  0  0  0  0  0  0  0  0
   22.9679   -3.6113  -20.6825 C   0  0  0  0  0  0  0  0  0  0  0  0
   23.2301   -4.5015  -19.5138 C   0  0  0  0  0  0  0  0  0  0  0  0
   22.7091   -5.6311  -19.5170 O   0  0  0  0  0  0  0  0  0  0  0  0
   25.3385   -4.4613  -16.3770 C   0  0  0  0  0  0  0  0  0  0  0  0
   24.2608   -5.0169  -17.2972 C   0  0  2  0  0  0  0  0  0  0  0  0
   24.0328   -4.1248  -18.4177 N   0  0  0  0  0  0  0  0  0  0  0  0
   22.9901   -5.2454  -16.5506 C   0  0  0  0  0  0  0  0  0  0  0  0
   22.1375   -4.3022  -16.4808 O   0  0  0  0  0  0  0  0  0  0  0  0
   18.3292  -12.8514  -14.9289 N   0  0  0  0  0  0  0  0  0  0  0  0
   17.4694  -11.7254  -15.0410 C   0  0  0  0  0  0  0  0  0  0  0  0
   16.2136  -11.9411  -15.3450 N   0  0  0  0  0  0  0  0  0  0  0  0
   17.9434  -10.4013  -14.8324 N   0  0  0  0  0  0  0  0  0  0  0  0
   19.2481  -10.0323  -15.3604 C   0  0  0  0  0  0  0  0  0  0  0  0
   19.6775   -8.6632  -15.0948 C   0  0  0  0  0  0  0  0  0  0  0  0
   20.9277   -8.0850  -15.5351 C   0  0  0  0  0  0  0  0  0  0  0  0
   21.3716   -6.7107  -15.2723 C   0  0  2  0  0  0  0  0  0  0  0  0
   22.6708   -6.4494  -15.9122 N   0  0  0  0  0  0  0  0  0  0  0  0
   21.4875   -6.3597  -13.8777 C   0  0  0  0  0  0  0  0  0  0  0  0
   22.5315   -6.2342  -13.2489 O   0  0  0  0  0  0  0  0  0  0  0  0
   20.3052   -6.1305  -13.1310 O   0  0  0  0  0  0  0  0  0  0  0  0
  2  3  1  0
  2  1  1  0
  3  4  2  0
  6  5  1  1
  6  8  1  0
  7  6  1  0
  7  3  1  0
  8  9  2  0
  8 18  1  0
 10 11  1  0
 11 12  2  0
 13 14  1  0
 13 11  1  0
 14 15  1  0
 17 16  1  1
 16 15  1  0
 17 19  1  0
 18 17  1  0
 19 20  2  0
 19 21  1  0
M  END
$$$$
