GAR.pdb
     RDKit          3D

 21 20  0  0  1  0  0  0  0  0999 V2000
   28.5467  -19.8504  -15.0807 N   0  0  0  0  0  0  0  0  0  0  0  0
   27.8504  -19.3471  -13.9266 C   0  0  0  0  0  0  0  0  0  0  0  0
   26.9810  -20.3777  -13.2872 C   0  0  0  0  0  0  0  0  0  0  0  0
   26.6289  -21.3497  -13.9791 O   0  0  0  0  0  0  0  0  0  0  0  0
   25.5486  -21.1739   -9.8923 C   0  0  0  0  0  0  0  0  0  0  0  0
   25.5596  -21.2212  -11.4138 C   0  0  2  0  0  0  0  0  0  0  0  0
   26.5448  -20.3011  -11.9487 N   0  0  0  0  0  0  0  0  0  0  0  0
   24.2090  -20.9114  -11.9651 C   0  0  0  0  0  0  0  0  0  0  0  0
   23.8629  -19.6937  -12.1020 O   0  0  0  0  0  0  0  0  0  0  0  0
   18.9421  -22.5028  -18.3062 N   0  0  0  0  0  0  0  0  0  0  0  0
   17.9708  -22.4506  -17.2701 C   0  0  0  0  0  0  0  0  0  0  0  0
   16.7173  -22.2865  -17.6129 N   0  0  0  0  0  0  0  0  0  0  0  0
   18.3338  -22.5711  -15.9007 N   0  0  0  0  0  0  0  0  0  0  0  0
   19.7453  -22.6233  -15.5513 C   0  0  0  0  0  0  0  0  0  0  0  0
   20.0434  -22.8040  -14.1343 C   0  0  0  0  0  0  0  0  0  0  0  0
   21.3645  -22.7426  -13.5495 C   0  0  0  0  0  0  0  0  0  0  0  0
   21.9393  -21.5809  -12.8604 C   0  0  2  0  0  0  0  0  0  0  0  0
   23.2837  -21.8896  -12.3474 N   0  0  0  0  0  0  0  0  0  0  0  0
   21.1549  -21.0687  -11.7632 C   0  0  0  0  0  0  0  0  0  0  0  0
   21.2281  -21.4267  -10.5938 O   0  0  0  0  0  0  0  0  0  0  0  0
   20.1992  -20.0550  -12.0223 O   0  0  0  0  0  0  0  0  0  0  0  0
  2  3  1  0
  2  1  1  0
  3  4  2  0
  6  5  1  1
  6  8  1  0
  7  6  1  0
  7  3  1  0
  8  9  2  0
  8 18  1  0
 10 11  1  0
 11 12  2  0
 13 14  1  0
 13 11  1  0
 14 15  1  0
 17 16  1  1
 16 15  1  0
 17 19  1  0
 18 17  1  0
 19 20  2  0
 19 21  1  0
M  END
$$$$
