GAR.pdb
     RDKit          3D

 21 20  0  0  1  0  0  0  0  0999 V2000
   28.0351  -18.0982  -19.1009 N   0  0  0  0  0  0  0  0  0  0  0  0
   27.3877  -16.8206  -18.9639 C   0  0  0  0  0  0  0  0  0  0  0  0
   26.5249  -16.7427  -17.7488 C   0  0  0  0  0  0  0  0  0  0  0  0
   26.4280  -17.7605  -17.0402 O   0  0  0  0  0  0  0  0  0  0  0  0
   24.7544  -14.0497  -15.7899 C   0  0  0  0  0  0  0  0  0  0  0  0
   25.1133  -15.4943  -16.1086 C   0  0  2  0  0  0  0  0  0  0  0  0
   25.8219  -15.5804  -17.3711 N   0  0  0  0  0  0  0  0  0  0  0  0
   23.8928  -16.3507  -16.1406 C   0  0  0  0  0  0  0  0  0  0  0  0
   23.2368  -16.4496  -17.2274 O   0  0  0  0  0  0  0  0  0  0  0  0
   26.1592  -21.8585  -12.3524 N   0  0  0  0  0  0  0  0  0  0  0  0
   25.1422  -22.4718  -13.1329 C   0  0  0  0  0  0  0  0  0  0  0  0
   25.4362  -23.5855  -13.7567 N   0  0  0  0  0  0  0  0  0  0  0  0
   23.8425  -21.9058  -13.2422 N   0  0  0  0  0  0  0  0  0  0  0  0
   23.7160  -20.4643  -13.3937 C   0  0  0  0  0  0  0  0  0  0  0  0
   22.3539  -19.9547  -13.5147 C   0  0  0  0  0  0  0  0  0  0  0  0
   22.0034  -18.5774  -13.7818 C   0  0  0  0  0  0  0  0  0  0  0  0
   22.1926  -17.8815  -15.0603 C   0  0  2  0  0  0  0  0  0  0  0  0
   23.4158  -17.0636  -15.0345 N   0  0  0  0  0  0  0  0  0  0  0  0
   21.0999  -17.0293  -15.4623 C   0  0  0  0  0  0  0  0  0  0  0  0
   20.9926  -15.8321  -15.2252 O   0  0  0  0  0  0  0  0  0  0  0  0
   20.0313  -17.5933  -16.2026 O   0  0  0  0  0  0  0  0  0  0  0  0
  2  3  1  0
  2  1  1  0
  3  4  2  0
  6  5  1  6
  6  8  1  0
  7  6  1  0
  7  3  1  0
  8  9  2  0
  8 18  1  0
 10 11  1  0
 11 12  2  0
 13 14  1  0
 13 11  1  0
 14 15  1  0
 17 16  1  1
 16 15  1  0
 17 19  1  0
 18 17  1  0
 19 20  2  0
 19 21  1  0
M  END
$$$$
