GAR.pdb
     RDKit          3D

 21 20  0  0  1  0  0  0  0  0999 V2000
   31.4208  -17.5961  -19.4265 N   0  0  0  0  0  0  0  0  0  0  0  0
   31.6299  -16.2307  -19.8293 C   0  0  0  0  0  0  0  0  0  0  0  0
   30.8560  -15.2630  -18.9978 C   0  0  0  0  0  0  0  0  0  0  0  0
   30.0261  -15.7234  -18.1936 O   0  0  0  0  0  0  0  0  0  0  0  0
   30.7778  -11.5411  -18.3585 C   0  0  0  0  0  0  0  0  0  0  0  0
   30.2158  -12.9541  -18.2902 C   0  0  2  0  0  0  0  0  0  0  0  0
   31.0207  -13.8653  -19.0811 N   0  0  0  0  0  0  0  0  0  0  0  0
   28.7972  -12.9849  -18.7493 C   0  0  0  0  0  0  0  0  0  0  0  0
   28.5534  -13.1338  -19.9902 O   0  0  0  0  0  0  0  0  0  0  0  0
   21.6833  -16.7277  -15.1986 N   0  0  0  0  0  0  0  0  0  0  0  0
   21.1288  -15.9795  -16.2721 C   0  0  0  0  0  0  0  0  0  0  0  0
   19.8665  -16.1712  -16.5651 N   0  0  0  0  0  0  0  0  0  0  0  0
   21.9076  -15.0491  -17.0133 N   0  0  0  0  0  0  0  0  0  0  0  0
   23.3053  -14.8619  -16.6549 C   0  0  0  0  0  0  0  0  0  0  0  0
   24.0818  -14.0079  -17.5477 C   0  0  0  0  0  0  0  0  0  0  0  0
   25.4930  -13.7254  -17.4070 C   0  0  0  0  0  0  0  0  0  0  0  0
   26.3011  -12.9307  -18.3398 C   0  0  2  0  0  0  0  0  0  0  0  0
   27.7003  -12.8585  -17.8891 N   0  0  0  0  0  0  0  0  0  0  0  0
   25.8372  -11.5820  -18.5579 C   0  0  0  0  0  0  0  0  0  0  0  0
   26.2861  -10.5701  -18.0331 O   0  0  0  0  0  0  0  0  0  0  0  0
   24.7631  -11.3667  -19.4567 O   0  0  0  0  0  0  0  0  0  0  0  0
  2  3  1  0
  2  1  1  0
  3  4  2  0
  6  5  1  6
  6  8  1  0
  7  6  1  0
  7  3  1  0
  8  9  2  0
  8 18  1  0
 10 11  1  0
 11 12  2  0
 13 14  1  0
 13 11  1  0
 14 15  1  0
 17 16  1  1
 16 15  1  0
 17 19  1  0
 18 17  1  0
 19 20  2  0
 19 21  1  0
M  END
$$$$
