GAR.pdb
     RDKit          3D

 21 20  0  0  1  0  0  0  0  0999 V2000
   29.0291  -23.2044  -16.1208 N   0  0  0  0  0  0  0  0  0  0  0  0
   28.6183  -22.0627  -16.8942 C   0  0  0  0  0  0  0  0  0  0  0  0
   27.5792  -21.2453  -16.2019 C   0  0  0  0  0  0  0  0  0  0  0  0
   27.0340  -21.7322  -15.1953 O   0  0  0  0  0  0  0  0  0  0  0  0
   26.2841  -17.7072  -16.3403 C   0  0  0  0  0  0  0  0  0  0  0  0
   26.2446  -19.1580  -15.8810 C   0  0  2  0  0  0  0  0  0  0  0  0
   27.1913  -19.9600  -16.6320 N   0  0  0  0  0  0  0  0  0  0  0  0
   24.8698  -19.7205  -16.0137 C   0  0  0  0  0  0  0  0  0  0  0  0
   24.5378  -20.2874  -17.1045 O   0  0  0  0  0  0  0  0  0  0  0  0
   19.7079  -23.3593  -10.1251 N   0  0  0  0  0  0  0  0  0  0  0  0
   18.7738  -23.1924  -11.1829 C   0  0  0  0  0  0  0  0  0  0  0  0
   17.7478  -24.0056  -11.2285 N   0  0  0  0  0  0  0  0  0  0  0  0
   18.9349  -22.1793  -12.1674 N   0  0  0  0  0  0  0  0  0  0  0  0
   20.1797  -21.4268  -12.2020 C   0  0  0  0  0  0  0  0  0  0  0  0
   20.7569  -21.2128  -13.5250 C   0  0  0  0  0  0  0  0  0  0  0  0
   21.9794  -20.4873  -13.7901 C   0  0  0  0  0  0  0  0  0  0  0  0
   22.5670  -20.2614  -15.1161 C   0  0  2  0  0  0  0  0  0  0  0  0
   23.9068  -19.6637  -14.9995 N   0  0  0  0  0  0  0  0  0  0  0  0
   21.7870  -19.4282  -15.9987 C   0  0  0  0  0  0  0  0  0  0  0  0
   21.8634  -18.2093  -16.0963 O   0  0  0  0  0  0  0  0  0  0  0  0
   20.8323  -20.0401  -16.8485 O   0  0  0  0  0  0  0  0  0  0  0  0
  2  3  1  0
  2  1  1  0
  3  4  2  0
  6  5  1  6
  6  8  1  0
  7  6  1  0
  7  3  1  0
  8  9  2  0
  8 18  1  0
 10 11  1  0
 11 12  2  0
 13 14  1  0
 13 11  1  0
 14 15  1  0
 17 16  1  1
 16 15  1  0
 17 19  1  0
 18 17  1  0
 19 20  2  0
 19 21  1  0
M  END
$$$$
