GAR.pdb
     RDKit          3D

 21 20  0  0  1  0  0  0  0  0999 V2000
   12.1559  -10.6674   -9.1791 N   0  0  0  0  0  0  0  0  0  0  0  0
   13.5264  -10.3568   -8.8705 C   0  0  0  0  0  0  0  0  0  0  0  0
   13.8715   -8.9346   -9.1626 C   0  0  0  0  0  0  0  0  0  0  0  0
   13.1483   -8.3151   -9.9631 O   0  0  0  0  0  0  0  0  0  0  0  0
   15.8931   -6.1763   -7.7117 C   0  0  0  0  0  0  0  0  0  0  0  0
   15.2896   -6.8933   -8.9112 C   0  0  2  0  0  0  0  0  0  0  0  0
   14.9681   -8.2679   -8.5790 N   0  0  0  0  0  0  0  0  0  0  0  0
   16.2150   -6.8460  -10.0798 C   0  0  0  0  0  0  0  0  0  0  0  0
   17.3240   -7.4683  -10.0141 O   0  0  0  0  0  0  0  0  0  0  0  0
   19.6956  -10.4552  -14.9548 N   0  0  0  0  0  0  0  0  0  0  0  0
   18.3486  -10.9065  -14.9928 C   0  0  0  0  0  0  0  0  0  0  0  0
   18.1359  -12.1987  -15.0253 N   0  0  0  0  0  0  0  0  0  0  0  0
   17.2566   -9.9959  -14.9960 N   0  0  0  0  0  0  0  0  0  0  0  0
   17.3699   -8.7626  -14.2324 C   0  0  0  0  0  0  0  0  0  0  0  0
   16.1803   -7.9178  -14.2088 C   0  0  0  0  0  0  0  0  0  0  0  0
   16.1147   -6.5922  -13.6346 C   0  0  0  0  0  0  0  0  0  0  0  0
   16.8295   -6.1469  -12.4324 C   0  0  2  0  0  0  0  0  0  0  0  0
   15.9371   -6.1502  -11.2621 N   0  0  0  0  0  0  0  0  0  0  0  0
   17.4308   -4.8386  -12.5256 C   0  0  0  0  0  0  0  0  0  0  0  0
   16.9088   -3.7790  -12.2003 O   0  0  0  0  0  0  0  0  0  0  0  0
   18.7480   -4.7277  -13.0361 O   0  0  0  0  0  0  0  0  0  0  0  0
  2  3  1  0
  2  1  1  0
  3  4  2  0
  6  5  1  1
  6  8  1  0
  7  6  1  0
  7  3  1  0
  8  9  2  0
  8 18  1  0
 10 11  1  0
 11 12  2  0
 13 14  1  0
 13 11  1  0
 14 15  1  0
 17 16  1  6
 16 15  1  0
 17 19  1  0
 18 17  1  0
 19 20  2  0
 19 21  1  0
M  END
$$$$
