GAR.pdb
     RDKit          3D

 21 20  0  0  1  0  0  0  0  0999 V2000
   20.2800  -21.7612   -8.5956 N   0  0  0  0  0  0  0  0  0  0  0  0
   21.0160  -20.6424   -9.1219 C   0  0  0  0  0  0  0  0  0  0  0  0
   20.5631  -20.2504  -10.4887 C   0  0  0  0  0  0  0  0  0  0  0  0
   20.3475  -21.1587  -11.3109 O   0  0  0  0  0  0  0  0  0  0  0  0
   19.4196  -17.1131  -12.2445 C   0  0  0  0  0  0  0  0  0  0  0  0
   19.8473  -18.5732  -12.1963 C   0  0  2  0  0  0  0  0  0  0  0  0
   20.3704  -18.9117  -10.8866 N   0  0  0  0  0  0  0  0  0  0  0  0
   20.8615  -18.8652  -13.2500 C   0  0  0  0  0  0  0  0  0  0  0  0
   22.0811  -18.5725  -13.0305 O   0  0  0  0  0  0  0  0  0  0  0  0
   25.0316  -23.1758  -14.4945 N   0  0  0  0  0  0  0  0  0  0  0  0
   24.6739  -24.2714  -15.3260 C   0  0  0  0  0  0  0  0  0  0  0  0
   25.2055  -25.4394  -15.0632 N   0  0  0  0  0  0  0  0  0  0  0  0
   23.7689  -24.1192  -16.4120 N   0  0  0  0  0  0  0  0  0  0  0  0
   23.3866  -22.7770  -16.8234 C   0  0  0  0  0  0  0  0  0  0  0  0
   23.2042  -21.8095  -15.7463 C   0  0  0  0  0  0  0  0  0  0  0  0
   21.9374  -21.2333  -15.3536 C   0  0  0  0  0  0  0  0  0  0  0  0
   21.5660  -19.8193  -15.4849 C   0  0  2  0  0  0  0  0  0  0  0  0
   20.5526  -19.4497  -14.4838 N   0  0  0  0  0  0  0  0  0  0  0  0
   21.0660  -19.4343  -16.7824 C   0  0  0  0  0  0  0  0  0  0  0  0
   21.7270  -18.9652  -17.7010 O   0  0  0  0  0  0  0  0  0  0  0  0
   19.6860  -19.5994  -17.0585 O   0  0  0  0  0  0  0  0  0  0  0  0
  2  3  1  0
  2  1  1  0
  3  4  2  0
  6  5  1  1
  6  8  1  0
  7  6  1  0
  7  3  1  0
  8  9  2  0
  8 18  1  0
 10 11  1  0
 11 12  2  0
 13 14  1  0
 13 11  1  0
 14 15  1  0
 17 16  1  6
 16 15  1  0
 17 19  1  0
 18 17  1  0
 19 20  2  0
 19 21  1  0
M  END
$$$$
