GAR.pdb
     RDKit          3D

 21 20  0  0  1  0  0  0  0  0999 V2000
   13.8190  -10.9495  -10.6073 N   0  0  0  0  0  0  0  0  0  0  0  0
   14.7376  -10.3284   -9.6904 C   0  0  0  0  0  0  0  0  0  0  0  0
   15.2851   -9.0416  -10.2114 C   0  0  0  0  0  0  0  0  0  0  0  0
   15.1980   -8.8269  -11.4336 O   0  0  0  0  0  0  0  0  0  0  0  0
   16.5566   -5.7779   -8.8490 C   0  0  0  0  0  0  0  0  0  0  0  0
   16.4241   -6.8352   -9.9361 C   0  0  2  0  0  0  0  0  0  0  0  0
   15.8902   -8.0683   -9.3903 N   0  0  0  0  0  0  0  0  0  0  0  0
   17.7378   -7.0872  -10.5956 C   0  0  0  0  0  0  0  0  0  0  0  0
   18.6739   -7.6252   -9.9206 O   0  0  0  0  0  0  0  0  0  0  0  0
   21.9228  -11.6104  -16.2028 N   0  0  0  0  0  0  0  0  0  0  0  0
   22.0171  -10.4034  -16.9468 C   0  0  0  0  0  0  0  0  0  0  0  0
   22.5206  -10.4656  -18.1546 N   0  0  0  0  0  0  0  0  0  0  0  0
   21.5827   -9.1605  -16.4101 N   0  0  0  0  0  0  0  0  0  0  0  0
   20.5450   -9.1614  -15.3903 C   0  0  0  0  0  0  0  0  0  0  0  0
   20.1393   -7.8502  -14.8946 C   0  0  0  0  0  0  0  0  0  0  0  0
   19.1021   -7.6178  -13.9142 C   0  0  0  0  0  0  0  0  0  0  0  0
   19.3021   -7.0319  -12.5832 C   0  0  2  0  0  0  0  0  0  0  0  0
   18.0107   -6.7647  -11.9300 N   0  0  0  0  0  0  0  0  0  0  0  0
   20.0700   -5.8106  -12.5598 C   0  0  0  0  0  0  0  0  0  0  0  0
   21.2914   -5.7260  -12.5170 O   0  0  0  0  0  0  0  0  0  0  0  0
   19.3827   -4.5716  -12.5880 O   0  0  0  0  0  0  0  0  0  0  0  0
  2  3  1  0
  2  1  1  0
  3  4  2  0
  6  5  1  1
  6  8  1  0
  7  6  1  0
  7  3  1  0
  8  9  2  0
  8 18  1  0
 10 11  1  0
 11 12  2  0
 13 14  1  0
 13 11  1  0
 14 15  1  0
 17 16  1  6
 16 15  1  0
 17 19  1  0
 18 17  1  0
 19 20  2  0
 19 21  1  0
M  END
$$$$
