GAR.pdb
     RDKit          3D

 21 20  0  0  1  0  0  0  0  0999 V2000
   26.8119  -18.8518  -19.9495 N   0  0  0  0  0  0  0  0  0  0  0  0
   25.4851  -19.4082  -19.9422 C   0  0  0  0  0  0  0  0  0  0  0  0
   24.6636  -18.9161  -18.7976 C   0  0  0  0  0  0  0  0  0  0  0  0
   25.1968  -18.8802  -17.6743 O   0  0  0  0  0  0  0  0  0  0  0  0
   21.2570  -17.3837  -18.2417 C   0  0  0  0  0  0  0  0  0  0  0  0
   22.5500  -18.0468  -17.7884 C   0  0  2  0  0  0  0  0  0  0  0  0
   23.3248  -18.4943  -18.9298 N   0  0  0  0  0  0  0  0  0  0  0  0
   22.2687  -19.1904  -16.8733 C   0  0  0  0  0  0  0  0  0  0  0  0
   22.0822  -20.3474  -17.3711 O   0  0  0  0  0  0  0  0  0  0  0  0
   25.1772  -20.9824   -8.4210 N   0  0  0  0  0  0  0  0  0  0  0  0
   23.8233  -21.3828   -8.5830 C   0  0  0  0  0  0  0  0  0  0  0  0
   23.0963  -21.5365   -7.5042 N   0  0  0  0  0  0  0  0  0  0  0  0
   23.2623  -21.6129   -9.8691 N   0  0  0  0  0  0  0  0  0  0  0  0
   23.3929  -20.5805  -10.8860 C   0  0  0  0  0  0  0  0  0  0  0  0
   22.7790  -20.8774  -12.1761 C   0  0  0  0  0  0  0  0  0  0  0  0
   22.7644  -19.9847  -13.3136 C   0  0  0  0  0  0  0  0  0  0  0  0
   22.0461  -20.2183  -14.5723 C   0  0  2  0  0  0  0  0  0  0  0  0
   22.1957  -19.0702  -15.4807 N   0  0  0  0  0  0  0  0  0  0  0  0
   20.6360  -20.4899  -14.4324 C   0  0  0  0  0  0  0  0  0  0  0  0
   20.1350  -21.5619  -14.1147 O   0  0  0  0  0  0  0  0  0  0  0  0
   19.7118  -19.4439  -14.6769 O   0  0  0  0  0  0  0  0  0  0  0  0
  2  3  1  0
  2  1  1  0
  3  4  2  0
  6  5  1  6
  6  8  1  0
  7  6  1  0
  7  3  1  0
  8  9  2  0
  8 18  1  0
 10 11  1  0
 11 12  2  0
 13 14  1  0
 13 11  1  0
 14 15  1  0
 17 16  1  1
 16 15  1  0
 17 19  1  0
 18 17  1  0
 19 20  2  0
 19 21  1  0
M  END
$$$$
