GAR.pdb
     RDKit          3D

 21 20  0  0  1  0  0  0  0  0999 V2000
   17.5388  -16.0936  -15.5780 N   0  0  0  0  0  0  0  0  0  0  0  0
   17.6578  -14.9313  -16.4177 C   0  0  0  0  0  0  0  0  0  0  0  0
   17.9417  -13.6894  -15.6406 C   0  0  0  0  0  0  0  0  0  0  0  0
   17.7119  -13.7051  -14.4181 O   0  0  0  0  0  0  0  0  0  0  0  0
   19.5387  -10.3198  -16.1917 C   0  0  0  0  0  0  0  0  0  0  0  0
   18.6382  -11.2978  -15.4502 C   0  0  2  0  0  0  0  0  0  0  0  0
   18.4531  -12.5115  -16.2224 N   0  0  0  0  0  0  0  0  0  0  0  0
   17.3188  -10.6754  -15.1401 C   0  0  0  0  0  0  0  0  0  0  0  0
   16.3799  -10.7610  -15.9960 O   0  0  0  0  0  0  0  0  0  0  0  0
   12.5756  -10.2520   -7.7201 N   0  0  0  0  0  0  0  0  0  0  0  0
   11.7908   -9.5483   -8.6732 C   0  0  0  0  0  0  0  0  0  0  0  0
   10.5546   -9.2559   -8.3532 N   0  0  0  0  0  0  0  0  0  0  0  0
   12.3174   -9.1673   -9.9378 N   0  0  0  0  0  0  0  0  0  0  0  0
   13.5441   -9.7953  -10.4045 C   0  0  0  0  0  0  0  0  0  0  0  0
   14.0211   -9.3634  -11.7142 C   0  0  0  0  0  0  0  0  0  0  0  0
   15.2419   -9.8156  -12.3437 C   0  0  0  0  0  0  0  0  0  0  0  0
   15.7430   -9.3723  -13.6503 C   0  0  2  0  0  0  0  0  0  0  0  0
   17.0435   -9.9928  -13.9496 N   0  0  0  0  0  0  0  0  0  0  0  0
   15.8901   -7.9448  -13.7986 C   0  0  0  0  0  0  0  0  0  0  0  0
   16.9146   -7.3005  -13.6079 O   0  0  0  0  0  0  0  0  0  0  0  0
   14.7665   -7.1810  -14.2016 O   0  0  0  0  0  0  0  0  0  0  0  0
  2  3  1  0
  2  1  1  0
  3  4  2  0
  6  5  1  6
  6  8  1  0
  7  6  1  0
  7  3  1  0
  8  9  2  0
  8 18  1  0
 10 11  1  0
 11 12  2  0
 13 14  1  0
 13 11  1  0
 14 15  1  0
 17 16  1  1
 16 15  1  0
 17 19  1  0
 18 17  1  0
 19 20  2  0
 19 21  1  0
M  END
$$$$
