AAL.pdb
     RDKit          3D

 19 18  0  0  1  0  0  0  0  0999 V2000
    8.8257  -12.2061   19.5060 C   0  0  0  0  0  0  0  0  0  0  0  0
    8.5319  -13.6499   19.1398 C   0  0  2  0  0  0  0  0  0  0  0  0
    7.4740  -13.6722   18.1488 N   0  0  0  0  0  0  0  0  0  0  0  0
    8.1194  -14.3300   20.3979 C   0  0  0  0  0  0  0  0  0  0  0  0
    6.9399  -14.1803   20.8144 O   0  0  0  0  0  0  0  0  0  0  0  0
    9.1433  -17.3446   22.0775 C   0  0  0  0  0  0  0  0  0  0  0  0
    8.5035  -15.9692   22.2811 C   0  0  2  0  0  0  0  0  0  0  0  0
    8.9688  -15.1451   21.1721 N   0  0  0  0  0  0  0  0  0  0  0  0
    8.9006  -15.4017   23.5852 C   0  0  0  0  0  0  0  0  0  0  0  0
   10.0344  -14.8998   23.6973 O   0  0  0  0  0  0  0  0  0  0  0  0
    7.9492  -11.9007   25.9967 C   0  0  0  0  0  0  0  0  0  0  0  0
    6.8273  -12.9352   25.8682 C   0  0  2  0  0  0  0  0  0  0  0  0
    5.5557  -12.3835   26.4675 C   0  0  0  0  0  0  0  0  0  0  0  0
    7.1946  -14.2042   26.5527 C   0  0  0  0  0  0  0  0  0  0  0  0
    8.3918  -14.8424   25.9292 C   0  0  2  0  0  0  0  0  0  0  0  0
    7.9736  -15.4529   24.6536 N   0  0  0  0  0  0  0  0  0  0  0  0
    8.9737  -15.9128   26.7591 C   0  0  0  0  0  0  0  0  0  0  0  0
    9.7038  -15.6126   27.7596 O   0  0  0  0  0  0  0  0  0  0  0  0
    8.7496  -17.2397   26.4870 O   0  0  0  0  0  0  0  0  0  0  0  0
  2  1  1  1
  2  3  1  0
  4  2  1  0
  5  4  2  0
  7  9  1  0
  7  6  1  6
  7  8  1  0
  8  4  1  0
  9 16  1  0
 10  9  2  0
 12 11  1  1
 13 12  1  0
 14 12  1  0
 15 14  1  1
 16 15  1  0
 17 19  1  0
 17 15  1  0
 18 17  2  0
M  END
$$$$
