AAL.pdb
     RDKit          3D

 19 18  0  0  1  0  0  0  0  0999 V2000
    8.6906  -12.1300   19.4583 C   0  0  0  0  0  0  0  0  0  0  0  0
    8.6942  -13.5831   19.0188 C   0  0  2  0  0  0  0  0  0  0  0  0
    7.7779  -13.7345   17.9057 N   0  0  0  0  0  0  0  0  0  0  0  0
    8.2622  -14.3828   20.1976 C   0  0  0  0  0  0  0  0  0  0  0  0
    7.0312  -14.5673   20.3921 O   0  0  0  0  0  0  0  0  0  0  0  0
    9.4859  -17.1744   21.9475 C   0  0  0  0  0  0  0  0  0  0  0  0
    8.7227  -15.8695   22.1872 C   0  0  2  0  0  0  0  0  0  0  0  0
    9.1471  -14.9597   21.1300 N   0  0  0  0  0  0  0  0  0  0  0  0
    9.0298  -15.3290   23.5265 C   0  0  0  0  0  0  0  0  0  0  0  0
   10.1644  -14.8608   23.7354 O   0  0  0  0  0  0  0  0  0  0  0  0
    7.9687  -11.9432   26.0871 C   0  0  0  0  0  0  0  0  0  0  0  0
    6.8219  -12.9353   25.8722 C   0  0  2  0  0  0  0  0  0  0  0  0
    5.5584  -12.3957   26.4989 C   0  0  0  0  0  0  0  0  0  0  0  0
    7.1488  -14.2606   26.4644 C   0  0  0  0  0  0  0  0  0  0  0  0
    8.3756  -14.8523   25.8526 C   0  0  2  0  0  0  0  0  0  0  0  0
    8.0195  -15.3663   24.5171 N   0  0  0  0  0  0  0  0  0  0  0  0
    8.9202  -15.9818   26.6277 C   0  0  0  0  0  0  0  0  0  0  0  0
    9.5160  -15.7629   27.7328 O   0  0  0  0  0  0  0  0  0  0  0  0
    8.8026  -17.2788   26.1932 O   0  0  0  0  0  0  0  0  0  0  0  0
  2  1  1  1
  2  3  1  0
  4  2  1  0
  5  4  2  0
  7  9  1  0
  7  6  1  6
  7  8  1  0
  8  4  1  0
  9 16  1  0
 10  9  2  0
 12 11  1  1
 13 12  1  0
 14 12  1  0
 15 14  1  1
 16 15  1  0
 17 19  1  0
 17 15  1  0
 18 17  2  0
M  END
$$$$
