AAL.pdb
     RDKit          3D

 19 18  0  0  1  0  0  0  0  0999 V2000
    5.4738  -18.4531   23.4991 C   0  0  0  0  0  0  0  0  0  0  0  0
    6.1584  -18.6506   22.1585 C   0  0  2  0  0  0  0  0  0  0  0  0
    6.4414  -20.0617   21.9844 N   0  0  0  0  0  0  0  0  0  0  0  0
    7.4071  -17.8415   22.1978 C   0  0  0  0  0  0  0  0  0  0  0  0
    8.3959  -18.2759   22.8463 O   0  0  0  0  0  0  0  0  0  0  0  0
    8.6715  -14.7753   20.4839 C   0  0  0  0  0  0  0  0  0  0  0  0
    8.7981  -15.8211   21.5943 C   0  0  2  0  0  0  0  0  0  0  0  0
    7.5668  -16.6005   21.5499 N   0  0  0  0  0  0  0  0  0  0  0  0
    8.9803  -15.1651   22.9046 C   0  0  0  0  0  0  0  0  0  0  0  0
   10.0722  -14.6209   23.1530 O   0  0  0  0  0  0  0  0  0  0  0  0
    5.7233  -12.2310   27.0271 C   0  0  0  0  0  0  0  0  0  0  0  0
    7.0737  -12.8135   26.5998 C   0  0  2  0  0  0  0  0  0  0  0  0
    8.0777  -11.6984   26.4297 C   0  0  0  0  0  0  0  0  0  0  0  0
    6.9455  -13.5714   25.3258 C   0  0  0  0  0  0  0  0  0  0  0  0
    8.1086  -14.4812   25.1042 C   0  0  2  0  0  0  0  0  0  0  0  0
    7.9039  -15.1830   23.8235 N   0  0  0  0  0  0  0  0  0  0  0  0
    8.2455  -15.5091   26.1520 C   0  0  0  0  0  0  0  0  0  0  0  0
    7.4194  -16.4782   26.2004 O   0  0  0  0  0  0  0  0  0  0  0  0
    9.2487  -15.4569   27.0877 O   0  0  0  0  0  0  0  0  0  0  0  0
  2  1  1  1
  2  3  1  0
  4  2  1  0
  5  4  2  0
  7  9  1  0
  7  6  1  6
  7  8  1  0
  8  4  1  0
  9 16  1  0
 10  9  2  0
 12 11  1  6
 13 12  1  0
 14 12  1  0
 15 14  1  1
 16 15  1  0
 17 19  1  0
 17 15  1  0
 18 17  2  0
M  END
$$$$
