AAL.pdb
     RDKit          3D

 19 18  0  0  1  0  0  0  0  0999 V2000
    8.4067  -14.1971   15.2306 C   0  0  0  0  0  0  0  0  0  0  0  0
    8.9499  -15.5377   14.7695 C   0  0  2  0  0  0  0  0  0  0  0  0
    8.1261  -16.0234   13.6801 N   0  0  0  0  0  0  0  0  0  0  0  0
    8.8922  -16.4454   15.9478 C   0  0  0  0  0  0  0  0  0  0  0  0
    8.3710  -17.5847   15.8158 O   0  0  0  0  0  0  0  0  0  0  0  0
   10.4696  -18.1834   17.7223 C   0  0  0  0  0  0  0  0  0  0  0  0
    9.5643  -17.0905   18.2958 C   0  0  2  0  0  0  0  0  0  0  0  0
    9.3879  -16.1168   17.2251 N   0  0  0  0  0  0  0  0  0  0  0  0
   10.1824  -16.4806   19.4901 C   0  0  0  0  0  0  0  0  0  0  0  0
   11.3449  -16.0434   19.4031 O   0  0  0  0  0  0  0  0  0  0  0  0
    8.8979  -12.7405   20.3191 C   0  0  0  0  0  0  0  0  0  0  0  0
    7.9428  -13.8660   20.7275 C   0  0  2  0  0  0  0  0  0  0  0  0
    6.5813  -13.2906   21.0366 C   0  0  0  0  0  0  0  0  0  0  0  0
    8.4603  -14.5959   21.9163 C   0  0  0  0  0  0  0  0  0  0  0  0
    9.7331  -15.3152   21.6128 C   0  0  2  0  0  0  0  0  0  0  0  0
    9.4256  -16.4190   20.6845 N   0  0  0  0  0  0  0  0  0  0  0  0
   10.3607  -15.9077   22.8079 C   0  0  0  0  0  0  0  0  0  0  0  0
   10.1304  -17.1249   23.1067 O   0  0  0  0  0  0  0  0  0  0  0  0
   11.1982  -15.1820   23.6183 O   0  0  0  0  0  0  0  0  0  0  0  0
  2  1  1  1
  2  3  1  0
  4  2  1  0
  5  4  2  0
  7  9  1  0
  7  6  1  6
  7  8  1  0
  8  4  1  0
  9 16  1  0
 10  9  2  0
 12 11  1  1
 13 12  1  0
 14 12  1  0
 15 14  1  1
 16 15  1  0
 17 19  1  0
 17 15  1  0
 18 17  2  0
M  END
$$$$
