AAL.pdb
     RDKit          3D

 19 18  0  0  1  0  0  0  0  0999 V2000
    8.5540  -12.0804   19.6334 C   0  0  0  0  0  0  0  0  0  0  0  0
    8.4530  -13.5000   19.1049 C   0  0  2  0  0  0  0  0  0  0  0  0
    7.4281  -13.5430   18.0805 N   0  0  0  0  0  0  0  0  0  0  0  0
    8.1027  -14.3606   20.2678 C   0  0  0  0  0  0  0  0  0  0  0  0
    6.8969  -14.4468   20.6221 O   0  0  0  0  0  0  0  0  0  0  0  0
    9.5607  -17.2392   21.9334 C   0  0  0  0  0  0  0  0  0  0  0  0
    8.6731  -16.0034   22.1000 C   0  0  2  0  0  0  0  0  0  0  0  0
    9.0401  -15.1002   21.0158 N   0  0  0  0  0  0  0  0  0  0  0  0
    8.8916  -15.3838   23.4223 C   0  0  0  0  0  0  0  0  0  0  0  0
    9.2682  -14.1980   23.4710 O   0  0  0  0  0  0  0  0  0  0  0  0
    8.3885  -12.8427   26.8786 C   0  0  0  0  0  0  0  0  0  0  0  0
    7.4189  -13.1864   25.7441 C   0  0  2  0  0  0  0  0  0  0  0  0
    6.1160  -12.4505   25.9481 C   0  0  0  0  0  0  0  0  0  0  0  0
    7.1639  -14.6513   25.6893 C   0  0  0  0  0  0  0  0  0  0  0  0
    8.4241  -15.4379   25.8398 C   0  0  2  0  0  0  0  0  0  0  0  0
    8.6633  -16.1657   24.5798 N   0  0  0  0  0  0  0  0  0  0  0  0
    8.3544  -16.4392   26.9196 C   0  0  0  0  0  0  0  0  0  0  0  0
    7.5705  -17.4377   26.8077 O   0  0  0  0  0  0  0  0  0  0  0  0
    9.1183  -16.3306   28.0551 O   0  0  0  0  0  0  0  0  0  0  0  0
  2  1  1  1
  2  3  1  0
  4  2  1  0
  5  4  2  0
  7  9  1  0
  7  6  1  1
  7  8  1  0
  8  4  1  0
  9 16  1  0
 10  9  2  0
 12 11  1  1
 13 12  1  0
 14 12  1  0
 15 14  1  6
 16 15  1  0
 17 19  1  0
 17 15  1  0
 18 17  2  0
M  END
$$$$
