AAL.pdb
     RDKit          3D

 19 18  0  0  1  0  0  0  0  0999 V2000
    8.0527  -19.5153   20.1954 C   0  0  0  0  0  0  0  0  0  0  0  0
    7.7811  -18.7526   21.4797 C   0  0  2  0  0  0  0  0  0  0  0  0
    6.3510  -18.7353   21.7166 N   0  0  0  0  0  0  0  0  0  0  0  0
    8.3206  -17.3800   21.2788 C   0  0  0  0  0  0  0  0  0  0  0  0
    9.5580  -17.2312   21.0951 O   0  0  0  0  0  0  0  0  0  0  0  0
    6.9989  -14.0619   20.3955 C   0  0  0  0  0  0  0  0  0  0  0  0
    8.0802  -14.8706   21.1162 C   0  0  2  0  0  0  0  0  0  0  0  0
    7.5325  -16.2119   21.2791 N   0  0  0  0  0  0  0  0  0  0  0  0
    8.4064  -14.2539   22.4176 C   0  0  0  0  0  0  0  0  0  0  0  0
    9.0034  -13.1614   22.4275 O   0  0  0  0  0  0  0  0  0  0  0  0
    5.5936  -12.4400   27.0241 C   0  0  0  0  0  0  0  0  0  0  0  0
    6.9751  -12.9337   26.5842 C   0  0  2  0  0  0  0  0  0  0  0  0
    7.9302  -11.7668   26.5034 C   0  0  0  0  0  0  0  0  0  0  0  0
    6.8999  -13.6125   25.2623 C   0  0  0  0  0  0  0  0  0  0  0  0
    8.2114  -14.2105   24.8724 C   0  0  2  0  0  0  0  0  0  0  0  0
    8.0257  -14.9324   23.6000 N   0  0  0  0  0  0  0  0  0  0  0  0
    8.7194  -15.1813   25.8587 C   0  0  0  0  0  0  0  0  0  0  0  0
    8.8795  -14.8265   27.0722 O   0  0  0  0  0  0  0  0  0  0  0  0
    9.0271  -16.4725   25.5082 O   0  0  0  0  0  0  0  0  0  0  0  0
  2  1  1  6
  2  3  1  0
  4  2  1  0
  5  4  2  0
  7  9  1  0
  7  6  1  1
  7  8  1  0
  8  4  1  0
  9 16  1  0
 10  9  2  0
 12 11  1  6
 13 12  1  0
 14 12  1  0
 15 14  1  1
 16 15  1  0
 17 19  1  0
 17 15  1  0
 18 17  2  0
M  END
$$$$
