AAL.pdb
     RDKit          3D

 19 18  0  0  1  0  0  0  0  0999 V2000
    7.1961  -19.7768   20.8856 C   0  0  0  0  0  0  0  0  0  0  0  0
    7.0590  -18.8145   22.0519 C   0  0  2  0  0  0  0  0  0  0  0  0
    5.6591  -18.4732   22.2110 N   0  0  0  0  0  0  0  0  0  0  0  0
    7.8799  -17.6198   21.7134 C   0  0  0  0  0  0  0  0  0  0  0  0
    9.1349  -17.7276   21.6919 O   0  0  0  0  0  0  0  0  0  0  0  0
    7.3192  -14.3044   20.1871 C   0  0  0  0  0  0  0  0  0  0  0  0
    8.1632  -15.1822   21.1143 C   0  0  2  0  0  0  0  0  0  0  0  0
    7.3449  -16.3522   21.4094 N   0  0  0  0  0  0  0  0  0  0  0  0
    8.5204  -14.4439   22.3422 C   0  0  0  0  0  0  0  0  0  0  0  0
    9.3156  -13.4899   22.2551 O   0  0  0  0  0  0  0  0  0  0  0  0
    7.1325  -13.5871   27.7359 C   0  0  0  0  0  0  0  0  0  0  0  0
    7.2739  -12.6602   26.5250 C   0  0  2  0  0  0  0  0  0  0  0  0
    6.2874  -11.5223   26.6376 C   0  0  0  0  0  0  0  0  0  0  0  0
    7.0394  -13.4033   25.2575 C   0  0  0  0  0  0  0  0  0  0  0  0
    8.2852  -14.0619   24.7640 C   0  0  2  0  0  0  0  0  0  0  0  0
    7.9424  -14.8531   23.5677 N   0  0  0  0  0  0  0  0  0  0  0  0
    8.8783  -14.9862   25.7474 C   0  0  0  0  0  0  0  0  0  0  0  0
    9.4798  -14.5219   26.7705 O   0  0  0  0  0  0  0  0  0  0  0  0
    8.8004  -16.3484   25.5961 O   0  0  0  0  0  0  0  0  0  0  0  0
  2  1  1  6
  2  3  1  0
  4  2  1  0
  5  4  2  0
  7  9  1  0
  7  6  1  6
  7  8  1  0
  8  4  1  0
  9 16  1  0
 10  9  2  0
 12 11  1  1
 13 12  1  0
 14 12  1  0
 15 14  1  1
 16 15  1  0
 17 19  1  0
 17 15  1  0
 18 17  2  0
M  END
$$$$
