AAL.pdb
     RDKit          3D

 19 18  0  0  1  0  0  0  0  0999 V2000
    8.9897  -12.4568   18.9193 C   0  0  0  0  0  0  0  0  0  0  0  0
    8.6381  -13.8937   18.5782 C   0  0  2  0  0  0  0  0  0  0  0  0
    7.5529  -13.8912   17.6170 N   0  0  0  0  0  0  0  0  0  0  0  0
    8.2384  -14.5461   19.8550 C   0  0  0  0  0  0  0  0  0  0  0  0
    7.0664  -14.3784   20.2855 O   0  0  0  0  0  0  0  0  0  0  0  0
    9.4699  -17.3514   21.8788 C   0  0  0  0  0  0  0  0  0  0  0  0
    8.6636  -16.0510   21.8388 C   0  0  2  0  0  0  0  0  0  0  0  0
    9.0923  -15.3533   20.6325 N   0  0  0  0  0  0  0  0  0  0  0  0
    8.9169  -15.2476   23.0515 C   0  0  0  0  0  0  0  0  0  0  0  0
   10.0055  -14.6526   23.1567 O   0  0  0  0  0  0  0  0  0  0  0  0
    7.3966  -13.1737   27.7417 C   0  0  0  0  0  0  0  0  0  0  0  0
    7.0300  -12.4517   26.4417 C   0  0  2  0  0  0  0  0  0  0  0  0
    5.7293  -11.7063   26.6232 C   0  0  0  0  0  0  0  0  0  0  0  0
    6.9019  -13.4168   25.3165 C   0  0  0  0  0  0  0  0  0  0  0  0
    8.1295  -14.2527   25.1625 C   0  0  2  0  0  0  0  0  0  0  0  0
    7.9096  -15.1883   24.0440 N   0  0  0  0  0  0  0  0  0  0  0  0
    8.4322  -15.0601   26.3581 C   0  0  0  0  0  0  0  0  0  0  0  0
    7.7066  -16.0686   26.6417 O   0  0  0  0  0  0  0  0  0  0  0  0
    9.4856  -14.7584   27.1852 O   0  0  0  0  0  0  0  0  0  0  0  0
  2  1  1  1
  2  3  1  0
  4  2  1  0
  5  4  2  0
  7  9  1  0
  7  6  1  1
  7  8  1  0
  8  4  1  0
  9 16  1  0
 10  9  2  0
 12 11  1  1
 13 12  1  0
 14 12  1  0
 15 14  1  1
 16 15  1  0
 17 19  1  0
 17 15  1  0
 18 17  2  0
M  END
$$$$
