AAL.pdb
     RDKit          3D

 19 18  0  0  1  0  0  0  0  0999 V2000
    7.3331  -18.4616   19.2857 C   0  0  0  0  0  0  0  0  0  0  0  0
    7.3583  -18.0961   20.7590 C   0  0  2  0  0  0  0  0  0  0  0  0
    5.9946  -17.9174   21.2171 N   0  0  0  0  0  0  0  0  0  0  0  0
    8.1435  -16.8364   20.8691 C   0  0  0  0  0  0  0  0  0  0  0  0
    9.3875  -16.8734   20.6739 O   0  0  0  0  0  0  0  0  0  0  0  0
    7.4762  -13.2204   20.8591 C   0  0  0  0  0  0  0  0  0  0  0  0
    8.3748  -14.3644   21.3350 C   0  0  2  0  0  0  0  0  0  0  0  0
    7.5858  -15.5809   21.1820 N   0  0  0  0  0  0  0  0  0  0  0  0
    8.7823  -14.1528   22.7384 C   0  0  0  0  0  0  0  0  0  0  0  0
    9.6135  -13.2607   22.9905 O   0  0  0  0  0  0  0  0  0  0  0  0
    8.1870  -11.9854   26.3696 C   0  0  0  0  0  0  0  0  0  0  0  0
    7.0854  -12.8279   25.7197 C   0  0  2  0  0  0  0  0  0  0  0  0
    5.7531  -12.4949   26.3479 C   0  0  0  0  0  0  0  0  0  0  0  0
    7.3652  -14.2806   25.8781 C   0  0  0  0  0  0  0  0  0  0  0  0
    8.5928  -14.6916   25.1341 C   0  0  2  0  0  0  0  0  0  0  0  0
    8.2097  -14.9745   23.7385 N   0  0  0  0  0  0  0  0  0  0  0  0
    9.2144  -15.9137   25.6758 C   0  0  0  0  0  0  0  0  0  0  0  0
    9.1998  -16.9886   24.9913 O   0  0  0  0  0  0  0  0  0  0  0  0
    9.8184  -15.9309   26.9085 O   0  0  0  0  0  0  0  0  0  0  0  0
  2  1  1  6
  2  3  1  0
  4  2  1  0
  5  4  2  0
  7  9  1  0
  7  6  1  1
  7  8  1  0
  8  4  1  0
  9 16  1  0
 10  9  2  0
 12 11  1  1
 13 12  1  0
 14 12  1  0
 15 14  1  1
 16 15  1  0
 17 19  1  0
 17 15  1  0
 18 17  2  0
M  END
$$$$
