AAL.pdb
     RDKit          3D

 19 18  0  0  1  0  0  0  0  0999 V2000
    8.8528  -12.2600   19.5990 C   0  0  0  0  0  0  0  0  0  0  0  0
    8.3988  -13.6500   19.1907 C   0  0  2  0  0  0  0  0  0  0  0  0
    7.2558  -13.5253   18.3079 N   0  0  0  0  0  0  0  0  0  0  0  0
    8.0460  -14.3659   20.4471 C   0  0  0  0  0  0  0  0  0  0  0  0
    6.8778  -14.2553   20.9053 O   0  0  0  0  0  0  0  0  0  0  0  0
    9.2550  -17.3513   22.0974 C   0  0  0  0  0  0  0  0  0  0  0  0
    8.5383  -16.0138   22.2974 C   0  0  2  0  0  0  0  0  0  0  0  0
    8.9412  -15.1741   21.1756 N   0  0  0  0  0  0  0  0  0  0  0  0
    8.9172  -15.4121   23.5915 C   0  0  0  0  0  0  0  0  0  0  0  0
   10.0840  -15.0046   23.7414 O   0  0  0  0  0  0  0  0  0  0  0  0
    7.9863  -11.8328   25.9751 C   0  0  0  0  0  0  0  0  0  0  0  0
    6.8410  -12.8442   25.8694 C   0  0  2  0  0  0  0  0  0  0  0  0
    5.5923  -12.2653   26.4907 C   0  0  0  0  0  0  0  0  0  0  0  0
    7.1946  -14.1194   26.5497 C   0  0  0  0  0  0  0  0  0  0  0  0
    8.3695  -14.7810   25.9083 C   0  0  2  0  0  0  0  0  0  0  0  0
    7.9360  -15.3244   24.6078 N   0  0  0  0  0  0  0  0  0  0  0  0
    8.9020  -15.9054   26.6992 C   0  0  0  0  0  0  0  0  0  0  0  0
    8.4506  -17.0821   26.5108 O   0  0  0  0  0  0  0  0  0  0  0  0
    9.8828  -15.7238   27.6425 O   0  0  0  0  0  0  0  0  0  0  0  0
  2  1  1  1
  2  3  1  0
  4  2  1  0
  5  4  2  0
  7  9  1  0
  7  6  1  6
  7  8  1  0
  8  4  1  0
  9 16  1  0
 10  9  2  0
 12 11  1  1
 13 12  1  0
 14 12  1  0
 15 14  1  1
 16 15  1  0
 17 19  1  0
 17 15  1  0
 18 17  2  0
M  END
$$$$
