AAL.pdb
     RDKit          3D

 19 18  0  0  1  0  0  0  0  0999 V2000
    5.2395  -19.1240   19.6782 C   0  0  0  0  0  0  0  0  0  0  0  0
    6.4973  -18.3993   20.1228 C   0  0  2  0  0  0  0  0  0  0  0  0
    7.6056  -19.3334   20.0977 N   0  0  0  0  0  0  0  0  0  0  0  0
    6.2330  -17.8986   21.4994 C   0  0  0  0  0  0  0  0  0  0  0  0
    5.3696  -16.9964   21.6655 O   0  0  0  0  0  0  0  0  0  0  0  0
    7.2002  -18.8761   24.9628 C   0  0  0  0  0  0  0  0  0  0  0  0
    6.6689  -17.8239   23.9865 C   0  0  2  0  0  0  0  0  0  0  0  0
    6.8912  -18.3695   22.6528 N   0  0  0  0  0  0  0  0  0  0  0  0
    7.3748  -16.5406   24.1743 C   0  0  0  0  0  0  0  0  0  0  0  0
    7.4013  -15.7301   23.2295 O   0  0  0  0  0  0  0  0  0  0  0  0
    6.0902  -12.0655   26.8324 C   0  0  0  0  0  0  0  0  0  0  0  0
    7.3377  -12.6845   26.1952 C   0  0  2  0  0  0  0  0  0  0  0  0
    7.7491  -11.8731   24.9899 C   0  0  0  0  0  0  0  0  0  0  0  0
    7.0826  -14.0927   25.7882 C   0  0  0  0  0  0  0  0  0  0  0  0
    8.3458  -14.8857   25.7185 C   0  0  2  0  0  0  0  0  0  0  0  0
    7.9919  -16.2864   25.4224 N   0  0  0  0  0  0  0  0  0  0  0  0
    9.1011  -14.8812   26.9845 C   0  0  0  0  0  0  0  0  0  0  0  0
    8.7025  -15.5948   27.9623 O   0  0  0  0  0  0  0  0  0  0  0  0
   10.2358  -14.1255   27.1454 O   0  0  0  0  0  0  0  0  0  0  0  0
  2  1  1  1
  2  3  1  0
  4  2  1  0
  5  4  2  0
  7  9  1  0
  7  6  1  1
  7  8  1  0
  8  4  1  0
  9 16  1  0
 10  9  2  0
 12 11  1  6
 13 12  1  0
 14 12  1  0
 15 14  1  1
 16 15  1  0
 17 19  1  0
 17 15  1  0
 18 17  2  0
M  END
$$$$
