AAL.pdb
     RDKit          3D

 19 18  0  0  1  0  0  0  0  0999 V2000
    7.5789  -12.5244   18.9048 C   0  0  0  0  0  0  0  0  0  0  0  0
    8.7581  -13.3037   19.4588 C   0  0  2  0  0  0  0  0  0  0  0  0
    9.1599  -14.2962   18.4816 N   0  0  0  0  0  0  0  0  0  0  0  0
    8.2911  -13.9361   20.7228 C   0  0  0  0  0  0  0  0  0  0  0  0
    7.8083  -13.2058   21.6287 O   0  0  0  0  0  0  0  0  0  0  0  0
    7.9242  -17.4516   21.9643 C   0  0  0  0  0  0  0  0  0  0  0  0
    7.7522  -15.9432   22.1588 C   0  0  2  0  0  0  0  0  0  0  0  0
    8.3509  -15.3192   20.9850 N   0  0  0  0  0  0  0  0  0  0  0  0
    8.4114  -15.5038   23.4049 C   0  0  0  0  0  0  0  0  0  0  0  0
    9.6406  -15.3064   23.3924 O   0  0  0  0  0  0  0  0  0  0  0  0
    7.8925  -11.7699   25.7388 C   0  0  0  0  0  0  0  0  0  0  0  0
    6.7700  -12.8045   25.8622 C   0  0  2  0  0  0  0  0  0  0  0  0
    5.6126  -12.2103   26.6289 C   0  0  0  0  0  0  0  0  0  0  0  0
    7.2522  -14.0309   26.5532 C   0  0  0  0  0  0  0  0  0  0  0  0
    8.2814  -14.7517   25.7466 C   0  0  2  0  0  0  0  0  0  0  0  0
    7.6162  -15.3254   24.5622 N   0  0  0  0  0  0  0  0  0  0  0  0
    8.9132  -15.8646   26.4783 C   0  0  0  0  0  0  0  0  0  0  0  0
    8.4886  -17.0545   26.3113 O   0  0  0  0  0  0  0  0  0  0  0  0
    9.9594  -15.6583   27.3430 O   0  0  0  0  0  0  0  0  0  0  0  0
  2  1  1  6
  2  3  1  0
  4  2  1  0
  5  4  2  0
  7  9  1  0
  7  6  1  6
  7  8  1  0
  8  4  1  0
  9 16  1  0
 10  9  2  0
 12 11  1  1
 13 12  1  0
 14 12  1  0
 15 14  1  1
 16 15  1  0
 17 19  1  0
 17 15  1  0
 18 17  2  0
M  END
$$$$
