AAL.pdb
     RDKit          3D

 19 18  0  0  1  0  0  0  0  0999 V2000
    7.8121  -19.4604   20.0783 C   0  0  0  0  0  0  0  0  0  0  0  0
    7.7065  -18.9159   21.4916 C   0  0  2  0  0  0  0  0  0  0  0  0
    6.3088  -18.8860   21.8752 N   0  0  0  0  0  0  0  0  0  0  0  0
    8.2971  -17.5499   21.4640 C   0  0  0  0  0  0  0  0  0  0  0  0
    9.5311  -17.4227   21.2445 O   0  0  0  0  0  0  0  0  0  0  0  0
    7.0078  -14.0841   21.2496 C   0  0  0  0  0  0  0  0  0  0  0  0
    8.1511  -15.0327   21.6181 C   0  0  2  0  0  0  0  0  0  0  0  0
    7.5621  -16.3655   21.6695 N   0  0  0  0  0  0  0  0  0  0  0  0
    8.7442  -14.6492   22.9148 C   0  0  0  0  0  0  0  0  0  0  0  0
    9.8034  -13.9948   22.9164 O   0  0  0  0  0  0  0  0  0  0  0  0
    8.2729  -11.6622   25.9891 C   0  0  0  0  0  0  0  0  0  0  0  0
    7.1967  -12.7255   25.7507 C   0  0  2  0  0  0  0  0  0  0  0  0
    5.9207  -12.3235   26.4511 C   0  0  0  0  0  0  0  0  0  0  0  0
    7.6443  -14.0545   26.2482 C   0  0  0  0  0  0  0  0  0  0  0  0
    8.7053  -14.6422   25.3774 C   0  0  2  0  0  0  0  0  0  0  0  0
    8.0820  -15.0425   24.1023 N   0  0  0  0  0  0  0  0  0  0  0  0
    9.3289  -15.8449   25.9587 C   0  0  0  0  0  0  0  0  0  0  0  0
    9.9198  -15.7703   27.0853 O   0  0  0  0  0  0  0  0  0  0  0  0
    9.2910  -17.0587   25.3185 O   0  0  0  0  0  0  0  0  0  0  0  0
  2  1  1  6
  2  3  1  0
  4  2  1  0
  5  4  2  0
  7  9  1  0
  7  6  1  1
  7  8  1  0
  8  4  1  0
  9 16  1  0
 10  9  2  0
 12 11  1  1
 13 12  1  0
 14 12  1  0
 15 14  1  1
 16 15  1  0
 17 19  1  0
 17 15  1  0
 18 17  2  0
M  END
$$$$
