YQF.pdb
     RDKit          3D

 33 34  0  0  1  0  0  0  0  0999 V2000
   20.8229  -19.5504  -15.1118 O   0  0  0  0  0  0  0  0  0  0  0  0
   21.2623  -18.2524  -15.2592 C   0  0  0  0  0  0  0  0  0  0  0  0
   22.5863  -17.9691  -15.4993 C   0  0  0  0  0  0  0  0  0  0  0  0
   23.0228  -16.6678  -15.6464 C   0  0  0  0  0  0  0  0  0  0  0  0
   22.1492  -15.6047  -15.5583 C   0  0  0  0  0  0  0  0  0  0  0  0
   22.5943  -14.1878  -15.7132 C   0  0  0  0  0  0  0  0  0  0  0  0
   21.9359  -13.6484  -16.9625 C   0  0  2  0  0  0  0  0  0  0  0  0
   22.5537  -14.3091  -18.0892 N   0  0  0  0  0  0  0  0  0  0  0  0
   22.1118  -12.1923  -17.1028 C   0  0  0  0  0  0  0  0  0  0  0  0
   23.1652  -11.6855  -17.6000 O   0  0  0  0  0  0  0  0  0  0  0  0
   20.8236  -15.8767  -15.3186 C   0  0  0  0  0  0  0  0  0  0  0  0
   20.3842  -17.1729  -15.1713 C   0  0  0  0  0  0  0  0  0  0  0  0
   18.9525  -11.5583  -19.4487 N   0  0  0  0  0  0  0  0  0  0  0  0
   20.0409  -10.9702  -20.1320 C   0  0  0  0  0  0  0  0  0  0  0  0
   20.3408  -11.3328  -21.2888 O   0  0  0  0  0  0  0  0  0  0  0  0
   20.8332   -9.8881  -19.4222 C   0  0  0  0  0  0  0  0  0  0  0  0
   20.2149   -9.5690  -18.1133 C   0  0  0  0  0  0  0  0  0  0  0  0
   21.0931   -9.8676  -16.9532 C   0  0  2  0  0  0  0  0  0  0  0  0
   21.0903  -11.3119  -16.6779 N   0  0  0  0  0  0  0  0  0  0  0  0
   20.7594   -9.1140  -15.7244 C   0  0  0  0  0  0  0  0  0  0  0  0
   19.8375   -9.5510  -14.9330 O   0  0  0  0  0  0  0  0  0  0  0  0
   21.3685   -7.9157  -15.2932 N   0  0  0  0  0  0  0  0  0  0  0  0
   20.9304   -7.2349  -14.0568 C   0  0  1  0  0  0  0  0  0  0  0  0
   22.2000   -6.7118  -13.4383 C   0  0  0  0  0  0  0  0  0  0  0  0
   23.0005   -5.8294  -14.2717 C   0  0  0  0  0  0  0  0  0  0  0  0
   23.9932   -6.4037  -15.0531 C   0  0  0  0  0  0  0  0  0  0  0  0
   24.8117   -5.6895  -15.8839 C   0  0  0  0  0  0  0  0  0  0  0  0
   24.6705   -4.3211  -15.9751 C   0  0  0  0  0  0  0  0  0  0  0  0
   23.6803   -3.7199  -15.2003 C   0  0  0  0  0  0  0  0  0  0  0  0
   22.8676   -4.4622  -14.3703 C   0  0  0  0  0  0  0  0  0  0  0  0
   20.0611   -6.0879  -14.3804 C   0  0  0  0  0  0  0  0  0  0  0  0
   19.4347   -5.3340  -13.4050 O   0  0  0  0  0  0  0  0  0  0  0  0
   19.8802   -5.7822  -15.5808 O   0  0  0  0  0  0  0  0  0  0  0  0
  2  1  1  0
  3  2  2  0
  4  3  1  0
  5  4  2  0
  5 11  1  0
  6  5  1  0
  7  6  1  0
  7  8  1  6
  9  7  1  0
  9 10  2  0
 11 12  2  0
 12  2  1  0
 13 14  1  0
 14 16  1  0
 15 14  2  0
 16 17  1  0
 18 17  1  6
 18 19  1  0
 18 20  1  0
 19  9  1  0
 20 21  2  0
 20 22  1  0
 22 23  1  0
 23 31  1  0
 23 24  1  6
 25 24  1  0
 25 30  1  0
 26 25  2  0
 27 26  1  0
 27 28  2  0
 28 29  1  0
 29 30  2  0
 31 33  2  0
 31 32  1  0
M  END
$$$$
