YQF.pdb
     RDKit          3D

 33 34  0  0  1  0  0  0  0  0999 V2000
   11.3698   -9.9937  -20.8206 O   0  0  0  0  0  0  0  0  0  0  0  0
   12.3823   -9.5848  -19.9797 C   0  0  0  0  0  0  0  0  0  0  0  0
   13.6675  -10.0504  -20.1295 C   0  0  0  0  0  0  0  0  0  0  0  0
   14.6791   -9.6387  -19.2853 C   0  0  0  0  0  0  0  0  0  0  0  0
   14.4395   -8.7465  -18.2617 C   0  0  0  0  0  0  0  0  0  0  0  0
   15.5148   -8.2847  -17.3342 C   0  0  0  0  0  0  0  0  0  0  0  0
   15.9549   -9.4863  -16.5295 C   0  0  2  0  0  0  0  0  0  0  0  0
   14.8905   -9.7908  -15.6012 N   0  0  0  0  0  0  0  0  0  0  0  0
   17.1935   -9.2296  -15.7739 C   0  0  0  0  0  0  0  0  0  0  0  0
   17.1778   -8.7699  -14.5899 O   0  0  0  0  0  0  0  0  0  0  0  0
   13.1585   -8.2749  -18.1031 C   0  0  0  0  0  0  0  0  0  0  0  0
   12.1468   -8.6829  -18.9427 C   0  0  0  0  0  0  0  0  0  0  0  0
   22.5884  -12.0408  -16.9512 N   0  0  0  0  0  0  0  0  0  0  0  0
   23.0404  -11.1166  -15.9823 C   0  0  0  0  0  0  0  0  0  0  0  0
   24.2086  -11.1698  -15.5439 O   0  0  0  0  0  0  0  0  0  0  0  0
   22.0688  -10.0598  -15.4907 C   0  0  0  0  0  0  0  0  0  0  0  0
   20.7375  -10.2516  -16.1138 C   0  0  0  0  0  0  0  0  0  0  0  0
   19.7349   -9.2383  -15.6965 C   0  0  2  0  0  0  0  0  0  0  0  0
   18.4505   -9.4957  -16.3643 N   0  0  0  0  0  0  0  0  0  0  0  0
   20.1534   -7.8369  -15.9197 C   0  0  0  0  0  0  0  0  0  0  0  0
   20.0421   -7.3122  -17.0943 O   0  0  0  0  0  0  0  0  0  0  0  0
   20.6806   -6.9618  -14.9455 N   0  0  0  0  0  0  0  0  0  0  0  0
   20.9873   -5.5521  -15.2669 C   0  0  1  0  0  0  0  0  0  0  0  0
   21.4265   -4.9489  -13.9587 C   0  0  0  0  0  0  0  0  0  0  0  0
   21.7772   -3.5383  -13.9912 C   0  0  0  0  0  0  0  0  0  0  0  0
   20.7417   -2.6146  -13.9713 C   0  0  0  0  0  0  0  0  0  0  0  0
   20.9336   -1.2607  -13.9924 C   0  0  0  0  0  0  0  0  0  0  0  0
   22.2136   -0.7502  -14.0358 C   0  0  0  0  0  0  0  0  0  0  0  0
   23.2713   -1.6574  -14.0565 C   0  0  0  0  0  0  0  0  0  0  0  0
   23.0517   -3.0181  -14.0344 C   0  0  0  0  0  0  0  0  0  0  0  0
   22.1116   -5.4735  -16.2186 C   0  0  0  0  0  0  0  0  0  0  0  0
   22.1603   -4.5343  -17.2324 O   0  0  0  0  0  0  0  0  0  0  0  0
   23.0584   -6.2850  -16.1090 O   0  0  0  0  0  0  0  0  0  0  0  0
  2  1  1  0
  3  2  2  0
  4  3  1  0
  5  4  2  0
  5 11  1  0
  6  5  1  0
  7  6  1  0
  7  8  1  1
  9  7  1  0
  9 10  2  0
 11 12  2  0
 12  2  1  0
 13 14  1  0
 14 16  1  0
 15 14  2  0
 16 17  1  0
 18 17  1  6
 18 19  1  0
 18 20  1  0
 19  9  1  0
 20 21  2  0
 20 22  1  0
 22 23  1  0
 23 31  1  0
 23 24  1  1
 25 24  1  0
 25 30  1  0
 26 25  2  0
 27 26  1  0
 27 28  2  0
 28 29  1  0
 29 30  2  0
 31 33  2  0
 31 32  1  0
M  END
$$$$
