YQF.pdb
     RDKit          3D

 33 34  0  0  1  0  0  0  0  0999 V2000
   29.7041  -14.6170  -19.4818 O   0  0  0  0  0  0  0  0  0  0  0  0
   29.0276  -15.2280  -18.4481 C   0  0  0  0  0  0  0  0  0  0  0  0
   27.8131  -14.7545  -18.0102 C   0  0  0  0  0  0  0  0  0  0  0  0
   27.1384  -15.3690  -16.9744 C   0  0  0  0  0  0  0  0  0  0  0  0
   27.6559  -16.4791  -16.3409 C   0  0  0  0  0  0  0  0  0  0  0  0
   26.9476  -17.1630  -15.2184 C   0  0  0  0  0  0  0  0  0  0  0  0
   26.6033  -18.5565  -15.6926 C   0  0  2  0  0  0  0  0  0  0  0  0
   25.7848  -18.4144  -16.8748 N   0  0  0  0  0  0  0  0  0  0  0  0
   25.8566  -19.3229  -14.6797 C   0  0  0  0  0  0  0  0  0  0  0  0
   24.6658  -19.0256  -14.3521 O   0  0  0  0  0  0  0  0  0  0  0  0
   28.8692  -16.9605  -16.7708 C   0  0  0  0  0  0  0  0  0  0  0  0
   29.5453  -16.3507  -17.8033 C   0  0  0  0  0  0  0  0  0  0  0  0
   24.2313  -24.8824  -13.2426 N   0  0  0  0  0  0  0  0  0  0  0  0
   24.0888  -24.1775  -14.4592 C   0  0  0  0  0  0  0  0  0  0  0  0
   23.2645  -24.5491  -15.3207 O   0  0  0  0  0  0  0  0  0  0  0  0
   24.9634  -22.9590  -14.6891 C   0  0  0  0  0  0  0  0  0  0  0  0
   25.8042  -22.6940  -13.4972 C   0  0  0  0  0  0  0  0  0  0  0  0
   25.7765  -21.2765  -13.0543 C   0  0  2  0  0  0  0  0  0  0  0  0
   26.4635  -20.4276  -14.0389 N   0  0  0  0  0  0  0  0  0  0  0  0
   26.3371  -21.0471  -11.7045 C   0  0  0  0  0  0  0  0  0  0  0  0
   27.4188  -21.6544  -11.3461 O   0  0  0  0  0  0  0  0  0  0  0  0
   25.8018  -20.1927  -10.7164 N   0  0  0  0  0  0  0  0  0  0  0  0
   25.7370  -20.6060   -9.2989 C   0  0  1  0  0  0  0  0  0  0  0  0
   26.4116  -19.4906   -8.5447 C   0  0  0  0  0  0  0  0  0  0  0  0
   27.5759  -19.8639   -7.7579 C   0  0  0  0  0  0  0  0  0  0  0  0
   28.5076  -20.7091   -8.3440 C   0  0  0  0  0  0  0  0  0  0  0  0
   29.6471  -21.1319   -7.7171 C   0  0  0  0  0  0  0  0  0  0  0  0
   29.9170  -20.7149   -6.4309 C   0  0  0  0  0  0  0  0  0  0  0  0
   28.9967  -19.8654   -5.8199 C   0  0  0  0  0  0  0  0  0  0  0  0
   27.8550  -19.4531   -6.4734 C   0  0  0  0  0  0  0  0  0  0  0  0
   24.3343  -20.6916   -8.8507 C   0  0  0  0  0  0  0  0  0  0  0  0
   23.9722  -21.2925   -7.6591 O   0  0  0  0  0  0  0  0  0  0  0  0
   23.4349  -20.2046   -9.5724 O   0  0  0  0  0  0  0  0  0  0  0  0
  2  1  1  0
  3  2  2  0
  4  3  1  0
  5  4  2  0
  5 11  1  0
  6  5  1  0
  7  6  1  0
  7  8  1  6
  9  7  1  0
  9 10  2  0
 11 12  2  0
 12  2  1  0
 13 14  1  0
 14 16  1  0
 15 14  2  0
 16 17  1  0
 18 17  1  6
 18 19  1  0
 18 20  1  0
 19  9  1  0
 20 21  2  0
 20 22  1  0
 22 23  1  0
 23 31  1  0
 23 24  1  1
 25 24  1  0
 25 30  1  0
 26 25  2  0
 27 26  1  0
 27 28  2  0
 28 29  1  0
 29 30  2  0
 31 33  2  0
 31 32  1  0
M  END
$$$$
