YQF.pdb
     RDKit          3D

 33 34  0  0  1  0  0  0  0  0999 V2000
   23.4517  -13.8689  -22.4697 O   0  0  0  0  0  0  0  0  0  0  0  0
   23.2990  -14.7920  -21.4577 C   0  0  0  0  0  0  0  0  0  0  0  0
   22.5276  -15.9177  -21.6275 C   0  0  0  0  0  0  0  0  0  0  0  0
   22.3770  -16.8400  -20.6116 C   0  0  0  0  0  0  0  0  0  0  0  0
   22.9933  -16.6677  -19.3902 C   0  0  0  0  0  0  0  0  0  0  0  0
   22.8473  -17.6492  -18.2744 C   0  0  0  0  0  0  0  0  0  0  0  0
   24.1220  -18.4604  -18.2254 C   0  0  2  0  0  0  0  0  0  0  0  0
   24.1508  -19.2812  -19.4141 N   0  0  0  0  0  0  0  0  0  0  0  0
   24.1853  -19.3306  -17.0381 C   0  0  0  0  0  0  0  0  0  0  0  0
   23.5850  -20.4490  -16.9894 O   0  0  0  0  0  0  0  0  0  0  0  0
   23.7665  -15.5461  -19.2099 C   0  0  0  0  0  0  0  0  0  0  0  0
   23.9194  -14.6238  -20.2203 C   0  0  0  0  0  0  0  0  0  0  0  0
   26.4819  -22.1903  -11.4822 N   0  0  0  0  0  0  0  0  0  0  0  0
   26.7233  -21.2902  -12.5446 C   0  0  0  0  0  0  0  0  0  0  0  0
   27.4247  -21.6274  -13.5214 O   0  0  0  0  0  0  0  0  0  0  0  0
   26.1077  -19.9055  -12.4657 C   0  0  0  0  0  0  0  0  0  0  0  0
   26.0873  -19.2717  -13.8056 C   0  0  0  0  0  0  0  0  0  0  0  0
   24.8966  -19.6346  -14.6161 C   0  0  2  0  0  0  0  0  0  0  0  0
   24.9313  -18.9296  -15.9059 N   0  0  0  0  0  0  0  0  0  0  0  0
   23.6021  -19.3971  -13.9403 C   0  0  0  0  0  0  0  0  0  0  0  0
   23.1558  -18.1923  -13.8116 O   0  0  0  0  0  0  0  0  0  0  0  0
   22.7534  -20.3866  -13.3988 N   0  0  0  0  0  0  0  0  0  0  0  0
   21.4701  -20.0293  -12.7586 C   0  0  1  0  0  0  0  0  0  0  0  0
   20.6587  -19.3949  -13.8574 C   0  0  0  0  0  0  0  0  0  0  0  0
   19.3076  -18.9915  -13.5027 C   0  0  0  0  0  0  0  0  0  0  0  0
   19.1475  -17.7832  -12.8390 C   0  0  0  0  0  0  0  0  0  0  0  0
   17.9334  -17.2853  -12.4540 C   0  0  0  0  0  0  0  0  0  0  0  0
   16.7838  -17.9968  -12.7239 C   0  0  0  0  0  0  0  0  0  0  0  0
   16.9176  -19.2137  -13.3898 C   0  0  0  0  0  0  0  0  0  0  0  0
   18.1532  -19.6941  -13.7677 C   0  0  0  0  0  0  0  0  0  0  0  0
   20.7676  -21.2425  -12.2998 C   0  0  0  0  0  0  0  0  0  0  0  0
   21.2230  -22.5162  -12.5874 O   0  0  0  0  0  0  0  0  0  0  0  0
   19.7200  -21.1199  -11.6257 O   0  0  0  0  0  0  0  0  0  0  0  0
  2  1  1  0
  3  2  2  0
  4  3  1  0
  5  4  2  0
  5 11  1  0
  6  5  1  0
  7  6  1  0
  7  8  1  6
  9  7  1  0
  9 10  2  0
 11 12  2  0
 12  2  1  0
 13 14  1  0
 14 16  1  0
 15 14  2  0
 16 17  1  0
 18 17  1  1
 18 19  1  0
 18 20  1  0
 19  9  1  0
 20 21  2  0
 20 22  1  0
 22 23  1  0
 23 31  1  0
 23 24  1  6
 25 24  1  0
 25 30  1  0
 26 25  2  0
 27 26  1  0
 27 28  2  0
 28 29  1  0
 29 30  2  0
 31 33  2  0
 31 32  1  0
M  END
$$$$
