YQF.pdb
     RDKit          3D

 33 34  0  0  1  0  0  0  0  0999 V2000
   13.1564   -0.5619  -21.7148 O   0  0  0  0  0  0  0  0  0  0  0  0
   13.6527   -1.1432  -20.5679 C   0  0  0  0  0  0  0  0  0  0  0  0
   14.9291   -1.6525  -20.5196 C   0  0  0  0  0  0  0  0  0  0  0  0
   15.4227   -2.2341  -19.3692 C   0  0  0  0  0  0  0  0  0  0  0  0
   14.6559   -2.3261  -18.2269 C   0  0  0  0  0  0  0  0  0  0  0  0
   15.1647   -2.9501  -16.9693 C   0  0  0  0  0  0  0  0  0  0  0  0
   14.8313   -4.4230  -17.0367 C   0  0  2  0  0  0  0  0  0  0  0  0
   13.4241   -4.5557  -16.7369 N   0  0  0  0  0  0  0  0  0  0  0  0
   15.6067   -5.2165  -16.0672 C   0  0  0  0  0  0  0  0  0  0  0  0
   15.0609   -6.0825  -15.3150 O   0  0  0  0  0  0  0  0  0  0  0  0
   13.3788   -1.8202  -18.2644 C   0  0  0  0  0  0  0  0  0  0  0  0
   12.8826   -1.2394  -19.4096 C   0  0  0  0  0  0  0  0  0  0  0  0
   17.6610   -9.9323  -15.8966 N   0  0  0  0  0  0  0  0  0  0  0  0
   17.8997   -9.1074  -17.0190 C   0  0  0  0  0  0  0  0  0  0  0  0
   18.0931   -9.6045  -18.1483 O   0  0  0  0  0  0  0  0  0  0  0  0
   17.9144   -7.6039  -16.8142 C   0  0  0  0  0  0  0  0  0  0  0  0
   17.6987   -7.2747  -15.3850 C   0  0  0  0  0  0  0  0  0  0  0  0
   17.8661   -5.8315  -15.0763 C   0  0  2  0  0  0  0  0  0  0  0  0
   17.0030   -5.0256  -15.9524 N   0  0  0  0  0  0  0  0  0  0  0  0
   19.2624   -5.3484  -15.1522 C   0  0  0  0  0  0  0  0  0  0  0  0
   19.6523   -4.6687  -16.1785 O   0  0  0  0  0  0  0  0  0  0  0  0
   20.2655   -5.5497  -14.1796 N   0  0  0  0  0  0  0  0  0  0  0  0
   21.6301   -5.0123  -14.3632 C   0  0  1  0  0  0  0  0  0  0  0  0
   21.4694   -3.5185  -14.2601 C   0  0  0  0  0  0  0  0  0  0  0  0
   21.2219   -2.8148  -15.5081 C   0  0  0  0  0  0  0  0  0  0  0  0
   22.1639   -2.9420  -16.5192 C   0  0  0  0  0  0  0  0  0  0  0  0
   22.0502   -2.3383  -17.7411 C   0  0  0  0  0  0  0  0  0  0  0  0
   20.9517   -1.5525  -18.0180 C   0  0  0  0  0  0  0  0  0  0  0  0
   19.9909   -1.4088  -17.0189 C   0  0  0  0  0  0  0  0  0  0  0  0
   20.1285   -2.0280  -15.7949 C   0  0  0  0  0  0  0  0  0  0  0  0
   22.5129   -5.4638  -13.2710 C   0  0  0  0  0  0  0  0  0  0  0  0
   22.0845   -6.3296  -12.2815 O   0  0  0  0  0  0  0  0  0  0  0  0
   23.6938   -5.0503  -13.2339 O   0  0  0  0  0  0  0  0  0  0  0  0
  2  1  1  0
  3  2  2  0
  4  3  1  0
  5  4  2  0
  5 11  1  0
  6  5  1  0
  7  6  1  0
  7  8  1  1
  9  7  1  0
  9 10  2  0
 11 12  2  0
 12  2  1  0
 13 14  1  0
 14 16  1  0
 15 14  2  0
 16 17  1  0
 18 17  1  6
 18 19  1  0
 18 20  1  0
 19  9  1  0
 20 21  2  0
 20 22  1  0
 22 23  1  0
 23 31  1  0
 23 24  1  1
 25 24  1  0
 25 30  1  0
 26 25  2  0
 27 26  1  0
 27 28  2  0
 28 29  1  0
 29 30  2  0
 31 33  2  0
 31 32  1  0
M  END
$$$$
