YQF.pdb
     RDKit          3D

 33 34  0  0  1  0  0  0  0  0999 V2000
   30.9818  -15.7455  -18.5266 O   0  0  0  0  0  0  0  0  0  0  0  0
   30.1039  -16.1848  -17.5592 C   0  0  0  0  0  0  0  0  0  0  0  0
   30.3194  -17.3605  -16.8794 C   0  0  0  0  0  0  0  0  0  0  0  0
   29.4379  -17.7974  -15.9110 C   0  0  0  0  0  0  0  0  0  0  0  0
   28.3099  -17.0725  -15.5894 C   0  0  0  0  0  0  0  0  0  0  0  0
   27.3401  -17.5217  -14.5467 C   0  0  0  0  0  0  0  0  0  0  0  0
   26.8991  -18.9184  -14.9210 C   0  0  2  0  0  0  0  0  0  0  0  0
   26.1899  -18.8195  -16.1759 N   0  0  0  0  0  0  0  0  0  0  0  0
   26.0074  -19.5127  -13.9099 C   0  0  0  0  0  0  0  0  0  0  0  0
   24.8698  -19.0164  -13.6393 O   0  0  0  0  0  0  0  0  0  0  0  0
   28.0850  -15.8959  -16.2629 C   0  0  0  0  0  0  0  0  0  0  0  0
   28.9615  -15.4567  -17.2292 C   0  0  0  0  0  0  0  0  0  0  0  0
   24.6875  -25.2583  -13.4100 N   0  0  0  0  0  0  0  0  0  0  0  0
   23.7159  -24.2904  -13.7511 C   0  0  0  0  0  0  0  0  0  0  0  0
   22.6833  -24.6132  -14.3751 O   0  0  0  0  0  0  0  0  0  0  0  0
   23.9616  -22.8509  -13.3388 C   0  0  0  0  0  0  0  0  0  0  0  0
   25.2630  -22.7285  -12.6395 C   0  0  0  0  0  0  0  0  0  0  0  0
   25.5731  -21.3439  -12.2002 C   0  0  2  0  0  0  0  0  0  0  0  0
   26.4087  -20.6715  -13.2060 N   0  0  0  0  0  0  0  0  0  0  0  0
   26.2086  -21.2538  -10.8672 C   0  0  0  0  0  0  0  0  0  0  0  0
   27.4954  -21.2840  -10.7653 O   0  0  0  0  0  0  0  0  0  0  0  0
   25.5358  -21.1254   -9.6328 N   0  0  0  0  0  0  0  0  0  0  0  0
   26.2666  -21.1991   -8.3502 C   0  0  1  0  0  0  0  0  0  0  0  0
   27.1937  -20.0124   -8.3701 C   0  0  0  0  0  0  0  0  0  0  0  0
   27.9072  -19.7381   -7.1333 C   0  0  0  0  0  0  0  0  0  0  0  0
   27.4087  -18.7401   -6.3078 C   0  0  0  0  0  0  0  0  0  0  0  0
   27.9797  -18.3867   -5.1164 C   0  0  0  0  0  0  0  0  0  0  0  0
   29.1145  -19.0371   -4.6804 C   0  0  0  0  0  0  0  0  0  0  0  0
   29.6351  -20.0437   -5.4915 C   0  0  0  0  0  0  0  0  0  0  0  0
   29.0407  -20.3816   -6.6885 C   0  0  0  0  0  0  0  0  0  0  0  0
   25.3351  -21.0454   -7.2168 C   0  0  0  0  0  0  0  0  0  0  0  0
   24.0499  -20.5598   -7.3742 O   0  0  0  0  0  0  0  0  0  0  0  0
   25.7175  -21.3642   -6.0683 O   0  0  0  0  0  0  0  0  0  0  0  0
  2  1  1  0
  3  2  2  0
  4  3  1  0
  5  4  2  0
  5 11  1  0
  6  5  1  0
  7  6  1  0
  7  8  1  6
  9  7  1  0
  9 10  2  0
 11 12  2  0
 12  2  1  0
 13 14  1  0
 14 16  1  0
 15 14  2  0
 16 17  1  0
 18 17  1  6
 18 19  1  0
 18 20  1  0
 19  9  1  0
 20 21  2  0
 20 22  1  0
 22 23  1  0
 23 31  1  0
 23 24  1  6
 25 24  1  0
 25 30  1  0
 26 25  2  0
 27 26  1  0
 27 28  2  0
 28 29  1  0
 29 30  2  0
 31 33  2  0
 31 32  1  0
M  END
$$$$
