YQF.pdb
     RDKit          3D

 33 34  0  0  1  0  0  0  0  0999 V2000
   16.6157   -7.0554  -22.7752 O   0  0  0  0  0  0  0  0  0  0  0  0
   16.7380   -8.4259  -22.8553 C   0  0  0  0  0  0  0  0  0  0  0  0
   15.7867   -9.1926  -23.4861 C   0  0  0  0  0  0  0  0  0  0  0  0
   15.9126  -10.5651  -23.5643 C   0  0  0  0  0  0  0  0  0  0  0  0
   16.9952  -11.2179  -23.0138 C   0  0  0  0  0  0  0  0  0  0  0  0
   17.1562  -12.7007  -23.0838 C   0  0  0  0  0  0  0  0  0  0  0  0
   17.8766  -13.0097  -24.3764 C   0  0  2  0  0  0  0  0  0  0  0  0
   16.9163  -12.8614  -25.4456 N   0  0  0  0  0  0  0  0  0  0  0  0
   18.4166  -14.3804  -24.4013 C   0  0  0  0  0  0  0  0  0  0  0  0
   17.7914  -15.3413  -24.9485 O   0  0  0  0  0  0  0  0  0  0  0  0
   17.9519  -10.4610  -22.3810 C   0  0  0  0  0  0  0  0  0  0  0  0
   17.8302   -9.0921  -22.3007 C   0  0  0  0  0  0  0  0  0  0  0  0
   24.4274  -15.7753  -24.0299 N   0  0  0  0  0  0  0  0  0  0  0  0
   23.9031  -17.0846  -23.9406 C   0  0  0  0  0  0  0  0  0  0  0  0
   24.6574  -18.0793  -23.9767 O   0  0  0  0  0  0  0  0  0  0  0  0
   22.4011  -17.2478  -23.7995 C   0  0  0  0  0  0  0  0  0  0  0  0
   21.7306  -15.9266  -23.8491 C   0  0  0  0  0  0  0  0  0  0  0  0
   20.2523  -16.0060  -23.7287 C   0  0  2  0  0  0  0  0  0  0  0  0
   19.6677  -14.6590  -23.8042 N   0  0  0  0  0  0  0  0  0  0  0  0
   19.7748  -16.7014  -22.5132 C   0  0  0  0  0  0  0  0  0  0  0  0
   19.4812  -16.0199  -21.4565 O   0  0  0  0  0  0  0  0  0  0  0  0
   19.5877  -18.0934  -22.3714 N   0  0  0  0  0  0  0  0  0  0  0  0
   18.7019  -18.6452  -21.3249 C   0  0  1  0  0  0  0  0  0  0  0  0
   17.3184  -18.2035  -21.7236 C   0  0  0  0  0  0  0  0  0  0  0  0
   16.6896  -17.2160  -20.8614 C   0  0  0  0  0  0  0  0  0  0  0  0
   16.3186  -16.0053  -21.4293 C   0  0  0  0  0  0  0  0  0  0  0  0
   15.7148  -14.9950  -20.7328 C   0  0  0  0  0  0  0  0  0  0  0  0
   15.4449  -15.1540  -19.3902 C   0  0  0  0  0  0  0  0  0  0  0  0
   15.8077  -16.3612  -18.7959 C   0  0  0  0  0  0  0  0  0  0  0  0
   16.4153  -17.3646  -19.5200 C   0  0  0  0  0  0  0  0  0  0  0  0
   18.7439  -20.1196  -21.3390 C   0  0  0  0  0  0  0  0  0  0  0  0
   18.0091  -20.8905  -20.4570 O   0  0  0  0  0  0  0  0  0  0  0  0
   19.4705  -20.6988  -22.1778 O   0  0  0  0  0  0  0  0  0  0  0  0
  2  1  1  0
  3  2  2  0
  4  3  1  0
  5  4  2  0
  5 11  1  0
  6  5  1  0
  7  6  1  0
  7  8  1  6
  9  7  1  0
  9 10  2  0
 11 12  2  0
 12  2  1  0
 13 14  1  0
 14 16  1  0
 15 14  2  0
 16 17  1  0
 18 17  1  1
 18 19  1  0
 18 20  1  0
 19  9  1  0
 20 21  2  0
 20 22  1  0
 22 23  1  0
 23 31  1  0
 23 24  1  6
 25 24  1  0
 25 30  1  0
 26 25  2  0
 27 26  1  0
 27 28  2  0
 28 29  1  0
 29 30  2  0
 31 33  2  0
 31 32  1  0
M  END
$$$$
