YQF.pdb
     RDKit          3D

 33 34  0  0  1  0  0  0  0  0999 V2000
   25.4404  -35.0943  -15.6212 O   0  0  0  0  0  0  0  0  0  0  0  0
   25.5731  -34.5477  -14.3629 C   0  0  0  0  0  0  0  0  0  0  0  0
   25.4910  -33.1900  -14.1612 C   0  0  0  0  0  0  0  0  0  0  0  0
   25.6245  -32.6461  -12.8995 C   0  0  0  0  0  0  0  0  0  0  0  0
   25.8449  -33.4424  -11.7956 C   0  0  0  0  0  0  0  0  0  0  0  0
   25.9932  -32.8807  -10.4201 C   0  0  0  0  0  0  0  0  0  0  0  0
   24.7039  -33.1626   -9.6828 C   0  0  2  0  0  0  0  0  0  0  0  0
   23.7243  -32.2132  -10.1589 N   0  0  0  0  0  0  0  0  0  0  0  0
   24.8499  -33.0128   -8.2244 C   0  0  0  0  0  0  0  0  0  0  0  0
   24.8336  -31.8755   -7.6586 O   0  0  0  0  0  0  0  0  0  0  0  0
   25.9287  -34.8008  -11.9861 C   0  0  0  0  0  0  0  0  0  0  0  0
   25.7961  -35.3473  -13.2426 C   0  0  0  0  0  0  0  0  0  0  0  0
   23.7776  -37.0455   -2.9351 N   0  0  0  0  0  0  0  0  0  0  0  0
   24.6492  -35.9724   -3.2282 C   0  0  0  0  0  0  0  0  0  0  0  0
   25.8757  -36.0678   -3.0131 O   0  0  0  0  0  0  0  0  0  0  0  0
   24.0544  -34.7036   -3.8105 C   0  0  0  0  0  0  0  0  0  0  0  0
   24.0204  -34.7806   -5.2906 C   0  0  0  0  0  0  0  0  0  0  0  0
   25.1651  -34.0988   -5.9471 C   0  0  2  0  0  0  0  0  0  0  0  0
   25.0145  -34.1559   -7.4086 N   0  0  0  0  0  0  0  0  0  0  0  0
   26.4933  -34.6165   -5.5512 C   0  0  0  0  0  0  0  0  0  0  0  0
   27.2133  -35.2608   -6.4077 O   0  0  0  0  0  0  0  0  0  0  0  0
   27.0966  -34.4738   -4.2829 N   0  0  0  0  0  0  0  0  0  0  0  0
   28.4205  -35.0634   -3.9931 C   0  0  1  0  0  0  0  0  0  0  0  0
   29.4089  -34.0889   -4.5776 C   0  0  0  0  0  0  0  0  0  0  0  0
   30.8129  -34.4359   -4.4285 C   0  0  0  0  0  0  0  0  0  0  0  0
   31.4236  -35.1190   -5.4708 C   0  0  0  0  0  0  0  0  0  0  0  0
   32.7372  -35.4995   -5.4606 C   0  0  0  0  0  0  0  0  0  0  0  0
   33.5280  -35.2045   -4.3704 C   0  0  0  0  0  0  0  0  0  0  0  0
   32.9382  -34.5188   -3.3102 C   0  0  0  0  0  0  0  0  0  0  0  0
   31.6115  -34.1460   -3.3446 C   0  0  0  0  0  0  0  0  0  0  0  0
   28.6436  -35.1384   -2.5369 C   0  0  0  0  0  0  0  0  0  0  0  0
   29.3343  -36.1802   -1.9455 O   0  0  0  0  0  0  0  0  0  0  0  0
   28.1923  -34.2284   -1.8053 O   0  0  0  0  0  0  0  0  0  0  0  0
  2  1  1  0
  3  2  2  0
  4  3  1  0
  5  4  2  0
  5 11  1  0
  6  5  1  0
  7  6  1  0
  7  8  1  6
  9  7  1  0
  9 10  2  0
 11 12  2  0
 12  2  1  0
 13 14  1  0
 14 16  1  0
 15 14  2  0
 16 17  1  0
 18 17  1  1
 18 19  1  0
 18 20  1  0
 19  9  1  0
 20 21  2  0
 20 22  1  0
 22 23  1  0
 23 31  1  0
 23 24  1  6
 25 24  1  0
 25 30  1  0
 26 25  2  0
 27 26  1  0
 27 28  2  0
 28 29  1  0
 29 30  2  0
 31 33  2  0
 31 32  1  0
M  END
$$$$
