YQF.pdb
     RDKit          3D

 33 34  0  0  1  0  0  0  0  0999 V2000
   24.9847  -22.5012  -16.3805 O   0  0  0  0  0  0  0  0  0  0  0  0
   24.2164  -23.6103  -16.0991 C   0  0  0  0  0  0  0  0  0  0  0  0
   22.9655  -23.7709  -16.6470 C   0  0  0  0  0  0  0  0  0  0  0  0
   22.1988  -24.8830  -16.3628 C   0  0  0  0  0  0  0  0  0  0  0  0
   22.6576  -25.8734  -15.5201 C   0  0  0  0  0  0  0  0  0  0  0  0
   21.8494  -27.0863  -15.1956 C   0  0  0  0  0  0  0  0  0  0  0  0
   22.5994  -28.2800  -15.7412 C   0  0  2  0  0  0  0  0  0  0  0  0
   22.5312  -28.2040  -17.1824 N   0  0  0  0  0  0  0  0  0  0  0  0
   22.0142  -29.5577  -15.2985 C   0  0  0  0  0  0  0  0  0  0  0  0
   21.0739  -30.1255  -15.9367 O   0  0  0  0  0  0  0  0  0  0  0  0
   23.9066  -25.7228  -14.9671 C   0  0  0  0  0  0  0  0  0  0  0  0
   24.6744  -24.6153  -15.2479 C   0  0  0  0  0  0  0  0  0  0  0  0
   23.2376  -35.0832  -13.4115 N   0  0  0  0  0  0  0  0  0  0  0  0
   23.8470  -34.3613  -14.4625 C   0  0  0  0  0  0  0  0  0  0  0  0
   24.4490  -34.9555  -15.3813 O   0  0  0  0  0  0  0  0  0  0  0  0
   23.7495  -32.8471  -14.4436 C   0  0  0  0  0  0  0  0  0  0  0  0
   22.9928  -32.3926  -13.2527 C   0  0  0  0  0  0  0  0  0  0  0  0
   21.9166  -31.4189  -13.5690 C   0  0  2  0  0  0  0  0  0  0  0  0
   22.4978  -30.1904  -14.1301 N   0  0  0  0  0  0  0  0  0  0  0  0
   21.0352  -31.0902  -12.4271 C   0  0  0  0  0  0  0  0  0  0  0  0
   20.2809  -32.0038  -11.9136 O   0  0  0  0  0  0  0  0  0  0  0  0
   20.9236  -29.8309  -11.7989 N   0  0  0  0  0  0  0  0  0  0  0  0
   19.9439  -29.5980  -10.7171 C   0  0  1  0  0  0  0  0  0  0  0  0
   20.7730  -29.1587   -9.5390 C   0  0  0  0  0  0  0  0  0  0  0  0
   21.6838  -30.1517   -8.9927 C   0  0  0  0  0  0  0  0  0  0  0  0
   23.0420  -29.9740   -9.2150 C   0  0  0  0  0  0  0  0  0  0  0  0
   24.0038  -30.8293   -8.7526 C   0  0  0  0  0  0  0  0  0  0  0  0
   23.6395  -31.9399   -8.0214 C   0  0  0  0  0  0  0  0  0  0  0  0
   22.2810  -32.1410   -7.7841 C   0  0  0  0  0  0  0  0  0  0  0  0
   21.3305  -31.2638   -8.2612 C   0  0  0  0  0  0  0  0  0  0  0  0
   19.0278  -28.5001  -11.0791 C   0  0  0  0  0  0  0  0  0  0  0  0
   18.2712  -27.8253  -10.1387 O   0  0  0  0  0  0  0  0  0  0  0  0
   18.9274  -28.1636  -12.2807 O   0  0  0  0  0  0  0  0  0  0  0  0
  2  1  1  0
  3  2  2  0
  4  3  1  0
  5  4  2  0
  5 11  1  0
  6  5  1  0
  7  6  1  0
  7  8  1  6
  9  7  1  0
  9 10  2  0
 11 12  2  0
 12  2  1  0
 13 14  1  0
 14 16  1  0
 15 14  2  0
 16 17  1  0
 18 17  1  1
 18 19  1  0
 18 20  1  0
 19  9  1  0
 20 21  2  0
 20 22  1  0
 22 23  1  0
 23 31  1  0
 23 24  1  1
 25 24  1  0
 25 30  1  0
 26 25  2  0
 27 26  1  0
 27 28  2  0
 28 29  1  0
 29 30  2  0
 31 33  2  0
 31 32  1  0
M  END
$$$$
