IPP.pdb
     RDKit          3D

 23 24  0  0  1  0  0  0  0  0999 V2000
   10.9547  -14.7993   30.6650 C   0  0  0  0  0  0  0  0  0  0  0  0
    9.5706  -15.3214   30.3755 C   0  0  0  0  0  0  0  0  0  0  0  0
    9.2366  -15.3772   28.9129 C   0  0  2  0  0  0  0  0  0  0  0  0
    9.3692  -13.9411   28.3965 C   0  0  0  0  0  0  0  0  0  0  0  0
    7.8310  -15.8827   28.6045 C   0  0  2  0  0  0  0  0  0  0  0  0
    7.9617  -17.3516   28.9304 N   0  0  0  0  0  0  0  0  0  0  0  0
    7.4371  -15.7576   27.2032 C   0  0  0  0  0  0  0  0  0  0  0  0
    6.9475  -16.8078   26.6435 O   0  0  0  0  0  0  0  0  0  0  0  0
    7.5148  -14.6265   26.3591 N   0  0  0  0  0  0  0  0  0  0  0  0
    8.1244  -13.3690   26.6668 C   0  0  0  0  0  0  0  0  0  0  0  0
    7.2575  -12.3293   26.0194 C   0  0  0  0  0  0  0  0  0  0  0  0
    6.4454  -13.0880   25.0120 C   0  0  0  0  0  0  0  0  0  0  0  0
    7.0120  -14.4828   24.9809 C   0  0  1  0  0  0  0  0  0  0  0  0
    8.0864  -14.6972   24.0253 C   0  0  0  0  0  0  0  0  0  0  0  0
    9.2717  -14.7981   24.4823 O   0  0  0  0  0  0  0  0  0  0  0  0
    7.9738  -14.8094   22.6171 N   0  0  0  0  0  0  0  0  0  0  0  0
    7.2228  -13.9194   21.7756 C   0  0  0  0  0  0  0  0  0  0  0  0
    6.6346  -14.8201   20.7237 C   0  0  0  0  0  0  0  0  0  0  0  0
    7.5142  -16.0519   20.6941 C   0  0  0  0  0  0  0  0  0  0  0  0
    8.5724  -15.7949   21.7386 C   0  0  1  0  0  0  0  0  0  0  0  0
    9.7802  -15.2464   21.0484 C   0  0  0  0  0  0  0  0  0  0  0  0
   10.7236  -16.0814   20.4783 O   0  0  0  0  0  0  0  0  0  0  0  0
    9.9137  -14.0182   20.9987 O   0  0  0  0  0  0  0  0  0  0  0  0
  1  2  1  0
  3  4  1  1
  3  2  1  0
  5  3  1  0
  5  6  1  6
  7  8  2  0
  7  5  1  0
  9  7  1  0
 10  9  1  0
 11 10  1  0
 12 11  1  0
 12 13  1  0
 13 14  1  6
 13  9  1  0
 14 15  2  0
 16 17  1  0
 16 14  1  0
 18 17  1  0
 19 20  1  0
 19 18  1  0
 20 16  1  0
 20 21  1  6
 21 22  1  0
 23 21  2  0
M  END
$$$$
