IPP.pdb
     RDKit          3D

 23 24  0  0  1  0  0  0  0  0999 V2000
   11.3896  -15.0677   30.1071 C   0  0  0  0  0  0  0  0  0  0  0  0
    9.9374  -15.4586   30.0050 C   0  0  0  0  0  0  0  0  0  0  0  0
    9.4096  -15.4711   28.5995 C   0  0  2  0  0  0  0  0  0  0  0  0
    9.6205  -14.0534   28.0588 C   0  0  0  0  0  0  0  0  0  0  0  0
    7.9311  -15.8268   28.4829 C   0  0  2  0  0  0  0  0  0  0  0  0
    7.9459  -17.2940   28.8407 N   0  0  0  0  0  0  0  0  0  0  0  0
    7.3801  -15.6891   27.1369 C   0  0  0  0  0  0  0  0  0  0  0  0
    6.8453  -16.7393   26.6200 O   0  0  0  0  0  0  0  0  0  0  0  0
    7.3465  -14.5457   26.3065 N   0  0  0  0  0  0  0  0  0  0  0  0
    7.7924  -13.2288   26.6447 C   0  0  0  0  0  0  0  0  0  0  0  0
    6.8266  -12.2913   25.9816 C   0  0  0  0  0  0  0  0  0  0  0  0
    6.1402  -13.1278   24.9427 C   0  0  0  0  0  0  0  0  0  0  0  0
    6.8700  -14.4447   24.9152 C   0  0  1  0  0  0  0  0  0  0  0  0
    7.9894  -14.5169   23.9904 C   0  0  0  0  0  0  0  0  0  0  0  0
    9.1644  -14.4513   24.4794 O   0  0  0  0  0  0  0  0  0  0  0  0
    7.9319  -14.6537   22.5811 N   0  0  0  0  0  0  0  0  0  0  0  0
    7.0190  -13.9535   21.7204 C   0  0  0  0  0  0  0  0  0  0  0  0
    6.6653  -14.9639   20.6633 C   0  0  0  0  0  0  0  0  0  0  0  0
    7.7962  -15.9704   20.6574 C   0  0  0  0  0  0  0  0  0  0  0  0
    8.7507  -15.4837   21.7198 C   0  0  1  0  0  0  0  0  0  0  0  0
    9.8203  -14.6825   21.0489 C   0  0  0  0  0  0  0  0  0  0  0  0
   10.9172  -15.2919   20.4677 O   0  0  0  0  0  0  0  0  0  0  0  0
    9.6969  -13.4524   21.0253 O   0  0  0  0  0  0  0  0  0  0  0  0
  1  2  1  0
  3  4  1  1
  3  2  1  0
  5  3  1  0
  5  6  1  6
  7  8  2  0
  7  5  1  0
  9  7  1  0
 10  9  1  0
 11 10  1  0
 12 11  1  0
 12 13  1  0
 13 14  1  6
 13  9  1  0
 14 15  2  0
 16 17  1  0
 16 14  1  0
 18 17  1  0
 19 20  1  0
 19 18  1  0
 20 16  1  0
 20 21  1  6
 21 22  1  0
 23 21  2  0
M  END
$$$$
