IPP.pdb
     RDKit          3D

 23 24  0  0  1  0  0  0  0  0999 V2000
    9.2551  -13.1392   27.5863 C   0  0  0  0  0  0  0  0  0  0  0  0
    8.0342  -13.9061   27.1464 C   0  0  0  0  0  0  0  0  0  0  0  0
    7.2458  -13.2240   26.0659 C   0  0  2  0  0  0  0  0  0  0  0  0
    6.5521  -12.0353   26.7385 C   0  0  0  0  0  0  0  0  0  0  0  0
    6.1874  -14.1018   25.4061 C   0  0  2  0  0  0  0  0  0  0  0  0
    5.7187  -14.9367   26.5741 N   0  0  0  0  0  0  0  0  0  0  0  0
    6.7034  -15.0018   24.3775 C   0  0  0  0  0  0  0  0  0  0  0  0
    6.4048  -16.2480   24.4957 O   0  0  0  0  0  0  0  0  0  0  0  0
    7.4956  -14.6942   23.2480 N   0  0  0  0  0  0  0  0  0  0  0  0
    8.0709  -13.4241   22.9262 C   0  0  0  0  0  0  0  0  0  0  0  0
    7.9854  -13.3074   21.4327 C   0  0  0  0  0  0  0  0  0  0  0  0
    7.7615  -14.7118   20.9557 C   0  0  0  0  0  0  0  0  0  0  0  0
    7.9243  -15.5961   22.1637 C   0  0  1  0  0  0  0  0  0  0  0  0
    9.2754  -16.0743   22.4076 C   0  0  0  0  0  0  0  0  0  0  0  0
    9.9591  -15.4803   23.3040 O   0  0  0  0  0  0  0  0  0  0  0  0
    9.9391  -17.1432   21.7555 N   0  0  0  0  0  0  0  0  0  0  0  0
    9.5577  -17.7007   20.4874 C   0  0  0  0  0  0  0  0  0  0  0  0
    9.8205  -19.1740   20.6419 C   0  0  0  0  0  0  0  0  0  0  0  0
   10.8369  -19.2988   21.7569 C   0  0  0  0  0  0  0  0  0  0  0  0
   11.1095  -17.8795   22.1904 C   0  0  1  0  0  0  0  0  0  0  0  0
   12.3414  -17.4089   21.4853 C   0  0  0  0  0  0  0  0  0  0  0  0
   12.2696  -16.5169   20.4309 O   0  0  0  0  0  0  0  0  0  0  0  0
   13.4336  -17.8393   21.8732 O   0  0  0  0  0  0  0  0  0  0  0  0
  1  2  1  0
  3  4  1  1
  3  2  1  0
  5  3  1  0
  5  6  1  1
  7  8  2  0
  7  5  1  0
  9  7  1  0
 10  9  1  0
 11 10  1  0
 12 11  1  0
 12 13  1  0
 13 14  1  1
 13  9  1  0
 14 15  2  0
 16 17  1  0
 16 14  1  0
 18 17  1  0
 19 20  1  0
 19 18  1  0
 20 16  1  0
 20 21  1  6
 21 22  1  0
 23 21  2  0
M  END
$$$$
