IPP.pdb
     RDKit          3D

 23 24  0  0  1  0  0  0  0  0999 V2000
   11.2434  -14.8583   30.1636 C   0  0  0  0  0  0  0  0  0  0  0  0
    9.9005  -15.5185   29.9821 C   0  0  0  0  0  0  0  0  0  0  0  0
    9.3717  -15.4430   28.5790 C   0  0  2  0  0  0  0  0  0  0  0  0
    9.3792  -13.9572   28.2064 C   0  0  0  0  0  0  0  0  0  0  0  0
    7.9569  -15.9859   28.4069 C   0  0  2  0  0  0  0  0  0  0  0  0
    8.1640  -17.4567   28.6802 N   0  0  0  0  0  0  0  0  0  0  0  0
    7.4139  -15.8426   27.0582 C   0  0  0  0  0  0  0  0  0  0  0  0
    6.9171  -16.9000   26.5187 O   0  0  0  0  0  0  0  0  0  0  0  0
    7.3516  -14.6868   26.2468 N   0  0  0  0  0  0  0  0  0  0  0  0
    7.7707  -13.3662   26.6045 C   0  0  0  0  0  0  0  0  0  0  0  0
    6.7818  -12.4391   25.9611 C   0  0  0  0  0  0  0  0  0  0  0  0
    6.1086  -13.2733   24.9118 C   0  0  0  0  0  0  0  0  0  0  0  0
    6.8664  -14.5735   24.8595 C   0  0  1  0  0  0  0  0  0  0  0  0
    7.9827  -14.6064   23.9286 C   0  0  0  0  0  0  0  0  0  0  0  0
    9.1513  -14.4191   24.4012 O   0  0  0  0  0  0  0  0  0  0  0  0
    7.9284  -14.8255   22.5296 N   0  0  0  0  0  0  0  0  0  0  0  0
    7.1154  -14.0806   21.6085 C   0  0  0  0  0  0  0  0  0  0  0  0
    6.6599  -15.1087   20.6089 C   0  0  0  0  0  0  0  0  0  0  0  0
    7.6650  -16.2380   20.6889 C   0  0  0  0  0  0  0  0  0  0  0  0
    8.6557  -15.7984   21.7386 C   0  0  1  0  0  0  0  0  0  0  0  0
    9.8207  -15.1714   21.0416 C   0  0  0  0  0  0  0  0  0  0  0  0
   10.0034  -13.8007   21.0380 O   0  0  0  0  0  0  0  0  0  0  0  0
   10.6231  -15.9155   20.4662 O   0  0  0  0  0  0  0  0  0  0  0  0
  1  2  1  0
  3  4  1  1
  3  2  1  0
  5  3  1  0
  5  6  1  6
  7  8  2  0
  7  5  1  0
  9  7  1  0
 10  9  1  0
 11 10  1  0
 12 11  1  0
 12 13  1  0
 13 14  1  6
 13  9  1  0
 14 15  2  0
 16 17  1  0
 16 14  1  0
 18 17  1  0
 19 20  1  0
 19 18  1  0
 20 16  1  0
 20 21  1  6
 21 22  1  0
 23 21  2  0
M  END
$$$$
