IPP.pdb
     RDKit          3D

 23 24  0  0  1  0  0  0  0  0999 V2000
   10.7854  -14.2229   29.9189 C   0  0  0  0  0  0  0  0  0  0  0  0
    9.4426  -14.8135   29.5725 C   0  0  0  0  0  0  0  0  0  0  0  0
    9.2725  -15.1196   28.1125 C   0  0  2  0  0  0  0  0  0  0  0  0
    9.5720  -13.8127   27.3715 C   0  0  0  0  0  0  0  0  0  0  0  0
    7.8762  -15.5954   27.7251 C   0  0  2  0  0  0  0  0  0  0  0  0
    7.7810  -16.8974   28.4845 N   0  0  0  0  0  0  0  0  0  0  0  0
    7.7077  -15.8815   26.3024 C   0  0  0  0  0  0  0  0  0  0  0  0
    7.4044  -17.0917   25.9872 O   0  0  0  0  0  0  0  0  0  0  0  0
    7.8289  -15.0026   25.2020 N   0  0  0  0  0  0  0  0  0  0  0  0
    8.2336  -13.6307   25.2427 C   0  0  0  0  0  0  0  0  0  0  0  0
    7.4048  -12.9328   24.2047 C   0  0  0  0  0  0  0  0  0  0  0  0
    6.8857  -14.0360   23.3308 C   0  0  0  0  0  0  0  0  0  0  0  0
    7.5894  -15.2905   23.7763 C   0  0  1  0  0  0  0  0  0  0  0  0
    8.8445  -15.5741   23.0995 C   0  0  0  0  0  0  0  0  0  0  0  0
    9.9222  -15.2275   23.6845 O   0  0  0  0  0  0  0  0  0  0  0  0
    9.0190  -16.2020   21.8411 N   0  0  0  0  0  0  0  0  0  0  0  0
    8.1115  -16.0951   20.7324 C   0  0  0  0  0  0  0  0  0  0  0  0
    8.1337  -17.4640   20.1085 C   0  0  0  0  0  0  0  0  0  0  0  0
    9.4405  -18.0948   20.5402 C   0  0  0  0  0  0  0  0  0  0  0  0
   10.1090  -17.0481   21.3971 C   0  0  1  0  0  0  0  0  0  0  0  0
   11.0701  -16.2910   20.5373 C   0  0  0  0  0  0  0  0  0  0  0  0
   12.3805  -16.7061   20.3864 O   0  0  0  0  0  0  0  0  0  0  0  0
   10.6595  -15.2781   19.9592 O   0  0  0  0  0  0  0  0  0  0  0  0
  1  2  1  0
  3  4  1  6
  3  2  1  0
  5  3  1  0
  5  6  1  1
  7  8  2  0
  7  5  1  0
  9  7  1  0
 10  9  1  0
 11 10  1  0
 12 11  1  0
 12 13  1  0
 13 14  1  6
 13  9  1  0
 14 15  2  0
 16 17  1  0
 16 14  1  0
 18 17  1  0
 19 20  1  0
 19 18  1  0
 20 16  1  0
 20 21  1  6
 21 22  1  0
 23 21  2  0
M  END
$$$$
