IPP.pdb
     RDKit          3D

 23 24  0  0  1  0  0  0  0  0999 V2000
   11.3912  -14.7317   29.9597 C   0  0  0  0  0  0  0  0  0  0  0  0
   10.0511  -15.4133   29.8522 C   0  0  0  0  0  0  0  0  0  0  0  0
    9.4587  -15.3732   28.4732 C   0  0  2  0  0  0  0  0  0  0  0  0
    9.4765  -13.9009   28.0508 C   0  0  0  0  0  0  0  0  0  0  0  0
    8.0274  -15.8927   28.3850 C   0  0  2  0  0  0  0  0  0  0  0  0
    8.2249  -17.3651   28.6570 N   0  0  0  0  0  0  0  0  0  0  0  0
    7.4117  -15.7486   27.0680 C   0  0  0  0  0  0  0  0  0  0  0  0
    6.8026  -16.7801   26.5977 O   0  0  0  0  0  0  0  0  0  0  0  0
    7.3855  -14.6167   26.2218 N   0  0  0  0  0  0  0  0  0  0  0  0
    7.8622  -13.3040   26.5331 C   0  0  0  0  0  0  0  0  0  0  0  0
    6.9032  -12.3575   25.8728 C   0  0  0  0  0  0  0  0  0  0  0  0
    6.1832  -13.1954   24.8581 C   0  0  0  0  0  0  0  0  0  0  0  0
    6.8872  -14.5264   24.8374 C   0  0  1  0  0  0  0  0  0  0  0  0
    7.9889  -14.6334   23.8949 C   0  0  0  0  0  0  0  0  0  0  0  0
    9.1679  -14.4472   24.3413 O   0  0  0  0  0  0  0  0  0  0  0  0
    7.9097  -14.9250   22.5104 N   0  0  0  0  0  0  0  0  0  0  0  0
    7.0701  -14.2374   21.5687 C   0  0  0  0  0  0  0  0  0  0  0  0
    6.6071  -15.3206   20.6328 C   0  0  0  0  0  0  0  0  0  0  0  0
    7.6266  -16.4335   20.7505 C   0  0  0  0  0  0  0  0  0  0  0  0
    8.6326  -15.9298   21.7560 C   0  0  1  0  0  0  0  0  0  0  0  0
    9.7763  -15.3273   21.0043 C   0  0  0  0  0  0  0  0  0  0  0  0
   10.8085  -16.1089   20.5185 O   0  0  0  0  0  0  0  0  0  0  0  0
    9.7744  -14.1039   20.8254 O   0  0  0  0  0  0  0  0  0  0  0  0
  1  2  1  0
  3  4  1  1
  3  2  1  0
  5  3  1  0
  5  6  1  6
  7  8  2  0
  7  5  1  0
  9  7  1  0
 10  9  1  0
 11 10  1  0
 12 11  1  0
 12 13  1  0
 13 14  1  6
 13  9  1  0
 14 15  2  0
 16 17  1  0
 16 14  1  0
 18 17  1  0
 19 20  1  0
 19 18  1  0
 20 16  1  0
 20 21  1  6
 21 22  1  0
 23 21  2  0
M  END
$$$$
