IPP.pdb
     RDKit          3D

 23 24  0  0  1  0  0  0  0  0999 V2000
    7.4548  -11.3411   27.6528 C   0  0  0  0  0  0  0  0  0  0  0  0
    6.4986  -12.1553   26.8191 C   0  0  0  0  0  0  0  0  0  0  0  0
    7.1438  -13.3107   26.1101 C   0  0  2  0  0  0  0  0  0  0  0  0
    8.2432  -12.7043   25.2325 C   0  0  0  0  0  0  0  0  0  0  0  0
    6.1982  -14.1174   25.2263 C   0  0  2  0  0  0  0  0  0  0  0  0
    5.3250  -14.7919   26.2575 N   0  0  0  0  0  0  0  0  0  0  0  0
    6.8510  -15.1540   24.4301 C   0  0  0  0  0  0  0  0  0  0  0  0
    6.7768  -16.3590   24.8758 O   0  0  0  0  0  0  0  0  0  0  0  0
    7.5629  -15.0214   23.2162 N   0  0  0  0  0  0  0  0  0  0  0  0
    7.9765  -13.8004   22.5953 C   0  0  0  0  0  0  0  0  0  0  0  0
    7.8265  -14.0253   21.1194 C   0  0  0  0  0  0  0  0  0  0  0  0
    7.7496  -15.5159   20.9699 C   0  0  0  0  0  0  0  0  0  0  0  0
    8.0549  -16.0901   22.3280 C   0  0  1  0  0  0  0  0  0  0  0  0
    9.4597  -16.3584   22.5890 C   0  0  0  0  0  0  0  0  0  0  0  0
   10.1208  -15.4754   23.2271 O   0  0  0  0  0  0  0  0  0  0  0  0
   10.1995  -17.5067   22.2116 N   0  0  0  0  0  0  0  0  0  0  0  0
    9.8156  -18.4350   21.1843 C   0  0  0  0  0  0  0  0  0  0  0  0
   10.2414  -19.7735   21.7235 C   0  0  0  0  0  0  0  0  0  0  0  0
   11.3207  -19.4843   22.7450 C   0  0  0  0  0  0  0  0  0  0  0  0
   11.4623  -17.9821   22.7412 C   0  0  1  0  0  0  0  0  0  0  0  0
   12.5995  -17.6268   21.8376 C   0  0  0  0  0  0  0  0  0  0  0  0
   13.9072  -17.6443   22.2870 O   0  0  0  0  0  0  0  0  0  0  0  0
   12.3388  -17.3166   20.6694 O   0  0  0  0  0  0  0  0  0  0  0  0
  1  2  1  0
  3  4  1  6
  3  2  1  0
  5  3  1  0
  5  6  1  1
  7  8  2  0
  7  5  1  0
  9  7  1  0
 10  9  1  0
 11 10  1  0
 12 11  1  0
 12 13  1  0
 13 14  1  6
 13  9  1  0
 14 15  2  0
 16 17  1  0
 16 14  1  0
 18 17  1  0
 19 20  1  0
 19 18  1  0
 20 16  1  0
 20 21  1  6
 21 22  1  0
 23 21  2  0
M  END
$$$$
