IPP.pdb
     RDKit          3D

 23 24  0  0  1  0  0  0  0  0999 V2000
    6.9755  -11.5315   27.7718 C   0  0  0  0  0  0  0  0  0  0  0  0
    6.1574  -12.4101   26.8603 C   0  0  0  0  0  0  0  0  0  0  0  0
    6.9624  -13.4507   26.1371 C   0  0  2  0  0  0  0  0  0  0  0  0
    7.9963  -12.6815   25.3087 C   0  0  0  0  0  0  0  0  0  0  0  0
    6.1499  -14.3424   25.2039 C   0  0  2  0  0  0  0  0  0  0  0  0
    5.3009  -15.1122   26.1876 N   0  0  0  0  0  0  0  0  0  0  0  0
    6.9446  -15.2993   24.4376 C   0  0  0  0  0  0  0  0  0  0  0  0
    6.9974  -16.5025   24.8911 O   0  0  0  0  0  0  0  0  0  0  0  0
    7.6747  -15.0903   23.2455 N   0  0  0  0  0  0  0  0  0  0  0  0
    7.9999  -13.8302   22.6506 C   0  0  0  0  0  0  0  0  0  0  0  0
    7.9087  -14.0462   21.1686 C   0  0  0  0  0  0  0  0  0  0  0  0
    7.9622  -15.5357   20.9995 C   0  0  0  0  0  0  0  0  0  0  0  0
    8.2787  -16.1011   22.3588 C   0  0  1  0  0  0  0  0  0  0  0  0
    9.6938  -16.2538   22.6554 C   0  0  0  0  0  0  0  0  0  0  0  0
   10.2793  -15.2914   23.2510 O   0  0  0  0  0  0  0  0  0  0  0  0
   10.5191  -17.3661   22.3557 N   0  0  0  0  0  0  0  0  0  0  0  0
   10.2777  -18.3131   21.3025 C   0  0  0  0  0  0  0  0  0  0  0  0
   10.7136  -19.6290   21.8871 C   0  0  0  0  0  0  0  0  0  0  0  0
   11.6774  -19.2875   23.0035 C   0  0  0  0  0  0  0  0  0  0  0  0
   11.7476  -17.7802   23.0042 C   0  0  1  0  0  0  0  0  0  0  0  0
   12.9467  -17.3725   22.2091 C   0  0  0  0  0  0  0  0  0  0  0  0
   14.2025  -17.3077   22.7844 O   0  0  0  0  0  0  0  0  0  0  0  0
   12.7855  -17.0947   21.0151 O   0  0  0  0  0  0  0  0  0  0  0  0
  1  2  1  0
  3  4  1  6
  3  2  1  0
  5  3  1  0
  5  6  1  1
  7  8  2  0
  7  5  1  0
  9  7  1  0
 10  9  1  0
 11 10  1  0
 12 11  1  0
 12 13  1  0
 13 14  1  1
 13  9  1  0
 14 15  2  0
 16 17  1  0
 16 14  1  0
 18 17  1  0
 19 20  1  0
 19 18  1  0
 20 16  1  0
 20 21  1  6
 21 22  1  0
 23 21  2  0
M  END
$$$$
