IPP.pdb
     RDKit          3D

 23 24  0  0  1  0  0  0  0  0999 V2000
    7.1544  -11.8002   28.0349 C   0  0  0  0  0  0  0  0  0  0  0  0
    6.3015  -12.5207   27.0222 C   0  0  0  0  0  0  0  0  0  0  0  0
    7.0501  -13.5408   26.2141 C   0  0  2  0  0  0  0  0  0  0  0  0
    8.0996  -12.7586   25.4183 C   0  0  0  0  0  0  0  0  0  0  0  0
    6.1850  -14.3339   25.2401 C   0  0  2  0  0  0  0  0  0  0  0  0
    5.3343  -15.1468   26.1869 N   0  0  0  0  0  0  0  0  0  0  0  0
    6.9276  -15.2563   24.3845 C   0  0  0  0  0  0  0  0  0  0  0  0
    6.9915  -16.4817   24.7726 O   0  0  0  0  0  0  0  0  0  0  0  0
    7.5955  -14.9920   23.1672 N   0  0  0  0  0  0  0  0  0  0  0  0
    7.8643  -13.7062   22.5998 C   0  0  0  0  0  0  0  0  0  0  0  0
    7.7077  -13.8767   21.1173 C   0  0  0  0  0  0  0  0  0  0  0  0
    7.7859  -15.3583   20.8967 C   0  0  0  0  0  0  0  0  0  0  0  0
    8.1790  -15.9594   22.2202 C   0  0  1  0  0  0  0  0  0  0  0  0
    9.6095  -16.0881   22.4452 C   0  0  0  0  0  0  0  0  0  0  0  0
   10.2043  -15.1245   23.0298 O   0  0  0  0  0  0  0  0  0  0  0  0
   10.4411  -17.1777   22.0853 N   0  0  0  0  0  0  0  0  0  0  0  0
   10.1224  -18.1667   21.0930 C   0  0  0  0  0  0  0  0  0  0  0  0
   10.6746  -19.4457   21.6611 C   0  0  0  0  0  0  0  0  0  0  0  0
   11.7424  -19.0321   22.6514 C   0  0  0  0  0  0  0  0  0  0  0  0
   11.7504  -17.5241   22.6020 C   0  0  1  0  0  0  0  0  0  0  0  0
   12.8352  -17.0975   21.6653 C   0  0  0  0  0  0  0  0  0  0  0  0
   12.5540  -16.7143   20.3667 O   0  0  0  0  0  0  0  0  0  0  0  0
   13.9981  -17.0944   22.0854 O   0  0  0  0  0  0  0  0  0  0  0  0
  1  2  1  0
  3  4  1  6
  3  2  1  0
  5  3  1  0
  5  6  1  1
  7  8  2  0
  7  5  1  0
  9  7  1  0
 10  9  1  0
 11 10  1  0
 12 11  1  0
 12 13  1  0
 13 14  1  6
 13  9  1  0
 14 15  2  0
 16 17  1  0
 16 14  1  0
 18 17  1  0
 19 20  1  0
 19 18  1  0
 20 16  1  0
 20 21  1  6
 21 22  1  0
 23 21  2  0
M  END
$$$$
