IPP.pdb
     RDKit          3D

 23 24  0  0  1  0  0  0  0  0999 V2000
   11.1358  -14.4993   30.3600 C   0  0  0  0  0  0  0  0  0  0  0  0
    9.8300  -15.2223   30.1498 C   0  0  0  0  0  0  0  0  0  0  0  0
    9.3712  -15.2435   28.7204 C   0  0  2  0  0  0  0  0  0  0  0  0
    9.2762  -13.7770   28.2878 C   0  0  0  0  0  0  0  0  0  0  0  0
    8.0166  -15.9093   28.5014 C   0  0  2  0  0  0  0  0  0  0  0  0
    8.3409  -17.3545   28.7963 N   0  0  0  0  0  0  0  0  0  0  0  0
    7.5144  -15.8227   27.1322 C   0  0  0  0  0  0  0  0  0  0  0  0
    7.0887  -16.9151   26.6015 O   0  0  0  0  0  0  0  0  0  0  0  0
    7.4239  -14.6895   26.2922 N   0  0  0  0  0  0  0  0  0  0  0  0
    7.8271  -13.3539   26.6101 C   0  0  0  0  0  0  0  0  0  0  0  0
    6.8158  -12.4589   25.9560 C   0  0  0  0  0  0  0  0  0  0  0  0
    6.1424  -13.3302   24.9374 C   0  0  0  0  0  0  0  0  0  0  0  0
    6.9195  -14.6197   24.9088 C   0  0  1  0  0  0  0  0  0  0  0  0
    8.0243  -14.6600   23.9646 C   0  0  0  0  0  0  0  0  0  0  0  0
    9.2033  -14.5259   24.4293 O   0  0  0  0  0  0  0  0  0  0  0  0
    7.9481  -14.8332   22.5602 N   0  0  0  0  0  0  0  0  0  0  0  0
    7.1192  -14.0604   21.6770 C   0  0  0  0  0  0  0  0  0  0  0  0
    6.6497  -15.0562   20.6516 C   0  0  0  0  0  0  0  0  0  0  0  0
    7.6579  -16.1852   20.6785 C   0  0  0  0  0  0  0  0  0  0  0  0
    8.6644  -15.7781   21.7263 C   0  0  1  0  0  0  0  0  0  0  0  0
    9.8171  -15.1259   21.0319 C   0  0  0  0  0  0  0  0  0  0  0  0
   10.8489  -15.8736   20.4947 O   0  0  0  0  0  0  0  0  0  0  0  0
    9.8230  -13.8924   20.9483 O   0  0  0  0  0  0  0  0  0  0  0  0
  1  2  1  0
  3  4  1  1
  3  2  1  0
  5  3  1  0
  5  6  1  6
  7  8  2  0
  7  5  1  0
  9  7  1  0
 10  9  1  0
 11 10  1  0
 12 11  1  0
 12 13  1  0
 13 14  1  6
 13  9  1  0
 14 15  2  0
 16 17  1  0
 16 14  1  0
 18 17  1  0
 19 20  1  0
 19 18  1  0
 20 16  1  0
 20 21  1  6
 21 22  1  0
 23 21  2  0
M  END
$$$$
