HED.pdb
     RDKit          3D

 28 28  0  0  1  0  0  0  0  0999 V2000
   13.9518  -16.3249   14.6628 N   0  0  0  0  0  0  0  0  0  0  0  0
   15.3673  -16.4341   14.9586 C   0  0  1  0  0  0  0  0  0  0  0  0
   16.0453  -15.1700   14.4666 C   0  0  0  0  0  0  0  0  0  0  0  0
   16.1045  -15.1168   12.9964 C   0  0  0  0  0  0  0  0  0  0  0  0
   15.2953  -14.3405   12.2022 C   0  0  0  0  0  0  0  0  0  0  0  0
   15.6147  -14.5346   10.8979 N   0  0  0  0  0  0  0  0  0  0  0  0
   16.6259  -15.4353   10.8906 C   0  0  0  0  0  0  0  0  0  0  0  0
   16.9213  -15.7877   12.1764 N   0  0  0  0  0  0  0  0  0  0  0  0
   15.5082  -16.6172   16.4206 C   0  0  0  0  0  0  0  0  0  0  0  0
   14.8505  -15.8605   17.1756 O   0  0  0  0  0  0  0  0  0  0  0  0
   16.3403  -17.5943   17.0273 N   0  0  0  0  0  0  0  0  0  0  0  0
   16.4038  -17.7301   18.4906 C   0  0  1  0  0  0  0  0  0  0  0  0
   16.2377  -19.1888   18.8528 C   0  0  0  0  0  0  0  0  0  0  0  0
   16.3457  -19.4364   20.3207 C   0  0  0  0  0  0  0  0  0  0  0  0
   16.1895  -20.8806   20.5888 C   0  0  0  0  0  0  0  0  0  0  0  0
   15.4858  -21.2596   21.5494 O   0  0  0  0  0  0  0  0  0  0  0  0
   17.6514  -17.1579   19.0078 C   0  0  0  0  0  0  0  0  0  0  0  0
   18.7014  -17.2533   18.3312 O   0  0  0  0  0  0  0  0  0  0  0  0
   16.8066  -21.8287   19.7986 O   0  0  0  0  0  0  0  0  0  0  0  0
   17.6910  -16.5013   20.2555 N   0  0  0  0  0  0  0  0  0  0  0  0
   18.9277  -15.9243   20.8194 C   0  0  1  0  0  0  0  0  0  0  0  0
   18.6869  -14.5586   21.3449 C   0  0  0  0  0  0  0  0  0  0  0  0
   19.9233  -13.9671   21.8787 C   0  0  0  0  0  0  0  0  0  0  0  0
   21.0589  -14.4805   21.8402 O   0  0  0  0  0  0  0  0  0  0  0  0
   19.4614  -16.8873   21.8289 C   0  0  0  0  0  0  0  0  0  0  0  0
   20.6457  -16.6990   22.2894 O   0  0  0  0  0  0  0  0  0  0  0  0
   19.8989  -12.6943   22.5113 O   0  0  0  0  0  0  0  0  0  0  0  0
   18.8184  -17.9833   22.3396 O   0  0  0  0  0  0  0  0  0  0  0  0
  2  1  1  1
  3  4  1  0
  3  2  1  0
  4  5  2  0
  6  5  1  0
  7  6  1  0
  8  7  2  0
  8  4  1  0
  9  2  1  0
  9 11  1  0
 10  9  2  0
 11 12  1  0
 12 13  1  6
 13 14  1  0
 14 15  1  0
 15 19  1  0
 16 15  2  0
 17 12  1  0
 18 17  2  0
 20 17  1  0
 21 20  1  0
 21 25  1  0
 21 22  1  1
 23 22  1  0
 23 27  1  0
 24 23  2  0
 25 28  1  0
 26 25  2  0
M  END
$$$$
