HED.pdb
     RDKit          3D

 28 28  0  0  1  0  0  0  0  0999 V2000
    8.1270  -16.5985   20.5431 N   0  0  0  0  0  0  0  0  0  0  0  0
    8.1416  -15.7375   21.7100 C   0  0  1  0  0  0  0  0  0  0  0  0
    7.1836  -14.5900   21.4547 C   0  0  0  0  0  0  0  0  0  0  0  0
    7.4954  -13.8848   20.2004 C   0  0  0  0  0  0  0  0  0  0  0  0
    8.3403  -12.8067   20.0910 C   0  0  0  0  0  0  0  0  0  0  0  0
    8.3983  -12.4022   18.7972 N   0  0  0  0  0  0  0  0  0  0  0  0
    7.5845  -13.2365   18.1077 C   0  0  0  0  0  0  0  0  0  0  0  0
    7.0351  -14.1410   18.9707 N   0  0  0  0  0  0  0  0  0  0  0  0
    7.7432  -16.5557   22.8773 C   0  0  0  0  0  0  0  0  0  0  0  0
    7.2182  -15.9708   23.8557 O   0  0  0  0  0  0  0  0  0  0  0  0
    7.9162  -17.9621   22.9641 N   0  0  0  0  0  0  0  0  0  0  0  0
    7.9164  -18.6448   24.2670 C   0  0  1  0  0  0  0  0  0  0  0  0
    6.8951  -19.7594   24.2339 C   0  0  0  0  0  0  0  0  0  0  0  0
    6.8331  -20.5256   25.5132 C   0  0  0  0  0  0  0  0  0  0  0  0
    5.8457  -21.6168   25.3858 C   0  0  0  0  0  0  0  0  0  0  0  0
    5.6372  -22.3796   26.3534 O   0  0  0  0  0  0  0  0  0  0  0  0
    9.2632  -19.1221   24.5987 C   0  0  0  0  0  0  0  0  0  0  0  0
   10.0872  -19.3334   23.6790 O   0  0  0  0  0  0  0  0  0  0  0  0
    5.1425  -21.8161   24.2154 O   0  0  0  0  0  0  0  0  0  0  0  0
    9.6483  -19.3484   25.9366 N   0  0  0  0  0  0  0  0  0  0  0  0
   11.0359  -19.6660   26.3290 C   0  0  1  0  0  0  0  0  0  0  0  0
   11.9852  -18.6627   25.7889 C   0  0  0  0  0  0  0  0  0  0  0  0
   13.3763  -19.0195   26.1069 C   0  0  0  0  0  0  0  0  0  0  0  0
   14.0449  -18.5846   27.0652 O   0  0  0  0  0  0  0  0  0  0  0  0
   11.0687  -19.8068   27.8158 C   0  0  0  0  0  0  0  0  0  0  0  0
   10.0808  -19.3485   28.4969 O   0  0  0  0  0  0  0  0  0  0  0  0
   14.0892  -19.9394   25.2907 O   0  0  0  0  0  0  0  0  0  0  0  0
   12.0586  -20.3852   28.5649 O   0  0  0  0  0  0  0  0  0  0  0  0
  2  1  1  6
  3  4  1  0
  3  2  1  0
  4  5  2  0
  6  5  1  0
  7  6  1  0
  8  7  2  0
  8  4  1  0
  9  2  1  0
  9 11  1  0
 10  9  2  0
 11 12  1  0
 12 13  1  6
 13 14  1  0
 14 15  1  0
 15 19  1  0
 16 15  2  0
 17 12  1  0
 18 17  2  0
 20 17  1  0
 21 20  1  0
 21 25  1  0
 21 22  1  1
 23 22  1  0
 23 27  1  0
 24 23  2  0
 25 28  1  0
 26 25  2  0
M  END
$$$$
