HED.pdb
     RDKit          3D

 28 28  0  0  1  0  0  0  0  0999 V2000
    7.5261  -16.7208   20.0137 N   0  0  0  0  0  0  0  0  0  0  0  0
    8.8595  -16.2522   19.6886 C   0  0  1  0  0  0  0  0  0  0  0  0
    8.9499  -14.7914   20.0858 C   0  0  0  0  0  0  0  0  0  0  0  0
    8.0971  -13.9399   19.2399 C   0  0  0  0  0  0  0  0  0  0  0  0
    7.0351  -13.1930   19.6898 C   0  0  0  0  0  0  0  0  0  0  0  0
    6.4691  -12.5318   18.6490 N   0  0  0  0  0  0  0  0  0  0  0  0
    7.1873  -12.8743   17.5533 C   0  0  0  0  0  0  0  0  0  0  0  0
    8.1815  -13.7354   17.9205 N   0  0  0  0  0  0  0  0  0  0  0  0
    9.8252  -17.0978   20.4255 C   0  0  0  0  0  0  0  0  0  0  0  0
    9.4192  -17.7030   21.4472 O   0  0  0  0  0  0  0  0  0  0  0  0
   11.1841  -17.2700   20.0524 N   0  0  0  0  0  0  0  0  0  0  0  0
   12.0723  -18.1562   20.8201 C   0  0  1  0  0  0  0  0  0  0  0  0
   13.3056  -18.4451   19.9943 C   0  0  0  0  0  0  0  0  0  0  0  0
   14.3227  -19.2483   20.7346 C   0  0  0  0  0  0  0  0  0  0  0  0
   15.5112  -19.4454   19.8800 C   0  0  0  0  0  0  0  0  0  0  0  0
   15.5359  -20.3893   19.0615 O   0  0  0  0  0  0  0  0  0  0  0  0
   12.3911  -17.5634   22.1234 C   0  0  0  0  0  0  0  0  0  0  0  0
   12.8309  -16.3916   22.1776 O   0  0  0  0  0  0  0  0  0  0  0  0
   16.6035  -18.6063   19.9641 O   0  0  0  0  0  0  0  0  0  0  0  0
   12.2115  -18.2898   23.3191 N   0  0  0  0  0  0  0  0  0  0  0  0
   12.5340  -17.7367   24.6496 C   0  0  1  0  0  0  0  0  0  0  0  0
   11.3726  -17.8414   25.5658 C   0  0  0  0  0  0  0  0  0  0  0  0
   11.0833  -19.2438   25.9021 C   0  0  0  0  0  0  0  0  0  0  0  0
   10.6220  -20.1045   25.1269 O   0  0  0  0  0  0  0  0  0  0  0  0
   13.7688  -18.4193   25.1404 C   0  0  0  0  0  0  0  0  0  0  0  0
   14.2620  -18.0566   26.2696 O   0  0  0  0  0  0  0  0  0  0  0  0
   11.3267  -19.7356   27.2134 O   0  0  0  0  0  0  0  0  0  0  0  0
   14.4611  -19.4187   24.5101 O   0  0  0  0  0  0  0  0  0  0  0  0
  2  1  1  1
  3  4  1  0
  3  2  1  0
  4  5  2  0
  6  5  1  0
  7  6  1  0
  8  7  2  0
  8  4  1  0
  9  2  1  0
  9 11  1  0
 10  9  2  0
 11 12  1  0
 12 13  1  6
 13 14  1  0
 14 15  1  0
 15 19  1  0
 16 15  2  0
 17 12  1  0
 18 17  2  0
 20 17  1  0
 21 20  1  0
 21 25  1  0
 21 22  1  1
 23 22  1  0
 23 27  1  0
 24 23  2  0
 25 28  1  0
 26 25  2  0
M  END
$$$$
