HED.pdb
     RDKit          3D

 28 28  0  0  1  0  0  0  0  0999 V2000
    8.4108  -17.4331   20.4550 N   0  0  0  0  0  0  0  0  0  0  0  0
    9.4507  -16.5500   20.9468 C   0  0  1  0  0  0  0  0  0  0  0  0
    8.7966  -15.5079   21.8333 C   0  0  0  0  0  0  0  0  0  0  0  0
    8.2312  -14.3979   21.0483 C   0  0  0  0  0  0  0  0  0  0  0  0
    8.2538  -14.3101   19.6772 C   0  0  0  0  0  0  0  0  0  0  0  0
    7.6502  -13.1604   19.2838 N   0  0  0  0  0  0  0  0  0  0  0  0
    7.2545  -12.5382   20.4196 C   0  0  0  0  0  0  0  0  0  0  0  0
    7.6123  -13.2994   21.4954 N   0  0  0  0  0  0  0  0  0  0  0  0
   10.4336  -17.3782   21.6809 C   0  0  0  0  0  0  0  0  0  0  0  0
   10.0121  -18.3897   22.2927 O   0  0  0  0  0  0  0  0  0  0  0  0
   11.8251  -17.1034   21.7394 N   0  0  0  0  0  0  0  0  0  0  0  0
   12.7491  -18.0225   22.4214 C   0  0  1  0  0  0  0  0  0  0  0  0
   14.1636  -17.6941   21.9997 C   0  0  0  0  0  0  0  0  0  0  0  0
   15.1801  -18.5727   22.6497 C   0  0  0  0  0  0  0  0  0  0  0  0
   16.5266  -18.2125   22.1608 C   0  0  0  0  0  0  0  0  0  0  0  0
   16.8637  -17.0106   22.1035 O   0  0  0  0  0  0  0  0  0  0  0  0
   12.5631  -17.9561   23.8749 C   0  0  0  0  0  0  0  0  0  0  0  0
   12.4634  -16.8396   24.4342 O   0  0  0  0  0  0  0  0  0  0  0  0
   17.4282  -19.1782   21.7625 O   0  0  0  0  0  0  0  0  0  0  0  0
   12.4944  -19.1285   24.6561 N   0  0  0  0  0  0  0  0  0  0  0  0
   12.2361  -19.1097   26.1097 C   0  0  1  0  0  0  0  0  0  0  0  0
   11.1817  -20.0862   26.4761 C   0  0  0  0  0  0  0  0  0  0  0  0
   10.9109  -20.0613   27.9217 C   0  0  0  0  0  0  0  0  0  0  0  0
   11.5067  -19.3664   28.7683 O   0  0  0  0  0  0  0  0  0  0  0  0
   13.5398  -19.3205   26.8076 C   0  0  0  0  0  0  0  0  0  0  0  0
   14.4465  -20.0125   26.2169 O   0  0  0  0  0  0  0  0  0  0  0  0
    9.8897  -20.8788   28.4780 O   0  0  0  0  0  0  0  0  0  0  0  0
   13.8966  -18.8487   28.0428 O   0  0  0  0  0  0  0  0  0  0  0  0
  2  1  1  1
  3  4  1  0
  3  2  1  0
  4  5  2  0
  6  5  1  0
  7  6  1  0
  8  7  2  0
  8  4  1  0
  9  2  1  0
  9 11  1  0
 10  9  2  0
 11 12  1  0
 12 13  1  1
 13 14  1  0
 14 15  1  0
 15 19  1  0
 16 15  2  0
 17 12  1  0
 18 17  2  0
 20 17  1  0
 21 20  1  0
 21 25  1  0
 21 22  1  6
 23 22  1  0
 23 27  1  0
 24 23  2  0
 25 28  1  0
 26 25  2  0
M  END
$$$$
