HED.pdb
     RDKit          3D

 28 28  0  0  1  0  0  0  0  0999 V2000
    8.9269  -17.1018   19.1976 N   0  0  0  0  0  0  0  0  0  0  0  0
   10.0279  -16.2071   18.8972 C   0  0  1  0  0  0  0  0  0  0  0  0
    9.7581  -14.8862   19.5918 C   0  0  0  0  0  0  0  0  0  0  0  0
    8.5660  -14.2148   19.0478 C   0  0  0  0  0  0  0  0  0  0  0  0
    7.8240  -13.2665   19.7100 C   0  0  0  0  0  0  0  0  0  0  0  0
    6.7962  -12.8603   18.9229 N   0  0  0  0  0  0  0  0  0  0  0  0
    6.9072  -13.5630   17.7706 C   0  0  0  0  0  0  0  0  0  0  0  0
    7.9911  -14.3895   17.8525 N   0  0  0  0  0  0  0  0  0  0  0  0
   11.2728  -16.8506   19.3734 C   0  0  0  0  0  0  0  0  0  0  0  0
   11.2005  -17.6075   20.3720 O   0  0  0  0  0  0  0  0  0  0  0  0
   12.5468  -16.6681   18.7742 N   0  0  0  0  0  0  0  0  0  0  0  0
   13.7523  -17.2718   19.3623 C   0  0  1  0  0  0  0  0  0  0  0  0
   14.8810  -17.1827   18.3600 C   0  0  0  0  0  0  0  0  0  0  0  0
   14.5684  -17.8722   17.0737 C   0  0  0  0  0  0  0  0  0  0  0  0
   15.5265  -17.4374   16.0369 C   0  0  0  0  0  0  0  0  0  0  0  0
   16.5045  -18.1620   15.7544 O   0  0  0  0  0  0  0  0  0  0  0  0
   14.0794  -16.6301   20.6401 C   0  0  0  0  0  0  0  0  0  0  0  0
   13.3634  -15.6923   21.0611 O   0  0  0  0  0  0  0  0  0  0  0  0
   15.3667  -16.2413   15.3676 O   0  0  0  0  0  0  0  0  0  0  0  0
   15.1876  -17.0500   21.4050 N   0  0  0  0  0  0  0  0  0  0  0  0
   15.2942  -16.8147   22.8588 C   0  0  1  0  0  0  0  0  0  0  0  0
   14.0934  -17.3174   23.5692 C   0  0  0  0  0  0  0  0  0  0  0  0
   13.5950  -16.3298   24.5387 C   0  0  0  0  0  0  0  0  0  0  0  0
   14.1681  -15.2734   24.8709 O   0  0  0  0  0  0  0  0  0  0  0  0
   16.5809  -17.4135   23.3248 C   0  0  0  0  0  0  0  0  0  0  0  0
   16.9319  -18.5555   22.8532 O   0  0  0  0  0  0  0  0  0  0  0  0
   12.3521  -16.5309   25.1985 O   0  0  0  0  0  0  0  0  0  0  0  0
   17.4608  -16.8730   24.2244 O   0  0  0  0  0  0  0  0  0  0  0  0
  2  1  1  1
  3  4  1  0
  3  2  1  0
  4  5  2  0
  6  5  1  0
  7  6  1  0
  8  7  2  0
  8  4  1  0
  9  2  1  0
  9 11  1  0
 10  9  2  0
 11 12  1  0
 12 13  1  6
 13 14  1  0
 14 15  1  0
 15 19  1  0
 16 15  2  0
 17 12  1  0
 18 17  2  0
 20 17  1  0
 21 20  1  0
 21 25  1  0
 21 22  1  1
 23 22  1  0
 23 27  1  0
 24 23  2  0
 25 28  1  0
 26 25  2  0
M  END
$$$$
