HED.pdb
     RDKit          3D

 28 28  0  0  1  0  0  0  0  0999 V2000
    9.7681  -15.7623   17.8382 N   0  0  0  0  0  0  0  0  0  0  0  0
   10.5435  -14.7028   18.4539 C   0  0  1  0  0  0  0  0  0  0  0  0
    9.7936  -14.2312   19.6848 C   0  0  0  0  0  0  0  0  0  0  0  0
    8.4598  -13.7073   19.3463 C   0  0  0  0  0  0  0  0  0  0  0  0
    8.2147  -12.6920   18.4534 C   0  0  0  0  0  0  0  0  0  0  0  0
    6.8799  -12.4594   18.3825 N   0  0  0  0  0  0  0  0  0  0  0  0
    6.3015  -13.3368   19.2366 C   0  0  0  0  0  0  0  0  0  0  0  0
    7.2722  -14.0973   19.8231 N   0  0  0  0  0  0  0  0  0  0  0  0
   11.8769  -15.2545   18.7829 C   0  0  0  0  0  0  0  0  0  0  0  0
   11.9494  -16.4625   19.1156 O   0  0  0  0  0  0  0  0  0  0  0  0
   13.0827  -14.5061   18.7473 N   0  0  0  0  0  0  0  0  0  0  0  0
   14.3652  -15.1204   19.1235 C   0  0  1  0  0  0  0  0  0  0  0  0
   15.4910  -14.2857   18.5557 C   0  0  0  0  0  0  0  0  0  0  0  0
   16.8368  -14.8775   18.8131 C   0  0  0  0  0  0  0  0  0  0  0  0
   17.8764  -14.0130   18.2184 C   0  0  0  0  0  0  0  0  0  0  0  0
   18.7883  -13.5550   18.9397 O   0  0  0  0  0  0  0  0  0  0  0  0
   14.4553  -15.2752   20.5793 C   0  0  0  0  0  0  0  0  0  0  0  0
   14.1126  -14.3273   21.3233 O   0  0  0  0  0  0  0  0  0  0  0  0
   17.8650  -13.6961   16.8754 O   0  0  0  0  0  0  0  0  0  0  0  0
   14.9218  -16.4738   21.1583 N   0  0  0  0  0  0  0  0  0  0  0  0
   14.9319  -16.7097   22.6158 C   0  0  1  0  0  0  0  0  0  0  0  0
   14.2244  -17.9677   22.9568 C   0  0  0  0  0  0  0  0  0  0  0  0
   14.3321  -18.2677   24.3927 C   0  0  0  0  0  0  0  0  0  0  0  0
   14.8846  -17.5535   25.2525 O   0  0  0  0  0  0  0  0  0  0  0  0
   16.3518  -16.6575   23.0767 C   0  0  0  0  0  0  0  0  0  0  0  0
   17.2849  -16.7627   22.2003 O   0  0  0  0  0  0  0  0  0  0  0  0
   13.7789  -19.4652   24.9225 O   0  0  0  0  0  0  0  0  0  0  0  0
   16.7929  -16.5059   24.3643 O   0  0  0  0  0  0  0  0  0  0  0  0
  2  1  1  1
  3  4  1  0
  3  2  1  0
  4  5  2  0
  6  5  1  0
  7  6  1  0
  8  7  2  0
  8  4  1  0
  9  2  1  0
  9 11  1  0
 10  9  2  0
 11 12  1  0
 12 13  1  1
 13 14  1  0
 14 15  1  0
 15 19  1  0
 16 15  2  0
 17 12  1  0
 18 17  2  0
 20 17  1  0
 21 20  1  0
 21 25  1  0
 21 22  1  6
 23 22  1  0
 23 27  1  0
 24 23  2  0
 25 28  1  0
 26 25  2  0
M  END
$$$$
