HED.pdb
     RDKit          3D

 28 28  0  0  1  0  0  0  0  0999 V2000
    8.4519  -17.2204   20.2119 N   0  0  0  0  0  0  0  0  0  0  0  0
    9.1416  -16.1930   20.9680 C   0  0  1  0  0  0  0  0  0  0  0  0
    8.1580  -15.0694   21.2326 C   0  0  0  0  0  0  0  0  0  0  0  0
    7.9146  -14.2593   20.0275 C   0  0  0  0  0  0  0  0  0  0  0  0
    7.0970  -13.1564   19.9707 C   0  0  0  0  0  0  0  0  0  0  0  0
    7.0981  -12.6522   18.7110 N   0  0  0  0  0  0  0  0  0  0  0  0
    7.9210  -13.4499   17.9898 C   0  0  0  0  0  0  0  0  0  0  0  0
    8.4175  -14.4308   18.7998 N   0  0  0  0  0  0  0  0  0  0  0  0
    9.6400  -16.8120   22.2166 C   0  0  0  0  0  0  0  0  0  0  0  0
    9.0429  -17.8270   22.6506 O   0  0  0  0  0  0  0  0  0  0  0  0
   10.7515  -16.3325   22.9582 N   0  0  0  0  0  0  0  0  0  0  0  0
   11.2487  -17.0642   24.1334 C   0  0  1  0  0  0  0  0  0  0  0  0
   12.7343  -17.2950   23.9718 C   0  0  0  0  0  0  0  0  0  0  0  0
   13.0645  -18.1219   22.7740 C   0  0  0  0  0  0  0  0  0  0  0  0
   14.5301  -18.2745   22.6702 C   0  0  0  0  0  0  0  0  0  0  0  0
   15.0776  -18.2480   21.5472 O   0  0  0  0  0  0  0  0  0  0  0  0
   10.9200  -16.3422   25.3672 C   0  0  0  0  0  0  0  0  0  0  0  0
   11.3835  -15.1932   25.5523 O   0  0  0  0  0  0  0  0  0  0  0  0
   15.3154  -18.4470   23.7916 O   0  0  0  0  0  0  0  0  0  0  0  0
   10.0902  -16.9191   26.3512 N   0  0  0  0  0  0  0  0  0  0  0  0
   10.1514  -16.5373   27.7763 C   0  0  1  0  0  0  0  0  0  0  0  0
   11.0567  -17.4377   28.5306 C   0  0  0  0  0  0  0  0  0  0  0  0
   10.4014  -18.7186   28.8364 C   0  0  0  0  0  0  0  0  0  0  0  0
    9.4221  -19.2038   28.2363 O   0  0  0  0  0  0  0  0  0  0  0  0
   10.5222  -15.0920   27.8459 C   0  0  0  0  0  0  0  0  0  0  0  0
   11.5891  -14.7032   27.2456 O   0  0  0  0  0  0  0  0  0  0  0  0
   10.8731  -19.5335   29.9013 O   0  0  0  0  0  0  0  0  0  0  0  0
    9.8383  -14.0983   28.4945 O   0  0  0  0  0  0  0  0  0  0  0  0
  2  1  1  6
  3  4  1  0
  3  2  1  0
  4  5  2  0
  6  5  1  0
  7  6  1  0
  8  7  2  0
  8  4  1  0
  9  2  1  0
  9 11  1  0
 10  9  2  0
 11 12  1  0
 12 13  1  6
 13 14  1  0
 14 15  1  0
 15 19  1  0
 16 15  2  0
 17 12  1  0
 18 17  2  0
 20 17  1  0
 21 20  1  0
 21 25  1  0
 21 22  1  1
 23 22  1  0
 23 27  1  0
 24 23  2  0
 25 28  1  0
 26 25  2  0
M  END
$$$$
