HED.pdb
     RDKit          3D

 28 28  0  0  1  0  0  0  0  0999 V2000
    9.9671  -15.9024   12.8029 N   0  0  0  0  0  0  0  0  0  0  0  0
   11.1971  -16.4891   13.2989 C   0  0  1  0  0  0  0  0  0  0  0  0
   12.2472  -16.3582   12.2126 C   0  0  0  0  0  0  0  0  0  0  0  0
   11.9766  -17.2568   11.0781 C   0  0  0  0  0  0  0  0  0  0  0  0
   12.3554  -18.5759   11.0093 C   0  0  0  0  0  0  0  0  0  0  0  0
   11.9503  -19.1057    9.8277 N   0  0  0  0  0  0  0  0  0  0  0  0
   11.3190  -18.1065    9.1667 C   0  0  0  0  0  0  0  0  0  0  0  0
   11.3380  -16.9784    9.9360 N   0  0  0  0  0  0  0  0  0  0  0  0
   11.5722  -15.7679   14.5358 C   0  0  0  0  0  0  0  0  0  0  0  0
   11.3634  -14.5313   14.5836 O   0  0  0  0  0  0  0  0  0  0  0  0
   12.1544  -16.3837   15.6747 N   0  0  0  0  0  0  0  0  0  0  0  0
   12.4071  -15.6153   16.9033 C   0  0  1  0  0  0  0  0  0  0  0  0
   11.3598  -15.9804   17.9310 C   0  0  0  0  0  0  0  0  0  0  0  0
   11.2080  -17.4551   18.1039 C   0  0  0  0  0  0  0  0  0  0  0  0
   10.1806  -17.7272   19.1297 C   0  0  0  0  0  0  0  0  0  0  0  0
    9.9193  -18.9073   19.4468 O   0  0  0  0  0  0  0  0  0  0  0  0
   13.7740  -15.8452   17.3832 C   0  0  0  0  0  0  0  0  0  0  0  0
   14.3074  -16.9660   17.2139 O   0  0  0  0  0  0  0  0  0  0  0  0
    9.4969  -16.7022   19.7509 O   0  0  0  0  0  0  0  0  0  0  0  0
   14.5003  -14.8257   18.0333 N   0  0  0  0  0  0  0  0  0  0  0  0
   15.8733  -15.0181   18.5413 C   0  0  1  0  0  0  0  0  0  0  0  0
   16.5821  -13.7214   18.6650 C   0  0  0  0  0  0  0  0  0  0  0  0
   16.7893  -13.0993   17.3483 C   0  0  0  0  0  0  0  0  0  0  0  0
   16.9407  -13.7019   16.2673 O   0  0  0  0  0  0  0  0  0  0  0  0
   15.7842  -15.7949   19.8141 C   0  0  0  0  0  0  0  0  0  0  0  0
   14.6330  -15.9382   20.3655 O   0  0  0  0  0  0  0  0  0  0  0  0
   16.8329  -11.6844   17.2183 O   0  0  0  0  0  0  0  0  0  0  0  0
   16.8169  -16.3928   20.4861 O   0  0  0  0  0  0  0  0  0  0  0  0
  2  1  1  6
  3  4  1  0
  3  2  1  0
  4  5  2  0
  6  5  1  0
  7  6  1  0
  8  7  2  0
  8  4  1  0
  9  2  1  0
  9 11  1  0
 10  9  2  0
 11 12  1  0
 12 13  1  1
 13 14  1  0
 14 15  1  0
 15 19  1  0
 16 15  2  0
 17 12  1  0
 18 17  2  0
 20 17  1  0
 21 20  1  0
 21 25  1  0
 21 22  1  1
 23 22  1  0
 23 27  1  0
 24 23  2  0
 25 28  1  0
 26 25  2  0
M  END
$$$$
