HED.pdb
     RDKit          3D

 28 28  0  0  1  0  0  0  0  0999 V2000
    9.5557  -16.9647   18.6636 N   0  0  0  0  0  0  0  0  0  0  0  0
   10.1089  -16.3498   19.8548 C   0  0  1  0  0  0  0  0  0  0  0  0
    8.9545  -15.8344   20.6924 C   0  0  0  0  0  0  0  0  0  0  0  0
    8.5221  -14.4940   20.2635 C   0  0  0  0  0  0  0  0  0  0  0  0
    9.0832  -13.7760   19.2350 C   0  0  0  0  0  0  0  0  0  0  0  0
    8.4475  -12.5837   19.1112 N   0  0  0  0  0  0  0  0  0  0  0  0
    7.4904  -12.5690   20.0691 C   0  0  0  0  0  0  0  0  0  0  0  0
    7.5405  -13.7395   20.7705 N   0  0  0  0  0  0  0  0  0  0  0  0
   10.9049  -17.3773   20.5628 C   0  0  0  0  0  0  0  0  0  0  0  0
   10.2900  -18.2329   21.2448 O   0  0  0  0  0  0  0  0  0  0  0  0
   12.3215  -17.4595   20.5220 N   0  0  0  0  0  0  0  0  0  0  0  0
   13.0371  -18.5333   21.2280 C   0  0  1  0  0  0  0  0  0  0  0  0
   14.3985  -18.7108   20.5944 C   0  0  0  0  0  0  0  0  0  0  0  0
   14.3279  -19.3124   19.2303 C   0  0  0  0  0  0  0  0  0  0  0  0
   15.6951  -19.4963   18.7022 C   0  0  0  0  0  0  0  0  0  0  0  0
   16.6358  -19.7366   19.4889 O   0  0  0  0  0  0  0  0  0  0  0  0
   13.1156  -18.2433   22.6637 C   0  0  0  0  0  0  0  0  0  0  0  0
   13.5595  -17.1361   23.0465 O   0  0  0  0  0  0  0  0  0  0  0  0
   15.9610  -19.4084   17.3511 O   0  0  0  0  0  0  0  0  0  0  0  0
   12.7000  -19.1899   23.6233 N   0  0  0  0  0  0  0  0  0  0  0  0
   12.7891  -18.9500   25.0775 C   0  0  1  0  0  0  0  0  0  0  0  0
   11.6544  -19.5832   25.7923 C   0  0  0  0  0  0  0  0  0  0  0  0
   11.7633  -19.3863   27.2459 C   0  0  0  0  0  0  0  0  0  0  0  0
   12.6530  -18.7409   27.8346 O   0  0  0  0  0  0  0  0  0  0  0  0
   14.1362  -19.4069   25.5336 C   0  0  0  0  0  0  0  0  0  0  0  0
   14.8545  -18.5997   26.2280 O   0  0  0  0  0  0  0  0  0  0  0  0
   10.8015  -19.9550   28.1245 O   0  0  0  0  0  0  0  0  0  0  0  0
   14.7166  -20.6237   25.2925 O   0  0  0  0  0  0  0  0  0  0  0  0
  2  1  1  6
  3  4  1  0
  3  2  1  0
  4  5  2  0
  6  5  1  0
  7  6  1  0
  8  7  2  0
  8  4  1  0
  9  2  1  0
  9 11  1  0
 10  9  2  0
 11 12  1  0
 12 13  1  6
 13 14  1  0
 14 15  1  0
 15 19  1  0
 16 15  2  0
 17 12  1  0
 18 17  2  0
 20 17  1  0
 21 20  1  0
 21 25  1  0
 21 22  1  1
 23 22  1  0
 23 27  1  0
 24 23  2  0
 25 28  1  0
 26 25  2  0
M  END
$$$$
