HED.pdb
     RDKit          3D

 28 28  0  0  1  0  0  0  0  0999 V2000
    8.4990  -14.5131   17.1696 N   0  0  0  0  0  0  0  0  0  0  0  0
    9.6427  -13.6900   17.5123 C   0  0  1  0  0  0  0  0  0  0  0  0
    9.1755  -12.6244   18.4849 C   0  0  0  0  0  0  0  0  0  0  0  0
    8.5906  -13.2119   19.7017 C   0  0  0  0  0  0  0  0  0  0  0  0
    7.2469  -13.3989   19.9196 C   0  0  0  0  0  0  0  0  0  0  0  0
    7.0565  -13.9590   21.1407 N   0  0  0  0  0  0  0  0  0  0  0  0
    8.2902  -14.1171   21.6761 C   0  0  0  0  0  0  0  0  0  0  0  0
    9.2244  -13.6587   20.7919 N   0  0  0  0  0  0  0  0  0  0  0  0
   10.6742  -14.5751   18.0981 C   0  0  0  0  0  0  0  0  0  0  0  0
   10.3426  -15.7473   18.4002 O   0  0  0  0  0  0  0  0  0  0  0  0
   12.0173  -14.1853   18.3419 N   0  0  0  0  0  0  0  0  0  0  0  0
   13.0194  -15.1646   18.7894 C   0  0  1  0  0  0  0  0  0  0  0  0
   14.2407  -15.0518   17.9050 C   0  0  0  0  0  0  0  0  0  0  0  0
   14.1082  -15.8232   16.6342 C   0  0  0  0  0  0  0  0  0  0  0  0
   15.3851  -15.7740   15.8933 C   0  0  0  0  0  0  0  0  0  0  0  0
   15.6988  -14.7386   15.2680 O   0  0  0  0  0  0  0  0  0  0  0  0
   13.3305  -14.9715   20.2097 C   0  0  0  0  0  0  0  0  0  0  0  0
   13.5944  -13.8224   20.6333 O   0  0  0  0  0  0  0  0  0  0  0  0
   16.2465  -16.8519   15.8744 O   0  0  0  0  0  0  0  0  0  0  0  0
   13.3385  -16.0579   21.1094 N   0  0  0  0  0  0  0  0  0  0  0  0
   13.6503  -15.9083   22.5448 C   0  0  1  0  0  0  0  0  0  0  0  0
   12.9262  -16.9174   23.3553 C   0  0  0  0  0  0  0  0  0  0  0  0
   11.4711  -16.7152   23.2826 C   0  0  0  0  0  0  0  0  0  0  0  0
   10.8812  -15.6168   23.2919 O   0  0  0  0  0  0  0  0  0  0  0  0
   15.1359  -15.9483   22.6957 C   0  0  0  0  0  0  0  0  0  0  0  0
   15.8442  -16.3212   21.6911 O   0  0  0  0  0  0  0  0  0  0  0  0
   10.5922  -17.8288   23.1918 O   0  0  0  0  0  0  0  0  0  0  0  0
   15.8576  -15.6241   23.8135 O   0  0  0  0  0  0  0  0  0  0  0  0
  2  1  1  1
  3  4  1  0
  3  2  1  0
  4  5  2  0
  6  5  1  0
  7  6  1  0
  8  7  2  0
  8  4  1  0
  9  2  1  0
  9 11  1  0
 10  9  2  0
 11 12  1  0
 12 13  1  6
 13 14  1  0
 14 15  1  0
 15 19  1  0
 16 15  2  0
 17 12  1  0
 18 17  2  0
 20 17  1  0
 21 20  1  0
 21 25  1  0
 21 22  1  1
 23 22  1  0
 23 27  1  0
 24 23  2  0
 25 28  1  0
 26 25  2  0
M  END
$$$$
