HED.pdb
     RDKit          3D

 28 28  0  0  1  0  0  0  0  0999 V2000
    8.3273  -17.2628   19.0673 N   0  0  0  0  0  0  0  0  0  0  0  0
    9.3034  -16.4632   19.7822 C   0  0  1  0  0  0  0  0  0  0  0  0
    8.5650  -15.6542   20.8311 C   0  0  0  0  0  0  0  0  0  0  0  0
    8.1006  -14.3620   20.2996 C   0  0  0  0  0  0  0  0  0  0  0  0
    8.2763  -13.9324   19.0062 C   0  0  0  0  0  0  0  0  0  0  0  0
    7.7305  -12.6992   18.8572 N   0  0  0  0  0  0  0  0  0  0  0  0
    7.2165  -12.3692   20.0658 C   0  0  0  0  0  0  0  0  0  0  0  0
    7.4456  -13.3896   20.9439 N   0  0  0  0  0  0  0  0  0  0  0  0
   10.2934  -17.3885   20.3773 C   0  0  0  0  0  0  0  0  0  0  0  0
    9.8710  -18.2977   21.1325 O   0  0  0  0  0  0  0  0  0  0  0  0
   11.6928  -17.3158   20.1504 N   0  0  0  0  0  0  0  0  0  0  0  0
   12.6081  -18.2985   20.7506 C   0  0  1  0  0  0  0  0  0  0  0  0
   13.8397  -18.4128   19.8808 C   0  0  0  0  0  0  0  0  0  0  0  0
   14.7625  -19.4989   20.3240 C   0  0  0  0  0  0  0  0  0  0  0  0
   15.9532  -19.5201   19.4502 C   0  0  0  0  0  0  0  0  0  0  0  0
   16.9672  -20.1608   19.8005 O   0  0  0  0  0  0  0  0  0  0  0  0
   12.9258  -17.9293   22.1342 C   0  0  0  0  0  0  0  0  0  0  0  0
   13.4144  -16.8012   22.3755 O   0  0  0  0  0  0  0  0  0  0  0  0
   15.9734  -18.8444   18.2473 O   0  0  0  0  0  0  0  0  0  0  0  0
   12.6912  -18.8227   23.2001 N   0  0  0  0  0  0  0  0  0  0  0  0
   12.9824  -18.4858   24.6079 C   0  0  1  0  0  0  0  0  0  0  0  0
   11.9464  -19.0391   25.5134 C   0  0  0  0  0  0  0  0  0  0  0  0
   10.6298  -18.4403   25.2463 C   0  0  0  0  0  0  0  0  0  0  0  0
   10.4032  -17.4693   24.4977 O   0  0  0  0  0  0  0  0  0  0  0  0
   14.3718  -18.9444   24.9088 C   0  0  0  0  0  0  0  0  0  0  0  0
   14.8794  -18.6529   26.0522 O   0  0  0  0  0  0  0  0  0  0  0  0
    9.4612  -18.9636   25.8636 O   0  0  0  0  0  0  0  0  0  0  0  0
   15.1969  -19.6625   24.0847 O   0  0  0  0  0  0  0  0  0  0  0  0
  2  1  1  1
  3  4  1  0
  3  2  1  0
  4  5  2  0
  6  5  1  0
  7  6  1  0
  8  7  2  0
  8  4  1  0
  9  2  1  0
  9 11  1  0
 10  9  2  0
 11 12  1  0
 12 13  1  6
 13 14  1  0
 14 15  1  0
 15 19  1  0
 16 15  2  0
 17 12  1  0
 18 17  2  0
 20 17  1  0
 21 20  1  0
 21 25  1  0
 21 22  1  1
 23 22  1  0
 23 27  1  0
 24 23  2  0
 25 28  1  0
 26 25  2  0
M  END
$$$$
