HED.pdb
     RDKit          3D

 28 28  0  0  1  0  0  0  0  0999 V2000
    9.1411  -13.7223   18.2675 N   0  0  0  0  0  0  0  0  0  0  0  0
   10.1787  -14.7351   18.2440 C   0  0  1  0  0  0  0  0  0  0  0  0
   11.0362  -14.4955   17.0163 C   0  0  0  0  0  0  0  0  0  0  0  0
   10.5701  -15.2802   15.8610 C   0  0  0  0  0  0  0  0  0  0  0  0
    9.3017  -15.7874   15.7124 C   0  0  0  0  0  0  0  0  0  0  0  0
    9.2141  -16.4594   14.5369 N   0  0  0  0  0  0  0  0  0  0  0  0
   10.4355  -16.3645   13.9600 C   0  0  0  0  0  0  0  0  0  0  0  0
   11.2606  -15.6424   14.7739 N   0  0  0  0  0  0  0  0  0  0  0  0
   10.9497  -14.6180   19.5020 C   0  0  0  0  0  0  0  0  0  0  0  0
   11.1945  -13.4671   19.9385 O   0  0  0  0  0  0  0  0  0  0  0  0
   11.4323  -15.7241   20.2496 N   0  0  0  0  0  0  0  0  0  0  0  0
   12.1647  -15.5234   21.5094 C   0  0  1  0  0  0  0  0  0  0  0  0
   11.5316  -16.3790   22.5834 C   0  0  0  0  0  0  0  0  0  0  0  0
   10.6564  -15.5969   23.5052 C   0  0  0  0  0  0  0  0  0  0  0  0
   10.1622  -16.4796   24.5816 C   0  0  0  0  0  0  0  0  0  0  0  0
   10.5043  -17.6813   24.6032 O   0  0  0  0  0  0  0  0  0  0  0  0
   13.5918  -15.8094   21.3272 C   0  0  0  0  0  0  0  0  0  0  0  0
   13.9483  -16.9413   20.9259 O   0  0  0  0  0  0  0  0  0  0  0  0
    9.3254  -16.0060   25.5713 O   0  0  0  0  0  0  0  0  0  0  0  0
   14.5722  -14.8317   21.5965 N   0  0  0  0  0  0  0  0  0  0  0  0
   16.0194  -15.1246   21.5920 C   0  0  1  0  0  0  0  0  0  0  0  0
   16.7730  -14.0757   20.8631 C   0  0  0  0  0  0  0  0  0  0  0  0
   16.6797  -14.2662   19.4076 C   0  0  0  0  0  0  0  0  0  0  0  0
   16.8884  -15.3300   18.7916 O   0  0  0  0  0  0  0  0  0  0  0  0
   16.4499  -15.3197   23.0090 C   0  0  0  0  0  0  0  0  0  0  0  0
   17.6639  -15.6711   23.2381 O   0  0  0  0  0  0  0  0  0  0  0  0
   16.3240  -13.1820   18.5600 O   0  0  0  0  0  0  0  0  0  0  0  0
   15.6800  -15.1634   24.1308 O   0  0  0  0  0  0  0  0  0  0  0  0
  2  1  1  1
  3  4  1  0
  3  2  1  0
  4  5  2  0
  6  5  1  0
  7  6  1  0
  8  7  2  0
  8  4  1  0
  9  2  1  0
  9 11  1  0
 10  9  2  0
 11 12  1  0
 12 13  1  1
 13 14  1  0
 14 15  1  0
 15 19  1  0
 16 15  2  0
 17 12  1  0
 18 17  2  0
 20 17  1  0
 21 20  1  0
 21 25  1  0
 21 22  1  1
 23 22  1  0
 23 27  1  0
 24 23  2  0
 25 28  1  0
 26 25  2  0
M  END
$$$$
