HED.pdb
     RDKit          3D

 28 28  0  0  1  0  0  0  0  0999 V2000
    9.9304  -15.5767   17.8239 N   0  0  0  0  0  0  0  0  0  0  0  0
   10.7618  -14.5474   18.4176 C   0  0  1  0  0  0  0  0  0  0  0  0
   10.0283  -13.9942   19.6242 C   0  0  0  0  0  0  0  0  0  0  0  0
    8.7398  -13.3873   19.2512 C   0  0  0  0  0  0  0  0  0  0  0  0
    8.3518  -13.0871   17.9677 C   0  0  0  0  0  0  0  0  0  0  0  0
    7.1115  -12.5372   17.9830 N   0  0  0  0  0  0  0  0  0  0  0  0
    6.7353  -12.4993   19.2834 C   0  0  0  0  0  0  0  0  0  0  0  0
    7.7347  -13.0205   20.0543 N   0  0  0  0  0  0  0  0  0  0  0  0
   12.0556  -15.1682   18.7799 C   0  0  0  0  0  0  0  0  0  0  0  0
   12.1306  -16.4210   18.7741 O   0  0  0  0  0  0  0  0  0  0  0  0
   13.2207  -14.4387   19.1347 N   0  0  0  0  0  0  0  0  0  0  0  0
   14.4900  -15.1289   19.4105 C   0  0  1  0  0  0  0  0  0  0  0  0
   15.5892  -14.4666   18.6107 C   0  0  0  0  0  0  0  0  0  0  0  0
   15.7808  -15.0864   17.2666 C   0  0  0  0  0  0  0  0  0  0  0  0
   16.9924  -14.5259   16.6344 C   0  0  0  0  0  0  0  0  0  0  0  0
   18.0743  -15.1467   16.7101 O   0  0  0  0  0  0  0  0  0  0  0  0
   14.7679  -15.1410   20.8507 C   0  0  0  0  0  0  0  0  0  0  0  0
   14.6901  -14.0746   21.5035 O   0  0  0  0  0  0  0  0  0  0  0  0
   16.9587  -13.3240   15.9573 O   0  0  0  0  0  0  0  0  0  0  0  0
   15.1221  -16.3335   21.5155 N   0  0  0  0  0  0  0  0  0  0  0  0
   15.3937  -16.3930   22.9657 C   0  0  1  0  0  0  0  0  0  0  0  0
   14.9389  -17.6823   23.5403 C   0  0  0  0  0  0  0  0  0  0  0  0
   13.4723  -17.7912   23.5116 C   0  0  0  0  0  0  0  0  0  0  0  0
   12.6664  -16.9861   24.0184 O   0  0  0  0  0  0  0  0  0  0  0  0
   16.8452  -16.1056   23.1702 C   0  0  0  0  0  0  0  0  0  0  0  0
   17.6273  -16.1447   22.1520 O   0  0  0  0  0  0  0  0  0  0  0  0
   12.8436  -18.8894   22.8642 O   0  0  0  0  0  0  0  0  0  0  0  0
   17.4629  -15.7949   24.3524 O   0  0  0  0  0  0  0  0  0  0  0  0
  2  1  1  1
  3  4  1  0
  3  2  1  0
  4  5  2  0
  6  5  1  0
  7  6  1  0
  8  7  2  0
  8  4  1  0
  9  2  1  0
  9 11  1  0
 10  9  2  0
 11 12  1  0
 12 13  1  6
 13 14  1  0
 14 15  1  0
 15 19  1  0
 16 15  2  0
 17 12  1  0
 18 17  2  0
 20 17  1  0
 21 20  1  0
 21 25  1  0
 21 22  1  6
 23 22  1  0
 23 27  1  0
 24 23  2  0
 25 28  1  0
 26 25  2  0
M  END
$$$$
