HED.pdb
     RDKit          3D

 28 28  0  0  1  0  0  0  0  0999 V2000
    8.7387  -17.1582   19.9943 N   0  0  0  0  0  0  0  0  0  0  0  0
    9.7405  -16.3552   20.6687 C   0  0  1  0  0  0  0  0  0  0  0  0
    9.0209  -15.3913   21.5922 C   0  0  0  0  0  0  0  0  0  0  0  0
    8.3179  -14.3365   20.8431 C   0  0  0  0  0  0  0  0  0  0  0  0
    6.9714  -14.3278   20.5692 C   0  0  0  0  0  0  0  0  0  0  0  0
    6.6574  -13.2144   19.8603 N   0  0  0  0  0  0  0  0  0  0  0  0
    7.8175  -12.5351   19.6976 C   0  0  0  0  0  0  0  0  0  0  0  0
    8.8295  -13.2258   20.3006 N   0  0  0  0  0  0  0  0  0  0  0  0
   10.6360  -17.2771   21.4027 C   0  0  0  0  0  0  0  0  0  0  0  0
   10.1107  -18.1793   22.0993 O   0  0  0  0  0  0  0  0  0  0  0  0
   12.0536  -17.2084   21.3712 N   0  0  0  0  0  0  0  0  0  0  0  0
   12.8741  -18.1768   22.1147 C   0  0  1  0  0  0  0  0  0  0  0  0
   14.3171  -18.0210   21.6903 C   0  0  0  0  0  0  0  0  0  0  0  0
   15.2389  -18.9347   22.4272 C   0  0  0  0  0  0  0  0  0  0  0  0
   16.6230  -18.7207   21.9577 C   0  0  0  0  0  0  0  0  0  0  0  0
   17.5313  -18.5010   22.7873 O   0  0  0  0  0  0  0  0  0  0  0  0
   12.6887  -18.0075   23.5598 C   0  0  0  0  0  0  0  0  0  0  0  0
   12.6332  -16.8534   24.0441 O   0  0  0  0  0  0  0  0  0  0  0  0
   16.9398  -18.7576   20.6152 O   0  0  0  0  0  0  0  0  0  0  0  0
   12.5719  -19.1222   24.4161 N   0  0  0  0  0  0  0  0  0  0  0  0
   12.3599  -18.9965   25.8720 C   0  0  1  0  0  0  0  0  0  0  0  0
   10.9978  -19.4431   26.2525 C   0  0  0  0  0  0  0  0  0  0  0  0
   10.8367  -19.4769   27.7142 C   0  0  0  0  0  0  0  0  0  0  0  0
   11.1530  -18.5696   28.5087 O   0  0  0  0  0  0  0  0  0  0  0  0
   13.4635  -19.7323   26.5590 C   0  0  0  0  0  0  0  0  0  0  0  0
   13.4634  -19.7783   27.8426 O   0  0  0  0  0  0  0  0  0  0  0  0
   10.2757  -20.6170   28.3514 O   0  0  0  0  0  0  0  0  0  0  0  0
   14.5102  -20.3857   25.9649 O   0  0  0  0  0  0  0  0  0  0  0  0
  2  1  1  1
  3  4  1  0
  3  2  1  0
  4  5  2  0
  6  5  1  0
  7  6  1  0
  8  7  2  0
  8  4  1  0
  9  2  1  0
  9 11  1  0
 10  9  2  0
 11 12  1  0
 12 13  1  1
 13 14  1  0
 14 15  1  0
 15 19  1  0
 16 15  2  0
 17 12  1  0
 18 17  2  0
 20 17  1  0
 21 20  1  0
 21 25  1  0
 21 22  1  6
 23 22  1  0
 23 27  1  0
 24 23  2  0
 25 28  1  0
 26 25  2  0
M  END
$$$$
