HED.pdb
     RDKit          3D

 28 28  0  0  1  0  0  0  0  0999 V2000
   12.0494  -13.7390   17.3107 N   0  0  0  0  0  0  0  0  0  0  0  0
   12.3281  -15.0463   17.8732 C   0  0  1  0  0  0  0  0  0  0  0  0
   13.4816  -15.6516   17.0967 C   0  0  0  0  0  0  0  0  0  0  0  0
   13.0742  -16.0646   15.7435 C   0  0  0  0  0  0  0  0  0  0  0  0
   12.2714  -17.1421   15.4562 C   0  0  0  0  0  0  0  0  0  0  0  0
   12.0987  -17.2371   14.1138 N   0  0  0  0  0  0  0  0  0  0  0  0
   12.7994  -16.2122   13.5732 C   0  0  0  0  0  0  0  0  0  0  0  0
   13.3937  -15.4985   14.5742 N   0  0  0  0  0  0  0  0  0  0  0  0
   12.6489  -14.8600   19.3060 C   0  0  0  0  0  0  0  0  0  0  0  0
   13.4689  -13.9614   19.6146 O   0  0  0  0  0  0  0  0  0  0  0  0
   12.0894  -15.6325   20.3574 N   0  0  0  0  0  0  0  0  0  0  0  0
   12.5046  -15.4232   21.7529 C   0  0  1  0  0  0  0  0  0  0  0  0
   11.4554  -16.0136   22.6678 C   0  0  0  0  0  0  0  0  0  0  0  0
   11.7951  -15.8599   24.1130 C   0  0  0  0  0  0  0  0  0  0  0  0
   10.7527  -16.5075   24.9351 C   0  0  0  0  0  0  0  0  0  0  0  0
   10.8315  -16.4650   26.1815 O   0  0  0  0  0  0  0  0  0  0  0  0
   13.8384  -15.9881   21.9842 C   0  0  0  0  0  0  0  0  0  0  0  0
   14.0744  -17.1716   21.6479 O   0  0  0  0  0  0  0  0  0  0  0  0
    9.6858  -17.1636   24.3560 O   0  0  0  0  0  0  0  0  0  0  0  0
   14.8621  -15.2220   22.5796 N   0  0  0  0  0  0  0  0  0  0  0  0
   16.1980  -15.7702   22.8881 C   0  0  1  0  0  0  0  0  0  0  0  0
   17.2661  -14.8093   22.5200 C   0  0  0  0  0  0  0  0  0  0  0  0
   17.3681  -14.6588   21.0604 C   0  0  0  0  0  0  0  0  0  0  0  0
   17.4721  -13.5830   20.4389 O   0  0  0  0  0  0  0  0  0  0  0  0
   16.2038  -16.1763   24.3256 C   0  0  0  0  0  0  0  0  0  0  0  0
   15.2461  -15.7726   25.0804 O   0  0  0  0  0  0  0  0  0  0  0  0
   17.3531  -15.8015   20.2151 O   0  0  0  0  0  0  0  0  0  0  0  0
   17.1385  -16.9534   24.9564 O   0  0  0  0  0  0  0  0  0  0  0  0
  2  1  1  6
  3  4  1  0
  3  2  1  0
  4  5  2  0
  6  5  1  0
  7  6  1  0
  8  7  2  0
  8  4  1  0
  9  2  1  0
  9 11  1  0
 10  9  2  0
 11 12  1  0
 12 13  1  1
 13 14  1  0
 14 15  1  0
 15 19  1  0
 16 15  2  0
 17 12  1  0
 18 17  2  0
 20 17  1  0
 21 20  1  0
 21 25  1  0
 21 22  1  1
 23 22  1  0
 23 27  1  0
 24 23  2  0
 25 28  1  0
 26 25  2  0
M  END
$$$$
