HED.pdb
     RDKit          3D

 28 28  0  0  1  0  0  0  0  0999 V2000
    8.1484  -16.3059   20.3075 N   0  0  0  0  0  0  0  0  0  0  0  0
    9.1943  -15.3351   20.5658 C   0  0  1  0  0  0  0  0  0  0  0  0
    8.5825  -13.9515   20.4597 C   0  0  0  0  0  0  0  0  0  0  0  0
    7.9985  -13.7112   19.1297 C   0  0  0  0  0  0  0  0  0  0  0  0
    6.7267  -13.2446   18.8995 C   0  0  0  0  0  0  0  0  0  0  0  0
    6.5134  -13.1420   17.5635 N   0  0  0  0  0  0  0  0  0  0  0  0
    7.6606  -13.5479   16.9694 C   0  0  0  0  0  0  0  0  0  0  0  0
    8.5652  -13.8946   17.9318 N   0  0  0  0  0  0  0  0  0  0  0  0
    9.7388  -15.6091   21.9145 C   0  0  0  0  0  0  0  0  0  0  0  0
   10.6034  -14.8228   22.3722 O   0  0  0  0  0  0  0  0  0  0  0  0
    9.3472  -16.7053   22.7271 N   0  0  0  0  0  0  0  0  0  0  0  0
   10.1050  -17.0577   23.9376 C   0  0  1  0  0  0  0  0  0  0  0  0
    9.3468  -18.1250   24.6942 C   0  0  0  0  0  0  0  0  0  0  0  0
    7.8973  -17.8050   24.8495 C   0  0  0  0  0  0  0  0  0  0  0  0
    7.2307  -18.8915   25.5959 C   0  0  0  0  0  0  0  0  0  0  0  0
    7.6001  -19.1614   26.7587 O   0  0  0  0  0  0  0  0  0  0  0  0
   11.4683  -17.4723   23.5899 C   0  0  0  0  0  0  0  0  0  0  0  0
   11.7670  -17.6672   22.3890 O   0  0  0  0  0  0  0  0  0  0  0  0
    6.2022  -19.6215   25.0360 O   0  0  0  0  0  0  0  0  0  0  0  0
   12.4512  -17.6562   24.5847 N   0  0  0  0  0  0  0  0  0  0  0  0
   13.8958  -17.4960   24.3242 C   0  0  1  0  0  0  0  0  0  0  0  0
   14.1887  -16.1602   23.7504 C   0  0  0  0  0  0  0  0  0  0  0  0
   15.6310  -15.9820   23.5232 C   0  0  0  0  0  0  0  0  0  0  0  0
   16.5197  -16.0009   24.3975 O   0  0  0  0  0  0  0  0  0  0  0  0
   14.6241  -17.7939   25.5939 C   0  0  0  0  0  0  0  0  0  0  0  0
   15.6077  -18.6191   25.5572 O   0  0  0  0  0  0  0  0  0  0  0  0
   16.1325  -15.7634   22.2112 O   0  0  0  0  0  0  0  0  0  0  0  0
   14.3606  -17.2753   26.8337 O   0  0  0  0  0  0  0  0  0  0  0  0
  2  1  1  1
  3  4  1  0
  3  2  1  0
  4  5  2  0
  6  5  1  0
  7  6  1  0
  8  7  2  0
  8  4  1  0
  9  2  1  0
  9 11  1  0
 10  9  2  0
 11 12  1  0
 12 13  1  6
 13 14  1  0
 14 15  1  0
 15 19  1  0
 16 15  2  0
 17 12  1  0
 18 17  2  0
 20 17  1  0
 21 20  1  0
 21 25  1  0
 21 22  1  1
 23 22  1  0
 23 27  1  0
 24 23  2  0
 25 28  1  0
 26 25  2  0
M  END
$$$$
