SCN.pdb
     RDKit          3D

 21 20  0  0  1  0  0  0  0  0999 V2000
   18.7078  -14.1410  -14.4280 O   0  0  0  0  0  0  0  0  0  0  0  0
   18.4429  -12.7887  -14.6246 C   0  0  0  0  0  0  0  0  0  0  0  0
   18.8946  -12.4018  -16.0155 C   0  0  2  0  0  0  0  0  0  0  0  0
   20.2713  -12.8029  -16.2075 N   0  0  0  0  0  0  0  0  0  0  0  0
   18.7932  -10.9482  -16.1428 C   0  0  0  0  0  0  0  0  0  0  0  0
   19.7291  -10.2789  -16.6395 O   0  0  0  0  0  0  0  0  0  0  0  0
   17.6227  -10.2313  -15.7060 N   0  0  0  0  0  0  0  0  0  0  0  0
   17.4971   -8.8108  -15.8769 C   0  0  1  0  0  0  0  0  0  0  0  0
   16.0671   -8.3374  -15.7691 C   0  0  0  0  0  0  0  0  0  0  0  0
   14.9979   -9.3228  -16.8367 S   0  0  0  0  0  0  0  0  0  0  0  0
   18.3368   -8.0514  -14.9165 C   0  0  0  0  0  0  0  0  0  0  0  0
   18.5027   -8.4231  -13.7344 O   0  0  0  0  0  0  0  0  0  0  0  0
   22.0543   -4.8527  -13.2467 N   0  0  0  0  0  0  0  0  0  0  0  0
   22.3812   -5.8531  -14.2132 C   0  0  0  0  0  0  0  0  0  0  0  0
   23.6006   -6.0680  -14.3747 O   0  0  0  0  0  0  0  0  0  0  0  0
   21.2647   -6.5003  -14.8918 C   0  0  0  0  0  0  0  0  0  0  0  0
   19.8925   -6.1041  -14.4823 C   0  0  2  0  0  0  0  0  0  0  0  0
   18.9759   -6.8657  -15.3416 N   0  0  0  0  0  0  0  0  0  0  0  0
   19.5488   -4.6877  -14.6364 C   0  0  0  0  0  0  0  0  0  0  0  0
   18.8112   -4.3173  -15.5700 O   0  0  0  0  0  0  0  0  0  0  0  0
   20.0290   -3.7451  -13.7602 O   0  0  0  0  0  0  0  0  0  0  0  0
  1  2  1  0
  2  3  1  0
  3  4  1  1
  5  7  1  0
  5  3  1  0
  6  5  2  0
  8  9  1  1
  8 11  1  0
  8  7  1  0
 10  9  1  0
 11 12  2  0
 13 14  1  0
 14 16  1  0
 15 14  2  0
 17 16  1  6
 17 19  1  0
 18 17  1  0
 18 11  1  0
 19 20  2  0
 19 21  1  0
M  END
$$$$
