SCN.pdb
     RDKit          3D

 21 20  0  0  1  0  0  0  0  0999 V2000
   24.4293  -15.0182  -20.3561 O   0  0  0  0  0  0  0  0  0  0  0  0
   24.3045  -13.8578  -19.5976 C   0  0  0  0  0  0  0  0  0  0  0  0
   25.5417  -13.7010  -18.7414 C   0  0  2  0  0  0  0  0  0  0  0  0
   25.7817  -14.9243  -18.0072 N   0  0  0  0  0  0  0  0  0  0  0  0
   25.3102  -12.6087  -17.7967 C   0  0  0  0  0  0  0  0  0  0  0  0
   24.4174  -12.6933  -16.9213 O   0  0  0  0  0  0  0  0  0  0  0  0
   26.0926  -11.3998  -17.8329 N   0  0  0  0  0  0  0  0  0  0  0  0
   25.8642  -10.3221  -16.9114 C   0  0  1  0  0  0  0  0  0  0  0  0
   27.1483   -9.7129  -16.4008 C   0  0  0  0  0  0  0  0  0  0  0  0
   27.9502  -10.8282  -15.2316 S   0  0  0  0  0  0  0  0  0  0  0  0
   25.0143   -9.2532  -17.4941 C   0  0  0  0  0  0  0  0  0  0  0  0
   25.1995   -8.8061  -18.6468 O   0  0  0  0  0  0  0  0  0  0  0  0
   19.3020   -8.1733  -17.8337 N   0  0  0  0  0  0  0  0  0  0  0  0
   20.5911   -7.5568  -17.8370 C   0  0  0  0  0  0  0  0  0  0  0  0
   20.6333   -6.3989  -18.3022 O   0  0  0  0  0  0  0  0  0  0  0  0
   21.6962   -8.3432  -17.3021 C   0  0  0  0  0  0  0  0  0  0  0  0
   23.0338   -7.6979  -17.2517 C   0  0  2  0  0  0  0  0  0  0  0  0
   23.9563   -8.7147  -16.7288 N   0  0  0  0  0  0  0  0  0  0  0  0
   23.1581   -6.5203  -16.3882 C   0  0  0  0  0  0  0  0  0  0  0  0
   23.4438   -6.6516  -15.1824 O   0  0  0  0  0  0  0  0  0  0  0  0
   22.9641   -5.2551  -16.8870 O   0  0  0  0  0  0  0  0  0  0  0  0
  1  2  1  0
  2  3  1  0
  3  4  1  1
  5  7  1  0
  5  3  1  0
  6  5  2  0
  8  9  1  6
  8 11  1  0
  8  7  1  0
 10  9  1  0
 11 12  2  0
 13 14  1  0
 14 16  1  0
 15 14  2  0
 17 16  1  1
 17 19  1  0
 18 17  1  0
 18 11  1  0
 19 20  2  0
 19 21  1  0
M  END
$$$$
