SCN.pdb
     RDKit          3D

 21 20  0  0  1  0  0  0  0  0999 V2000
   17.7253  -14.9638  -17.5472 O   0  0  0  0  0  0  0  0  0  0  0  0
   18.2502  -14.1290  -16.5648 C   0  0  0  0  0  0  0  0  0  0  0  0
   19.7526  -14.0680  -16.7301 C   0  0  2  0  0  0  0  0  0  0  0  0
   20.3245  -15.3671  -16.4497 N   0  0  0  0  0  0  0  0  0  0  0  0
   20.2797  -13.0926  -15.7762 C   0  0  0  0  0  0  0  0  0  0  0  0
   20.2090  -13.2966  -14.5418 O   0  0  0  0  0  0  0  0  0  0  0  0
   20.8972  -11.8666  -16.2127 N   0  0  0  0  0  0  0  0  0  0  0  0
   21.4063  -10.9010  -15.2792 C   0  0  1  0  0  0  0  0  0  0  0  0
   22.7368  -10.3274  -15.7051 C   0  0  0  0  0  0  0  0  0  0  0  0
   24.0750  -11.4553  -15.2679 S   0  0  0  0  0  0  0  0  0  0  0  0
   20.4501   -9.7909  -15.0393 C   0  0  0  0  0  0  0  0  0  0  0  0
   19.7951   -9.2615  -15.9633 O   0  0  0  0  0  0  0  0  0  0  0  0
   18.3207   -7.0922  -10.0890 N   0  0  0  0  0  0  0  0  0  0  0  0
   17.9445   -7.5775  -11.3793 C   0  0  0  0  0  0  0  0  0  0  0  0
   16.8778   -7.1179  -11.8377 O   0  0  0  0  0  0  0  0  0  0  0  0
   18.8405   -8.5428  -12.0046 C   0  0  0  0  0  0  0  0  0  0  0  0
   19.2896   -8.2606  -13.3926 C   0  0  2  0  0  0  0  0  0  0  0  0
   20.2652   -9.3073  -13.7251 N   0  0  0  0  0  0  0  0  0  0  0  0
   19.9499   -6.9713  -13.6154 C   0  0  0  0  0  0  0  0  0  0  0  0
   21.1679   -6.8405  -13.3868 O   0  0  0  0  0  0  0  0  0  0  0  0
   19.2446   -5.8872  -14.0784 O   0  0  0  0  0  0  0  0  0  0  0  0
  1  2  1  0
  2  3  1  0
  3  4  1  1
  5  7  1  0
  5  3  1  0
  6  5  2  0
  8  9  1  6
  8 11  1  0
  8  7  1  0
 10  9  1  0
 11 12  2  0
 13 14  1  0
 14 16  1  0
 15 14  2  0
 17 16  1  1
 17 19  1  0
 18 17  1  0
 18 11  1  0
 19 20  2  0
 19 21  1  0
M  END
$$$$
