SCN.pdb
     RDKit          3D

 21 20  0  0  1  0  0  0  0  0999 V2000
   26.9646  -18.6061  -15.3497 O   0  0  0  0  0  0  0  0  0  0  0  0
   27.8706  -18.8373  -14.3186 C   0  0  0  0  0  0  0  0  0  0  0  0
   28.0353  -20.3306  -14.1416 C   0  0  2  0  0  0  0  0  0  0  0  0
   28.2512  -20.9508  -15.4307 N   0  0  0  0  0  0  0  0  0  0  0  0
   26.8068  -20.8607  -13.5508 C   0  0  0  0  0  0  0  0  0  0  0  0
   26.0737  -21.6504  -14.1906 O   0  0  0  0  0  0  0  0  0  0  0  0
   26.3919  -20.4998  -12.2194 N   0  0  0  0  0  0  0  0  0  0  0  0
   25.1452  -20.9504  -11.6666 C   0  0  1  0  0  0  0  0  0  0  0  0
   25.0060  -20.6165  -10.2004 C   0  0  0  0  0  0  0  0  0  0  0  0
   26.4104  -21.2657   -9.2730 S   0  0  0  0  0  0  0  0  0  0  0  0
   23.9746  -20.4113  -12.4036 C   0  0  0  0  0  0  0  0  0  0  0  0
   23.9034  -19.2159  -12.7626 O   0  0  0  0  0  0  0  0  0  0  0  0
   20.0709  -20.5543  -15.7851 N   0  0  0  0  0  0  0  0  0  0  0  0
   21.2492  -21.3147  -16.0591 C   0  0  0  0  0  0  0  0  0  0  0  0
   21.3538  -21.7440  -17.2269 O   0  0  0  0  0  0  0  0  0  0  0  0
   22.1832  -21.4991  -14.9548 C   0  0  0  0  0  0  0  0  0  0  0  0
   21.8243  -20.8932  -13.6464 C   0  0  2  0  0  0  0  0  0  0  0  0
   22.8971  -21.2696  -12.7160 N   0  0  0  0  0  0  0  0  0  0  0  0
   20.5616  -21.3344  -13.0473 C   0  0  0  0  0  0  0  0  0  0  0  0
   19.6167  -20.5337  -12.9101 O   0  0  0  0  0  0  0  0  0  0  0  0
   20.3942  -22.6317  -12.6277 O   0  0  0  0  0  0  0  0  0  0  0  0
  1  2  1  0
  2  3  1  0
  3  4  1  6
  5  7  1  0
  5  3  1  0
  6  5  2  0
  8  9  1  1
  8 11  1  0
  8  7  1  0
 10  9  1  0
 11 12  2  0
 13 14  1  0
 14 16  1  0
 15 14  2  0
 17 16  1  6
 17 19  1  0
 18 17  1  0
 18 11  1  0
 19 20  2  0
 19 21  1  0
M  END
$$$$
