SCN.pdb
     RDKit          3D

 21 20  0  0  1  0  0  0  0  0999 V2000
   22.2590  -10.6951  -19.0591 O   0  0  0  0  0  0  0  0  0  0  0  0
   21.2930   -9.7895  -18.6301 C   0  0  0  0  0  0  0  0  0  0  0  0
   20.4974  -10.4215  -17.5094 C   0  0  2  0  0  0  0  0  0  0  0  0
   19.2838  -11.0008  -18.0431 N   0  0  0  0  0  0  0  0  0  0  0  0
   20.1504   -9.3761  -16.5471 C   0  0  0  0  0  0  0  0  0  0  0  0
   19.4545   -8.3916  -16.8894 O   0  0  0  0  0  0  0  0  0  0  0  0
   20.5907   -9.4342  -15.1768 N   0  0  0  0  0  0  0  0  0  0  0  0
   20.3100   -8.3771  -14.2459 C   0  0  1  0  0  0  0  0  0  0  0  0
   20.2381   -8.8648  -12.8184 C   0  0  0  0  0  0  0  0  0  0  0  0
   19.7150   -7.5291  -11.7247 S   0  0  0  0  0  0  0  0  0  0  0  0
   21.2966   -7.2712  -14.3350 C   0  0  0  0  0  0  0  0  0  0  0  0
   22.5298   -7.4755  -14.3521 O   0  0  0  0  0  0  0  0  0  0  0  0
   23.2266   -2.6542  -15.5926 N   0  0  0  0  0  0  0  0  0  0  0  0
   22.7274   -3.5682  -16.5709 C   0  0  0  0  0  0  0  0  0  0  0  0
   23.0091   -3.2952  -17.7564 O   0  0  0  0  0  0  0  0  0  0  0  0
   21.9552   -4.7019  -16.0769 C   0  0  0  0  0  0  0  0  0  0  0  0
   21.7391   -4.7955  -14.6098 C   0  0  2  0  0  0  0  0  0  0  0  0
   20.8377   -5.9371  -14.4036 N   0  0  0  0  0  0  0  0  0  0  0  0
   21.1168   -3.6350  -13.9664 C   0  0  0  0  0  0  0  0  0  0  0  0
   21.8106   -2.8275  -13.3188 O   0  0  0  0  0  0  0  0  0  0  0  0
   19.7644   -3.4144  -14.0636 O   0  0  0  0  0  0  0  0  0  0  0  0
  1  2  1  0
  2  3  1  0
  3  4  1  6
  5  7  1  0
  5  3  1  0
  6  5  2  0
  8  9  1  1
  8 11  1  0
  8  7  1  0
 10  9  1  0
 11 12  2  0
 13 14  1  0
 14 16  1  0
 15 14  2  0
 17 16  1  6
 17 19  1  0
 18 17  1  0
 18 11  1  0
 19 20  2  0
 19 21  1  0
M  END
$$$$
