SCN.pdb
     RDKit          3D

 21 20  0  0  1  0  0  0  0  0999 V2000
   19.3464  -13.3932  -16.4848 O   0  0  0  0  0  0  0  0  0  0  0  0
   18.3937  -12.3852  -16.6023 C   0  0  0  0  0  0  0  0  0  0  0  0
   18.9967  -11.2340  -17.3767 C   0  0  2  0  0  0  0  0  0  0  0  0
   19.8920  -11.7475  -18.3905 N   0  0  0  0  0  0  0  0  0  0  0  0
   19.7527  -10.3994  -16.4432 C   0  0  0  0  0  0  0  0  0  0  0  0
   19.1878   -9.8492  -15.4692 O   0  0  0  0  0  0  0  0  0  0  0  0
   21.1668  -10.1771  -16.6035 N   0  0  0  0  0  0  0  0  0  0  0  0
   21.9162   -9.3717  -15.6801 C   0  0  1  0  0  0  0  0  0  0  0  0
   23.3759   -9.7550  -15.6275 C   0  0  0  0  0  0  0  0  0  0  0  0
   23.7315  -10.6642  -14.1106 S   0  0  0  0  0  0  0  0  0  0  0  0
   21.8024   -7.9214  -15.9765 C   0  0  0  0  0  0  0  0  0  0  0  0
   22.0879   -7.4436  -17.0959 O   0  0  0  0  0  0  0  0  0  0  0  0
   20.4246   -2.9265  -15.2213 N   0  0  0  0  0  0  0  0  0  0  0  0
   19.3830   -3.9008  -15.3080 C   0  0  0  0  0  0  0  0  0  0  0  0
   18.2262   -3.4443  -15.4196 O   0  0  0  0  0  0  0  0  0  0  0  0
   19.7875   -5.3007  -15.2568 C   0  0  0  0  0  0  0  0  0  0  0  0
   21.2422   -5.5900  -15.1694 C   0  0  2  0  0  0  0  0  0  0  0  0
   21.3569   -7.0404  -14.9662 N   0  0  0  0  0  0  0  0  0  0  0  0
   21.9716   -4.9438  -14.0747 C   0  0  0  0  0  0  0  0  0  0  0  0
   22.3918   -3.7774  -14.2008 O   0  0  0  0  0  0  0  0  0  0  0  0
   22.2052   -5.6059  -12.8940 O   0  0  0  0  0  0  0  0  0  0  0  0
  1  2  1  0
  2  3  1  0
  3  4  1  6
  5  7  1  0
  5  3  1  0
  6  5  2  0
  8  9  1  6
  8 11  1  0
  8  7  1  0
 10  9  1  0
 11 12  2  0
 13 14  1  0
 14 16  1  0
 15 14  2  0
 17 16  1  1
 17 19  1  0
 18 17  1  0
 18 11  1  0
 19 20  2  0
 19 21  1  0
M  END
$$$$
