SCN.pdb
     RDKit          3D

 21 20  0  0  1  0  0  0  0  0999 V2000
   17.1702  -12.9711  -18.3797 O   0  0  0  0  0  0  0  0  0  0  0  0
   17.7512  -11.9698  -17.6069 C   0  0  0  0  0  0  0  0  0  0  0  0
   18.9473  -12.5467  -16.8824 C   0  0  2  0  0  0  0  0  0  0  0  0
   18.5082  -13.5736  -15.9626 N   0  0  0  0  0  0  0  0  0  0  0  0
   19.5918  -11.4698  -16.1313 C   0  0  0  0  0  0  0  0  0  0  0  0
   18.9827  -10.8705  -15.2147 O   0  0  0  0  0  0  0  0  0  0  0  0
   20.9430  -11.0567  -16.4119 N   0  0  0  0  0  0  0  0  0  0  0  0
   21.5741   -9.9889  -15.6878 C   0  0  1  0  0  0  0  0  0  0  0  0
   23.0526  -10.2199  -15.4845 C   0  0  0  0  0  0  0  0  0  0  0  0
   23.3519  -10.9977  -13.8847 S   0  0  0  0  0  0  0  0  0  0  0  0
   21.3707   -8.6699  -16.3382 C   0  0  0  0  0  0  0  0  0  0  0  0
   21.5882   -8.4842  -17.5553 O   0  0  0  0  0  0  0  0  0  0  0  0
   17.2658   -5.0846  -17.4724 N   0  0  0  0  0  0  0  0  0  0  0  0
   18.6734   -5.1112  -17.2285 C   0  0  0  0  0  0  0  0  0  0  0  0
   19.3116   -4.1233  -17.6479 O   0  0  0  0  0  0  0  0  0  0  0  0
   19.1961   -6.2767  -16.5255 C   0  0  0  0  0  0  0  0  0  0  0  0
   20.6317   -6.2582  -16.1428 C   0  0  2  0  0  0  0  0  0  0  0  0
   20.9156   -7.5789  -15.5652 N   0  0  0  0  0  0  0  0  0  0  0  0
   21.0287   -5.2592  -15.1466 C   0  0  0  0  0  0  0  0  0  0  0  0
   21.0626   -5.5561  -13.9368 O   0  0  0  0  0  0  0  0  0  0  0  0
   21.3702   -3.9831  -15.5234 O   0  0  0  0  0  0  0  0  0  0  0  0
  1  2  1  0
  2  3  1  0
  3  4  1  1
  5  7  1  0
  5  3  1  0
  6  5  2  0
  8  9  1  6
  8 11  1  0
  8  7  1  0
 10  9  1  0
 11 12  2  0
 13 14  1  0
 14 16  1  0
 15 14  2  0
 17 16  1  1
 17 19  1  0
 18 17  1  0
 18 11  1  0
 19 20  2  0
 19 21  1  0
M  END
$$$$
