SCN.pdb
     RDKit          3D

 21 20  0  0  1  0  0  0  0  0999 V2000
   10.9897  -11.7268  -11.3528 O   0  0  0  0  0  0  0  0  0  0  0  0
   11.7898  -10.6992  -10.8613 C   0  0  0  0  0  0  0  0  0  0  0  0
   13.2390  -11.0408  -11.1288 C   0  0  2  0  0  0  0  0  0  0  0  0
   13.5321  -12.3566  -10.6034 N   0  0  0  0  0  0  0  0  0  0  0  0
   14.0760  -10.0525  -10.4493 C   0  0  0  0  0  0  0  0  0  0  0  0
   13.7751   -9.6294   -9.3087 O   0  0  0  0  0  0  0  0  0  0  0  0
   15.2717   -9.5284  -11.0581 N   0  0  0  0  0  0  0  0  0  0  0  0
   16.1023   -8.5659  -10.3899 C   0  0  1  0  0  0  0  0  0  0  0  0
   17.4588   -8.4207  -11.0376 C   0  0  0  0  0  0  0  0  0  0  0  0
   18.4531   -9.8980  -10.7490 S   0  0  0  0  0  0  0  0  0  0  0  0
   15.4582   -7.2312  -10.3010 C   0  0  0  0  0  0  0  0  0  0  0  0
   14.8463   -6.7189  -11.2633 O   0  0  0  0  0  0  0  0  0  0  0  0
   13.4142   -3.6707   -5.8953 N   0  0  0  0  0  0  0  0  0  0  0  0
   14.2812   -3.6622   -7.0311 C   0  0  0  0  0  0  0  0  0  0  0  0
   14.5051   -2.5394   -7.5295 O   0  0  0  0  0  0  0  0  0  0  0  0
   14.7987   -4.9521   -7.4718 C   0  0  0  0  0  0  0  0  0  0  0  0
   14.9591   -5.1617   -8.9340 C   0  0  2  0  0  0  0  0  0  0  0  0
   15.5324   -6.5051   -9.0917 N   0  0  0  0  0  0  0  0  0  0  0  0
   15.8488   -4.2301   -9.6331 C   0  0  0  0  0  0  0  0  0  0  0  0
   17.0807   -4.4180   -9.6346 O   0  0  0  0  0  0  0  0  0  0  0  0
   15.3464   -3.1378  -10.2975 O   0  0  0  0  0  0  0  0  0  0  0  0
  1  2  1  0
  2  3  1  0
  3  4  1  1
  5  7  1  0
  5  3  1  0
  6  5  2  0
  8  9  1  6
  8 11  1  0
  8  7  1  0
 10  9  1  0
 11 12  2  0
 13 14  1  0
 14 16  1  0
 15 14  2  0
 17 16  1  1
 17 19  1  0
 18 17  1  0
 18 11  1  0
 19 20  2  0
 19 21  1  0
M  END
$$$$
