SCN.pdb
     RDKit          3D

 21 20  0  0  1  0  0  0  0  0999 V2000
   18.0998  -14.0750  -14.4132 O   0  0  0  0  0  0  0  0  0  0  0  0
   18.3818  -12.9422  -15.1712 C   0  0  0  0  0  0  0  0  0  0  0  0
   17.0792  -12.3444  -15.6554 C   0  0  2  0  0  0  0  0  0  0  0  0
   16.4383  -13.2587  -16.5755 N   0  0  0  0  0  0  0  0  0  0  0  0
   17.3792  -11.0925  -16.3497 C   0  0  0  0  0  0  0  0  0  0  0  0
   16.9538  -10.8819  -17.5095 O   0  0  0  0  0  0  0  0  0  0  0  0
   18.1700  -10.0578  -15.7341 N   0  0  0  0  0  0  0  0  0  0  0  0
   18.4147   -8.8022  -16.3870 C   0  0  1  0  0  0  0  0  0  0  0  0
   17.1504   -8.0059  -16.6064 C   0  0  0  0  0  0  0  0  0  0  0  0
   16.1493   -7.9924  -15.1059 S   0  0  0  0  0  0  0  0  0  0  0  0
   19.3968   -7.9665  -15.6512 C   0  0  0  0  0  0  0  0  0  0  0  0
   19.3865   -7.8641  -14.4052 O   0  0  0  0  0  0  0  0  0  0  0  0
   23.7598   -5.1008  -15.0046 N   0  0  0  0  0  0  0  0  0  0  0  0
   23.7575   -5.6788  -16.3113 C   0  0  0  0  0  0  0  0  0  0  0  0
   24.7742   -5.4555  -17.0009 O   0  0  0  0  0  0  0  0  0  0  0  0
   22.5806   -6.4545  -16.6842 C   0  0  0  0  0  0  0  0  0  0  0  0
   21.4521   -6.4930  -15.7183 C   0  0  2  0  0  0  0  0  0  0  0  0
   20.3822   -7.2576  -16.3732 N   0  0  0  0  0  0  0  0  0  0  0  0
   20.8808   -5.2002  -15.3304 C   0  0  0  0  0  0  0  0  0  0  0  0
   21.3916   -4.5385  -14.4063 O   0  0  0  0  0  0  0  0  0  0  0  0
   19.7776   -4.6940  -15.9737 O   0  0  0  0  0  0  0  0  0  0  0  0
  1  2  1  0
  2  3  1  0
  3  4  1  6
  5  7  1  0
  5  3  1  0
  6  5  2  0
  8  9  1  1
  8 11  1  0
  8  7  1  0
 10  9  1  0
 11 12  2  0
 13 14  1  0
 14 16  1  0
 15 14  2  0
 17 16  1  6
 17 19  1  0
 18 17  1  0
 18 11  1  0
 19 20  2  0
 19 21  1  0
M  END
$$$$
