SCN.pdb
     RDKit          3D

 21 20  0  0  1  0  0  0  0  0999 V2000
   16.3542  -14.5288  -18.1762 O   0  0  0  0  0  0  0  0  0  0  0  0
   17.1393  -13.9280  -17.1963 C   0  0  0  0  0  0  0  0  0  0  0  0
   18.5826  -14.3219  -17.4203 C   0  0  2  0  0  0  0  0  0  0  0  0
   18.7870  -15.6853  -16.9816 N   0  0  0  0  0  0  0  0  0  0  0  0
   19.4296  -13.4286  -16.6305 C   0  0  0  0  0  0  0  0  0  0  0  0
   19.2210  -13.2596  -15.4064 O   0  0  0  0  0  0  0  0  0  0  0  0
   20.5301  -12.7118  -17.2221 N   0  0  0  0  0  0  0  0  0  0  0  0
   21.3594  -11.8276  -16.4519 C   0  0  1  0  0  0  0  0  0  0  0  0
   22.8286  -11.9970  -16.7571 C   0  0  0  0  0  0  0  0  0  0  0  0
   23.8221  -10.9902  -15.6375 S   0  0  0  0  0  0  0  0  0  0  0  0
   20.9840  -10.4026  -16.6330 C   0  0  0  0  0  0  0  0  0  0  0  0
   20.8422   -9.8873  -17.7631 O   0  0  0  0  0  0  0  0  0  0  0  0
   17.5265   -6.3565  -14.4918 N   0  0  0  0  0  0  0  0  0  0  0  0
   18.9407   -6.5378  -14.3984 C   0  0  0  0  0  0  0  0  0  0  0  0
   19.6059   -5.4979  -14.2106 O   0  0  0  0  0  0  0  0  0  0  0  0
   19.4381   -7.9019  -14.5315 C   0  0  0  0  0  0  0  0  0  0  0  0
   20.4501   -8.1613  -15.5881 C   0  0  2  0  0  0  0  0  0  0  0  0
   20.7770   -9.5906  -15.4959 N   0  0  0  0  0  0  0  0  0  0  0  0
   21.7120   -7.4240  -15.4782 C   0  0  0  0  0  0  0  0  0  0  0  0
   22.5920   -7.7986  -14.6795 O   0  0  0  0  0  0  0  0  0  0  0  0
   21.9496   -6.3119  -16.2489 O   0  0  0  0  0  0  0  0  0  0  0  0
  1  2  1  0
  2  3  1  0
  3  4  1  1
  5  7  1  0
  5  3  1  0
  6  5  2  0
  8  9  1  6
  8 11  1  0
  8  7  1  0
 10  9  1  0
 11 12  2  0
 13 14  1  0
 14 16  1  0
 15 14  2  0
 17 16  1  1
 17 19  1  0
 18 17  1  0
 18 11  1  0
 19 20  2  0
 19 21  1  0
M  END
$$$$
