SCN.pdb
     RDKit          3D

 21 20  0  0  1  0  0  0  0  0999 V2000
   28.6293  -23.8108  -17.4423 O   0  0  0  0  0  0  0  0  0  0  0  0
   27.6959  -22.7789  -17.4069 C   0  0  0  0  0  0  0  0  0  0  0  0
   27.0468  -22.7568  -16.0406 C   0  0  2  0  0  0  0  0  0  0  0  0
   26.0059  -23.7599  -15.9819 N   0  0  0  0  0  0  0  0  0  0  0  0
   26.4553  -21.4350  -15.8352 C   0  0  0  0  0  0  0  0  0  0  0  0
   25.2145  -21.2689  -15.8942 O   0  0  0  0  0  0  0  0  0  0  0  0
   27.2680  -20.2782  -15.5587 N   0  0  0  0  0  0  0  0  0  0  0  0
   26.7001  -18.9640  -15.4431 C   0  0  1  0  0  0  0  0  0  0  0  0
   27.7047  -17.9365  -14.9786 C   0  0  0  0  0  0  0  0  0  0  0  0
   26.8953  -16.3483  -14.7020 S   0  0  0  0  0  0  0  0  0  0  0  0
   26.0820  -18.5039  -16.7121 C   0  0  0  0  0  0  0  0  0  0  0  0
   26.6678  -18.5957  -17.8128 O   0  0  0  0  0  0  0  0  0  0  0  0
   21.3966  -18.6817  -19.8133 N   0  0  0  0  0  0  0  0  0  0  0  0
   21.7601  -17.6969  -18.8440 C   0  0  0  0  0  0  0  0  0  0  0  0
   21.2061  -16.5852  -18.9715 O   0  0  0  0  0  0  0  0  0  0  0  0
   22.7258  -18.1000  -17.8287 C   0  0  0  0  0  0  0  0  0  0  0  0
   24.0856  -17.5057  -17.9032 C   0  0  2  0  0  0  0  0  0  0  0  0
   24.7868  -17.9409  -16.6878 N   0  0  0  0  0  0  0  0  0  0  0  0
   24.1572  -16.0423  -17.9400 C   0  0  0  0  0  0  0  0  0  0  0  0
   23.9877  -15.4309  -19.0124 O   0  0  0  0  0  0  0  0  0  0  0  0
   24.4106  -15.3188  -16.8001 O   0  0  0  0  0  0  0  0  0  0  0  0
  1  2  1  0
  2  3  1  0
  3  4  1  6
  5  7  1  0
  5  3  1  0
  6  5  2  0
  8  9  1  6
  8 11  1  0
  8  7  1  0
 10  9  1  0
 11 12  2  0
 13 14  1  0
 14 16  1  0
 15 14  2  0
 17 16  1  1
 17 19  1  0
 18 17  1  0
 18 11  1  0
 19 20  2  0
 19 21  1  0
M  END
$$$$
