SCN.pdb
     RDKit          3D

 21 20  0  0  1  0  0  0  0  0999 V2000
   17.3283   -9.4872  -16.6230 O   0  0  0  0  0  0  0  0  0  0  0  0
   17.2593   -9.1722  -15.2690 C   0  0  0  0  0  0  0  0  0  0  0  0
   18.6360   -9.3295  -14.6622 C   0  0  2  0  0  0  0  0  0  0  0  0
   18.9780  -10.7336  -14.5933 N   0  0  0  0  0  0  0  0  0  0  0  0
   18.6076   -8.7729  -13.3099 C   0  0  0  0  0  0  0  0  0  0  0  0
   18.0665   -9.3979  -12.3680 O   0  0  0  0  0  0  0  0  0  0  0  0
   19.1956   -7.4933  -13.0070 N   0  0  0  0  0  0  0  0  0  0  0  0
   19.1724   -6.9443  -11.6800 C   0  0  1  0  0  0  0  0  0  0  0  0
   20.2484   -5.9074  -11.4620 C   0  0  0  0  0  0  0  0  0  0  0  0
   21.8776   -6.6817  -11.4749 S   0  0  0  0  0  0  0  0  0  0  0  0
   17.8524   -6.3583  -11.3359 C   0  0  0  0  0  0  0  0  0  0  0  0
   17.1631   -5.7292  -12.1677 O   0  0  0  0  0  0  0  0  0  0  0  0
   13.6906   -5.2865   -8.2839 N   0  0  0  0  0  0  0  0  0  0  0  0
   14.4646   -6.3197   -7.6713 C   0  0  0  0  0  0  0  0  0  0  0  0
   13.9935   -6.7916   -6.6156 O   0  0  0  0  0  0  0  0  0  0  0  0
   15.7018   -6.6993   -8.3429 C   0  0  0  0  0  0  0  0  0  0  0  0
   16.0258   -6.0124   -9.6200 C   0  0  2  0  0  0  0  0  0  0  0  0
   17.3470   -6.5105  -10.0257 N   0  0  0  0  0  0  0  0  0  0  0  0
   16.1145   -4.5503   -9.5703 C   0  0  0  0  0  0  0  0  0  0  0  0
   15.1427   -3.8492   -9.9121 O   0  0  0  0  0  0  0  0  0  0  0  0
   17.2632   -3.9263   -9.1482 O   0  0  0  0  0  0  0  0  0  0  0  0
  1  2  1  0
  2  3  1  0
  3  4  1  1
  5  7  1  0
  5  3  1  0
  6  5  2  0
  8  9  1  6
  8 11  1  0
  8  7  1  0
 10  9  1  0
 11 12  2  0
 13 14  1  0
 14 16  1  0
 15 14  2  0
 17 16  1  1
 17 19  1  0
 18 17  1  0
 18 11  1  0
 19 20  2  0
 19 21  1  0
M  END
$$$$
