SCN.pdb
     RDKit          3D

 21 20  0  0  1  0  0  0  0  0999 V2000
   19.7871  -11.1616  -20.4514 O   0  0  0  0  0  0  0  0  0  0  0  0
   20.1017  -10.3975  -19.3313 C   0  0  0  0  0  0  0  0  0  0  0  0
   20.8141  -11.2767  -18.3273 C   0  0  2  0  0  0  0  0  0  0  0  0
   19.8620  -12.1684  -17.7017 N   0  0  0  0  0  0  0  0  0  0  0  0
   21.4117  -10.4160  -17.3068 C   0  0  0  0  0  0  0  0  0  0  0  0
   20.8369  -10.2238  -16.2099 O   0  0  0  0  0  0  0  0  0  0  0  0
   22.6760   -9.7588  -17.5185 N   0  0  0  0  0  0  0  0  0  0  0  0
   23.2329   -8.8581  -16.5483 C   0  0  1  0  0  0  0  0  0  0  0  0
   24.7426   -8.8321  -16.5799 C   0  0  0  0  0  0  0  0  0  0  0  0
   25.3744   -7.6335  -15.3890 S   0  0  0  0  0  0  0  0  0  0  0  0
   22.7173   -7.4745  -16.7028 C   0  0  0  0  0  0  0  0  0  0  0  0
   22.8301   -6.8346  -17.7709 O   0  0  0  0  0  0  0  0  0  0  0  0
   17.9261   -4.4719  -15.0709 N   0  0  0  0  0  0  0  0  0  0  0  0
   19.3205   -4.3504  -15.3582 C   0  0  0  0  0  0  0  0  0  0  0  0
   19.7164   -3.1975  -15.6286 O   0  0  0  0  0  0  0  0  0  0  0  0
   20.1113   -5.5741  -15.3028 C   0  0  0  0  0  0  0  0  0  0  0  0
   21.5457   -5.4796  -15.6790 C   0  0  2  0  0  0  0  0  0  0  0  0
   22.0747   -6.8485  -15.6118 N   0  0  0  0  0  0  0  0  0  0  0  0
   22.3927   -4.6489  -14.8185 C   0  0  0  0  0  0  0  0  0  0  0  0
   22.9701   -5.1481  -13.8334 O   0  0  0  0  0  0  0  0  0  0  0  0
   22.5671   -3.3114  -15.0784 O   0  0  0  0  0  0  0  0  0  0  0  0
  1  2  1  0
  2  3  1  0
  3  4  1  1
  5  7  1  0
  5  3  1  0
  6  5  2  0
  8  9  1  6
  8 11  1  0
  8  7  1  0
 10  9  1  0
 11 12  2  0
 13 14  1  0
 14 16  1  0
 15 14  2  0
 17 16  1  1
 17 19  1  0
 18 17  1  0
 18 11  1  0
 19 20  2  0
 19 21  1  0
M  END
$$$$
