SCN.pdb
     RDKit          3D

 21 20  0  0  1  0  0  0  0  0999 V2000
   19.4122  -21.2552  -11.9588 O   0  0  0  0  0  0  0  0  0  0  0  0
   18.5902  -22.1293  -11.2533 C   0  0  0  0  0  0  0  0  0  0  0  0
   18.8223  -23.5343  -11.7637 C   0  0  2  0  0  0  0  0  0  0  0  0
   18.2024  -23.6873  -13.0620 N   0  0  0  0  0  0  0  0  0  0  0  0
   18.2092  -24.4712  -10.8228 C   0  0  0  0  0  0  0  0  0  0  0  0
   16.9631  -24.5711  -10.7338 O   0  0  0  0  0  0  0  0  0  0  0  0
   19.0059  -25.3115   -9.9660 N   0  0  0  0  0  0  0  0  0  0  0  0
   18.4084  -26.2560   -9.0638 C   0  0  1  0  0  0  0  0  0  0  0  0
   19.0587  -27.6172   -9.1342 C   0  0  0  0  0  0  0  0  0  0  0  0
   18.9820  -28.2628  -10.8169 S   0  0  0  0  0  0  0  0  0  0  0  0
   18.4239  -25.7795   -7.6578 C   0  0  0  0  0  0  0  0  0  0  0  0
   19.4228  -25.2239   -7.1513 O   0  0  0  0  0  0  0  0  0  0  0  0
   16.4583  -24.5088   -2.9576 N   0  0  0  0  0  0  0  0  0  0  0  0
   15.3907  -24.7281   -3.8815 C   0  0  0  0  0  0  0  0  0  0  0  0
   14.2431  -24.5114   -3.4399 O   0  0  0  0  0  0  0  0  0  0  0  0
   15.7612  -25.1748   -5.2191 C   0  0  0  0  0  0  0  0  0  0  0  0
   17.1948  -25.4761   -5.4674 C   0  0  2  0  0  0  0  0  0  0  0  0
   17.2756  -25.9543   -6.8541 N   0  0  0  0  0  0  0  0  0  0  0  0
   17.8010  -26.5077   -4.6211 C   0  0  0  0  0  0  0  0  0  0  0  0
   17.6802  -27.7129   -4.9141 O   0  0  0  0  0  0  0  0  0  0  0  0
   18.5110  -26.1698   -3.4947 O   0  0  0  0  0  0  0  0  0  0  0  0
  1  2  1  0
  2  3  1  0
  3  4  1  6
  5  7  1  0
  5  3  1  0
  6  5  2  0
  8  9  1  1
  8 11  1  0
  8  7  1  0
 10  9  1  0
 11 12  2  0
 13 14  1  0
 14 16  1  0
 15 14  2  0
 17 16  1  1
 17 19  1  0
 18 17  1  0
 18 11  1  0
 19 20  2  0
 19 21  1  0
M  END
$$$$
