SNI.pdb
     RDKit          3D

 23 22  0  0  1  0  0  0  0  0999 V2000
    8.6592  -15.4518   18.1404 O   0  0  0  0  0  0  0  0  0  0  0  0
    9.6659  -16.1081   18.8178 C   0  0  0  0  0  0  0  0  0  0  0  0
    9.1490  -17.4401   19.3200 C   0  0  2  0  0  0  0  0  0  0  0  0
    8.6075  -18.2625   18.2790 N   0  0  0  0  0  0  0  0  0  0  0  0
    8.1113  -17.2455   20.3645 C   0  0  0  0  0  0  0  0  0  0  0  0
    6.9129  -17.5164   20.0607 O   0  0  0  0  0  0  0  0  0  0  0  0
    6.8312  -19.6773   24.9458 N   0  0  0  0  0  0  0  0  0  0  0  0
    6.3842  -18.5052   24.2062 C   0  0  0  0  0  0  0  0  0  0  0  0
    5.3945  -17.9438   24.6993 O   0  0  0  0  0  0  0  0  0  0  0  0
    7.1462  -18.1708   23.0234 C   0  0  0  0  0  0  0  0  0  0  0  0
    7.4078  -16.7228   22.7156 C   0  0  2  0  0  0  0  0  0  0  0  0
    8.4518  -16.7777   21.6420 N   0  0  0  0  0  0  0  0  0  0  0  0
    8.1218  -16.0154   23.8191 C   0  0  0  0  0  0  0  0  0  0  0  0
    9.3941  -16.1248   23.9763 O   0  0  0  0  0  0  0  0  0  0  0  0
    5.9825  -11.4041   25.7184 C   0  0  0  0  0  0  0  0  0  0  0  0
    7.0011  -12.4273   25.1974 C   0  0  0  0  0  0  0  0  0  0  0  0
    7.5245  -13.2829   26.3029 C   0  0  2  0  0  0  0  0  0  0  0  0
    8.2951  -12.4192   27.2697 C   0  0  0  0  0  0  0  0  0  0  0  0
    8.2936  -14.4383   25.7555 C   0  0  2  0  0  0  0  0  0  0  0  0
    7.4873  -15.1803   24.7626 N   0  0  0  0  0  0  0  0  0  0  0  0
    8.7126  -15.4373   26.7662 C   0  0  0  0  0  0  0  0  0  0  0  0
    9.9420  -15.3608   27.4502 O   0  0  0  0  0  0  0  0  0  0  0  0
    7.9992  -16.4209   27.0816 O   0  0  0  0  0  0  0  0  0  0  0  0
  2  1  1  0
  3  4  1  6
  3  2  1  0
  5  3  1  0
  5  6  2  0
  7  8  1  0
  8 10  1  0
  8  9  2  0
 11 10  1  1
 11 12  1  0
 11 13  1  0
 12  5  1  0
 13 20  1  0
 13 14  2  0
 16 15  1  0
 17 16  1  0
 17 18  1  1
 19 17  1  0
 19 20  1  6
 21 22  1  0
 21 19  1  0
 23 21  2  0
M  END
$$$$
