SNI.pdb
     RDKit          3D

 23 22  0  0  1  0  0  0  0  0999 V2000
   12.4026  -18.1335   22.6871 O   0  0  0  0  0  0  0  0  0  0  0  0
   11.5707  -18.6649   21.7234 C   0  0  0  0  0  0  0  0  0  0  0  0
   11.2215  -17.5920   20.7132 C   0  0  2  0  0  0  0  0  0  0  0  0
   12.3730  -17.0067   20.0929 N   0  0  0  0  0  0  0  0  0  0  0  0
   10.4172  -16.5137   21.3426 C   0  0  0  0  0  0  0  0  0  0  0  0
   10.9517  -15.3723   21.4579 O   0  0  0  0  0  0  0  0  0  0  0  0
    6.4438  -14.7091   19.7132 N   0  0  0  0  0  0  0  0  0  0  0  0
    6.5671  -16.0210   20.3331 C   0  0  0  0  0  0  0  0  0  0  0  0
    6.3931  -16.9676   19.5513 O   0  0  0  0  0  0  0  0  0  0  0  0
    6.8696  -16.0302   21.7473 C   0  0  0  0  0  0  0  0  0  0  0  0
    8.2398  -15.6064   22.1978 C   0  0  2  0  0  0  0  0  0  0  0  0
    9.1112  -16.7561   21.7923 N   0  0  0  0  0  0  0  0  0  0  0  0
    8.3865  -15.6033   23.6832 C   0  0  0  0  0  0  0  0  0  0  0  0
    9.1598  -16.4371   24.2848 O   0  0  0  0  0  0  0  0  0  0  0  0
    5.5213  -12.0533   27.1719 C   0  0  0  0  0  0  0  0  0  0  0  0
    6.0387  -13.2883   26.4218 C   0  0  0  0  0  0  0  0  0  0  0  0
    7.5007  -13.4874   26.6482 C   0  0  2  0  0  0  0  0  0  0  0  0
    8.2386  -12.2463   26.2126 C   0  0  0  0  0  0  0  0  0  0  0  0
    7.9677  -14.7463   25.9976 C   0  0  2  0  0  0  0  0  0  0  0  0
    7.7143  -14.7078   24.5413 N   0  0  0  0  0  0  0  0  0  0  0  0
    7.3102  -15.9788   26.4914 C   0  0  0  0  0  0  0  0  0  0  0  0
    6.4400  -16.7500   25.6957 O   0  0  0  0  0  0  0  0  0  0  0  0
    7.4844  -16.4195   27.6538 O   0  0  0  0  0  0  0  0  0  0  0  0
  2  1  1  0
  3  4  1  1
  3  2  1  0
  5  3  1  0
  5  6  2  0
  7  8  1  0
  8 10  1  0
  8  9  2  0
 11 10  1  1
 11 12  1  0
 11 13  1  0
 12  5  1  0
 13 20  1  0
 13 14  2  0
 16 15  1  0
 17 16  1  0
 17 18  1  6
 19 17  1  0
 19 20  1  6
 21 22  1  0
 21 19  1  0
 23 21  2  0
M  END
$$$$
