SNI.pdb
     RDKit          3D

 23 22  0  0  1  0  0  0  0  0999 V2000
    7.5851  -12.2604   19.3002 O   0  0  0  0  0  0  0  0  0  0  0  0
    8.8520  -12.8041   19.2472 C   0  0  0  0  0  0  0  0  0  0  0  0
    8.7503  -14.2913   18.9804 C   0  0  2  0  0  0  0  0  0  0  0  0
    7.8520  -14.6114   17.9109 N   0  0  0  0  0  0  0  0  0  0  0  0
    8.3199  -15.0200   20.2009 C   0  0  0  0  0  0  0  0  0  0  0  0
    7.1085  -15.3786   20.2752 O   0  0  0  0  0  0  0  0  0  0  0  0
    8.3365  -18.5031   20.9176 N   0  0  0  0  0  0  0  0  0  0  0  0
    9.5573  -18.4763   21.7111 C   0  0  0  0  0  0  0  0  0  0  0  0
   10.2089  -19.5306   21.6715 O   0  0  0  0  0  0  0  0  0  0  0  0
    9.8289  -17.2447   22.4187 C   0  0  0  0  0  0  0  0  0  0  0  0
    8.7989  -16.1501   22.3893 C   0  0  2  0  0  0  0  0  0  0  0  0
    9.2276  -15.2990   21.2329 N   0  0  0  0  0  0  0  0  0  0  0  0
    8.9207  -15.2084   23.5409 C   0  0  0  0  0  0  0  0  0  0  0  0
    9.9610  -14.4678   23.6976 O   0  0  0  0  0  0  0  0  0  0  0  0
    7.4715  -10.9894   26.4723 C   0  0  0  0  0  0  0  0  0  0  0  0
    7.0316  -12.3561   27.0151 C   0  0  0  0  0  0  0  0  0  0  0  0
    6.8430  -13.3430   25.9112 C   0  0  2  0  0  0  0  0  0  0  0  0
    5.6929  -14.2547   26.2586 C   0  0  0  0  0  0  0  0  0  0  0  0
    8.1233  -14.0477   25.6106 C   0  0  2  0  0  0  0  0  0  0  0  0
    7.9323  -15.0431   24.5339 N   0  0  0  0  0  0  0  0  0  0  0  0
    8.7030  -14.7920   26.7530 C   0  0  0  0  0  0  0  0  0  0  0  0
    8.8495  -16.1933   26.7548 O   0  0  0  0  0  0  0  0  0  0  0  0
    9.1034  -14.2232   27.7980 O   0  0  0  0  0  0  0  0  0  0  0  0
  2  1  1  0
  3  4  1  6
  3  2  1  0
  5  3  1  0
  5  6  2  0
  7  8  1  0
  8 10  1  0
  8  9  2  0
 11 10  1  1
 11 12  1  0
 11 13  1  0
 12  5  1  0
 13 20  1  0
 13 14  2  0
 16 15  1  0
 17 16  1  0
 17 18  1  1
 19 17  1  0
 19 20  1  6
 21 22  1  0
 21 19  1  0
 23 21  2  0
M  END
$$$$
