SNI.pdb
     RDKit          3D

 23 22  0  0  1  0  0  0  0  0999 V2000
    8.1732  -11.8591   18.7334 O   0  0  0  0  0  0  0  0  0  0  0  0
    9.0777  -12.7715   19.2359 C   0  0  0  0  0  0  0  0  0  0  0  0
    8.6501  -14.1709   18.8458 C   0  0  2  0  0  0  0  0  0  0  0  0
    7.7103  -14.1915   17.7643 N   0  0  0  0  0  0  0  0  0  0  0  0
    8.0602  -14.8870   20.0056 C   0  0  0  0  0  0  0  0  0  0  0  0
    6.8299  -15.1788   19.9529 O   0  0  0  0  0  0  0  0  0  0  0  0
   10.9754  -16.4857   21.7708 N   0  0  0  0  0  0  0  0  0  0  0  0
   10.1210  -17.6071   22.1357 C   0  0  0  0  0  0  0  0  0  0  0  0
   10.7402  -18.6462   22.4085 O   0  0  0  0  0  0  0  0  0  0  0  0
    8.6976  -17.3511   22.1272 C   0  0  0  0  0  0  0  0  0  0  0  0
    8.2153  -15.9355   22.2799 C   0  0  2  0  0  0  0  0  0  0  0  0
    8.8430  -15.2261   21.1187 N   0  0  0  0  0  0  0  0  0  0  0  0
    8.8273  -15.2375   23.4488 C   0  0  0  0  0  0  0  0  0  0  0  0
    9.5056  -14.1537   23.3059 O   0  0  0  0  0  0  0  0  0  0  0  0
    6.4984  -11.5859   26.3935 C   0  0  0  0  0  0  0  0  0  0  0  0
    7.6945  -12.5380   26.5304 C   0  0  0  0  0  0  0  0  0  0  0  0
    7.5206  -13.7529   25.6808 C   0  0  2  0  0  0  0  0  0  0  0  0
    6.1529  -14.3365   25.9323 C   0  0  0  0  0  0  0  0  0  0  0  0
    8.6490  -14.7068   25.8887 C   0  0  2  0  0  0  0  0  0  0  0  0
    8.7176  -15.6852   24.7821 N   0  0  0  0  0  0  0  0  0  0  0  0
    8.5619  -15.5066   27.1327 C   0  0  0  0  0  0  0  0  0  0  0  0
    8.1907  -16.8658   27.1411 O   0  0  0  0  0  0  0  0  0  0  0  0
    8.8134  -15.0265   28.2650 O   0  0  0  0  0  0  0  0  0  0  0  0
  2  1  1  0
  3  4  1  6
  3  2  1  0
  5  3  1  0
  5  6  2  0
  7  8  1  0
  8 10  1  0
  8  9  2  0
 11 10  1  1
 11 12  1  0
 11 13  1  0
 12  5  1  0
 13 20  1  0
 13 14  2  0
 16 15  1  0
 17 16  1  0
 17 18  1  1
 19 17  1  0
 19 20  1  6
 21 22  1  0
 21 19  1  0
 23 21  2  0
M  END
$$$$
