SNI.pdb
     RDKit          3D

 23 22  0  0  1  0  0  0  0  0999 V2000
    9.0063  -11.8711   19.9173 O   0  0  0  0  0  0  0  0  0  0  0  0
    9.6436  -12.9755   19.3906 C   0  0  0  0  0  0  0  0  0  0  0  0
    8.6186  -14.0446   19.0743 C   0  0  2  0  0  0  0  0  0  0  0  0
    7.4772  -13.5396   18.3705 N   0  0  0  0  0  0  0  0  0  0  0  0
    8.1562  -14.7182   20.3146 C   0  0  0  0  0  0  0  0  0  0  0  0
    7.0216  -14.3939   20.7721 O   0  0  0  0  0  0  0  0  0  0  0  0
    7.6109  -19.3417   21.2384 N   0  0  0  0  0  0  0  0  0  0  0  0
    8.9198  -18.7102   21.1453 C   0  0  0  0  0  0  0  0  0  0  0  0
    9.6185  -19.1313   20.2114 O   0  0  0  0  0  0  0  0  0  0  0  0
    9.2107  -17.7003   22.1387 C   0  0  0  0  0  0  0  0  0  0  0  0
    8.4105  -16.4276   22.1337 C   0  0  2  0  0  0  0  0  0  0  0  0
    8.9524  -15.6797   20.9536 N   0  0  0  0  0  0  0  0  0  0  0  0
    8.7537  -15.5226   23.2700 C   0  0  0  0  0  0  0  0  0  0  0  0
    9.8852  -14.9129   23.3267 O   0  0  0  0  0  0  0  0  0  0  0  0
    6.6242  -11.1825   26.8361 C   0  0  0  0  0  0  0  0  0  0  0  0
    7.6096  -12.3555   26.7425 C   0  0  0  0  0  0  0  0  0  0  0  0
    7.1970  -13.3277   25.6876 C   0  0  2  0  0  0  0  0  0  0  0  0
    5.8917  -13.9660   26.0914 C   0  0  0  0  0  0  0  0  0  0  0  0
    8.2975  -14.2942   25.4028 C   0  0  2  0  0  0  0  0  0  0  0  0
    7.8919  -15.2546   24.3542 N   0  0  0  0  0  0  0  0  0  0  0  0
    8.7169  -15.1138   26.5635 C   0  0  0  0  0  0  0  0  0  0  0  0
    8.5874  -16.5165   26.5932 O   0  0  0  0  0  0  0  0  0  0  0  0
    9.2168  -14.6130   27.6004 O   0  0  0  0  0  0  0  0  0  0  0  0
  2  1  1  0
  3  4  1  1
  3  2  1  0
  5  3  1  0
  5  6  2  0
  7  8  1  0
  8 10  1  0
  8  9  2  0
 11 10  1  1
 11 12  1  0
 11 13  1  0
 12  5  1  0
 13 20  1  0
 13 14  2  0
 16 15  1  0
 17 16  1  0
 17 18  1  1
 19 17  1  0
 19 20  1  6
 21 22  1  0
 21 19  1  0
 23 21  2  0
M  END
$$$$
