SNI.pdb
     RDKit          3D

 23 22  0  0  1  0  0  0  0  0999 V2000
    9.1315  -12.7317   20.0142 O   0  0  0  0  0  0  0  0  0  0  0  0
    8.1884  -13.1831   19.1140 C   0  0  0  0  0  0  0  0  0  0  0  0
    8.1963  -14.6973   19.0941 C   0  0  2  0  0  0  0  0  0  0  0  0
    7.3904  -15.2508   18.0466 N   0  0  0  0  0  0  0  0  0  0  0  0
    7.7339  -15.2464   20.3943 C   0  0  0  0  0  0  0  0  0  0  0  0
    6.4961  -15.1865   20.6512 O   0  0  0  0  0  0  0  0  0  0  0  0
    9.5435  -19.3506   20.9812 N   0  0  0  0  0  0  0  0  0  0  0  0
    8.4496  -18.7444   21.7271 C   0  0  0  0  0  0  0  0  0  0  0  0
    7.3314  -19.1983   21.4423 O   0  0  0  0  0  0  0  0  0  0  0  0
    8.8191  -17.7177   22.6762 C   0  0  0  0  0  0  0  0  0  0  0  0
    8.1400  -16.3789   22.5962 C   0  0  2  0  0  0  0  0  0  0  0  0
    8.6407  -15.8108   21.3030 N   0  0  0  0  0  0  0  0  0  0  0  0
    8.6630  -15.4029   23.5971 C   0  0  0  0  0  0  0  0  0  0  0  0
    9.8879  -15.0101   23.5777 O   0  0  0  0  0  0  0  0  0  0  0  0
    5.7269  -12.0160   27.3342 C   0  0  0  0  0  0  0  0  0  0  0  0
    6.3358  -13.1550   26.5050 C   0  0  0  0  0  0  0  0  0  0  0  0
    7.5702  -12.7085   25.7942 C   0  0  2  0  0  0  0  0  0  0  0  0
    7.1746  -11.9604   24.5458 C   0  0  0  0  0  0  0  0  0  0  0  0
    8.4894  -13.8604   25.5611 C   0  0  2  0  0  0  0  0  0  0  0  0
    7.8837  -14.8320   24.6252 N   0  0  0  0  0  0  0  0  0  0  0  0
    8.8365  -14.6312   26.7778 C   0  0  0  0  0  0  0  0  0  0  0  0
    9.6453  -14.1089   27.8065 O   0  0  0  0  0  0  0  0  0  0  0  0
    8.4326  -15.8034   26.9745 O   0  0  0  0  0  0  0  0  0  0  0  0
  2  1  1  0
  3  4  1  6
  3  2  1  0
  5  3  1  0
  5  6  2  0
  7  8  1  0
  8 10  1  0
  8  9  2  0
 11 10  1  1
 11 12  1  0
 11 13  1  0
 12  5  1  0
 13 20  1  0
 13 14  2  0
 16 15  1  0
 17 16  1  0
 17 18  1  6
 19 17  1  0
 19 20  1  6
 21 22  1  0
 21 19  1  0
 23 21  2  0
M  END
$$$$
