SNI.pdb
     RDKit          3D

 23 22  0  0  1  0  0  0  0  0999 V2000
    9.0550  -12.7396   20.1211 O   0  0  0  0  0  0  0  0  0  0  0  0
    8.3070  -13.1093   19.0223 C   0  0  0  0  0  0  0  0  0  0  0  0
    8.2352  -14.6201   18.9479 C   0  0  2  0  0  0  0  0  0  0  0  0
    7.6311  -15.0962   17.7389 N   0  0  0  0  0  0  0  0  0  0  0  0
    7.4872  -15.1724   20.1060 C   0  0  0  0  0  0  0  0  0  0  0  0
    6.2236  -15.1857   20.0378 O   0  0  0  0  0  0  0  0  0  0  0  0
    6.2458  -17.8419   24.3699 N   0  0  0  0  0  0  0  0  0  0  0  0
    7.0187  -18.5209   23.3393 C   0  0  0  0  0  0  0  0  0  0  0  0
    7.0823  -19.7508   23.4834 O   0  0  0  0  0  0  0  0  0  0  0  0
    7.5908  -17.6767   22.3138 C   0  0  0  0  0  0  0  0  0  0  0  0
    7.3781  -16.1909   22.3966 C   0  0  2  0  0  0  0  0  0  0  0  0
    8.1617  -15.6612   21.2343 N   0  0  0  0  0  0  0  0  0  0  0  0
    8.0751  -15.5695   23.5611 C   0  0  0  0  0  0  0  0  0  0  0  0
    9.3590  -15.5277   23.6329 O   0  0  0  0  0  0  0  0  0  0  0  0
    5.8157  -11.3811   26.0591 C   0  0  0  0  0  0  0  0  0  0  0  0
    6.8371  -12.3307   25.4181 C   0  0  0  0  0  0  0  0  0  0  0  0
    7.3906  -13.2886   26.4203 C   0  0  2  0  0  0  0  0  0  0  0  0
    8.1414  -12.5159   27.4757 C   0  0  0  0  0  0  0  0  0  0  0  0
    8.1895  -14.3531   25.7459 C   0  0  2  0  0  0  0  0  0  0  0  0
    7.4103  -14.9818   24.6577 N   0  0  0  0  0  0  0  0  0  0  0  0
    8.6165  -15.4612   26.6318 C   0  0  0  0  0  0  0  0  0  0  0  0
    9.8667  -15.4797   27.2814 O   0  0  0  0  0  0  0  0  0  0  0  0
    7.8920  -16.4598   26.8638 O   0  0  0  0  0  0  0  0  0  0  0  0
  2  1  1  0
  3  4  1  6
  3  2  1  0
  5  3  1  0
  5  6  2  0
  7  8  1  0
  8 10  1  0
  8  9  2  0
 11 10  1  1
 11 12  1  0
 11 13  1  0
 12  5  1  0
 13 20  1  0
 13 14  2  0
 16 15  1  0
 17 16  1  0
 17 18  1  1
 19 17  1  0
 19 20  1  6
 21 22  1  0
 21 19  1  0
 23 21  2  0
M  END
$$$$
