SNI.pdb
     RDKit          3D

 23 22  0  0  1  0  0  0  0  0999 V2000
    7.9073  -15.6444   18.0295 O   0  0  0  0  0  0  0  0  0  0  0  0
    9.1673  -15.8759   18.5415 C   0  0  0  0  0  0  0  0  0  0  0  0
    9.1551  -17.1581   19.3471 C   0  0  2  0  0  0  0  0  0  0  0  0
    8.8829  -18.3194   18.5531 N   0  0  0  0  0  0  0  0  0  0  0  0
    8.1570  -17.0844   20.4445 C   0  0  0  0  0  0  0  0  0  0  0  0
    6.9757  -17.4614   20.1914 O   0  0  0  0  0  0  0  0  0  0  0  0
    5.6948  -19.0320   24.4347 N   0  0  0  0  0  0  0  0  0  0  0  0
    7.1333  -18.8164   24.3646 C   0  0  0  0  0  0  0  0  0  0  0  0
    7.7400  -19.1139   25.4042 O   0  0  0  0  0  0  0  0  0  0  0  0
    7.6379  -18.2950   23.1135 C   0  0  0  0  0  0  0  0  0  0  0  0
    7.5833  -16.8123   22.8720 C   0  0  2  0  0  0  0  0  0  0  0  0
    8.5154  -16.6128   21.7157 N   0  0  0  0  0  0  0  0  0  0  0  0
    8.2437  -16.0240   23.9538 C   0  0  0  0  0  0  0  0  0  0  0  0
    9.5222  -16.0178   24.0974 O   0  0  0  0  0  0  0  0  0  0  0  0
    5.6671  -11.6883   26.0533 C   0  0  0  0  0  0  0  0  0  0  0  0
    6.7492  -12.5979   25.4553 C   0  0  0  0  0  0  0  0  0  0  0  0
    7.4228  -13.4074   26.5132 C   0  0  2  0  0  0  0  0  0  0  0  0
    8.1329  -12.4779   27.4652 C   0  0  0  0  0  0  0  0  0  0  0  0
    8.2948  -14.4522   25.9015 C   0  0  2  0  0  0  0  0  0  0  0  0
    7.5479  -15.2303   24.8899 N   0  0  0  0  0  0  0  0  0  0  0  0
    8.8357  -15.4450   26.8590 C   0  0  0  0  0  0  0  0  0  0  0  0
   10.0773  -15.2835   27.5051 O   0  0  0  0  0  0  0  0  0  0  0  0
    8.2231  -16.4987   27.1595 O   0  0  0  0  0  0  0  0  0  0  0  0
  2  1  1  0
  3  4  1  6
  3  2  1  0
  5  3  1  0
  5  6  2  0
  7  8  1  0
  8 10  1  0
  8  9  2  0
 11 10  1  1
 11 12  1  0
 11 13  1  0
 12  5  1  0
 13 20  1  0
 13 14  2  0
 16 15  1  0
 17 16  1  0
 17 18  1  1
 19 17  1  0
 19 20  1  6
 21 22  1  0
 21 19  1  0
 23 21  2  0
M  END
$$$$
