SNI.pdb
     RDKit          3D

 23 22  0  0  1  0  0  0  0  0999 V2000
    6.8926  -15.3635   19.2446 O   0  0  0  0  0  0  0  0  0  0  0  0
    8.2190  -14.9876   19.2965 C   0  0  0  0  0  0  0  0  0  0  0  0
    9.0688  -16.1892   19.6535 C   0  0  2  0  0  0  0  0  0  0  0  0
    8.9595  -17.2578   18.7051 N   0  0  0  0  0  0  0  0  0  0  0  0
    8.7150  -16.7068   20.9999 C   0  0  0  0  0  0  0  0  0  0  0  0
    7.8317  -17.6105   21.0692 O   0  0  0  0  0  0  0  0  0  0  0  0
    9.4179  -19.8803   24.9260 N   0  0  0  0  0  0  0  0  0  0  0  0
   10.3101  -18.7539   24.6898 C   0  0  0  0  0  0  0  0  0  0  0  0
   11.1501  -18.5784   25.5849 O   0  0  0  0  0  0  0  0  0  0  0  0
   10.0913  -18.0150   23.4660 C   0  0  0  0  0  0  0  0  0  0  0  0
    9.1076  -16.8782   23.4722 C   0  0  2  0  0  0  0  0  0  0  0  0
    9.3404  -16.2085   22.1520 N   0  0  0  0  0  0  0  0  0  0  0  0
    9.4695  -15.8038   24.4432 C   0  0  0  0  0  0  0  0  0  0  0  0
   10.5617  -15.1334   24.3289 O   0  0  0  0  0  0  0  0  0  0  0  0
    6.1518  -12.0643   25.9257 C   0  0  0  0  0  0  0  0  0  0  0  0
    7.4162  -12.8698   25.5968 C   0  0  0  0  0  0  0  0  0  0  0  0
    8.0225  -13.4548   26.8291 C   0  0  2  0  0  0  0  0  0  0  0  0
    8.4118  -12.3366   27.7633 C   0  0  0  0  0  0  0  0  0  0  0  0
    9.1353  -14.3846   26.4780 C   0  0  2  0  0  0  0  0  0  0  0  0
    8.6681  -15.4300   25.5423 N   0  0  0  0  0  0  0  0  0  0  0  0
    9.7260  -15.1055   27.6297 C   0  0  0  0  0  0  0  0  0  0  0  0
    9.3708  -16.4269   27.9658 O   0  0  0  0  0  0  0  0  0  0  0  0
   10.5842  -14.5867   28.3849 O   0  0  0  0  0  0  0  0  0  0  0  0
  2  1  1  0
  3  4  1  6
  3  2  1  0
  5  3  1  0
  5  6  2  0
  7  8  1  0
  8 10  1  0
  8  9  2  0
 11 10  1  1
 11 12  1  0
 11 13  1  0
 12  5  1  0
 13 20  1  0
 13 14  2  0
 16 15  1  0
 17 16  1  0
 17 18  1  1
 19 17  1  0
 19 20  1  6
 21 22  1  0
 21 19  1  0
 23 21  2  0
M  END
$$$$
