SNI.pdb
     RDKit          3D

 23 22  0  0  1  0  0  0  0  0999 V2000
    8.5001  -13.1587   17.9904 O   0  0  0  0  0  0  0  0  0  0  0  0
    8.0496  -13.7359   19.1597 C   0  0  0  0  0  0  0  0  0  0  0  0
    8.2628  -15.2339   19.0959 C   0  0  2  0  0  0  0  0  0  0  0  0
    7.4546  -15.8758   18.1019 N   0  0  0  0  0  0  0  0  0  0  0  0
    7.9913  -15.8639   20.4131 C   0  0  0  0  0  0  0  0  0  0  0  0
    6.8426  -16.3605   20.6019 O   0  0  0  0  0  0  0  0  0  0  0  0
    8.7985  -19.4591   24.1597 N   0  0  0  0  0  0  0  0  0  0  0  0
    9.9384  -18.6867   23.6857 C   0  0  0  0  0  0  0  0  0  0  0  0
   10.9741  -18.8575   24.3458 O   0  0  0  0  0  0  0  0  0  0  0  0
    9.7018  -17.8459   22.5330 C   0  0  0  0  0  0  0  0  0  0  0  0
    8.7374  -16.6995   22.6583 C   0  0  2  0  0  0  0  0  0  0  0  0
    8.9763  -15.9050   21.4105 N   0  0  0  0  0  0  0  0  0  0  0  0
    9.1209  -15.7338   23.7298 C   0  0  0  0  0  0  0  0  0  0  0  0
   10.2242  -15.0741   23.6778 O   0  0  0  0  0  0  0  0  0  0  0  0
    5.9691  -12.0202   25.6872 C   0  0  0  0  0  0  0  0  0  0  0  0
    7.1691  -12.8669   25.2412 C   0  0  0  0  0  0  0  0  0  0  0  0
    7.7461  -13.6345   26.3840 C   0  0  2  0  0  0  0  0  0  0  0  0
    8.1637  -12.6680   27.4639 C   0  0  0  0  0  0  0  0  0  0  0  0
    8.8312  -14.5439   25.9131 C   0  0  2  0  0  0  0  0  0  0  0  0
    8.3295  -15.4580   24.8646 N   0  0  0  0  0  0  0  0  0  0  0  0
    9.4110  -15.4118   26.9645 C   0  0  0  0  0  0  0  0  0  0  0  0
   10.5140  -15.0242   27.7508 O   0  0  0  0  0  0  0  0  0  0  0  0
    8.9577  -16.5529   27.2261 O   0  0  0  0  0  0  0  0  0  0  0  0
  2  1  1  0
  3  4  1  6
  3  2  1  0
  5  3  1  0
  5  6  2  0
  7  8  1  0
  8 10  1  0
  8  9  2  0
 11 10  1  6
 11 12  1  0
 11 13  1  0
 12  5  1  0
 13 20  1  0
 13 14  2  0
 16 15  1  0
 17 16  1  0
 17 18  1  1
 19 17  1  0
 19 20  1  6
 21 22  1  0
 21 19  1  0
 23 21  2  0
M  END
$$$$
