SNI.pdb
     RDKit          3D

 23 22  0  0  1  0  0  0  0  0999 V2000
    8.8949  -12.9893   18.3532 O   0  0  0  0  0  0  0  0  0  0  0  0
    9.3032  -13.9771   19.2255 C   0  0  0  0  0  0  0  0  0  0  0  0
    8.2907  -15.1033   19.2196 C   0  0  2  0  0  0  0  0  0  0  0  0
    7.2598  -14.9285   18.2398 N   0  0  0  0  0  0  0  0  0  0  0  0
    7.6600  -15.2553   20.5556 C   0  0  0  0  0  0  0  0  0  0  0  0
    6.5333  -14.7091   20.7396 O   0  0  0  0  0  0  0  0  0  0  0  0
    6.2096  -18.8993   24.5215 N   0  0  0  0  0  0  0  0  0  0  0  0
    7.5393  -18.3314   24.3483 C   0  0  0  0  0  0  0  0  0  0  0  0
    8.2620  -18.4222   25.3518 O   0  0  0  0  0  0  0  0  0  0  0  0
    7.8201  -17.7532   23.0528 C   0  0  0  0  0  0  0  0  0  0  0  0
    7.5513  -16.2896   22.8391 C   0  0  2  0  0  0  0  0  0  0  0  0
    8.2944  -15.9797   21.5752 N   0  0  0  0  0  0  0  0  0  0  0  0
    8.2430  -15.4214   23.8370 C   0  0  0  0  0  0  0  0  0  0  0  0
    9.4908  -15.1290   23.7243 O   0  0  0  0  0  0  0  0  0  0  0  0
    5.8392  -11.8778   27.7375 C   0  0  0  0  0  0  0  0  0  0  0  0
    6.3045  -13.0434   26.8539 C   0  0  0  0  0  0  0  0  0  0  0  0
    7.5632  -12.7041   26.1269 C   0  0  2  0  0  0  0  0  0  0  0  0
    7.2202  -11.8899   24.9045 C   0  0  0  0  0  0  0  0  0  0  0  0
    8.3585  -13.9353   25.8480 C   0  0  2  0  0  0  0  0  0  0  0  0
    7.6098  -14.8522   24.9618 N   0  0  0  0  0  0  0  0  0  0  0  0
    8.7113  -14.7291   27.0482 C   0  0  0  0  0  0  0  0  0  0  0  0
    9.6235  -14.2754   28.0216 O   0  0  0  0  0  0  0  0  0  0  0  0
    8.2206  -15.8612   27.2791 O   0  0  0  0  0  0  0  0  0  0  0  0
  2  1  1  0
  3  4  1  6
  3  2  1  0
  5  3  1  0
  5  6  2  0
  7  8  1  0
  8 10  1  0
  8  9  2  0
 11 10  1  1
 11 12  1  0
 11 13  1  0
 12  5  1  0
 13 20  1  0
 13 14  2  0
 16 15  1  0
 17 16  1  0
 17 18  1  6
 19 17  1  0
 19 20  1  6
 21 22  1  0
 21 19  1  0
 23 21  2  0
M  END
$$$$
