RKV.pdb
     RDKit          3D

 28 27  0  0  1  0  0  0  0  0999 V2000
    8.5480  -13.3382   15.7095 N   0  0  0  0  0  0  0  0  0  0  0  0
    8.7534  -14.6376   16.2185 C   0  0  0  0  0  0  0  0  0  0  0  0
    9.1701  -15.6206   15.4760 N   0  0  0  0  0  0  0  0  0  0  0  0
    8.5114  -14.9611   17.6006 N   0  0  0  0  0  0  0  0  0  0  0  0
    8.2976  -14.0217   18.6330 C   0  0  0  0  0  0  0  0  0  0  0  0
    6.9496  -13.8774   19.2200 C   0  0  0  0  0  0  0  0  0  0  0  0
    6.8157  -14.3464   20.6260 C   0  0  0  0  0  0  0  0  0  0  0  0
    6.9799  -15.8292   20.7374 C   0  0  2  0  0  0  0  0  0  0  0  0
    5.7903  -16.4334   20.1330 N   0  0  0  0  0  0  0  0  0  0  0  0
    6.9468  -16.1271   22.2282 C   0  0  0  0  0  0  0  0  0  0  0  0
    5.9209  -15.9101   22.9147 O   0  0  0  0  0  0  0  0  0  0  0  0
    9.2845  -16.5529   15.9406 N   0  0  0  0  0  0  0  0  0  0  0  0
    8.0879  -16.6616   22.8695 C   0  0  1  0  0  0  0  0  0  0  0  0
    8.0365  -16.8987   24.3303 C   0  0  0  0  0  0  0  0  0  0  0  0
    9.0124  -18.0048   24.6642 C   0  0  0  0  0  0  0  0  0  0  0  0
    9.1378  -18.2110   26.1247 C   0  0  0  0  0  0  0  0  0  0  0  0
   10.1107  -19.3227   26.4799 C   0  0  0  0  0  0  0  0  0  0  0  0
   10.2190  -19.5187   27.9667 N   0  0  0  0  0  0  0  0  0  0  0  0
   11.0277  -20.7016   28.2001 C   0  0  0  0  0  0  0  0  0  0  0  0
    8.3563  -15.6007   24.9443 O   0  0  0  0  0  0  0  0  0  0  0  0
    9.3264  -14.9188   24.5556 C   0  0  0  0  0  0  0  0  0  0  0  0
    7.2774  -11.6565   27.6684 C   0  0  2  0  0  0  0  0  0  0  0  0
    6.7864  -12.9439   27.0464 C   0  0  0  0  0  0  0  0  0  0  0  0
    5.9455  -12.5502   25.8484 C   0  0  1  0  0  0  0  0  0  0  0  0
    7.9196  -13.7663   26.5616 N   0  0  0  0  0  0  0  0  0  0  0  0
    7.5980  -15.0372   26.0061 C   0  0  0  0  0  0  0  0  0  0  0  0
    8.8588  -14.0012   27.6987 O   0  0  0  0  0  0  0  0  0  0  0  0
    9.5965  -12.9923   28.2996 O   0  0  0  0  0  0  0  0  0  0  0  0
  2  1  1  0
  3  2  2  0
  4  2  1  0
  5  4  1  0
  6  7  1  0
  6  5  1  0
  7  8  1  0
  8  9  1  6
 10  8  1  0
 10 11  2  0
 12 10  1  0
 13 12  1  0
 13 14  1  6
 15 14  1  0
 16 15  1  0
 17 16  1  0
 18 17  1  0
 19 13  1  0
 20 19  2  0
 22 23  1  6
 22 21  1  0
 24 22  1  0
 24 25  1  1
 25 19  1  0
 26 27  1  0
 26 24  1  0
 28 26  2  0
M  END
$$$$
