RKV.pdb
     RDKit          3D

 28 27  0  0  1  0  0  0  0  0999 V2000
    8.0968  -12.2179   17.9080 N   0  0  0  0  0  0  0  0  0  0  0  0
    8.3088  -13.6100   17.8245 C   0  0  0  0  0  0  0  0  0  0  0  0
    8.0679  -14.2893   16.7420 N   0  0  0  0  0  0  0  0  0  0  0  0
    8.8069  -14.3727   18.9397 N   0  0  0  0  0  0  0  0  0  0  0  0
    8.0096  -14.9707   19.9401 C   0  0  0  0  0  0  0  0  0  0  0  0
    6.5395  -14.9772   19.7940 C   0  0  0  0  0  0  0  0  0  0  0  0
    5.7911  -15.5811   20.9297 C   0  0  0  0  0  0  0  0  0  0  0  0
    6.2180  -16.9907   21.1923 C   0  0  2  0  0  0  0  0  0  0  0  0
    5.1668  -17.8582   20.6554 N   0  0  0  0  0  0  0  0  0  0  0  0
    6.2145  -17.1372   22.7058 C   0  0  0  0  0  0  0  0  0  0  0  0
    5.1667  -16.9776   23.3747 O   0  0  0  0  0  0  0  0  0  0  0  0
    8.2564  -15.3196   16.7747 N   0  0  0  0  0  0  0  0  0  0  0  0
    7.4091  -17.4612   23.3890 C   0  0  2  0  0  0  0  0  0  0  0  0
    7.3741  -17.5798   24.8647 C   0  0  0  0  0  0  0  0  0  0  0  0
    8.0288  -18.8877   25.2494 C   0  0  0  0  0  0  0  0  0  0  0  0
    8.1551  -19.0336   26.7170 C   0  0  0  0  0  0  0  0  0  0  0  0
    8.7628  -20.3651   27.1252 C   0  0  0  0  0  0  0  0  0  0  0  0
    8.8832  -20.4919   28.6185 N   0  0  0  0  0  0  0  0  0  0  0  0
    9.4495  -21.7968   28.9084 C   0  0  0  0  0  0  0  0  0  0  0  0
    8.0676  -16.3830   25.3656 O   0  0  0  0  0  0  0  0  0  0  0  0
    9.1143  -15.9659   24.8295 C   0  0  0  0  0  0  0  0  0  0  0  0
    6.2506  -13.4932   27.9573 C   0  0  2  0  0  0  0  0  0  0  0  0
    7.4345  -13.2272   27.0556 C   0  0  0  0  0  0  0  0  0  0  0  0
    8.2702  -12.1663   27.7437 C   0  0  1  0  0  0  0  0  0  0  0  0
    8.2695  -14.4415   26.9022 N   0  0  0  0  0  0  0  0  0  0  0  0
    7.6053  -15.6268   26.4766 C   0  0  0  0  0  0  0  0  0  0  0  0
    8.9205  -14.7409   28.2125 O   0  0  0  0  0  0  0  0  0  0  0  0
    9.8152  -13.8824   28.8334 O   0  0  0  0  0  0  0  0  0  0  0  0
  2  1  1  0
  3  2  2  0
  4  2  1  0
  5  4  1  0
  6  7  1  0
  6  5  1  0
  7  8  1  0
  8  9  1  6
 10  8  1  0
 10 11  2  0
 12 10  1  0
 13 12  1  0
 13 14  1  6
 15 14  1  0
 16 15  1  0
 17 16  1  0
 18 17  1  0
 19 13  1  0
 20 19  2  0
 22 23  1  1
 22 21  1  0
 24 22  1  0
 24 25  1  6
 25 19  1  0
 26 27  1  0
 26 24  1  0
 28 26  2  0
M  END
$$$$
