RKV.pdb
     RDKit          3D

 28 27  0  0  1  0  0  0  0  0999 V2000
    8.3638  -13.7702   16.3520 N   0  0  0  0  0  0  0  0  0  0  0  0
    8.6106  -13.6236   17.7330 C   0  0  0  0  0  0  0  0  0  0  0  0
    8.7145  -12.4599   18.3041 N   0  0  0  0  0  0  0  0  0  0  0  0
    8.7662  -14.7600   18.6036 N   0  0  0  0  0  0  0  0  0  0  0  0
    7.7384  -15.6591   18.9630 C   0  0  0  0  0  0  0  0  0  0  0  0
    6.5681  -15.1650   19.7172 C   0  0  0  0  0  0  0  0  0  0  0  0
    6.5826  -15.4587   21.1760 C   0  0  0  0  0  0  0  0  0  0  0  0
    6.7474  -16.9203   21.4491 C   0  0  2  0  0  0  0  0  0  0  0  0
    5.5052  -17.5723   21.0280 N   0  0  0  0  0  0  0  0  0  0  0  0
    6.8454  -17.0388   22.9620 C   0  0  0  0  0  0  0  0  0  0  0  0
    5.8799  -16.7421   23.7040 O   0  0  0  0  0  0  0  0  0  0  0  0
    8.9620  -12.4497   19.3224 N   0  0  0  0  0  0  0  0  0  0  0  0
    8.0431  -17.4926   23.5610 C   0  0  2  0  0  0  0  0  0  0  0  0
    8.1464  -17.4842   25.0382 C   0  0  0  0  0  0  0  0  0  0  0  0
    9.1064  -18.5775   25.4510 C   0  0  0  0  0  0  0  0  0  0  0  0
    9.2890  -18.6294   26.9190 C   0  0  0  0  0  0  0  0  0  0  0  0
   10.3595  -19.6207   27.3434 C   0  0  0  0  0  0  0  0  0  0  0  0
   10.5509  -19.6346   28.8347 N   0  0  0  0  0  0  0  0  0  0  0  0
   11.6676  -20.5139   29.1302 C   0  0  0  0  0  0  0  0  0  0  0  0
    8.5872  -16.1250   25.3875 O   0  0  0  0  0  0  0  0  0  0  0  0
    9.5571  -15.5885   24.8142 C   0  0  0  0  0  0  0  0  0  0  0  0
    8.1359  -11.6898   27.3674 C   0  0  2  0  0  0  0  0  0  0  0  0
    7.4701  -12.9658   26.9051 C   0  0  0  0  0  0  0  0  0  0  0  0
    6.8891  -12.6766   25.5354 C   0  0  1  0  0  0  0  0  0  0  0  0
    8.4589  -14.0601   26.7627 N   0  0  0  0  0  0  0  0  0  0  0  0
    7.9530  -15.3363   26.3853 C   0  0  0  0  0  0  0  0  0  0  0  0
    9.1725  -14.2299   28.0636 O   0  0  0  0  0  0  0  0  0  0  0  0
    9.1984  -15.4236   28.7691 O   0  0  0  0  0  0  0  0  0  0  0  0
  2  1  1  0
  3  2  2  0
  4  2  1  0
  5  4  1  0
  6  7  1  0
  6  5  1  0
  7  8  1  0
  8  9  1  1
 10  8  1  0
 10 11  2  0
 12 10  1  0
 13 12  1  0
 13 14  1  6
 15 14  1  0
 16 15  1  0
 17 16  1  0
 18 17  1  0
 19 13  1  0
 20 19  2  0
 22 23  1  6
 22 21  1  0
 24 22  1  0
 24 25  1  1
 25 19  1  0
 26 27  1  0
 26 24  1  0
 28 26  2  0
M  END
$$$$
