RKV.pdb
     RDKit          3D

 28 27  0  0  1  0  0  0  0  0999 V2000
    9.2385  -23.8643   15.8113 N   0  0  0  0  0  0  0  0  0  0  0  0
    7.9280  -23.6675   16.2947 C   0  0  0  0  0  0  0  0  0  0  0  0
    7.1150  -24.6548   16.5300 N   0  0  0  0  0  0  0  0  0  0  0  0
    7.4030  -22.3528   16.5582 N   0  0  0  0  0  0  0  0  0  0  0  0
    8.0344  -21.3648   17.3451 C   0  0  0  0  0  0  0  0  0  0  0  0
    9.5024  -21.2113   17.2829 C   0  0  0  0  0  0  0  0  0  0  0  0
   10.0755  -20.2027   18.2151 C   0  0  0  0  0  0  0  0  0  0  0  0
    9.6869  -18.8086   17.8361 C   0  0  2  0  0  0  0  0  0  0  0  0
   10.6145  -18.3814   16.7861 N   0  0  0  0  0  0  0  0  0  0  0  0
    9.9609  -17.9644   19.0708 C   0  0  0  0  0  0  0  0  0  0  0  0
   11.0839  -17.9668   19.6273 O   0  0  0  0  0  0  0  0  0  0  0  0
    6.1666  -24.4118   16.9039 N   0  0  0  0  0  0  0  0  0  0  0  0
    8.9391  -17.1529   19.6153 C   0  0  2  0  0  0  0  0  0  0  0  0
    9.2626  -16.2801   20.7670 C   0  0  0  0  0  0  0  0  0  0  0  0
    8.2354  -15.1715   20.8231 C   0  0  0  0  0  0  0  0  0  0  0  0
    8.3766  -14.2275   19.6917 C   0  0  0  0  0  0  0  0  0  0  0  0
    7.2664  -13.1909   19.6490 C   0  0  0  0  0  0  0  0  0  0  0  0
    7.4692  -12.1980   18.5384 N   0  0  0  0  0  0  0  0  0  0  0  0
    6.3784  -11.2417   18.5940 C   0  0  0  0  0  0  0  0  0  0  0  0
    9.2611  -17.1694   21.9388 O   0  0  0  0  0  0  0  0  0  0  0  0
    8.2873  -17.9067   22.1943 C   0  0  0  0  0  0  0  0  0  0  0  0
   12.1510  -19.5953   23.1094 C   0  0  2  0  0  0  0  0  0  0  0  0
   11.6138  -18.8185   24.2898 C   0  0  0  0  0  0  0  0  0  0  0  0
   12.6339  -17.7401   24.5959 C   0  0  2  0  0  0  0  0  0  0  0  0
   10.3325  -18.1557   23.9514 N   0  0  0  0  0  0  0  0  0  0  0  0
   10.3485  -17.2536   22.8501 C   0  0  0  0  0  0  0  0  0  0  0  0
    9.8603  -17.3934   25.1457 O   0  0  0  0  0  0  0  0  0  0  0  0
    9.4374  -17.9994   26.3191 O   0  0  0  0  0  0  0  0  0  0  0  0
  2  1  1  0
  3  2  2  0
  4  2  1  0
  5  4  1  0
  6  7  1  0
  6  5  1  0
  7  8  1  0
  8  9  1  6
 10  8  1  0
 10 11  2  0
 12 10  1  0
 13 12  1  0
 13 14  1  6
 15 14  1  0
 16 15  1  0
 17 16  1  0
 18 17  1  0
 19 13  1  0
 20 19  2  0
 22 23  1  6
 22 21  1  0
 24 22  1  0
 24 25  1  1
 25 19  1  0
 26 27  1  0
 26 24  1  0
 28 26  2  0
M  END
$$$$
