RKV.pdb
     RDKit          3D

 28 27  0  0  1  0  0  0  0  0999 V2000
    8.3346  -12.7605   15.8749 N   0  0  0  0  0  0  0  0  0  0  0  0
    7.6567  -13.3931   16.9378 C   0  0  0  0  0  0  0  0  0  0  0  0
    6.7059  -12.8090   17.6057 N   0  0  0  0  0  0  0  0  0  0  0  0
    7.9772  -14.7335   17.3550 N   0  0  0  0  0  0  0  0  0  0  0  0
    9.1584  -15.4315   17.0206 C   0  0  0  0  0  0  0  0  0  0  0  0
    9.3084  -16.8453   17.4220 C   0  0  0  0  0  0  0  0  0  0  0  0
   10.5951  -17.4831   17.0319 C   0  0  0  0  0  0  0  0  0  0  0  0
   10.6966  -18.8881   17.5356 C   0  0  2  0  0  0  0  0  0  0  0  0
    9.5184  -19.6022   17.0381 N   0  0  0  0  0  0  0  0  0  0  0  0
   10.5733  -18.7836   19.0477 C   0  0  0  0  0  0  0  0  0  0  0  0
    9.4560  -18.6809   19.6061 O   0  0  0  0  0  0  0  0  0  0  0  0
    6.2710  -13.3526   18.3890 N   0  0  0  0  0  0  0  0  0  0  0  0
   11.7331  -18.8024   19.8561 C   0  0  1  0  0  0  0  0  0  0  0  0
   11.5754  -18.9387   21.3222 C   0  0  0  0  0  0  0  0  0  0  0  0
   12.8059  -19.6284   21.8678 C   0  0  0  0  0  0  0  0  0  0  0  0
   12.5336  -21.0349   22.2400 C   0  0  0  0  0  0  0  0  0  0  0  0
   13.7912  -21.7942   22.6282 C   0  0  0  0  0  0  0  0  0  0  0  0
   13.4976  -23.2299   22.9645 N   0  0  0  0  0  0  0  0  0  0  0  0
   13.1386  -23.9093   21.7327 C   0  0  0  0  0  0  0  0  0  0  0  0
   11.3765  -17.5684   21.8190 O   0  0  0  0  0  0  0  0  0  0  0  0
   12.1862  -16.6567   21.5537 C   0  0  0  0  0  0  0  0  0  0  0  0
    8.1362  -15.1439   22.0090 C   0  0  2  0  0  0  0  0  0  0  0  0
    8.8059  -15.3296   23.3515 C   0  0  0  0  0  0  0  0  0  0  0  0
    7.9711  -16.3397   24.1133 C   0  0  2  0  0  0  0  0  0  0  0  0
   10.1695  -15.8872   23.1929 N   0  0  0  0  0  0  0  0  0  0  0  0
   10.2680  -17.1881   22.6229 C   0  0  0  0  0  0  0  0  0  0  0  0
   10.8229  -15.9375   24.5349 O   0  0  0  0  0  0  0  0  0  0  0  0
   11.2311  -17.1164   25.1407 O   0  0  0  0  0  0  0  0  0  0  0  0
  2  1  1  0
  3  2  2  0
  4  2  1  0
  5  4  1  0
  6  7  1  0
  6  5  1  0
  7  8  1  0
  8  9  1  6
 10  8  1  0
 10 11  2  0
 12 10  1  0
 13 12  1  0
 13 14  1  1
 15 14  1  0
 16 15  1  0
 17 16  1  0
 18 17  1  0
 19 13  1  0
 20 19  2  0
 22 23  1  6
 22 21  1  0
 24 22  1  0
 24 25  1  1
 25 19  1  0
 26 27  1  0
 26 24  1  0
 28 26  2  0
M  END
$$$$
