RKV.pdb
     RDKit          3D

 28 27  0  0  1  0  0  0  0  0999 V2000
    8.5087  -12.5215   17.9757 N   0  0  0  0  0  0  0  0  0  0  0  0
    8.4382  -13.6425   17.1225 C   0  0  0  0  0  0  0  0  0  0  0  0
    9.2834  -13.8367   16.1535 N   0  0  0  0  0  0  0  0  0  0  0  0
    7.4185  -14.6486   17.2696 N   0  0  0  0  0  0  0  0  0  0  0  0
    7.3700  -15.6168   18.2963 C   0  0  0  0  0  0  0  0  0  0  0  0
    7.2883  -15.1818   19.7057 C   0  0  0  0  0  0  0  0  0  0  0  0
    6.4658  -16.0497   20.5916 C   0  0  0  0  0  0  0  0  0  0  0  0
    7.3083  -16.8082   21.5678 C   0  0  2  0  0  0  0  0  0  0  0  0
    6.8868  -18.2090   21.4919 N   0  0  0  0  0  0  0  0  0  0  0  0
    6.9147  -16.2773   22.9373 C   0  0  0  0  0  0  0  0  0  0  0  0
    7.2779  -15.1427   23.3267 O   0  0  0  0  0  0  0  0  0  0  0  0
    9.2162  -14.7468   15.6383 N   0  0  0  0  0  0  0  0  0  0  0  0
    6.1218  -17.0663   23.8020 C   0  0  2  0  0  0  0  0  0  0  0  0
    6.5135  -17.1727   25.2261 C   0  0  0  0  0  0  0  0  0  0  0  0
    7.0914  -18.5514   25.4555 C   0  0  0  0  0  0  0  0  0  0  0  0
    7.6598  -18.6948   26.8148 C   0  0  0  0  0  0  0  0  0  0  0  0
    8.3542  -20.0301   27.0236 C   0  0  0  0  0  0  0  0  0  0  0  0
    8.9046  -20.1637   28.4163 N   0  0  0  0  0  0  0  0  0  0  0  0
   10.3533  -20.1682   28.3220 C   0  0  0  0  0  0  0  0  0  0  0  0
    7.4626  -16.0713   25.4496 O   0  0  0  0  0  0  0  0  0  0  0  0
    8.5723  -16.0434   24.8795 C   0  0  0  0  0  0  0  0  0  0  0  0
    6.9086  -12.2705   25.1144 C   0  0  2  0  0  0  0  0  0  0  0  0
    7.5842  -12.5375   26.4401 C   0  0  0  0  0  0  0  0  0  0  0  0
    6.5113  -12.4113   27.5033 C   0  0  2  0  0  0  0  0  0  0  0  0
    8.1239  -13.9164   26.4938 N   0  0  0  0  0  0  0  0  0  0  0  0
    7.1913  -14.9773   26.3153 C   0  0  0  0  0  0  0  0  0  0  0  0
    8.7823  -14.1193   27.8188 O   0  0  0  0  0  0  0  0  0  0  0  0
    9.8697  -13.3755   28.2520 O   0  0  0  0  0  0  0  0  0  0  0  0
  2  1  1  0
  3  2  2  0
  4  2  1  0
  5  4  1  0
  6  7  1  0
  6  5  1  0
  7  8  1  0
  8  9  1  1
 10  8  1  0
 10 11  2  0
 12 10  1  0
 13 12  1  0
 13 14  1  6
 15 14  1  0
 16 15  1  0
 17 16  1  0
 18 17  1  0
 19 13  1  0
 20 19  2  0
 22 23  1  6
 22 21  1  0
 24 22  1  0
 24 25  1  1
 25 19  1  0
 26 27  1  0
 26 24  1  0
 28 26  2  0
M  END
$$$$
