RKV.pdb
     RDKit          3D

 28 27  0  0  1  0  0  0  0  0999 V2000
    8.1029  -12.7782   16.5743 N   0  0  0  0  0  0  0  0  0  0  0  0
    7.9689  -14.0073   15.8954 C   0  0  0  0  0  0  0  0  0  0  0  0
    7.5002  -14.0891   14.6851 N   0  0  0  0  0  0  0  0  0  0  0  0
    8.3429  -15.2579   16.5035 N   0  0  0  0  0  0  0  0  0  0  0  0
    7.9935  -15.6668   17.8091 C   0  0  0  0  0  0  0  0  0  0  0  0
    6.9620  -14.9182   18.5563 C   0  0  0  0  0  0  0  0  0  0  0  0
    6.6415  -15.4547   19.9069 C   0  0  0  0  0  0  0  0  0  0  0  0
    7.8584  -15.5525   20.7715 C   0  0  2  0  0  0  0  0  0  0  0  0
    8.5027  -16.8287   20.4526 N   0  0  0  0  0  0  0  0  0  0  0  0
    7.3343  -15.6389   22.1963 C   0  0  0  0  0  0  0  0  0  0  0  0
    6.5811  -14.7560   22.6695 O   0  0  0  0  0  0  0  0  0  0  0  0
    7.4889  -15.0387   14.2421 N   0  0  0  0  0  0  0  0  0  0  0  0
    7.6932  -16.7319   23.0182 C   0  0  1  0  0  0  0  0  0  0  0  0
    7.2275  -16.7471   24.4238 C   0  0  0  0  0  0  0  0  0  0  0  0
    7.3936  -18.1509   24.9615 C   0  0  0  0  0  0  0  0  0  0  0  0
    7.0484  -18.2384   26.3983 C   0  0  0  0  0  0  0  0  0  0  0  0
    7.2341  -19.6366   26.9633 C   0  0  0  0  0  0  0  0  0  0  0  0
    8.4482  -19.7280   27.8454 N   0  0  0  0  0  0  0  0  0  0  0  0
    8.4958  -21.0702   28.3966 C   0  0  0  0  0  0  0  0  0  0  0  0
    8.0411  -15.7329   25.1119 O   0  0  0  0  0  0  0  0  0  0  0  0
    9.2836  -15.7099   24.9990 C   0  0  0  0  0  0  0  0  0  0  0  0
    7.3081  -11.7882   25.4653 C   0  0  2  0  0  0  0  0  0  0  0  0
    7.7049  -12.4075   26.7860 C   0  0  0  0  0  0  0  0  0  0  0  0
    6.4277  -12.5724   27.5854 C   0  0  2  0  0  0  0  0  0  0  0  0
    8.2984  -13.7505   26.5867 N   0  0  0  0  0  0  0  0  0  0  0  0
    7.4828  -14.7224   25.9409 C   0  0  0  0  0  0  0  0  0  0  0  0
    8.6821  -14.3046   27.9194 O   0  0  0  0  0  0  0  0  0  0  0  0
    8.1867  -15.4992   28.4200 O   0  0  0  0  0  0  0  0  0  0  0  0
  2  1  1  0
  3  2  2  0
  4  2  1  0
  5  4  1  0
  6  7  1  0
  6  5  1  0
  7  8  1  0
  8  9  1  6
 10  8  1  0
 10 11  2  0
 12 10  1  0
 13 12  1  0
 13 14  1  6
 15 14  1  0
 16 15  1  0
 17 16  1  0
 18 17  1  0
 19 13  1  0
 20 19  2  0
 22 23  1  6
 22 21  1  0
 24 22  1  0
 24 25  1  1
 25 19  1  0
 26 27  1  0
 26 24  1  0
 28 26  2  0
M  END
$$$$
