RKV.pdb
     RDKit          3D

 28 27  0  0  1  0  0  0  0  0999 V2000
   10.0587  -14.7120   18.1488 N   0  0  0  0  0  0  0  0  0  0  0  0
    9.1771  -14.2148   17.1664 C   0  0  0  0  0  0  0  0  0  0  0  0
    9.1684  -14.6620   15.9453 N   0  0  0  0  0  0  0  0  0  0  0  0
    8.2261  -13.1725   17.4540 N   0  0  0  0  0  0  0  0  0  0  0  0
    7.7108  -12.8686   18.7331 C   0  0  0  0  0  0  0  0  0  0  0  0
    6.9978  -13.9116   19.4987 C   0  0  0  0  0  0  0  0  0  0  0  0
    7.8344  -14.6737   20.4651 C   0  0  0  0  0  0  0  0  0  0  0  0
    7.3456  -16.0766   20.6409 C   0  0  2  0  0  0  0  0  0  0  0  0
    5.9555  -16.1014   20.1800 N   0  0  0  0  0  0  0  0  0  0  0  0
    7.3425  -16.3169   22.1424 C   0  0  0  0  0  0  0  0  0  0  0  0
    6.3524  -16.0163   22.8496 O   0  0  0  0  0  0  0  0  0  0  0  0
    8.5326  -14.1797   15.2661 N   0  0  0  0  0  0  0  0  0  0  0  0
    8.4713  -16.8918   22.7703 C   0  0  2  0  0  0  0  0  0  0  0  0
    8.4282  -17.1283   24.2315 C   0  0  0  0  0  0  0  0  0  0  0  0
    9.4086  -18.2318   24.5607 C   0  0  0  0  0  0  0  0  0  0  0  0
    9.4981  -18.4770   26.0178 C   0  0  0  0  0  0  0  0  0  0  0  0
   10.5619  -19.5007   26.3773 C   0  0  0  0  0  0  0  0  0  0  0  0
   10.1699  -20.8889   25.9531 N   0  0  0  0  0  0  0  0  0  0  0  0
   11.2806  -21.7743   26.2529 C   0  0  0  0  0  0  0  0  0  0  0  0
    8.7479  -15.8293   24.8433 O   0  0  0  0  0  0  0  0  0  0  0  0
    9.6233  -15.0817   24.3619 C   0  0  0  0  0  0  0  0  0  0  0  0
    7.7620  -11.8505   27.4261 C   0  0  2  0  0  0  0  0  0  0  0  0
    7.2953  -13.1152   26.7418 C   0  0  0  0  0  0  0  0  0  0  0  0
    6.8038  -12.7053   25.3679 C   0  0  1  0  0  0  0  0  0  0  0  0
    8.4162  -14.0677   26.5632 N   0  0  0  0  0  0  0  0  0  0  0  0
    8.0953  -15.3382   26.0064 C   0  0  0  0  0  0  0  0  0  0  0  0
    9.0515  -14.3109   27.8927 O   0  0  0  0  0  0  0  0  0  0  0  0
    9.6860  -13.3205   28.6274 O   0  0  0  0  0  0  0  0  0  0  0  0
  2  1  1  0
  3  2  2  0
  4  2  1  0
  5  4  1  0
  6  7  1  0
  6  5  1  0
  7  8  1  0
  8  9  1  1
 10  8  1  0
 10 11  2  0
 12 10  1  0
 13 12  1  0
 13 14  1  6
 15 14  1  0
 16 15  1  0
 17 16  1  0
 18 17  1  0
 19 13  1  0
 20 19  2  0
 22 23  1  6
 22 21  1  0
 24 22  1  0
 24 25  1  1
 25 19  1  0
 26 27  1  0
 26 24  1  0
 28 26  2  0
M  END
$$$$
