RKV.pdb
     RDKit          3D

 28 27  0  0  1  0  0  0  0  0999 V2000
    8.3198  -12.7787   15.9802 N   0  0  0  0  0  0  0  0  0  0  0  0
    8.0926  -14.0820   15.4910 C   0  0  0  0  0  0  0  0  0  0  0  0
    7.3357  -14.3189   14.4604 N   0  0  0  0  0  0  0  0  0  0  0  0
    8.6864  -15.2407   16.1062 N   0  0  0  0  0  0  0  0  0  0  0  0
    7.9739  -16.2911   16.7249 C   0  0  0  0  0  0  0  0  0  0  0  0
    8.2318  -16.6106   18.1440 C   0  0  0  0  0  0  0  0  0  0  0  0
    7.5364  -15.7373   19.1281 C   0  0  0  0  0  0  0  0  0  0  0  0
    8.4289  -15.3607   20.2681 C   0  0  2  0  0  0  0  0  0  0  0  0
    9.5873  -16.2554   20.2122 N   0  0  0  0  0  0  0  0  0  0  0  0
    7.6412  -15.6971   21.5245 C   0  0  0  0  0  0  0  0  0  0  0  0
    6.5571  -15.1259   21.7879 O   0  0  0  0  0  0  0  0  0  0  0  0
    7.1473  -15.3235   14.2289 N   0  0  0  0  0  0  0  0  0  0  0  0
    8.1265  -16.6731   22.4250 C   0  0  1  0  0  0  0  0  0  0  0  0
    7.4880  -16.7923   23.7558 C   0  0  0  0  0  0  0  0  0  0  0  0
    7.8549  -18.1395   24.3370 C   0  0  0  0  0  0  0  0  0  0  0  0
    7.3739  -18.2922   25.7286 C   0  0  0  0  0  0  0  0  0  0  0  0
    7.7700  -19.6235   26.3446 C   0  0  0  0  0  0  0  0  0  0  0  0
    7.2630  -19.7621   27.7533 N   0  0  0  0  0  0  0  0  0  0  0  0
    7.5973  -21.0971   28.2154 C   0  0  0  0  0  0  0  0  0  0  0  0
    7.9844  -15.6424   24.5274 O   0  0  0  0  0  0  0  0  0  0  0  0
    9.1878  -15.3135   24.5028 C   0  0  0  0  0  0  0  0  0  0  0  0
    7.3656  -11.5800   27.2542 C   0  0  2  0  0  0  0  0  0  0  0  0
    6.6884  -12.6798   26.4685 C   0  0  0  0  0  0  0  0  0  0  0  0
    6.1556  -12.0392   25.2024 C   0  0  1  0  0  0  0  0  0  0  0  0
    7.6586  -13.7297   26.0788 N   0  0  0  0  0  0  0  0  0  0  0  0
    7.1456  -14.8354   25.3429 C   0  0  0  0  0  0  0  0  0  0  0  0
    8.2948  -14.2736   27.3156 O   0  0  0  0  0  0  0  0  0  0  0  0
    9.1284  -13.5280   28.1356 O   0  0  0  0  0  0  0  0  0  0  0  0
  2  1  1  0
  3  2  2  0
  4  2  1  0
  5  4  1  0
  6  7  1  0
  6  5  1  0
  7  8  1  0
  8  9  1  6
 10  8  1  0
 10 11  2  0
 12 10  1  0
 13 12  1  0
 13 14  1  1
 15 14  1  0
 16 15  1  0
 17 16  1  0
 18 17  1  0
 19 13  1  0
 20 19  2  0
 22 23  1  6
 22 21  1  0
 24 22  1  0
 24 25  1  1
 25 19  1  0
 26 27  1  0
 26 24  1  0
 28 26  2  0
M  END
$$$$
