RKV.pdb
     RDKit          3D

 28 27  0  0  1  0  0  0  0  0999 V2000
    9.9545  -14.1300   19.2856 N   0  0  0  0  0  0  0  0  0  0  0  0
    8.9556  -13.4646   18.5445 C   0  0  0  0  0  0  0  0  0  0  0  0
    9.0098  -12.1913   18.2857 N   0  0  0  0  0  0  0  0  0  0  0  0
    7.8043  -14.1565   18.0256 N   0  0  0  0  0  0  0  0  0  0  0  0
    7.4438  -15.4863   18.3350 C   0  0  0  0  0  0  0  0  0  0  0  0
    7.6048  -15.9828   19.7170 C   0  0  0  0  0  0  0  0  0  0  0  0
    6.3373  -16.1945   20.4675 C   0  0  0  0  0  0  0  0  0  0  0  0
    6.2222  -17.5936   20.9845 C   0  0  2  0  0  0  0  0  0  0  0  0
    4.9392  -18.1164   20.5089 N   0  0  0  0  0  0  0  0  0  0  0  0
    6.1380  -17.4586   22.4967 C   0  0  0  0  0  0  0  0  0  0  0  0
    5.0810  -17.0917   23.0615 O   0  0  0  0  0  0  0  0  0  0  0  0
    8.2667  -11.8010   17.6583 N   0  0  0  0  0  0  0  0  0  0  0  0
    7.2657  -17.7501   23.2981 C   0  0  2  0  0  0  0  0  0  0  0  0
    7.1532  -17.5957   24.7665 C   0  0  0  0  0  0  0  0  0  0  0  0
    7.9084  -18.7313   25.4204 C   0  0  0  0  0  0  0  0  0  0  0  0
    8.0064  -18.5595   26.8873 C   0  0  0  0  0  0  0  0  0  0  0  0
    8.8185  -19.6567   27.5547 C   0  0  0  0  0  0  0  0  0  0  0  0
    8.8297  -19.5141   29.0514 N   0  0  0  0  0  0  0  0  0  0  0  0
    9.5871  -20.6260   29.5970 C   0  0  0  0  0  0  0  0  0  0  0  0
    7.6945  -16.2592   25.0576 O   0  0  0  0  0  0  0  0  0  0  0  0
    8.7408  -15.8491   24.5152 C   0  0  0  0  0  0  0  0  0  0  0  0
    5.5536  -13.3088   27.3799 C   0  0  2  0  0  0  0  0  0  0  0  0
    6.5391  -12.9595   26.2880 C   0  0  0  0  0  0  0  0  0  0  0  0
    7.2450  -11.6943   26.7336 C   0  0  1  0  0  0  0  0  0  0  0  0
    7.5586  -14.0233   26.1316 N   0  0  0  0  0  0  0  0  0  0  0  0
    7.0774  -15.3524   25.9614 C   0  0  0  0  0  0  0  0  0  0  0  0
    8.4406  -14.0191   27.3367 O   0  0  0  0  0  0  0  0  0  0  0  0
    9.2443  -12.9455   27.6900 O   0  0  0  0  0  0  0  0  0  0  0  0
  2  1  1  0
  3  2  2  0
  4  2  1  0
  5  4  1  0
  6  7  1  0
  6  5  1  0
  7  8  1  0
  8  9  1  6
 10  8  1  0
 10 11  2  0
 12 10  1  0
 13 12  1  0
 13 14  1  6
 15 14  1  0
 16 15  1  0
 17 16  1  0
 18 17  1  0
 19 13  1  0
 20 19  2  0
 22 23  1  1
 22 21  1  0
 24 22  1  0
 24 25  1  6
 25 19  1  0
 26 27  1  0
 26 24  1  0
 28 26  2  0
M  END
$$$$
