RKV.pdb
     RDKit          3D

 28 27  0  0  1  0  0  0  0  0999 V2000
    6.5482  -15.3011   13.7882 N   0  0  0  0  0  0  0  0  0  0  0  0
    7.7820  -15.9847   13.7763 C   0  0  0  0  0  0  0  0  0  0  0  0
    8.8014  -15.5736   13.0812 N   0  0  0  0  0  0  0  0  0  0  0  0
    7.9923  -17.1896   14.5361 N   0  0  0  0  0  0  0  0  0  0  0  0
    9.0783  -17.4256   15.4072 C   0  0  0  0  0  0  0  0  0  0  0  0
    9.9042  -16.2904   15.8673 C   0  0  0  0  0  0  0  0  0  0  0  0
   11.0497  -16.6532   16.7453 C   0  0  0  0  0  0  0  0  0  0  0  0
   12.3530  -16.1747   16.1880 C   0  0  2  0  0  0  0  0  0  0  0  0
   12.8470  -17.2304   15.3008 N   0  0  0  0  0  0  0  0  0  0  0  0
   13.2938  -16.0902   17.3797 C   0  0  0  0  0  0  0  0  0  0  0  0
   13.6941  -17.1209   17.9698 O   0  0  0  0  0  0  0  0  0  0  0  0
    9.6808  -16.1399   13.1453 N   0  0  0  0  0  0  0  0  0  0  0  0
   13.7374  -14.8307   17.8443 C   0  0  1  0  0  0  0  0  0  0  0  0
   14.7768  -14.7877   18.8982 C   0  0  0  0  0  0  0  0  0  0  0  0
   15.5975  -13.5327   18.7015 C   0  0  0  0  0  0  0  0  0  0  0  0
   16.5068  -13.6419   17.5386 C   0  0  0  0  0  0  0  0  0  0  0  0
   17.2838  -12.3624   17.2779 C   0  0  0  0  0  0  0  0  0  0  0  0
   18.2354  -12.5100   16.1232 N   0  0  0  0  0  0  0  0  0  0  0  0
   18.9195  -11.2416   15.9476 C   0  0  0  0  0  0  0  0  0  0  0  0
   14.0401  -14.8385   20.1705 O   0  0  0  0  0  0  0  0  0  0  0  0
   13.0343  -14.1270   20.3683 C   0  0  0  0  0  0  0  0  0  0  0  0
   11.7197  -16.9876   21.7198 C   0  0  2  0  0  0  0  0  0  0  0  0
   12.8380  -16.8881   22.7322 C   0  0  0  0  0  0  0  0  0  0  0  0
   13.6946  -18.1253   22.5507 C   0  0  2  0  0  0  0  0  0  0  0  0
   13.6856  -15.7007   22.4731 N   0  0  0  0  0  0  0  0  0  0  0  0
   14.4121  -15.6863   21.2488 C   0  0  0  0  0  0  0  0  0  0  0  0
   14.6776  -15.5722   23.5820 O   0  0  0  0  0  0  0  0  0  0  0  0
   14.3273  -15.2552   24.8859 O   0  0  0  0  0  0  0  0  0  0  0  0
  2  1  1  0
  3  2  2  0
  4  2  1  0
  5  4  1  0
  6  7  1  0
  6  5  1  0
  7  8  1  0
  8  9  1  6
 10  8  1  0
 10 11  2  0
 12 10  1  0
 13 12  1  0
 13 14  1  6
 15 14  1  0
 16 15  1  0
 17 16  1  0
 18 17  1  0
 19 13  1  0
 20 19  2  0
 22 23  1  6
 22 21  1  0
 24 22  1  0
 24 25  1  1
 25 19  1  0
 26 27  1  0
 26 24  1  0
 28 26  2  0
M  END
$$$$
