RKV.pdb
     RDKit          3D

 28 27  0  0  1  0  0  0  0  0999 V2000
    7.5598  -13.8255   16.0662 N   0  0  0  0  0  0  0  0  0  0  0  0
    8.7985  -14.2876   16.5577 C   0  0  0  0  0  0  0  0  0  0  0  0
    9.6331  -14.9627   15.8235 N   0  0  0  0  0  0  0  0  0  0  0  0
    9.2199  -14.0417   17.9125 N   0  0  0  0  0  0  0  0  0  0  0  0
    8.5763  -14.5337   19.0690 C   0  0  0  0  0  0  0  0  0  0  0  0
    7.1490  -14.2268   19.2956 C   0  0  0  0  0  0  0  0  0  0  0  0
    6.6024  -14.6783   20.6041 C   0  0  0  0  0  0  0  0  0  0  0  0
    6.8787  -16.1272   20.8540 C   0  0  2  0  0  0  0  0  0  0  0  0
    5.7568  -16.8766   20.2838 N   0  0  0  0  0  0  0  0  0  0  0  0
    6.8286  -16.2920   22.3648 C   0  0  0  0  0  0  0  0  0  0  0  0
    5.7474  -16.2164   22.9942 O   0  0  0  0  0  0  0  0  0  0  0  0
   10.5346  -15.2531   16.2719 N   0  0  0  0  0  0  0  0  0  0  0  0
    8.0169  -16.5374   23.0906 C   0  0  2  0  0  0  0  0  0  0  0  0
    7.9278  -16.7279   24.5564 C   0  0  0  0  0  0  0  0  0  0  0  0
    8.6986  -17.9779   24.9182 C   0  0  0  0  0  0  0  0  0  0  0  0
    8.7376  -18.2009   26.3810 C   0  0  0  0  0  0  0  0  0  0  0  0
    9.5836  -19.4016   26.7702 C   0  0  0  0  0  0  0  0  0  0  0  0
    9.4997  -19.6925   28.2429 N   0  0  0  0  0  0  0  0  0  0  0  0
   10.3122  -20.8657   28.5100 C   0  0  0  0  0  0  0  0  0  0  0  0
    8.4680  -15.4908   25.1409 O   0  0  0  0  0  0  0  0  0  0  0  0
    9.5919  -15.0556   24.8175 C   0  0  0  0  0  0  0  0  0  0  0  0
    6.9464  -11.8902   25.6330 C   0  0  2  0  0  0  0  0  0  0  0  0
    7.4939  -12.4038   26.9452 C   0  0  0  0  0  0  0  0  0  0  0  0
    6.2988  -12.8383   27.7701 C   0  0  2  0  0  0  0  0  0  0  0  0
    8.3601  -13.5871   26.7332 N   0  0  0  0  0  0  0  0  0  0  0  0
    7.7630  -14.7135   26.0994 C   0  0  0  0  0  0  0  0  0  0  0  0
    8.8770  -14.0429   28.0582 O   0  0  0  0  0  0  0  0  0  0  0  0
    9.6900  -13.2646   28.8684 O   0  0  0  0  0  0  0  0  0  0  0  0
  2  1  1  0
  3  2  2  0
  4  2  1  0
  5  4  1  0
  6  7  1  0
  6  5  1  0
  7  8  1  0
  8  9  1  6
 10  8  1  0
 10 11  2  0
 12 10  1  0
 13 12  1  0
 13 14  1  6
 15 14  1  0
 16 15  1  0
 17 16  1  0
 18 17  1  0
 19 13  1  0
 20 19  2  0
 22 23  1  6
 22 21  1  0
 24 22  1  0
 24 25  1  1
 25 19  1  0
 26 27  1  0
 26 24  1  0
 28 26  2  0
M  END
$$$$
