RKV.pdb
     RDKit          3D

 28 27  0  0  1  0  0  0  0  0999 V2000
   11.5757  -13.6211   20.6310 N   0  0  0  0  0  0  0  0  0  0  0  0
   11.1514  -13.5779   19.2864 C   0  0  0  0  0  0  0  0  0  0  0  0
   11.6257  -14.3792   18.3785 N   0  0  0  0  0  0  0  0  0  0  0  0
   10.1616  -12.6370   18.8301 N   0  0  0  0  0  0  0  0  0  0  0  0
    8.8430  -12.5356   19.3251 C   0  0  0  0  0  0  0  0  0  0  0  0
    7.8729  -13.6131   19.0420 C   0  0  0  0  0  0  0  0  0  0  0  0
    7.2129  -14.2039   20.2379 C   0  0  0  0  0  0  0  0  0  0  0  0
    7.5339  -15.6570   20.3912 C   0  0  2  0  0  0  0  0  0  0  0  0
    6.4426  -16.4006   19.7574 N   0  0  0  0  0  0  0  0  0  0  0  0
    7.4741  -15.9270   21.8865 C   0  0  0  0  0  0  0  0  0  0  0  0
    6.3828  -15.9509   22.5025 O   0  0  0  0  0  0  0  0  0  0  0  0
   11.2856  -14.2409   17.3969 N   0  0  0  0  0  0  0  0  0  0  0  0
    8.6648  -16.1592   22.6127 C   0  0  2  0  0  0  0  0  0  0  0  0
    8.5649  -16.5099   24.0480 C   0  0  0  0  0  0  0  0  0  0  0  0
    9.5508  -17.6209   24.3327 C   0  0  0  0  0  0  0  0  0  0  0  0
    9.5681  -17.9926   25.7654 C   0  0  0  0  0  0  0  0  0  0  0  0
   10.5192  -19.1395   26.0636 C   0  0  0  0  0  0  0  0  0  0  0  0
   10.5276  -19.4952   27.5244 N   0  0  0  0  0  0  0  0  0  0  0  0
   11.2779  -20.7288   27.6760 C   0  0  0  0  0  0  0  0  0  0  0  0
    8.8349  -15.2580   24.7718 O   0  0  0  0  0  0  0  0  0  0  0  0
    9.8213  -14.5460   24.4940 C   0  0  0  0  0  0  0  0  0  0  0  0
    6.4743  -12.2667   25.5004 C   0  0  2  0  0  0  0  0  0  0  0  0
    7.1745  -12.6529   26.7833 C   0  0  0  0  0  0  0  0  0  0  0  0
    6.1560  -13.3989   27.6221 C   0  0  2  0  0  0  0  0  0  0  0  0
    8.3081  -13.5688   26.5154 N   0  0  0  0  0  0  0  0  0  0  0  0
    8.0075  -14.7752   25.8216 C   0  0  0  0  0  0  0  0  0  0  0  0
    8.9331  -13.9471   27.8179 O   0  0  0  0  0  0  0  0  0  0  0  0
    9.5164  -13.0297   28.6790 O   0  0  0  0  0  0  0  0  0  0  0  0
  2  1  1  0
  3  2  2  0
  4  2  1  0
  5  4  1  0
  6  7  1  0
  6  5  1  0
  7  8  1  0
  8  9  1  6
 10  8  1  0
 10 11  2  0
 12 10  1  0
 13 12  1  0
 13 14  1  6
 15 14  1  0
 16 15  1  0
 17 16  1  0
 18 17  1  0
 19 13  1  0
 20 19  2  0
 22 23  1  6
 22 21  1  0
 24 22  1  0
 24 25  1  1
 25 19  1  0
 26 27  1  0
 26 24  1  0
 28 26  2  0
M  END
$$$$
