RKV.pdb
     RDKit          3D

 28 27  0  0  1  0  0  0  0  0999 V2000
    8.7193  -13.7425   16.8525 N   0  0  0  0  0  0  0  0  0  0  0  0
    8.1784  -13.2554   18.0608 C   0  0  0  0  0  0  0  0  0  0  0  0
    8.2635  -12.0057   18.4103 N   0  0  0  0  0  0  0  0  0  0  0  0
    7.4952  -14.1165   18.9910 N   0  0  0  0  0  0  0  0  0  0  0  0
    7.5384  -15.5278   18.9792 C   0  0  0  0  0  0  0  0  0  0  0  0
    8.7913  -16.2160   18.6060 C   0  0  0  0  0  0  0  0  0  0  0  0
    9.7884  -16.3580   19.7015 C   0  0  0  0  0  0  0  0  0  0  0  0
    9.2811  -17.2272   20.8083 C   0  0  2  0  0  0  0  0  0  0  0  0
    7.8335  -17.3494   20.6209 N   0  0  0  0  0  0  0  0  0  0  0  0
    9.5200  -16.4353   22.0842 C   0  0  0  0  0  0  0  0  0  0  0  0
   10.6594  -16.0075   22.3835 O   0  0  0  0  0  0  0  0  0  0  0  0
    7.8849  -11.7482   19.3529 N   0  0  0  0  0  0  0  0  0  0  0  0
    8.4452  -16.1656   22.9625 C   0  0  1  0  0  0  0  0  0  0  0  0
    8.7128  -15.3921   24.1966 C   0  0  0  0  0  0  0  0  0  0  0  0
    7.4574  -14.6304   24.5585 C   0  0  0  0  0  0  0  0  0  0  0  0
    7.6126  -13.8747   25.8218 C   0  0  0  0  0  0  0  0  0  0  0  0
    6.3754  -13.0686   26.1803 C   0  0  0  0  0  0  0  0  0  0  0  0
    6.5489  -12.3210   27.4732 N   0  0  0  0  0  0  0  0  0  0  0  0
    5.3568  -11.5201   27.6855 C   0  0  0  0  0  0  0  0  0  0  0  0
    9.1277  -16.3890   25.1956 O   0  0  0  0  0  0  0  0  0  0  0  0
    8.3777  -17.3303   25.5252 C   0  0  0  0  0  0  0  0  0  0  0  0
   11.9413  -18.8864   25.3241 C   0  0  2  0  0  0  0  0  0  0  0  0
   12.0181  -18.0640   26.5902 C   0  0  0  0  0  0  0  0  0  0  0  0
   13.1226  -17.0480   26.3775 C   0  0  2  0  0  0  0  0  0  0  0  0
   10.7542  -17.3263   26.8226 N   0  0  0  0  0  0  0  0  0  0  0  0
   10.3902  -16.3549   25.8475 C   0  0  0  0  0  0  0  0  0  0  0  0
   10.8466  -16.6251   28.1379 O   0  0  0  0  0  0  0  0  0  0  0  0
   10.9556  -17.2893   29.3504 O   0  0  0  0  0  0  0  0  0  0  0  0
  2  1  1  0
  3  2  2  0
  4  2  1  0
  5  4  1  0
  6  7  1  0
  6  5  1  0
  7  8  1  0
  8  9  1  6
 10  8  1  0
 10 11  2  0
 12 10  1  0
 13 12  1  0
 13 14  1  1
 15 14  1  0
 16 15  1  0
 17 16  1  0
 18 17  1  0
 19 13  1  0
 20 19  2  0
 22 23  1  6
 22 21  1  0
 24 22  1  0
 24 25  1  1
 25 19  1  0
 26 27  1  0
 26 24  1  0
 28 26  2  0
M  END
$$$$
