TSD.pdb
     RDKit          3D

 22 21  0  0  1  0  0  0  0  0999 V2000
   20.7110  -12.2584  -19.8889 C   0  0  0  0  0  0  0  0  0  0  0  0
   20.4215  -11.1577  -18.9105 C   0  0  1  0  0  0  0  0  0  0  0  0
   19.1859  -10.5623  -19.2437 O   0  0  0  0  0  0  0  0  0  0  0  0
   20.2568  -11.6364  -17.4849 C   0  0  2  0  0  0  0  0  0  0  0  0
   19.0542  -12.4965  -17.5219 N   0  0  0  0  0  0  0  0  0  0  0  0
   19.9407  -10.5411  -16.5414 C   0  0  0  0  0  0  0  0  0  0  0  0
   18.7369  -10.1112  -16.3898 O   0  0  0  0  0  0  0  0  0  0  0  0
   22.3279   -9.3946  -13.4255 O   0  0  0  0  0  0  0  0  0  0  0  0
   20.9859   -9.0971  -13.4712 C   0  0  0  0  0  0  0  0  0  0  0  0
   20.5291   -8.7442  -14.8710 C   0  0  2  0  0  0  0  0  0  0  0  0
   20.8818   -9.8633  -15.7239 N   0  0  0  0  0  0  0  0  0  0  0  0
   21.1462   -7.4750  -15.3444 C   0  0  0  0  0  0  0  0  0  0  0  0
   22.1614   -7.4800  -16.0954 O   0  0  0  0  0  0  0  0  0  0  0  0
   20.6038   -6.2263  -14.9607 N   0  0  0  0  0  0  0  0  0  0  0  0
   21.1563   -4.9316  -15.2900 C   0  0  1  0  0  0  0  0  0  0  0  0
   20.1020   -3.8763  -15.4051 C   0  0  0  0  0  0  0  0  0  0  0  0
   20.6677   -2.5960  -15.8580 C   0  0  0  0  0  0  0  0  0  0  0  0
   21.6994   -2.5937  -16.5819 O   0  0  0  0  0  0  0  0  0  0  0  0
   22.2277   -4.5398  -14.3136 C   0  0  0  0  0  0  0  0  0  0  0  0
   21.9489   -4.5556  -13.0888 O   0  0  0  0  0  0  0  0  0  0  0  0
   20.1162   -1.3606  -15.5279 O   0  0  0  0  0  0  0  0  0  0  0  0
   23.5013   -4.1634  -14.7083 O   0  0  0  0  0  0  0  0  0  0  0  0
  2  1  1  6
  2  4  1  0
  3  2  1  0
  4  5  1  6
  6 11  1  0
  6  4  1  0
  7  6  2  0
  9  8  1  0
 10  9  1  1
 10 11  1  0
 10 12  1  0
 12 13  2  0
 14 12  1  0
 14 15  1  0
 15 16  1  1
 17 16  1  0
 18 17  2  0
 19 15  1  0
 19 22  1  0
 20 19  2  0
 21 17  1  0
M  END
$$$$
