TSD.pdb
     RDKit          3D

 22 21  0  0  1  0  0  0  0  0999 V2000
   27.6761  -11.6071  -15.1610 C   0  0  0  0  0  0  0  0  0  0  0  0
   26.6155  -10.6236  -15.5613 C   0  0  1  0  0  0  0  0  0  0  0  0
   27.1920   -9.6437  -16.3978 O   0  0  0  0  0  0  0  0  0  0  0  0
   25.4971  -11.2313  -16.3788 C   0  0  2  0  0  0  0  0  0  0  0  0
   26.1390  -11.6115  -17.6558 N   0  0  0  0  0  0  0  0  0  0  0  0
   24.4436  -10.2540  -16.7321 C   0  0  0  0  0  0  0  0  0  0  0  0
   24.5339   -9.5198  -17.7855 O   0  0  0  0  0  0  0  0  0  0  0  0
   20.6013  -10.4045  -15.2989 O   0  0  0  0  0  0  0  0  0  0  0  0
   20.9395   -9.7931  -16.4835 C   0  0  0  0  0  0  0  0  0  0  0  0
   22.2544   -9.0491  -16.3843 C   0  0  2  0  0  0  0  0  0  0  0  0
   23.2582  -10.0187  -15.9885 N   0  0  0  0  0  0  0  0  0  0  0  0
   22.1716   -7.9175  -15.4207 C   0  0  0  0  0  0  0  0  0  0  0  0
   22.5080   -8.0600  -14.2119 O   0  0  0  0  0  0  0  0  0  0  0  0
   21.7115   -6.6481  -15.8421 N   0  0  0  0  0  0  0  0  0  0  0  0
   21.5053   -5.5009  -14.9868 C   0  0  1  0  0  0  0  0  0  0  0  0
   22.0432   -4.2404  -15.5871 C   0  0  0  0  0  0  0  0  0  0  0  0
   21.8341   -3.0875  -14.6976 C   0  0  0  0  0  0  0  0  0  0  0  0
   21.1010   -2.1348  -15.0766 O   0  0  0  0  0  0  0  0  0  0  0  0
   20.0577   -5.3623  -14.6124 C   0  0  0  0  0  0  0  0  0  0  0  0
   19.7624   -4.6041  -13.6552 O   0  0  0  0  0  0  0  0  0  0  0  0
   22.4097   -2.9868  -13.4335 O   0  0  0  0  0  0  0  0  0  0  0  0
   19.0436   -6.0339  -15.2757 O   0  0  0  0  0  0  0  0  0  0  0  0
  2  1  1  6
  2  4  1  0
  3  2  1  0
  4  5  1  6
  6 11  1  0
  6  4  1  0
  7  6  2  0
  9  8  1  0
 10  9  1  1
 10 11  1  0
 10 12  1  0
 12 13  2  0
 14 12  1  0
 14 15  1  0
 15 16  1  6
 17 16  1  0
 18 17  2  0
 19 15  1  0
 19 22  1  0
 20 19  2  0
 21 17  1  0
M  END
$$$$
