TSD.pdb
     RDKit          3D

 22 21  0  0  1  0  0  0  0  0999 V2000
   16.6546   -9.2373  -17.2391 C   0  0  0  0  0  0  0  0  0  0  0  0
   16.5097  -10.3437  -16.2354 C   0  0  1  0  0  0  0  0  0  0  0  0
   15.6919  -11.3550  -16.7836 O   0  0  0  0  0  0  0  0  0  0  0  0
   17.8127  -11.0321  -15.8938 C   0  0  2  0  0  0  0  0  0  0  0  0
   17.4313  -12.0822  -14.9247 N   0  0  0  0  0  0  0  0  0  0  0  0
   18.7618  -10.1496  -15.1796 C   0  0  0  0  0  0  0  0  0  0  0  0
   18.4167   -9.5127  -14.1156 O   0  0  0  0  0  0  0  0  0  0  0  0
   22.6921   -9.3918  -16.4905 O   0  0  0  0  0  0  0  0  0  0  0  0
   22.3885   -9.3627  -15.1494 C   0  0  0  0  0  0  0  0  0  0  0  0
   20.9568   -8.9377  -14.8997 C   0  0  2  0  0  0  0  0  0  0  0  0
   20.1074   -9.9099  -15.5610 N   0  0  0  0  0  0  0  0  0  0  0  0
   20.7018   -7.5568  -15.3938 C   0  0  0  0  0  0  0  0  0  0  0  0
   20.2815   -7.3474  -16.5661 O   0  0  0  0  0  0  0  0  0  0  0  0
   20.9257   -6.4411  -14.5538 N   0  0  0  0  0  0  0  0  0  0  0  0
   20.8765   -5.0555  -14.9637 C   0  0  1  0  0  0  0  0  0  0  0  0
   20.0386   -4.2212  -14.0471 C   0  0  0  0  0  0  0  0  0  0  0  0
   20.0100   -2.8137  -14.4744 C   0  0  0  0  0  0  0  0  0  0  0  0
   19.4170   -2.4999  -15.5413 O   0  0  0  0  0  0  0  0  0  0  0  0
   22.2593   -4.4908  -15.1177 C   0  0  0  0  0  0  0  0  0  0  0  0
   23.1542   -4.8898  -14.3315 O   0  0  0  0  0  0  0  0  0  0  0  0
   20.6112   -1.7862  -13.7517 O   0  0  0  0  0  0  0  0  0  0  0  0
   22.5834   -3.5531  -16.0849 O   0  0  0  0  0  0  0  0  0  0  0  0
  2  1  1  6
  2  4  1  0
  3  2  1  0
  4  5  1  1
  6 11  1  0
  6  4  1  0
  7  6  2  0
  9  8  1  0
 10  9  1  6
 10 11  1  0
 10 12  1  0
 12 13  2  0
 14 12  1  0
 14 15  1  0
 15 16  1  1
 17 16  1  0
 18 17  2  0
 19 15  1  0
 19 22  1  0
 20 19  2  0
 21 17  1  0
M  END
$$$$
