TSD.pdb
     RDKit          3D

 22 21  0  0  1  0  0  0  0  0999 V2000
   18.6614   -6.9538  -17.5148 C   0  0  0  0  0  0  0  0  0  0  0  0
   18.0931   -8.2138  -16.9301 C   0  0  1  0  0  0  0  0  0  0  0  0
   16.9078   -8.5451  -17.6210 O   0  0  0  0  0  0  0  0  0  0  0  0
   18.9924   -9.4199  -17.0889 C   0  0  2  0  0  0  0  0  0  0  0  0
   18.1917  -10.5476  -16.5650 N   0  0  0  0  0  0  0  0  0  0  0  0
   20.2014   -9.3541  -16.2384 C   0  0  0  0  0  0  0  0  0  0  0  0
   20.1179   -9.2795  -14.9561 O   0  0  0  0  0  0  0  0  0  0  0  0
   25.0585   -9.6014  -15.8963 O   0  0  0  0  0  0  0  0  0  0  0  0
   23.8924   -9.7255  -16.6149 C   0  0  0  0  0  0  0  0  0  0  0  0
   22.6893   -9.2396  -15.8345 C   0  0  2  0  0  0  0  0  0  0  0  0
   21.5397   -9.3671  -16.7100 N   0  0  0  0  0  0  0  0  0  0  0  0
   22.8711   -7.8389  -15.3645 C   0  0  0  0  0  0  0  0  0  0  0  0
   23.6508   -7.5639  -14.4100 O   0  0  0  0  0  0  0  0  0  0  0  0
   22.1694   -6.7777  -15.9826 N   0  0  0  0  0  0  0  0  0  0  0  0
   22.3605   -5.3707  -15.7101 C   0  0  1  0  0  0  0  0  0  0  0  0
   21.9522   -4.5082  -16.8624 C   0  0  0  0  0  0  0  0  0  0  0  0
   22.1020   -3.0793  -16.5459 C   0  0  0  0  0  0  0  0  0  0  0  0
   23.2534   -2.6006  -16.3626 O   0  0  0  0  0  0  0  0  0  0  0  0
   21.6628   -4.9686  -14.4427 C   0  0  0  0  0  0  0  0  0  0  0  0
   20.6129   -5.5803  -14.1237 O   0  0  0  0  0  0  0  0  0  0  0  0
   21.0225   -2.2063  -16.4370 O   0  0  0  0  0  0  0  0  0  0  0  0
   22.1278   -3.9563  -13.6190 O   0  0  0  0  0  0  0  0  0  0  0  0
  2  1  1  6
  2  4  1  0
  3  2  1  0
  4  5  1  1
  6 11  1  0
  6  4  1  0
  7  6  2  0
  9  8  1  0
 10  9  1  6
 10 11  1  0
 10 12  1  0
 12 13  2  0
 14 12  1  0
 14 15  1  0
 15 16  1  6
 17 16  1  0
 18 17  2  0
 19 15  1  0
 19 22  1  0
 20 19  2  0
 21 17  1  0
M  END
$$$$
