TSD.pdb
     RDKit          3D

 22 21  0  0  1  0  0  0  0  0999 V2000
   18.3213  -13.4872  -19.1243 C   0  0  0  0  0  0  0  0  0  0  0  0
   19.1994  -12.3442  -18.7061 C   0  0  1  0  0  0  0  0  0  0  0  0
   19.1632  -12.2298  -17.2998 O   0  0  0  0  0  0  0  0  0  0  0  0
   20.6599  -12.5397  -19.0484 C   0  0  2  0  0  0  0  0  0  0  0  0
   21.0915  -13.6649  -18.1911 N   0  0  0  0  0  0  0  0  0  0  0  0
   21.5033  -11.3883  -18.6578 C   0  0  0  0  0  0  0  0  0  0  0  0
   21.9400  -11.2526  -17.4546 O   0  0  0  0  0  0  0  0  0  0  0  0
   24.1696   -7.5639  -20.0770 O   0  0  0  0  0  0  0  0  0  0  0  0
   23.2834   -8.5782  -20.3558 C   0  0  0  0  0  0  0  0  0  0  0  0
   22.7899   -9.2633  -19.0991 C   0  0  2  0  0  0  0  0  0  0  0  0
   21.9172  -10.3420  -19.5224 N   0  0  0  0  0  0  0  0  0  0  0  0
   22.0892   -8.3103  -18.1953 C   0  0  0  0  0  0  0  0  0  0  0  0
   20.8520   -8.0857  -18.3119 O   0  0  0  0  0  0  0  0  0  0  0  0
   22.7997   -7.6315  -17.1781 N   0  0  0  0  0  0  0  0  0  0  0  0
   22.2399   -6.6611  -16.2642 C   0  0  1  0  0  0  0  0  0  0  0  0
   22.9015   -6.6960  -14.9228 C   0  0  0  0  0  0  0  0  0  0  0  0
   22.2880   -5.7343  -13.9938 C   0  0  0  0  0  0  0  0  0  0  0  0
   21.0828   -5.4005  -14.1508 O   0  0  0  0  0  0  0  0  0  0  0  0
   22.2676   -5.2829  -16.8597 C   0  0  0  0  0  0  0  0  0  0  0  0
   23.2173   -4.9870  -17.6269 O   0  0  0  0  0  0  0  0  0  0  0  0
   22.9759   -5.1609  -12.9273 O   0  0  0  0  0  0  0  0  0  0  0  0
   21.2947   -4.3322  -16.5967 O   0  0  0  0  0  0  0  0  0  0  0  0
  2  1  1  1
  2  4  1  0
  3  2  1  0
  4  5  1  1
  6 11  1  0
  6  4  1  0
  7  6  2  0
  9  8  1  0
 10  9  1  6
 10 11  1  0
 10 12  1  0
 12 13  2  0
 14 12  1  0
 14 15  1  0
 15 16  1  1
 17 16  1  0
 18 17  2  0
 19 15  1  0
 19 22  1  0
 20 19  2  0
 21 17  1  0
M  END
$$$$
