TSD.pdb
     RDKit          3D

 22 21  0  0  1  0  0  0  0  0999 V2000
   17.6990  -15.3449  -15.7705 C   0  0  0  0  0  0  0  0  0  0  0  0
   18.1478  -14.0286  -16.3345 C   0  0  1  0  0  0  0  0  0  0  0  0
   17.2624  -13.6463  -17.3651 O   0  0  0  0  0  0  0  0  0  0  0  0
   18.1066  -12.8916  -15.3373 C   0  0  2  0  0  0  0  0  0  0  0  0
   16.6648  -12.6592  -15.1034 N   0  0  0  0  0  0  0  0  0  0  0  0
   18.6358  -11.6234  -15.8860 C   0  0  0  0  0  0  0  0  0  0  0  0
   19.8983  -11.4409  -16.0590 O   0  0  0  0  0  0  0  0  0  0  0  0
   16.2069   -8.3844  -16.9511 O   0  0  0  0  0  0  0  0  0  0  0  0
   17.3753   -8.6137  -17.6396 C   0  0  0  0  0  0  0  0  0  0  0  0
   18.4277   -9.2699  -16.7710 C   0  0  2  0  0  0  0  0  0  0  0  0
   17.8527  -10.5052  -16.2733 N   0  0  0  0  0  0  0  0  0  0  0  0
   18.8566   -8.3755  -15.6611 C   0  0  0  0  0  0  0  0  0  0  0  0
   18.2776   -8.3994  -14.5391 O   0  0  0  0  0  0  0  0  0  0  0  0
   19.9310   -7.4733  -15.8407 N   0  0  0  0  0  0  0  0  0  0  0  0
   20.4063   -6.5241  -14.8591 C   0  0  1  0  0  0  0  0  0  0  0  0
   21.8463   -6.1716  -15.0602 C   0  0  0  0  0  0  0  0  0  0  0  0
   22.2964   -5.1658  -14.0854 C   0  0  0  0  0  0  0  0  0  0  0  0
   22.2727   -5.4383  -12.8551 O   0  0  0  0  0  0  0  0  0  0  0  0
   19.5358   -5.3010  -14.8281 C   0  0  0  0  0  0  0  0  0  0  0  0
   19.0641   -4.8807  -15.9139 O   0  0  0  0  0  0  0  0  0  0  0  0
   22.7588   -3.9043  -14.4515 O   0  0  0  0  0  0  0  0  0  0  0  0
   19.2361   -4.6229  -13.6576 O   0  0  0  0  0  0  0  0  0  0  0  0
  2  1  1  1
  2  4  1  0
  3  2  1  0
  4  5  1  6
  6 11  1  0
  6  4  1  0
  7  6  2  0
  9  8  1  0
 10  9  1  1
 10 11  1  0
 10 12  1  0
 12 13  2  0
 14 12  1  0
 14 15  1  0
 15 16  1  6
 17 16  1  0
 18 17  2  0
 19 15  1  0
 19 22  1  0
 20 19  2  0
 21 17  1  0
M  END
$$$$
