TSD.pdb
     RDKit          3D

 22 21  0  0  1  0  0  0  0  0999 V2000
   24.5924  -35.5281  -13.4906 C   0  0  0  0  0  0  0  0  0  0  0  0
   25.1968  -35.1665  -12.1653 C   0  0  1  0  0  0  0  0  0  0  0  0
   25.8842  -33.9406  -12.2949 O   0  0  0  0  0  0  0  0  0  0  0  0
   24.1767  -34.9330  -11.0729 C   0  0  2  0  0  0  0  0  0  0  0  0
   23.4450  -33.7225  -11.5050 N   0  0  0  0  0  0  0  0  0  0  0  0
   24.7926  -34.5893   -9.7721 C   0  0  0  0  0  0  0  0  0  0  0  0
   25.4844  -35.4481   -9.1082 O   0  0  0  0  0  0  0  0  0  0  0  0
   25.7544  -31.1788   -6.4146 O   0  0  0  0  0  0  0  0  0  0  0  0
   25.3159  -31.5530   -7.6633 C   0  0  0  0  0  0  0  0  0  0  0  0
   25.2932  -33.0576   -7.8308 C   0  0  2  0  0  0  0  0  0  0  0  0
   24.7026  -33.3283   -9.1277 N   0  0  0  0  0  0  0  0  0  0  0  0
   24.5370  -33.7191   -6.7323 C   0  0  0  0  0  0  0  0  0  0  0  0
   23.2786  -33.8175   -6.7697 O   0  0  0  0  0  0  0  0  0  0  0  0
   25.2175  -34.2567   -5.6150 N   0  0  0  0  0  0  0  0  0  0  0  0
   24.5936  -34.8820   -4.4704 C   0  0  1  0  0  0  0  0  0  0  0  0
   25.1023  -36.2688   -4.2330 C   0  0  0  0  0  0  0  0  0  0  0  0
   24.0265  -37.1694   -3.7903 C   0  0  0  0  0  0  0  0  0  0  0  0
   22.8473  -36.7330   -3.7025 O   0  0  0  0  0  0  0  0  0  0  0  0
   24.7330  -34.0238   -3.2461 C   0  0  0  0  0  0  0  0  0  0  0  0
   25.6678  -33.1852   -3.2126 O   0  0  0  0  0  0  0  0  0  0  0  0
   24.2398  -38.5048   -3.4578 O   0  0  0  0  0  0  0  0  0  0  0  0
   23.8781  -34.1213   -2.1602 O   0  0  0  0  0  0  0  0  0  0  0  0
  2  1  1  6
  2  4  1  0
  3  2  1  0
  4  5  1  6
  6 11  1  0
  6  4  1  0
  7  6  2  0
  9  8  1  0
 10  9  1  1
 10 11  1  0
 10 12  1  0
 12 13  2  0
 14 12  1  0
 14 15  1  0
 15 16  1  1
 17 16  1  0
 18 17  2  0
 19 15  1  0
 19 22  1  0
 20 19  2  0
 21 17  1  0
M  END
$$$$
