TSD.pdb
     RDKit          3D

 22 21  0  0  1  0  0  0  0  0999 V2000
   16.7190  -12.5454  -17.8351 C   0  0  0  0  0  0  0  0  0  0  0  0
   16.7557  -11.3293  -16.9563 C   0  0  1  0  0  0  0  0  0  0  0  0
   16.0135  -11.5888  -15.7842 O   0  0  0  0  0  0  0  0  0  0  0  0
   18.1427  -10.9675  -16.4728 C   0  0  2  0  0  0  0  0  0  0  0  0
   18.5083  -12.0637  -15.5496 N   0  0  0  0  0  0  0  0  0  0  0  0
   18.1663   -9.7310  -15.6603 C   0  0  0  0  0  0  0  0  0  0  0  0
   18.0159   -8.5709  -16.1974 O   0  0  0  0  0  0  0  0  0  0  0  0
   16.9729   -9.2135  -11.8102 O   0  0  0  0  0  0  0  0  0  0  0  0
   18.2479   -8.7608  -12.0570 C   0  0  0  0  0  0  0  0  0  0  0  0
   18.4606   -8.4296  -13.5190 C   0  0  2  0  0  0  0  0  0  0  0  0
   18.3469   -9.6750  -14.2539 N   0  0  0  0  0  0  0  0  0  0  0  0
   19.7780   -7.7746  -13.7457 C   0  0  0  0  0  0  0  0  0  0  0  0
   20.8033   -8.4497  -14.0416 O   0  0  0  0  0  0  0  0  0  0  0  0
   19.9102   -6.3708  -13.6346 N   0  0  0  0  0  0  0  0  0  0  0  0
   21.1131   -5.6147  -13.9024 C   0  0  1  0  0  0  0  0  0  0  0  0
   21.6810   -5.9106  -15.2546 C   0  0  0  0  0  0  0  0  0  0  0  0
   22.8620   -5.0799  -15.5369 C   0  0  0  0  0  0  0  0  0  0  0  0
   23.8228   -5.0678  -14.7212 O   0  0  0  0  0  0  0  0  0  0  0  0
   20.8782   -4.1442  -13.7100 C   0  0  0  0  0  0  0  0  0  0  0  0
   19.7144   -3.7022  -13.8786 O   0  0  0  0  0  0  0  0  0  0  0  0
   22.9831   -4.2914  -16.6783 O   0  0  0  0  0  0  0  0  0  0  0  0
   21.8876   -3.2629  -13.3578 O   0  0  0  0  0  0  0  0  0  0  0  0
  2  1  1  6
  2  4  1  0
  3  2  1  0
  4  5  1  1
  6 11  1  0
  6  4  1  0
  7  6  2  0
  9  8  1  0
 10  9  1  1
 10 11  1  0
 10 12  1  0
 12 13  2  0
 14 12  1  0
 14 15  1  0
 15 16  1  6
 17 16  1  0
 18 17  2  0
 19 15  1  0
 19 22  1  0
 20 19  2  0
 21 17  1  0
M  END
$$$$
