TSD.pdb
     RDKit          3D

 22 21  0  0  1  0  0  0  0  0999 V2000
   18.0718  -10.7142  -15.6074 C   0  0  0  0  0  0  0  0  0  0  0  0
   18.4152   -9.4619  -14.8550 C   0  0  1  0  0  0  0  0  0  0  0  0
   19.2950   -9.7879  -13.8006 O   0  0  0  0  0  0  0  0  0  0  0  0
   19.1561   -8.4359  -15.6838 C   0  0  2  0  0  0  0  0  0  0  0  0
   20.4687   -9.0607  -15.9559 N   0  0  0  0  0  0  0  0  0  0  0  0
   19.4483   -7.1925  -14.9367 C   0  0  0  0  0  0  0  0  0  0  0  0
   18.5051   -6.4540  -14.4656 O   0  0  0  0  0  0  0  0  0  0  0  0
   22.3377   -6.0484  -12.2385 O   0  0  0  0  0  0  0  0  0  0  0  0
   22.3484   -5.4031  -13.4531 C   0  0  0  0  0  0  0  0  0  0  0  0
   20.9761   -5.3710  -14.0920 C   0  0  2  0  0  0  0  0  0  0  0  0
   20.7444   -6.6862  -14.6584 N   0  0  0  0  0  0  0  0  0  0  0  0
   20.8774   -4.3020  -15.1231 C   0  0  0  0  0  0  0  0  0  0  0  0
   21.3186   -4.4773  -16.2933 O   0  0  0  0  0  0  0  0  0  0  0  0
   20.2816   -3.0575  -14.8120 N   0  0  0  0  0  0  0  0  0  0  0  0
   20.1130   -1.9523  -15.7287 C   0  0  1  0  0  0  0  0  0  0  0  0
   18.6971   -1.4721  -15.7856 C   0  0  0  0  0  0  0  0  0  0  0  0
   18.5425   -0.3607  -16.7370 C   0  0  0  0  0  0  0  0  0  0  0  0
   19.2280   -0.3479  -17.7946 O   0  0  0  0  0  0  0  0  0  0  0  0
   21.0639   -0.8359  -15.4061 C   0  0  0  0  0  0  0  0  0  0  0  0
   21.5412   -0.7799  -14.2454 O   0  0  0  0  0  0  0  0  0  0  0  0
   17.6625    0.6992  -16.5333 O   0  0  0  0  0  0  0  0  0  0  0  0
   21.4312    0.1278  -16.3313 O   0  0  0  0  0  0  0  0  0  0  0  0
  2  1  1  6
  2  4  1  0
  3  2  1  0
  4  5  1  1
  6 11  1  0
  6  4  1  0
  7  6  2  0
  9  8  1  0
 10  9  1  6
 10 11  1  0
 10 12  1  0
 12 13  2  0
 14 12  1  0
 14 15  1  0
 15 16  1  1
 17 16  1  0
 18 17  2  0
 19 15  1  0
 19 22  1  0
 20 19  2  0
 21 17  1  0
M  END
$$$$
