TSD.pdb
     RDKit          3D

 22 21  0  0  1  0  0  0  0  0999 V2000
   20.0781  -11.1487  -16.9050 C   0  0  0  0  0  0  0  0  0  0  0  0
   18.6160  -11.1451  -17.2438 C   0  0  1  0  0  0  0  0  0  0  0  0
   18.2899  -12.3635  -17.8774 O   0  0  0  0  0  0  0  0  0  0  0  0
   17.7097  -11.0745  -16.0346 C   0  0  2  0  0  0  0  0  0  0  0  0
   16.3423  -11.0969  -16.5977 N   0  0  0  0  0  0  0  0  0  0  0  0
   17.8235   -9.7938  -15.3022 C   0  0  0  0  0  0  0  0  0  0  0  0
   17.5799   -8.6675  -15.8758 O   0  0  0  0  0  0  0  0  0  0  0  0
   17.2233   -9.0375  -11.3687 O   0  0  0  0  0  0  0  0  0  0  0  0
   18.4483   -8.6031  -11.8187 C   0  0  0  0  0  0  0  0  0  0  0  0
   18.4554   -8.3732  -13.3152 C   0  0  2  0  0  0  0  0  0  0  0  0
   18.1956   -9.6564  -13.9397 N   0  0  0  0  0  0  0  0  0  0  0  0
   19.7458   -7.7890  -13.7730 C   0  0  0  0  0  0  0  0  0  0  0  0
   20.7363   -8.5224  -14.0481 O   0  0  0  0  0  0  0  0  0  0  0  0
   19.8907   -6.3889  -13.9117 N   0  0  0  0  0  0  0  0  0  0  0  0
   21.0736   -5.7082  -14.3887 C   0  0  1  0  0  0  0  0  0  0  0  0
   20.7930   -4.8496  -15.5814 C   0  0  0  0  0  0  0  0  0  0  0  0
   21.9941   -4.1184  -16.0140 C   0  0  0  0  0  0  0  0  0  0  0  0
   22.1350   -2.9082  -15.6913 O   0  0  0  0  0  0  0  0  0  0  0  0
   21.7265   -4.9269  -13.2851 C   0  0  0  0  0  0  0  0  0  0  0  0
   21.0062   -4.5195  -12.3400 O   0  0  0  0  0  0  0  0  0  0  0  0
   23.0066   -4.6991  -16.7736 O   0  0  0  0  0  0  0  0  0  0  0  0
   23.0817   -4.6392  -13.2698 O   0  0  0  0  0  0  0  0  0  0  0  0
  2  1  1  1
  2  4  1  0
  3  2  1  0
  4  5  1  6
  6 11  1  0
  6  4  1  0
  7  6  2  0
  9  8  1  0
 10  9  1  1
 10 11  1  0
 10 12  1  0
 12 13  2  0
 14 12  1  0
 14 15  1  0
 15 16  1  6
 17 16  1  0
 18 17  2  0
 19 15  1  0
 19 22  1  0
 20 19  2  0
 21 17  1  0
M  END
$$$$
