TSD.pdb
     RDKit          3D

 22 21  0  0  1  0  0  0  0  0999 V2000
   16.9877  -10.0727  -17.7434 C   0  0  0  0  0  0  0  0  0  0  0  0
   17.1693  -11.1884  -16.7562 C   0  0  1  0  0  0  0  0  0  0  0  0
   16.8837  -12.4149  -17.3937 O   0  0  0  0  0  0  0  0  0  0  0  0
   18.5873  -11.3289  -16.2481 C   0  0  2  0  0  0  0  0  0  0  0  0
   18.5379  -12.4917  -15.3355 N   0  0  0  0  0  0  0  0  0  0  0  0
   19.0190  -10.1826  -15.4180 C   0  0  0  0  0  0  0  0  0  0  0  0
   18.2569   -9.6884  -14.5059 O   0  0  0  0  0  0  0  0  0  0  0  0
   22.5832   -7.3223  -13.8120 O   0  0  0  0  0  0  0  0  0  0  0  0
   22.1204   -8.4181  -14.5024 C   0  0  0  0  0  0  0  0  0  0  0  0
   20.6219   -8.3663  -14.7127 C   0  0  2  0  0  0  0  0  0  0  0  0
   20.2695   -9.5195  -15.5190 N   0  0  0  0  0  0  0  0  0  0  0  0
   20.2039   -7.0928  -15.3604 C   0  0  0  0  0  0  0  0  0  0  0  0
   20.3329   -6.9170  -16.6042 O   0  0  0  0  0  0  0  0  0  0  0  0
   19.6480   -6.0446  -14.5905 N   0  0  0  0  0  0  0  0  0  0  0  0
   19.2312   -4.7567  -15.0983 C   0  0  1  0  0  0  0  0  0  0  0  0
   18.0455   -4.2135  -14.3653 C   0  0  0  0  0  0  0  0  0  0  0  0
   17.6249   -2.9128  -14.9091 C   0  0  0  0  0  0  0  0  0  0  0  0
   17.7731   -2.6756  -16.1381 O   0  0  0  0  0  0  0  0  0  0  0  0
   20.3748   -3.7836  -15.1001 C   0  0  0  0  0  0  0  0  0  0  0  0
   21.2767   -3.9263  -14.2374 O   0  0  0  0  0  0  0  0  0  0  0  0
   17.0586   -1.9082  -14.1284 O   0  0  0  0  0  0  0  0  0  0  0  0
   20.4721   -2.7419  -16.0085 O   0  0  0  0  0  0  0  0  0  0  0  0
  2  1  1  6
  2  4  1  0
  3  2  1  0
  4  5  1  1
  6 11  1  0
  6  4  1  0
  7  6  2  0
  9  8  1  0
 10  9  1  6
 10 11  1  0
 10 12  1  0
 12 13  2  0
 14 12  1  0
 14 15  1  0
 15 16  1  1
 17 16  1  0
 18 17  2  0
 19 15  1  0
 19 22  1  0
 20 19  2  0
 21 17  1  0
M  END
$$$$
