TSD.pdb
     RDKit          3D

 22 21  0  0  1  0  0  0  0  0999 V2000
   27.0493  -10.7110  -15.1243 C   0  0  0  0  0  0  0  0  0  0  0  0
   27.1097  -11.2144  -16.5369 C   0  0  1  0  0  0  0  0  0  0  0  0
   28.1535  -12.1587  -16.6422 O   0  0  0  0  0  0  0  0  0  0  0  0
   25.8642  -11.9529  -16.9752 C   0  0  2  0  0  0  0  0  0  0  0  0
   26.1515  -12.3663  -18.3658 N   0  0  0  0  0  0  0  0  0  0  0  0
   24.6724  -11.0792  -17.0521 C   0  0  0  0  0  0  0  0  0  0  0  0
   24.5454  -10.1958  -17.9797 O   0  0  0  0  0  0  0  0  0  0  0  0
   21.5853  -11.0703  -14.1810 O   0  0  0  0  0  0  0  0  0  0  0  0
   21.3083  -10.7775  -15.4960 C   0  0  0  0  0  0  0  0  0  0  0  0
   22.4903  -10.1436  -16.1985 C   0  0  2  0  0  0  0  0  0  0  0  0
   23.5727  -11.1083  -16.1557 N   0  0  0  0  0  0  0  0  0  0  0  0
   22.8767   -8.8537  -15.5639 C   0  0  0  0  0  0  0  0  0  0  0  0
   23.7814   -8.8010  -14.6845 O   0  0  0  0  0  0  0  0  0  0  0  0
   22.2342   -7.6498  -15.9361 N   0  0  0  0  0  0  0  0  0  0  0  0
   22.4983   -6.3453  -15.3715 C   0  0  1  0  0  0  0  0  0  0  0  0
   22.7258   -5.3062  -16.4236 C   0  0  0  0  0  0  0  0  0  0  0  0
   23.0607   -4.0023  -15.8302 C   0  0  0  0  0  0  0  0  0  0  0  0
   23.5070   -3.9516  -14.6526 O   0  0  0  0  0  0  0  0  0  0  0  0
   21.4097   -5.9407  -14.4197 C   0  0  0  0  0  0  0  0  0  0  0  0
   21.6271   -4.9757  -13.6453 O   0  0  0  0  0  0  0  0  0  0  0  0
   22.9118   -2.7958  -16.5096 O   0  0  0  0  0  0  0  0  0  0  0  0
   20.1851   -6.5862  -14.3622 O   0  0  0  0  0  0  0  0  0  0  0  0
  2  1  1  1
  2  4  1  0
  3  2  1  0
  4  5  1  6
  6 11  1  0
  6  4  1  0
  7  6  2  0
  9  8  1  0
 10  9  1  1
 10 11  1  0
 10 12  1  0
 12 13  2  0
 14 12  1  0
 14 15  1  0
 15 16  1  6
 17 16  1  0
 18 17  2  0
 19 15  1  0
 19 22  1  0
 20 19  2  0
 21 17  1  0
M  END
$$$$
