TSD.pdb
     RDKit          3D

 22 21  0  0  1  0  0  0  0  0999 V2000
   18.5738  -12.3968  -18.9990 C   0  0  0  0  0  0  0  0  0  0  0  0
   19.1974  -11.4580  -18.0079 C   0  0  1  0  0  0  0  0  0  0  0  0
   18.2064  -10.5758  -17.5266 O   0  0  0  0  0  0  0  0  0  0  0  0
   19.7445  -12.1459  -16.7766 C   0  0  2  0  0  0  0  0  0  0  0  0
   18.5652  -12.7928  -16.1617 N   0  0  0  0  0  0  0  0  0  0  0  0
   20.2569  -11.1958  -15.7645 C   0  0  0  0  0  0  0  0  0  0  0  0
   19.4787  -10.6614  -14.8894 O   0  0  0  0  0  0  0  0  0  0  0  0
   24.2838  -10.0299  -15.4906 O   0  0  0  0  0  0  0  0  0  0  0  0
   23.4920  -10.0692  -14.3668 C   0  0  0  0  0  0  0  0  0  0  0  0
   22.0406   -9.7763  -14.6834 C   0  0  2  0  0  0  0  0  0  0  0  0
   21.6073  -10.7783  -15.6385 N   0  0  0  0  0  0  0  0  0  0  0  0
   21.8639   -8.3967  -15.2140 C   0  0  0  0  0  0  0  0  0  0  0  0
   21.5557   -8.1935  -16.4216 O   0  0  0  0  0  0  0  0  0  0  0  0
   22.0377   -7.2752  -14.3698 N   0  0  0  0  0  0  0  0  0  0  0  0
   21.9135   -5.8920  -14.7715 C   0  0  1  0  0  0  0  0  0  0  0  0
   20.5564   -5.5787  -15.3181 C   0  0  0  0  0  0  0  0  0  0  0  0
   20.4138   -4.1455  -15.6184 C   0  0  0  0  0  0  0  0  0  0  0  0
   20.8590   -3.6912  -16.7065 O   0  0  0  0  0  0  0  0  0  0  0  0
   22.2837   -4.9696  -13.6459 C   0  0  0  0  0  0  0  0  0  0  0  0
   22.3531   -3.7385  -13.8861 O   0  0  0  0  0  0  0  0  0  0  0  0
   19.8006   -3.2435  -14.7527 O   0  0  0  0  0  0  0  0  0  0  0  0
   22.5509   -5.4205  -12.3634 O   0  0  0  0  0  0  0  0  0  0  0  0
  2  1  1  6
  2  4  1  0
  3  2  1  0
  4  5  1  1
  6 11  1  0
  6  4  1  0
  7  6  2  0
  9  8  1  0
 10  9  1  6
 10 11  1  0
 10 12  1  0
 12 13  2  0
 14 12  1  0
 14 15  1  0
 15 16  1  1
 17 16  1  0
 18 17  2  0
 19 15  1  0
 19 22  1  0
 20 19  2  0
 21 17  1  0
M  END
$$$$
