TSD.pdb
     RDKit          3D

 22 21  0  0  1  0  0  0  0  0999 V2000
   17.9869  -10.3925  -18.4260 C   0  0  0  0  0  0  0  0  0  0  0  0
   18.1700  -11.7535  -17.8207 C   0  0  1  0  0  0  0  0  0  0  0  0
   17.6675  -12.7235  -18.7145 O   0  0  0  0  0  0  0  0  0  0  0  0
   19.6176  -12.1332  -17.5996 C   0  0  2  0  0  0  0  0  0  0  0  0
   19.5576  -13.4963  -17.0287 N   0  0  0  0  0  0  0  0  0  0  0  0
   20.2840  -11.2966  -16.5771 C   0  0  0  0  0  0  0  0  0  0  0  0
   19.7526  -11.0963  -15.4220 O   0  0  0  0  0  0  0  0  0  0  0  0
   24.2319   -9.1476  -14.8434 O   0  0  0  0  0  0  0  0  0  0  0  0
   23.5893   -9.9690  -15.7401 C   0  0  0  0  0  0  0  0  0  0  0  0
   22.0916   -9.7472  -15.7420 C   0  0  2  0  0  0  0  0  0  0  0  0
   21.5341  -10.6443  -16.7363 N   0  0  0  0  0  0  0  0  0  0  0  0
   21.7491   -8.3270  -16.0277 C   0  0  0  0  0  0  0  0  0  0  0  0
   21.6662   -7.8984  -17.2127 O   0  0  0  0  0  0  0  0  0  0  0  0
   21.5063   -7.4203  -14.9697 N   0  0  0  0  0  0  0  0  0  0  0  0
   21.2977   -5.9968  -15.1121 C   0  0  1  0  0  0  0  0  0  0  0  0
   19.8522   -5.6222  -15.0196 C   0  0  0  0  0  0  0  0  0  0  0  0
   19.6556   -4.1779  -15.2192 C   0  0  0  0  0  0  0  0  0  0  0  0
   19.5712   -3.4178  -14.2174 O   0  0  0  0  0  0  0  0  0  0  0  0
   22.1327   -5.2296  -14.1277 C   0  0  0  0  0  0  0  0  0  0  0  0
   22.4331   -5.7872  -13.0428 O   0  0  0  0  0  0  0  0  0  0  0  0
   19.5575   -3.5895  -16.4776 O   0  0  0  0  0  0  0  0  0  0  0  0
   22.5800   -3.9404  -14.3673 O   0  0  0  0  0  0  0  0  0  0  0  0
  2  1  1  6
  2  4  1  0
  3  2  1  0
  4  5  1  1
  6 11  1  0
  6  4  1  0
  7  6  2  0
  9  8  1  0
 10  9  1  6
 10 11  1  0
 10 12  1  0
 12 13  2  0
 14 12  1  0
 14 15  1  0
 15 16  1  1
 17 16  1  0
 18 17  2  0
 19 15  1  0
 19 22  1  0
 20 19  2  0
 21 17  1  0
M  END
$$$$
