TSD.pdb
     RDKit          3D

 22 21  0  0  1  0  0  0  0  0999 V2000
   26.3054  -10.5778  -15.0031 C   0  0  0  0  0  0  0  0  0  0  0  0
   26.3477  -11.3043  -16.3157 C   0  0  1  0  0  0  0  0  0  0  0  0
   27.4058  -12.2380  -16.2883 O   0  0  0  0  0  0  0  0  0  0  0  0
   25.1074  -12.1221  -16.6006 C   0  0  2  0  0  0  0  0  0  0  0  0
   25.3719  -12.7465  -17.9150 N   0  0  0  0  0  0  0  0  0  0  0  0
   23.8975  -11.2904  -16.7853 C   0  0  0  0  0  0  0  0  0  0  0  0
   23.7719  -10.5015  -17.7946 O   0  0  0  0  0  0  0  0  0  0  0  0
   20.2830  -12.2232  -16.6690 O   0  0  0  0  0  0  0  0  0  0  0  0
   20.4009  -11.1458  -15.8222 C   0  0  0  0  0  0  0  0  0  0  0  0
   21.6628  -10.3515  -16.0853 C   0  0  2  0  0  0  0  0  0  0  0  0
   22.7779  -11.2632  -15.9138 N   0  0  0  0  0  0  0  0  0  0  0  0
   21.7683   -9.1757  -15.1785 C   0  0  0  0  0  0  0  0  0  0  0  0
   22.2062   -9.2940  -14.0000 O   0  0  0  0  0  0  0  0  0  0  0  0
   21.3780   -7.8904  -15.6215 N   0  0  0  0  0  0  0  0  0  0  0  0
   21.3413   -6.6951  -14.8089 C   0  0  1  0  0  0  0  0  0  0  0  0
   22.4630   -5.7573  -15.1266 C   0  0  0  0  0  0  0  0  0  0  0  0
   22.3937   -4.5370  -14.3080 C   0  0  0  0  0  0  0  0  0  0  0  0
   22.1543   -3.4301  -14.8612 O   0  0  0  0  0  0  0  0  0  0  0  0
   20.0059   -6.0160  -14.9109 C   0  0  0  0  0  0  0  0  0  0  0  0
   19.7277   -5.1249  -14.0703 O   0  0  0  0  0  0  0  0  0  0  0  0
   22.5792   -4.5344  -12.9278 O   0  0  0  0  0  0  0  0  0  0  0  0
   19.0758   -6.3328  -15.8877 O   0  0  0  0  0  0  0  0  0  0  0  0
  2  1  1  1
  2  4  1  0
  3  2  1  0
  4  5  1  6
  6 11  1  0
  6  4  1  0
  7  6  2  0
  9  8  1  0
 10  9  1  1
 10 11  1  0
 10 12  1  0
 12 13  2  0
 14 12  1  0
 14 15  1  0
 15 16  1  6
 17 16  1  0
 18 17  2  0
 19 15  1  0
 19 22  1  0
 20 19  2  0
 21 17  1  0
M  END
$$$$
