RSD.pdb
     RDKit          3D

 26 25  0  0  1  0  0  0  0  0999 V2000
    7.7289  -12.6972   15.0381 N   0  0  0  0  0  0  0  0  0  0  0  0
    7.9081  -14.1149   15.0597 C   0  0  0  0  0  0  0  0  0  0  0  0
    7.1318  -14.8377   14.3347 N   0  0  0  0  0  0  0  0  0  0  0  0
    8.9020  -14.7462   15.8425 N   0  0  0  0  0  0  0  0  0  0  0  0
    9.1101  -14.3290   17.1983 C   0  0  0  0  0  0  0  0  0  0  0  0
    7.7346  -14.2436   17.8654 C   0  0  0  0  0  0  0  0  0  0  0  0
    7.8783  -13.8399   19.3164 C   0  0  0  0  0  0  0  0  0  0  0  0
    8.6029  -14.9731   20.0474 C   0  0  2  0  0  0  0  0  0  0  0  0
    7.7480  -16.1346   19.8910 N   0  0  0  0  0  0  0  0  0  0  0  0
    8.8082  -14.6299   21.4721 C   0  0  0  0  0  0  0  0  0  0  0  0
    9.3933  -13.5691   21.7755 O   0  0  0  0  0  0  0  0  0  0  0  0
    7.2214  -15.8696   14.2237 O   0  0  0  0  0  0  0  0  0  0  0  0
    7.6556  -14.6107   25.9401 C   0  0  0  0  0  0  0  0  0  0  0  0
    7.3996  -14.8766   24.6039 C   0  0  2  0  0  0  0  0  0  0  0  0
    8.6612  -15.3652   23.8762 N   0  0  0  0  0  0  0  0  0  0  0  0
    8.3501  -15.4865   22.4869 C   0  0  0  0  0  0  0  0  0  0  0  0
    9.0684  -16.6071   24.5211 O   0  0  0  0  0  0  0  0  0  0  0  0
    8.3949  -17.6508   24.3693 N   0  0  0  0  0  0  0  0  0  0  0  0
   10.2289  -16.6629   25.3317 C   0  0  1  0  0  0  0  0  0  0  0  0
   10.7389  -17.8911   25.9104 C   0  0  0  0  0  0  0  0  0  0  0  0
   12.0785  -18.2910   25.3479 C   0  0  0  0  0  0  0  0  0  0  0  0
   12.5577  -19.5426   25.9458 O   0  0  0  0  0  0  0  0  0  0  0  0
   11.8309  -20.5627   26.1505 C   0  0  0  0  0  0  0  0  0  0  0  0
   10.8532  -17.7246   27.3897 O   0  0  0  0  0  0  0  0  0  0  0  0
   11.1891  -18.8048   28.1809 O   0  0  0  0  0  0  0  0  0  0  0  0
   13.9055  -19.6156   26.3145 O   0  0  0  0  0  0  0  0  0  0  0  0
  1  2  1  0
  2  3  2  0
  4  5  1  0
  4  2  1  0
  6  5  1  0
  7  6  1  0
  7  8  1  0
  8 10  1  0
  8  9  1  1
 10 11  2  0
 13 12  1  0
 14 13  1  6
 15 14  1  0
 15 10  1  0
 16 17  2  0
 16 14  1  0
 18 16  1  0
 19 20  1  1
 19 18  1  0
 20 21  1  0
 21 25  1  0
 21 22  2  0
 23 19  1  0
 24 23  1  0
 26 23  2  0
M  END
$$$$
