RSD.pdb
     RDKit          3D

 26 25  0  0  1  0  0  0  0  0999 V2000
    8.0239  -12.7263   11.4116 N   0  0  0  0  0  0  0  0  0  0  0  0
    9.1050  -13.3181   12.1352 C   0  0  0  0  0  0  0  0  0  0  0  0
   10.3030  -13.1021   11.7242 N   0  0  0  0  0  0  0  0  0  0  0  0
    8.9059  -14.1249   13.2791 N   0  0  0  0  0  0  0  0  0  0  0  0
    7.5733  -14.4062   13.7272 C   0  0  0  0  0  0  0  0  0  0  0  0
    7.6851  -15.3554   14.9233 C   0  0  0  0  0  0  0  0  0  0  0  0
    7.9838  -14.5771   16.1858 C   0  0  0  0  0  0  0  0  0  0  0  0
    8.1320  -15.5824   17.3307 C   0  0  2  0  0  0  0  0  0  0  0  0
    6.8192  -16.1798   17.4848 N   0  0  0  0  0  0  0  0  0  0  0  0
    8.5756  -14.9040   18.5687 C   0  0  0  0  0  0  0  0  0  0  0  0
    8.1538  -13.7586   18.8326 O   0  0  0  0  0  0  0  0  0  0  0  0
   11.1560  -13.5242   12.1477 O   0  0  0  0  0  0  0  0  0  0  0  0
    8.1791  -15.8303   22.0888 C   0  0  0  0  0  0  0  0  0  0  0  0
    8.7373  -14.6736   21.5670 C   0  0  1  0  0  0  0  0  0  0  0  0
    9.9500  -14.9864   20.6774 N   0  0  0  0  0  0  0  0  0  0  0  0
    9.4670  -15.5374   19.4507 C   0  0  0  0  0  0  0  0  0  0  0  0
   10.8203  -15.8702   21.4426 O   0  0  0  0  0  0  0  0  0  0  0  0
   10.6247  -17.1063   21.4449 N   0  0  0  0  0  0  0  0  0  0  0  0
   11.9017  -15.3552   22.1990 C   0  0  1  0  0  0  0  0  0  0  0  0
   12.8906  -16.1934   22.8492 C   0  0  0  0  0  0  0  0  0  0  0  0
   14.0519  -15.4077   23.4013 C   0  0  0  0  0  0  0  0  0  0  0  0
   15.3215  -16.1149   23.1974 O   0  0  0  0  0  0  0  0  0  0  0  0
   15.4823  -17.3620   23.3699 C   0  0  0  0  0  0  0  0  0  0  0  0
   12.2368  -16.9533   23.9557 O   0  0  0  0  0  0  0  0  0  0  0  0
   12.7826  -18.1446   24.3901 O   0  0  0  0  0  0  0  0  0  0  0  0
   16.4280  -15.3640   22.7854 O   0  0  0  0  0  0  0  0  0  0  0  0
  1  2  1  0
  2  3  2  0
  4  5  1  0
  4  2  1  0
  6  5  1  0
  7  6  1  0
  7  8  1  0
  8 10  1  0
  8  9  1  1
 10 11  2  0
 13 12  1  0
 14 13  1  6
 15 14  1  0
 15 10  1  0
 16 17  2  0
 16 14  1  0
 18 16  1  0
 19 20  1  1
 19 18  1  0
 20 21  1  0
 21 25  1  0
 21 22  2  0
 23 19  1  0
 24 23  1  0
 26 23  2  0
M  END
$$$$
