RSD.pdb
     RDKit          3D

 26 25  0  0  1  0  0  0  0  0999 V2000
    7.9241  -15.3133   14.6344 N   0  0  0  0  0  0  0  0  0  0  0  0
    8.7930  -16.4340   14.8127 C   0  0  0  0  0  0  0  0  0  0  0  0
    9.3556  -16.9393   13.7741 N   0  0  0  0  0  0  0  0  0  0  0  0
    9.0553  -17.0015   16.0809 N   0  0  0  0  0  0  0  0  0  0  0  0
    9.3358  -16.1469   17.1975 C   0  0  0  0  0  0  0  0  0  0  0  0
    8.3977  -14.9411   17.0960 C   0  0  0  0  0  0  0  0  0  0  0  0
    7.3805  -14.9709   18.2154 C   0  0  0  0  0  0  0  0  0  0  0  0
    7.5392  -13.6818   19.0258 C   0  0  2  0  0  0  0  0  0  0  0  0
    8.0625  -12.7056   18.0891 N   0  0  0  0  0  0  0  0  0  0  0  0
    8.4545  -13.8918   20.1693 C   0  0  0  0  0  0  0  0  0  0  0  0
    9.6889  -13.8131   19.9972 O   0  0  0  0  0  0  0  0  0  0  0  0
   10.0628  -17.7037   13.8005 O   0  0  0  0  0  0  0  0  0  0  0  0
    6.8762  -15.7218   23.5520 C   0  0  0  0  0  0  0  0  0  0  0  0
    7.7775  -14.6946   23.7848 C   0  0  1  0  0  0  0  0  0  0  0  0
    8.7321  -14.5042   22.5964 N   0  0  0  0  0  0  0  0  0  0  0  0
    7.9472  -14.1783   21.4477 C   0  0  0  0  0  0  0  0  0  0  0  0
    9.5094  -15.7311   22.4763 O   0  0  0  0  0  0  0  0  0  0  0  0
    9.6331  -16.2973   21.3671 N   0  0  0  0  0  0  0  0  0  0  0  0
   10.1395  -16.3101   23.6052 C   0  0  1  0  0  0  0  0  0  0  0  0
   11.4098  -17.0070   23.5394 C   0  0  0  0  0  0  0  0  0  0  0  0
   12.5369  -16.1256   23.0666 C   0  0  0  0  0  0  0  0  0  0  0  0
   13.8126  -16.8508   23.0511 O   0  0  0  0  0  0  0  0  0  0  0  0
   14.4356  -17.1815   21.9959 C   0  0  0  0  0  0  0  0  0  0  0  0
   11.7402  -17.5510   24.8899 O   0  0  0  0  0  0  0  0  0  0  0  0
   12.1715  -18.8559   25.0206 O   0  0  0  0  0  0  0  0  0  0  0  0
   14.3794  -17.2007   24.2816 O   0  0  0  0  0  0  0  0  0  0  0  0
  1  2  1  0
  2  3  2  0
  4  5  1  0
  4  2  1  0
  6  5  1  0
  7  6  1  0
  7  8  1  0
  8 10  1  0
  8  9  1  6
 10 11  2  0
 13 12  1  0
 14 13  1  1
 15 14  1  0
 15 10  1  0
 16 17  2  0
 16 14  1  0
 18 16  1  0
 19 20  1  1
 19 18  1  0
 20 21  1  0
 21 25  1  0
 21 22  2  0
 23 19  1  0
 24 23  1  0
 26 23  2  0
M  END
$$$$
