RSD.pdb
     RDKit          3D

 26 25  0  0  1  0  0  0  0  0999 V2000
    8.8698  -12.9571   21.2801 N   0  0  0  0  0  0  0  0  0  0  0  0
    8.3377  -12.3073   20.1237 C   0  0  0  0  0  0  0  0  0  0  0  0
    7.5410  -11.3142   20.2961 N   0  0  0  0  0  0  0  0  0  0  0  0
    8.6550  -12.7132   18.8070 N   0  0  0  0  0  0  0  0  0  0  0  0
    7.7206  -13.5068   18.0634 C   0  0  0  0  0  0  0  0  0  0  0  0
    8.4404  -14.7946   17.6541 C   0  0  0  0  0  0  0  0  0  0  0  0
    8.5638  -15.7271   18.8390 C   0  0  0  0  0  0  0  0  0  0  0  0
    9.3644  -16.9518   18.3888 C   0  0  2  0  0  0  0  0  0  0  0  0
    8.4311  -17.7559   17.6228 N   0  0  0  0  0  0  0  0  0  0  0  0
    9.8946  -17.6890   19.5571 C   0  0  0  0  0  0  0  0  0  0  0  0
    9.2685  -18.6721   20.0054 O   0  0  0  0  0  0  0  0  0  0  0  0
    7.0903  -10.7797   19.5238 O   0  0  0  0  0  0  0  0  0  0  0  0
   12.8825  -19.3147   19.5920 C   0  0  0  0  0  0  0  0  0  0  0  0
   12.1337  -19.3747   20.7571 C   0  0  1  0  0  0  0  0  0  0  0  0
   11.7412  -17.9723   21.2460 N   0  0  0  0  0  0  0  0  0  0  0  0
   11.0969  -17.2931   20.1665 C   0  0  0  0  0  0  0  0  0  0  0  0
   12.9600  -17.3348   21.7276 O   0  0  0  0  0  0  0  0  0  0  0  0
   13.9107  -17.1117   20.9449 N   0  0  0  0  0  0  0  0  0  0  0  0
   13.0984  -16.9551   23.0854 C   0  0  2  0  0  0  0  0  0  0  0  0
   14.3757  -16.8914   23.7692 C   0  0  0  0  0  0  0  0  0  0  0  0
   14.6850  -18.1431   24.5493 C   0  0  0  0  0  0  0  0  0  0  0  0
   13.8748  -18.2266   25.7700 O   0  0  0  0  0  0  0  0  0  0  0  0
   13.0181  -17.3586   26.1217 C   0  0  0  0  0  0  0  0  0  0  0  0
   15.4563  -16.6535   22.7668 O   0  0  0  0  0  0  0  0  0  0  0  0
   16.2214  -15.5066   22.8372 O   0  0  0  0  0  0  0  0  0  0  0  0
   14.0594  -19.3369   26.6012 O   0  0  0  0  0  0  0  0  0  0  0  0
  1  2  1  0
  2  3  2  0
  4  5  1  0
  4  2  1  0
  6  5  1  0
  7  6  1  0
  7  8  1  0
  8 10  1  0
  8  9  1  1
 10 11  2  0
 13 12  1  0
 14 13  1  1
 15 14  1  0
 15 10  1  0
 16 17  2  0
 16 14  1  0
 18 16  1  0
 19 20  1  6
 19 18  1  0
 20 21  1  0
 21 25  1  0
 21 22  2  0
 23 19  1  0
 24 23  1  0
 26 23  2  0
M  END
$$$$
