RSD.pdb
     RDKit          3D

 26 25  0  0  1  0  0  0  0  0999 V2000
    8.5200  -13.1668   12.7761 N   0  0  0  0  0  0  0  0  0  0  0  0
    8.2646  -13.9748   13.9271 C   0  0  0  0  0  0  0  0  0  0  0  0
    9.0879  -14.9224   14.2005 N   0  0  0  0  0  0  0  0  0  0  0  0
    7.1483  -13.7697   14.7703 N   0  0  0  0  0  0  0  0  0  0  0  0
    7.3301  -13.1564   16.0535 C   0  0  0  0  0  0  0  0  0  0  0  0
    8.4220  -13.9426   16.7840 C   0  0  0  0  0  0  0  0  0  0  0  0
    8.5968  -13.4156   18.1914 C   0  0  0  0  0  0  0  0  0  0  0  0
    7.7862  -14.3126   19.1305 C   0  0  2  0  0  0  0  0  0  0  0  0
    6.4090  -13.8872   18.9683 N   0  0  0  0  0  0  0  0  0  0  0  0
    8.2476  -14.1594   20.5282 C   0  0  0  0  0  0  0  0  0  0  0  0
    8.1058  -13.0640   21.1107 O   0  0  0  0  0  0  0  0  0  0  0  0
    9.0041  -15.5565   15.0228 O   0  0  0  0  0  0  0  0  0  0  0  0
    7.2970  -15.9975   23.5649 C   0  0  0  0  0  0  0  0  0  0  0  0
    8.1535  -14.9107   23.4811 C   0  0  1  0  0  0  0  0  0  0  0  0
    9.3379  -15.1990   22.5463 N   0  0  0  0  0  0  0  0  0  0  0  0
    8.8434  -15.2360   21.2062 C   0  0  0  0  0  0  0  0  0  0  0  0
    9.9484  -16.4400   23.0060 O   0  0  0  0  0  0  0  0  0  0  0  0
   10.1280  -17.3904   22.2118 N   0  0  0  0  0  0  0  0  0  0  0  0
   10.3503  -16.6006   24.3549 C   0  0  1  0  0  0  0  0  0  0  0  0
   11.5274  -17.3487   24.7525 C   0  0  0  0  0  0  0  0  0  0  0  0
   12.7915  -16.8336   24.1141 C   0  0  0  0  0  0  0  0  0  0  0  0
   13.9582  -17.6237   24.5240 O   0  0  0  0  0  0  0  0  0  0  0  0
   13.9180  -18.5819   25.3554 C   0  0  0  0  0  0  0  0  0  0  0  0
   11.6648  -17.2919   26.2381 O   0  0  0  0  0  0  0  0  0  0  0  0
   12.1147  -18.3976   26.9314 O   0  0  0  0  0  0  0  0  0  0  0  0
   15.1971  -17.2985   23.9608 O   0  0  0  0  0  0  0  0  0  0  0  0
  1  2  1  0
  2  3  2  0
  4  5  1  0
  4  2  1  0
  6  5  1  0
  7  6  1  0
  7  8  1  0
  8 10  1  0
  8  9  1  1
 10 11  2  0
 13 12  1  0
 14 13  1  6
 15 14  1  0
 15 10  1  0
 16 17  2  0
 16 14  1  0
 18 16  1  0
 19 20  1  1
 19 18  1  0
 20 21  1  0
 21 25  1  0
 21 22  2  0
 23 19  1  0
 24 23  1  0
 26 23  2  0
M  END
$$$$
