RSD.pdb
     RDKit          3D

 26 25  0  0  1  0  0  0  0  0999 V2000
    7.4553  -12.8951   16.4748 N   0  0  0  0  0  0  0  0  0  0  0  0
    8.4532  -13.8415   16.8635 C   0  0  0  0  0  0  0  0  0  0  0  0
    9.1193  -14.4375   15.9405 N   0  0  0  0  0  0  0  0  0  0  0  0
    8.7333  -14.1423   18.2163 N   0  0  0  0  0  0  0  0  0  0  0  0
    8.4038  -13.1923   19.2385 C   0  0  0  0  0  0  0  0  0  0  0  0
    7.1177  -13.6764   19.9135 C   0  0  0  0  0  0  0  0  0  0  0  0
    7.3500  -15.0078   20.5934 C   0  0  0  0  0  0  0  0  0  0  0  0
    8.1214  -14.7429   21.8889 C   0  0  2  0  0  0  0  0  0  0  0  0
    9.3563  -14.1057   21.4729 N   0  0  0  0  0  0  0  0  0  0  0  0
    8.3731  -16.0069   22.6160 C   0  0  0  0  0  0  0  0  0  0  0  0
    7.4102  -16.6811   23.0378 O   0  0  0  0  0  0  0  0  0  0  0  0
    9.9248  -15.0750   16.1135 O   0  0  0  0  0  0  0  0  0  0  0  0
   12.3779  -17.0154   23.5198 C   0  0  0  0  0  0  0  0  0  0  0  0
   11.4902  -18.0088   23.1367 C   0  0  1  0  0  0  0  0  0  0  0  0
   10.0471  -17.6538   23.5257 N   0  0  0  0  0  0  0  0  0  0  0  0
    9.6860  -16.4560   22.8355 C   0  0  0  0  0  0  0  0  0  0  0  0
   10.0121  -17.5548   24.9793 O   0  0  0  0  0  0  0  0  0  0  0  0
   10.2621  -16.4679   25.5470 N   0  0  0  0  0  0  0  0  0  0  0  0
    9.6972  -18.6797   25.7808 C   0  0  1  0  0  0  0  0  0  0  0  0
    9.7262  -18.6589   27.2307 C   0  0  0  0  0  0  0  0  0  0  0  0
    8.9506  -19.7940   27.8478 C   0  0  0  0  0  0  0  0  0  0  0  0
    7.5315  -19.7355   27.4785 O   0  0  0  0  0  0  0  0  0  0  0  0
    7.0057  -18.7994   26.8017 C   0  0  0  0  0  0  0  0  0  0  0  0
   11.1445  -18.7199   27.6928 O   0  0  0  0  0  0  0  0  0  0  0  0
   12.1655  -18.8344   26.7708 O   0  0  0  0  0  0  0  0  0  0  0  0
    6.7036  -20.7814   27.9009 O   0  0  0  0  0  0  0  0  0  0  0  0
  1  2  1  0
  2  3  2  0
  4  5  1  0
  4  2  1  0
  6  5  1  0
  7  6  1  0
  7  8  1  0
  8 10  1  0
  8  9  1  6
 10 11  2  0
 13 12  1  0
 14 13  1  6
 15 14  1  0
 15 10  1  0
 16 17  2  0
 16 14  1  0
 18 16  1  0
 19 20  1  1
 19 18  1  0
 20 21  1  0
 21 25  1  0
 21 22  2  0
 23 19  1  0
 24 23  1  0
 26 23  2  0
M  END
$$$$
