RSD.pdb
     RDKit          3D

 26 25  0  0  1  0  0  0  0  0999 V2000
    7.9989  -12.0310   20.2169 N   0  0  0  0  0  0  0  0  0  0  0  0
    7.6548  -12.9240   19.1554 C   0  0  0  0  0  0  0  0  0  0  0  0
    8.0501  -12.6377   17.9669 N   0  0  0  0  0  0  0  0  0  0  0  0
    6.9024  -14.1028   19.3641 N   0  0  0  0  0  0  0  0  0  0  0  0
    7.3164  -15.0421   20.3651 C   0  0  0  0  0  0  0  0  0  0  0  0
    7.3871  -16.4182   19.6977 C   0  0  0  0  0  0  0  0  0  0  0  0
    8.2671  -17.3485   20.5034 C   0  0  0  0  0  0  0  0  0  0  0  0
    9.6670  -16.7321   20.5642 C   0  0  2  0  0  0  0  0  0  0  0  0
   10.4901  -17.5728   19.7158 N   0  0  0  0  0  0  0  0  0  0  0  0
   10.1655  -16.7016   21.9571 C   0  0  0  0  0  0  0  0  0  0  0  0
   11.2407  -17.2690   22.2427 O   0  0  0  0  0  0  0  0  0  0  0  0
    7.8311  -13.2046   17.1208 O   0  0  0  0  0  0  0  0  0  0  0  0
    7.5455  -16.0739   25.0838 C   0  0  0  0  0  0  0  0  0  0  0  0
    8.6790  -15.2762   25.1052 C   0  0  1  0  0  0  0  0  0  0  0  0
    9.8364  -15.9231   24.3294 N   0  0  0  0  0  0  0  0  0  0  0  0
    9.4402  -16.0393   22.9615 C   0  0  0  0  0  0  0  0  0  0  0  0
   10.1334  -17.1886   24.9884 O   0  0  0  0  0  0  0  0  0  0  0  0
    9.5128  -18.2285   24.6731 N   0  0  0  0  0  0  0  0  0  0  0  0
   11.1250  -17.2721   25.9966 C   0  0  1  0  0  0  0  0  0  0  0  0
   11.4493  -18.5005   26.6961 C   0  0  0  0  0  0  0  0  0  0  0  0
   12.9314  -18.7667   26.7549 C   0  0  0  0  0  0  0  0  0  0  0  0
   13.2206  -20.0350   27.4341 O   0  0  0  0  0  0  0  0  0  0  0  0
   12.5399  -21.0964   27.2892 C   0  0  0  0  0  0  0  0  0  0  0  0
   10.9035  -18.4322   28.0841 O   0  0  0  0  0  0  0  0  0  0  0  0
   10.9012  -19.5601   28.8800 O   0  0  0  0  0  0  0  0  0  0  0  0
   14.3199  -20.0764   28.2988 O   0  0  0  0  0  0  0  0  0  0  0  0
  1  2  1  0
  2  3  2  0
  4  5  1  0
  4  2  1  0
  6  5  1  0
  7  6  1  0
  7  8  1  0
  8 10  1  0
  8  9  1  6
 10 11  2  0
 13 12  1  0
 14 13  1  6
 15 14  1  0
 15 10  1  0
 16 17  2  0
 16 14  1  0
 18 16  1  0
 19 20  1  1
 19 18  1  0
 20 21  1  0
 21 25  1  0
 21 22  2  0
 23 19  1  0
 24 23  1  0
 26 23  2  0
M  END
$$$$
