RSD.pdb
     RDKit          3D

 26 25  0  0  1  0  0  0  0  0999 V2000
    7.7035  -13.8690   15.9096 N   0  0  0  0  0  0  0  0  0  0  0  0
    7.1982  -13.9679   17.2428 C   0  0  0  0  0  0  0  0  0  0  0  0
    7.0228  -12.8836   17.9093 N   0  0  0  0  0  0  0  0  0  0  0  0
    6.8851  -15.2060   17.8498 N   0  0  0  0  0  0  0  0  0  0  0  0
    7.5776  -16.3930   17.4412 C   0  0  0  0  0  0  0  0  0  0  0  0
    9.0736  -16.1434   17.6511 C   0  0  0  0  0  0  0  0  0  0  0  0
    9.4498  -16.3894   19.0956 C   0  0  0  0  0  0  0  0  0  0  0  0
   10.2087  -15.1581   19.5973 C   0  0  2  0  0  0  0  0  0  0  0  0
   11.4071  -15.0918   18.7826 N   0  0  0  0  0  0  0  0  0  0  0  0
   10.5289  -15.2908   21.0359 C   0  0  0  0  0  0  0  0  0  0  0  0
   11.6382  -15.7465   21.3840 O   0  0  0  0  0  0  0  0  0  0  0  0
    6.6804  -12.8454   18.8924 O   0  0  0  0  0  0  0  0  0  0  0  0
    7.4008  -15.3316   23.8068 C   0  0  0  0  0  0  0  0  0  0  0  0
    8.4958  -14.5389   24.1141 C   0  0  1  0  0  0  0  0  0  0  0  0
    9.7704  -15.0493   23.4252 N   0  0  0  0  0  0  0  0  0  0  0  0
    9.5960  -14.9080   22.0140 C   0  0  0  0  0  0  0  0  0  0  0  0
    9.9792  -16.4180   23.8802 O   0  0  0  0  0  0  0  0  0  0  0  0
    9.5053  -17.3799   23.2350 N   0  0  0  0  0  0  0  0  0  0  0  0
   10.7182  -16.6917   25.0574 C   0  0  1  0  0  0  0  0  0  0  0  0
   11.0530  -18.0334   25.4947 C   0  0  0  0  0  0  0  0  0  0  0  0
   12.5296  -18.2209   25.7298 C   0  0  0  0  0  0  0  0  0  0  0  0
   12.8295  -19.5815   26.1909 O   0  0  0  0  0  0  0  0  0  0  0  0
   12.6935  -20.6245   25.4806 C   0  0  0  0  0  0  0  0  0  0  0  0
   10.3091  -18.3381   26.7528 O   0  0  0  0  0  0  0  0  0  0  0  0
   10.2631  -19.6327   27.2300 O   0  0  0  0  0  0  0  0  0  0  0  0
   13.2961  -19.7387   27.5006 O   0  0  0  0  0  0  0  0  0  0  0  0
  1  2  1  0
  2  3  2  0
  4  5  1  0
  4  2  1  0
  6  5  1  0
  7  6  1  0
  7  8  1  0
  8 10  1  0
  8  9  1  6
 10 11  2  0
 13 12  1  0
 14 13  1  1
 15 14  1  0
 15 10  1  0
 16 17  2  0
 16 14  1  0
 18 16  1  0
 19 20  1  1
 19 18  1  0
 20 21  1  0
 21 25  1  0
 21 22  2  0
 23 19  1  0
 24 23  1  0
 26 23  2  0
M  END
$$$$
