RSD.pdb
     RDKit          3D

 26 25  0  0  1  0  0  0  0  0999 V2000
    9.6543  -13.9836   12.9018 N   0  0  0  0  0  0  0  0  0  0  0  0
    8.2701  -13.7011   13.1185 C   0  0  0  0  0  0  0  0  0  0  0  0
    7.8137  -12.5631   12.7346 N   0  0  0  0  0  0  0  0  0  0  0  0
    7.3910  -14.6220   13.7336 N   0  0  0  0  0  0  0  0  0  0  0  0
    7.2159  -14.5956   15.1564 C   0  0  0  0  0  0  0  0  0  0  0  0
    8.3925  -13.8134   15.7462 C   0  0  0  0  0  0  0  0  0  0  0  0
    8.2034  -13.6230   17.2351 C   0  0  0  0  0  0  0  0  0  0  0  0
    8.6591  -14.9075   17.9323 C   0  0  2  0  0  0  0  0  0  0  0  0
    7.4921  -15.7690   17.9431 N   0  0  0  0  0  0  0  0  0  0  0  0
    9.1406  -14.6174   19.3011 C   0  0  0  0  0  0  0  0  0  0  0  0
   10.1459  -13.8946   19.4639 O   0  0  0  0  0  0  0  0  0  0  0  0
    6.8266  -12.2532   12.8556 O   0  0  0  0  0  0  0  0  0  0  0  0
    7.1548  -16.4756   22.6384 C   0  0  0  0  0  0  0  0  0  0  0  0
    7.8106  -15.2572   22.7224 C   0  0  1  0  0  0  0  0  0  0  0  0
    8.9976  -15.1893   21.7496 N   0  0  0  0  0  0  0  0  0  0  0  0
    8.4763  -15.1475   20.4198 C   0  0  0  0  0  0  0  0  0  0  0  0
    9.8469  -16.3384   22.0363 O   0  0  0  0  0  0  0  0  0  0  0  0
    9.9572  -17.2682   21.2060 N   0  0  0  0  0  0  0  0  0  0  0  0
   10.5634  -16.4313   23.2549 C   0  0  1  0  0  0  0  0  0  0  0  0
   11.8794  -17.0312   23.3623 C   0  0  0  0  0  0  0  0  0  0  0  0
   12.9012  -16.3626   22.4792 C   0  0  0  0  0  0  0  0  0  0  0  0
   14.2097  -17.0186   22.5837 O   0  0  0  0  0  0  0  0  0  0  0  0
   14.6640  -17.8492   21.7383 C   0  0  0  0  0  0  0  0  0  0  0  0
   12.3336  -16.9639   24.7829 O   0  0  0  0  0  0  0  0  0  0  0  0
   13.2815  -17.8540   25.2464 O   0  0  0  0  0  0  0  0  0  0  0  0
   15.0093  -16.7075   23.6891 O   0  0  0  0  0  0  0  0  0  0  0  0
  1  2  1  0
  2  3  2  0
  4  5  1  0
  4  2  1  0
  6  5  1  0
  7  6  1  0
  7  8  1  0
  8 10  1  0
  8  9  1  1
 10 11  2  0
 13 12  1  0
 14 13  1  1
 15 14  1  0
 15 10  1  0
 16 17  2  0
 16 14  1  0
 18 16  1  0
 19 20  1  1
 19 18  1  0
 20 21  1  0
 21 25  1  0
 21 22  2  0
 23 19  1  0
 24 23  1  0
 26 23  2  0
M  END
$$$$
