RSD.pdb
     RDKit          3D

 26 25  0  0  1  0  0  0  0  0999 V2000
   10.8153  -12.5833   20.1422 N   0  0  0  0  0  0  0  0  0  0  0  0
    9.4133  -12.8602   20.1623 C   0  0  0  0  0  0  0  0  0  0  0  0
    8.9535  -13.6056   21.1023 N   0  0  0  0  0  0  0  0  0  0  0  0
    8.5204  -12.3462   19.1939 N   0  0  0  0  0  0  0  0  0  0  0  0
    7.6327  -13.2353   18.5030 C   0  0  0  0  0  0  0  0  0  0  0  0
    8.4964  -14.1833   17.6667 C   0  0  0  0  0  0  0  0  0  0  0  0
    7.6250  -15.0339   16.7689 C   0  0  0  0  0  0  0  0  0  0  0  0
    8.5246  -16.0694   16.0891 C   0  0  2  0  0  0  0  0  0  0  0  0
    7.6220  -16.9284   15.3464 N   0  0  0  0  0  0  0  0  0  0  0  0
    9.3023  -16.8275   17.0941 C   0  0  0  0  0  0  0  0  0  0  0  0
    8.7077  -17.5503   17.9209 O   0  0  0  0  0  0  0  0  0  0  0  0
    7.9626  -13.9192   21.1740 O   0  0  0  0  0  0  0  0  0  0  0  0
   13.5978  -18.7900   17.8960 C   0  0  0  0  0  0  0  0  0  0  0  0
   12.7984  -17.9118   17.1809 C   0  0  2  0  0  0  0  0  0  0  0  0
   11.5602  -17.4938   17.9885 N   0  0  0  0  0  0  0  0  0  0  0  0
   10.7042  -16.7420   17.1263 C   0  0  0  0  0  0  0  0  0  0  0  0
   12.0414  -16.7667   19.1563 O   0  0  0  0  0  0  0  0  0  0  0  0
   12.3311  -15.5521   19.0718 N   0  0  0  0  0  0  0  0  0  0  0  0
   12.1933  -17.4128   20.4078 C   0  0  2  0  0  0  0  0  0  0  0  0
   12.6105  -16.7252   21.6147 C   0  0  0  0  0  0  0  0  0  0  0  0
   12.3929  -17.5450   22.8602 C   0  0  0  0  0  0  0  0  0  0  0  0
   12.8343  -16.8235   24.0595 O   0  0  0  0  0  0  0  0  0  0  0  0
   14.0440  -16.7236   24.4304 C   0  0  0  0  0  0  0  0  0  0  0  0
   14.0566  -16.3716   21.5015 O   0  0  0  0  0  0  0  0  0  0  0  0
   14.9435  -17.2683   20.9402 O   0  0  0  0  0  0  0  0  0  0  0  0
   11.8562  -16.2049   24.8459 O   0  0  0  0  0  0  0  0  0  0  0  0
  1  2  1  0
  2  3  2  0
  4  5  1  0
  4  2  1  0
  6  5  1  0
  7  6  1  0
  7  8  1  0
  8 10  1  0
  8  9  1  1
 10 11  2  0
 13 12  1  0
 14 13  1  6
 15 14  1  0
 15 10  1  0
 16 17  2  0
 16 14  1  0
 18 16  1  0
 19 20  1  6
 19 18  1  0
 20 21  1  0
 21 25  1  0
 21 22  2  0
 23 19  1  0
 24 23  1  0
 26 23  2  0
M  END
$$$$
