RSD.pdb
     RDKit          3D

 26 25  0  0  1  0  0  0  0  0999 V2000
    7.3307  -20.2694   15.2776 N   0  0  0  0  0  0  0  0  0  0  0  0
    5.9114  -20.2316   15.4418 C   0  0  0  0  0  0  0  0  0  0  0  0
    5.1736  -20.4416   14.4112 N   0  0  0  0  0  0  0  0  0  0  0  0
    5.2944  -19.9751   16.6879 N   0  0  0  0  0  0  0  0  0  0  0  0
    6.1024  -19.6571   17.8288 C   0  0  0  0  0  0  0  0  0  0  0  0
    6.2704  -18.1355   17.8589 C   0  0  0  0  0  0  0  0  0  0  0  0
    7.1173  -17.7236   19.0429 C   0  0  0  0  0  0  0  0  0  0  0  0
    7.3073  -16.2060   18.9764 C   0  0  2  0  0  0  0  0  0  0  0  0
    7.7985  -15.9425   17.6372 N   0  0  0  0  0  0  0  0  0  0  0  0
    8.2628  -15.7523   20.0112 C   0  0  0  0  0  0  0  0  0  0  0  0
    9.4703  -16.0560   19.9152 O   0  0  0  0  0  0  0  0  0  0  0  0
    4.1321  -20.4174   14.4176 O   0  0  0  0  0  0  0  0  0  0  0  0
    6.7357  -14.3732   23.7173 C   0  0  0  0  0  0  0  0  0  0  0  0
    7.7790  -13.6841   23.1185 C   0  0  1  0  0  0  0  0  0  0  0  0
    8.6221  -14.6062   22.2248 N   0  0  0  0  0  0  0  0  0  0  0  0
    7.8237  -14.9819   21.1009 C   0  0  0  0  0  0  0  0  0  0  0  0
    9.0635  -15.7170   23.0585 O   0  0  0  0  0  0  0  0  0  0  0  0
    8.4650  -16.8154   23.0201 N   0  0  0  0  0  0  0  0  0  0  0  0
   10.1733  -15.5815   23.9285 C   0  0  1  0  0  0  0  0  0  0  0  0
   11.0456  -16.6837   24.2857 C   0  0  0  0  0  0  0  0  0  0  0  0
   10.9511  -17.8401   23.3241 C   0  0  0  0  0  0  0  0  0  0  0  0
   11.8097  -18.9546   23.7416 O   0  0  0  0  0  0  0  0  0  0  0  0
   12.5116  -18.9606   24.7990 C   0  0  0  0  0  0  0  0  0  0  0  0
   12.4557  -16.1956   24.3354 O   0  0  0  0  0  0  0  0  0  0  0  0
   13.0801  -15.7734   23.1789 O   0  0  0  0  0  0  0  0  0  0  0  0
   11.8573  -20.0855   22.9190 O   0  0  0  0  0  0  0  0  0  0  0  0
  1  2  1  0
  2  3  2  0
  4  5  1  0
  4  2  1  0
  6  5  1  0
  7  6  1  0
  7  8  1  0
  8 10  1  0
  8  9  1  6
 10 11  2  0
 13 12  1  0
 14 13  1  6
 15 14  1  0
 15 10  1  0
 16 17  2  0
 16 14  1  0
 18 16  1  0
 19 20  1  1
 19 18  1  0
 20 21  1  0
 21 25  1  0
 21 22  2  0
 23 19  1  0
 24 23  1  0
 26 23  2  0
M  END
$$$$
