RSD.pdb
     RDKit          3D

 26 25  0  0  1  0  0  0  0  0999 V2000
    8.3759  -15.0882   16.6632 N   0  0  0  0  0  0  0  0  0  0  0  0
    8.2177  -13.6753   16.5178 C   0  0  0  0  0  0  0  0  0  0  0  0
    8.8858  -13.0796   15.5962 N   0  0  0  0  0  0  0  0  0  0  0  0
    7.3580  -12.9152   17.3438 N   0  0  0  0  0  0  0  0  0  0  0  0
    7.5709  -12.8931   18.7615 C   0  0  0  0  0  0  0  0  0  0  0  0
    8.4917  -14.0677   19.1027 C   0  0  0  0  0  0  0  0  0  0  0  0
    8.8158  -14.0695   20.5805 C   0  0  0  0  0  0  0  0  0  0  0  0
    8.2281  -15.3465   21.1865 C   0  0  2  0  0  0  0  0  0  0  0  0
    6.8961  -15.4570   20.6230 N   0  0  0  0  0  0  0  0  0  0  0  0
    8.1944  -15.2576   22.6632 C   0  0  0  0  0  0  0  0  0  0  0  0
    7.6558  -14.2739   23.2124 O   0  0  0  0  0  0  0  0  0  0  0  0
    8.7902  -12.0698   15.3584 O   0  0  0  0  0  0  0  0  0  0  0  0
    6.6633  -17.1340   25.0987 C   0  0  0  0  0  0  0  0  0  0  0  0
    7.4908  -16.0892   25.4799 C   0  0  1  0  0  0  0  0  0  0  0  0
    8.8956  -16.2354   24.8757 N   0  0  0  0  0  0  0  0  0  0  0  0
    8.7625  -16.2708   23.4534 C   0  0  0  0  0  0  0  0  0  0  0  0
    9.4875  -17.4305   25.4632 O   0  0  0  0  0  0  0  0  0  0  0  0
    9.3279  -18.5482   24.9233 N   0  0  0  0  0  0  0  0  0  0  0  0
   10.2526  -17.3573   26.6533 C   0  0  1  0  0  0  0  0  0  0  0  0
   10.8651  -18.5131   27.2797 C   0  0  0  0  0  0  0  0  0  0  0  0
   12.3579  -18.3741   27.4314 C   0  0  0  0  0  0  0  0  0  0  0  0
   13.0436  -18.5328   26.1436 O   0  0  0  0  0  0  0  0  0  0  0  0
   12.4531  -18.7274   25.0371 C   0  0  0  0  0  0  0  0  0  0  0  0
   10.2490  -18.7259   28.6229 O   0  0  0  0  0  0  0  0  0  0  0  0
    9.3824  -17.7842   29.1406 O   0  0  0  0  0  0  0  0  0  0  0  0
   14.4411  -18.4650   26.1357 O   0  0  0  0  0  0  0  0  0  0  0  0
  1  2  1  0
  2  3  2  0
  4  5  1  0
  4  2  1  0
  6  5  1  0
  7  6  1  0
  7  8  1  0
  8 10  1  0
  8  9  1  6
 10 11  2  0
 13 12  1  0
 14 13  1  6
 15 14  1  0
 15 10  1  0
 16 17  2  0
 16 14  1  0
 18 16  1  0
 19 20  1  1
 19 18  1  0
 20 21  1  0
 21 25  1  0
 21 22  2  0
 23 19  1  0
 24 23  1  0
 26 23  2  0
M  END
$$$$
