RSD.pdb
     RDKit          3D

 26 25  0  0  1  0  0  0  0  0999 V2000
    9.7005  -14.6909   15.4550 N   0  0  0  0  0  0  0  0  0  0  0  0
    8.4229  -14.1593   15.0975 C   0  0  0  0  0  0  0  0  0  0  0  0
    8.3727  -13.2591   14.1821 N   0  0  0  0  0  0  0  0  0  0  0  0
    7.2213  -14.5858   15.7084 N   0  0  0  0  0  0  0  0  0  0  0  0
    7.1087  -14.5767   17.1378 C   0  0  0  0  0  0  0  0  0  0  0  0
    8.0394  -13.4796   17.6615 C   0  0  0  0  0  0  0  0  0  0  0  0
    7.8659  -13.3120   19.1551 C   0  0  0  0  0  0  0  0  0  0  0  0
    8.1204  -14.6718   19.8108 C   0  0  2  0  0  0  0  0  0  0  0  0
    6.8043  -15.2430   20.0252 N   0  0  0  0  0  0  0  0  0  0  0  0
    8.8626  -14.5099   21.0806 C   0  0  0  0  0  0  0  0  0  0  0  0
   10.0929  -14.2968   21.0561 O   0  0  0  0  0  0  0  0  0  0  0  0
    7.4954  -12.8083   13.8468 O   0  0  0  0  0  0  0  0  0  0  0  0
    6.7897  -15.3999   24.7249 C   0  0  0  0  0  0  0  0  0  0  0  0
    7.7888  -14.4402   24.6739 C   0  0  1  0  0  0  0  0  0  0  0  0
    8.8239  -14.7637   23.5859 N   0  0  0  0  0  0  0  0  0  0  0  0
    8.1954  -14.5929   22.3141 C   0  0  0  0  0  0  0  0  0  0  0  0
    9.3098  -16.1119   23.8504 O   0  0  0  0  0  0  0  0  0  0  0  0
    9.2015  -17.0067   22.9822 N   0  0  0  0  0  0  0  0  0  0  0  0
    9.9121  -16.4414   25.0896 C   0  0  1  0  0  0  0  0  0  0  0  0
   10.9750  -17.4189   25.2246 C   0  0  0  0  0  0  0  0  0  0  0  0
   12.1501  -17.1335   24.3255 C   0  0  0  0  0  0  0  0  0  0  0  0
   13.2438  -18.0844   24.5566 O   0  0  0  0  0  0  0  0  0  0  0  0
   13.6253  -18.4721   25.7032 C   0  0  0  0  0  0  0  0  0  0  0  0
   11.4345  -17.4493   26.6448 O   0  0  0  0  0  0  0  0  0  0  0  0
   11.7485  -16.2716   27.2930 O   0  0  0  0  0  0  0  0  0  0  0  0
   13.9099  -18.5972   23.4380 O   0  0  0  0  0  0  0  0  0  0  0  0
  1  2  1  0
  2  3  2  0
  4  5  1  0
  4  2  1  0
  6  5  1  0
  7  6  1  0
  7  8  1  0
  8 10  1  0
  8  9  1  1
 10 11  2  0
 13 12  1  0
 14 13  1  6
 15 14  1  0
 15 10  1  0
 16 17  2  0
 16 14  1  0
 18 16  1  0
 19 20  1  1
 19 18  1  0
 20 21  1  0
 21 25  1  0
 21 22  2  0
 23 19  1  0
 24 23  1  0
 26 23  2  0
M  END
$$$$
