RSD.pdb
     RDKit          3D

 26 25  0  0  1  0  0  0  0  0999 V2000
    7.2936  -12.6674   16.1206 N   0  0  0  0  0  0  0  0  0  0  0  0
    7.5178  -14.0501   15.8365 C   0  0  0  0  0  0  0  0  0  0  0  0
    7.9191  -14.3723   14.6593 N   0  0  0  0  0  0  0  0  0  0  0  0
    7.3173  -15.0682   16.7969 N   0  0  0  0  0  0  0  0  0  0  0  0
    8.3466  -15.3563   17.7526 C   0  0  0  0  0  0  0  0  0  0  0  0
    9.0268  -14.0303   18.1038 C   0  0  0  0  0  0  0  0  0  0  0  0
    9.7670  -14.1512   19.4177 C   0  0  0  0  0  0  0  0  0  0  0  0
    8.9072  -14.9945   20.3628 C   0  0  2  0  0  0  0  0  0  0  0  0
    7.5800  -14.4136   20.2901 N   0  0  0  0  0  0  0  0  0  0  0  0
    9.4495  -14.9553   21.7390 C   0  0  0  0  0  0  0  0  0  0  0  0
   10.6847  -14.9930   21.9193 O   0  0  0  0  0  0  0  0  0  0  0  0
    8.1546  -15.3427   14.3624 O   0  0  0  0  0  0  0  0  0  0  0  0
    6.7407  -15.5439   24.8976 C   0  0  0  0  0  0  0  0  0  0  0  0
    7.7665  -14.6308   25.0865 C   0  0  1  0  0  0  0  0  0  0  0  0
    8.9856  -14.9665   24.2143 N   0  0  0  0  0  0  0  0  0  0  0  0
    8.5871  -14.8754   22.8451 C   0  0  0  0  0  0  0  0  0  0  0  0
    9.4527  -16.2837   24.6276 O   0  0  0  0  0  0  0  0  0  0  0  0
    8.8761  -17.3173   24.2209 N   0  0  0  0  0  0  0  0  0  0  0  0
   10.5634  -16.4258   25.4954 C   0  0  1  0  0  0  0  0  0  0  0  0
   11.0554  -17.7096   25.9570 C   0  0  0  0  0  0  0  0  0  0  0  0
   12.5597  -17.7716   26.0199 C   0  0  0  0  0  0  0  0  0  0  0  0
   13.1558  -17.6692   24.6828 O   0  0  0  0  0  0  0  0  0  0  0  0
   12.4891  -17.5785   23.6066 C   0  0  0  0  0  0  0  0  0  0  0  0
   10.4916  -17.9921   27.3103 O   0  0  0  0  0  0  0  0  0  0  0  0
   10.7043  -19.2206   27.9029 O   0  0  0  0  0  0  0  0  0  0  0  0
   14.5519  -17.6718   24.5887 O   0  0  0  0  0  0  0  0  0  0  0  0
  1  2  1  0
  2  3  2  0
  4  5  1  0
  4  2  1  0
  6  5  1  0
  7  6  1  0
  7  8  1  0
  8 10  1  0
  8  9  1  1
 10 11  2  0
 13 12  1  0
 14 13  1  6
 15 14  1  0
 15 10  1  0
 16 17  2  0
 16 14  1  0
 18 16  1  0
 19 20  1  1
 19 18  1  0
 20 21  1  0
 21 25  1  0
 21 22  2  0
 23 19  1  0
 24 23  1  0
 26 23  2  0
M  END
$$$$
