EVC.pdb
     RDKit          3D

 23 22  0  0  1  0  0  0  0  0999 V2000
   22.6300  -20.2659  -16.7584 N   0  0  0  0  0  0  0  0  0  0  0  0
   23.2228  -19.4224  -15.7694 C   0  0  1  0  0  0  0  0  0  0  0  0
   22.1994  -18.6146  -15.0473 C   0  0  0  0  0  0  0  0  0  0  0  0
   21.4979  -17.5817  -15.8724 C   0  0  0  0  0  0  0  0  0  0  0  0
   20.1649  -17.9697  -16.3499 C   0  0  0  0  0  0  0  0  0  0  0  0
   19.5970  -19.0363  -16.0116 O   0  0  0  0  0  0  0  0  0  0  0  0
   24.1098  -20.1516  -14.8360 C   0  0  0  0  0  0  0  0  0  0  0  0
   23.7352  -21.2949  -14.4506 O   0  0  0  0  0  0  0  0  0  0  0  0
   19.4195  -17.1622  -17.2324 O   0  0  0  0  0  0  0  0  0  0  0  0
   28.4256  -20.9460  -12.6151 C   0  0  0  0  0  0  0  0  0  0  0  0
   27.6158  -20.2468  -13.6762 C   0  0  1  0  0  0  0  0  0  0  0  0
   28.0219  -20.6620  -15.0703 C   0  0  0  0  0  0  0  0  0  0  0  0
   26.1271  -20.3850  -13.4416 C   0  0  2  0  0  0  0  0  0  0  0  0
   25.3399  -19.6373  -14.3611 N   0  0  0  0  0  0  0  0  0  0  0  0
   25.8609  -19.9673  -12.0405 C   0  0  0  0  0  0  0  0  0  0  0  0
   25.9272  -18.7699  -11.6611 O   0  0  0  0  0  0  0  0  0  0  0  0
   25.5136  -20.9357  -11.0585 N   0  0  0  0  0  0  0  0  0  0  0  0
   25.3309  -20.5520   -9.6723 C   0  0  1  0  0  0  0  0  0  0  0  0
   24.4181  -21.5888   -9.0463 C   0  0  0  0  0  0  0  0  0  0  0  0
   23.9446  -20.9933   -7.3897 S   0  0  0  0  0  0  0  0  0  0  0  0
   26.6322  -20.4670   -8.9636 C   0  0  0  0  0  0  0  0  0  0  0  0
   26.7847  -19.5909   -7.9049 O   0  0  0  0  0  0  0  0  0  0  0  0
   27.6162  -21.1721   -9.2943 O   0  0  0  0  0  0  0  0  0  0  0  0
  2  1  1  6
  2  3  1  0
  4  3  1  0
  5  4  1  0
  6  5  2  0
  7  2  1  0
  7  8  2  0
  9  5  1  0
 11 10  1  1
 11 12  1  0
 11 13  1  0
 13 14  1  6
 14  7  1  0
 15 13  1  0
 16 15  2  0
 17 15  1  0
 18 17  1  0
 18 21  1  0
 19 20  1  0
 18 19  1  1
 21 22  1  0
 23 21  2  0
M  END
$$$$
