EVC.pdb
     RDKit          3D

 23 22  0  0  1  0  0  0  0  0999 V2000
   24.9582  -12.4038  -17.9179 N   0  0  0  0  0  0  0  0  0  0  0  0
   25.0667  -11.3489  -16.9606 C   0  0  1  0  0  0  0  0  0  0  0  0
   26.2418  -10.4738  -17.2339 C   0  0  0  0  0  0  0  0  0  0  0  0
   27.5667  -11.1692  -17.2634 C   0  0  0  0  0  0  0  0  0  0  0  0
   28.7225  -10.2926  -17.4899 C   0  0  0  0  0  0  0  0  0  0  0  0
   28.6321   -9.0439  -17.5741 O   0  0  0  0  0  0  0  0  0  0  0  0
   23.8195  -10.5671  -16.8097 C   0  0  0  0  0  0  0  0  0  0  0  0
   23.1970  -10.2552  -17.8639 O   0  0  0  0  0  0  0  0  0  0  0  0
   30.0310  -10.7971  -17.6303 O   0  0  0  0  0  0  0  0  0  0  0  0
   19.7099   -9.3625  -14.6764 C   0  0  0  0  0  0  0  0  0  0  0  0
   20.9520  -10.1996  -14.8408 C   0  0  1  0  0  0  0  0  0  0  0  0
   20.6701  -11.5081  -15.5401 C   0  0  0  0  0  0  0  0  0  0  0  0
   22.0791   -9.4267  -15.4910 C   0  0  2  0  0  0  0  0  0  0  0  0
   23.2977  -10.1579  -15.5593 N   0  0  0  0  0  0  0  0  0  0  0  0
   22.2496   -8.1660  -14.7229 C   0  0  0  0  0  0  0  0  0  0  0  0
   23.1309   -8.0202  -13.8374 O   0  0  0  0  0  0  0  0  0  0  0  0
   21.3976   -7.0548  -14.9727 N   0  0  0  0  0  0  0  0  0  0  0  0
   21.6535   -5.7709  -14.3497 C   0  0  1  0  0  0  0  0  0  0  0  0
   22.8680   -5.1816  -15.0411 C   0  0  0  0  0  0  0  0  0  0  0  0
   23.2018   -3.5512  -14.2972 S   0  0  0  0  0  0  0  0  0  0  0  0
   20.4732   -4.8777  -14.4580 C   0  0  0  0  0  0  0  0  0  0  0  0
   20.1973   -3.9743  -13.4483 O   0  0  0  0  0  0  0  0  0  0  0  0
   19.7028   -4.9117  -15.4481 O   0  0  0  0  0  0  0  0  0  0  0  0
  2  1  1  6
  2  3  1  0
  4  3  1  0
  5  4  1  0
  6  5  2  0
  7  2  1  0
  7  8  2  0
  9  5  1  0
 11 10  1  6
 11 12  1  0
 11 13  1  0
 13 14  1  1
 14  7  1  0
 15 13  1  0
 16 15  2  0
 17 15  1  0
 18 17  1  0
 18 21  1  0
 19 20  1  0
 18 19  1  6
 21 22  1  0
 23 21  2  0
M  END
$$$$
