EVC.pdb
     RDKit          3D

 23 22  0  0  1  0  0  0  0  0999 V2000
   22.6488  -20.7093  -17.7748 N   0  0  0  0  0  0  0  0  0  0  0  0
   23.2358  -19.6935  -16.9595 C   0  0  1  0  0  0  0  0  0  0  0  0
   22.2050  -18.7861  -16.3803 C   0  0  0  0  0  0  0  0  0  0  0  0
   21.4143  -19.3554  -15.2444 C   0  0  0  0  0  0  0  0  0  0  0  0
   19.9592  -19.1978  -15.3610 C   0  0  0  0  0  0  0  0  0  0  0  0
   19.2107  -20.0731  -15.8592 O   0  0  0  0  0  0  0  0  0  0  0  0
   24.1444  -20.2303  -15.9222 C   0  0  0  0  0  0  0  0  0  0  0  0
   23.8391  -21.3384  -15.3980 O   0  0  0  0  0  0  0  0  0  0  0  0
   19.2919  -18.0388  -14.9163 O   0  0  0  0  0  0  0  0  0  0  0  0
   28.4044  -20.2059  -13.4049 C   0  0  0  0  0  0  0  0  0  0  0  0
   27.5920  -19.7137  -14.5747 C   0  0  1  0  0  0  0  0  0  0  0  0
   28.2228  -20.0727  -15.8990 C   0  0  0  0  0  0  0  0  0  0  0  0
   26.1445  -20.1465  -14.4867 C   0  0  2  0  0  0  0  0  0  0  0  0
   25.3222  -19.5715  -15.4953 N   0  0  0  0  0  0  0  0  0  0  0  0
   25.6595  -19.7895  -13.1281 C   0  0  0  0  0  0  0  0  0  0  0  0
   24.8904  -18.8182  -12.9113 O   0  0  0  0  0  0  0  0  0  0  0  0
   26.0616  -20.5568  -12.0000 N   0  0  0  0  0  0  0  0  0  0  0  0
   25.3810  -20.4154  -10.7276 C   0  0  1  0  0  0  0  0  0  0  0  0
   23.9290  -20.7850  -10.9630 C   0  0  0  0  0  0  0  0  0  0  0  0
   23.0721  -20.7474   -9.3544 S   0  0  0  0  0  0  0  0  0  0  0  0
   26.0039  -21.2724   -9.6882 C   0  0  0  0  0  0  0  0  0  0  0  0
   26.5528  -22.4921  -10.0383 O   0  0  0  0  0  0  0  0  0  0  0  0
   26.0523  -20.9261   -8.4829 O   0  0  0  0  0  0  0  0  0  0  0  0
  2  1  1  1
  2  3  1  0
  4  3  1  0
  5  4  1  0
  6  5  2  0
  7  2  1  0
  7  8  2  0
  9  5  1  0
 11 10  1  1
 11 12  1  0
 11 13  1  0
 13 14  1  6
 14  7  1  0
 15 13  1  0
 16 15  2  0
 17 15  1  0
 18 17  1  0
 18 21  1  0
 19 20  1  0
 18 19  1  6
 21 22  1  0
 23 21  2  0
M  END
$$$$
