EVC.pdb
     RDKit          3D

 23 22  0  0  1  0  0  0  0  0999 V2000
   21.8537  -14.5189  -16.5669 N   0  0  0  0  0  0  0  0  0  0  0  0
   21.7740  -13.2012  -17.1132 C   0  0  1  0  0  0  0  0  0  0  0  0
   20.3913  -12.8724  -17.5622 C   0  0  0  0  0  0  0  0  0  0  0  0
   19.8571  -13.7239  -18.6709 C   0  0  0  0  0  0  0  0  0  0  0  0
   20.3539  -13.3826  -20.0097 C   0  0  0  0  0  0  0  0  0  0  0  0
   20.5143  -14.2310  -20.9202 O   0  0  0  0  0  0  0  0  0  0  0  0
   22.3242  -12.1624  -16.2144 C   0  0  0  0  0  0  0  0  0  0  0  0
   22.0791  -12.2717  -14.9799 O   0  0  0  0  0  0  0  0  0  0  0  0
   20.6898  -12.0625  -20.3716 O   0  0  0  0  0  0  0  0  0  0  0  0
   25.6803   -8.9252  -14.9204 C   0  0  0  0  0  0  0  0  0  0  0  0
   25.1455   -9.9847  -15.8490 C   0  0  1  0  0  0  0  0  0  0  0  0
   25.8743  -11.2984  -15.6960 C   0  0  0  0  0  0  0  0  0  0  0  0
   23.6443  -10.1387  -15.7347 C   0  0  2  0  0  0  0  0  0  0  0  0
   23.1008  -11.0681  -16.6647 N   0  0  0  0  0  0  0  0  0  0  0  0
   23.0480   -8.7890  -15.9110 C   0  0  0  0  0  0  0  0  0  0  0  0
   23.0725   -8.1697  -17.0055 O   0  0  0  0  0  0  0  0  0  0  0  0
   22.4137   -8.1381  -14.8169 N   0  0  0  0  0  0  0  0  0  0  0  0
   21.7998   -6.8354  -14.9852 C   0  0  1  0  0  0  0  0  0  0  0  0
   20.4891   -6.8659  -14.2228 C   0  0  0  0  0  0  0  0  0  0  0  0
   19.4632   -8.2006  -14.9224 S   0  0  0  0  0  0  0  0  0  0  0  0
   22.6930   -5.7548  -14.4982 C   0  0  0  0  0  0  0  0  0  0  0  0
   22.3650   -4.4319  -14.7308 O   0  0  0  0  0  0  0  0  0  0  0  0
   23.7528   -6.0002  -13.8725 O   0  0  0  0  0  0  0  0  0  0  0  0
  2  1  1  1
  2  3  1  0
  4  3  1  0
  5  4  1  0
  6  5  2  0
  7  2  1  0
  7  8  2  0
  9  5  1  0
 11 10  1  1
 11 12  1  0
 11 13  1  0
 13 14  1  6
 14  7  1  0
 15 13  1  0
 16 15  2  0
 17 15  1  0
 18 17  1  0
 18 21  1  0
 19 20  1  0
 18 19  1  1
 21 22  1  0
 23 21  2  0
M  END
$$$$
