EVC.pdb
     RDKit          3D

 23 22  0  0  1  0  0  0  0  0999 V2000
   12.4819  -11.2322  -11.3501 N   0  0  0  0  0  0  0  0  0  0  0  0
   13.8383  -11.2526  -10.9021 C   0  0  1  0  0  0  0  0  0  0  0  0
   14.6316  -12.3095  -11.5915 C   0  0  0  0  0  0  0  0  0  0  0  0
   14.2025  -13.7164  -11.3159 C   0  0  0  0  0  0  0  0  0  0  0  0
   14.9269  -14.7454  -12.0722 C   0  0  0  0  0  0  0  0  0  0  0  0
   14.7441  -15.9758  -11.9077 O   0  0  0  0  0  0  0  0  0  0  0  0
   14.4978   -9.9301  -10.9771 C   0  0  0  0  0  0  0  0  0  0  0  0
   14.1753   -9.1725  -11.9352 O   0  0  0  0  0  0  0  0  0  0  0  0
   15.8904  -14.4204  -13.0482 O   0  0  0  0  0  0  0  0  0  0  0  0
   16.6441   -6.1006   -8.8461 C   0  0  0  0  0  0  0  0  0  0  0  0
   15.8961   -7.4079   -8.8007 C   0  0  1  0  0  0  0  0  0  0  0  0
   14.4767   -7.2367   -8.3144 C   0  0  0  0  0  0  0  0  0  0  0  0
   15.9718   -8.1546  -10.1149 C   0  0  2  0  0  0  0  0  0  0  0  0
   15.4586   -9.4795  -10.0405 N   0  0  0  0  0  0  0  0  0  0  0  0
   17.3950   -8.1514  -10.5425 C   0  0  0  0  0  0  0  0  0  0  0  0
   18.3179   -8.6472   -9.8463 O   0  0  0  0  0  0  0  0  0  0  0  0
   17.7674   -7.5712  -11.7865 N   0  0  0  0  0  0  0  0  0  0  0  0
   19.1514   -7.5706  -12.2184 C   0  0  1  0  0  0  0  0  0  0  0  0
   19.2649   -8.5957  -13.3304 C   0  0  0  0  0  0  0  0  0  0  0  0
   20.9722   -8.5466  -13.9674 S   0  0  0  0  0  0  0  0  0  0  0  0
   19.5711   -6.2209  -12.6713 C   0  0  0  0  0  0  0  0  0  0  0  0
   20.8809   -5.8125  -12.5000 O   0  0  0  0  0  0  0  0  0  0  0  0
   18.7686   -5.4225  -13.2131 O   0  0  0  0  0  0  0  0  0  0  0  0
  2  1  1  6
  2  3  1  0
  4  3  1  0
  5  4  1  0
  6  5  2  0
  7  2  1  0
  7  8  2  0
  9  5  1  0
 11 10  1  6
 11 12  1  0
 11 13  1  0
 13 14  1  1
 14  7  1  0
 15 13  1  0
 16 15  2  0
 17 15  1  0
 18 17  1  0
 18 21  1  0
 19 20  1  0
 18 19  1  6
 21 22  1  0
 23 21  2  0
M  END
$$$$
