EVC.pdb
     RDKit          3D

 23 22  0  0  1  0  0  0  0  0999 V2000
   26.6498  -19.6681  -16.6611 N   0  0  0  0  0  0  0  0  0  0  0  0
   26.7316  -20.7301  -15.7089 C   0  0  1  0  0  0  0  0  0  0  0  0
   28.1108  -21.2883  -15.6215 C   0  0  0  0  0  0  0  0  0  0  0  0
   28.5932  -22.0014  -16.8456 C   0  0  0  0  0  0  0  0  0  0  0  0
   27.7692  -23.1422  -17.2642 C   0  0  0  0  0  0  0  0  0  0  0  0
   27.3426  -24.0116  -16.4662 O   0  0  0  0  0  0  0  0  0  0  0  0
   26.1993  -20.3629  -14.3780 C   0  0  0  0  0  0  0  0  0  0  0  0
   26.4371  -19.1955  -13.9578 O   0  0  0  0  0  0  0  0  0  0  0  0
   27.3943  -23.3443  -18.6077 O   0  0  0  0  0  0  0  0  0  0  0  0
   22.9428  -20.7575  -10.7743 C   0  0  0  0  0  0  0  0  0  0  0  0
   23.4676  -21.1998  -12.1158 C   0  0  1  0  0  0  0  0  0  0  0  0
   22.5765  -20.7566  -13.2516 C   0  0  0  0  0  0  0  0  0  0  0  0
   24.9124  -20.7998  -12.3234 C   0  0  2  0  0  0  0  0  0  0  0  0
   25.4472  -21.2440  -13.5647 N   0  0  0  0  0  0  0  0  0  0  0  0
   25.6887  -21.3413  -11.1777 C   0  0  0  0  0  0  0  0  0  0  0  0
   26.2090  -22.4864  -11.1862 O   0  0  0  0  0  0  0  0  0  0  0  0
   25.8721  -20.5593  -10.0039 N   0  0  0  0  0  0  0  0  0  0  0  0
   26.9458  -20.8570   -9.0762 C   0  0  1  0  0  0  0  0  0  0  0  0
   28.2460  -20.6641   -9.8328 C   0  0  0  0  0  0  0  0  0  0  0  0
   29.6203  -20.9327   -8.6656 S   0  0  0  0  0  0  0  0  0  0  0  0
   26.8746  -19.9862   -7.8765 C   0  0  0  0  0  0  0  0  0  0  0  0
   26.3917  -18.6955   -7.9891 O   0  0  0  0  0  0  0  0  0  0  0  0
   27.2423  -20.3835   -6.7442 O   0  0  0  0  0  0  0  0  0  0  0  0
  2  1  1  6
  2  3  1  0
  4  3  1  0
  5  4  1  0
  6  5  2  0
  7  2  1  0
  7  8  2  0
  9  5  1  0
 11 10  1  1
 11 12  1  0
 11 13  1  0
 13 14  1  6
 14  7  1  0
 15 13  1  0
 16 15  2  0
 17 15  1  0
 18 17  1  0
 18 21  1  0
 19 20  1  0
 18 19  1  6
 21 22  1  0
 23 21  2  0
M  END
$$$$
