EVC.pdb
     RDKit          3D

 23 22  0  0  1  0  0  0  0  0999 V2000
   17.5812  -11.3795  -18.5192 N   0  0  0  0  0  0  0  0  0  0  0  0
   17.1466  -10.5472  -17.4424 C   0  0  1  0  0  0  0  0  0  0  0  0
   17.0659  -11.3014  -16.1594 C   0  0  0  0  0  0  0  0  0  0  0  0
   16.0249  -12.3754  -16.1108 C   0  0  0  0  0  0  0  0  0  0  0  0
   15.9031  -13.0634  -14.8195 C   0  0  0  0  0  0  0  0  0  0  0  0
   14.8503  -13.0626  -14.1368 O   0  0  0  0  0  0  0  0  0  0  0  0
   17.9430   -9.3076  -17.3049 C   0  0  0  0  0  0  0  0  0  0  0  0
   19.1198   -9.3179  -17.7642 O   0  0  0  0  0  0  0  0  0  0  0  0
   16.9726  -13.7820  -14.2482 O   0  0  0  0  0  0  0  0  0  0  0  0
   18.2151   -4.4366  -16.6887 C   0  0  0  0  0  0  0  0  0  0  0  0
   17.4512   -5.6950  -17.0105 C   0  0  1  0  0  0  0  0  0  0  0  0
   16.9261   -5.6976  -18.4264 C   0  0  0  0  0  0  0  0  0  0  0  0
   18.2435   -6.9426  -16.6846 C   0  0  2  0  0  0  0  0  0  0  0  0
   17.4566   -8.1279  -16.6924 N   0  0  0  0  0  0  0  0  0  0  0  0
   18.8797   -6.7271  -15.3590 C   0  0  0  0  0  0  0  0  0  0  0  0
   18.2213   -6.6546  -14.2897 O   0  0  0  0  0  0  0  0  0  0  0  0
   20.2919   -6.5923  -15.2561 N   0  0  0  0  0  0  0  0  0  0  0  0
   20.9227   -6.3700  -13.9698 C   0  0  1  0  0  0  0  0  0  0  0  0
   21.7427   -7.6084  -13.6629 C   0  0  0  0  0  0  0  0  0  0  0  0
   22.5551   -7.3587  -12.0502 S   0  0  0  0  0  0  0  0  0  0  0  0
   21.7626   -5.1465  -13.9889 C   0  0  0  0  0  0  0  0  0  0  0  0
   22.1392   -4.5875  -15.1961 O   0  0  0  0  0  0  0  0  0  0  0  0
   22.1507   -4.5903  -12.9329 O   0  0  0  0  0  0  0  0  0  0  0  0
  2  1  1  6
  2  3  1  0
  4  3  1  0
  5  4  1  0
  6  5  2  0
  7  2  1  0
  7  8  2  0
  9  5  1  0
 11 10  1  6
 11 12  1  0
 11 13  1  0
 13 14  1  1
 14  7  1  0
 15 13  1  0
 16 15  2  0
 17 15  1  0
 18 17  1  0
 18 21  1  0
 19 20  1  0
 18 19  1  6
 21 22  1  0
 23 21  2  0
M  END
$$$$
