EVC.pdb
     RDKit          3D

 23 22  0  0  1  0  0  0  0  0999 V2000
   19.1215  -12.9224  -17.3835 N   0  0  0  0  0  0  0  0  0  0  0  0
   19.8126  -11.7088  -17.6845 C   0  0  1  0  0  0  0  0  0  0  0  0
   18.9335  -10.7330  -18.3891 C   0  0  0  0  0  0  0  0  0  0  0  0
   18.3732  -11.2009  -19.6955 C   0  0  0  0  0  0  0  0  0  0  0  0
   17.4618  -10.2564  -20.3534 C   0  0  0  0  0  0  0  0  0  0  0  0
   17.2889   -9.0785  -19.9570 O   0  0  0  0  0  0  0  0  0  0  0  0
   20.4734  -11.1057  -16.5058 C   0  0  0  0  0  0  0  0  0  0  0  0
   19.9270  -11.2793  -15.3801 O   0  0  0  0  0  0  0  0  0  0  0  0
   16.7075  -10.6098  -21.4904 O   0  0  0  0  0  0  0  0  0  0  0  0
   23.3918  -11.7200  -14.5284 C   0  0  0  0  0  0  0  0  0  0  0  0
   23.5122  -10.2807  -14.9581 C   0  0  1  0  0  0  0  0  0  0  0  0
   24.6137  -10.0776  -15.9710 C   0  0  0  0  0  0  0  0  0  0  0  0
   22.1886   -9.7104  -15.4199 C   0  0  2  0  0  0  0  0  0  0  0  0
   21.6708  -10.3546  -16.5779 N   0  0  0  0  0  0  0  0  0  0  0  0
   22.3934   -8.2578  -15.6576 C   0  0  0  0  0  0  0  0  0  0  0  0
   22.6971   -7.7867  -16.7836 O   0  0  0  0  0  0  0  0  0  0  0  0
   22.2483   -7.3301  -14.5893 N   0  0  0  0  0  0  0  0  0  0  0  0
   22.3454   -5.9036  -14.8291 C   0  0  1  0  0  0  0  0  0  0  0  0
   21.2090   -5.5371  -15.7643 C   0  0  0  0  0  0  0  0  0  0  0  0
   19.6412   -5.9592  -14.9353 S   0  0  0  0  0  0  0  0  0  0  0  0
   22.2779   -5.1404  -13.5580 C   0  0  0  0  0  0  0  0  0  0  0  0
   21.9921   -5.7959  -12.3746 O   0  0  0  0  0  0  0  0  0  0  0  0
   22.4738   -3.9015  -13.5155 O   0  0  0  0  0  0  0  0  0  0  0  0
  2  1  1  1
  2  3  1  0
  4  3  1  0
  5  4  1  0
  6  5  2  0
  7  2  1  0
  7  8  2  0
  9  5  1  0
 11 10  1  6
 11 12  1  0
 11 13  1  0
 13 14  1  6
 14  7  1  0
 15 13  1  0
 16 15  2  0
 17 15  1  0
 18 17  1  0
 18 21  1  0
 19 20  1  0
 18 19  1  6
 21 22  1  0
 23 21  2  0
M  END
$$$$
