EVC.pdb
     RDKit          3D

 23 22  0  0  1  0  0  0  0  0999 V2000
   13.1983  -11.6657  -11.3148 N   0  0  0  0  0  0  0  0  0  0  0  0
   14.5989  -11.4147  -11.4435 C   0  0  1  0  0  0  0  0  0  0  0  0
   15.1637  -12.0513  -12.6671 C   0  0  0  0  0  0  0  0  0  0  0  0
   15.0696  -13.5441  -12.7155 C   0  0  0  0  0  0  0  0  0  0  0  0
   15.7904  -14.1753  -13.8280 C   0  0  0  0  0  0  0  0  0  0  0  0
   15.2339  -14.5268  -14.8963 O   0  0  0  0  0  0  0  0  0  0  0  0
   14.9447   -9.9785  -11.3587 C   0  0  0  0  0  0  0  0  0  0  0  0
   14.2674   -9.1744  -12.0593 O   0  0  0  0  0  0  0  0  0  0  0  0
   17.1748  -14.4343  -13.7745 O   0  0  0  0  0  0  0  0  0  0  0  0
   16.4958   -6.0337   -9.0631 C   0  0  0  0  0  0  0  0  0  0  0  0
   16.0103   -7.4583   -9.1368 C   0  0  1  0  0  0  0  0  0  0  0  0
   14.5771   -7.5972   -8.6817 C   0  0  0  0  0  0  0  0  0  0  0  0
   16.2471   -8.0721  -10.4997 C   0  0  2  0  0  0  0  0  0  0  0  0
   15.9827   -9.4694  -10.5421 N   0  0  0  0  0  0  0  0  0  0  0  0
   17.6542   -7.7785  -10.8770 C   0  0  0  0  0  0  0  0  0  0  0  0
   18.6306   -8.4385  -10.4375 O   0  0  0  0  0  0  0  0  0  0  0  0
   17.9479   -6.7123  -11.7714 N   0  0  0  0  0  0  0  0  0  0  0  0
   19.2913   -6.5241  -12.2834 C   0  0  1  0  0  0  0  0  0  0  0  0
   19.6508   -7.7842  -13.0469 C   0  0  0  0  0  0  0  0  0  0  0  0
   21.3134   -7.5547  -13.7583 S   0  0  0  0  0  0  0  0  0  0  0  0
   19.3726   -5.3183  -13.1449 C   0  0  0  0  0  0  0  0  0  0  0  0
   20.5236   -4.5523  -13.1519 O   0  0  0  0  0  0  0  0  0  0  0  0
   18.4201   -4.9615  -13.8801 O   0  0  0  0  0  0  0  0  0  0  0  0
  2  1  1  6
  2  3  1  0
  4  3  1  0
  5  4  1  0
  6  5  2  0
  7  2  1  0
  7  8  2  0
  9  5  1  0
 11 10  1  6
 11 12  1  0
 11 13  1  0
 13 14  1  1
 14  7  1  0
 15 13  1  0
 16 15  2  0
 17 15  1  0
 18 17  1  0
 18 21  1  0
 19 20  1  0
 18 19  1  6
 21 22  1  0
 23 21  2  0
M  END
$$$$
