EVC.pdb
     RDKit          3D

 23 22  0  0  1  0  0  0  0  0999 V2000
   23.8536  -19.4238  -18.6211 N   0  0  0  0  0  0  0  0  0  0  0  0
   24.1146  -18.7044  -17.4147 C   0  0  1  0  0  0  0  0  0  0  0  0
   22.9109  -17.9631  -16.9425 C   0  0  0  0  0  0  0  0  0  0  0  0
   22.1084  -18.6509  -15.8829 C   0  0  0  0  0  0  0  0  0  0  0  0
   20.8481  -17.9858  -15.5296 C   0  0  0  0  0  0  0  0  0  0  0  0
   20.0869  -18.3943  -14.6195 O   0  0  0  0  0  0  0  0  0  0  0  0
   24.6980  -19.5470  -16.3473 C   0  0  0  0  0  0  0  0  0  0  0  0
   24.3754  -20.7683  -16.3283 O   0  0  0  0  0  0  0  0  0  0  0  0
   20.3984  -16.8276  -16.1951 O   0  0  0  0  0  0  0  0  0  0  0  0
   28.0935  -20.5055  -12.9279 C   0  0  0  0  0  0  0  0  0  0  0  0
   27.5469  -19.5720  -13.9769 C   0  0  1  0  0  0  0  0  0  0  0  0
   28.4746  -19.4381  -15.1610 C   0  0  0  0  0  0  0  0  0  0  0  0
   26.1358  -19.9359  -14.3853 C   0  0  2  0  0  0  0  0  0  0  0  0
   25.5873  -19.0577  -15.3610 N   0  0  0  0  0  0  0  0  0  0  0  0
   25.3097  -19.9522  -13.1501 C   0  0  0  0  0  0  0  0  0  0  0  0
   24.7799  -18.9176  -12.6697 O   0  0  0  0  0  0  0  0  0  0  0  0
   25.0871  -21.1724  -12.4539 N   0  0  0  0  0  0  0  0  0  0  0  0
   24.2648  -21.2043  -11.2601 C   0  0  1  0  0  0  0  0  0  0  0  0
   24.9214  -20.2831  -10.2499 C   0  0  0  0  0  0  0  0  0  0  0  0
   26.3287  -21.1739   -9.5090 S   0  0  0  0  0  0  0  0  0  0  0  0
   22.8715  -20.7885  -11.5576 C   0  0  0  0  0  0  0  0  0  0  0  0
   21.9510  -20.6783  -10.5318 O   0  0  0  0  0  0  0  0  0  0  0  0
   22.4904  -20.5287  -12.7247 O   0  0  0  0  0  0  0  0  0  0  0  0
  2  1  1  6
  2  3  1  0
  4  3  1  0
  5  4  1  0
  6  5  2  0
  7  2  1  0
  7  8  2  0
  9  5  1  0
 11 10  1  1
 11 12  1  0
 11 13  1  0
 13 14  1  6
 14  7  1  0
 15 13  1  0
 16 15  2  0
 17 15  1  0
 18 17  1  0
 18 21  1  0
 19 20  1  0
 18 19  1  1
 21 22  1  0
 23 21  2  0
M  END
$$$$
