QPM.pdb
     RDKit          3D

 25 25  0  0  1  0  0  0  0  0999 V2000
    7.8626  -20.3323   23.7099 N   0  0  0  0  0  0  0  0  0  0  0  0
    7.2615  -19.5734   22.6754 C   0  0  0  0  0  0  0  0  0  0  0  0
    6.0297  -19.3847   22.6961 O   0  0  0  0  0  0  0  0  0  0  0  0
    8.0908  -19.0171   21.5987 C   0  0  0  0  0  0  0  0  0  0  0  0
    7.5409  -17.8808   20.8355 C   0  0  0  0  0  0  0  0  0  0  0  0
    8.4998  -16.7646   20.4885 C   0  0  2  0  0  0  0  0  0  0  0  0
    9.4384  -17.1274   19.4947 N   0  0  0  0  0  0  0  0  0  0  0  0
    9.1055  -16.1585   21.6859 C   0  0  0  0  0  0  0  0  0  0  0  0
   10.4128  -16.2090   21.6495 O   0  0  0  0  0  0  0  0  0  0  0  0
    8.4677  -15.5883   22.7594 N   0  0  0  0  0  0  0  0  0  0  0  0
    7.1104  -15.3556   23.0897 C   0  0  0  0  0  0  0  0  0  0  0  0
    7.1697  -13.8217   23.3324 C   0  0  0  0  0  0  0  0  0  0  0  0
    8.4844  -13.7178   24.1251 C   0  0  0  0  0  0  0  0  0  0  0  0
    9.2020  -15.0246   23.9137 C   0  0  1  0  0  0  0  0  0  0  0  0
    9.2183  -15.9268   25.0608 C   0  0  0  0  0  0  0  0  0  0  0  0
    8.6080  -17.0298   24.9274 O   0  0  0  0  0  0  0  0  0  0  0  0
   10.4647  -12.7359   28.2951 C   0  0  0  0  0  0  0  0  0  0  0  0
   11.2513  -13.8553   29.4762 S   0  0  0  0  0  0  0  0  0  0  0  0
   10.8282  -15.5807   29.1546 C   0  0  0  0  0  0  0  0  0  0  0  0
   11.5977  -16.0497   27.9611 C   0  0  0  0  0  0  0  0  0  0  0  0
   10.7185  -16.6984   26.9592 C   0  0  2  0  0  0  0  0  0  0  0  0
    9.8457  -15.6966   26.3117 N   0  0  0  0  0  0  0  0  0  0  0  0
    9.9210  -17.7759   27.5257 C   0  0  0  0  0  0  0  0  0  0  0  0
    8.6961  -17.7290   27.7102 O   0  0  0  0  0  0  0  0  0  0  0  0
   10.5313  -18.9929   27.9145 O   0  0  0  0  0  0  0  0  0  0  0  0
  2  1  1  0
  3  2  2  0
  4  2  1  0
  5  4  1  0
  6  7  1  6
  6  8  1  0
  6  5  1  0
  8  9  2  0
 10 11  1  0
 10  8  1  0
 11 12  1  0
 13 12  1  0
 14 13  1  0
 14 10  1  0
 14 15  1  1
 16 15  2  0
 18 17  1  0
 19 18  1  0
 20 19  1  0
 21 20  1  1
 21 22  1  0
 22 15  1  0
 23 25  1  0
 23 21  1  0
 24 23  2  0
M  END
$$$$
