QPM.pdb
     RDKit          3D

 25 25  0  0  1  0  0  0  0  0999 V2000
    7.1526  -20.7355   19.6418 N   0  0  0  0  0  0  0  0  0  0  0  0
    8.3192  -20.4728   20.4017 C   0  0  0  0  0  0  0  0  0  0  0  0
    8.6562  -21.2732   21.2956 O   0  0  0  0  0  0  0  0  0  0  0  0
    9.1165  -19.2705   20.1274 C   0  0  0  0  0  0  0  0  0  0  0  0
    8.6653  -18.3913   19.0322 C   0  0  0  0  0  0  0  0  0  0  0  0
    9.4599  -17.1257   18.8025 C   0  0  2  0  0  0  0  0  0  0  0  0
   10.7506  -17.3677   18.2774 N   0  0  0  0  0  0  0  0  0  0  0  0
    9.4528  -16.2424   19.9804 C   0  0  0  0  0  0  0  0  0  0  0  0
   10.6573  -16.0569   20.4578 O   0  0  0  0  0  0  0  0  0  0  0  0
    8.3741  -15.6412   20.5799 N   0  0  0  0  0  0  0  0  0  0  0  0
    6.9872  -15.5976   20.2971 C   0  0  0  0  0  0  0  0  0  0  0  0
    6.7919  -14.0571   20.2316 C   0  0  0  0  0  0  0  0  0  0  0  0
    7.6400  -13.6192   21.4383 C   0  0  0  0  0  0  0  0  0  0  0  0
    8.5027  -14.8019   21.7916 C   0  0  1  0  0  0  0  0  0  0  0  0
    8.1264  -15.5147   23.0082 C   0  0  0  0  0  0  0  0  0  0  0  0
    8.1235  -16.7809   22.9493 O   0  0  0  0  0  0  0  0  0  0  0  0
   10.3396  -13.9595   30.3530 C   0  0  0  0  0  0  0  0  0  0  0  0
    9.7499  -13.4502   28.7221 S   0  0  0  0  0  0  0  0  0  0  0  0
    9.1350  -14.8490   27.7604 C   0  0  0  0  0  0  0  0  0  0  0  0
    8.7216  -14.3586   26.4095 C   0  0  0  0  0  0  0  0  0  0  0  0
    8.2447  -15.4642   25.5446 C   0  0  2  0  0  0  0  0  0  0  0  0
    7.7617  -14.9370   24.2510 N   0  0  0  0  0  0  0  0  0  0  0  0
    7.2137  -16.2703   26.1809 C   0  0  0  0  0  0  0  0  0  0  0  0
    5.9963  -16.0475   26.1106 O   0  0  0  0  0  0  0  0  0  0  0  0
    7.5633  -17.4061   26.9507 O   0  0  0  0  0  0  0  0  0  0  0  0
  2  1  1  0
  3  2  2  0
  4  2  1  0
  5  4  1  0
  6  7  1  1
  6  8  1  0
  6  5  1  0
  8  9  2  0
 10 11  1  0
 10  8  1  0
 11 12  1  0
 13 12  1  0
 14 13  1  0
 14 10  1  0
 14 15  1  1
 16 15  2  0
 18 17  1  0
 19 18  1  0
 20 19  1  0
 21 20  1  1
 21 22  1  0
 22 15  1  0
 23 25  1  0
 23 21  1  0
 24 23  2  0
M  END
$$$$
