QPM.pdb
     RDKit          3D

 25 25  0  0  1  0  0  0  0  0999 V2000
    5.7511  -19.9343   19.9128 N   0  0  0  0  0  0  0  0  0  0  0  0
    7.0660  -20.0095   20.4350 C   0  0  0  0  0  0  0  0  0  0  0  0
    7.3214  -20.8467   21.3222 O   0  0  0  0  0  0  0  0  0  0  0  0
    8.1086  -19.1093   19.9261 C   0  0  0  0  0  0  0  0  0  0  0  0
    7.7030  -18.0869   18.9432 C   0  0  0  0  0  0  0  0  0  0  0  0
    8.7639  -17.1022   18.5064 C   0  0  2  0  0  0  0  0  0  0  0  0
    9.8947  -17.7241   17.9279 N   0  0  0  0  0  0  0  0  0  0  0  0
    9.0941  -16.1336   19.5650 C   0  0  0  0  0  0  0  0  0  0  0  0
   10.3281  -16.2671   19.9802 O   0  0  0  0  0  0  0  0  0  0  0  0
    8.2819  -15.1740   20.1162 N   0  0  0  0  0  0  0  0  0  0  0  0
    6.9399  -14.7763   19.9007 C   0  0  0  0  0  0  0  0  0  0  0  0
    7.1689  -13.2681   19.6036 C   0  0  0  0  0  0  0  0  0  0  0  0
    8.2127  -12.9291   20.6818 C   0  0  0  0  0  0  0  0  0  0  0  0
    8.7474  -14.2486   21.1726 C   0  0  1  0  0  0  0  0  0  0  0  0
    8.3049  -14.6513   22.5037 C   0  0  0  0  0  0  0  0  0  0  0  0
    7.2174  -15.2990   22.5714 O   0  0  0  0  0  0  0  0  0  0  0  0
    6.1054  -11.3740   28.5024 C   0  0  0  0  0  0  0  0  0  0  0  0
    6.6929  -11.5432   26.8015 S   0  0  0  0  0  0  0  0  0  0  0  0
    6.3121  -13.1691   26.1153 C   0  0  0  0  0  0  0  0  0  0  0  0
    7.0717  -13.3417   24.8387 C   0  0  0  0  0  0  0  0  0  0  0  0
    8.2378  -14.2411   25.0092 C   0  0  2  0  0  0  0  0  0  0  0  0
    8.9656  -14.3917   23.7315 N   0  0  0  0  0  0  0  0  0  0  0  0
    7.8685  -15.5449   25.5397 C   0  0  0  0  0  0  0  0  0  0  0  0
    7.0962  -16.3416   24.9871 O   0  0  0  0  0  0  0  0  0  0  0  0
    8.3973  -15.9939   26.7741 O   0  0  0  0  0  0  0  0  0  0  0  0
  2  1  1  0
  3  2  2  0
  4  2  1  0
  5  4  1  0
  6  7  1  1
  6  8  1  0
  6  5  1  0
  8  9  2  0
 10 11  1  0
 10  8  1  0
 11 12  1  0
 13 12  1  0
 14 13  1  0
 14 10  1  0
 14 15  1  1
 16 15  2  0
 18 17  1  0
 19 18  1  0
 20 19  1  0
 21 20  1  6
 21 22  1  0
 22 15  1  0
 23 25  1  0
 23 21  1  0
 24 23  2  0
M  END
$$$$
