QPM.pdb
     RDKit          3D

 25 25  0  0  1  0  0  0  0  0999 V2000
    3.8756  -18.6637   20.0189 N   0  0  0  0  0  0  0  0  0  0  0  0
    5.0119  -19.1475   20.7133 C   0  0  0  0  0  0  0  0  0  0  0  0
    4.8527  -19.9312   21.6693 O   0  0  0  0  0  0  0  0  0  0  0  0
    6.3567  -18.7269   20.2999 C   0  0  0  0  0  0  0  0  0  0  0  0
    6.4532  -17.6973   19.2480 C   0  0  0  0  0  0  0  0  0  0  0  0
    7.8437  -17.2543   18.8529 C   0  0  2  0  0  0  0  0  0  0  0  0
    8.6844  -18.3291   18.4809 N   0  0  0  0  0  0  0  0  0  0  0  0
    8.4423  -16.3471   19.8461 C   0  0  0  0  0  0  0  0  0  0  0  0
    9.6761  -16.6796   20.1289 O   0  0  0  0  0  0  0  0  0  0  0  0
    7.8633  -15.2635   20.4585 N   0  0  0  0  0  0  0  0  0  0  0  0
    6.5748  -14.6776   20.4128 C   0  0  0  0  0  0  0  0  0  0  0  0
    6.9712  -13.2284   20.0153 C   0  0  0  0  0  0  0  0  0  0  0  0
    8.1973  -13.0188   20.9209 C   0  0  0  0  0  0  0  0  0  0  0  0
    8.6035  -14.3891   21.3949 C   0  0  1  0  0  0  0  0  0  0  0  0
    8.3049  -14.6863   22.7921 C   0  0  0  0  0  0  0  0  0  0  0  0
    7.1570  -15.1629   23.0410 O   0  0  0  0  0  0  0  0  0  0  0  0
    6.4129  -10.6104   27.5377 C   0  0  0  0  0  0  0  0  0  0  0  0
    6.2571  -12.0276   26.4268 S   0  0  0  0  0  0  0  0  0  0  0  0
    7.5904  -13.2212   26.6655 C   0  0  0  0  0  0  0  0  0  0  0  0
    7.4666  -14.2932   25.6301 C   0  0  0  0  0  0  0  0  0  0  0  0
    8.7844  -14.8745   25.2790 C   0  0  2  0  0  0  0  0  0  0  0  0
    9.1664  -14.4954   23.9024 N   0  0  0  0  0  0  0  0  0  0  0  0
    8.8198  -16.3209   25.4355 C   0  0  0  0  0  0  0  0  0  0  0  0
    8.1222  -17.1200   24.7941 O   0  0  0  0  0  0  0  0  0  0  0  0
    9.6947  -16.9205   26.3734 O   0  0  0  0  0  0  0  0  0  0  0  0
  2  1  1  0
  3  2  2  0
  4  2  1  0
  5  4  1  0
  6  7  1  1
  6  8  1  0
  6  5  1  0
  8  9  2  0
 10 11  1  0
 10  8  1  0
 11 12  1  0
 13 12  1  0
 14 13  1  0
 14 10  1  0
 14 15  1  1
 16 15  2  0
 18 17  1  0
 19 18  1  0
 20 19  1  0
 21 20  1  6
 21 22  1  0
 22 15  1  0
 23 25  1  0
 23 21  1  0
 24 23  2  0
M  END
$$$$
