QPM.pdb
     RDKit          3D

 25 25  0  0  1  0  0  0  0  0999 V2000
   15.1114  -18.3442   19.5053 N   0  0  0  0  0  0  0  0  0  0  0  0
   14.1823  -17.7119   18.6425 C   0  0  0  0  0  0  0  0  0  0  0  0
   14.3987  -16.5436   18.2665 O   0  0  0  0  0  0  0  0  0  0  0  0
   12.9839  -18.4360   18.1997 C   0  0  0  0  0  0  0  0  0  0  0  0
   11.6746  -17.8134   18.4716 C   0  0  0  0  0  0  0  0  0  0  0  0
   10.9321  -18.2947   19.6975 C   0  0  2  0  0  0  0  0  0  0  0  0
   10.0114  -19.3312   19.4180 N   0  0  0  0  0  0  0  0  0  0  0  0
   10.3584  -17.1827   20.4733 C   0  0  0  0  0  0  0  0  0  0  0  0
   11.1879  -16.1746   20.5668 O   0  0  0  0  0  0  0  0  0  0  0  0
    9.1218  -17.1145   21.0656 N   0  0  0  0  0  0  0  0  0  0  0  0
    8.0346  -18.0142   21.1834 C   0  0  0  0  0  0  0  0  0  0  0  0
    6.9082  -17.1279   20.5825 C   0  0  0  0  0  0  0  0  0  0  0  0
    7.2393  -15.7766   21.2395 C   0  0  0  0  0  0  0  0  0  0  0  0
    8.6427  -15.9048   21.7702 C   0  0  1  0  0  0  0  0  0  0  0  0
    8.7595  -16.0192   23.2204 C   0  0  0  0  0  0  0  0  0  0  0  0
    8.8821  -17.1895   23.6920 O   0  0  0  0  0  0  0  0  0  0  0  0
    5.5739  -11.1526   26.8009 C   0  0  0  0  0  0  0  0  0  0  0  0
    7.1928  -11.9008   27.0943 S   0  0  0  0  0  0  0  0  0  0  0  0
    7.4588  -13.3585   26.0628 C   0  0  0  0  0  0  0  0  0  0  0  0
    8.8173  -13.9116   26.3540 C   0  0  0  0  0  0  0  0  0  0  0  0
    9.0839  -15.1506   25.5847 C   0  0  2  0  0  0  0  0  0  0  0  0
    8.7485  -14.9557   24.1585 N   0  0  0  0  0  0  0  0  0  0  0  0
    8.3783  -16.3059   26.1188 C   0  0  0  0  0  0  0  0  0  0  0  0
    8.7031  -16.9226   27.1438 O   0  0  0  0  0  0  0  0  0  0  0  0
    7.2285  -16.8106   25.4645 O   0  0  0  0  0  0  0  0  0  0  0  0
  2  1  1  0
  3  2  2  0
  4  2  1  0
  5  4  1  0
  6  7  1  6
  6  8  1  0
  6  5  1  0
  8  9  2  0
 10 11  1  0
 10  8  1  0
 11 12  1  0
 13 12  1  0
 14 13  1  0
 14 10  1  0
 14 15  1  1
 16 15  2  0
 18 17  1  0
 19 18  1  0
 20 19  1  0
 21 20  1  1
 21 22  1  0
 22 15  1  0
 23 25  1  0
 23 21  1  0
 24 23  2  0
M  END
$$$$
