QPM.pdb
     RDKit          3D

 25 25  0  0  1  0  0  0  0  0999 V2000
    4.3694  -20.6004   22.9849 N   0  0  0  0  0  0  0  0  0  0  0  0
    5.7734  -20.7137   22.8322 C   0  0  0  0  0  0  0  0  0  0  0  0
    6.4441  -21.2390   23.7419 O   0  0  0  0  0  0  0  0  0  0  0  0
    6.4194  -20.2184   21.6099 C   0  0  0  0  0  0  0  0  0  0  0  0
    7.4951  -19.2212   21.7663 C   0  0  0  0  0  0  0  0  0  0  0  0
    7.8545  -18.4084   20.5432 C   0  0  2  0  0  0  0  0  0  0  0  0
    8.5132  -19.1658   19.5468 N   0  0  0  0  0  0  0  0  0  0  0  0
    8.5441  -17.1549   20.8906 C   0  0  0  0  0  0  0  0  0  0  0  0
    9.8322  -17.2302   20.6715 O   0  0  0  0  0  0  0  0  0  0  0  0
    7.9966  -15.9989   21.3890 N   0  0  0  0  0  0  0  0  0  0  0  0
    6.6889  -15.6129   21.7717 C   0  0  0  0  0  0  0  0  0  0  0  0
    6.5254  -14.3542   20.8747 C   0  0  0  0  0  0  0  0  0  0  0  0
    7.9118  -13.7098   21.0471 C   0  0  0  0  0  0  0  0  0  0  0  0
    8.7978  -14.7786   21.6304 C   0  0  1  0  0  0  0  0  0  0  0  0
    9.1474  -14.6083   23.0370 C   0  0  0  0  0  0  0  0  0  0  0  0
   10.0568  -13.7654   23.3005 O   0  0  0  0  0  0  0  0  0  0  0  0
    6.7200  -11.3072   26.9904 C   0  0  0  0  0  0  0  0  0  0  0  0
    6.0149  -12.9572   27.2075 S   0  0  0  0  0  0  0  0  0  0  0  0
    6.8042  -14.1744   26.1328 C   0  0  0  0  0  0  0  0  0  0  0  0
    8.2806  -13.9365   26.1405 C   0  0  0  0  0  0  0  0  0  0  0  0
    9.0235  -15.0659   25.5321 C   0  0  2  0  0  0  0  0  0  0  0  0
    8.5755  -15.2899   24.1414 N   0  0  0  0  0  0  0  0  0  0  0  0
    8.9111  -16.2935   26.3054 C   0  0  0  0  0  0  0  0  0  0  0  0
    8.3459  -17.3261   25.9170 O   0  0  0  0  0  0  0  0  0  0  0  0
    9.4683  -16.3775   27.6044 O   0  0  0  0  0  0  0  0  0  0  0  0
  2  1  1  0
  3  2  2  0
  4  2  1  0
  5  4  1  0
  6  7  1  6
  6  8  1  0
  6  5  1  0
  8  9  2  0
 10 11  1  0
 10  8  1  0
 11 12  1  0
 13 12  1  0
 14 13  1  0
 14 10  1  0
 14 15  1  1
 16 15  2  0
 18 17  1  0
 19 18  1  0
 20 19  1  0
 21 20  1  1
 21 22  1  0
 22 15  1  0
 23 25  1  0
 23 21  1  0
 24 23  2  0
M  END
$$$$
