QPM.pdb
     RDKit          3D

 25 25  0  0  1  0  0  0  0  0999 V2000
    5.1117  -19.8442   23.3805 N   0  0  0  0  0  0  0  0  0  0  0  0
    6.5263  -19.8621   23.4580 C   0  0  0  0  0  0  0  0  0  0  0  0
    7.0737  -20.2968   24.4898 O   0  0  0  0  0  0  0  0  0  0  0  0
    7.3278  -19.3757   22.3278 C   0  0  0  0  0  0  0  0  0  0  0  0
    6.6044  -18.7830   21.1870 C   0  0  0  0  0  0  0  0  0  0  0  0
    7.4459  -18.1924   20.0785 C   0  0  2  0  0  0  0  0  0  0  0  0
    8.1135  -19.1713   19.3062 N   0  0  0  0  0  0  0  0  0  0  0  0
    8.3247  -17.1141   20.5608 C   0  0  0  0  0  0  0  0  0  0  0  0
    9.5902  -17.4178   20.4221 O   0  0  0  0  0  0  0  0  0  0  0  0
    7.9616  -15.9071   21.1047 N   0  0  0  0  0  0  0  0  0  0  0  0
    6.7325  -15.3489   21.5329 C   0  0  0  0  0  0  0  0  0  0  0  0
    6.7321  -14.0531   20.6749 C   0  0  0  0  0  0  0  0  0  0  0  0
    8.2007  -13.6203   20.8269 C   0  0  0  0  0  0  0  0  0  0  0  0
    8.9361  -14.8227   21.3571 C   0  0  1  0  0  0  0  0  0  0  0  0
    9.3387  -14.7474   22.7578 C   0  0  0  0  0  0  0  0  0  0  0  0
    9.9983  -13.7228   23.1071 O   0  0  0  0  0  0  0  0  0  0  0  0
    7.0984  -10.8624   26.6966 C   0  0  0  0  0  0  0  0  0  0  0  0
    6.2679  -12.4611   26.5511 S   0  0  0  0  0  0  0  0  0  0  0  0
    7.4368  -13.8359   26.6088 C   0  0  0  0  0  0  0  0  0  0  0  0
    7.7111  -14.2923   25.2114 C   0  0  0  0  0  0  0  0  0  0  0  0
    8.7779  -15.3208   25.1675 C   0  0  2  0  0  0  0  0  0  0  0  0
    9.0696  -15.7036   23.7700 N   0  0  0  0  0  0  0  0  0  0  0  0
    8.4556  -16.4983   25.9596 C   0  0  0  0  0  0  0  0  0  0  0  0
    8.3364  -16.5111   27.1934 O   0  0  0  0  0  0  0  0  0  0  0  0
    8.2513  -17.7514   25.3329 O   0  0  0  0  0  0  0  0  0  0  0  0
  2  1  1  0
  3  2  2  0
  4  2  1  0
  5  4  1  0
  6  7  1  1
  6  8  1  0
  6  5  1  0
  8  9  2  0
 10 11  1  0
 10  8  1  0
 11 12  1  0
 13 12  1  0
 14 13  1  0
 14 10  1  0
 14 15  1  1
 16 15  2  0
 18 17  1  0
 19 18  1  0
 20 19  1  0
 21 20  1  6
 21 22  1  0
 22 15  1  0
 23 25  1  0
 23 21  1  0
 24 23  2  0
M  END
$$$$
