QPM.pdb
     RDKit          3D

 25 25  0  0  1  0  0  0  0  0999 V2000
    9.1177  -21.0352   19.5346 N   0  0  0  0  0  0  0  0  0  0  0  0
    9.2001  -20.4664   20.8297 C   0  0  0  0  0  0  0  0  0  0  0  0
    8.5726  -20.9952   21.7676 O   0  0  0  0  0  0  0  0  0  0  0  0
   10.0219  -19.2700   21.0530 C   0  0  0  0  0  0  0  0  0  0  0  0
   10.7320  -18.7066   19.8893 C   0  0  0  0  0  0  0  0  0  0  0  0
   10.1883  -17.4169   19.3175 C   0  0  2  0  0  0  0  0  0  0  0  0
   10.9724  -16.9050   18.2577 N   0  0  0  0  0  0  0  0  0  0  0  0
    9.8851  -16.4276   20.3649 C   0  0  0  0  0  0  0  0  0  0  0  0
   10.9667  -15.8359   20.8043 O   0  0  0  0  0  0  0  0  0  0  0  0
    8.6588  -16.0958   20.8850 N   0  0  0  0  0  0  0  0  0  0  0  0
    7.3439  -16.5878   20.6996 C   0  0  0  0  0  0  0  0  0  0  0  0
    6.6350  -15.2653   20.2947 C   0  0  0  0  0  0  0  0  0  0  0  0
    7.2680  -14.2920   21.3043 C   0  0  0  0  0  0  0  0  0  0  0  0
    8.4784  -14.9961   21.8583 C   0  0  1  0  0  0  0  0  0  0  0  0
    8.3536  -15.4781   23.2301 C   0  0  0  0  0  0  0  0  0  0  0  0
    7.9415  -16.6672   23.3813 O   0  0  0  0  0  0  0  0  0  0  0  0
    5.7856  -11.1897   26.3461 C   0  0  0  0  0  0  0  0  0  0  0  0
    6.4470  -12.7930   26.8547 S   0  0  0  0  0  0  0  0  0  0  0  0
    8.1497  -13.0262   26.3014 C   0  0  0  0  0  0  0  0  0  0  0  0
    8.6443  -14.3424   26.8107 C   0  0  0  0  0  0  0  0  0  0  0  0
    8.6386  -15.3799   25.7518 C   0  0  2  0  0  0  0  0  0  0  0  0
    8.6445  -14.7526   24.4135 N   0  0  0  0  0  0  0  0  0  0  0  0
    7.5196  -16.3021   25.8752 C   0  0  0  0  0  0  0  0  0  0  0  0
    6.5250  -16.3120   25.1355 O   0  0  0  0  0  0  0  0  0  0  0  0
    7.5073  -17.2838   26.8955 O   0  0  0  0  0  0  0  0  0  0  0  0
  2  1  1  0
  3  2  2  0
  4  2  1  0
  5  4  1  0
  6  7  1  6
  6  8  1  0
  6  5  1  0
  8  9  2  0
 10 11  1  0
 10  8  1  0
 11 12  1  0
 13 12  1  0
 14 13  1  0
 14 10  1  0
 14 15  1  1
 16 15  2  0
 18 17  1  0
 19 18  1  0
 20 19  1  0
 21 20  1  1
 21 22  1  0
 22 15  1  0
 23 25  1  0
 23 21  1  0
 24 23  2  0
M  END
$$$$
