QPM.pdb
     RDKit          3D

 25 25  0  0  1  0  0  0  0  0999 V2000
    8.3419  -21.1696   21.5411 N   0  0  0  0  0  0  0  0  0  0  0  0
    9.2855  -20.1931   21.9452 C   0  0  0  0  0  0  0  0  0  0  0  0
    9.4591  -19.9811   23.1610 O   0  0  0  0  0  0  0  0  0  0  0  0
   10.0474  -19.4486   20.9345 C   0  0  0  0  0  0  0  0  0  0  0  0
    9.3146  -18.9712   19.7466 C   0  0  0  0  0  0  0  0  0  0  0  0
    9.7218  -17.6261   19.1892 C   0  0  2  0  0  0  0  0  0  0  0  0
   10.9298  -17.6716   18.4551 N   0  0  0  0  0  0  0  0  0  0  0  0
    9.6860  -16.5662   20.2105 C   0  0  0  0  0  0  0  0  0  0  0  0
   10.8825  -16.1116   20.4834 O   0  0  0  0  0  0  0  0  0  0  0  0
    8.5895  -16.0510   20.8561 N   0  0  0  0  0  0  0  0  0  0  0  0
    7.2101  -16.3712   20.8643 C   0  0  0  0  0  0  0  0  0  0  0  0
    6.6276  -14.9855   20.4692 C   0  0  0  0  0  0  0  0  0  0  0  0
    7.5044  -14.0609   21.3316 C   0  0  0  0  0  0  0  0  0  0  0  0
    8.6777  -14.8944   21.7746 C   0  0  1  0  0  0  0  0  0  0  0  0
    8.6722  -15.2934   23.1784 C   0  0  0  0  0  0  0  0  0  0  0  0
    8.0045  -16.3295   23.4741 O   0  0  0  0  0  0  0  0  0  0  0  0
    5.1245  -11.6264   26.6640 C   0  0  0  0  0  0  0  0  0  0  0  0
    6.7802  -12.2005   27.1066 S   0  0  0  0  0  0  0  0  0  0  0  0
    7.3260  -13.5615   26.0533 C   0  0  0  0  0  0  0  0  0  0  0  0
    8.6827  -14.0021   26.5021 C   0  0  0  0  0  0  0  0  0  0  0  0
    9.2175  -15.0915   25.6507 C   0  0  2  0  0  0  0  0  0  0  0  0
    9.3362  -14.6405   24.2481 N   0  0  0  0  0  0  0  0  0  0  0  0
    8.4205  -16.3067   25.7273 C   0  0  0  0  0  0  0  0  0  0  0  0
    8.4095  -17.0869   26.6905 O   0  0  0  0  0  0  0  0  0  0  0  0
    7.5751  -16.6799   24.6546 O   0  0  0  0  0  0  0  0  0  0  0  0
  2  1  1  0
  3  2  2  0
  4  2  1  0
  5  4  1  0
  6  7  1  1
  6  8  1  0
  6  5  1  0
  8  9  2  0
 10 11  1  0
 10  8  1  0
 11 12  1  0
 13 12  1  0
 14 13  1  0
 14 10  1  0
 14 15  1  1
 16 15  2  0
 18 17  1  0
 19 18  1  0
 20 19  1  0
 21 20  1  1
 21 22  1  0
 22 15  1  0
 23 25  1  0
 23 21  1  0
 24 23  2  0
M  END
$$$$
