QPM.pdb
     RDKit          3D

 25 25  0  0  1  0  0  0  0  0999 V2000
    7.0048  -21.7214   19.3778 N   0  0  0  0  0  0  0  0  0  0  0  0
    7.9943  -21.3802   20.3328 C   0  0  0  0  0  0  0  0  0  0  0  0
    8.8298  -22.2388   20.6766 O   0  0  0  0  0  0  0  0  0  0  0  0
    8.0279  -20.0265   20.9008 C   0  0  0  0  0  0  0  0  0  0  0  0
    9.2968  -19.2805   20.8042 C   0  0  0  0  0  0  0  0  0  0  0  0
    9.2811  -18.0120   19.9816 C   0  0  2  0  0  0  0  0  0  0  0  0
   10.1577  -18.0581   18.8727 N   0  0  0  0  0  0  0  0  0  0  0  0
    9.4368  -16.8071   20.8133 C   0  0  0  0  0  0  0  0  0  0  0  0
   10.6958  -16.5300   21.0391 O   0  0  0  0  0  0  0  0  0  0  0  0
    8.4509  -16.0076   21.3362 N   0  0  0  0  0  0  0  0  0  0  0  0
    7.0359  -16.0249   21.2821 C   0  0  0  0  0  0  0  0  0  0  0  0
    6.7878  -14.5948   20.7265 C   0  0  0  0  0  0  0  0  0  0  0  0
    7.8052  -13.7946   21.5583 C   0  0  0  0  0  0  0  0  0  0  0  0
    8.7475  -14.8087   22.1509 C   0  0  1  0  0  0  0  0  0  0  0  0
    8.5920  -15.0522   23.5814 C   0  0  0  0  0  0  0  0  0  0  0  0
    7.6799  -15.8622   23.9261 O   0  0  0  0  0  0  0  0  0  0  0  0
    5.7889  -10.7522   26.2546 C   0  0  0  0  0  0  0  0  0  0  0  0
    6.0366  -12.5414   26.1927 S   0  0  0  0  0  0  0  0  0  0  0  0
    7.7152  -13.0066   26.6677 C   0  0  0  0  0  0  0  0  0  0  0  0
    7.8563  -14.4901   26.5427 C   0  0  0  0  0  0  0  0  0  0  0  0
    9.1972  -14.8754   26.0416 C   0  0  2  0  0  0  0  0  0  0  0  0
    9.3555  -14.4746   24.6277 N   0  0  0  0  0  0  0  0  0  0  0  0
    9.4689  -16.2963   26.1999 C   0  0  0  0  0  0  0  0  0  0  0  0
    9.4005  -16.9155   27.2716 O   0  0  0  0  0  0  0  0  0  0  0  0
    9.8434  -17.0844   25.0847 O   0  0  0  0  0  0  0  0  0  0  0  0
  2  1  1  0
  3  2  2  0
  4  2  1  0
  5  4  1  0
  6  7  1  6
  6  8  1  0
  6  5  1  0
  8  9  2  0
 10 11  1  0
 10  8  1  0
 11 12  1  0
 13 12  1  0
 14 13  1  0
 14 10  1  0
 14 15  1  1
 16 15  2  0
 18 17  1  0
 19 18  1  0
 20 19  1  0
 21 20  1  6
 21 22  1  0
 22 15  1  0
 23 25  1  0
 23 21  1  0
 24 23  2  0
M  END
$$$$
