QPM.pdb
     RDKit          3D

 25 25  0  0  1  0  0  0  0  0999 V2000
    3.4279  -18.2676   21.0951 N   0  0  0  0  0  0  0  0  0  0  0  0
    4.7480  -18.2512   21.6094 C   0  0  0  0  0  0  0  0  0  0  0  0
    4.9246  -18.0446   22.8258 O   0  0  0  0  0  0  0  0  0  0  0  0
    5.8868  -18.4803   20.7111 C   0  0  0  0  0  0  0  0  0  0  0  0
    5.9340  -17.6988   19.4610 C   0  0  0  0  0  0  0  0  0  0  0  0
    7.3034  -17.3137   18.9489 C   0  0  2  0  0  0  0  0  0  0  0  0
    8.0342  -18.4114   18.4376 N   0  0  0  0  0  0  0  0  0  0  0  0
    8.0532  -16.5010   19.9210 C   0  0  0  0  0  0  0  0  0  0  0  0
    9.2007  -17.0482   20.2318 O   0  0  0  0  0  0  0  0  0  0  0  0
    7.6822  -15.3081   20.4902 N   0  0  0  0  0  0  0  0  0  0  0  0
    6.5002  -14.5285   20.4630 C   0  0  0  0  0  0  0  0  0  0  0  0
    7.0970  -13.1838   19.9620 C   0  0  0  0  0  0  0  0  0  0  0  0
    8.3853  -13.1234   20.8010 C   0  0  0  0  0  0  0  0  0  0  0  0
    8.5965  -14.5136   21.3399 C   0  0  1  0  0  0  0  0  0  0  0  0
    8.3267  -14.6846   22.7639 C   0  0  0  0  0  0  0  0  0  0  0  0
    7.1491  -15.0273   23.0840 O   0  0  0  0  0  0  0  0  0  0  0  0
    5.8172  -10.8345   27.2538 C   0  0  0  0  0  0  0  0  0  0  0  0
    5.9283  -12.5565   26.7162 S   0  0  0  0  0  0  0  0  0  0  0  0
    7.5601  -12.9518   26.0525 C   0  0  0  0  0  0  0  0  0  0  0  0
    7.5519  -14.3665   25.5677 C   0  0  0  0  0  0  0  0  0  0  0  0
    8.9152  -14.8406   25.2296 C   0  0  2  0  0  0  0  0  0  0  0  0
    9.2463  -14.5054   23.8286 N   0  0  0  0  0  0  0  0  0  0  0  0
    9.0883  -16.2663   25.4649 C   0  0  0  0  0  0  0  0  0  0  0  0
    8.5495  -17.1643   24.8017 O   0  0  0  0  0  0  0  0  0  0  0  0
    9.9214  -16.7249   26.5139 O   0  0  0  0  0  0  0  0  0  0  0  0
  2  1  1  0
  3  2  2  0
  4  2  1  0
  5  4  1  0
  6  7  1  1
  6  8  1  0
  6  5  1  0
  8  9  2  0
 10 11  1  0
 10  8  1  0
 11 12  1  0
 13 12  1  0
 14 13  1  0
 14 10  1  0
 14 15  1  1
 16 15  2  0
 18 17  1  0
 19 18  1  0
 20 19  1  0
 21 20  1  6
 21 22  1  0
 22 15  1  0
 23 25  1  0
 23 21  1  0
 24 23  2  0
M  END
$$$$
