QPM.pdb
     RDKit          3D

 25 25  0  0  1  0  0  0  0  0999 V2000
    5.3671  -19.9211   24.1851 N   0  0  0  0  0  0  0  0  0  0  0  0
    6.7675  -20.0216   23.9949 C   0  0  0  0  0  0  0  0  0  0  0  0
    7.4627  -20.5708   24.8715 O   0  0  0  0  0  0  0  0  0  0  0  0
    7.3810  -19.4851   22.7734 C   0  0  0  0  0  0  0  0  0  0  0  0
    6.5000  -18.7781   21.8247 C   0  0  0  0  0  0  0  0  0  0  0  0
    7.1419  -18.2506   20.5615 C   0  0  2  0  0  0  0  0  0  0  0  0
    7.6597  -19.2730   19.7328 N   0  0  0  0  0  0  0  0  0  0  0  0
    8.0981  -17.1648   20.8345 C   0  0  0  0  0  0  0  0  0  0  0  0
    9.3082  -17.4704   20.4407 O   0  0  0  0  0  0  0  0  0  0  0  0
    7.8518  -15.9496   21.4237 N   0  0  0  0  0  0  0  0  0  0  0  0
    6.6992  -15.3354   21.9713 C   0  0  0  0  0  0  0  0  0  0  0  0
    6.6880  -14.0275   21.1318 C   0  0  0  0  0  0  0  0  0  0  0  0
    8.1853  -13.6740   21.1506 C   0  0  0  0  0  0  0  0  0  0  0  0
    8.9017  -14.9214   21.5959 C   0  0  1  0  0  0  0  0  0  0  0  0
    9.4362  -14.8899   22.9536 C   0  0  0  0  0  0  0  0  0  0  0  0
   10.2914  -13.9897   23.2089 O   0  0  0  0  0  0  0  0  0  0  0  0
    5.8391  -11.7691   25.9861 C   0  0  0  0  0  0  0  0  0  0  0  0
    7.0992  -12.6815   26.9061 S   0  0  0  0  0  0  0  0  0  0  0  0
    7.5738  -14.2080   26.0668 C   0  0  0  0  0  0  0  0  0  0  0  0
    9.0596  -14.2216   25.8982 C   0  0  0  0  0  0  0  0  0  0  0  0
    9.5461  -15.5333   25.4079 C   0  0  2  0  0  0  0  0  0  0  0  0
    9.0988  -15.7640   24.0182 N   0  0  0  0  0  0  0  0  0  0  0  0
    9.1384  -16.6385   26.2624 C   0  0  0  0  0  0  0  0  0  0  0  0
    8.3808  -17.5574   25.9187 O   0  0  0  0  0  0  0  0  0  0  0  0
    9.6082  -16.7269   27.5952 O   0  0  0  0  0  0  0  0  0  0  0  0
  2  1  1  0
  3  2  2  0
  4  2  1  0
  5  4  1  0
  6  7  1  1
  6  8  1  0
  6  5  1  0
  8  9  2  0
 10 11  1  0
 10  8  1  0
 11 12  1  0
 13 12  1  0
 14 13  1  0
 14 10  1  0
 14 15  1  1
 16 15  2  0
 18 17  1  0
 19 18  1  0
 20 19  1  0
 21 20  1  1
 21 22  1  0
 22 15  1  0
 23 25  1  0
 23 21  1  0
 24 23  2  0
M  END
$$$$
