QPM.pdb
     RDKit          3D

 25 25  0  0  1  0  0  0  0  0999 V2000
   10.0824  -21.1968   20.8533 N   0  0  0  0  0  0  0  0  0  0  0  0
   10.5393  -20.1497   21.6913 C   0  0  0  0  0  0  0  0  0  0  0  0
   10.8414  -20.4043   22.8734 O   0  0  0  0  0  0  0  0  0  0  0  0
   10.6556  -18.7852   21.1612 C   0  0  0  0  0  0  0  0  0  0  0  0
   10.2203  -18.5573   19.7703 C   0  0  0  0  0  0  0  0  0  0  0  0
   10.2965  -17.1376   19.2559 C   0  0  2  0  0  0  0  0  0  0  0  0
   11.5105  -16.8531   18.5884 N   0  0  0  0  0  0  0  0  0  0  0  0
    9.9405  -16.1512   20.2893 C   0  0  0  0  0  0  0  0  0  0  0  0
   10.9702  -15.4269   20.6472 O   0  0  0  0  0  0  0  0  0  0  0  0
    8.7146  -15.9399   20.8697 N   0  0  0  0  0  0  0  0  0  0  0  0
    7.4287  -16.5055   20.6906 C   0  0  0  0  0  0  0  0  0  0  0  0
    6.6211  -15.2090   20.4037 C   0  0  0  0  0  0  0  0  0  0  0  0
    7.2251  -14.2675   21.4601 C   0  0  0  0  0  0  0  0  0  0  0  0
    8.4979  -14.9248   21.9242 C   0  0  1  0  0  0  0  0  0  0  0  0
    8.4540  -15.5080   23.2613 C   0  0  0  0  0  0  0  0  0  0  0  0
    8.3280  -16.7675   23.3302 O   0  0  0  0  0  0  0  0  0  0  0  0
   11.4900  -13.9543   30.2362 C   0  0  0  0  0  0  0  0  0  0  0  0
    9.9699  -13.7361   29.2830 S   0  0  0  0  0  0  0  0  0  0  0  0
    9.7507  -15.0416   28.0554 C   0  0  0  0  0  0  0  0  0  0  0  0
    9.2100  -14.4348   26.8001 C   0  0  0  0  0  0  0  0  0  0  0  0
    9.0132  -15.4502   25.7380 C   0  0  2  0  0  0  0  0  0  0  0  0
    8.5363  -14.8109   24.4936 N   0  0  0  0  0  0  0  0  0  0  0  0
    8.1074  -16.5156   26.1406 C   0  0  0  0  0  0  0  0  0  0  0  0
    8.4400  -17.5243   26.7798 O   0  0  0  0  0  0  0  0  0  0  0  0
    6.7326  -16.4534   25.8078 O   0  0  0  0  0  0  0  0  0  0  0  0
  2  1  1  0
  3  2  2  0
  4  2  1  0
  5  4  1  0
  6  7  1  1
  6  8  1  0
  6  5  1  0
  8  9  2  0
 10 11  1  0
 10  8  1  0
 11 12  1  0
 13 12  1  0
 14 13  1  0
 14 10  1  0
 14 15  1  1
 16 15  2  0
 18 17  1  0
 19 18  1  0
 20 19  1  0
 21 20  1  1
 21 22  1  0
 22 15  1  0
 23 25  1  0
 23 21  1  0
 24 23  2  0
M  END
$$$$
