KSS.pdb
     RDKit          3D

 22 21  0  0  1  0  0  0  0  0999 V2000
   22.0745  -18.9042  -15.0345 N   0  0  0  0  0  0  0  0  0  0  0  0
   23.2490  -19.8048  -15.0533 C   0  0  1  0  0  0  0  0  0  0  0  0
   22.7320  -21.1709  -14.8477 C   0  0  0  0  0  0  0  0  0  0  0  0
   21.8973  -21.4347  -13.6518 C   0  0  0  0  0  0  0  0  0  0  0  0
   20.4654  -21.0625  -13.7128 C   0  0  0  0  0  0  0  0  0  0  0  0
   19.8002  -21.3640  -12.3828 C   0  0  0  0  0  0  0  0  0  0  0  0
   18.4150  -20.9757  -12.4479 N   0  0  0  0  0  0  0  0  0  0  0  0
   24.0065  -19.5889  -16.2946 C   0  0  0  0  0  0  0  0  0  0  0  0
   25.0034  -20.2655  -16.6425 O   0  0  0  0  0  0  0  0  0  0  0  0
   22.6724  -16.9070  -19.2167 O   0  0  0  0  0  0  0  0  0  0  0  0
   23.3790  -18.0681  -19.5480 C   0  0  0  0  0  0  0  0  0  0  0  0
   24.3686  -18.3968  -18.4541 C   0  0  2  0  0  0  0  0  0  0  0  0
   23.6471  -18.5468  -17.2277 N   0  0  0  0  0  0  0  0  0  0  0  0
   25.4152  -17.3229  -18.3506 C   0  0  0  0  0  0  0  0  0  0  0  0
   25.1469  -16.3236  -17.6680 O   0  0  0  0  0  0  0  0  0  0  0  0
   29.9928  -16.0191  -19.4654 O   0  0  0  0  0  0  0  0  0  0  0  0
   28.9726  -16.9770  -19.4133 C   0  0  0  0  0  0  0  0  0  0  0  0
   27.6770  -16.3849  -18.9421 C   0  0  2  0  0  0  0  0  0  0  0  0
   26.6651  -17.4359  -19.0035 N   0  0  0  0  0  0  0  0  0  0  0  0
   27.3243  -15.2622  -19.8534 C   0  0  0  0  0  0  0  0  0  0  0  0
   27.6703  -13.9561  -19.5398 O   0  0  0  0  0  0  0  0  0  0  0  0
   26.7064  -15.4585  -20.9284 O   0  0  0  0  0  0  0  0  0  0  0  0
  2  1  1  6
  2  3  1  0
  2  8  1  0
  3  4  1  0
  5  6  1  0
  5  4  1  0
  6  7  1  0
  8  9  2  0
 11 10  1  0
 12 11  1  6
 13  8  1  0
 13 12  1  0
 14 12  1  0
 14 19  1  0
 15 14  2  0
 16 17  1  0
 18 19  1  0
 18 17  1  6
 20 18  1  0
 20 21  1  0
 22 20  2  0
M  END
$$$$
