KSS.pdb
     RDKit          3D

 22 21  0  0  1  0  0  0  0  0999 V2000
   22.0166  -13.0929  -19.3251 N   0  0  0  0  0  0  0  0  0  0  0  0
   20.7346  -12.4139  -19.0310 C   0  0  1  0  0  0  0  0  0  0  0  0
   20.1583  -13.0980  -17.8581 C   0  0  0  0  0  0  0  0  0  0  0  0
   19.8089  -14.5330  -17.9818 C   0  0  0  0  0  0  0  0  0  0  0  0
   18.9896  -15.1397  -16.9079 C   0  0  0  0  0  0  0  0  0  0  0  0
   18.6027  -16.5548  -17.2956 C   0  0  0  0  0  0  0  0  0  0  0  0
   17.8125  -17.1349  -16.2407 N   0  0  0  0  0  0  0  0  0  0  0  0
   20.9735  -10.9718  -18.8754 C   0  0  0  0  0  0  0  0  0  0  0  0
   22.0855  -10.4646  -18.5946 O   0  0  0  0  0  0  0  0  0  0  0  0
   19.2710   -6.4753  -19.4731 O   0  0  0  0  0  0  0  0  0  0  0  0
   19.0176   -7.8504  -19.5193 C   0  0  0  0  0  0  0  0  0  0  0  0
   20.1835   -8.6077  -18.9268 C   0  0  2  0  0  0  0  0  0  0  0  0
   19.9101  -10.0079  -19.0359 N   0  0  0  0  0  0  0  0  0  0  0  0
   20.4054   -8.1987  -17.4975 C   0  0  0  0  0  0  0  0  0  0  0  0
   19.6785   -8.7113  -16.6341 O   0  0  0  0  0  0  0  0  0  0  0  0
   23.5763   -5.6171  -16.4673 O   0  0  0  0  0  0  0  0  0  0  0  0
   23.1794   -6.6824  -15.6493 C   0  0  0  0  0  0  0  0  0  0  0  0
   21.7040   -6.9380  -15.7455 C   0  0  2  0  0  0  0  0  0  0  0  0
   21.4040   -7.2638  -17.1369 N   0  0  0  0  0  0  0  0  0  0  0  0
   20.9929   -5.6978  -15.3312 C   0  0  0  0  0  0  0  0  0  0  0  0
   21.0506   -5.2493  -14.0199 O   0  0  0  0  0  0  0  0  0  0  0  0
   20.3221   -5.0214  -16.1487 O   0  0  0  0  0  0  0  0  0  0  0  0
  2  1  1  1
  2  3  1  0
  2  8  1  0
  3  4  1  0
  5  6  1  0
  5  4  1  0
  6  7  1  0
  8  9  2  0
 11 10  1  0
 12 11  1  1
 13  8  1  0
 13 12  1  0
 14 12  1  0
 14 19  1  0
 15 14  2  0
 16 17  1  0
 18 19  1  0
 18 17  1  6
 20 18  1  0
 20 21  1  0
 22 20  2  0
M  END
$$$$
