KSS.pdb
     RDKit          3D

 22 21  0  0  1  0  0  0  0  0999 V2000
   18.3209  -26.2726  -10.4517 N   0  0  0  0  0  0  0  0  0  0  0  0
   18.5510  -25.3419   -9.3239 C   0  0  1  0  0  0  0  0  0  0  0  0
   18.3388  -23.9818   -9.8539 C   0  0  0  0  0  0  0  0  0  0  0  0
   19.0959  -23.5705  -11.0598 C   0  0  0  0  0  0  0  0  0  0  0  0
   18.9950  -22.1573  -11.4904 C   0  0  0  0  0  0  0  0  0  0  0  0
   19.8977  -21.9202  -12.6867 C   0  0  0  0  0  0  0  0  0  0  0  0
   19.0897  -21.5773  -13.8283 N   0  0  0  0  0  0  0  0  0  0  0  0
   17.6939  -25.7277   -8.1936 C   0  0  0  0  0  0  0  0  0  0  0  0
   16.5049  -26.1106   -8.3051 O   0  0  0  0  0  0  0  0  0  0  0  0
   19.1042  -25.3190   -4.3453 O   0  0  0  0  0  0  0  0  0  0  0  0
   18.1142  -26.2908   -4.5265 C   0  0  0  0  0  0  0  0  0  0  0  0
   17.2848  -25.9581   -5.7451 C   0  0  2  0  0  0  0  0  0  0  0  0
   18.1745  -25.6874   -6.8324 N   0  0  0  0  0  0  0  0  0  0  0  0
   16.3836  -24.7880   -5.4653 C   0  0  0  0  0  0  0  0  0  0  0  0
   16.8436  -23.6519   -5.6504 O   0  0  0  0  0  0  0  0  0  0  0  0
   12.5464  -24.3352   -6.4367 O   0  0  0  0  0  0  0  0  0  0  0  0
   12.7699  -24.2766   -5.0554 C   0  0  0  0  0  0  0  0  0  0  0  0
   14.1682  -23.8361   -4.7363 C   0  0  2  0  0  0  0  0  0  0  0  0
   15.0568  -24.9629   -5.0069 N   0  0  0  0  0  0  0  0  0  0  0  0
   14.2171  -23.4626   -3.2964 C   0  0  0  0  0  0  0  0  0  0  0  0
   13.4704  -22.3988   -2.8119 O   0  0  0  0  0  0  0  0  0  0  0  0
   14.9305  -24.0932   -2.4784 O   0  0  0  0  0  0  0  0  0  0  0  0
  2  1  1  6
  2  3  1  0
  2  8  1  0
  3  4  1  0
  5  6  1  0
  5  4  1  0
  6  7  1  0
  8  9  2  0
 11 10  1  0
 12 11  1  1
 13  8  1  0
 13 12  1  0
 14 12  1  0
 14 19  1  0
 15 14  2  0
 16 17  1  0
 18 19  1  0
 18 17  1  1
 20 18  1  0
 20 21  1  0
 22 20  2  0
M  END
$$$$
