KSS.pdb
     RDKit          3D

 22 21  0  0  1  0  0  0  0  0999 V2000
   16.6512  -12.0017  -14.7567 N   0  0  0  0  0  0  0  0  0  0  0  0
   16.1384  -10.8552  -15.5400 C   0  0  1  0  0  0  0  0  0  0  0  0
   14.6782  -11.0372  -15.6412 C   0  0  0  0  0  0  0  0  0  0  0  0
   14.0852  -12.2830  -15.0997 C   0  0  0  0  0  0  0  0  0  0  0  0
   12.9164  -12.1573  -14.1993 C   0  0  0  0  0  0  0  0  0  0  0  0
   12.5101  -13.5285  -13.6922 C   0  0  0  0  0  0  0  0  0  0  0  0
   11.3041  -13.4071  -12.9148 N   0  0  0  0  0  0  0  0  0  0  0  0
   16.5838   -9.6018  -14.9141 C   0  0  0  0  0  0  0  0  0  0  0  0
   16.2277   -8.4586  -15.2870 O   0  0  0  0  0  0  0  0  0  0  0  0
   18.0702   -7.3035  -11.0599 O   0  0  0  0  0  0  0  0  0  0  0  0
   17.6083   -8.4566  -11.7034 C   0  0  0  0  0  0  0  0  0  0  0  0
   17.8864   -8.3638  -13.1859 C   0  0  2  0  0  0  0  0  0  0  0  0
   17.4947   -9.5986  -13.7934 N   0  0  0  0  0  0  0  0  0  0  0  0
   19.3387   -8.0644  -13.4316 C   0  0  0  0  0  0  0  0  0  0  0  0
   20.1541   -8.9776  -13.2366 O   0  0  0  0  0  0  0  0  0  0  0  0
   22.5327   -5.8718  -16.0694 O   0  0  0  0  0  0  0  0  0  0  0  0
   21.2247   -6.1515  -15.6544 C   0  0  0  0  0  0  0  0  0  0  0  0
   21.1678   -6.5116  -14.1990 C   0  0  2  0  0  0  0  0  0  0  0  0
   19.7729   -6.7913  -13.8694 N   0  0  0  0  0  0  0  0  0  0  0  0
   21.6699   -5.3496  -13.4161 C   0  0  0  0  0  0  0  0  0  0  0  0
   23.0160   -5.2309  -13.1035 O   0  0  0  0  0  0  0  0  0  0  0  0
   20.8974   -4.4448  -13.0156 O   0  0  0  0  0  0  0  0  0  0  0  0
  2  1  1  1
  2  3  1  0
  2  8  1  0
  3  4  1  0
  5  6  1  0
  5  4  1  0
  6  7  1  0
  8  9  2  0
 11 10  1  0
 12 11  1  1
 13  8  1  0
 13 12  1  0
 14 12  1  0
 14 19  1  0
 15 14  2  0
 16 17  1  0
 18 19  1  0
 18 17  1  6
 20 18  1  0
 20 21  1  0
 22 20  2  0
M  END
$$$$
