KSS.pdb
     RDKit          3D

 22 21  0  0  1  0  0  0  0  0999 V2000
   18.4171  -12.9113  -15.8816 N   0  0  0  0  0  0  0  0  0  0  0  0
   18.4770  -11.5667  -16.4977 C   0  0  1  0  0  0  0  0  0  0  0  0
   17.0995  -11.0397  -16.4868 C   0  0  0  0  0  0  0  0  0  0  0  0
   16.0688  -11.7479  -17.2823 C   0  0  0  0  0  0  0  0  0  0  0  0
   14.9858  -12.4419  -16.5487 C   0  0  0  0  0  0  0  0  0  0  0  0
   13.9779  -13.0042  -17.5337 C   0  0  0  0  0  0  0  0  0  0  0  0
   12.9545  -13.7135  -16.8102 N   0  0  0  0  0  0  0  0  0  0  0  0
   19.4775  -10.7533  -15.7915 C   0  0  0  0  0  0  0  0  0  0  0  0
   19.6061  -10.7145  -14.5447 O   0  0  0  0  0  0  0  0  0  0  0  0
   22.8675   -9.5720  -17.6861 O   0  0  0  0  0  0  0  0  0  0  0  0
   22.7784   -9.7470  -16.3009 C   0  0  0  0  0  0  0  0  0  0  0  0
   21.4496   -9.2281  -15.8021 C   0  0  2  0  0  0  0  0  0  0  0  0
   20.4087   -9.9122  -16.5062 N   0  0  0  0  0  0  0  0  0  0  0  0
   21.3597   -7.7400  -15.9940 C   0  0  0  0  0  0  0  0  0  0  0  0
   20.8685   -7.3265  -17.0543 O   0  0  0  0  0  0  0  0  0  0  0  0
   21.0347   -5.0330  -12.9458 O   0  0  0  0  0  0  0  0  0  0  0  0
   22.0464   -4.7462  -13.8709 C   0  0  0  0  0  0  0  0  0  0  0  0
   21.7811   -5.3862  -15.2017 C   0  0  2  0  0  0  0  0  0  0  0  0
   21.8155   -6.8332  -15.0084 N   0  0  0  0  0  0  0  0  0  0  0  0
   22.8517   -4.9562  -16.1421 C   0  0  0  0  0  0  0  0  0  0  0  0
   22.9362   -3.6394  -16.5694 O   0  0  0  0  0  0  0  0  0  0  0  0
   23.7076   -5.7652  -16.5766 O   0  0  0  0  0  0  0  0  0  0  0  0
  2  1  1  1
  2  3  1  0
  2  8  1  0
  3  4  1  0
  5  6  1  0
  5  4  1  0
  6  7  1  0
  8  9  2  0
 11 10  1  0
 12 11  1  6
 13  8  1  0
 13 12  1  0
 14 12  1  0
 14 19  1  0
 15 14  2  0
 16 17  1  0
 18 19  1  0
 18 17  1  1
 20 18  1  0
 20 21  1  0
 22 20  2  0
M  END
$$$$
