KSS.pdb
     RDKit          3D

 22 21  0  0  1  0  0  0  0  0999 V2000
   19.2081  -10.5904  -14.5122 N   0  0  0  0  0  0  0  0  0  0  0  0
   19.3799   -9.4533  -15.4442 C   0  0  1  0  0  0  0  0  0  0  0  0
   18.1791   -9.4290  -16.3003 C   0  0  0  0  0  0  0  0  0  0  0  0
   18.0132  -10.5009  -17.3104 C   0  0  0  0  0  0  0  0  0  0  0  0
   16.8161  -10.4512  -18.1805 C   0  0  0  0  0  0  0  0  0  0  0  0
   16.8160  -11.6419  -19.1209 C   0  0  0  0  0  0  0  0  0  0  0  0
   15.7069  -11.5251  -20.0320 N   0  0  0  0  0  0  0  0  0  0  0  0
   19.6394   -8.2288  -14.6733 C   0  0  0  0  0  0  0  0  0  0  0  0
   18.9695   -7.8634  -13.6781 O   0  0  0  0  0  0  0  0  0  0  0  0
   22.5036   -5.0358  -12.8741 O   0  0  0  0  0  0  0  0  0  0  0  0
   22.3006   -6.1646  -13.6753 C   0  0  0  0  0  0  0  0  0  0  0  0
   20.9158   -6.1238  -14.2789 C   0  0  2  0  0  0  0  0  0  0  0  0
   20.7150   -7.3302  -15.0215 N   0  0  0  0  0  0  0  0  0  0  0  0
   20.7557   -4.9079  -15.1480 C   0  0  0  0  0  0  0  0  0  0  0  0
   21.2427   -4.9483  -16.2872 O   0  0  0  0  0  0  0  0  0  0  0  0
   18.4160   -0.6784  -15.7396 O   0  0  0  0  0  0  0  0  0  0  0  0
   18.7204   -1.8059  -14.9666 C   0  0  0  0  0  0  0  0  0  0  0  0
   19.8626   -2.5866  -15.5471 C   0  0  2  0  0  0  0  0  0  0  0  0
   20.0762   -3.7529  -14.6947 N   0  0  0  0  0  0  0  0  0  0  0  0
   21.0659   -1.7106  -15.5501 C   0  0  0  0  0  0  0  0  0  0  0  0
   21.5284   -1.1415  -16.7274 O   0  0  0  0  0  0  0  0  0  0  0  0
   21.6978   -1.4594  -14.4949 O   0  0  0  0  0  0  0  0  0  0  0  0
  2  1  1  1
  2  3  1  0
  2  8  1  0
  3  4  1  0
  5  6  1  0
  5  4  1  0
  6  7  1  0
  8  9  2  0
 11 10  1  0
 12 11  1  6
 13  8  1  0
 13 12  1  0
 14 12  1  0
 14 19  1  0
 15 14  2  0
 16 17  1  0
 18 19  1  0
 18 17  1  1
 20 18  1  0
 20 21  1  0
 22 20  2  0
M  END
$$$$
