KSS.pdb
     RDKit          3D

 22 21  0  0  1  0  0  0  0  0999 V2000
   14.1814  -19.3786    2.9505 N   0  0  0  0  0  0  0  0  0  0  0  0
   14.8658  -20.0926    4.0518 C   0  0  1  0  0  0  0  0  0  0  0  0
   15.6353  -21.1852    3.4274 C   0  0  0  0  0  0  0  0  0  0  0  0
   14.8895  -22.2887    2.7771 C   0  0  0  0  0  0  0  0  0  0  0  0
   15.6690  -23.4292    2.2437 C   0  0  0  0  0  0  0  0  0  0  0  0
   14.7285  -24.4547    1.6388 C   0  0  0  0  0  0  0  0  0  0  0  0
   15.4887  -25.6023    1.2159 N   0  0  0  0  0  0  0  0  0  0  0  0
   15.6483  -19.1308    4.8415 C   0  0  0  0  0  0  0  0  0  0  0  0
   16.2062  -18.1129    4.3669 O   0  0  0  0  0  0  0  0  0  0  0  0
   15.9144  -19.2168    9.1243 O   0  0  0  0  0  0  0  0  0  0  0  0
   15.8243  -18.0806    8.3130 C   0  0  0  0  0  0  0  0  0  0  0  0
   16.5603  -18.3171    7.0145 C   0  0  2  0  0  0  0  0  0  0  0  0
   15.8392  -19.2983    6.2632 N   0  0  0  0  0  0  0  0  0  0  0  0
   17.9729  -18.7557    7.2821 C   0  0  0  0  0  0  0  0  0  0  0  0
   18.2012  -19.9738    7.3054 O   0  0  0  0  0  0  0  0  0  0  0  0
   22.5398  -17.2803    8.2545 O   0  0  0  0  0  0  0  0  0  0  0  0
   21.1889  -16.9895    8.0265 C   0  0  0  0  0  0  0  0  0  0  0  0
   20.3826  -18.2341    7.7986 C   0  0  2  0  0  0  0  0  0  0  0  0
   19.0135  -17.8226    7.5010 N   0  0  0  0  0  0  0  0  0  0  0  0
   20.4277  -19.0477    9.0442 C   0  0  0  0  0  0  0  0  0  0  0  0
   21.3555  -20.0677    9.1941 O   0  0  0  0  0  0  0  0  0  0  0  0
   19.6333  -18.8393    9.9936 O   0  0  0  0  0  0  0  0  0  0  0  0
  2  1  1  6
  2  3  1  0
  2  8  1  0
  3  4  1  0
  5  6  1  0
  5  4  1  0
  6  7  1  0
  8  9  2  0
 11 10  1  0
 12 11  1  1
 13  8  1  0
 13 12  1  0
 14 12  1  0
 14 19  1  0
 15 14  2  0
 16 17  1  0
 18 19  1  0
 18 17  1  1
 20 18  1  0
 20 21  1  0
 22 20  2  0
M  END
$$$$
