KSS.pdb
     RDKit          3D

 22 21  0  0  1  0  0  0  0  0999 V2000
   16.3936  -10.5512  -16.9717 N   0  0  0  0  0  0  0  0  0  0  0  0
   17.4398  -10.6036  -15.9258 C   0  0  1  0  0  0  0  0  0  0  0  0
   18.6208  -11.2325  -16.5467 C   0  0  0  0  0  0  0  0  0  0  0  0
   18.5282  -12.6545  -16.9541 C   0  0  0  0  0  0  0  0  0  0  0  0
   19.7626  -13.3180  -17.4324 C   0  0  0  0  0  0  0  0  0  0  0  0
   19.4499  -14.7428  -17.8500 C   0  0  0  0  0  0  0  0  0  0  0  0
   20.6688  -15.3966  -18.2509 N   0  0  0  0  0  0  0  0  0  0  0  0
   17.6479   -9.2549  -15.3793 C   0  0  0  0  0  0  0  0  0  0  0  0
   17.4860   -8.1948  -16.0295 O   0  0  0  0  0  0  0  0  0  0  0  0
   18.5970   -8.6232  -11.3283 O   0  0  0  0  0  0  0  0  0  0  0  0
   17.8376   -7.7036  -12.0596 C   0  0  0  0  0  0  0  0  0  0  0  0
   18.2626   -7.7244  -13.5097 C   0  0  2  0  0  0  0  0  0  0  0  0
   18.0707   -9.0497  -14.0138 N   0  0  0  0  0  0  0  0  0  0  0  0
   19.6934   -7.2844  -13.6454 C   0  0  0  0  0  0  0  0  0  0  0  0
   20.5479   -8.1612  -13.8393 O   0  0  0  0  0  0  0  0  0  0  0  0
   23.0557   -5.4841  -15.5973 O   0  0  0  0  0  0  0  0  0  0  0  0
   21.7428   -5.8306  -15.2543 C   0  0  0  0  0  0  0  0  0  0  0  0
   21.4231   -5.4629  -13.8352 C   0  0  2  0  0  0  0  0  0  0  0  0
   20.0651   -5.9223  -13.5572 N   0  0  0  0  0  0  0  0  0  0  0  0
   21.5128   -3.9824  -13.7107 C   0  0  0  0  0  0  0  0  0  0  0  0
   22.6980   -3.3713  -13.3292 O   0  0  0  0  0  0  0  0  0  0  0  0
   20.5259   -3.2429  -13.9450 O   0  0  0  0  0  0  0  0  0  0  0  0
  2  1  1  6
  2  3  1  0
  2  8  1  0
  3  4  1  0
  5  6  1  0
  5  4  1  0
  6  7  1  0
  8  9  2  0
 11 10  1  0
 12 11  1  1
 13  8  1  0
 13 12  1  0
 14 12  1  0
 14 19  1  0
 15 14  2  0
 16 17  1  0
 18 19  1  0
 18 17  1  6
 20 18  1  0
 20 21  1  0
 22 20  2  0
M  END
$$$$
