KSS.pdb
     RDKit          3D

 22 21  0  0  1  0  0  0  0  0999 V2000
   23.8782  -27.8269  -17.7333 N   0  0  0  0  0  0  0  0  0  0  0  0
   24.1720  -29.2535  -17.4693 C   0  0  1  0  0  0  0  0  0  0  0  0
   23.5392  -30.0196  -18.5594 C   0  0  0  0  0  0  0  0  0  0  0  0
   22.0850  -30.2934  -18.4749 C   0  0  0  0  0  0  0  0  0  0  0  0
   21.3007  -29.5545  -17.4593 C   0  0  0  0  0  0  0  0  0  0  0  0
   19.8383  -29.9475  -17.5553 C   0  0  0  0  0  0  0  0  0  0  0  0
   19.1000  -29.2808  -16.5140 N   0  0  0  0  0  0  0  0  0  0  0  0
   25.6240  -29.4311  -17.3233 C   0  0  0  0  0  0  0  0  0  0  0  0
   26.4755  -28.5508  -17.5928 O   0  0  0  0  0  0  0  0  0  0  0  0
   27.4578  -33.1761  -16.5130 O   0  0  0  0  0  0  0  0  0  0  0  0
   27.8720  -32.0243  -15.8355 C   0  0  0  0  0  0  0  0  0  0  0  0
   27.6050  -30.8041  -16.6861 C   0  0  2  0  0  0  0  0  0  0  0  0
   26.1896  -30.6722  -16.8486 N   0  0  0  0  0  0  0  0  0  0  0  0
   28.3038  -30.9230  -18.0116 C   0  0  0  0  0  0  0  0  0  0  0  0
   27.6366  -31.3177  -18.9790 O   0  0  0  0  0  0  0  0  0  0  0  0
   30.3642  -29.7875  -21.6508 O   0  0  0  0  0  0  0  0  0  0  0  0
   29.7294  -29.7711  -20.4025 C   0  0  0  0  0  0  0  0  0  0  0  0
   30.3693  -30.7282  -19.4404 C   0  0  2  0  0  0  0  0  0  0  0  0
   29.6726  -30.5996  -18.1635 N   0  0  0  0  0  0  0  0  0  0  0  0
   31.8018  -30.3505  -19.2977 C   0  0  0  0  0  0  0  0  0  0  0  0
   32.1992  -29.4097  -18.3591 O   0  0  0  0  0  0  0  0  0  0  0  0
   32.6917  -30.8669  -20.0168 O   0  0  0  0  0  0  0  0  0  0  0  0
  2  1  1  6
  2  3  1  0
  2  8  1  0
  3  4  1  0
  5  6  1  0
  5  4  1  0
  6  7  1  0
  8  9  2  0
 11 10  1  0
 12 11  1  1
 13  8  1  0
 13 12  1  0
 14 12  1  0
 14 19  1  0
 15 14  2  0
 16 17  1  0
 18 19  1  0
 18 17  1  6
 20 18  1  0
 20 21  1  0
 22 20  2  0
M  END
$$$$
