KSS.pdb
     RDKit          3D

 22 21  0  0  1  0  0  0  0  0999 V2000
   18.0915  -11.1199  -18.7734 N   0  0  0  0  0  0  0  0  0  0  0  0
   19.0964  -10.0330  -18.7689 C   0  0  1  0  0  0  0  0  0  0  0  0
   19.1553   -9.5120  -20.1475 C   0  0  0  0  0  0  0  0  0  0  0  0
   19.7878  -10.3531  -21.1912 C   0  0  0  0  0  0  0  0  0  0  0  0
   21.2286  -10.6638  -21.0488 C   0  0  0  0  0  0  0  0  0  0  0  0
   21.6956  -11.4853  -22.2359 C   0  0  0  0  0  0  0  0  0  0  0  0
   23.0943  -11.7903  -22.0792 N   0  0  0  0  0  0  0  0  0  0  0  0
   18.7470   -9.0531  -17.7303 C   0  0  0  0  0  0  0  0  0  0  0  0
   17.6952   -8.3702  -17.7264 O   0  0  0  0  0  0  0  0  0  0  0  0
   19.8769   -9.3186  -13.8551 O   0  0  0  0  0  0  0  0  0  0  0  0
   18.8074   -8.5832  -14.3772 C   0  0  0  0  0  0  0  0  0  0  0  0
   19.2523   -7.8367  -15.6135 C   0  0  2  0  0  0  0  0  0  0  0  0
   19.6198   -8.7969  -16.6086 N   0  0  0  0  0  0  0  0  0  0  0  0
   20.3936   -6.9139  -15.2893 C   0  0  0  0  0  0  0  0  0  0  0  0
   21.5441   -7.3605  -15.4061 O   0  0  0  0  0  0  0  0  0  0  0  0
   21.6574   -2.3633  -13.9996 O   0  0  0  0  0  0  0  0  0  0  0  0
   20.6767   -3.3132  -14.3115 C   0  0  0  0  0  0  0  0  0  0  0  0
   21.2756   -4.6606  -14.5890 C   0  0  2  0  0  0  0  0  0  0  0  0
   20.1768   -5.5818  -14.8652 N   0  0  0  0  0  0  0  0  0  0  0  0
   22.0287   -5.0890  -13.3788 C   0  0  0  0  0  0  0  0  0  0  0  0
   23.3525   -4.7174  -13.1964 O   0  0  0  0  0  0  0  0  0  0  0  0
   21.4948   -5.7957  -12.4893 O   0  0  0  0  0  0  0  0  0  0  0  0
  2  1  1  6
  2  3  1  0
  2  8  1  0
  3  4  1  0
  5  6  1  0
  5  4  1  0
  6  7  1  0
  8  9  2  0
 11 10  1  0
 12 11  1  1
 13  8  1  0
 13 12  1  0
 14 12  1  0
 14 19  1  0
 15 14  2  0
 16 17  1  0
 18 19  1  0
 18 17  1  1
 20 18  1  0
 20 21  1  0
 22 20  2  0
M  END
$$$$
