KSS.pdb
     RDKit          3D

 22 21  0  0  1  0  0  0  0  0999 V2000
   16.5983   -9.1205  -10.4660 N   0  0  0  0  0  0  0  0  0  0  0  0
   17.2382   -9.3327  -11.7838 C   0  0  1  0  0  0  0  0  0  0  0  0
   16.1548   -9.6735  -12.7249 C   0  0  0  0  0  0  0  0  0  0  0  0
   15.4331  -10.9538  -12.5333 C   0  0  0  0  0  0  0  0  0  0  0  0
   14.4502  -11.3541  -13.5658 C   0  0  0  0  0  0  0  0  0  0  0  0
   13.8689  -12.7126  -13.2209 C   0  0  0  0  0  0  0  0  0  0  0  0
   12.9539  -13.1128  -14.2584 N   0  0  0  0  0  0  0  0  0  0  0  0
   18.0373   -8.1488  -12.1317 C   0  0  0  0  0  0  0  0  0  0  0  0
   17.8031   -6.9893  -11.7153 O   0  0  0  0  0  0  0  0  0  0  0  0
   22.1494   -6.2859  -13.6724 O   0  0  0  0  0  0  0  0  0  0  0  0
   21.3830   -7.4330  -13.4398 C   0  0  0  0  0  0  0  0  0  0  0  0
   19.9198   -7.0646  -13.3549 C   0  0  2  0  0  0  0  0  0  0  0  0
   19.1814   -8.2400  -13.0083 N   0  0  0  0  0  0  0  0  0  0  0  0
   19.4475   -6.4802  -14.6567 C   0  0  0  0  0  0  0  0  0  0  0  0
   19.2995   -7.2544  -15.6134 O   0  0  0  0  0  0  0  0  0  0  0  0
   17.4683   -3.0190  -14.7010 O   0  0  0  0  0  0  0  0  0  0  0  0
   17.4456   -3.8295  -15.8429 C   0  0  0  0  0  0  0  0  0  0  0  0
   18.7638   -4.5095  -16.0688 C   0  0  2  0  0  0  0  0  0  0  0  0
   19.1780   -5.0988  -14.7986 N   0  0  0  0  0  0  0  0  0  0  0  0
   19.7430   -3.4812  -16.5151 C   0  0  0  0  0  0  0  0  0  0  0  0
   19.5753   -2.8150  -17.7201 O   0  0  0  0  0  0  0  0  0  0  0  0
   20.7459   -3.1847  -15.8208 O   0  0  0  0  0  0  0  0  0  0  0  0
  2  1  1  1
  2  3  1  0
  2  8  1  0
  3  4  1  0
  5  6  1  0
  5  4  1  0
  6  7  1  0
  8  9  2  0
 11 10  1  0
 12 11  1  6
 13  8  1  0
 13 12  1  0
 14 12  1  0
 14 19  1  0
 15 14  2  0
 16 17  1  0
 18 19  1  0
 18 17  1  1
 20 18  1  0
 20 21  1  0
 22 20  2  0
M  END
$$$$
