KSS.pdb
     RDKit          3D

 22 21  0  0  1  0  0  0  0  0999 V2000
   17.7243  -10.4329  -11.7878 N   0  0  0  0  0  0  0  0  0  0  0  0
   16.4493   -9.7019  -11.6116 C   0  0  1  0  0  0  0  0  0  0  0  0
   15.3829  -10.7206  -11.5874 C   0  0  0  0  0  0  0  0  0  0  0  0
   14.2137  -10.5367  -12.4796 C   0  0  0  0  0  0  0  0  0  0  0  0
   12.8730  -10.8511  -11.9354 C   0  0  0  0  0  0  0  0  0  0  0  0
   11.8205  -10.6302  -13.0058 C   0  0  0  0  0  0  0  0  0  0  0  0
   10.5158  -10.8582  -12.4404 N   0  0  0  0  0  0  0  0  0  0  0  0
   16.5415   -8.8455  -10.4203 C   0  0  0  0  0  0  0  0  0  0  0  0
   16.8987   -9.2456   -9.2867 O   0  0  0  0  0  0  0  0  0  0  0  0
   17.5863   -5.0509  -10.4664 O   0  0  0  0  0  0  0  0  0  0  0  0
   17.5430   -5.8385   -9.3109 C   0  0  0  0  0  0  0  0  0  0  0  0
   16.2641   -6.6431   -9.2853 C   0  0  2  0  0  0  0  0  0  0  0  0
   16.2125   -7.4403  -10.4724 N   0  0  0  0  0  0  0  0  0  0  0  0
   15.0719   -5.7338   -9.1793 C   0  0  0  0  0  0  0  0  0  0  0  0
   14.5480   -5.3485  -10.2346 O   0  0  0  0  0  0  0  0  0  0  0  0
   11.8844   -5.8407   -6.8023 O   0  0  0  0  0  0  0  0  0  0  0  0
   12.6777   -4.7065   -6.5885 C   0  0  0  0  0  0  0  0  0  0  0  0
   13.4769   -4.3489   -7.8070 C   0  0  2  0  0  0  0  0  0  0  0  0
   14.5563   -5.3250   -7.9270 N   0  0  0  0  0  0  0  0  0  0  0  0
   14.0262   -2.9792   -7.6128 C   0  0  0  0  0  0  0  0  0  0  0  0
   13.2065   -1.8643   -7.7063 O   0  0  0  0  0  0  0  0  0  0  0  0
   15.2410   -2.7889   -7.3598 O   0  0  0  0  0  0  0  0  0  0  0  0
  2  1  1  1
  2  3  1  0
  2  8  1  0
  3  4  1  0
  5  6  1  0
  5  4  1  0
  6  7  1  0
  8  9  2  0
 11 10  1  0
 12 11  1  6
 13  8  1  0
 13 12  1  0
 14 12  1  0
 14 19  1  0
 15 14  2  0
 16 17  1  0
 18 19  1  0
 18 17  1  1
 20 18  1  0
 20 21  1  0
 22 20  2  0
M  END
$$$$
