KSS.pdb
     RDKit          3D

 22 21  0  0  1  0  0  0  0  0999 V2000
   14.7451  -10.9726  -14.3691 N   0  0  0  0  0  0  0  0  0  0  0  0
   14.7046   -9.5014  -14.5276 C   0  0  1  0  0  0  0  0  0  0  0  0
   14.1625   -8.9596  -13.2674 C   0  0  0  0  0  0  0  0  0  0  0  0
   12.7217   -9.1548  -12.9798 C   0  0  0  0  0  0  0  0  0  0  0  0
   12.3568   -9.9029  -11.7551 C   0  0  0  0  0  0  0  0  0  0  0  0
   10.8477  -10.0309  -11.6631 C   0  0  0  0  0  0  0  0  0  0  0  0
   10.5106  -10.8457  -10.5245 N   0  0  0  0  0  0  0  0  0  0  0  0
   16.0393   -9.0173  -14.9089 C   0  0  0  0  0  0  0  0  0  0  0  0
   17.0926   -9.6901  -14.8055 O   0  0  0  0  0  0  0  0  0  0  0  0
   16.7347   -5.0546  -16.0670 O   0  0  0  0  0  0  0  0  0  0  0  0
   17.3284   -6.0757  -16.8168 C   0  0  0  0  0  0  0  0  0  0  0  0
   17.5164   -7.3028  -15.9551 C   0  0  2  0  0  0  0  0  0  0  0  0
   16.2381   -7.6899  -15.4419 N   0  0  0  0  0  0  0  0  0  0  0  0
   18.4940   -7.0242  -14.8479 C   0  0  0  0  0  0  0  0  0  0  0  0
   18.0420   -6.5890  -13.7789 O   0  0  0  0  0  0  0  0  0  0  0  0
   22.8514   -7.8088  -12.9655 O   0  0  0  0  0  0  0  0  0  0  0  0
   21.8569   -8.0402  -13.9240 C   0  0  0  0  0  0  0  0  0  0  0  0
   20.8494   -6.9290  -13.9599 C   0  0  2  0  0  0  0  0  0  0  0  0
   19.8821   -7.2462  -15.0069 N   0  0  0  0  0  0  0  0  0  0  0  0
   21.5684   -5.6643  -14.2745 C   0  0  0  0  0  0  0  0  0  0  0  0
   22.0474   -4.8475  -13.2610 O   0  0  0  0  0  0  0  0  0  0  0  0
   21.7637   -5.2973  -15.4590 O   0  0  0  0  0  0  0  0  0  0  0  0
  2  1  1  1
  2  3  1  0
  2  8  1  0
  3  4  1  0
  5  6  1  0
  5  4  1  0
  6  7  1  0
  8  9  2  0
 11 10  1  0
 12 11  1  1
 13  8  1  0
 13 12  1  0
 14 12  1  0
 14 19  1  0
 15 14  2  0
 16 17  1  0
 18 19  1  0
 18 17  1  6
 20 18  1  0
 20 21  1  0
 22 20  2  0
M  END
$$$$
