KSS.pdb
     RDKit          3D

 22 21  0  0  1  0  0  0  0  0999 V2000
   15.9909  -11.6453  -15.8375 N   0  0  0  0  0  0  0  0  0  0  0  0
   17.3986  -11.3543  -15.4841 C   0  0  1  0  0  0  0  0  0  0  0  0
   18.2266  -11.9148  -16.5684 C   0  0  0  0  0  0  0  0  0  0  0  0
   18.1699  -13.3754  -16.8139 C   0  0  0  0  0  0  0  0  0  0  0  0
   18.9685  -13.9190  -17.9361 C   0  0  0  0  0  0  0  0  0  0  0  0
   18.9045  -15.4349  -17.9238 C   0  0  0  0  0  0  0  0  0  0  0  0
   19.6995  -15.9507  -19.0081 N   0  0  0  0  0  0  0  0  0  0  0  0
   17.5508   -9.9119  -15.2449 C   0  0  0  0  0  0  0  0  0  0  0  0
   17.0586   -9.0176  -15.9734 O   0  0  0  0  0  0  0  0  0  0  0  0
   18.3425   -8.4249  -11.5891 O   0  0  0  0  0  0  0  0  0  0  0  0
   17.8203   -7.6264  -12.6123 C   0  0  0  0  0  0  0  0  0  0  0  0
   18.4591   -7.9979  -13.9305 C   0  0  2  0  0  0  0  0  0  0  0  0
   18.3052   -9.4075  -14.1214 N   0  0  0  0  0  0  0  0  0  0  0  0
   19.9068   -7.5939  -13.9466 C   0  0  0  0  0  0  0  0  0  0  0  0
   20.7377   -8.4192  -13.5404 O   0  0  0  0  0  0  0  0  0  0  0  0
   23.3127   -4.8517  -15.8835 O   0  0  0  0  0  0  0  0  0  0  0  0
   21.9900   -5.2983  -15.7722 C   0  0  0  0  0  0  0  0  0  0  0  0
   21.7225   -5.9165  -14.4315 C   0  0  2  0  0  0  0  0  0  0  0  0
   20.3196   -6.3212  -14.4060 N   0  0  0  0  0  0  0  0  0  0  0  0
   21.9923   -4.8900  -13.3880 C   0  0  0  0  0  0  0  0  0  0  0  0
   23.2138   -4.8465  -12.7323 O   0  0  0  0  0  0  0  0  0  0  0  0
   21.1296   -4.0358  -13.0688 O   0  0  0  0  0  0  0  0  0  0  0  0
  2  1  1  6
  2  3  1  0
  2  8  1  0
  3  4  1  0
  5  6  1  0
  5  4  1  0
  6  7  1  0
  8  9  2  0
 11 10  1  0
 12 11  1  1
 13  8  1  0
 13 12  1  0
 14 12  1  0
 14 19  1  0
 15 14  2  0
 16 17  1  0
 18 19  1  0
 18 17  1  6
 20 18  1  0
 20 21  1  0
 22 20  2  0
M  END
$$$$
