KSS.pdb
     RDKit          3D

 22 21  0  0  1  0  0  0  0  0999 V2000
   29.1266  -21.7627  -17.6306 N   0  0  0  0  0  0  0  0  0  0  0  0
   29.2344  -22.7958  -16.5760 C   0  0  1  0  0  0  0  0  0  0  0  0
   27.8619  -23.2652  -16.3083 C   0  0  0  0  0  0  0  0  0  0  0  0
   26.7548  -22.6993  -17.1151 C   0  0  0  0  0  0  0  0  0  0  0  0
   25.3786  -23.1577  -16.8174 C   0  0  0  0  0  0  0  0  0  0  0  0
   24.4134  -22.5759  -17.8335 C   0  0  0  0  0  0  0  0  0  0  0  0
   23.0790  -23.0231  -17.5283 N   0  0  0  0  0  0  0  0  0  0  0  0
   30.1902  -23.8278  -17.0033 C   0  0  0  0  0  0  0  0  0  0  0  0
   30.5929  -23.9754  -18.1817 O   0  0  0  0  0  0  0  0  0  0  0  0
   33.0775  -25.3452  -14.6863 O   0  0  0  0  0  0  0  0  0  0  0  0
   32.3631  -26.3643  -15.3252 C   0  0  0  0  0  0  0  0  0  0  0  0
   31.6307  -25.8051  -16.5229 C   0  0  2  0  0  0  0  0  0  0  0  0
   30.7466  -24.7765  -16.0674 N   0  0  0  0  0  0  0  0  0  0  0  0
   30.8852  -26.8953  -17.2406 C   0  0  0  0  0  0  0  0  0  0  0  0
   29.6477  -26.8879  -17.1690 O   0  0  0  0  0  0  0  0  0  0  0  0
   28.8784  -29.6728  -17.6154 O   0  0  0  0  0  0  0  0  0  0  0  0
   29.3799  -28.7177  -18.5086 C   0  0  0  0  0  0  0  0  0  0  0  0
   30.8474  -28.9057  -18.7580 C   0  0  2  0  0  0  0  0  0  0  0  0
   31.5590  -27.8995  -17.9747 N   0  0  0  0  0  0  0  0  0  0  0  0
   31.0968  -28.7121  -20.2126 C   0  0  0  0  0  0  0  0  0  0  0  0
   31.2189  -29.8001  -21.0641 O   0  0  0  0  0  0  0  0  0  0  0  0
   31.2040  -27.5661  -20.7134 O   0  0  0  0  0  0  0  0  0  0  0  0
  2  1  1  6
  2  3  1  0
  2  8  1  0
  3  4  1  0
  5  6  1  0
  5  4  1  0
  6  7  1  0
  8  9  2  0
 11 10  1  0
 12 11  1  1
 13  8  1  0
 13 12  1  0
 14 12  1  0
 14 19  1  0
 15 14  2  0
 16 17  1  0
 18 19  1  0
 18 17  1  6
 20 18  1  0
 20 21  1  0
 22 20  2  0
M  END
$$$$
