KSS.pdb
     RDKit          3D

 22 21  0  0  1  0  0  0  0  0999 V2000
   19.5637  -13.5252  -16.5056 N   0  0  0  0  0  0  0  0  0  0  0  0
   18.7805  -12.2739  -16.6147 C   0  0  1  0  0  0  0  0  0  0  0  0
   17.7049  -12.3646  -15.6094 C   0  0  0  0  0  0  0  0  0  0  0  0
   16.8194  -13.5530  -15.6317 C   0  0  0  0  0  0  0  0  0  0  0  0
   15.7276  -13.6199  -14.6336 C   0  0  0  0  0  0  0  0  0  0  0  0
   14.9971  -14.9437  -14.7608 C   0  0  0  0  0  0  0  0  0  0  0  0
   14.0872  -15.0901  -13.6542 N   0  0  0  0  0  0  0  0  0  0  0  0
   19.6842  -11.1222  -16.4807 C   0  0  0  0  0  0  0  0  0  0  0  0
   20.6514  -11.0702  -15.6840 O   0  0  0  0  0  0  0  0  0  0  0  0
   19.2787   -7.5965  -18.8265 O   0  0  0  0  0  0  0  0  0  0  0  0
   20.5221   -8.1495  -18.5016 C   0  0  0  0  0  0  0  0  0  0  0  0
   20.4403   -8.8467  -17.1634 C   0  0  2  0  0  0  0  0  0  0  0  0
   19.5138   -9.9309  -17.2790 N   0  0  0  0  0  0  0  0  0  0  0  0
   20.0263   -7.8793  -16.0900 C   0  0  0  0  0  0  0  0  0  0  0  0
   18.8236   -7.8309  -15.7935 O   0  0  0  0  0  0  0  0  0  0  0  0
   22.9214   -5.8884  -13.8768 O   0  0  0  0  0  0  0  0  0  0  0  0
   21.6628   -6.1647  -13.3282 C   0  0  0  0  0  0  0  0  0  0  0  0
   20.5820   -6.1266  -14.3682 C   0  0  2  0  0  0  0  0  0  0  0  0
   20.9647   -7.0485  -15.4340 N   0  0  0  0  0  0  0  0  0  0  0  0
   20.4888   -4.7344  -14.8860 C   0  0  0  0  0  0  0  0  0  0  0  0
   20.0290   -3.7045  -14.0787 O   0  0  0  0  0  0  0  0  0  0  0  0
   20.8209   -4.4478  -16.0623 O   0  0  0  0  0  0  0  0  0  0  0  0
  2  1  1  1
  2  3  1  0
  2  8  1  0
  3  4  1  0
  5  6  1  0
  5  4  1  0
  6  7  1  0
  8  9  2  0
 11 10  1  0
 12 11  1  6
 13  8  1  0
 13 12  1  0
 14 12  1  0
 14 19  1  0
 15 14  2  0
 16 17  1  0
 18 19  1  0
 18 17  1  1
 20 18  1  0
 20 21  1  0
 22 20  2  0
M  END
$$$$
