TIG.pdb
     RDKit          3D

 20 19  0  0  1  0  0  0  0  0999 V2000
    6.6590  -16.0115   20.5494 C   0  0  0  0  0  0  0  0  0  0  0  0
    7.4546  -14.9021   19.9403 C   0  0  1  0  0  0  0  0  0  0  0  0
    7.0963  -14.7308   18.6016 O   0  0  0  0  0  0  0  0  0  0  0  0
    7.2664  -13.5754   20.6246 C   0  0  2  0  0  0  0  0  0  0  0  0
    7.7945  -12.5489   19.7393 N   0  0  0  0  0  0  0  0  0  0  0  0
    7.9717  -13.5204   21.9356 C   0  0  0  0  0  0  0  0  0  0  0  0
    9.1839  -13.2854   21.9335 O   0  0  0  0  0  0  0  0  0  0  0  0
    5.6667  -11.3879   26.3286 C   0  0  0  0  0  0  0  0  0  0  0  0
    6.6874  -11.9032   25.3422 C   0  0  0  0  0  0  0  0  0  0  0  0
    6.9672  -13.3977   25.5466 C   0  0  2  0  0  0  0  0  0  0  0  0
    7.6530  -13.4710   26.8893 C   0  0  0  0  0  0  0  0  0  0  0  0
    7.8837  -13.8315   24.4693 C   0  0  2  0  0  0  0  0  0  0  0  0
    7.3180  -13.7224   23.1438 N   0  0  0  0  0  0  0  0  0  0  0  0
    8.3518  -15.2103   24.6140 C   0  0  0  0  0  0  0  0  0  0  0  0
    7.4942  -16.1785   24.7027 O   0  0  0  0  0  0  0  0  0  0  0  0
    9.6935  -15.6622   24.6689 N   0  0  0  0  0  0  0  0  0  0  0  0
    9.9949  -17.0786   24.8836 C   0  0  0  0  0  0  0  0  0  0  0  0
   11.4423  -17.3023   24.8437 C   0  0  0  0  0  0  0  0  0  0  0  0
   12.2025  -16.3662   24.4999 O   0  0  0  0  0  0  0  0  0  0  0  0
   12.0094  -18.5192   25.1741 O   0  0  0  0  0  0  0  0  0  0  0  0
  2  1  1  1
  3  2  1  0
  4  5  1  6
  4  2  1  0
  6  4  1  0
  7  6  2  0
  9 10  1  0
  9  8  1  0
 10 11  1  1
 12 10  1  0
 12 13  1  6
 13  6  1  0
 14 12  1  0
 15 14  2  0
 16 14  1  0
 17 16  1  0
 18 17  1  0
 19 18  2  0
 20 18  1  0
M  END
$$$$
