TIG.pdb
     RDKit          3D

 20 19  0  0  1  0  0  0  0  0999 V2000
    6.8826  -17.6992   22.3726 C   0  0  0  0  0  0  0  0  0  0  0  0
    7.8064  -17.1400   21.3387 C   0  0  1  0  0  0  0  0  0  0  0  0
    7.4587  -17.6170   20.0733 O   0  0  0  0  0  0  0  0  0  0  0  0
    7.7958  -15.6372   21.2663 C   0  0  2  0  0  0  0  0  0  0  0  0
    8.5650  -15.2515   20.0933 N   0  0  0  0  0  0  0  0  0  0  0  0
    8.3898  -15.0172   22.4836 C   0  0  0  0  0  0  0  0  0  0  0  0
    9.6205  -14.9916   22.5807 O   0  0  0  0  0  0  0  0  0  0  0  0
    6.9019  -11.2397   27.1934 C   0  0  0  0  0  0  0  0  0  0  0  0
    7.7372  -12.3469   26.5962 C   0  0  0  0  0  0  0  0  0  0  0  0
    7.1636  -12.8289   25.2574 C   0  0  2  0  0  0  0  0  0  0  0  0
    5.7990  -13.3714   25.6073 C   0  0  0  0  0  0  0  0  0  0  0  0
    8.0417  -13.9102   24.7591 C   0  0  2  0  0  0  0  0  0  0  0  0
    7.6138  -14.4743   23.4990 N   0  0  0  0  0  0  0  0  0  0  0  0
    8.1866  -15.0282   25.6920 C   0  0  0  0  0  0  0  0  0  0  0  0
    7.2519  -15.9220   25.7804 O   0  0  0  0  0  0  0  0  0  0  0  0
    9.2750  -15.2878   26.5612 N   0  0  0  0  0  0  0  0  0  0  0  0
    9.2423  -16.4304   27.4759 C   0  0  0  0  0  0  0  0  0  0  0  0
   10.2824  -17.3983   27.1180 C   0  0  0  0  0  0  0  0  0  0  0  0
   10.8286  -17.3294   25.9914 O   0  0  0  0  0  0  0  0  0  0  0  0
   10.6900  -18.3962   27.9838 O   0  0  0  0  0  0  0  0  0  0  0  0
  2  1  1  1
  3  2  1  0
  4  5  1  6
  4  2  1  0
  6  4  1  0
  7  6  2  0
  9 10  1  0
  9  8  1  0
 10 11  1  1
 12 10  1  0
 12 13  1  6
 13  6  1  0
 14 12  1  0
 15 14  2  0
 16 14  1  0
 17 16  1  0
 18 17  1  0
 19 18  2  0
 20 18  1  0
M  END
$$$$
