TIG.pdb
     RDKit          3D

 20 19  0  0  1  0  0  0  0  0999 V2000
    6.8897  -16.3946   21.2091 C   0  0  0  0  0  0  0  0  0  0  0  0
    7.5859  -15.2732   20.5073 C   0  0  1  0  0  0  0  0  0  0  0  0
    7.1893  -15.2216   19.1695 O   0  0  0  0  0  0  0  0  0  0  0  0
    7.3104  -13.9204   21.1057 C   0  0  2  0  0  0  0  0  0  0  0  0
    7.6891  -12.9213   20.1184 N   0  0  0  0  0  0  0  0  0  0  0  0
    8.0784  -13.7012   22.3632 C   0  0  0  0  0  0  0  0  0  0  0  0
    9.2242  -13.2499   22.2727 O   0  0  0  0  0  0  0  0  0  0  0  0
    5.7994  -11.5029   26.7153 C   0  0  0  0  0  0  0  0  0  0  0  0
    6.8558  -11.9698   25.7425 C   0  0  0  0  0  0  0  0  0  0  0  0
    7.2388  -13.4357   25.9838 C   0  0  2  0  0  0  0  0  0  0  0  0
    7.9347  -13.4261   27.3234 C   0  0  0  0  0  0  0  0  0  0  0  0
    8.1777  -13.8338   24.9121 C   0  0  2  0  0  0  0  0  0  0  0  0
    7.5537  -13.9845   23.6171 N   0  0  0  0  0  0  0  0  0  0  0  0
    8.8865  -15.0845   25.1848 C   0  0  0  0  0  0  0  0  0  0  0  0
    9.5622  -15.2188   26.2830 O   0  0  0  0  0  0  0  0  0  0  0  0
    8.9359  -16.2412   24.3680 N   0  0  0  0  0  0  0  0  0  0  0  0
    9.5064  -17.4896   24.8773 C   0  0  0  0  0  0  0  0  0  0  0  0
   10.9440  -17.5424   24.5997 C   0  0  0  0  0  0  0  0  0  0  0  0
   11.4947  -16.5821   24.0107 O   0  0  0  0  0  0  0  0  0  0  0  0
   11.7262  -18.6220   24.9659 O   0  0  0  0  0  0  0  0  0  0  0  0
  2  1  1  1
  3  2  1  0
  4  5  1  6
  4  2  1  0
  6  4  1  0
  7  6  2  0
  9 10  1  0
  9  8  1  0
 10 11  1  1
 12 10  1  0
 12 13  1  6
 13  6  1  0
 14 12  1  0
 15 14  2  0
 16 14  1  0
 17 16  1  0
 18 17  1  0
 19 18  2  0
 20 18  1  0
M  END
$$$$
