TIG.pdb
     RDKit          3D

 20 19  0  0  1  0  0  0  0  0999 V2000
    6.0204  -18.4949   23.9598 C   0  0  0  0  0  0  0  0  0  0  0  0
    6.1164  -17.9432   22.5737 C   0  0  1  0  0  0  0  0  0  0  0  0
    5.1799  -18.5615   21.7429 O   0  0  0  0  0  0  0  0  0  0  0  0
    5.8720  -16.4607   22.4938 C   0  0  2  0  0  0  0  0  0  0  0  0
    5.7633  -16.1117   21.0857 N   0  0  0  0  0  0  0  0  0  0  0  0
    6.9746  -15.6802   23.1218 C   0  0  0  0  0  0  0  0  0  0  0  0
    8.0121  -15.5153   22.4729 O   0  0  0  0  0  0  0  0  0  0  0  0
    5.8702  -11.7509   26.7174 C   0  0  0  0  0  0  0  0  0  0  0  0
    6.6313  -12.5433   25.6814 C   0  0  0  0  0  0  0  0  0  0  0  0
    7.4014  -13.7094   26.3147 C   0  0  2  0  0  0  0  0  0  0  0  0
    8.5416  -13.0499   27.0520 C   0  0  0  0  0  0  0  0  0  0  0  0
    7.9130  -14.5560   25.2146 C   0  0  2  0  0  0  0  0  0  0  0  0
    6.8739  -15.1394   24.3967 N   0  0  0  0  0  0  0  0  0  0  0  0
    8.7612  -15.6595   25.6663 C   0  0  0  0  0  0  0  0  0  0  0  0
    8.4187  -16.3549   26.7053 O   0  0  0  0  0  0  0  0  0  0  0  0
    9.9759  -16.1035   25.0877 N   0  0  0  0  0  0  0  0  0  0  0  0
   10.7254  -17.2101   25.6851 C   0  0  0  0  0  0  0  0  0  0  0  0
   12.1658  -16.9907   25.5307 C   0  0  0  0  0  0  0  0  0  0  0  0
   12.5729  -16.0252   24.8418 O   0  0  0  0  0  0  0  0  0  0  0  0
   13.1046  -17.8158   26.1217 O   0  0  0  0  0  0  0  0  0  0  0  0
  2  1  1  1
  3  2  1  0
  4  5  1  6
  4  2  1  0
  6  4  1  0
  7  6  2  0
  9 10  1  0
  9  8  1  0
 10 11  1  6
 12 10  1  0
 12 13  1  1
 13  6  1  0
 14 12  1  0
 15 14  2  0
 16 14  1  0
 17 16  1  0
 18 17  1  0
 19 18  2  0
 20 18  1  0
M  END
$$$$
