TIG.pdb
     RDKit          3D

 20 19  0  0  1  0  0  0  0  0999 V2000
    8.1328  -17.9247   22.3573 C   0  0  0  0  0  0  0  0  0  0  0  0
    7.6962  -17.1451   21.1587 C   0  0  1  0  0  0  0  0  0  0  0  0
    7.0387  -17.9806   20.2536 O   0  0  0  0  0  0  0  0  0  0  0  0
    6.7591  -16.0130   21.4811 C   0  0  2  0  0  0  0  0  0  0  0  0
    6.3190  -15.4381   20.2193 N   0  0  0  0  0  0  0  0  0  0  0  0
    7.4174  -14.9642   22.3093 C   0  0  0  0  0  0  0  0  0  0  0  0
    8.2137  -14.2010   21.7544 O   0  0  0  0  0  0  0  0  0  0  0  0
    6.4364  -11.5699   27.3446 C   0  0  0  0  0  0  0  0  0  0  0  0
    7.3915  -12.2156   26.3693 C   0  0  0  0  0  0  0  0  0  0  0  0
    6.6875  -13.2642   25.4984 C   0  0  2  0  0  0  0  0  0  0  0  0
    6.2076  -14.3061   26.4797 C   0  0  0  0  0  0  0  0  0  0  0  0
    7.6996  -13.8371   24.5840 C   0  0  2  0  0  0  0  0  0  0  0  0
    7.1671  -14.8196   23.6674 N   0  0  0  0  0  0  0  0  0  0  0  0
    8.8238  -14.4715   25.2731 C   0  0  0  0  0  0  0  0  0  0  0  0
    9.5249  -13.7933   26.1270 O   0  0  0  0  0  0  0  0  0  0  0  0
    9.2770  -15.8065   25.1317 N   0  0  0  0  0  0  0  0  0  0  0  0
   10.3919  -16.3047   25.9392 C   0  0  0  0  0  0  0  0  0  0  0  0
   11.5770  -16.5050   25.1014 C   0  0  0  0  0  0  0  0  0  0  0  0
   11.5187  -16.2429   23.8765 O   0  0  0  0  0  0  0  0  0  0  0  0
   12.7710  -16.9771   25.6143 O   0  0  0  0  0  0  0  0  0  0  0  0
  2  1  1  1
  3  2  1  0
  4  5  1  6
  4  2  1  0
  6  4  1  0
  7  6  2  0
  9 10  1  0
  9  8  1  0
 10 11  1  1
 12 10  1  0
 12 13  1  1
 13  6  1  0
 14 12  1  0
 15 14  2  0
 16 14  1  0
 17 16  1  0
 18 17  1  0
 19 18  2  0
 20 18  1  0
M  END
$$$$
