TIG.pdb
     RDKit          3D

 20 19  0  0  1  0  0  0  0  0999 V2000
    7.0373  -17.4942   22.7861 C   0  0  0  0  0  0  0  0  0  0  0  0
    7.8647  -16.7930   21.7573 C   0  0  1  0  0  0  0  0  0  0  0  0
    7.6312  -17.3420   20.4949 O   0  0  0  0  0  0  0  0  0  0  0  0
    7.5865  -15.3175   21.6593 C   0  0  2  0  0  0  0  0  0  0  0  0
    8.2074  -14.8369   20.4346 N   0  0  0  0  0  0  0  0  0  0  0  0
    8.1316  -14.5697   22.8267 C   0  0  0  0  0  0  0  0  0  0  0  0
    9.3137  -14.2150   22.7885 O   0  0  0  0  0  0  0  0  0  0  0  0
    7.4298  -10.5240   26.3325 C   0  0  0  0  0  0  0  0  0  0  0  0
    7.0434  -11.8923   26.8413 C   0  0  0  0  0  0  0  0  0  0  0  0
    6.5245  -12.7904   25.7108 C   0  0  2  0  0  0  0  0  0  0  0  0
    5.6854  -13.8305   26.4129 C   0  0  0  0  0  0  0  0  0  0  0  0
    7.6983  -13.4176   25.0648 C   0  0  2  0  0  0  0  0  0  0  0  0
    7.3628  -14.2629   23.9414 N   0  0  0  0  0  0  0  0  0  0  0  0
    8.5073  -14.2296   25.9745 C   0  0  0  0  0  0  0  0  0  0  0  0
    8.9202  -13.7272   27.0959 O   0  0  0  0  0  0  0  0  0  0  0  0
    8.9230  -15.5716   25.7909 N   0  0  0  0  0  0  0  0  0  0  0  0
    9.6504  -16.2777   26.8470 C   0  0  0  0  0  0  0  0  0  0  0  0
    9.9302  -17.6563   26.4375 C   0  0  0  0  0  0  0  0  0  0  0  0
    9.6235  -18.0312   25.2808 O   0  0  0  0  0  0  0  0  0  0  0  0
   10.5261  -18.5708   27.2861 O   0  0  0  0  0  0  0  0  0  0  0  0
  2  1  1  1
  3  2  1  0
  4  5  1  6
  4  2  1  0
  6  4  1  0
  7  6  2  0
  9 10  1  0
  9  8  1  0
 10 11  1  1
 12 10  1  0
 12 13  1  6
 13  6  1  0
 14 12  1  0
 15 14  2  0
 16 14  1  0
 17 16  1  0
 18 17  1  0
 19 18  2  0
 20 18  1  0
M  END
$$$$
