TIG.pdb
     RDKit          3D

 20 19  0  0  1  0  0  0  0  0999 V2000
    6.9840  -16.2789   21.0464 C   0  0  0  0  0  0  0  0  0  0  0  0
    7.7017  -15.2569   20.2247 C   0  0  1  0  0  0  0  0  0  0  0  0
    7.3017  -15.3445   18.8897 O   0  0  0  0  0  0  0  0  0  0  0  0
    7.4572  -13.8409   20.6706 C   0  0  2  0  0  0  0  0  0  0  0  0
    7.9857  -12.9613   19.6394 N   0  0  0  0  0  0  0  0  0  0  0  0
    8.1193  -13.5450   21.9719 C   0  0  0  0  0  0  0  0  0  0  0  0
    9.3145  -13.2355   21.9582 O   0  0  0  0  0  0  0  0  0  0  0  0
    6.7233  -11.3710   27.5503 C   0  0  0  0  0  0  0  0  0  0  0  0
    7.6287  -12.1868   26.6587 C   0  0  0  0  0  0  0  0  0  0  0  0
    6.9379  -12.5598   25.3405 C   0  0  2  0  0  0  0  0  0  0  0  0
    5.8212  -13.4886   25.7517 C   0  0  0  0  0  0  0  0  0  0  0  0
    7.9278  -13.2737   24.5045 C   0  0  2  0  0  0  0  0  0  0  0  0
    7.4439  -13.6053   23.1835 N   0  0  0  0  0  0  0  0  0  0  0  0
    8.4117  -14.5199   25.0994 C   0  0  0  0  0  0  0  0  0  0  0  0
    8.9154  -14.5134   26.2939 O   0  0  0  0  0  0  0  0  0  0  0  0
    8.4009  -15.8120   24.5180 N   0  0  0  0  0  0  0  0  0  0  0  0
    8.7226  -16.9933   25.3206 C   0  0  0  0  0  0  0  0  0  0  0  0
   10.1493  -17.3086   25.2125 C   0  0  0  0  0  0  0  0  0  0  0  0
   10.6670  -17.4457   24.0787 O   0  0  0  0  0  0  0  0  0  0  0  0
   10.9564  -17.4627   26.3243 O   0  0  0  0  0  0  0  0  0  0  0  0
  2  1  1  1
  3  2  1  0
  4  5  1  6
  4  2  1  0
  6  4  1  0
  7  6  2  0
  9 10  1  0
  9  8  1  0
 10 11  1  1
 12 10  1  0
 12 13  1  6
 13  6  1  0
 14 12  1  0
 15 14  2  0
 16 14  1  0
 17 16  1  0
 18 17  1  0
 19 18  2  0
 20 18  1  0
M  END
$$$$
