TIG.pdb
     RDKit          3D

 20 19  0  0  1  0  0  0  0  0999 V2000
    6.3957  -16.2327   21.2027 C   0  0  0  0  0  0  0  0  0  0  0  0
    7.3380  -15.3293   20.4741 C   0  0  1  0  0  0  0  0  0  0  0  0
    7.0232  -15.3003   19.1141 O   0  0  0  0  0  0  0  0  0  0  0  0
    7.3163  -13.9076   20.9664 C   0  0  2  0  0  0  0  0  0  0  0  0
    7.9541  -13.0844   19.9505 N   0  0  0  0  0  0  0  0  0  0  0  0
    8.0364  -13.7561   22.2616 C   0  0  0  0  0  0  0  0  0  0  0  0
    9.2457  -13.5088   22.2283 O   0  0  0  0  0  0  0  0  0  0  0  0
    5.3665  -11.3000   26.2503 C   0  0  0  0  0  0  0  0  0  0  0  0
    6.4694  -11.8206   25.3598 C   0  0  0  0  0  0  0  0  0  0  0  0
    6.9429  -13.2118   25.8005 C   0  0  2  0  0  0  0  0  0  0  0  0
    7.5922  -12.9794   27.1433 C   0  0  0  0  0  0  0  0  0  0  0  0
    7.9414  -13.6769   24.8129 C   0  0  2  0  0  0  0  0  0  0  0  0
    7.3994  -13.8824   23.4888 N   0  0  0  0  0  0  0  0  0  0  0  0
    8.6082  -14.9231   25.1917 C   0  0  0  0  0  0  0  0  0  0  0  0
    9.2292  -15.0051   26.3267 O   0  0  0  0  0  0  0  0  0  0  0  0
    8.6690  -16.1271   24.4474 N   0  0  0  0  0  0  0  0  0  0  0  0
    9.1856  -17.3543   25.0558 C   0  0  0  0  0  0  0  0  0  0  0  0
   10.6376  -17.4375   24.8789 C   0  0  0  0  0  0  0  0  0  0  0  0
   11.2454  -16.4980   24.3130 O   0  0  0  0  0  0  0  0  0  0  0  0
   11.3725  -18.5237   25.3166 O   0  0  0  0  0  0  0  0  0  0  0  0
  2  1  1  1
  3  2  1  0
  4  5  1  6
  4  2  1  0
  6  4  1  0
  7  6  2  0
  9 10  1  0
  9  8  1  0
 10 11  1  1
 12 10  1  0
 12 13  1  6
 13  6  1  0
 14 12  1  0
 15 14  2  0
 16 14  1  0
 17 16  1  0
 18 17  1  0
 19 18  2  0
 20 18  1  0
M  END
$$$$
