TIG.pdb
     RDKit          3D

 20 19  0  0  1  0  0  0  0  0999 V2000
    6.2960  -15.3042   18.9571 C   0  0  0  0  0  0  0  0  0  0  0  0
    7.0507  -15.0281   20.2177 C   0  0  1  0  0  0  0  0  0  0  0  0
    8.3494  -15.5321   20.1221 O   0  0  0  0  0  0  0  0  0  0  0  0
    7.1646  -13.5644   20.5471 C   0  0  2  0  0  0  0  0  0  0  0  0
    7.8723  -12.9238   19.4493 N   0  0  0  0  0  0  0  0  0  0  0  0
    7.9013  -13.3364   21.8216 C   0  0  0  0  0  0  0  0  0  0  0  0
    9.0964  -13.0331   21.7553 O   0  0  0  0  0  0  0  0  0  0  0  0
    7.1428  -11.6033   27.6590 C   0  0  0  0  0  0  0  0  0  0  0  0
    7.8246  -12.5151   26.6670 C   0  0  0  0  0  0  0  0  0  0  0  0
    7.0448  -12.6006   25.3485 C   0  0  2  0  0  0  0  0  0  0  0  0
    5.8163  -13.4083   25.6907 C   0  0  0  0  0  0  0  0  0  0  0  0
    7.8909  -13.3262   24.3758 C   0  0  2  0  0  0  0  0  0  0  0  0
    7.2948  -13.4526   23.0652 N   0  0  0  0  0  0  0  0  0  0  0  0
    8.2540  -14.6775   24.8041 C   0  0  0  0  0  0  0  0  0  0  0  0
    7.3271  -15.5252   25.1247 O   0  0  0  0  0  0  0  0  0  0  0  0
    9.5567  -15.2227   24.9192 N   0  0  0  0  0  0  0  0  0  0  0  0
    9.7544  -16.5793   25.4326 C   0  0  0  0  0  0  0  0  0  0  0  0
   11.1844  -16.8790   25.5404 C   0  0  0  0  0  0  0  0  0  0  0  0
   12.0241  -16.0216   25.1767 O   0  0  0  0  0  0  0  0  0  0  0  0
   11.6499  -18.0840   26.0331 O   0  0  0  0  0  0  0  0  0  0  0  0
  2  1  1  6
  3  2  1  0
  4  5  1  6
  4  2  1  0
  6  4  1  0
  7  6  2  0
  9 10  1  0
  9  8  1  0
 10 11  1  1
 12 10  1  0
 12 13  1  6
 13  6  1  0
 14 12  1  0
 15 14  2  0
 16 14  1  0
 17 16  1  0
 18 17  1  0
 19 18  2  0
 20 18  1  0
M  END
$$$$
