TIG.pdb
     RDKit          3D

 20 19  0  0  1  0  0  0  0  0999 V2000
   10.2114  -19.8464   20.4890 C   0  0  0  0  0  0  0  0  0  0  0  0
   10.7989  -19.2705   19.2407 C   0  0  1  0  0  0  0  0  0  0  0  0
   10.8239  -20.2343   18.2307 O   0  0  0  0  0  0  0  0  0  0  0  0
   10.0420  -18.0851   18.7061 C   0  0  2  0  0  0  0  0  0  0  0  0
   10.5396  -17.8182   17.3654 N   0  0  0  0  0  0  0  0  0  0  0  0
   10.2235  -16.8778   19.5597 C   0  0  0  0  0  0  0  0  0  0  0  0
   11.3035  -16.2822   19.5010 O   0  0  0  0  0  0  0  0  0  0  0  0
    6.4679  -12.9999   19.9273 C   0  0  0  0  0  0  0  0  0  0  0  0
    7.8148  -13.6765   20.0194 C   0  0  0  0  0  0  0  0  0  0  0  0
    7.9360  -14.5244   21.2922 C   0  0  2  0  0  0  0  0  0  0  0  0
    7.9197  -13.5176   22.4168 C   0  0  0  0  0  0  0  0  0  0  0  0
    9.2379  -15.2250   21.2393 C   0  0  2  0  0  0  0  0  0  0  0  0
    9.2300  -16.4073   20.4079 N   0  0  0  0  0  0  0  0  0  0  0  0
    9.7385  -15.6374   22.5510 C   0  0  0  0  0  0  0  0  0  0  0  0
    9.9748  -14.7463   23.4624 O   0  0  0  0  0  0  0  0  0  0  0  0
   10.0127  -16.9557   22.9917 N   0  0  0  0  0  0  0  0  0  0  0  0
   10.4899  -17.2024   24.3535 C   0  0  0  0  0  0  0  0  0  0  0  0
   10.6014  -18.6422   24.6005 C   0  0  0  0  0  0  0  0  0  0  0  0
   10.4764  -19.4441   23.6445 O   0  0  0  0  0  0  0  0  0  0  0  0
   10.8417  -19.1575   25.8607 O   0  0  0  0  0  0  0  0  0  0  0  0
  2  1  1  1
  3  2  1  0
  4  5  1  6
  4  2  1  0
  6  4  1  0
  7  6  2  0
  9 10  1  0
  9  8  1  0
 10 11  1  1
 12 10  1  0
 12 13  1  6
 13  6  1  0
 14 12  1  0
 15 14  2  0
 16 14  1  0
 17 16  1  0
 18 17  1  0
 19 18  2  0
 20 18  1  0
M  END
$$$$
