TIG.pdb
     RDKit          3D

 20 19  0  0  1  0  0  0  0  0999 V2000
    6.7894  -16.5547   21.4316 C   0  0  0  0  0  0  0  0  0  0  0  0
    7.5116  -15.5318   20.6148 C   0  0  1  0  0  0  0  0  0  0  0  0
    7.1098  -15.6098   19.2798 O   0  0  0  0  0  0  0  0  0  0  0  0
    7.2750  -14.1170   21.0689 C   0  0  2  0  0  0  0  0  0  0  0  0
    7.7182  -13.2357   19.9996 N   0  0  0  0  0  0  0  0  0  0  0  0
    8.0187  -13.8025   22.3207 C   0  0  0  0  0  0  0  0  0  0  0  0
    9.1924  -13.4320   22.2214 O   0  0  0  0  0  0  0  0  0  0  0  0
    5.3719  -11.3597   26.2874 C   0  0  0  0  0  0  0  0  0  0  0  0
    6.5296  -11.8175   25.4327 C   0  0  0  0  0  0  0  0  0  0  0  0
    7.0630  -13.1824   25.8870 C   0  0  2  0  0  0  0  0  0  0  0  0
    7.7596  -12.8966   27.1953 C   0  0  0  0  0  0  0  0  0  0  0  0
    8.0335  -13.6432   24.8700 C   0  0  2  0  0  0  0  0  0  0  0  0
    7.4416  -13.9113   23.5789 N   0  0  0  0  0  0  0  0  0  0  0  0
    8.7627  -14.8515   25.2567 C   0  0  0  0  0  0  0  0  0  0  0  0
    9.4733  -14.8588   26.3410 O   0  0  0  0  0  0  0  0  0  0  0  0
    8.7983  -16.0912   24.5717 N   0  0  0  0  0  0  0  0  0  0  0  0
    9.3915  -17.2731   25.1997 C   0  0  0  0  0  0  0  0  0  0  0  0
   10.8143  -17.3678   24.8632 C   0  0  0  0  0  0  0  0  0  0  0  0
   11.3446  -16.4712   24.1651 O   0  0  0  0  0  0  0  0  0  0  0  0
   11.6044  -18.4190   25.2902 O   0  0  0  0  0  0  0  0  0  0  0  0
  2  1  1  1
  3  2  1  0
  4  5  1  6
  4  2  1  0
  6  4  1  0
  7  6  2  0
  9 10  1  0
  9  8  1  0
 10 11  1  1
 12 10  1  0
 12 13  1  6
 13  6  1  0
 14 12  1  0
 15 14  2  0
 16 14  1  0
 17 16  1  0
 18 17  1  0
 19 18  2  0
 20 18  1  0
M  END
$$$$
