TIG.pdb
     RDKit          3D

 20 19  0  0  1  0  0  0  0  0999 V2000
    5.8012  -17.1851   21.9173 C   0  0  0  0  0  0  0  0  0  0  0  0
    6.8577  -16.7700   20.9445 C   0  0  1  0  0  0  0  0  0  0  0  0
    6.4250  -16.9981   19.6366 O   0  0  0  0  0  0  0  0  0  0  0  0
    7.2331  -15.3163   21.0419 C   0  0  2  0  0  0  0  0  0  0  0  0
    8.0980  -15.0124   19.9123 N   0  0  0  0  0  0  0  0  0  0  0  0
    7.9423  -15.0088   22.3154 C   0  0  0  0  0  0  0  0  0  0  0  0
    9.1488  -15.2626   22.3841 O   0  0  0  0  0  0  0  0  0  0  0  0
    7.1886  -11.5929   27.4642 C   0  0  0  0  0  0  0  0  0  0  0  0
    7.8324  -12.7332   26.7121 C   0  0  0  0  0  0  0  0  0  0  0  0
    7.1850  -12.9408   25.3368 C   0  0  2  0  0  0  0  0  0  0  0  0
    5.7427  -13.2621   25.6455 C   0  0  0  0  0  0  0  0  0  0  0  0
    7.8515  -14.0979   24.7000 C   0  0  2  0  0  0  0  0  0  0  0  0
    7.2983  -14.4532   23.4128 N   0  0  0  0  0  0  0  0  0  0  0  0
    7.8300  -15.3123   25.5160 C   0  0  0  0  0  0  0  0  0  0  0  0
    6.7157  -15.9493   25.6982 O   0  0  0  0  0  0  0  0  0  0  0  0
    8.9252  -15.9289   26.1701 N   0  0  0  0  0  0  0  0  0  0  0  0
    8.7451  -17.1823   26.9048 C   0  0  0  0  0  0  0  0  0  0  0  0
   10.0040  -17.5875   27.5353 C   0  0  0  0  0  0  0  0  0  0  0  0
   10.0287  -18.6066   28.2656 O   0  0  0  0  0  0  0  0  0  0  0  0
   11.1793  -16.8823   27.3547 O   0  0  0  0  0  0  0  0  0  0  0  0
  2  1  1  1
  3  2  1  0
  4  5  1  6
  4  2  1  0
  6  4  1  0
  7  6  2  0
  9 10  1  0
  9  8  1  0
 10 11  1  1
 12 10  1  0
 12 13  1  6
 13  6  1  0
 14 12  1  0
 15 14  2  0
 16 14  1  0
 17 16  1  0
 18 17  1  0
 19 18  2  0
 20 18  1  0
M  END
$$$$
