TIG.pdb
     RDKit          3D

 20 19  0  0  1  0  0  0  0  0999 V2000
   -6.8446  -26.7034   29.4155 C   0  0  0  0  0  0  0  0  0  0  0  0
   -5.5345  -27.3355   29.0709 C   0  0  1  0  0  0  0  0  0  0  0  0
   -5.7263  -28.6651   28.6899 O   0  0  0  0  0  0  0  0  0  0  0  0
   -4.8090  -26.6502   27.9449 C   0  0  2  0  0  0  0  0  0  0  0  0
   -3.6286  -27.4438   27.6394 N   0  0  0  0  0  0  0  0  0  0  0  0
   -4.4027  -25.2634   28.3071 C   0  0  0  0  0  0  0  0  0  0  0  0
   -3.3931  -25.1170   29.0026 O   0  0  0  0  0  0  0  0  0  0  0  0
   -2.9763  -21.5260   25.1164 C   0  0  0  0  0  0  0  0  0  0  0  0
   -3.2661  -22.2887   26.3871 C   0  0  0  0  0  0  0  0  0  0  0  0
   -4.6426  -21.9290   26.9613 C   0  0  2  0  0  0  0  0  0  0  0  0
   -4.5276  -20.4683   27.3245 C   0  0  0  0  0  0  0  0  0  0  0  0
   -4.8496  -22.7521   28.1729 C   0  0  2  0  0  0  0  0  0  0  0  0
   -5.1140  -24.1452   27.8928 N   0  0  0  0  0  0  0  0  0  0  0  0
   -5.9413  -22.2808   29.0257 C   0  0  0  0  0  0  0  0  0  0  0  0
   -5.8219  -21.1622   29.6699 O   0  0  0  0  0  0  0  0  0  0  0  0
   -7.1884  -22.9130   29.2551 N   0  0  0  0  0  0  0  0  0  0  0  0
   -8.2094  -22.2691   30.0833 C   0  0  0  0  0  0  0  0  0  0  0  0
   -9.4235  -23.0883   30.1225 C   0  0  0  0  0  0  0  0  0  0  0  0
  -10.4098  -22.6987   30.7917 O   0  0  0  0  0  0  0  0  0  0  0  0
   -9.5255  -24.2878   29.4428 O   0  0  0  0  0  0  0  0  0  0  0  0
  2  1  1  6
  3  2  1  0
  4  5  1  1
  4  2  1  0
  6  4  1  0
  7  6  2  0
  9 10  1  0
  9  8  1  0
 10 11  1  1
 12 10  1  0
 12 13  1  6
 13  6  1  0
 14 12  1  0
 15 14  2  0
 16 14  1  0
 17 16  1  0
 18 17  1  0
 19 18  2  0
 20 18  1  0
M  END
$$$$
