TIG.pdb
     RDKit          3D

 20 19  0  0  1  0  0  0  0  0999 V2000
    6.4028  -15.1638   19.0701 C   0  0  0  0  0  0  0  0  0  0  0  0
    7.1627  -15.0724   20.3543 C   0  0  1  0  0  0  0  0  0  0  0  0
    8.4552  -15.5734   20.1862 O   0  0  0  0  0  0  0  0  0  0  0  0
    7.2943  -13.6694   20.8816 C   0  0  2  0  0  0  0  0  0  0  0  0
    8.0132  -12.8936   19.8828 N   0  0  0  0  0  0  0  0  0  0  0  0
    8.0303  -13.6281   22.1761 C   0  0  0  0  0  0  0  0  0  0  0  0
    9.2210  -13.3020   22.1570 O   0  0  0  0  0  0  0  0  0  0  0  0
    5.6516  -11.4358   26.2975 C   0  0  0  0  0  0  0  0  0  0  0  0
    6.7531  -11.9740   25.4157 C   0  0  0  0  0  0  0  0  0  0  0  0
    7.0927  -13.4300   25.7599 C   0  0  2  0  0  0  0  0  0  0  0  0
    7.8035  -13.3455   27.0890 C   0  0  0  0  0  0  0  0  0  0  0  0
    8.0065  -13.9349   24.7118 C   0  0  2  0  0  0  0  0  0  0  0  0
    7.4277  -13.9405   23.3874 N   0  0  0  0  0  0  0  0  0  0  0  0
    8.4973  -15.2906   24.9614 C   0  0  0  0  0  0  0  0  0  0  0  0
    7.6723  -16.2904   24.9438 O   0  0  0  0  0  0  0  0  0  0  0  0
    9.8306  -15.6869   25.2312 N   0  0  0  0  0  0  0  0  0  0  0  0
   10.1713  -17.1026   25.3826 C   0  0  0  0  0  0  0  0  0  0  0  0
   10.2702  -17.4530   26.8017 C   0  0  0  0  0  0  0  0  0  0  0  0
   10.0310  -16.5814   27.6710 O   0  0  0  0  0  0  0  0  0  0  0  0
   10.6211  -18.7215   27.2250 O   0  0  0  0  0  0  0  0  0  0  0  0
  2  1  1  6
  3  2  1  0
  4  5  1  6
  4  2  1  0
  6  4  1  0
  7  6  2  0
  9 10  1  0
  9  8  1  0
 10 11  1  1
 12 10  1  0
 12 13  1  6
 13  6  1  0
 14 12  1  0
 15 14  2  0
 16 14  1  0
 17 16  1  0
 18 17  1  0
 19 18  2  0
 20 18  1  0
M  END
$$$$
