QAL.pdb
     RDKit          3D

 23 22  0  0  1  0  0  0  0  0999 V2000
   10.8284  -19.0757   18.7784 N   0  0  0  0  0  0  0  0  0  0  0  0
    9.5251  -19.4301   18.3741 C   0  0  0  0  0  0  0  0  0  0  0  0
    9.2122  -19.3313   17.1711 O   0  0  0  0  0  0  0  0  0  0  0  0
    8.5628  -19.9102   19.3800 C   0  0  0  0  0  0  0  0  0  0  0  0
    7.6115  -18.8829   19.8972 C   0  0  0  0  0  0  0  0  0  0  0  0
    7.8731  -18.4332   21.3091 C   0  0  2  0  0  0  0  0  0  0  0  0
    6.5570  -18.3208   21.9439 N   0  0  0  0  0  0  0  0  0  0  0  0
    8.4937  -17.0883   21.3554 C   0  0  0  0  0  0  0  0  0  0  0  0
    9.7377  -16.9867   21.2813 O   0  0  0  0  0  0  0  0  0  0  0  0
    7.1900  -13.6031   21.1450 C   0  0  0  0  0  0  0  0  0  0  0  0
    8.2948  -14.5716   21.5798 C   0  0  2  0  0  0  0  0  0  0  0  0
    7.7416  -15.8935   21.4809 N   0  0  0  0  0  0  0  0  0  0  0  0
    8.6616  -14.2003   22.9605 C   0  0  0  0  0  0  0  0  0  0  0  0
    9.2805  -13.1554   23.2822 O   0  0  0  0  0  0  0  0  0  0  0  0
    7.9092  -12.0277   26.4808 C   0  0  0  0  0  0  0  0  0  0  0  0
    6.8025  -12.9373   25.9473 C   0  0  2  0  0  0  0  0  0  0  0  0
    5.4909  -12.5218   26.4641 C   0  0  0  0  0  0  0  0  0  0  0  0
    7.2340  -14.3367   26.0463 C   0  0  0  0  0  0  0  0  0  0  0  0
    8.5078  -14.7419   25.4287 C   0  0  2  0  0  0  0  0  0  0  0  0
    8.2907  -15.0844   24.0042 N   0  0  0  0  0  0  0  0  0  0  0  0
    9.2280  -15.8445   26.0429 C   0  0  0  0  0  0  0  0  0  0  0  0
    9.6454  -16.9542   25.3489 O   0  0  0  0  0  0  0  0  0  0  0  0
    9.5063  -15.8319   27.2868 O   0  0  0  0  0  0  0  0  0  0  0  0
  1  2  1  0
  2  3  2  0
  4  5  1  0
  4  2  1  0
  5  6  1  0
  6  8  1  0
  6  7  1  1
  8  9  2  0
 11 10  1  1
 11 13  1  0
 12 11  1  0
 12  8  1  0
 13 14  2  0
 13 20  1  0
 16 15  1  1
 16 17  1  0
 18 16  1  0
 19 18  1  1
 19 21  1  0
 20 19  1  0
 21 23  2  0
 21 22  1  0
M  END
$$$$
