QAL.pdb
     RDKit          3D

 23 22  0  0  1  0  0  0  0  0999 V2000
   10.5265  -13.4878   19.3588 N   0  0  0  0  0  0  0  0  0  0  0  0
    9.5531  -12.9023   18.5237 C   0  0  0  0  0  0  0  0  0  0  0  0
    9.9065  -12.3851   17.4455 O   0  0  0  0  0  0  0  0  0  0  0  0
    8.1412  -12.9152   18.9418 C   0  0  0  0  0  0  0  0  0  0  0  0
    7.8710  -13.5526   20.2641 C   0  0  0  0  0  0  0  0  0  0  0  0
    8.1323  -15.0335   20.3170 C   0  0  2  0  0  0  0  0  0  0  0  0
    7.1172  -15.6502   19.4587 N   0  0  0  0  0  0  0  0  0  0  0  0
    7.9391  -15.5811   21.6804 C   0  0  0  0  0  0  0  0  0  0  0  0
    6.7938  -15.5809   22.1821 O   0  0  0  0  0  0  0  0  0  0  0  0
    9.6097  -18.0197   23.7435 C   0  0  0  0  0  0  0  0  0  0  0  0
    8.8603  -16.6835   23.7684 C   0  0  2  0  0  0  0  0  0  0  0  0
    8.9984  -16.1130   22.4574 N   0  0  0  0  0  0  0  0  0  0  0  0
    9.4906  -15.8662   24.8237 C   0  0  0  0  0  0  0  0  0  0  0  0
   10.6285  -15.3403   24.7405 O   0  0  0  0  0  0  0  0  0  0  0  0
    8.1639  -12.1189   25.8516 C   0  0  0  0  0  0  0  0  0  0  0  0
    7.2933  -13.1576   26.5586 C   0  0  2  0  0  0  0  0  0  0  0  0
    6.0005  -12.5769   26.9484 C   0  0  0  0  0  0  0  0  0  0  0  0
    8.1073  -13.8894   27.5363 C   0  0  0  0  0  0  0  0  0  0  0  0
    9.2320  -14.7135   27.0627 C   0  0  2  0  0  0  0  0  0  0  0  0
    8.7626  -15.6563   26.0214 N   0  0  0  0  0  0  0  0  0  0  0  0
    9.9633  -15.4815   28.0562 C   0  0  0  0  0  0  0  0  0  0  0  0
    9.9909  -16.8548   28.0792 O   0  0  0  0  0  0  0  0  0  0  0  0
   10.6240  -14.8986   28.9774 O   0  0  0  0  0  0  0  0  0  0  0  0
  1  2  1  0
  2  3  2  0
  4  5  1  0
  4  2  1  0
  5  6  1  0
  6  8  1  0
  6  7  1  6
  8  9  2  0
 11 10  1  6
 11 13  1  0
 12 11  1  0
 12  8  1  0
 13 14  2  0
 13 20  1  0
 16 15  1  1
 16 17  1  0
 18 16  1  0
 19 18  1  1
 19 21  1  0
 20 19  1  0
 21 23  2  0
 21 22  1  0
M  END
$$$$
