QAL.pdb
     RDKit          3D

 23 22  0  0  1  0  0  0  0  0999 V2000
    9.9384  -19.9892   17.5825 N   0  0  0  0  0  0  0  0  0  0  0  0
    8.5741  -19.6767   17.7524 C   0  0  0  0  0  0  0  0  0  0  0  0
    7.7793  -19.8872   16.8150 O   0  0  0  0  0  0  0  0  0  0  0  0
    8.1175  -19.1100   19.0326 C   0  0  0  0  0  0  0  0  0  0  0  0
    9.1927  -18.8334   20.0301 C   0  0  0  0  0  0  0  0  0  0  0  0
    8.7157  -18.2260   21.3215 C   0  0  2  0  0  0  0  0  0  0  0  0
    7.2523  -18.2193   21.2444 N   0  0  0  0  0  0  0  0  0  0  0  0
    9.1494  -16.8161   21.4633 C   0  0  0  0  0  0  0  0  0  0  0  0
   10.3710  -16.5553   21.5182 O   0  0  0  0  0  0  0  0  0  0  0  0
    7.4027  -13.5170   21.3007 C   0  0  0  0  0  0  0  0  0  0  0  0
    8.6040  -14.3572   21.7462 C   0  0  2  0  0  0  0  0  0  0  0  0
    8.2402  -15.7315   21.5409 N   0  0  0  0  0  0  0  0  0  0  0  0
    8.8452  -14.0288   23.1650 C   0  0  0  0  0  0  0  0  0  0  0  0
    9.3734  -12.9655   23.5756 O   0  0  0  0  0  0  0  0  0  0  0  0
    7.6778  -12.0097   26.4223 C   0  0  0  0  0  0  0  0  0  0  0  0
    6.6884  -13.0805   25.9627 C   0  0  2  0  0  0  0  0  0  0  0  0
    5.3327  -12.7797   26.4441 C   0  0  0  0  0  0  0  0  0  0  0  0
    7.2772  -14.4083   26.1733 C   0  0  0  0  0  0  0  0  0  0  0  0
    8.5946  -14.7117   25.5898 C   0  0  2  0  0  0  0  0  0  0  0  0
    8.4540  -14.9800   24.1400 N   0  0  0  0  0  0  0  0  0  0  0  0
    9.3466  -15.8109   26.1711 C   0  0  0  0  0  0  0  0  0  0  0  0
    9.9563  -15.7424   27.4003 O   0  0  0  0  0  0  0  0  0  0  0  0
    9.4814  -16.9139   25.5466 O   0  0  0  0  0  0  0  0  0  0  0  0
  1  2  1  0
  2  3  2  0
  4  5  1  0
  4  2  1  0
  5  6  1  0
  6  8  1  0
  6  7  1  6
  8  9  2  0
 11 10  1  1
 11 13  1  0
 12 11  1  0
 12  8  1  0
 13 14  2  0
 13 20  1  0
 16 15  1  1
 16 17  1  0
 18 16  1  0
 19 18  1  1
 19 21  1  0
 20 19  1  0
 21 23  2  0
 21 22  1  0
M  END
$$$$
