QAL.pdb
     RDKit          3D

 23 22  0  0  1  0  0  0  0  0999 V2000
   11.3306  -19.8024   18.7879 N   0  0  0  0  0  0  0  0  0  0  0  0
   10.7150  -20.8675   19.4766 C   0  0  0  0  0  0  0  0  0  0  0  0
   11.2077  -22.0102   19.3974 O   0  0  0  0  0  0  0  0  0  0  0  0
    9.5052  -20.6075   20.2749 C   0  0  0  0  0  0  0  0  0  0  0  0
    8.9416  -19.2308   20.1533 C   0  0  0  0  0  0  0  0  0  0  0  0
    8.5086  -18.6081   21.4529 C   0  0  2  0  0  0  0  0  0  0  0  0
    7.0435  -18.5982   21.4238 N   0  0  0  0  0  0  0  0  0  0  0  0
    8.9502  -17.1979   21.5651 C   0  0  0  0  0  0  0  0  0  0  0  0
   10.1721  -16.9448   21.6436 O   0  0  0  0  0  0  0  0  0  0  0  0
    7.2223  -13.9237   21.1151 C   0  0  0  0  0  0  0  0  0  0  0  0
    8.4249  -14.7194   21.6330 C   0  0  2  0  0  0  0  0  0  0  0  0
    8.0483  -16.1048   21.5883 N   0  0  0  0  0  0  0  0  0  0  0  0
    8.6917  -14.2368   23.0023 C   0  0  0  0  0  0  0  0  0  0  0  0
    9.1973  -13.1219   23.2844 O   0  0  0  0  0  0  0  0  0  0  0  0
    7.8014  -11.8438   26.1465 C   0  0  0  0  0  0  0  0  0  0  0  0
    6.7442  -12.8616   25.7189 C   0  0  2  0  0  0  0  0  0  0  0  0
    5.4030  -12.4272   26.1347 C   0  0  0  0  0  0  0  0  0  0  0  0
    7.2193  -14.2151   26.0293 C   0  0  0  0  0  0  0  0  0  0  0  0
    8.5146  -14.6637   25.4913 C   0  0  2  0  0  0  0  0  0  0  0  0
    8.3544  -15.0905   24.0821 N   0  0  0  0  0  0  0  0  0  0  0  0
    9.2000  -15.7309   26.2004 C   0  0  0  0  0  0  0  0  0  0  0  0
    9.6999  -15.5931   27.4725 O   0  0  0  0  0  0  0  0  0  0  0  0
    9.3766  -16.8699   25.6561 O   0  0  0  0  0  0  0  0  0  0  0  0
  1  2  1  0
  2  3  2  0
  4  5  1  0
  4  2  1  0
  5  6  1  0
  6  8  1  0
  6  7  1  6
  8  9  2  0
 11 10  1  1
 11 13  1  0
 12 11  1  0
 12  8  1  0
 13 14  2  0
 13 20  1  0
 16 15  1  1
 16 17  1  0
 18 16  1  0
 19 18  1  1
 19 21  1  0
 20 19  1  0
 21 23  2  0
 21 22  1  0
M  END
$$$$
