QAL.pdb
     RDKit          3D

 23 22  0  0  1  0  0  0  0  0999 V2000
   10.1862  -21.8695   19.2373 N   0  0  0  0  0  0  0  0  0  0  0  0
    9.1102  -20.9680   19.1065 C   0  0  0  0  0  0  0  0  0  0  0  0
    8.8110  -20.5360   17.9757 O   0  0  0  0  0  0  0  0  0  0  0  0
    8.3627  -20.5574   20.3070 C   0  0  0  0  0  0  0  0  0  0  0  0
    8.9508  -19.4161   21.0681 C   0  0  0  0  0  0  0  0  0  0  0  0
    7.9678  -18.3489   21.4667 C   0  0  2  0  0  0  0  0  0  0  0  0
    6.9425  -18.3376   20.4197 N   0  0  0  0  0  0  0  0  0  0  0  0
    8.5879  -17.0031   21.4817 C   0  0  0  0  0  0  0  0  0  0  0  0
    9.8336  -16.9039   21.4379 O   0  0  0  0  0  0  0  0  0  0  0  0
    7.2826  -13.5173   21.1870 C   0  0  0  0  0  0  0  0  0  0  0  0
    8.3846  -14.4816   21.6378 C   0  0  2  0  0  0  0  0  0  0  0  0
    7.8336  -15.8047   21.5437 N   0  0  0  0  0  0  0  0  0  0  0  0
    8.7396  -14.1001   23.0189 C   0  0  0  0  0  0  0  0  0  0  0  0
    9.3644  -13.0578   23.3374 O   0  0  0  0  0  0  0  0  0  0  0  0
    7.9942  -11.7995   26.2597 C   0  0  0  0  0  0  0  0  0  0  0  0
    6.8915  -12.7712   25.8396 C   0  0  2  0  0  0  0  0  0  0  0  0
    5.5788  -12.3055   26.3088 C   0  0  0  0  0  0  0  0  0  0  0  0
    7.3314  -14.1470   26.0997 C   0  0  0  0  0  0  0  0  0  0  0  0
    8.5815  -14.6299   25.4894 C   0  0  2  0  0  0  0  0  0  0  0  0
    8.3490  -14.9706   24.0669 N   0  0  0  0  0  0  0  0  0  0  0  0
    9.2352  -15.7673   26.1145 C   0  0  0  0  0  0  0  0  0  0  0  0
    9.9423  -15.6805   27.2891 O   0  0  0  0  0  0  0  0  0  0  0  0
    9.1842  -16.9247   25.5828 O   0  0  0  0  0  0  0  0  0  0  0  0
  1  2  1  0
  2  3  2  0
  4  5  1  0
  4  2  1  0
  5  6  1  0
  6  8  1  0
  6  7  1  6
  8  9  2  0
 11 10  1  1
 11 13  1  0
 12 11  1  0
 12  8  1  0
 13 14  2  0
 13 20  1  0
 16 15  1  1
 16 17  1  0
 18 16  1  0
 19 18  1  1
 19 21  1  0
 20 19  1  0
 21 23  2  0
 21 22  1  0
M  END
$$$$
