QAL.pdb
     RDKit          3D

 23 22  0  0  1  0  0  0  0  0999 V2000
    2.6557  -20.1348   21.4284 N   0  0  0  0  0  0  0  0  0  0  0  0
    4.0294  -20.2940   21.1542 C   0  0  0  0  0  0  0  0  0  0  0  0
    4.4716  -19.9552   20.0386 O   0  0  0  0  0  0  0  0  0  0  0  0
    4.9120  -20.8555   22.1908 C   0  0  0  0  0  0  0  0  0  0  0  0
    6.2608  -20.2249   22.2933 C   0  0  0  0  0  0  0  0  0  0  0  0
    6.3714  -19.1331   23.3228 C   0  0  2  0  0  0  0  0  0  0  0  0
    5.1242  -18.3691   23.2319 N   0  0  0  0  0  0  0  0  0  0  0  0
    7.4780  -18.1955   23.0184 C   0  0  0  0  0  0  0  0  0  0  0  0
    8.6586  -18.6016   23.0855 O   0  0  0  0  0  0  0  0  0  0  0  0
    7.6508  -14.7727   21.5419 C   0  0  0  0  0  0  0  0  0  0  0  0
    8.3019  -15.8899   22.3637 C   0  0  2  0  0  0  0  0  0  0  0  0
    7.2665  -16.8434   22.6499 N   0  0  0  0  0  0  0  0  0  0  0  0
    8.8537  -15.2544   23.5764 C   0  0  0  0  0  0  0  0  0  0  0  0
    9.8165  -14.4474   23.5889 O   0  0  0  0  0  0  0  0  0  0  0  0
    8.4813  -11.9362   26.2927 C   0  0  0  0  0  0  0  0  0  0  0  0
    7.3003  -12.8962   26.1508 C   0  0  2  0  0  0  0  0  0  0  0  0
    6.0434  -12.2379   26.5343 C   0  0  0  0  0  0  0  0  0  0  0  0
    7.6629  -14.1999   26.7193 C   0  0  0  0  0  0  0  0  0  0  0  0
    8.7391  -14.9842   26.0909 C   0  0  2  0  0  0  0  0  0  0  0  0
    8.2569  -15.5749   24.8213 N   0  0  0  0  0  0  0  0  0  0  0  0
    9.3347  -16.0519   26.8763 C   0  0  0  0  0  0  0  0  0  0  0  0
    9.2690  -17.3775   26.5218 O   0  0  0  0  0  0  0  0  0  0  0  0
    9.9558  -15.7985   27.9603 O   0  0  0  0  0  0  0  0  0  0  0  0
  1  2  1  0
  2  3  2  0
  4  5  1  0
  4  2  1  0
  5  6  1  0
  6  8  1  0
  6  7  1  6
  8  9  2  0
 11 10  1  6
 11 13  1  0
 12 11  1  0
 12  8  1  0
 13 14  2  0
 13 20  1  0
 16 15  1  1
 16 17  1  0
 18 16  1  0
 19 18  1  1
 19 21  1  0
 20 19  1  0
 21 23  2  0
 21 22  1  0
M  END
$$$$
