QAL.pdb
     RDKit          3D

 23 22  0  0  1  0  0  0  0  0999 V2000
    6.8002  -19.2356   27.1250 N   0  0  0  0  0  0  0  0  0  0  0  0
    7.4712  -20.1128   26.2487 C   0  0  0  0  0  0  0  0  0  0  0  0
    8.1615  -21.0372   26.7220 O   0  0  0  0  0  0  0  0  0  0  0  0
    7.3417  -19.9194   24.7947 C   0  0  0  0  0  0  0  0  0  0  0  0
    6.4036  -18.8375   24.3739 C   0  0  0  0  0  0  0  0  0  0  0  0
    6.3248  -18.6118   22.8882 C   0  0  2  0  0  0  0  0  0  0  0  0
    6.7017  -19.8854   22.2691 N   0  0  0  0  0  0  0  0  0  0  0  0
    7.3050  -17.5993   22.4296 C   0  0  0  0  0  0  0  0  0  0  0  0
    8.5113  -17.9149   22.3370 O   0  0  0  0  0  0  0  0  0  0  0  0
    7.0339  -14.0850   21.1536 C   0  0  0  0  0  0  0  0  0  0  0  0
    7.8638  -15.2178   21.7665 C   0  0  2  0  0  0  0  0  0  0  0  0
    6.9428  -16.2730   22.0852 N   0  0  0  0  0  0  0  0  0  0  0  0
    8.5320  -14.6548   22.9563 C   0  0  0  0  0  0  0  0  0  0  0  0
    9.4868  -13.8390   22.9243 O   0  0  0  0  0  0  0  0  0  0  0  0
    7.7310  -11.5823   25.7873 C   0  0  0  0  0  0  0  0  0  0  0  0
    6.7714  -12.7697   25.8639 C   0  0  2  0  0  0  0  0  0  0  0  0
    5.5119  -12.3820   26.5147 C   0  0  0  0  0  0  0  0  0  0  0  0
    7.5057  -13.9598   26.3097 C   0  0  0  0  0  0  0  0  0  0  0  0
    8.6068  -14.4779   25.4806 C   0  0  2  0  0  0  0  0  0  0  0  0
    8.0657  -15.0613   24.2314 N   0  0  0  0  0  0  0  0  0  0  0  0
    9.4900  -15.4631   26.0814 C   0  0  0  0  0  0  0  0  0  0  0  0
    9.7205  -16.7030   25.5366 O   0  0  0  0  0  0  0  0  0  0  0  0
   10.1013  -15.2149   27.1721 O   0  0  0  0  0  0  0  0  0  0  0  0
  1  2  1  0
  2  3  2  0
  4  5  1  0
  4  2  1  0
  5  6  1  0
  6  8  1  0
  6  7  1  6
  8  9  2  0
 11 10  1  1
 11 13  1  0
 12 11  1  0
 12  8  1  0
 13 14  2  0
 13 20  1  0
 16 15  1  1
 16 17  1  0
 18 16  1  0
 19 18  1  1
 19 21  1  0
 20 19  1  0
 21 23  2  0
 21 22  1  0
M  END
$$$$
