QAL.pdb
     RDKit          3D

 23 22  0  0  1  0  0  0  0  0999 V2000
    8.9498  -20.5304   17.8550 N   0  0  0  0  0  0  0  0  0  0  0  0
    7.7396  -20.5809   18.5764 C   0  0  0  0  0  0  0  0  0  0  0  0
    6.6624  -20.6681   17.9544 O   0  0  0  0  0  0  0  0  0  0  0  0
    7.7738  -20.5308   20.0477 C   0  0  0  0  0  0  0  0  0  0  0  0
    8.8173  -19.6390   20.6338 C   0  0  0  0  0  0  0  0  0  0  0  0
    8.3558  -18.8081   21.8004 C   0  0  2  0  0  0  0  0  0  0  0  0
    6.8913  -18.8316   21.7544 N   0  0  0  0  0  0  0  0  0  0  0  0
    8.7716  -17.3917   21.6697 C   0  0  0  0  0  0  0  0  0  0  0  0
    9.9898  -17.1148   21.6190 O   0  0  0  0  0  0  0  0  0  0  0  0
    6.9125  -14.2122   21.0056 C   0  0  0  0  0  0  0  0  0  0  0  0
    8.1964  -14.9355   21.4254 C   0  0  2  0  0  0  0  0  0  0  0  0
    7.8486  -16.3184   21.5980 N   0  0  0  0  0  0  0  0  0  0  0  0
    8.6526  -14.2940   22.6741 C   0  0  0  0  0  0  0  0  0  0  0  0
    9.1333  -13.1359   22.7518 O   0  0  0  0  0  0  0  0  0  0  0  0
    6.0886  -12.1318   26.8737 C   0  0  0  0  0  0  0  0  0  0  0  0
    7.4739  -12.7571   26.7101 C   0  0  2  0  0  0  0  0  0  0  0  0
    8.5267  -11.7464   26.8847 C   0  0  0  0  0  0  0  0  0  0  0  0
    7.4735  -13.6384   25.5364 C   0  0  0  0  0  0  0  0  0  0  0  0
    8.6932  -14.3931   25.2034 C   0  0  2  0  0  0  0  0  0  0  0  0
    8.5425  -15.0350   23.8772 N   0  0  0  0  0  0  0  0  0  0  0  0
    9.1244  -15.4153   26.1419 C   0  0  0  0  0  0  0  0  0  0  0  0
    9.2482  -16.7425   25.8094 O   0  0  0  0  0  0  0  0  0  0  0  0
    9.4088  -15.1177   27.3483 O   0  0  0  0  0  0  0  0  0  0  0  0
  1  2  1  0
  2  3  2  0
  4  5  1  0
  4  2  1  0
  5  6  1  0
  6  8  1  0
  6  7  1  6
  8  9  2  0
 11 10  1  1
 11 13  1  0
 12 11  1  0
 12  8  1  0
 13 14  2  0
 13 20  1  0
 16 15  1  6
 16 17  1  0
 18 16  1  0
 19 18  1  1
 19 21  1  0
 20 19  1  0
 21 23  2  0
 21 22  1  0
M  END
$$$$
