QAL.pdb
     RDKit          3D

 23 22  0  0  1  0  0  0  0  0999 V2000
   11.6599  -14.0406   20.5036 N   0  0  0  0  0  0  0  0  0  0  0  0
   11.5436  -13.5893   19.1730 C   0  0  0  0  0  0  0  0  0  0  0  0
   12.4211  -13.9025   18.3443 O   0  0  0  0  0  0  0  0  0  0  0  0
   10.3888  -12.7595   18.7906 C   0  0  0  0  0  0  0  0  0  0  0  0
    9.1346  -13.0151   19.5584 C   0  0  0  0  0  0  0  0  0  0  0  0
    8.5422  -14.3845   19.3632 C   0  0  2  0  0  0  0  0  0  0  0  0
    7.4094  -14.2045   18.4511 N   0  0  0  0  0  0  0  0  0  0  0  0
    7.9990  -14.9375   20.6262 C   0  0  0  0  0  0  0  0  0  0  0  0
    6.9045  -14.5142   21.0577 O   0  0  0  0  0  0  0  0  0  0  0  0
    8.7072  -17.9537   22.6423 C   0  0  0  0  0  0  0  0  0  0  0  0
    8.1721  -16.5187   22.5994 C   0  0  2  0  0  0  0  0  0  0  0  0
    8.6635  -15.9354   21.3823 N   0  0  0  0  0  0  0  0  0  0  0  0
    8.6793  -15.8433   23.8100 C   0  0  0  0  0  0  0  0  0  0  0  0
    9.8687  -15.4776   23.9826 O   0  0  0  0  0  0  0  0  0  0  0  0
    7.7579  -11.9931   25.9802 C   0  0  0  0  0  0  0  0  0  0  0  0
    6.5783  -12.9575   26.1022 C   0  0  2  0  0  0  0  0  0  0  0  0
    5.3901  -12.2658   26.6218 C   0  0  0  0  0  0  0  0  0  0  0  0
    7.0370  -14.2116   26.7111 C   0  0  0  0  0  0  0  0  0  0  0  0
    8.1794  -14.9246   26.1154 C   0  0  2  0  0  0  0  0  0  0  0  0
    7.7607  -15.5859   24.8581 N   0  0  0  0  0  0  0  0  0  0  0  0
    8.8482  -15.9201   26.9361 C   0  0  0  0  0  0  0  0  0  0  0  0
    8.7410  -17.2726   26.7207 O   0  0  0  0  0  0  0  0  0  0  0  0
    9.5783  -15.5722   27.9214 O   0  0  0  0  0  0  0  0  0  0  0  0
  1  2  1  0
  2  3  2  0
  4  5  1  0
  4  2  1  0
  5  6  1  0
  6  8  1  0
  6  7  1  6
  8  9  2  0
 11 10  1  1
 11 13  1  0
 12 11  1  0
 12  8  1  0
 13 14  2  0
 13 20  1  0
 16 15  1  1
 16 17  1  0
 18 16  1  0
 19 18  1  1
 19 21  1  0
 20 19  1  0
 21 23  2  0
 21 22  1  0
M  END
$$$$
