QAL.pdb
     RDKit          3D

 23 22  0  0  1  0  0  0  0  0999 V2000
    7.1493  -18.5800   17.7351 N   0  0  0  0  0  0  0  0  0  0  0  0
    6.5626  -19.7336   18.2940 C   0  0  0  0  0  0  0  0  0  0  0  0
    5.6614  -20.3242   17.6664 O   0  0  0  0  0  0  0  0  0  0  0  0
    7.0272  -20.2167   19.6053 C   0  0  0  0  0  0  0  0  0  0  0  0
    8.1513  -19.4437   20.2107 C   0  0  0  0  0  0  0  0  0  0  0  0
    7.7862  -18.6543   21.4386 C   0  0  2  0  0  0  0  0  0  0  0  0
    6.3672  -18.3192   21.2921 N   0  0  0  0  0  0  0  0  0  0  0  0
    8.5290  -17.3742   21.5146 C   0  0  0  0  0  0  0  0  0  0  0  0
    9.7792  -17.3922   21.5100 O   0  0  0  0  0  0  0  0  0  0  0  0
    7.5465  -13.7855   21.2290 C   0  0  0  0  0  0  0  0  0  0  0  0
    8.5601  -14.8450   21.6738 C   0  0  2  0  0  0  0  0  0  0  0  0
    7.8887  -16.1122   21.5933 N   0  0  0  0  0  0  0  0  0  0  0  0
    8.9639  -14.4911   23.0488 C   0  0  0  0  0  0  0  0  0  0  0  0
    9.8560  -13.6566   23.3424 O   0  0  0  0  0  0  0  0  0  0  0  0
    8.1870  -11.9790   26.4006 C   0  0  0  0  0  0  0  0  0  0  0  0
    7.0212  -12.8768   25.9867 C   0  0  2  0  0  0  0  0  0  0  0  0
    5.7502  -12.3563   26.5102 C   0  0  0  0  0  0  0  0  0  0  0  0
    7.3931  -14.2816   26.1924 C   0  0  0  0  0  0  0  0  0  0  0  0
    8.5993  -14.8101   25.5336 C   0  0  2  0  0  0  0  0  0  0  0  0
    8.2994  -15.1376   24.1207 N   0  0  0  0  0  0  0  0  0  0  0  0
    9.2327  -15.9733   26.1314 C   0  0  0  0  0  0  0  0  0  0  0  0
    9.8873  -15.9401   27.3388 O   0  0  0  0  0  0  0  0  0  0  0  0
    9.2127  -17.1039   25.5430 O   0  0  0  0  0  0  0  0  0  0  0  0
  1  2  1  0
  2  3  2  0
  4  5  1  0
  4  2  1  0
  5  6  1  0
  6  8  1  0
  6  7  1  6
  8  9  2  0
 11 10  1  1
 11 13  1  0
 12 11  1  0
 12  8  1  0
 13 14  2  0
 13 20  1  0
 16 15  1  1
 16 17  1  0
 18 16  1  0
 19 18  1  1
 19 21  1  0
 20 19  1  0
 21 23  2  0
 21 22  1  0
M  END
$$$$
