QAL.pdb
     RDKit          3D

 23 22  0  0  1  0  0  0  0  0999 V2000
   11.3895  -15.7039   16.9089 N   0  0  0  0  0  0  0  0  0  0  0  0
   10.3695  -16.2540   16.1060 C   0  0  0  0  0  0  0  0  0  0  0  0
   10.6222  -16.5585   14.9235 O   0  0  0  0  0  0  0  0  0  0  0  0
    9.0293  -16.4580   16.6810 C   0  0  0  0  0  0  0  0  0  0  0  0
    8.9008  -16.1401   18.1336 C   0  0  0  0  0  0  0  0  0  0  0  0
    9.4219  -17.2037   19.0618 C   0  0  2  0  0  0  0  0  0  0  0  0
    9.0045  -18.4824   18.4801 N   0  0  0  0  0  0  0  0  0  0  0  0
    8.8043  -17.1160   20.4061 C   0  0  0  0  0  0  0  0  0  0  0  0
    7.7175  -16.5126   20.5409 O   0  0  0  0  0  0  0  0  0  0  0  0
    9.3592  -18.9122   23.6045 C   0  0  0  0  0  0  0  0  0  0  0  0
    8.8035  -17.6842   22.8760 C   0  0  2  0  0  0  0  0  0  0  0  0
    9.3882  -17.6880   21.5640 N   0  0  0  0  0  0  0  0  0  0  0  0
    9.1910  -16.5071   23.6780 C   0  0  0  0  0  0  0  0  0  0  0  0
   10.3118  -15.9417   23.6275 O   0  0  0  0  0  0  0  0  0  0  0  0
    5.9065  -12.4171   26.8847 C   0  0  0  0  0  0  0  0  0  0  0  0
    7.3312  -12.8818   26.5833 C   0  0  2  0  0  0  0  0  0  0  0  0
    8.1951  -11.7385   26.2565 C   0  0  0  0  0  0  0  0  0  0  0  0
    7.2834  -14.0558   25.7037 C   0  0  0  0  0  0  0  0  0  0  0  0
    8.5271  -14.7895   25.4153 C   0  0  2  0  0  0  0  0  0  0  0  0
    8.2314  -15.9711   24.5728 N   0  0  0  0  0  0  0  0  0  0  0  0
    9.3150  -15.2420   26.5493 C   0  0  0  0  0  0  0  0  0  0  0  0
    9.0560  -16.4048   27.2333 O   0  0  0  0  0  0  0  0  0  0  0  0
   10.3038  -14.5584   26.9734 O   0  0  0  0  0  0  0  0  0  0  0  0
  1  2  1  0
  2  3  2  0
  4  5  1  0
  4  2  1  0
  5  6  1  0
  6  8  1  0
  6  7  1  6
  8  9  2  0
 11 10  1  1
 11 13  1  0
 12 11  1  0
 12  8  1  0
 13 14  2  0
 13 20  1  0
 16 15  1  6
 16 17  1  0
 18 16  1  0
 19 18  1  1
 19 21  1  0
 20 19  1  0
 21 23  2  0
 21 22  1  0
M  END
$$$$
