TQC.pdb
     RDKit          3D

 23 22  0  0  1  0  0  0  0  0999 V2000
    8.4841  -12.6603   20.3390 C   0  0  0  0  0  0  0  0  0  0  0  0
    7.6708  -13.6887   19.5970 C   0  0  1  0  0  0  0  0  0  0  0  0
    7.9618  -13.4717   18.2215 O   0  0  0  0  0  0  0  0  0  0  0  0
    8.1495  -15.1025   19.8626 C   0  0  2  0  0  0  0  0  0  0  0  0
    7.1710  -15.9490   19.1371 N   0  0  0  0  0  0  0  0  0  0  0  0
    8.0797  -15.5107   21.2736 C   0  0  0  0  0  0  0  0  0  0  0  0
    6.9351  -15.6434   21.8093 O   0  0  0  0  0  0  0  0  0  0  0  0
   10.1675  -19.6447   24.3479 N   0  0  0  0  0  0  0  0  0  0  0  0
   10.2152  -18.8416   25.5047 C   0  0  0  0  0  0  0  0  0  0  0  0
   10.3008  -19.3992   26.6245 O   0  0  0  0  0  0  0  0  0  0  0  0
   10.1636  -17.3637   25.3756 C   0  0  0  0  0  0  0  0  0  0  0  0
   10.0946  -17.0260   23.9270 C   0  0  0  0  0  0  0  0  0  0  0  0
    8.9731  -16.0754   23.5545 C   0  0  2  0  0  0  0  0  0  0  0  0
    9.1888  -15.7839   22.1253 N   0  0  0  0  0  0  0  0  0  0  0  0
    9.0252  -14.8315   24.3242 C   0  0  0  0  0  0  0  0  0  0  0  0
    9.9899  -14.0108   24.1569 O   0  0  0  0  0  0  0  0  0  0  0  0
    8.0583  -14.4341   25.2826 N   0  0  0  0  0  0  0  0  0  0  0  0
    8.1775  -13.2217   26.0621 C   0  0  1  0  0  0  0  0  0  0  0  0
    6.9153  -12.3842   25.9794 C   0  0  0  0  0  0  0  0  0  0  0  0
    5.4896  -13.2454   26.6788 S   0  0  0  0  0  0  0  0  0  0  0  0
    8.4574  -13.5132   27.4876 C   0  0  0  0  0  0  0  0  0  0  0  0
    8.7227  -12.5224   28.4125 O   0  0  0  0  0  0  0  0  0  0  0  0
    8.4537  -14.7062   27.8709 O   0  0  0  0  0  0  0  0  0  0  0  0
  2  1  1  1
  2  4  1  0
  2  3  1  0
  4  5  1  6
  6  7  2  0
  6  4  1  0
  8  9  1  0
  9 11  1  0
  9 10  2  0
 11 12  1  0
 13 12  1  1
 13 15  1  0
 13 14  1  0
 14  6  1  0
 15 17  1  0
 16 15  2  0
 17 18  1  0
 18 21  1  0
 19 20  1  0
 18 19  1  1
 21 23  2  0
 21 22  1  0
M  END
$$$$
