TQC.pdb
     RDKit          3D

 23 22  0  0  1  0  0  0  0  0999 V2000
    7.4363  -11.9777   18.7569 C   0  0  0  0  0  0  0  0  0  0  0  0
    8.4587  -12.9528   19.2798 C   0  0  1  0  0  0  0  0  0  0  0  0
    7.7030  -14.0142   19.8510 O   0  0  0  0  0  0  0  0  0  0  0  0
    9.2481  -13.6122   18.1660 C   0  0  2  0  0  0  0  0  0  0  0  0
    8.2081  -14.2689   17.3368 N   0  0  0  0  0  0  0  0  0  0  0  0
   10.1518  -14.6818   18.6150 C   0  0  0  0  0  0  0  0  0  0  0  0
    9.7422  -15.8834   18.5590 O   0  0  0  0  0  0  0  0  0  0  0  0
   16.0513  -13.3531   17.5329 N   0  0  0  0  0  0  0  0  0  0  0  0
   15.5881  -14.4325   18.3112 C   0  0  0  0  0  0  0  0  0  0  0  0
   16.2859  -15.4720   18.3792 O   0  0  0  0  0  0  0  0  0  0  0  0
   14.2939  -14.3182   19.0291 C   0  0  0  0  0  0  0  0  0  0  0  0
   13.5602  -15.6044   18.8721 C   0  0  0  0  0  0  0  0  0  0  0  0
   12.2376  -15.6696   19.6115 C   0  0  2  0  0  0  0  0  0  0  0  0
   11.4744  -14.5094   19.1162 N   0  0  0  0  0  0  0  0  0  0  0  0
   12.4098  -15.5633   21.0612 C   0  0  0  0  0  0  0  0  0  0  0  0
   12.7675  -14.4556   21.5875 O   0  0  0  0  0  0  0  0  0  0  0  0
   12.2060  -16.6256   21.9783 N   0  0  0  0  0  0  0  0  0  0  0  0
   12.3788  -16.4743   23.4062 C   0  0  1  0  0  0  0  0  0  0  0  0
   11.0579  -16.6056   24.1407 C   0  0  0  0  0  0  0  0  0  0  0  0
   10.0546  -17.9567   23.4840 S   0  0  0  0  0  0  0  0  0  0  0  0
   13.3236  -17.4767   23.9521 C   0  0  0  0  0  0  0  0  0  0  0  0
   13.8562  -17.3839   25.2231 O   0  0  0  0  0  0  0  0  0  0  0  0
   13.6535  -18.4484   23.2329 O   0  0  0  0  0  0  0  0  0  0  0  0
  2  1  1  6
  2  4  1  0
  2  3  1  0
  4  5  1  6
  6  7  2  0
  6  4  1  0
  8  9  1  0
  9 11  1  0
  9 10  2  0
 11 12  1  0
 13 12  1  6
 13 15  1  0
 13 14  1  0
 14  6  1  0
 15 17  1  0
 16 15  2  0
 17 18  1  0
 18 21  1  0
 19 20  1  0
 18 19  1  1
 21 23  2  0
 21 22  1  0
M  END
$$$$
