TQC.pdb
     RDKit          3D

 23 22  0  0  1  0  0  0  0  0999 V2000
   -0.2912  -28.8082   31.5262 C   0  0  0  0  0  0  0  0  0  0  0  0
   -1.5225  -28.1582   32.1016 C   0  0  1  0  0  0  0  0  0  0  0  0
   -1.1285  -27.6839   33.3836 O   0  0  0  0  0  0  0  0  0  0  0  0
   -1.9197  -26.9061   31.3447 C   0  0  2  0  0  0  0  0  0  0  0  0
   -0.7734  -25.9881   31.5538 N   0  0  0  0  0  0  0  0  0  0  0  0
   -3.1010  -26.2190   31.8878 C   0  0  0  0  0  0  0  0  0  0  0  0
   -4.2341  -26.7829   31.7749 O   0  0  0  0  0  0  0  0  0  0  0  0
   -3.5122  -22.2884   36.5127 N   0  0  0  0  0  0  0  0  0  0  0  0
   -3.8448  -23.6453   36.6970 C   0  0  0  0  0  0  0  0  0  0  0  0
   -3.8977  -24.1014   37.8638 O   0  0  0  0  0  0  0  0  0  0  0  0
   -4.1235  -24.5002   35.5161 C   0  0  0  0  0  0  0  0  0  0  0  0
   -4.0318  -23.6516   34.2960 C   0  0  0  0  0  0  0  0  0  0  0  0
   -4.3809  -24.3658   33.0043 C   0  0  2  0  0  0  0  0  0  0  0  0
   -3.1094  -24.9563   32.5477 N   0  0  0  0  0  0  0  0  0  0  0  0
   -4.8909  -23.4466   31.9858 C   0  0  0  0  0  0  0  0  0  0  0  0
   -4.1707  -22.4731   31.5786 O   0  0  0  0  0  0  0  0  0  0  0  0
   -6.1697  -23.5417   31.3802 N   0  0  0  0  0  0  0  0  0  0  0  0
   -6.6233  -22.6274   30.3555 C   0  0  1  0  0  0  0  0  0  0  0  0
   -7.2352  -23.3698   29.1826 C   0  0  0  0  0  0  0  0  0  0  0  0
   -8.0380  -22.2448   28.0193 S   0  0  0  0  0  0  0  0  0  0  0  0
   -7.6241  -21.6695   30.8812 C   0  0  0  0  0  0  0  0  0  0  0  0
   -7.5803  -20.3176   30.6013 O   0  0  0  0  0  0  0  0  0  0  0  0
   -8.5479  -22.1018   31.6091 O   0  0  0  0  0  0  0  0  0  0  0  0
  2  1  1  6
  2  4  1  0
  2  3  1  0
  4  5  1  1
  6  7  2  0
  6  4  1  0
  8  9  1  0
  9 11  1  0
  9 10  2  0
 11 12  1  0
 13 12  1  1
 13 15  1  0
 13 14  1  0
 14  6  1  0
 15 17  1  0
 16 15  2  0
 17 18  1  0
 18 21  1  0
 19 20  1  0
 18 19  1  6
 21 23  2  0
 21 22  1  0
M  END
$$$$
