TQC.pdb
     RDKit          3D

 23 22  0  0  1  0  0  0  0  0999 V2000
    8.3882  -12.6532   20.2523 C   0  0  0  0  0  0  0  0  0  0  0  0
    7.7990  -13.7344   19.3844 C   0  0  1  0  0  0  0  0  0  0  0  0
    8.5427  -13.6857   18.1726 O   0  0  0  0  0  0  0  0  0  0  0  0
    8.0662  -15.1225   19.9325 C   0  0  2  0  0  0  0  0  0  0  0  0
    7.3344  -16.0167   19.0023 N   0  0  0  0  0  0  0  0  0  0  0  0
    7.5001  -15.3660   21.2676 C   0  0  0  0  0  0  0  0  0  0  0  0
    6.2361  -15.4123   21.3896 O   0  0  0  0  0  0  0  0  0  0  0  0
    8.2432  -19.8222   24.5269 N   0  0  0  0  0  0  0  0  0  0  0  0
    7.4481  -19.1670   25.4881 C   0  0  0  0  0  0  0  0  0  0  0  0
    7.0242  -19.8217   26.4698 O   0  0  0  0  0  0  0  0  0  0  0  0
    7.1309  -17.7266   25.3206 C   0  0  0  0  0  0  0  0  0  0  0  0
    7.7257  -17.2662   24.0355 C   0  0  0  0  0  0  0  0  0  0  0  0
    7.5330  -15.7901   23.7452 C   0  0  2  0  0  0  0  0  0  0  0  0
    8.2381  -15.5643   22.4701 N   0  0  0  0  0  0  0  0  0  0  0  0
    8.1148  -14.9420   24.7867 C   0  0  0  0  0  0  0  0  0  0  0  0
    9.3648  -14.6784   24.7784 O   0  0  0  0  0  0  0  0  0  0  0  0
    7.3851  -14.3581   25.8533 N   0  0  0  0  0  0  0  0  0  0  0  0
    7.9755  -13.4319   26.7942 C   0  0  1  0  0  0  0  0  0  0  0  0
    6.9160  -12.5962   27.4873 C   0  0  0  0  0  0  0  0  0  0  0  0
    6.0324  -11.5319   26.3254 S   0  0  0  0  0  0  0  0  0  0  0  0
    8.7719  -14.1349   27.8272 C   0  0  0  0  0  0  0  0  0  0  0  0
    9.4748  -13.4653   28.8097 O   0  0  0  0  0  0  0  0  0  0  0  0
    8.8103  -15.3872   27.8100 O   0  0  0  0  0  0  0  0  0  0  0  0
  2  1  1  1
  2  4  1  0
  2  3  1  0
  4  5  1  6
  6  7  2  0
  6  4  1  0
  8  9  1  0
  9 11  1  0
  9 10  2  0
 11 12  1  0
 13 12  1  1
 13 15  1  0
 13 14  1  0
 14  6  1  0
 15 17  1  0
 16 15  2  0
 17 18  1  0
 18 21  1  0
 19 20  1  0
 18 19  1  1
 21 23  2  0
 21 22  1  0
M  END
$$$$
