TQC.pdb
     RDKit          3D

 23 22  0  0  1  0  0  0  0  0999 V2000
    7.0452  -12.9795   19.9976 C   0  0  0  0  0  0  0  0  0  0  0  0
    8.0327  -13.5880   20.9589 C   0  0  1  0  0  0  0  0  0  0  0  0
    7.3514  -13.6446   22.2064 O   0  0  0  0  0  0  0  0  0  0  0  0
    8.3366  -15.0369   20.6319 C   0  0  2  0  0  0  0  0  0  0  0  0
    6.9964  -15.6636   20.5249 N   0  0  0  0  0  0  0  0  0  0  0  0
    9.0458  -15.7623   21.6965 C   0  0  0  0  0  0  0  0  0  0  0  0
    8.4045  -16.6290   22.3690 O   0  0  0  0  0  0  0  0  0  0  0  0
   15.7155  -16.8088   24.3803 N   0  0  0  0  0  0  0  0  0  0  0  0
   14.7448  -17.0717   23.3933 C   0  0  0  0  0  0  0  0  0  0  0  0
   15.1113  -17.1824   22.1994 O   0  0  0  0  0  0  0  0  0  0  0  0
   13.3194  -17.2110   23.7837 C   0  0  0  0  0  0  0  0  0  0  0  0
   12.4983  -16.4020   22.8411 C   0  0  0  0  0  0  0  0  0  0  0  0
   11.0075  -16.4326   23.1184 C   0  0  2  0  0  0  0  0  0  0  0  0
   10.4129  -15.5944   22.0611 N   0  0  0  0  0  0  0  0  0  0  0  0
   10.6787  -15.8758   24.4316 C   0  0  0  0  0  0  0  0  0  0  0  0
   11.1422  -16.4141   25.4934 O   0  0  0  0  0  0  0  0  0  0  0  0
    9.8558  -14.7406   24.6440 N   0  0  0  0  0  0  0  0  0  0  0  0
    9.5385  -14.2362   25.9618 C   0  0  1  0  0  0  0  0  0  0  0  0
    8.2930  -13.3704   25.9381 C   0  0  0  0  0  0  0  0  0  0  0  0
    7.9051  -12.7053   27.5723 S   0  0  0  0  0  0  0  0  0  0  0  0
    9.3301  -15.3358   26.9328 C   0  0  0  0  0  0  0  0  0  0  0  0
    9.8069  -15.2863   28.2282 O   0  0  0  0  0  0  0  0  0  0  0  0
    8.6959  -16.3522   26.5654 O   0  0  0  0  0  0  0  0  0  0  0  0
  2  1  1  6
  2  4  1  0
  2  3  1  0
  4  5  1  1
  6  7  2  0
  6  4  1  0
  8  9  1  0
  9 11  1  0
  9 10  2  0
 11 12  1  0
 13 12  1  6
 13 15  1  0
 13 14  1  0
 14  6  1  0
 15 17  1  0
 16 15  2  0
 17 18  1  0
 18 21  1  0
 19 20  1  0
 18 19  1  6
 21 23  2  0
 21 22  1  0
M  END
$$$$
