TQC.pdb
     RDKit          3D

 23 22  0  0  1  0  0  0  0  0999 V2000
    9.4428  -14.1985   18.2032 C   0  0  0  0  0  0  0  0  0  0  0  0
    9.1256  -14.4841   19.6480 C   0  0  1  0  0  0  0  0  0  0  0  0
    9.6762  -13.3910   20.3732 O   0  0  0  0  0  0  0  0  0  0  0  0
    7.6387  -14.4137   19.9359 C   0  0  2  0  0  0  0  0  0  0  0  0
    7.2952  -12.9944   19.6751 N   0  0  0  0  0  0  0  0  0  0  0  0
    7.2804  -14.6723   21.3384 C   0  0  0  0  0  0  0  0  0  0  0  0
    6.9598  -13.6861   22.0729 O   0  0  0  0  0  0  0  0  0  0  0  0
    7.2258  -20.1391   24.1477 N   0  0  0  0  0  0  0  0  0  0  0  0
    7.0040  -19.3465   25.2914 C   0  0  0  0  0  0  0  0  0  0  0  0
    6.9871  -19.9001   26.4163 O   0  0  0  0  0  0  0  0  0  0  0  0
    6.7964  -17.8843   25.1428 C   0  0  0  0  0  0  0  0  0  0  0  0
    6.9375  -17.5390   23.7013 C   0  0  0  0  0  0  0  0  0  0  0  0
    6.8832  -16.0533   23.4011 C   0  0  2  0  0  0  0  0  0  0  0  0
    7.2502  -15.9456   21.9771 N   0  0  0  0  0  0  0  0  0  0  0  0
    7.8324  -15.2909   24.2135 C   0  0  0  0  0  0  0  0  0  0  0  0
    9.0806  -15.3206   23.9427 O   0  0  0  0  0  0  0  0  0  0  0  0
    7.4781  -14.4841   25.3246 N   0  0  0  0  0  0  0  0  0  0  0  0
    8.4445  -13.7124   26.0746 C   0  0  1  0  0  0  0  0  0  0  0  0
    7.8810  -12.3637   26.4804 C   0  0  0  0  0  0  0  0  0  0  0  0
    6.0839  -12.4114   26.6581 S   0  0  0  0  0  0  0  0  0  0  0  0
    8.8851  -14.4262   27.2960 C   0  0  0  0  0  0  0  0  0  0  0  0
    9.9127  -13.9677   28.0971 O   0  0  0  0  0  0  0  0  0  0  0  0
    8.3031  -15.4886   27.6163 O   0  0  0  0  0  0  0  0  0  0  0  0
  2  1  1  6
  2  4  1  0
  2  3  1  0
  4  5  1  1
  6  7  2  0
  6  4  1  0
  8  9  1  0
  9 11  1  0
  9 10  2  0
 11 12  1  0
 13 12  1  1
 13 15  1  0
 13 14  1  0
 14  6  1  0
 15 17  1  0
 16 15  2  0
 17 18  1  0
 18 21  1  0
 19 20  1  0
 18 19  1  1
 21 23  2  0
 21 22  1  0
M  END
$$$$
