TQC.pdb
     RDKit          3D

 23 22  0  0  1  0  0  0  0  0999 V2000
    7.1922  -12.1271   19.0038 C   0  0  0  0  0  0  0  0  0  0  0  0
    8.3692  -12.9833   19.3925 C   0  0  1  0  0  0  0  0  0  0  0  0
    7.8044  -14.1401   19.9980 O   0  0  0  0  0  0  0  0  0  0  0  0
    9.1155  -13.5184   18.1861 C   0  0  2  0  0  0  0  0  0  0  0  0
    8.1239  -14.3966   17.5183 N   0  0  0  0  0  0  0  0  0  0  0  0
   10.2657  -14.3733   18.5155 C   0  0  0  0  0  0  0  0  0  0  0  0
   10.1036  -15.6336   18.5122 O   0  0  0  0  0  0  0  0  0  0  0  0
   15.5587  -15.8403   16.8194 N   0  0  0  0  0  0  0  0  0  0  0  0
   15.1598  -16.1742   18.1289 C   0  0  0  0  0  0  0  0  0  0  0  0
   14.8532  -17.3632   18.3826 O   0  0  0  0  0  0  0  0  0  0  0  0
   15.1110  -15.1204   19.1731 C   0  0  0  0  0  0  0  0  0  0  0  0
   13.9218  -14.2630   18.9128 C   0  0  0  0  0  0  0  0  0  0  0  0
   12.5965  -14.8883   19.3039 C   0  0  2  0  0  0  0  0  0  0  0  0
   11.5784  -13.9265   18.8431 N   0  0  0  0  0  0  0  0  0  0  0  0
   12.4795  -15.0741   20.7510 C   0  0  0  0  0  0  0  0  0  0  0  0
   12.0328  -14.1303   21.4872 O   0  0  0  0  0  0  0  0  0  0  0  0
   12.8316  -16.2604   21.4437 N   0  0  0  0  0  0  0  0  0  0  0  0
   12.4135  -16.5303   22.8017 C   0  0  1  0  0  0  0  0  0  0  0  0
   10.9030  -16.6214   22.9081 C   0  0  0  0  0  0  0  0  0  0  0  0
   10.3748  -17.1403   24.5559 S   0  0  0  0  0  0  0  0  0  0  0  0
   12.9992  -17.7912   23.3140 C   0  0  0  0  0  0  0  0  0  0  0  0
   13.1300  -18.0579   24.6629 O   0  0  0  0  0  0  0  0  0  0  0  0
   13.3922  -18.6511   22.4916 O   0  0  0  0  0  0  0  0  0  0  0  0
  2  1  1  6
  2  4  1  0
  2  3  1  0
  4  5  1  6
  6  7  2  0
  6  4  1  0
  8  9  1  0
  9 11  1  0
  9 10  2  0
 11 12  1  0
 13 12  1  1
 13 15  1  0
 13 14  1  0
 14  6  1  0
 15 17  1  0
 16 15  2  0
 17 18  1  0
 18 21  1  0
 19 20  1  0
 18 19  1  6
 21 23  2  0
 21 22  1  0
M  END
$$$$
