INW.pdb
     RDKit          3D

 31 32  0  0  1  0  0  0  0  0999 V2000
   30.4424  -19.3886  -18.0779 C   0  0  0  0  0  0  0  0  0  0  0  0
   29.9637  -18.0106  -17.7802 C   0  0  0  0  0  0  0  0  0  0  0  0
   29.0659  -17.9070  -16.5895 C   0  0  2  0  0  0  0  0  0  0  0  0
   29.7591  -18.4300  -15.3343 C   0  0  0  0  0  0  0  0  0  0  0  0
   27.7059  -18.4992  -16.7585 C   0  0  2  0  0  0  0  0  0  0  0  0
   27.0888  -17.8165  -17.8797 N   0  0  0  0  0  0  0  0  0  0  0  0
   26.8557  -18.4174  -15.5384 C   0  0  0  0  0  0  0  0  0  0  0  0
   26.6202  -17.2891  -15.0633 O   0  0  0  0  0  0  0  0  0  0  0  0
   23.5703  -19.5488  -11.5797 N   0  0  0  0  0  0  0  0  0  0  0  0
   23.1133  -19.2615  -12.9079 C   0  0  0  0  0  0  0  0  0  0  0  0
   21.8718  -19.0856  -13.0054 O   0  0  0  0  0  0  0  0  0  0  0  0
   24.0754  -19.1949  -14.0206 C   0  0  0  0  0  0  0  0  0  0  0  0
   25.4690  -19.4936  -13.6916 C   0  0  2  0  0  0  0  0  0  0  0  0
   26.3128  -19.5474  -14.9040 N   0  0  0  0  0  0  0  0  0  0  0  0
   25.8336  -20.6135  -12.8718 C   0  0  0  0  0  0  0  0  0  0  0  0
   25.2286  -21.7248  -13.0404 O   0  0  0  0  0  0  0  0  0  0  0  0
   26.8322  -20.6086  -11.8636 N   0  0  0  0  0  0  0  0  0  0  0  0
   26.5921  -20.7352  -10.4751 C   0  0  1  0  0  0  0  0  0  0  0  0
   27.0687  -19.6641   -9.5641 C   0  0  0  0  0  0  0  0  0  0  0  0
   26.8267  -19.8881   -8.1219 C   0  0  0  0  0  0  0  0  0  0  0  0
   25.6879  -20.4795   -7.5622 C   0  0  0  0  0  0  0  0  0  0  0  0
   25.8397  -20.5286   -6.2378 N   0  0  0  0  0  0  0  0  0  0  0  0
   27.0052  -20.0093   -5.8685 C   0  0  0  0  0  0  0  0  0  0  0  0
   27.6159  -19.8209   -4.6559 C   0  0  0  0  0  0  0  0  0  0  0  0
   28.8525  -19.2311   -4.5669 C   0  0  0  0  0  0  0  0  0  0  0  0
   29.4984  -18.8176   -5.7148 C   0  0  0  0  0  0  0  0  0  0  0  0
   28.8595  -19.0195   -6.9308 C   0  0  0  0  0  0  0  0  0  0  0  0
   27.6216  -19.6090   -7.0429 C   0  0  0  0  0  0  0  0  0  0  0  0
   25.1567  -21.1102  -10.1732 C   0  0  0  0  0  0  0  0  0  0  0  0
   24.8521  -22.1655   -9.5921 O   0  0  0  0  0  0  0  0  0  0  0  0
   24.1754  -20.2276  -10.5725 O   0  0  0  0  0  0  0  0  0  0  0  0
  2  3  1  0
  2  1  1  0
  3  4  1  1
  5  6  1  6
  5  3  1  0
  7  5  1  0
  8  7  2  0
  9 10  1  0
 10 12  1  0
 11 10  2  0
 13 12  1  6
 13 15  1  0
 13 14  1  0
 14  7  1  0
 15 16  2  0
 17 18  1  0
 17 15  1  0
 18 29  1  0
 18 19  1  1
 20 19  1  0
 20 28  1  0
 21 20  2  0
 22 21  1  0
 22 23  1  0
 23 24  1  0
 23 28  2  0
 24 25  2  0
 25 26  1  0
 27 26  2  0
 28 27  1  0
 29 30  2  0
 29 31  1  0
M  END
$$$$
