INW.pdb
     RDKit          3D

 31 32  0  0  1  0  0  0  0  0999 V2000
   27.2547  -17.1880  -17.3981 C   0  0  0  0  0  0  0  0  0  0  0  0
   25.8799  -16.8871  -16.9122 C   0  0  0  0  0  0  0  0  0  0  0  0
   24.8792  -17.9683  -17.1658 C   0  0  2  0  0  0  0  0  0  0  0  0
   24.8066  -18.3092  -18.6518 C   0  0  0  0  0  0  0  0  0  0  0  0
   23.5239  -17.7368  -16.5840 C   0  0  2  0  0  0  0  0  0  0  0  0
   23.2069  -16.3387  -16.8054 N   0  0  0  0  0  0  0  0  0  0  0  0
   23.4158  -18.0963  -15.1428 C   0  0  0  0  0  0  0  0  0  0  0  0
   23.2260  -17.1769  -14.3226 O   0  0  0  0  0  0  0  0  0  0  0  0
   22.0111  -19.8113  -10.3923 N   0  0  0  0  0  0  0  0  0  0  0  0
   21.7521  -20.6158  -11.5504 C   0  0  0  0  0  0  0  0  0  0  0  0
   21.3255  -21.7716  -11.2976 O   0  0  0  0  0  0  0  0  0  0  0  0
   21.9906  -20.0688  -12.8966 C   0  0  0  0  0  0  0  0  0  0  0  0
   23.3846  -19.8025  -13.2507 C   0  0  2  0  0  0  0  0  0  0  0  0
   23.5188  -19.4158  -14.6710 N   0  0  0  0  0  0  0  0  0  0  0  0
   24.4338  -20.7390  -12.9658 C   0  0  0  0  0  0  0  0  0  0  0  0
   24.1377  -21.9721  -12.8196 O   0  0  0  0  0  0  0  0  0  0  0  0
   25.8100  -20.4210  -12.8290 N   0  0  0  0  0  0  0  0  0  0  0  0
   26.5392  -20.4522  -11.6170 C   0  0  1  0  0  0  0  0  0  0  0  0
   26.2583  -19.4231  -10.5842 C   0  0  0  0  0  0  0  0  0  0  0  0
   26.1129  -19.9217   -9.1989 C   0  0  0  0  0  0  0  0  0  0  0  0
   25.0891  -20.7525   -8.7281 C   0  0  0  0  0  0  0  0  0  0  0  0
   25.3050  -21.0056   -7.4362 N   0  0  0  0  0  0  0  0  0  0  0  0
   26.4063  -20.4002   -7.0059 C   0  0  0  0  0  0  0  0  0  0  0  0
   27.0399  -20.3388   -5.7921 C   0  0  0  0  0  0  0  0  0  0  0  0
   28.1897  -19.6068   -5.6266 C   0  0  0  0  0  0  0  0  0  0  0  0
   28.7229  -18.9176   -6.6974 C   0  0  0  0  0  0  0  0  0  0  0  0
   28.0629  -18.9955   -7.9164 C   0  0  0  0  0  0  0  0  0  0  0  0
   26.9109  -19.7234   -8.1044 C   0  0  0  0  0  0  0  0  0  0  0  0
   26.5828  -21.8381  -11.0093 C   0  0  0  0  0  0  0  0  0  0  0  0
   25.5537  -22.4877  -10.7578 O   0  0  0  0  0  0  0  0  0  0  0  0
   27.8253  -22.3694  -10.7353 O   0  0  0  0  0  0  0  0  0  0  0  0
  2  3  1  0
  2  1  1  0
  3  4  1  6
  5  6  1  1
  5  3  1  0
  7  5  1  0
  8  7  2  0
  9 10  1  0
 10 12  1  0
 11 10  2  0
 13 12  1  6
 13 15  1  0
 13 14  1  0
 14  7  1  0
 15 16  2  0
 17 18  1  0
 17 15  1  0
 18 29  1  0
 18 19  1  1
 20 19  1  0
 20 28  1  0
 21 20  2  0
 22 21  1  0
 22 23  1  0
 23 24  1  0
 23 28  2  0
 24 25  2  0
 25 26  1  0
 27 26  2  0
 28 27  1  0
 29 30  2  0
 29 31  1  0
M  END
$$$$
