INW.pdb
     RDKit          3D

 31 32  0  0  1  0  0  0  0  0999 V2000
   21.1986  -16.6309  -18.5954 C   0  0  0  0  0  0  0  0  0  0  0  0
   21.5700  -17.2106  -17.2753 C   0  0  0  0  0  0  0  0  0  0  0  0
   22.8080  -18.0483  -17.2891 C   0  0  2  0  0  0  0  0  0  0  0  0
   22.7642  -19.0709  -18.4215 C   0  0  0  0  0  0  0  0  0  0  0  0
   23.1689  -18.6808  -15.9858 C   0  0  2  0  0  0  0  0  0  0  0  0
   23.2940  -17.6059  -15.0198 N   0  0  0  0  0  0  0  0  0  0  0  0
   24.4050  -19.5098  -16.0385 C   0  0  0  0  0  0  0  0  0  0  0  0
   24.3343  -20.6331  -16.5745 O   0  0  0  0  0  0  0  0  0  0  0  0
   27.1369  -17.3808  -14.2393 N   0  0  0  0  0  0  0  0  0  0  0  0
   28.1710  -17.8190  -15.1303 C   0  0  0  0  0  0  0  0  0  0  0  0
   29.1344  -17.0186  -15.2447 O   0  0  0  0  0  0  0  0  0  0  0  0
   28.0483  -19.1125  -15.8232 C   0  0  0  0  0  0  0  0  0  0  0  0
   26.8640  -19.9093  -15.5038 C   0  0  2  0  0  0  0  0  0  0  0  0
   25.6371  -19.0849  -15.5136 N   0  0  0  0  0  0  0  0  0  0  0  0
   26.8021  -20.7470  -14.3405 C   0  0  0  0  0  0  0  0  0  0  0  0
   27.6698  -21.6726  -14.1994 O   0  0  0  0  0  0  0  0  0  0  0  0
   25.8445  -20.6437  -13.2983 N   0  0  0  0  0  0  0  0  0  0  0  0
   25.4871  -21.6859  -12.4108 C   0  0  1  0  0  0  0  0  0  0  0  0
   26.4165  -22.0396  -11.3083 C   0  0  0  0  0  0  0  0  0  0  0  0
   26.4305  -21.1144  -10.1539 C   0  0  0  0  0  0  0  0  0  0  0  0
   25.3637  -20.3123   -9.7311 C   0  0  0  0  0  0  0  0  0  0  0  0
   25.7441  -19.6324   -8.6482 N   0  0  0  0  0  0  0  0  0  0  0  0
   26.9963  -19.9234   -8.3139 C   0  0  0  0  0  0  0  0  0  0  0  0
   27.8323  -19.4984   -7.3143 C   0  0  0  0  0  0  0  0  0  0  0  0
   29.1170  -19.9722   -7.2125 C   0  0  0  0  0  0  0  0  0  0  0  0
   29.5820  -20.8932   -8.1298 C   0  0  0  0  0  0  0  0  0  0  0  0
   28.7163  -21.3083   -9.1328 C   0  0  0  0  0  0  0  0  0  0  0  0
   27.4257  -20.8474   -9.2526 C   0  0  0  0  0  0  0  0  0  0  0  0
   24.0672  -21.5462  -11.9044 C   0  0  0  0  0  0  0  0  0  0  0  0
   23.4050  -20.5059  -12.0569 O   0  0  0  0  0  0  0  0  0  0  0  0
   23.5189  -22.6307  -11.2528 O   0  0  0  0  0  0  0  0  0  0  0  0
  2  3  1  0
  2  1  1  0
  3  4  1  6
  5  6  1  1
  5  3  1  0
  7  5  1  0
  8  7  2  0
  9 10  1  0
 10 12  1  0
 11 10  2  0
 13 12  1  1
 13 15  1  0
 13 14  1  0
 14  7  1  0
 15 16  2  0
 17 18  1  0
 17 15  1  0
 18 29  1  0
 18 19  1  1
 20 19  1  0
 20 28  1  0
 21 20  2  0
 22 21  1  0
 22 23  1  0
 23 24  1  0
 23 28  2  0
 24 25  2  0
 25 26  1  0
 27 26  2  0
 28 27  1  0
 29 30  2  0
 29 31  1  0
M  END
$$$$
