INW.pdb
     RDKit          3D

 31 32  0  0  1  0  0  0  0  0999 V2000
   22.4163  -19.8930  -18.6396 C   0  0  0  0  0  0  0  0  0  0  0  0
   22.5456  -18.5718  -17.9656 C   0  0  0  0  0  0  0  0  0  0  0  0
   22.2879  -18.5960  -16.4933 C   0  0  2  0  0  0  0  0  0  0  0  0
   21.6426  -17.2930  -16.0291 C   0  0  0  0  0  0  0  0  0  0  0  0
   23.4579  -18.9677  -15.6436 C   0  0  2  0  0  0  0  0  0  0  0  0
   23.9822  -20.2115  -16.1748 N   0  0  0  0  0  0  0  0  0  0  0  0
   23.1375  -19.0888  -14.1942 C   0  0  0  0  0  0  0  0  0  0  0  0
   22.8221  -18.0534  -13.5757 O   0  0  0  0  0  0  0  0  0  0  0  0
   19.3997  -20.4190  -11.7449 N   0  0  0  0  0  0  0  0  0  0  0  0
   20.4142  -21.0531  -12.5349 C   0  0  0  0  0  0  0  0  0  0  0  0
   20.0963  -21.2431  -13.7367 O   0  0  0  0  0  0  0  0  0  0  0  0
   21.7004  -21.4258  -11.9223 C   0  0  0  0  0  0  0  0  0  0  0  0
   22.7951  -20.4685  -12.0796 C   0  0  2  0  0  0  0  0  0  0  0  0
   23.1761  -20.3091  -13.4989 N   0  0  0  0  0  0  0  0  0  0  0  0
   24.0104  -20.5719  -11.3238 C   0  0  0  0  0  0  0  0  0  0  0  0
   25.1272  -20.5030  -11.9383 O   0  0  0  0  0  0  0  0  0  0  0  0
   24.0965  -20.7458   -9.9181 N   0  0  0  0  0  0  0  0  0  0  0  0
   25.2943  -20.9408   -9.1907 C   0  0  1  0  0  0  0  0  0  0  0  0
   26.3324  -19.8796   -9.2206 C   0  0  0  0  0  0  0  0  0  0  0  0
   27.6121  -20.2095   -8.5556 C   0  0  0  0  0  0  0  0  0  0  0  0
   28.6584  -20.9553   -9.1115 C   0  0  0  0  0  0  0  0  0  0  0  0
   29.6516  -21.0248   -8.2236 N   0  0  0  0  0  0  0  0  0  0  0  0
   29.3434  -20.3753   -7.1066 C   0  0  0  0  0  0  0  0  0  0  0  0
   30.0011  -20.1629   -5.9230 C   0  0  0  0  0  0  0  0  0  0  0  0
   29.4220  -19.4429   -4.9073 C   0  0  0  0  0  0  0  0  0  0  0  0
   28.1550  -18.9208   -5.0738 C   0  0  0  0  0  0  0  0  0  0  0  0
   27.5095  -19.1495   -6.2816 C   0  0  0  0  0  0  0  0  0  0  0  0
   28.0712  -19.8667   -7.3123 C   0  0  0  0  0  0  0  0  0  0  0  0
   25.0355  -21.4118   -7.7754 C   0  0  0  0  0  0  0  0  0  0  0  0
   24.0534  -21.0317   -7.1160 O   0  0  0  0  0  0  0  0  0  0  0  0
   25.9430  -22.2932   -7.2268 O   0  0  0  0  0  0  0  0  0  0  0  0
  2  3  1  0
  2  1  1  0
  3  4  1  1
  5  6  1  6
  5  3  1  0
  7  5  1  0
  8  7  2  0
  9 10  1  0
 10 12  1  0
 11 10  2  0
 13 12  1  6
 13 15  1  0
 13 14  1  0
 14  7  1  0
 15 16  2  0
 17 18  1  0
 17 15  1  0
 18 29  1  0
 18 19  1  1
 20 19  1  0
 20 28  1  0
 21 20  2  0
 22 21  1  0
 22 23  1  0
 23 24  1  0
 23 28  2  0
 24 25  2  0
 25 26  1  0
 27 26  2  0
 28 27  1  0
 29 30  2  0
 29 31  1  0
M  END
$$$$
