INW.pdb
     RDKit          3D

 31 32  0  0  1  0  0  0  0  0999 V2000
   30.0135  -17.6788  -17.9777 C   0  0  0  0  0  0  0  0  0  0  0  0
   29.7121  -18.8417  -17.0983 C   0  0  0  0  0  0  0  0  0  0  0  0
   28.8164  -18.5324  -15.9421 C   0  0  2  0  0  0  0  0  0  0  0  0
   29.3878  -19.0921  -14.6421 C   0  0  0  0  0  0  0  0  0  0  0  0
   27.3827  -18.9075  -16.1234 C   0  0  2  0  0  0  0  0  0  0  0  0
   26.8879  -18.1368  -17.2483 N   0  0  0  0  0  0  0  0  0  0  0  0
   26.5451  -18.6963  -14.9102 C   0  0  0  0  0  0  0  0  0  0  0  0
   25.8104  -17.6898  -14.8738 O   0  0  0  0  0  0  0  0  0  0  0  0
   23.1526  -19.7085  -11.1553 N   0  0  0  0  0  0  0  0  0  0  0  0
   22.9840  -19.8608  -12.5708 C   0  0  0  0  0  0  0  0  0  0  0  0
   21.7982  -20.0680  -12.9353 O   0  0  0  0  0  0  0  0  0  0  0  0
   24.1496  -19.7717  -13.4662 C   0  0  0  0  0  0  0  0  0  0  0  0
   25.4573  -19.6648  -12.8196 C   0  0  2  0  0  0  0  0  0  0  0  0
   26.5477  -19.5744  -13.8133 N   0  0  0  0  0  0  0  0  0  0  0  0
   25.8826  -20.5880  -11.8068 C   0  0  0  0  0  0  0  0  0  0  0  0
   26.1789  -21.7826  -12.1457 O   0  0  0  0  0  0  0  0  0  0  0  0
   26.0131  -20.2952  -10.4245 N   0  0  0  0  0  0  0  0  0  0  0  0
   26.1167  -21.2567   -9.3918 C   0  0  1  0  0  0  0  0  0  0  0  0
   27.3113  -21.2368   -8.5104 C   0  0  0  0  0  0  0  0  0  0  0  0
   27.4052  -20.0938   -7.5758 C   0  0  0  0  0  0  0  0  0  0  0  0
   26.7006  -18.8883   -7.6790 C   0  0  0  0  0  0  0  0  0  0  0  0
   27.0297  -18.1119   -6.6454 N   0  0  0  0  0  0  0  0  0  0  0  0
   27.9093  -18.7145   -5.8531 C   0  0  0  0  0  0  0  0  0  0  0  0
   28.5503  -18.3474   -4.6985 C   0  0  0  0  0  0  0  0  0  0  0  0
   29.4430  -19.1893   -4.0826 C   0  0  0  0  0  0  0  0  0  0  0  0
   29.7050  -20.4292   -4.6302 C   0  0  0  0  0  0  0  0  0  0  0  0
   29.0432  -20.7780   -5.7999 C   0  0  0  0  0  0  0  0  0  0  0  0
   28.1446  -19.9506   -6.4327 C   0  0  0  0  0  0  0  0  0  0  0  0
   24.8424  -21.3680   -8.5819 C   0  0  0  0  0  0  0  0  0  0  0  0
   23.8914  -20.5811   -8.7251 O   0  0  0  0  0  0  0  0  0  0  0  0
   24.7672  -22.3896   -7.6590 O   0  0  0  0  0  0  0  0  0  0  0  0
  2  3  1  0
  2  1  1  0
  3  4  1  1
  5  6  1  6
  5  3  1  0
  7  5  1  0
  8  7  2  0
  9 10  1  0
 10 12  1  0
 11 10  2  0
 13 12  1  6
 13 15  1  0
 13 14  1  0
 14  7  1  0
 15 16  2  0
 17 18  1  0
 17 15  1  0
 18 29  1  0
 18 19  1  1
 20 19  1  0
 20 28  1  0
 21 20  2  0
 22 21  1  0
 22 23  1  0
 23 24  1  0
 23 28  2  0
 24 25  2  0
 25 26  1  0
 27 26  2  0
 28 27  1  0
 29 30  2  0
 29 31  1  0
M  END
$$$$
