INW.pdb
     RDKit          3D

 31 32  0  0  1  0  0  0  0  0999 V2000
   29.8981  -18.1511  -20.2945 C   0  0  0  0  0  0  0  0  0  0  0  0
   29.8236  -19.1668  -19.2084 C   0  0  0  0  0  0  0  0  0  0  0  0
   29.3585  -18.6362  -17.8905 C   0  0  2  0  0  0  0  0  0  0  0  0
   30.2346  -17.4751  -17.4280 C   0  0  0  0  0  0  0  0  0  0  0  0
   29.1791  -19.6568  -16.8157 C   0  0  2  0  0  0  0  0  0  0  0  0
   28.9635  -20.9289  -17.4787 N   0  0  0  0  0  0  0  0  0  0  0  0
   28.0750  -19.3458  -15.8658 C   0  0  0  0  0  0  0  0  0  0  0  0
   28.1424  -18.2834  -15.2171 O   0  0  0  0  0  0  0  0  0  0  0  0
   25.5533  -17.6300  -16.5102 N   0  0  0  0  0  0  0  0  0  0  0  0
   24.4783  -18.5758  -16.4381 C   0  0  0  0  0  0  0  0  0  0  0  0
   23.4958  -18.3056  -17.1754 O   0  0  0  0  0  0  0  0  0  0  0  0
   24.5834  -19.7455  -15.5497 C   0  0  0  0  0  0  0  0  0  0  0  0
   25.8265  -19.8724  -14.7893 C   0  0  2  0  0  0  0  0  0  0  0  0
   26.9702  -20.1915  -15.6695 N   0  0  0  0  0  0  0  0  0  0  0  0
   25.9295  -20.7208  -13.6366 C   0  0  0  0  0  0  0  0  0  0  0  0
   26.8284  -21.6270  -13.6155 O   0  0  0  0  0  0  0  0  0  0  0  0
   25.1083  -20.6483  -12.4817 N   0  0  0  0  0  0  0  0  0  0  0  0
   25.2881  -21.4085  -11.3021 C   0  0  1  0  0  0  0  0  0  0  0  0
   26.6327  -21.4502  -10.6737 C   0  0  0  0  0  0  0  0  0  0  0  0
   26.8425  -20.5281   -9.5360 C   0  0  0  0  0  0  0  0  0  0  0  0
   25.9543  -19.5329   -9.1106 C   0  0  0  0  0  0  0  0  0  0  0  0
   26.4763  -18.9218   -8.0459 N   0  0  0  0  0  0  0  0  0  0  0  0
   27.6572  -19.4393   -7.7262 C   0  0  0  0  0  0  0  0  0  0  0  0
   28.5769  -19.1657   -6.7474 C   0  0  0  0  0  0  0  0  0  0  0  0
   29.7508  -19.8723   -6.6575 C   0  0  0  0  0  0  0  0  0  0  0  0
   30.0165  -20.8775   -7.5657 C   0  0  0  0  0  0  0  0  0  0  0  0
   29.0694  -21.1357   -8.5475 C   0  0  0  0  0  0  0  0  0  0  0  0
   27.8869  -20.4411   -8.6553 C   0  0  0  0  0  0  0  0  0  0  0  0
   24.2126  -21.1332  -10.2728 C   0  0  0  0  0  0  0  0  0  0  0  0
   23.5281  -20.0962  -10.2857 O   0  0  0  0  0  0  0  0  0  0  0  0
   24.0117  -22.0873   -9.2978 O   0  0  0  0  0  0  0  0  0  0  0  0
  2  3  1  0
  2  1  1  0
  3  4  1  1
  5  6  1  6
  5  3  1  0
  7  5  1  0
  8  7  2  0
  9 10  1  0
 10 12  1  0
 11 10  2  0
 13 12  1  6
 13 15  1  0
 13 14  1  0
 14  7  1  0
 15 16  2  0
 17 18  1  0
 17 15  1  0
 18 29  1  0
 18 19  1  1
 20 19  1  0
 20 28  1  0
 21 20  2  0
 22 21  1  0
 22 23  1  0
 23 24  1  0
 23 28  2  0
 24 25  2  0
 25 26  1  0
 27 26  2  0
 28 27  1  0
 29 30  2  0
 29 31  1  0
M  END
$$$$
