INW.pdb
     RDKit          3D

 31 32  0  0  1  0  0  0  0  0999 V2000
   25.2782  -32.6484  -10.4395 C   0  0  0  0  0  0  0  0  0  0  0  0
   25.6261  -33.7371   -9.4854 C   0  0  0  0  0  0  0  0  0  0  0  0
   24.6849  -33.8792   -8.3327 C   0  0  2  0  0  0  0  0  0  0  0  0
   24.5473  -32.5626   -7.5730 C   0  0  0  0  0  0  0  0  0  0  0  0
   24.9646  -35.0221   -7.4137 C   0  0  2  0  0  0  0  0  0  0  0  0
   25.0918  -36.2048   -8.2438 N   0  0  0  0  0  0  0  0  0  0  0  0
   23.9354  -35.2108   -6.3540 C   0  0  0  0  0  0  0  0  0  0  0  0
   22.7773  -35.5065   -6.7083 O   0  0  0  0  0  0  0  0  0  0  0  0
   22.5694  -38.3912   -2.3747 N   0  0  0  0  0  0  0  0  0  0  0  0
   23.4484  -37.6057   -3.1906 C   0  0  0  0  0  0  0  0  0  0  0  0
   23.9920  -38.2394   -4.1312 O   0  0  0  0  0  0  0  0  0  0  0  0
   23.6522  -36.1781   -2.8925 C   0  0  0  0  0  0  0  0  0  0  0  0
   23.2030  -35.2319   -3.9136 C   0  0  2  0  0  0  0  0  0  0  0  0
   24.2102  -35.0700   -4.9833 N   0  0  0  0  0  0  0  0  0  0  0  0
   22.7267  -33.9206   -3.5783 C   0  0  0  0  0  0  0  0  0  0  0  0
   23.5646  -33.0411   -3.1860 O   0  0  0  0  0  0  0  0  0  0  0  0
   21.3759  -33.4906   -3.6442 N   0  0  0  0  0  0  0  0  0  0  0  0
   20.8991  -32.2271   -3.2225 C   0  0  1  0  0  0  0  0  0  0  0  0
   19.8535  -31.5491   -4.0298 C   0  0  0  0  0  0  0  0  0  0  0  0
   19.4611  -30.1976   -3.5737 C   0  0  0  0  0  0  0  0  0  0  0  0
   19.7872  -28.9909   -4.2043 C   0  0  0  0  0  0  0  0  0  0  0  0
   19.2414  -27.9878   -3.5148 N   0  0  0  0  0  0  0  0  0  0  0  0
   18.5694  -28.4391   -2.4616 C   0  0  0  0  0  0  0  0  0  0  0  0
   17.8569  -27.8301   -1.4614 C   0  0  0  0  0  0  0  0  0  0  0  0
   17.2592  -28.5636   -0.4664 C   0  0  0  0  0  0  0  0  0  0  0  0
   17.3737  -29.9393   -0.4666 C   0  0  0  0  0  0  0  0  0  0  0  0
   18.1002  -30.5327   -1.4902 C   0  0  0  0  0  0  0  0  0  0  0  0
   18.7061  -29.8173   -2.4970 C   0  0  0  0  0  0  0  0  0  0  0  0
   20.5495  -32.2085   -1.7496 C   0  0  0  0  0  0  0  0  0  0  0  0
   19.7124  -32.9816   -1.2540 O   0  0  0  0  0  0  0  0  0  0  0  0
   21.2002  -31.2867   -0.9571 O   0  0  0  0  0  0  0  0  0  0  0  0
  2  3  1  0
  2  1  1  0
  3  4  1  1
  5  6  1  6
  5  3  1  0
  7  5  1  0
  8  7  2  0
  9 10  1  0
 10 12  1  0
 11 10  2  0
 13 12  1  1
 13 15  1  0
 13 14  1  0
 14  7  1  0
 15 16  2  0
 17 18  1  0
 17 15  1  0
 18 29  1  0
 18 19  1  6
 20 19  1  0
 20 28  1  0
 21 20  2  0
 22 21  1  0
 22 23  1  0
 23 24  1  0
 23 28  2  0
 24 25  2  0
 25 26  1  0
 27 26  2  0
 28 27  1  0
 29 30  2  0
 29 31  1  0
M  END
$$$$
