INW.pdb
     RDKit          3D

 31 32  0  0  1  0  0  0  0  0999 V2000
   29.6311  -17.9329  -15.7206 C   0  0  0  0  0  0  0  0  0  0  0  0
   28.4796  -18.7372  -16.2144 C   0  0  0  0  0  0  0  0  0  0  0  0
   27.8553  -19.6264  -15.1876 C   0  0  2  0  0  0  0  0  0  0  0  0
   28.9045  -20.5104  -14.5185 C   0  0  0  0  0  0  0  0  0  0  0  0
   26.6801  -20.4195  -15.6555 C   0  0  2  0  0  0  0  0  0  0  0  0
   25.6972  -19.4670  -16.1356 N   0  0  0  0  0  0  0  0  0  0  0  0
   26.1041  -21.3164  -14.6154 C   0  0  0  0  0  0  0  0  0  0  0  0
   26.7172  -22.3672  -14.3433 O   0  0  0  0  0  0  0  0  0  0  0  0
   24.7521  -20.7312   -9.4776 N   0  0  0  0  0  0  0  0  0  0  0  0
   25.6838  -20.2766  -10.4679 C   0  0  0  0  0  0  0  0  0  0  0  0
   26.2751  -19.2060  -10.1749 O   0  0  0  0  0  0  0  0  0  0  0  0
   25.8806  -21.0501  -11.7054 C   0  0  0  0  0  0  0  0  0  0  0  0
   24.6824  -21.3167  -12.5009 C   0  0  2  0  0  0  0  0  0  0  0  0
   24.9086  -21.0327  -13.9337 N   0  0  0  0  0  0  0  0  0  0  0  0
   23.4030  -20.7657  -12.1568 C   0  0  0  0  0  0  0  0  0  0  0  0
   22.7476  -21.2831  -11.1912 O   0  0  0  0  0  0  0  0  0  0  0  0
   22.7762  -19.6677  -12.8012 N   0  0  0  0  0  0  0  0  0  0  0  0
   21.4907  -19.6920  -13.3915 C   0  0  1  0  0  0  0  0  0  0  0  0
   21.2855  -19.0056  -14.6920 C   0  0  0  0  0  0  0  0  0  0  0  0
   22.4963  -18.8179  -15.5210 C   0  0  0  0  0  0  0  0  0  0  0  0
   22.9515  -19.6877  -16.5191 C   0  0  0  0  0  0  0  0  0  0  0  0
   24.0582  -19.1752  -17.0596 N   0  0  0  0  0  0  0  0  0  0  0  0
   24.3785  -18.0180  -16.4916 C   0  0  0  0  0  0  0  0  0  0  0  0
   25.4008  -17.1238  -16.6761 C   0  0  0  0  0  0  0  0  0  0  0  0
   25.4930  -15.9830  -15.9177 C   0  0  0  0  0  0  0  0  0  0  0  0
   24.5429  -15.7253  -14.9499 C   0  0  0  0  0  0  0  0  0  0  0  0
   23.5172  -16.6460  -14.7821 C   0  0  0  0  0  0  0  0  0  0  0  0
   23.4053  -17.7942  -15.5313 C   0  0  0  0  0  0  0  0  0  0  0  0
   20.8933  -21.0830  -13.4080 C   0  0  0  0  0  0  0  0  0  0  0  0
   19.6719  -21.2846  -13.3009 O   0  0  0  0  0  0  0  0  0  0  0  0
   21.7640  -22.1432  -13.5464 O   0  0  0  0  0  0  0  0  0  0  0  0
  2  3  1  0
  2  1  1  0
  3  4  1  6
  5  6  1  1
  5  3  1  0
  7  5  1  0
  8  7  2  0
  9 10  1  0
 10 12  1  0
 11 10  2  0
 13 12  1  1
 13 15  1  0
 13 14  1  0
 14  7  1  0
 15 16  2  0
 17 18  1  0
 17 15  1  0
 18 29  1  0
 18 19  1  6
 20 19  1  0
 20 28  1  0
 21 20  2  0
 22 21  1  0
 22 23  1  0
 23 24  1  0
 23 28  2  0
 24 25  2  0
 25 26  1  0
 27 26  2  0
 28 27  1  0
 29 30  2  0
 29 31  1  0
M  END
$$$$
