INW.pdb
     RDKit          3D

 31 32  0  0  1  0  0  0  0  0999 V2000
   28.8460  -15.9135  -18.2650 C   0  0  0  0  0  0  0  0  0  0  0  0
   28.0287  -17.1299  -18.0023 C   0  0  0  0  0  0  0  0  0  0  0  0
   27.4266  -17.1923  -16.6355 C   0  0  2  0  0  0  0  0  0  0  0  0
   28.1421  -18.2253  -15.7690 C   0  0  0  0  0  0  0  0  0  0  0  0
   25.9445  -17.3669  -16.5950 C   0  0  2  0  0  0  0  0  0  0  0  0
   25.3680  -16.1966  -17.2291 N   0  0  0  0  0  0  0  0  0  0  0  0
   25.3971  -17.5668  -15.2244 C   0  0  0  0  0  0  0  0  0  0  0  0
   25.3114  -16.5726  -14.4773 O   0  0  0  0  0  0  0  0  0  0  0  0
   21.3877  -19.1379  -11.5352 N   0  0  0  0  0  0  0  0  0  0  0  0
   22.4403  -19.8893  -12.1538 C   0  0  0  0  0  0  0  0  0  0  0  0
   22.7829  -20.9226  -11.5240 O   0  0  0  0  0  0  0  0  0  0  0  0
   23.0277  -19.4285  -13.4231 C   0  0  0  0  0  0  0  0  0  0  0  0
   24.4384  -19.0437  -13.3828 C   0  0  2  0  0  0  0  0  0  0  0  0
   24.9775  -18.8173  -14.7403 N   0  0  0  0  0  0  0  0  0  0  0  0
   25.4149  -19.8085  -12.6613 C   0  0  0  0  0  0  0  0  0  0  0  0
   26.0971  -20.6868  -13.2880 O   0  0  0  0  0  0  0  0  0  0  0  0
   25.7082  -19.6794  -11.2789 N   0  0  0  0  0  0  0  0  0  0  0  0
   26.6583  -20.4515  -10.5697 C   0  0  1  0  0  0  0  0  0  0  0  0
   27.4156  -19.8163   -9.4617 C   0  0  0  0  0  0  0  0  0  0  0  0
   26.9899  -20.1856   -8.0939 C   0  0  0  0  0  0  0  0  0  0  0  0
   26.0149  -21.1351   -7.7651 C   0  0  0  0  0  0  0  0  0  0  0  0
   25.9214  -21.2084   -6.4364 N   0  0  0  0  0  0  0  0  0  0  0  0
   26.7687  -20.3712   -5.8486 C   0  0  0  0  0  0  0  0  0  0  0  0
   27.0469  -20.0691   -4.5409 C   0  0  0  0  0  0  0  0  0  0  0  0
   27.9908  -19.1270   -4.2143 C   0  0  0  0  0  0  0  0  0  0  0  0
   28.6757  -18.4678   -5.2154 C   0  0  0  0  0  0  0  0  0  0  0  0
   28.3761  -18.7914   -6.5320 C   0  0  0  0  0  0  0  0  0  0  0  0
   27.4354  -19.7323   -6.8814 C   0  0  0  0  0  0  0  0  0  0  0  0
   26.1063  -21.7980  -10.1522 C   0  0  0  0  0  0  0  0  0  0  0  0
   26.8388  -22.7377   -9.7994 O   0  0  0  0  0  0  0  0  0  0  0  0
   24.7367  -21.9551  -10.1774 O   0  0  0  0  0  0  0  0  0  0  0  0
  2  3  1  0
  2  1  1  0
  3  4  1  1
  5  6  1  1
  5  3  1  0
  7  5  1  0
  8  7  2  0
  9 10  1  0
 10 12  1  0
 11 10  2  0
 13 12  1  6
 13 15  1  0
 13 14  1  0
 14  7  1  0
 15 16  2  0
 17 18  1  0
 17 15  1  0
 18 29  1  0
 18 19  1  1
 20 19  1  0
 20 28  1  0
 21 20  2  0
 22 21  1  0
 22 23  1  0
 23 24  1  0
 23 28  2  0
 24 25  2  0
 25 26  1  0
 27 26  2  0
 28 27  1  0
 29 30  2  0
 29 31  1  0
M  END
$$$$
