INW.pdb
     RDKit          3D

 31 32  0  0  1  0  0  0  0  0999 V2000
   19.5499  -19.4400  -10.6897 C   0  0  0  0  0  0  0  0  0  0  0  0
   19.7140  -20.8683  -11.0766 C   0  0  0  0  0  0  0  0  0  0  0  0
   19.4799  -21.1517  -12.5255 C   0  0  2  0  0  0  0  0  0  0  0  0
   19.2161  -22.6372  -12.7569 C   0  0  0  0  0  0  0  0  0  0  0  0
   20.5181  -20.6219  -13.4585 C   0  0  2  0  0  0  0  0  0  0  0  0
   20.0022  -20.7994  -14.8026 N   0  0  0  0  0  0  0  0  0  0  0  0
   21.8541  -21.2609  -13.3011 C   0  0  0  0  0  0  0  0  0  0  0  0
   21.9161  -22.5055  -13.3390 O   0  0  0  0  0  0  0  0  0  0  0  0
   27.1853  -21.6035  -13.0103 N   0  0  0  0  0  0  0  0  0  0  0  0
   26.4960  -21.5063  -14.2636 C   0  0  0  0  0  0  0  0  0  0  0  0
   27.2184  -21.7087  -15.2730 O   0  0  0  0  0  0  0  0  0  0  0  0
   25.0581  -21.1900  -14.2919 C   0  0  0  0  0  0  0  0  0  0  0  0
   24.3807  -21.1353  -12.9966 C   0  0  2  0  0  0  0  0  0  0  0  0
   23.0380  -20.5282  -13.1122 N   0  0  0  0  0  0  0  0  0  0  0  0
   25.0040  -20.5669  -11.8358 C   0  0  0  0  0  0  0  0  0  0  0  0
   24.8806  -19.3149  -11.6196 O   0  0  0  0  0  0  0  0  0  0  0  0
   25.7648  -21.2806  -10.8739 N   0  0  0  0  0  0  0  0  0  0  0  0
   26.5858  -20.6937   -9.8823 C   0  0  1  0  0  0  0  0  0  0  0  0
   26.1439  -20.7400   -8.4656 C   0  0  0  0  0  0  0  0  0  0  0  0
   26.9487  -19.9454   -7.5119 C   0  0  0  0  0  0  0  0  0  0  0  0
   27.1988  -18.5703   -7.5944 C   0  0  0  0  0  0  0  0  0  0  0  0
   27.9429  -18.2084   -6.5480 N   0  0  0  0  0  0  0  0  0  0  0  0
   28.2106  -19.2485   -5.7665 C   0  0  0  0  0  0  0  0  0  0  0  0
   28.9239  -19.4020   -4.6062 C   0  0  0  0  0  0  0  0  0  0  0  0
   29.0478  -20.6301   -4.0050 C   0  0  0  0  0  0  0  0  0  0  0  0
   28.4461  -21.7349   -4.5736 C   0  0  0  0  0  0  0  0  0  0  0  0
   27.7290  -21.5538   -5.7487 C   0  0  0  0  0  0  0  0  0  0  0  0
   27.5914  -20.3327   -6.3669 C   0  0  0  0  0  0  0  0  0  0  0  0
   28.0347  -21.1116  -10.0163 C   0  0  0  0  0  0  0  0  0  0  0  0
   28.3868  -22.0822  -10.7077 O   0  0  0  0  0  0  0  0  0  0  0  0
   28.9729  -20.3681   -9.3318 O   0  0  0  0  0  0  0  0  0  0  0  0
  2  3  1  0
  2  1  1  0
  3  4  1  1
  5  6  1  6
  5  3  1  0
  7  5  1  0
  8  7  2  0
  9 10  1  0
 10 12  1  0
 11 10  2  0
 13 12  1  6
 13 15  1  0
 13 14  1  0
 14  7  1  0
 15 16  2  0
 17 18  1  0
 17 15  1  0
 18 29  1  0
 18 19  1  1
 20 19  1  0
 20 28  1  0
 21 20  2  0
 22 21  1  0
 22 23  1  0
 23 24  1  0
 23 28  2  0
 24 25  2  0
 25 26  1  0
 27 26  2  0
 28 27  1  0
 29 30  2  0
 29 31  1  0
M  END
$$$$
