INW.pdb
     RDKit          3D

 31 32  0  0  1  0  0  0  0  0999 V2000
   28.7198  -16.5086  -18.5123 C   0  0  0  0  0  0  0  0  0  0  0  0
   29.1093  -17.5233  -17.4948 C   0  0  0  0  0  0  0  0  0  0  0  0
   28.0525  -17.8269  -16.4820 C   0  0  2  0  0  0  0  0  0  0  0  0
   27.5309  -16.5468  -15.8347 C   0  0  0  0  0  0  0  0  0  0  0  0
   28.4182  -18.8538  -15.4618 C   0  0  2  0  0  0  0  0  0  0  0  0
   28.9330  -19.9994  -16.1875 N   0  0  0  0  0  0  0  0  0  0  0  0
   27.2945  -19.2401  -14.5640 C   0  0  0  0  0  0  0  0  0  0  0  0
   26.7120  -18.3366  -13.9328 O   0  0  0  0  0  0  0  0  0  0  0  0
   23.8910  -20.0438  -15.4603 N   0  0  0  0  0  0  0  0  0  0  0  0
   23.9325  -21.4467  -15.1680 C   0  0  0  0  0  0  0  0  0  0  0  0
   23.1065  -22.1390  -15.8162 O   0  0  0  0  0  0  0  0  0  0  0  0
   24.8894  -21.9655  -14.1762 C   0  0  0  0  0  0  0  0  0  0  0  0
   25.7468  -20.9763  -13.5235 C   0  0  2  0  0  0  0  0  0  0  0  0
   26.8664  -20.5681  -14.3980 N   0  0  0  0  0  0  0  0  0  0  0  0
   26.2891  -21.1873  -12.2118 C   0  0  0  0  0  0  0  0  0  0  0  0
   27.5265  -21.4781  -12.0949 O   0  0  0  0  0  0  0  0  0  0  0  0
   25.5648  -21.0993  -10.9948 N   0  0  0  0  0  0  0  0  0  0  0  0
   26.1322  -21.1594   -9.7001 C   0  0  1  0  0  0  0  0  0  0  0  0
   27.3634  -20.3784   -9.4196 C   0  0  0  0  0  0  0  0  0  0  0  0
   27.5714  -19.9857   -8.0085 C   0  0  0  0  0  0  0  0  0  0  0  0
   26.6341  -19.3486   -7.1864 C   0  0  0  0  0  0  0  0  0  0  0  0
   27.1734  -19.1760   -5.9785 N   0  0  0  0  0  0  0  0  0  0  0  0
   28.4117  -19.6545   -5.9328 C   0  0  0  0  0  0  0  0  0  0  0  0
   29.3687  -19.7119   -4.9532 C   0  0  0  0  0  0  0  0  0  0  0  0
   30.6004  -20.2686   -5.1945 C   0  0  0  0  0  0  0  0  0  0  0  0
   30.8874  -20.7815   -6.4436 C   0  0  0  0  0  0  0  0  0  0  0  0
   29.9017  -20.7117   -7.4190 C   0  0  0  0  0  0  0  0  0  0  0  0
   28.6613  -20.1594   -7.1985 C   0  0  0  0  0  0  0  0  0  0  0  0
   25.0992  -20.9600   -8.6114 C   0  0  0  0  0  0  0  0  0  0  0  0
   24.1760  -20.1345   -8.7124 O   0  0  0  0  0  0  0  0  0  0  0  0
   25.2167  -21.7372   -7.4786 O   0  0  0  0  0  0  0  0  0  0  0  0
  2  3  1  0
  2  1  1  0
  3  4  1  1
  5  6  1  6
  5  3  1  0
  7  5  1  0
  8  7  2  0
  9 10  1  0
 10 12  1  0
 11 10  2  0
 13 12  1  6
 13 15  1  0
 13 14  1  0
 14  7  1  0
 15 16  2  0
 17 18  1  0
 17 15  1  0
 18 29  1  0
 18 19  1  6
 20 19  1  0
 20 28  1  0
 21 20  2  0
 22 21  1  0
 22 23  1  0
 23 24  1  0
 23 28  2  0
 24 25  2  0
 25 26  1  0
 27 26  2  0
 28 27  1  0
 29 30  2  0
 29 31  1  0
M  END
$$$$
