INW.pdb
     RDKit          3D

 31 32  0  0  1  0  0  0  0  0999 V2000
   29.8829  -17.5351  -17.7145 C   0  0  0  0  0  0  0  0  0  0  0  0
   28.6357  -18.3464  -17.7691 C   0  0  0  0  0  0  0  0  0  0  0  0
   27.8015  -18.2899  -16.5299 C   0  0  2  0  0  0  0  0  0  0  0  0
   28.6240  -18.6614  -15.2990 C   0  0  0  0  0  0  0  0  0  0  0  0
   26.5167  -19.0484  -16.5868 C   0  0  2  0  0  0  0  0  0  0  0  0
   25.7599  -18.5062  -17.6992 N   0  0  0  0  0  0  0  0  0  0  0  0
   25.7315  -19.0020  -15.3221 C   0  0  0  0  0  0  0  0  0  0  0  0
   24.8845  -18.0967  -15.1915 O   0  0  0  0  0  0  0  0  0  0  0  0
   22.0404  -19.0640  -11.7904 N   0  0  0  0  0  0  0  0  0  0  0  0
   22.6493  -20.2260  -12.3687 C   0  0  0  0  0  0  0  0  0  0  0  0
   22.2856  -21.3151  -11.8556 O   0  0  0  0  0  0  0  0  0  0  0  0
   23.6153  -20.0813  -13.4706 C   0  0  0  0  0  0  0  0  0  0  0  0
   25.0261  -20.0103  -13.0910 C   0  0  2  0  0  0  0  0  0  0  0  0
   25.9033  -19.9261  -14.2777 N   0  0  0  0  0  0  0  0  0  0  0  0
   25.6203  -20.9573  -12.1914 C   0  0  0  0  0  0  0  0  0  0  0  0
   25.2374  -22.1743  -12.2352 O   0  0  0  0  0  0  0  0  0  0  0  0
   26.6236  -20.6669  -11.2309 N   0  0  0  0  0  0  0  0  0  0  0  0
   26.4666  -20.7702   -9.8286 C   0  0  1  0  0  0  0  0  0  0  0  0
   27.1556  -19.7866   -8.9554 C   0  0  0  0  0  0  0  0  0  0  0  0
   27.1651  -20.1020   -7.5100 C   0  0  0  0  0  0  0  0  0  0  0  0
   26.2437  -20.9166   -6.8408 C   0  0  0  0  0  0  0  0  0  0  0  0
   26.5879  -20.9819   -5.5536 N   0  0  0  0  0  0  0  0  0  0  0  0
   27.6797  -20.2652   -5.3116 C   0  0  0  0  0  0  0  0  0  0  0  0
   28.4114  -20.0070   -4.1817 C   0  0  0  0  0  0  0  0  0  0  0  0
   29.5200  -19.1980   -4.2220 C   0  0  0  0  0  0  0  0  0  0  0  0
   29.9107  -18.6307   -5.4184 C   0  0  0  0  0  0  0  0  0  0  0  0
   29.1536  -18.9073   -6.5488 C   0  0  0  0  0  0  0  0  0  0  0  0
   28.0405  -19.7154   -6.5310 C   0  0  0  0  0  0  0  0  0  0  0  0
   25.0173  -20.9380   -9.4246 C   0  0  0  0  0  0  0  0  0  0  0  0
   24.5371  -22.0399   -9.1094 O   0  0  0  0  0  0  0  0  0  0  0  0
   24.2278  -19.8075   -9.4183 O   0  0  0  0  0  0  0  0  0  0  0  0
  2  3  1  0
  2  1  1  0
  3  4  1  1
  5  6  1  6
  5  3  1  0
  7  5  1  0
  8  7  2  0
  9 10  1  0
 10 12  1  0
 11 10  2  0
 13 12  1  6
 13 15  1  0
 13 14  1  0
 14  7  1  0
 15 16  2  0
 17 18  1  0
 17 15  1  0
 18 29  1  0
 18 19  1  1
 20 19  1  0
 20 28  1  0
 21 20  2  0
 22 21  1  0
 22 23  1  0
 23 24  1  0
 23 28  2  0
 24 25  2  0
 25 26  1  0
 27 26  2  0
 28 27  1  0
 29 30  2  0
 29 31  1  0
M  END
$$$$
