INW.pdb
     RDKit          3D

 31 32  0  0  1  0  0  0  0  0999 V2000
   29.7262  -16.7459  -20.4574 C   0  0  0  0  0  0  0  0  0  0  0  0
   30.2738  -17.0617  -19.1094 C   0  0  0  0  0  0  0  0  0  0  0  0
   29.2818  -16.9623  -17.9955 C   0  0  2  0  0  0  0  0  0  0  0  0
   29.6256  -15.8080  -17.0578 C   0  0  0  0  0  0  0  0  0  0  0  0
   29.0307  -18.2287  -17.2457 C   0  0  2  0  0  0  0  0  0  0  0  0
   28.7856  -19.2596  -18.2362 N   0  0  0  0  0  0  0  0  0  0  0  0
   27.9118  -18.1393  -16.2669 C   0  0  0  0  0  0  0  0  0  0  0  0
   27.9875  -17.2790  -15.3678 O   0  0  0  0  0  0  0  0  0  0  0  0
   22.5228  -17.2004  -14.8096 N   0  0  0  0  0  0  0  0  0  0  0  0
   23.2267  -18.3911  -15.1866 C   0  0  0  0  0  0  0  0  0  0  0  0
   22.6856  -19.4600  -14.8040 O   0  0  0  0  0  0  0  0  0  0  0  0
   24.4773  -18.2954  -15.9582 C   0  0  0  0  0  0  0  0  0  0  0  0
   25.6604  -18.9073  -15.3538 C   0  0  2  0  0  0  0  0  0  0  0  0
   26.7842  -18.9764  -16.3115 N   0  0  0  0  0  0  0  0  0  0  0  0
   25.6015  -20.1718  -14.6781 C   0  0  0  0  0  0  0  0  0  0  0  0
   25.6700  -21.2439  -15.3676 O   0  0  0  0  0  0  0  0  0  0  0  0
   25.4734  -20.3542  -13.2767 N   0  0  0  0  0  0  0  0  0  0  0  0
   25.3056  -21.5996  -12.6267 C   0  0  1  0  0  0  0  0  0  0  0  0
   26.2706  -21.9925  -11.5689 C   0  0  0  0  0  0  0  0  0  0  0  0
   26.2695  -21.1536  -10.3503 C   0  0  0  0  0  0  0  0  0  0  0  0
   25.1860  -20.4117   -9.8646 C   0  0  0  0  0  0  0  0  0  0  0  0
   25.5569  -19.8029   -8.7371 N   0  0  0  0  0  0  0  0  0  0  0  0
   26.8183  -20.0854   -8.4314 C   0  0  0  0  0  0  0  0  0  0  0  0
   27.6504  -19.7130   -7.4079 C   0  0  0  0  0  0  0  0  0  0  0  0
   28.9472  -20.1602   -7.3475 C   0  0  0  0  0  0  0  0  0  0  0  0
   29.4286  -20.9999   -8.3318 C   0  0  0  0  0  0  0  0  0  0  0  0
   28.5665  -21.3629   -9.3578 C   0  0  0  0  0  0  0  0  0  0  0  0
   27.2640  -20.9275   -9.4371 C   0  0  0  0  0  0  0  0  0  0  0  0
   23.8782  -21.8225  -12.1739 C   0  0  0  0  0  0  0  0  0  0  0  0
   23.0937  -20.8833  -11.9580 O   0  0  0  0  0  0  0  0  0  0  0  0
   23.4659  -23.1270  -12.0024 O   0  0  0  0  0  0  0  0  0  0  0  0
  2  3  1  0
  2  1  1  0
  3  4  1  1
  5  6  1  6
  5  3  1  0
  7  5  1  0
  8  7  2  0
  9 10  1  0
 10 12  1  0
 11 10  2  0
 13 12  1  6
 13 15  1  0
 13 14  1  0
 14  7  1  0
 15 16  2  0
 17 18  1  0
 17 15  1  0
 18 29  1  0
 18 19  1  1
 20 19  1  0
 20 28  1  0
 21 20  2  0
 22 21  1  0
 22 23  1  0
 23 24  1  0
 23 28  2  0
 24 25  2  0
 25 26  1  0
 27 26  2  0
 28 27  1  0
 29 30  2  0
 29 31  1  0
M  END
$$$$
