GNH.pdb
     RDKit          3D

 23 23  0  0  1  0  0  0  0  0999 V2000
    6.4870  -18.2341   18.9760 N   0  0  0  0  0  0  0  0  0  0  0  0
    7.0722  -18.5675   20.2561 C   0  0  0  0  0  0  0  0  0  0  0  0
    8.1265  -17.5728   20.5786 C   0  0  0  0  0  0  0  0  0  0  0  0
    9.3187  -17.9310   20.7073 O   0  0  0  0  0  0  0  0  0  0  0  0
    7.0274  -12.9838   18.8538 N   0  0  0  0  0  0  0  0  0  0  0  0
    8.1753  -13.6782   19.2845 C   0  0  0  0  0  0  0  0  0  0  0  0
    8.9359  -14.1689   18.4290 O   0  0  0  0  0  0  0  0  0  0  0  0
    8.4691  -13.8207   20.7009 C   0  0  0  0  0  0  0  0  0  0  0  0
    8.8317  -15.2297   21.1104 C   0  0  2  0  0  0  0  0  0  0  0  0
    7.8313  -16.1857   20.7532 N   0  0  0  0  0  0  0  0  0  0  0  0
    9.1677  -15.2996   22.5664 C   0  0  0  0  0  0  0  0  0  0  0  0
   10.0978  -14.5825   22.9694 O   0  0  0  0  0  0  0  0  0  0  0  0
    8.4837  -16.1283   23.4704 N   0  0  0  0  0  0  0  0  0  0  0  0
    8.7498  -16.2991   24.8748 C   0  0  1  0  0  0  0  0  0  0  0  0
    7.5443  -16.1377   25.7231 C   0  0  0  0  0  0  0  0  0  0  0  0
    7.0721  -14.7392   25.7179 C   0  0  0  0  0  0  0  0  0  0  0  0
    7.7110  -13.5812   25.4087 C   0  0  0  0  0  0  0  0  0  0  0  0
    6.8676  -12.5565   25.5886 N   0  0  0  0  0  0  0  0  0  0  0  0
    5.6881  -13.0370   26.0112 C   0  0  0  0  0  0  0  0  0  0  0  0
    5.8108  -14.3701   26.0910 N   0  0  0  0  0  0  0  0  0  0  0  0
    9.5981  -17.4611   25.2012 C   0  0  0  0  0  0  0  0  0  0  0  0
    9.7395  -18.3652   24.3056 O   0  0  0  0  0  0  0  0  0  0  0  0
   10.2596  -17.6660   26.3866 O   0  0  0  0  0  0  0  0  0  0  0  0
  2  3  1  0
  2  1  1  0
  3 10  1  0
  4  3  2  0
  6  8  1  0
  6  5  1  0
  7  6  2  0
  9  8  1  1
 10  9  1  0
 11  9  1  0
 12 11  2  0
 13 11  1  0
 14 15  1  1
 14 13  1  0
 15 16  1  0
 16 17  2  0
 18 17  1  0
 19 18  1  0
 20 19  2  0
 20 16  1  0
 21 14  1  0
 21 23  1  0
 22 21  2  0
M  END
$$$$
