GNH.pdb
     RDKit          3D

 23 23  0  0  1  0  0  0  0  0999 V2000
    8.1719  -17.1572   14.0559 N   0  0  0  0  0  0  0  0  0  0  0  0
    9.3152  -17.3840   14.9124 C   0  0  0  0  0  0  0  0  0  0  0  0
    8.8414  -17.5985   16.3034 C   0  0  0  0  0  0  0  0  0  0  0  0
    7.8827  -16.9341   16.7566 O   0  0  0  0  0  0  0  0  0  0  0  0
    7.3798  -21.7768   19.0373 N   0  0  0  0  0  0  0  0  0  0  0  0
    7.9943  -20.6489   19.6168 C   0  0  0  0  0  0  0  0  0  0  0  0
    7.4682  -20.1271   20.6178 O   0  0  0  0  0  0  0  0  0  0  0  0
    9.2201  -20.1024   19.0587 C   0  0  0  0  0  0  0  0  0  0  0  0
    9.0795  -18.6877   18.5455 C   0  0  2  0  0  0  0  0  0  0  0  0
    9.4493  -18.5571   17.1712 N   0  0  0  0  0  0  0  0  0  0  0  0
    9.8242  -17.7221   19.4120 C   0  0  0  0  0  0  0  0  0  0  0  0
   10.9792  -17.4240   19.0672 O   0  0  0  0  0  0  0  0  0  0  0  0
    9.2748  -17.1553   20.5733 N   0  0  0  0  0  0  0  0  0  0  0  0
    9.8915  -16.2021   21.4583 C   0  0  1  0  0  0  0  0  0  0  0  0
    8.9889  -15.0899   21.8420 C   0  0  0  0  0  0  0  0  0  0  0  0
    8.6990  -14.2162   20.6882 C   0  0  0  0  0  0  0  0  0  0  0  0
    9.1446  -14.2520   19.4057 C   0  0  0  0  0  0  0  0  0  0  0  0
    8.6211  -13.2188   18.7333 N   0  0  0  0  0  0  0  0  0  0  0  0
    7.8404  -12.5129   19.5656 C   0  0  0  0  0  0  0  0  0  0  0  0
    7.8865  -13.1203   20.7603 N   0  0  0  0  0  0  0  0  0  0  0  0
   10.6582  -16.8016   22.5669 C   0  0  0  0  0  0  0  0  0  0  0  0
   10.5275  -18.0591   22.7695 O   0  0  0  0  0  0  0  0  0  0  0  0
   11.5100  -16.1319   23.4100 O   0  0  0  0  0  0  0  0  0  0  0  0
  2  3  1  0
  2  1  1  0
  3 10  1  0
  4  3  2  0
  6  8  1  0
  6  5  1  0
  7  6  2  0
  9  8  1  1
 10  9  1  0
 11  9  1  0
 12 11  2  0
 13 11  1  0
 14 15  1  1
 14 13  1  0
 15 16  1  0
 16 17  2  0
 18 17  1  0
 19 18  1  0
 20 19  2  0
 20 16  1  0
 21 14  1  0
 21 23  1  0
 22 21  2  0
M  END
$$$$
