GNH.pdb
     RDKit          3D

 23 23  0  0  1  0  0  0  0  0999 V2000
    7.9713  -13.5293   17.8752 N   0  0  0  0  0  0  0  0  0  0  0  0
    8.2026  -13.0883   19.2332 C   0  0  0  0  0  0  0  0  0  0  0  0
    8.2943  -14.2775   20.1180 C   0  0  0  0  0  0  0  0  0  0  0  0
    7.3714  -14.5443   20.9199 O   0  0  0  0  0  0  0  0  0  0  0  0
   10.8944  -17.7471   17.8838 N   0  0  0  0  0  0  0  0  0  0  0  0
   10.0404  -17.8862   18.9959 C   0  0  0  0  0  0  0  0  0  0  0  0
    8.9424  -18.4537   18.8419 O   0  0  0  0  0  0  0  0  0  0  0  0
   10.4311  -17.3778   20.3004 C   0  0  0  0  0  0  0  0  0  0  0  0
    9.4748  -16.3545   20.8682 C   0  0  2  0  0  0  0  0  0  0  0  0
    9.4215  -15.1551   20.0929 N   0  0  0  0  0  0  0  0  0  0  0  0
    9.7783  -16.0702   22.3052 C   0  0  0  0  0  0  0  0  0  0  0  0
   10.7794  -15.3769   22.5475 O   0  0  0  0  0  0  0  0  0  0  0  0
    8.9886  -16.5488   23.3630 N   0  0  0  0  0  0  0  0  0  0  0  0
    9.2312  -16.3987   24.7740 C   0  0  1  0  0  0  0  0  0  0  0  0
    8.0454  -15.9198   25.5245 C   0  0  0  0  0  0  0  0  0  0  0  0
    7.6788  -14.5475   25.1230 C   0  0  0  0  0  0  0  0  0  0  0  0
    8.3119  -13.6510   24.3229 C   0  0  0  0  0  0  0  0  0  0  0  0
    7.5987  -12.5179   24.2881 N   0  0  0  0  0  0  0  0  0  0  0  0
    6.5095  -12.6694   25.0570 C   0  0  0  0  0  0  0  0  0  0  0  0
    6.5564  -13.9084   25.5681 N   0  0  0  0  0  0  0  0  0  0  0  0
    9.9567  -17.5234   25.3944 C   0  0  0  0  0  0  0  0  0  0  0  0
   10.2620  -17.4238   26.6339 O   0  0  0  0  0  0  0  0  0  0  0  0
   10.3377  -18.6810   24.7621 O   0  0  0  0  0  0  0  0  0  0  0  0
  2  3  1  0
  2  1  1  0
  3 10  1  0
  4  3  2  0
  6  8  1  0
  6  5  1  0
  7  6  2  0
  9  8  1  6
 10  9  1  0
 11  9  1  0
 12 11  2  0
 13 11  1  0
 14 15  1  1
 14 13  1  0
 15 16  1  0
 16 17  2  0
 18 17  1  0
 19 18  1  0
 20 19  2  0
 20 16  1  0
 21 14  1  0
 21 23  1  0
 22 21  2  0
M  END
$$$$
