GNH.pdb
     RDKit          3D

 23 23  0  0  1  0  0  0  0  0999 V2000
    8.9103  -20.3037   20.1460 N   0  0  0  0  0  0  0  0  0  0  0  0
   10.0751  -20.6453   19.3594 C   0  0  0  0  0  0  0  0  0  0  0  0
   10.5510  -19.4311   18.6490 C   0  0  0  0  0  0  0  0  0  0  0  0
   11.6167  -19.4563   17.9936 O   0  0  0  0  0  0  0  0  0  0  0  0
    9.3948  -18.1159   15.4805 N   0  0  0  0  0  0  0  0  0  0  0  0
    8.6748  -17.0139   15.9833 C   0  0  0  0  0  0  0  0  0  0  0  0
    7.6958  -16.5926   15.3389 O   0  0  0  0  0  0  0  0  0  0  0  0
    9.0650  -16.3787   17.2311 C   0  0  0  0  0  0  0  0  0  0  0  0
   10.2242  -17.0566   17.9247 C   0  0  2  0  0  0  0  0  0  0  0  0
    9.8249  -18.2010   18.6818 N   0  0  0  0  0  0  0  0  0  0  0  0
   10.9977  -16.0850   18.7587 C   0  0  0  0  0  0  0  0  0  0  0  0
   11.3662  -15.0337   18.2105 O   0  0  0  0  0  0  0  0  0  0  0  0
   11.3132  -16.3162   20.1074 N   0  0  0  0  0  0  0  0  0  0  0  0
   10.7809  -15.6370   21.2597 C   0  0  1  0  0  0  0  0  0  0  0  0
    9.3170  -15.4134   21.1833 C   0  0  0  0  0  0  0  0  0  0  0  0
    9.0029  -14.2016   20.4013 C   0  0  0  0  0  0  0  0  0  0  0  0
    9.8117  -13.2927   19.7977 C   0  0  0  0  0  0  0  0  0  0  0  0
    9.0550  -12.3422   19.2340 N   0  0  0  0  0  0  0  0  0  0  0  0
    7.7638  -12.6244   19.4654 C   0  0  0  0  0  0  0  0  0  0  0  0
    7.7295  -13.7598   20.1783 N   0  0  0  0  0  0  0  0  0  0  0  0
   11.2731  -16.1470   22.5535 C   0  0  0  0  0  0  0  0  0  0  0  0
   11.4575  -17.4092   22.6647 O   0  0  0  0  0  0  0  0  0  0  0  0
   11.5577  -15.3877   23.6613 O   0  0  0  0  0  0  0  0  0  0  0  0
  2  3  1  0
  2  1  1  0
  3 10  1  0
  4  3  2  0
  6  8  1  0
  6  5  1  0
  7  6  2  0
  9  8  1  1
 10  9  1  0
 11  9  1  0
 12 11  2  0
 13 11  1  0
 14 15  1  1
 14 13  1  0
 15 16  1  0
 16 17  2  0
 18 17  1  0
 19 18  1  0
 20 19  2  0
 20 16  1  0
 21 14  1  0
 21 23  1  0
 22 21  2  0
M  END
$$$$
