GNH.pdb
     RDKit          3D

 23 23  0  0  1  0  0  0  0  0999 V2000
    9.7780  -24.0924   23.3183 N   0  0  0  0  0  0  0  0  0  0  0  0
    9.7463  -24.4240   24.7259 C   0  0  0  0  0  0  0  0  0  0  0  0
    9.8943  -23.1772   25.5190 C   0  0  0  0  0  0  0  0  0  0  0  0
   10.6177  -22.2439   25.1048 O   0  0  0  0  0  0  0  0  0  0  0  0
    6.4393  -21.1852   26.4811 N   0  0  0  0  0  0  0  0  0  0  0  0
    7.4943  -20.5312   27.1480 C   0  0  0  0  0  0  0  0  0  0  0  0
    7.7511  -19.3494   26.8501 O   0  0  0  0  0  0  0  0  0  0  0  0
    8.2703  -21.2205   28.1655 C   0  0  0  0  0  0  0  0  0  0  0  0
    9.5164  -21.8903   27.6334 C   0  0  2  0  0  0  0  0  0  0  0  0
    9.2281  -22.9914   26.7692 N   0  0  0  0  0  0  0  0  0  0  0  0
   10.4336  -22.2872   28.7465 C   0  0  0  0  0  0  0  0  0  0  0  0
   10.8982  -23.4382   28.7161 O   0  0  0  0  0  0  0  0  0  0  0  0
   10.7786  -21.4233   29.7984 N   0  0  0  0  0  0  0  0  0  0  0  0
   11.8306  -21.5980   30.7654 C   0  0  1  0  0  0  0  0  0  0  0  0
   13.1311  -21.9668   30.1558 C   0  0  0  0  0  0  0  0  0  0  0  0
   13.1832  -23.4082   29.8422 C   0  0  0  0  0  0  0  0  0  0  0  0
   12.3038  -24.4110   30.0983 C   0  0  0  0  0  0  0  0  0  0  0  0
   12.8131  -25.5638   29.6450 N   0  0  0  0  0  0  0  0  0  0  0  0
   14.0135  -25.3199   29.0974 C   0  0  0  0  0  0  0  0  0  0  0  0
   14.2417  -24.0037   29.2167 N   0  0  0  0  0  0  0  0  0  0  0  0
   11.8952  -20.5462   31.7977 C   0  0  0  0  0  0  0  0  0  0  0  0
   11.2020  -19.4858   31.6115 O   0  0  0  0  0  0  0  0  0  0  0  0
   12.6345  -20.5981   32.9534 O   0  0  0  0  0  0  0  0  0  0  0  0
  2  3  1  0
  2  1  1  0
  3 10  1  0
  4  3  2  0
  6  8  1  0
  6  5  1  0
  7  6  2  0
  9  8  1  1
 10  9  1  0
 11  9  1  0
 12 11  2  0
 13 11  1  0
 14 15  1  6
 14 13  1  0
 15 16  1  0
 16 17  2  0
 18 17  1  0
 19 18  1  0
 20 19  2  0
 20 16  1  0
 21 14  1  0
 21 23  1  0
 22 21  2  0
M  END
$$$$
