GNH.pdb
     RDKit          3D

 23 23  0  0  1  0  0  0  0  0999 V2000
    4.3999  -23.0853   10.9727 N   0  0  0  0  0  0  0  0  0  0  0  0
    3.6664  -21.9163   10.5398 C   0  0  0  0  0  0  0  0  0  0  0  0
    4.3807  -20.6994   11.0025 C   0  0  0  0  0  0  0  0  0  0  0  0
    5.5422  -20.4560   10.6055 O   0  0  0  0  0  0  0  0  0  0  0  0
    5.9603  -16.2488   12.4781 N   0  0  0  0  0  0  0  0  0  0  0  0
    4.6166  -16.1434   12.0671 C   0  0  0  0  0  0  0  0  0  0  0  0
    4.1695  -15.0222   11.7598 O   0  0  0  0  0  0  0  0  0  0  0  0
    3.7654  -17.3198   12.0019 C   0  0  0  0  0  0  0  0  0  0  0  0
    4.4706  -18.6046   12.3714 C   0  0  2  0  0  0  0  0  0  0  0  0
    3.7831  -19.7679   11.9063 N   0  0  0  0  0  0  0  0  0  0  0  0
    4.7366  -18.6713   13.8420 C   0  0  0  0  0  0  0  0  0  0  0  0
    3.7645  -18.8792   14.5858 O   0  0  0  0  0  0  0  0  0  0  0  0
    6.0169  -18.5107   14.3958 N   0  0  0  0  0  0  0  0  0  0  0  0
    6.6361  -19.3148   15.4168 C   0  0  1  0  0  0  0  0  0  0  0  0
    6.4289  -20.7701   15.2222 C   0  0  0  0  0  0  0  0  0  0  0  0
    5.1692  -21.2177   15.8478 C   0  0  0  0  0  0  0  0  0  0  0  0
    4.3655  -20.6206   16.7656 C   0  0  0  0  0  0  0  0  0  0  0  0
    3.3453  -21.4402   17.0506 N   0  0  0  0  0  0  0  0  0  0  0  0
    3.4783  -22.5628   16.3277 C   0  0  0  0  0  0  0  0  0  0  0  0
    4.5918  -22.4291   15.5923 N   0  0  0  0  0  0  0  0  0  0  0  0
    8.0142  -18.9155   15.7598 C   0  0  0  0  0  0  0  0  0  0  0  0
    8.6077  -19.5640   16.6908 O   0  0  0  0  0  0  0  0  0  0  0  0
    8.7296  -17.9047   15.1671 O   0  0  0  0  0  0  0  0  0  0  0  0
  2  3  1  0
  2  1  1  0
  3 10  1  0
  4  3  2  0
  6  8  1  0
  6  5  1  0
  7  6  2  0
  9  8  1  1
 10  9  1  0
 11  9  1  0
 12 11  2  0
 13 11  1  0
 14 15  1  6
 14 13  1  0
 15 16  1  0
 16 17  2  0
 18 17  1  0
 19 18  1  0
 20 19  2  0
 20 16  1  0
 21 14  1  0
 21 23  1  0
 22 21  2  0
M  END
$$$$
