GNH.pdb
     RDKit          3D

 23 23  0  0  1  0  0  0  0  0999 V2000
    9.5407  -26.2905   26.2728 N   0  0  0  0  0  0  0  0  0  0  0  0
    9.2456  -24.9417   26.7036 C   0  0  0  0  0  0  0  0  0  0  0  0
   10.5159  -24.2597   27.0596 C   0  0  0  0  0  0  0  0  0  0  0  0
   11.2757  -24.7461   27.9268 O   0  0  0  0  0  0  0  0  0  0  0  0
   14.3561  -22.3768   24.4368 N   0  0  0  0  0  0  0  0  0  0  0  0
   13.0116  -21.9917   24.6089 C   0  0  0  0  0  0  0  0  0  0  0  0
   12.1998  -22.2212   23.6927 O   0  0  0  0  0  0  0  0  0  0  0  0
   12.5772  -21.3384   25.8326 C   0  0  0  0  0  0  0  0  0  0  0  0
   12.0553  -22.2929   26.8819 C   0  0  2  0  0  0  0  0  0  0  0  0
   10.9200  -23.0385   26.4377 N   0  0  0  0  0  0  0  0  0  0  0  0
   11.7803  -21.5826   28.1694 C   0  0  0  0  0  0  0  0  0  0  0  0
   10.8496  -20.7607   28.1767 O   0  0  0  0  0  0  0  0  0  0  0  0
   12.5206  -21.8084   29.3410 N   0  0  0  0  0  0  0  0  0  0  0  0
   12.3135  -21.2140   30.6356 C   0  0  1  0  0  0  0  0  0  0  0  0
   10.8892  -21.1888   31.0474 C   0  0  0  0  0  0  0  0  0  0  0  0
   10.4090  -22.5422   31.3888 C   0  0  0  0  0  0  0  0  0  0  0  0
   11.0454  -23.7420   31.3925 C   0  0  0  0  0  0  0  0  0  0  0  0
   10.1748  -24.6962   31.7465 N   0  0  0  0  0  0  0  0  0  0  0  0
    8.9802  -24.1285   31.9728 C   0  0  0  0  0  0  0  0  0  0  0  0
    9.1209  -22.8127   31.7548 N   0  0  0  0  0  0  0  0  0  0  0  0
   13.2611  -21.6610   31.6741 C   0  0  0  0  0  0  0  0  0  0  0  0
   14.0845  -22.5924   31.3676 O   0  0  0  0  0  0  0  0  0  0  0  0
   13.3463  -21.1657   32.9517 O   0  0  0  0  0  0  0  0  0  0  0  0
  2  3  1  0
  2  1  1  0
  3 10  1  0
  4  3  2  0
  6  8  1  0
  6  5  1  0
  7  6  2  0
  9  8  1  6
 10  9  1  0
 11  9  1  0
 12 11  2  0
 13 11  1  0
 14 15  1  1
 14 13  1  0
 15 16  1  0
 16 17  2  0
 18 17  1  0
 19 18  1  0
 20 19  2  0
 20 16  1  0
 21 14  1  0
 21 23  1  0
 22 21  2  0
M  END
$$$$
