GNH.pdb
     RDKit          3D

 23 23  0  0  1  0  0  0  0  0999 V2000
    7.8866  -16.5255   20.9202 N   0  0  0  0  0  0  0  0  0  0  0  0
    8.9313  -15.6324   21.3708 C   0  0  0  0  0  0  0  0  0  0  0  0
    9.9156  -16.4053   22.1702 C   0  0  0  0  0  0  0  0  0  0  0  0
    9.6689  -17.5829   22.5141 O   0  0  0  0  0  0  0  0  0  0  0  0
   15.7662  -16.6534   24.1359 N   0  0  0  0  0  0  0  0  0  0  0  0
   14.4513  -17.0829   23.8678 C   0  0  0  0  0  0  0  0  0  0  0  0
   14.1037  -18.2193   24.2407 O   0  0  0  0  0  0  0  0  0  0  0  0
   13.5152  -16.2177   23.1693 C   0  0  0  0  0  0  0  0  0  0  0  0
   12.0644  -16.5358   23.4491 C   0  0  2  0  0  0  0  0  0  0  0  0
   11.1673  -15.8477   22.5750 N   0  0  0  0  0  0  0  0  0  0  0  0
   11.7265  -16.2973   24.8867 C   0  0  0  0  0  0  0  0  0  0  0  0
   11.5660  -15.1191   25.2441 O   0  0  0  0  0  0  0  0  0  0  0  0
   11.5880  -17.3351   25.8223 N   0  0  0  0  0  0  0  0  0  0  0  0
   11.0794  -17.2404   27.1658 C   0  0  1  0  0  0  0  0  0  0  0  0
    9.6863  -16.7365   27.2304 C   0  0  0  0  0  0  0  0  0  0  0  0
    9.6535  -15.3031   27.5810 C   0  0  0  0  0  0  0  0  0  0  0  0
   10.6151  -14.4819   28.0767 C   0  0  0  0  0  0  0  0  0  0  0  0
   10.0934  -13.2627   28.2636 N   0  0  0  0  0  0  0  0  0  0  0  0
    8.8035  -13.2837   27.8946 C   0  0  0  0  0  0  0  0  0  0  0  0
    8.5326  -14.5292   27.4774 N   0  0  0  0  0  0  0  0  0  0  0  0
   11.3643  -18.4138   28.0132 C   0  0  0  0  0  0  0  0  0  0  0  0
   11.0131  -18.3592   29.2433 O   0  0  0  0  0  0  0  0  0  0  0  0
   11.9750  -19.5728   27.6028 O   0  0  0  0  0  0  0  0  0  0  0  0
  2  3  1  0
  2  1  1  0
  3 10  1  0
  4  3  2  0
  6  8  1  0
  6  5  1  0
  7  6  2  0
  9  8  1  1
 10  9  1  0
 11  9  1  0
 12 11  2  0
 13 11  1  0
 14 15  1  6
 14 13  1  0
 15 16  1  0
 16 17  2  0
 18 17  1  0
 19 18  1  0
 20 19  2  0
 20 16  1  0
 21 14  1  0
 21 23  1  0
 22 21  2  0
M  END
$$$$
