GNH.pdb
     RDKit          3D

 23 23  0  0  1  0  0  0  0  0999 V2000
   16.2158  -20.8192   13.8273 N   0  0  0  0  0  0  0  0  0  0  0  0
   15.5767  -21.6294   14.8408 C   0  0  0  0  0  0  0  0  0  0  0  0
   14.8075  -20.7446   15.7522 C   0  0  0  0  0  0  0  0  0  0  0  0
   14.8848  -19.5003   15.6432 O   0  0  0  0  0  0  0  0  0  0  0  0
   10.5736  -22.4211   16.2823 N   0  0  0  0  0  0  0  0  0  0  0  0
   10.9981  -21.1402   16.6879 C   0  0  0  0  0  0  0  0  0  0  0  0
   10.6762  -20.1550   15.9972 O   0  0  0  0  0  0  0  0  0  0  0  0
   11.7970  -20.9686   17.8900 C   0  0  0  0  0  0  0  0  0  0  0  0
   13.1821  -20.4228   17.6296 C   0  0  2  0  0  0  0  0  0  0  0  0
   13.9591  -21.2662   16.7768 N   0  0  0  0  0  0  0  0  0  0  0  0
   13.8952  -20.1253   18.9106 C   0  0  0  0  0  0  0  0  0  0  0  0
   13.3484  -19.3318   19.6936 O   0  0  0  0  0  0  0  0  0  0  0  0
   15.1313  -20.6991   19.2490 N   0  0  0  0  0  0  0  0  0  0  0  0
   15.9290  -20.4333   20.4176 C   0  0  1  0  0  0  0  0  0  0  0  0
   15.1909  -20.6320   21.6882 C   0  0  0  0  0  0  0  0  0  0  0  0
   14.5322  -21.9526   21.7212 C   0  0  0  0  0  0  0  0  0  0  0  0
   14.3177  -22.8692   20.7422 C   0  0  0  0  0  0  0  0  0  0  0  0
   13.6430  -23.9058   21.2558 N   0  0  0  0  0  0  0  0  0  0  0  0
   13.4173  -23.6719   22.5577 C   0  0  0  0  0  0  0  0  0  0  0  0
   13.9596  -22.4793   22.8442 N   0  0  0  0  0  0  0  0  0  0  0  0
   17.2845  -21.0144   20.3796 C   0  0  0  0  0  0  0  0  0  0  0  0
   18.0401  -20.8299   21.3967 O   0  0  0  0  0  0  0  0  0  0  0  0
   17.8177  -21.7444   19.3463 O   0  0  0  0  0  0  0  0  0  0  0  0
  2  3  1  0
  2  1  1  0
  3 10  1  0
  4  3  2  0
  6  8  1  0
  6  5  1  0
  7  6  2  0
  9  8  1  1
 10  9  1  0
 11  9  1  0
 12 11  2  0
 13 11  1  0
 14 15  1  1
 14 13  1  0
 15 16  1  0
 16 17  2  0
 18 17  1  0
 19 18  1  0
 20 19  2  0
 20 16  1  0
 21 14  1  0
 21 23  1  0
 22 21  2  0
M  END
$$$$
