GNH.pdb
     RDKit          3D

 23 23  0  0  1  0  0  0  0  0999 V2000
    8.2997  -19.1204   18.7962 N   0  0  0  0  0  0  0  0  0  0  0  0
    7.5365  -18.4364   19.8169 C   0  0  0  0  0  0  0  0  0  0  0  0
    8.2601  -17.2022   20.2151 C   0  0  0  0  0  0  0  0  0  0  0  0
    9.4960  -17.2263   20.4098 O   0  0  0  0  0  0  0  0  0  0  0  0
    8.4803  -12.1515   18.3426 N   0  0  0  0  0  0  0  0  0  0  0  0
    7.9363  -13.3488   18.8488 C   0  0  0  0  0  0  0  0  0  0  0  0
    7.6710  -14.2703   18.0541 O   0  0  0  0  0  0  0  0  0  0  0  0
    7.6886  -13.5083   20.2722 C   0  0  0  0  0  0  0  0  0  0  0  0
    8.2615  -14.7807   20.8527 C   0  0  2  0  0  0  0  0  0  0  0  0
    7.5883  -15.9534   20.3903 N   0  0  0  0  0  0  0  0  0  0  0  0
    8.3045  -14.7215   22.3468 C   0  0  0  0  0  0  0  0  0  0  0  0
    7.5613  -13.8975   22.9039 O   0  0  0  0  0  0  0  0  0  0  0  0
    9.1364  -15.5460   23.1214 N   0  0  0  0  0  0  0  0  0  0  0  0
    9.1275  -15.7011   24.5526 C   0  0  1  0  0  0  0  0  0  0  0  0
    7.7616  -15.7655   25.1262 C   0  0  0  0  0  0  0  0  0  0  0  0
    7.3021  -14.4315   25.5597 C   0  0  0  0  0  0  0  0  0  0  0  0
    7.9110  -13.2183   25.5155 C   0  0  0  0  0  0  0  0  0  0  0  0
    7.1003  -12.3033   26.0625 N   0  0  0  0  0  0  0  0  0  0  0  0
    5.9717  -12.9096   26.4613 C   0  0  0  0  0  0  0  0  0  0  0  0
    6.0928  -14.2097   26.1552 N   0  0  0  0  0  0  0  0  0  0  0  0
   10.0739  -16.7098   25.0657 C   0  0  0  0  0  0  0  0  0  0  0  0
   10.5472  -17.5600   24.2334 O   0  0  0  0  0  0  0  0  0  0  0  0
   10.5018  -16.8232   26.3652 O   0  0  0  0  0  0  0  0  0  0  0  0
  2  3  1  0
  2  1  1  0
  3 10  1  0
  4  3  2  0
  6  8  1  0
  6  5  1  0
  7  6  2  0
  9  8  1  1
 10  9  1  0
 11  9  1  0
 12 11  2  0
 13 11  1  0
 14 15  1  6
 14 13  1  0
 15 16  1  0
 16 17  2  0
 18 17  1  0
 19 18  1  0
 20 19  2  0
 20 16  1  0
 21 14  1  0
 21 23  1  0
 22 21  2  0
M  END
$$$$
