GNH.pdb
     RDKit          3D

 23 23  0  0  1  0  0  0  0  0999 V2000
    7.7512  -19.9684   17.2906 N   0  0  0  0  0  0  0  0  0  0  0  0
    7.0415  -18.9401   18.0193 C   0  0  0  0  0  0  0  0  0  0  0  0
    7.9438  -17.7770   18.2150 C   0  0  0  0  0  0  0  0  0  0  0  0
    9.1700  -17.8799   17.9874 O   0  0  0  0  0  0  0  0  0  0  0  0
    8.1503  -11.6949   19.4735 N   0  0  0  0  0  0  0  0  0  0  0  0
    8.6292  -13.0091   19.3037 C   0  0  0  0  0  0  0  0  0  0  0  0
    9.8470  -13.2271   19.4480 O   0  0  0  0  0  0  0  0  0  0  0  0
    7.7210  -14.0927   18.9665 C   0  0  0  0  0  0  0  0  0  0  0  0
    8.3346  -15.4674   19.1001 C   0  0  2  0  0  0  0  0  0  0  0  0
    7.4597  -16.5099   18.6642 N   0  0  0  0  0  0  0  0  0  0  0  0
    8.8275  -15.7061   20.4922 C   0  0  0  0  0  0  0  0  0  0  0  0
    7.9719  -15.8564   21.3794 O   0  0  0  0  0  0  0  0  0  0  0  0
   10.1913  -15.7646   20.8213 N   0  0  0  0  0  0  0  0  0  0  0  0
   10.7820  -16.3242   22.0089 C   0  0  1  0  0  0  0  0  0  0  0  0
   10.2737  -17.6790   22.3332 C   0  0  0  0  0  0  0  0  0  0  0  0
   10.8610  -18.1818   23.5906 C   0  0  0  0  0  0  0  0  0  0  0  0
   11.7095  -17.5991   24.4766 C   0  0  0  0  0  0  0  0  0  0  0  0
   11.9866  -18.4721   25.4538 N   0  0  0  0  0  0  0  0  0  0  0  0
   11.3270  -19.6152   25.2114 C   0  0  0  0  0  0  0  0  0  0  0  0
   10.6388  -19.4402   24.0737 N   0  0  0  0  0  0  0  0  0  0  0  0
   12.2454  -16.1624   22.1003 C   0  0  0  0  0  0  0  0  0  0  0  0
   12.7225  -15.6565   23.1755 O   0  0  0  0  0  0  0  0  0  0  0  0
   13.1548  -16.5089   21.1319 O   0  0  0  0  0  0  0  0  0  0  0  0
  2  3  1  0
  2  1  1  0
  3 10  1  0
  4  3  2  0
  6  8  1  0
  6  5  1  0
  7  6  2  0
  9  8  1  1
 10  9  1  0
 11  9  1  0
 12 11  2  0
 13 11  1  0
 14 15  1  6
 14 13  1  0
 15 16  1  0
 16 17  2  0
 18 17  1  0
 19 18  1  0
 20 19  2  0
 20 16  1  0
 21 14  1  0
 21 23  1  0
 22 21  2  0
M  END
$$$$
