GNH.pdb
     RDKit          3D

 23 23  0  0  1  0  0  0  0  0999 V2000
    6.4430  -22.1156   21.9845 N   0  0  0  0  0  0  0  0  0  0  0  0
    6.0669  -23.0597   23.0138 C   0  0  0  0  0  0  0  0  0  0  0  0
    6.1606  -22.3934   24.3376 C   0  0  0  0  0  0  0  0  0  0  0  0
    5.8994  -21.1752   24.4547 O   0  0  0  0  0  0  0  0  0  0  0  0
    3.8803  -22.5870   27.1227 N   0  0  0  0  0  0  0  0  0  0  0  0
    4.6705  -23.3114   28.0372 C   0  0  0  0  0  0  0  0  0  0  0  0
    4.1052  -23.9414   28.9508 O   0  0  0  0  0  0  0  0  0  0  0  0
    6.1191  -23.3250   27.9189 C   0  0  0  0  0  0  0  0  0  0  0  0
    6.6477  -22.4667   26.7927 C   0  0  2  0  0  0  0  0  0  0  0  0
    6.5465  -23.1022   25.5167 N   0  0  0  0  0  0  0  0  0  0  0  0
    8.0440  -22.0083   27.0723 C   0  0  0  0  0  0  0  0  0  0  0  0
    8.9260  -22.8800   27.1335 O   0  0  0  0  0  0  0  0  0  0  0  0
    8.3824  -20.6589   27.2629 N   0  0  0  0  0  0  0  0  0  0  0  0
    9.6887  -20.1123   27.5217 C   0  0  1  0  0  0  0  0  0  0  0  0
    9.9671  -18.8729   26.7565 C   0  0  0  0  0  0  0  0  0  0  0  0
    9.8439  -19.1042   25.3039 C   0  0  0  0  0  0  0  0  0  0  0  0
    9.6632  -20.2472   24.5929 C   0  0  0  0  0  0  0  0  0  0  0  0
    9.6466  -19.9503   23.2871 N   0  0  0  0  0  0  0  0  0  0  0  0
    9.8146  -18.6269   23.1429 C   0  0  0  0  0  0  0  0  0  0  0  0
    9.9354  -18.1080   24.3736 N   0  0  0  0  0  0  0  0  0  0  0  0
   10.0637  -20.0691   28.9478 C   0  0  0  0  0  0  0  0  0  0  0  0
   11.2608  -19.7197   29.2384 O   0  0  0  0  0  0  0  0  0  0  0  0
    9.2408  -20.3692   30.0050 O   0  0  0  0  0  0  0  0  0  0  0  0
  2  3  1  0
  2  1  1  0
  3 10  1  0
  4  3  2  0
  6  8  1  0
  6  5  1  0
  7  6  2  0
  9  8  1  1
 10  9  1  0
 11  9  1  0
 12 11  2  0
 13 11  1  0
 14 15  1  1
 14 13  1  0
 15 16  1  0
 16 17  2  0
 18 17  1  0
 19 18  1  0
 20 19  2  0
 20 16  1  0
 21 14  1  0
 21 23  1  0
 22 21  2  0
M  END
$$$$
