GNH.pdb
     RDKit          3D

 23 23  0  0  1  0  0  0  0  0999 V2000
   10.3632  -17.9874   16.9099 N   0  0  0  0  0  0  0  0  0  0  0  0
   11.0891  -17.2680   17.9334 C   0  0  0  0  0  0  0  0  0  0  0  0
   10.3308  -17.3453   19.2079 C   0  0  0  0  0  0  0  0  0  0  0  0
    9.0794  -17.3575   19.2018 O   0  0  0  0  0  0  0  0  0  0  0  0
   10.3890  -20.0701   21.7536 N   0  0  0  0  0  0  0  0  0  0  0  0
   11.0099  -19.3838   22.8161 C   0  0  0  0  0  0  0  0  0  0  0  0
   11.5707  -20.0445   23.7107 O   0  0  0  0  0  0  0  0  0  0  0  0
   10.9979  -17.9313   22.8698 C   0  0  0  0  0  0  0  0  0  0  0  0
   10.2762  -17.2836   21.7105 C   0  0  2  0  0  0  0  0  0  0  0  0
   10.9856  -17.4083   20.4762 N   0  0  0  0  0  0  0  0  0  0  0  0
    9.9394  -15.8577   22.0125 C   0  0  0  0  0  0  0  0  0  0  0  0
   10.2746  -15.0055   21.1739 O   0  0  0  0  0  0  0  0  0  0  0  0
    9.2735  -15.4603   23.1831 N   0  0  0  0  0  0  0  0  0  0  0  0
    8.2054  -14.5023   23.3002 C   0  0  1  0  0  0  0  0  0  0  0  0
    7.1371  -14.6896   22.2890 C   0  0  0  0  0  0  0  0  0  0  0  0
    7.5305  -14.1188   20.9859 C   0  0  0  0  0  0  0  0  0  0  0  0
    8.2905  -13.0364   20.6770 C   0  0  0  0  0  0  0  0  0  0  0  0
    8.3349  -12.9006   19.3454 N   0  0  0  0  0  0  0  0  0  0  0  0
    7.6120  -13.8833   18.7867 C   0  0  0  0  0  0  0  0  0  0  0  0
    7.1196  -14.6286   19.7870 N   0  0  0  0  0  0  0  0  0  0  0  0
    7.7337  -14.2757   24.6795 C   0  0  0  0  0  0  0  0  0  0  0  0
    7.9945  -15.1747   25.5532 O   0  0  0  0  0  0  0  0  0  0  0  0
    7.0359  -13.1787   25.1207 O   0  0  0  0  0  0  0  0  0  0  0  0
  2  3  1  0
  2  1  1  0
  3 10  1  0
  4  3  2  0
  6  8  1  0
  6  5  1  0
  7  6  2  0
  9  8  1  1
 10  9  1  0
 11  9  1  0
 12 11  2  0
 13 11  1  0
 14 15  1  6
 14 13  1  0
 15 16  1  0
 16 17  2  0
 18 17  1  0
 19 18  1  0
 20 19  2  0
 20 16  1  0
 21 14  1  0
 21 23  1  0
 22 21  2  0
M  END
$$$$
