GNH.pdb
     RDKit          3D

 23 23  0  0  1  0  0  0  0  0999 V2000
    9.7322  -15.3237   14.3220 N   0  0  0  0  0  0  0  0  0  0  0  0
    9.3383  -15.9659   15.5567 C   0  0  0  0  0  0  0  0  0  0  0  0
    9.8475  -15.1670   16.7003 C   0  0  0  0  0  0  0  0  0  0  0  0
   10.9125  -14.5181   16.5966 O   0  0  0  0  0  0  0  0  0  0  0  0
    7.7368  -12.5976   18.5903 N   0  0  0  0  0  0  0  0  0  0  0  0
    7.6919  -13.2546   19.8361 C   0  0  0  0  0  0  0  0  0  0  0  0
    6.7699  -12.9790   20.6267 O   0  0  0  0  0  0  0  0  0  0  0  0
    8.7018  -14.2367   20.1944 C   0  0  0  0  0  0  0  0  0  0  0  0
    9.7212  -14.4886   19.1073 C   0  0  2  0  0  0  0  0  0  0  0  0
    9.1554  -15.1050   17.9487 N   0  0  0  0  0  0  0  0  0  0  0  0
   10.8889  -15.2635   19.6306 C   0  0  0  0  0  0  0  0  0  0  0  0
   10.8067  -16.5021   19.6026 O   0  0  0  0  0  0  0  0  0  0  0  0
   12.0462  -14.6525   20.1397 N   0  0  0  0  0  0  0  0  0  0  0  0
   13.1994  -15.2994   20.7089 C   0  0  1  0  0  0  0  0  0  0  0  0
   14.4483  -14.5158   20.5505 C   0  0  0  0  0  0  0  0  0  0  0  0
   14.8573  -14.4453   19.1340 C   0  0  0  0  0  0  0  0  0  0  0  0
   14.4357  -15.1407   18.0462 C   0  0  0  0  0  0  0  0  0  0  0  0
   15.1343  -14.7410   16.9756 N   0  0  0  0  0  0  0  0  0  0  0  0
   16.0047  -13.7938   17.3570 C   0  0  0  0  0  0  0  0  0  0  0  0
   15.8374  -13.6115   18.6751 N   0  0  0  0  0  0  0  0  0  0  0  0
   12.9812  -15.8714   22.0511 C   0  0  0  0  0  0  0  0  0  0  0  0
   11.8711  -15.6138   22.6349 O   0  0  0  0  0  0  0  0  0  0  0  0
   13.8647  -16.6646   22.7404 O   0  0  0  0  0  0  0  0  0  0  0  0
  2  3  1  0
  2  1  1  0
  3 10  1  0
  4  3  2  0
  6  8  1  0
  6  5  1  0
  7  6  2  0
  9  8  1  1
 10  9  1  0
 11  9  1  0
 12 11  2  0
 13 11  1  0
 14 15  1  1
 14 13  1  0
 15 16  1  0
 16 17  2  0
 18 17  1  0
 19 18  1  0
 20 19  2  0
 20 16  1  0
 21 14  1  0
 21 23  1  0
 22 21  2  0
M  END
$$$$
