FDQ.pdb
     RDKit          3D

 29 29  0  0  1  0  0  0  0  0999 V2000
    6.5802  -16.3160   25.2199 N   0  0  0  0  0  0  0  0  0  0  0  0
    7.5089  -15.6825   24.3349 C   0  0  1  0  0  0  0  0  0  0  0  0
    8.2436  -14.5858   25.0451 C   0  0  0  0  0  0  0  0  0  0  0  0
    7.3278  -13.5448   25.5551 C   0  0  0  0  0  0  0  0  0  0  0  0
    5.9724  -13.6765   25.4105 C   0  0  0  0  0  0  0  0  0  0  0  0
    5.0581  -12.7300   25.8526 C   0  0  0  0  0  0  0  0  0  0  0  0
    5.5396  -11.5966   26.4700 C   0  0  0  0  0  0  0  0  0  0  0  0
    6.9066  -11.4325   26.6328 C   0  0  0  0  0  0  0  0  0  0  0  0
    7.7956  -12.3930   26.1826 C   0  0  0  0  0  0  0  0  0  0  0  0
    8.4089  -16.6498   23.6604 C   0  0  0  0  0  0  0  0  0  0  0  0
    8.4910  -17.8320   24.1335 O   0  0  0  0  0  0  0  0  0  0  0  0
    9.1947  -16.3757   22.5264 N   0  0  0  0  0  0  0  0  0  0  0  0
   10.5353  -16.8307   22.4336 C   0  0  1  0  0  0  0  0  0  0  0  0
   11.3907  -15.7996   21.7373 C   0  0  0  0  0  0  0  0  0  0  0  0
   12.5634  -16.5231   21.1693 C   0  0  0  0  0  0  0  0  0  0  0  0
   12.4494  -17.6832   20.6708 O   0  0  0  0  0  0  0  0  0  0  0  0
   11.1153  -17.2774   23.7064 C   0  0  0  0  0  0  0  0  0  0  0  0
   12.2520  -17.7806   23.7245 O   0  0  0  0  0  0  0  0  0  0  0  0
   13.8036  -15.9261   21.1835 O   0  0  0  0  0  0  0  0  0  0  0  0
   10.9338  -14.9291   30.6329 N   0  0  0  0  0  0  0  0  0  0  0  0
   10.8136  -14.9737   29.2174 C   0  0  0  0  0  0  0  0  0  0  0  0
   10.5587  -13.8872   28.6083 O   0  0  0  0  0  0  0  0  0  0  0  0
   10.9878  -16.2686   28.5334 C   0  0  0  0  0  0  0  0  0  0  0  0
   10.2744  -16.3130   27.1997 C   0  0  0  0  0  0  0  0  0  0  0  0
   11.1448  -16.9987   26.1522 C   0  0  2  0  0  0  0  0  0  0  0  0
   10.3877  -17.1347   24.9059 N   0  0  0  0  0  0  0  0  0  0  0  0
   11.4119  -18.3658   26.6563 C   0  0  0  0  0  0  0  0  0  0  0  0
   11.0350  -19.4739   25.9040 O   0  0  0  0  0  0  0  0  0  0  0  0
   11.9767  -18.5562   27.7628 O   0  0  0  0  0  0  0  0  0  0  0  0
  2  1  1  1
  2  3  1  0
  2 10  1  0
  3  4  1  0
  4  5  2  0
  5  6  1  0
  7  6  2  0
  8  7  1  0
  9  8  2  0
  9  4  1  0
 10 11  2  0
 12 10  1  0
 12 13  1  0
 13 14  1  1
 14 15  1  0
 15 19  1  0
 16 15  2  0
 17 13  1  0
 17 18  2  0
 21 20  1  0
 21 22  2  0
 23 21  1  0
 24 23  1  0
 25 24  1  1
 25 26  1  0
 26 17  1  0
 27 28  1  0
 27 25  1  0
 29 27  2  0
M  END
$$$$
