FDQ.pdb
     RDKit          3D

 29 29  0  0  1  0  0  0  0  0999 V2000
    6.2306  -16.6448   25.0855 N   0  0  0  0  0  0  0  0  0  0  0  0
    7.3523  -15.8812   24.6318 C   0  0  1  0  0  0  0  0  0  0  0  0
    7.9391  -15.0912   25.7625 C   0  0  0  0  0  0  0  0  0  0  0  0
    7.2038  -13.8319   25.9992 C   0  0  0  0  0  0  0  0  0  0  0  0
    7.6596  -12.6497   25.4795 C   0  0  0  0  0  0  0  0  0  0  0  0
    7.0259  -11.4303   25.6761 C   0  0  0  0  0  0  0  0  0  0  0  0
    5.8765  -11.4073   26.4352 C   0  0  0  0  0  0  0  0  0  0  0  0
    5.3879  -12.5869   26.9755 C   0  0  0  0  0  0  0  0  0  0  0  0
    6.0400  -13.7890   26.7628 C   0  0  0  0  0  0  0  0  0  0  0  0
    8.3531  -16.7057   23.9114 C   0  0  0  0  0  0  0  0  0  0  0  0
    8.5909  -17.8831   24.3422 O   0  0  0  0  0  0  0  0  0  0  0  0
    9.0772  -16.2988   22.7762 N   0  0  0  0  0  0  0  0  0  0  0  0
   10.3943  -16.7688   22.5370 C   0  0  1  0  0  0  0  0  0  0  0  0
   11.1191  -15.8375   21.5951 C   0  0  0  0  0  0  0  0  0  0  0  0
   11.9358  -16.6912   20.6866 C   0  0  0  0  0  0  0  0  0  0  0  0
   12.6546  -17.6358   21.1320 O   0  0  0  0  0  0  0  0  0  0  0  0
   11.1677  -17.0555   23.7518 C   0  0  0  0  0  0  0  0  0  0  0  0
   11.2722  -16.1885   24.6366 O   0  0  0  0  0  0  0  0  0  0  0  0
   11.9168  -16.4546   19.3308 O   0  0  0  0  0  0  0  0  0  0  0  0
    9.4378  -19.1268   28.7673 N   0  0  0  0  0  0  0  0  0  0  0  0
   10.8096  -19.0714   28.3993 C   0  0  0  0  0  0  0  0  0  0  0  0
   11.5668  -18.2812   29.0464 O   0  0  0  0  0  0  0  0  0  0  0  0
   11.2800  -19.9257   27.2930 C   0  0  0  0  0  0  0  0  0  0  0  0
   10.9148  -19.3611   25.9375 C   0  0  0  0  0  0  0  0  0  0  0  0
   12.1349  -18.7280   25.2775 C   0  0  2  0  0  0  0  0  0  0  0  0
   11.7887  -18.3107   23.9169 N   0  0  0  0  0  0  0  0  0  0  0  0
   13.1543  -19.7966   25.1642 C   0  0  0  0  0  0  0  0  0  0  0  0
   13.9416  -20.1304   26.2618 O   0  0  0  0  0  0  0  0  0  0  0  0
   13.3323  -20.4192   24.0870 O   0  0  0  0  0  0  0  0  0  0  0  0
  2  1  1  1
  2  3  1  0
  2 10  1  0
  3  4  1  0
  4  5  2  0
  5  6  1  0
  7  6  2  0
  8  7  1  0
  9  8  2  0
  9  4  1  0
 10 11  2  0
 12 10  1  0
 12 13  1  0
 13 14  1  1
 14 15  1  0
 15 19  1  0
 16 15  2  0
 17 13  1  0
 17 18  2  0
 21 20  1  0
 21 22  2  0
 23 21  1  0
 24 23  1  0
 25 24  1  6
 25 26  1  0
 26 17  1  0
 27 28  1  0
 27 25  1  0
 29 27  2  0
M  END
$$$$
