FDQ.pdb
     RDKit          3D

 29 29  0  0  1  0  0  0  0  0999 V2000
    5.6996  -15.9806   23.7435 N   0  0  0  0  0  0  0  0  0  0  0  0
    6.8317  -15.3954   23.0932 C   0  0  1  0  0  0  0  0  0  0  0  0
    6.8446  -13.9108   23.3005 C   0  0  0  0  0  0  0  0  0  0  0  0
    6.9217  -13.5515   24.7313 C   0  0  0  0  0  0  0  0  0  0  0  0
    5.7818  -13.3294   25.4572 C   0  0  0  0  0  0  0  0  0  0  0  0
    5.7839  -12.9745   26.7993 C   0  0  0  0  0  0  0  0  0  0  0  0
    6.9978  -12.8377   27.4360 C   0  0  0  0  0  0  0  0  0  0  0  0
    8.1709  -13.0560   26.7301 C   0  0  0  0  0  0  0  0  0  0  0  0
    8.1392  -13.4096   25.3923 C   0  0  0  0  0  0  0  0  0  0  0  0
    8.1092  -16.0505   23.4668 C   0  0  0  0  0  0  0  0  0  0  0  0
    8.0767  -16.9984   24.3204 O   0  0  0  0  0  0  0  0  0  0  0  0
    9.3759  -15.7140   22.9561 N   0  0  0  0  0  0  0  0  0  0  0  0
   10.5287  -16.4688   23.2937 C   0  0  1  0  0  0  0  0  0  0  0  0
   11.6944  -16.0603   22.4253 C   0  0  0  0  0  0  0  0  0  0  0  0
   12.8072  -17.0061   22.7225 C   0  0  0  0  0  0  0  0  0  0  0  0
   13.7663  -16.6830   23.4862 O   0  0  0  0  0  0  0  0  0  0  0  0
   10.8622  -16.4630   24.7236 C   0  0  0  0  0  0  0  0  0  0  0  0
   11.2832  -15.4212   25.2556 O   0  0  0  0  0  0  0  0  0  0  0  0
   12.8029  -18.2612   22.1577 O   0  0  0  0  0  0  0  0  0  0  0  0
    7.1232  -20.6892   27.3730 N   0  0  0  0  0  0  0  0  0  0  0  0
    7.8948  -19.6076   27.8780 C   0  0  0  0  0  0  0  0  0  0  0  0
    7.5205  -19.0683   28.9668 O   0  0  0  0  0  0  0  0  0  0  0  0
    9.0799  -19.1690   27.1178 C   0  0  0  0  0  0  0  0  0  0  0  0
    9.7042  -17.9195   27.6999 C   0  0  0  0  0  0  0  0  0  0  0  0
   10.9675  -17.5472   26.9314 C   0  0  2  0  0  0  0  0  0  0  0  0
   10.7038  -17.6340   25.4933 N   0  0  0  0  0  0  0  0  0  0  0  0
   11.9780  -18.5803   27.2567 C   0  0  0  0  0  0  0  0  0  0  0  0
   12.5040  -18.6629   28.5421 O   0  0  0  0  0  0  0  0  0  0  0  0
   12.3815  -19.3963   26.3900 O   0  0  0  0  0  0  0  0  0  0  0  0
  2  1  1  1
  2  3  1  0
  2 10  1  0
  3  4  1  0
  4  5  2  0
  5  6  1  0
  7  6  2  0
  8  7  1  0
  9  8  2  0
  9  4  1  0
 10 11  2  0
 12 10  1  0
 12 13  1  0
 13 14  1  6
 14 15  1  0
 15 19  1  0
 16 15  2  0
 17 13  1  0
 17 18  2  0
 21 20  1  0
 21 22  2  0
 23 21  1  0
 24 23  1  0
 25 24  1  1
 25 26  1  0
 26 17  1  0
 27 28  1  0
 27 25  1  0
 29 27  2  0
M  END
$$$$
