FDQ.pdb
     RDKit          3D

 29 29  0  0  1  0  0  0  0  0999 V2000
    6.1712  -18.1650   20.0101 N   0  0  0  0  0  0  0  0  0  0  0  0
    6.8995  -16.9703   20.3087 C   0  0  1  0  0  0  0  0  0  0  0  0
    5.9895  -15.9370   20.9013 C   0  0  0  0  0  0  0  0  0  0  0  0
    6.6998  -14.6753   21.1945 C   0  0  0  0  0  0  0  0  0  0  0  0
    6.9538  -14.3019   22.4874 C   0  0  0  0  0  0  0  0  0  0  0  0
    7.6023  -13.1240   22.8324 C   0  0  0  0  0  0  0  0  0  0  0  0
    8.0125  -12.2845   21.8200 C   0  0  0  0  0  0  0  0  0  0  0  0
    7.7714  -12.6331   20.5000 C   0  0  0  0  0  0  0  0  0  0  0  0
    7.1229  -13.8146   20.1848 C   0  0  0  0  0  0  0  0  0  0  0  0
    8.1087  -17.2261   21.1290 C   0  0  0  0  0  0  0  0  0  0  0  0
    7.9879  -17.9406   22.1794 O   0  0  0  0  0  0  0  0  0  0  0  0
    9.3995  -16.7425   20.8486 N   0  0  0  0  0  0  0  0  0  0  0  0
   10.4867  -16.9988   21.7233 C   0  0  1  0  0  0  0  0  0  0  0  0
   11.7817  -17.0458   20.9485 C   0  0  0  0  0  0  0  0  0  0  0  0
   12.8366  -17.5029   21.8970 C   0  0  0  0  0  0  0  0  0  0  0  0
   12.9390  -18.7194   22.2392 O   0  0  0  0  0  0  0  0  0  0  0  0
   10.5571  -16.1030   22.8846 C   0  0  0  0  0  0  0  0  0  0  0  0
   10.8529  -14.9062   22.7246 O   0  0  0  0  0  0  0  0  0  0  0  0
   13.7236  -16.5896   22.4200 O   0  0  0  0  0  0  0  0  0  0  0  0
    6.1480  -14.1541   25.7710 N   0  0  0  0  0  0  0  0  0  0  0  0
    7.2213  -13.4157   26.3391 C   0  0  0  0  0  0  0  0  0  0  0  0
    6.9622  -12.2700   26.8257 O   0  0  0  0  0  0  0  0  0  0  0  0
    8.5705  -14.0113   26.3335 C   0  0  0  0  0  0  0  0  0  0  0  0
    8.7271  -15.0658   25.2596 C   0  0  0  0  0  0  0  0  0  0  0  0
   10.1459  -15.6245   25.2642 C   0  0  2  0  0  0  0  0  0  0  0  0
   10.2880  -16.5965   24.1779 N   0  0  0  0  0  0  0  0  0  0  0  0
   10.3036  -16.3626   26.5387 C   0  0  0  0  0  0  0  0  0  0  0  0
   10.5513  -17.7317   26.5272 O   0  0  0  0  0  0  0  0  0  0  0  0
   10.2167  -15.7782   27.6481 O   0  0  0  0  0  0  0  0  0  0  0  0
  2  1  1  1
  2  3  1  0
  2 10  1  0
  3  4  1  0
  4  5  2  0
  5  6  1  0
  7  6  2  0
  8  7  1  0
  9  8  2  0
  9  4  1  0
 10 11  2  0
 12 10  1  0
 12 13  1  0
 13 14  1  6
 14 15  1  0
 15 19  1  0
 16 15  2  0
 17 13  1  0
 17 18  2  0
 21 20  1  0
 21 22  2  0
 23 21  1  0
 24 23  1  0
 25 24  1  1
 25 26  1  0
 26 17  1  0
 27 28  1  0
 27 25  1  0
 29 27  2  0
M  END
$$$$
