FDQ.pdb
     RDKit          3D

 29 29  0  0  1  0  0  0  0  0999 V2000
    6.2404  -16.8092   25.0458 N   0  0  0  0  0  0  0  0  0  0  0  0
    6.9109  -16.3140   23.8830 C   0  0  1  0  0  0  0  0  0  0  0  0
    6.6504  -14.8475   23.7135 C   0  0  0  0  0  0  0  0  0  0  0  0
    7.0188  -14.0762   24.9184 C   0  0  0  0  0  0  0  0  0  0  0  0
    8.2812  -13.5646   25.0602 C   0  0  0  0  0  0  0  0  0  0  0  0
    8.6968  -12.8446   26.1720 C   0  0  0  0  0  0  0  0  0  0  0  0
    7.7911  -12.6331   27.1881 C   0  0  0  0  0  0  0  0  0  0  0  0
    6.5044  -13.1371   27.0758 C   0  0  0  0  0  0  0  0  0  0  0  0
    6.1169  -13.8512   25.9554 C   0  0  0  0  0  0  0  0  0  0  0  0
    8.3534  -16.6592   23.8626 C   0  0  0  0  0  0  0  0  0  0  0  0
    8.8040  -17.4321   24.7725 O   0  0  0  0  0  0  0  0  0  0  0  0
    9.2861  -16.2023   22.9139 N   0  0  0  0  0  0  0  0  0  0  0  0
   10.6450  -16.6070   22.9651 C   0  0  1  0  0  0  0  0  0  0  0  0
   11.4043  -16.0400   21.7896 C   0  0  0  0  0  0  0  0  0  0  0  0
   10.9806  -16.8129   20.5878 C   0  0  0  0  0  0  0  0  0  0  0  0
   10.8455  -18.0731   20.6232 O   0  0  0  0  0  0  0  0  0  0  0  0
   11.3106  -16.3418   24.2466 C   0  0  0  0  0  0  0  0  0  0  0  0
   11.3650  -15.1800   24.6859 O   0  0  0  0  0  0  0  0  0  0  0  0
   10.7298  -16.1518   19.4069 O   0  0  0  0  0  0  0  0  0  0  0  0
   10.6933  -15.1483   30.2474 N   0  0  0  0  0  0  0  0  0  0  0  0
   10.8999  -16.4453   29.7040 C   0  0  0  0  0  0  0  0  0  0  0  0
   10.1696  -17.3929   30.1343 O   0  0  0  0  0  0  0  0  0  0  0  0
   11.9439  -16.6240   28.6778 C   0  0  0  0  0  0  0  0  0  0  0  0
   11.3620  -16.9347   27.3160 C   0  0  0  0  0  0  0  0  0  0  0  0
   12.4738  -17.0886   26.2838 C   0  0  2  0  0  0  0  0  0  0  0  0
   11.8850  -17.4008   24.9796 N   0  0  0  0  0  0  0  0  0  0  0  0
   13.2735  -18.2645   26.6986 C   0  0  0  0  0  0  0  0  0  0  0  0
   14.1395  -18.1729   27.7837 O   0  0  0  0  0  0  0  0  0  0  0  0
   13.1919  -19.3595   26.0871 O   0  0  0  0  0  0  0  0  0  0  0  0
  2  1  1  1
  2  3  1  0
  2 10  1  0
  3  4  1  0
  4  5  2  0
  5  6  1  0
  7  6  2  0
  8  7  1  0
  9  8  2  0
  9  4  1  0
 10 11  2  0
 12 10  1  0
 12 13  1  0
 13 14  1  6
 14 15  1  0
 15 19  1  0
 16 15  2  0
 17 13  1  0
 17 18  2  0
 21 20  1  0
 21 22  2  0
 23 21  1  0
 24 23  1  0
 25 24  1  1
 25 26  1  0
 26 17  1  0
 27 28  1  0
 27 25  1  0
 29 27  2  0
M  END
$$$$
