FDQ.pdb
     RDKit          3D

 29 29  0  0  1  0  0  0  0  0999 V2000
   10.0325  -16.0582   20.3930 N   0  0  0  0  0  0  0  0  0  0  0  0
    9.4348  -16.1257   21.6912 C   0  0  1  0  0  0  0  0  0  0  0  0
    7.9686  -15.8252   21.6084 C   0  0  0  0  0  0  0  0  0  0  0  0
    7.7053  -14.5211   20.9662 C   0  0  0  0  0  0  0  0  0  0  0  0
    8.0510  -13.3529   21.5920 C   0  0  0  0  0  0  0  0  0  0  0  0
    7.8187  -12.0954   21.0518 C   0  0  0  0  0  0  0  0  0  0  0  0
    7.2072  -12.0175   19.8198 C   0  0  0  0  0  0  0  0  0  0  0  0
    6.8449  -13.1813   19.1591 C   0  0  0  0  0  0  0  0  0  0  0  0
    7.0892  -14.4222   19.7213 C   0  0  0  0  0  0  0  0  0  0  0  0
    9.7338  -17.3971   22.3944 C   0  0  0  0  0  0  0  0  0  0  0  0
    9.0301  -17.7057   23.4132 O   0  0  0  0  0  0  0  0  0  0  0  0
   10.7420  -18.3091   22.0332 N   0  0  0  0  0  0  0  0  0  0  0  0
   11.1472  -19.3441   22.9149 C   0  0  1  0  0  0  0  0  0  0  0  0
   12.3788  -20.0346   22.3802 C   0  0  0  0  0  0  0  0  0  0  0  0
   12.0302  -20.5542   21.0275 C   0  0  0  0  0  0  0  0  0  0  0  0
   12.7377  -20.2844   20.0105 O   0  0  0  0  0  0  0  0  0  0  0  0
   11.2984  -18.9264   24.3144 C   0  0  0  0  0  0  0  0  0  0  0  0
   12.0674  -17.9925   24.6008 O   0  0  0  0  0  0  0  0  0  0  0  0
   10.9147  -21.3447   20.8687 O   0  0  0  0  0  0  0  0  0  0  0  0
    7.8347  -19.3259   29.0592 N   0  0  0  0  0  0  0  0  0  0  0  0
    7.3931  -19.5108   27.7210 C   0  0  0  0  0  0  0  0  0  0  0  0
    6.2775  -20.0927   27.5386 O   0  0  0  0  0  0  0  0  0  0  0  0
    8.2461  -19.0234   26.6211 C   0  0  0  0  0  0  0  0  0  0  0  0
    9.4925  -18.3299   27.1264 C   0  0  0  0  0  0  0  0  0  0  0  0
   10.7390  -19.1006   26.7056 C   0  0  2  0  0  0  0  0  0  0  0  0
   10.5724  -19.5798   25.3316 N   0  0  0  0  0  0  0  0  0  0  0  0
   10.8126  -20.2928   27.5816 C   0  0  0  0  0  0  0  0  0  0  0  0
   11.1453  -20.1530   28.9253 O   0  0  0  0  0  0  0  0  0  0  0  0
   10.5811  -21.4458   27.1379 O   0  0  0  0  0  0  0  0  0  0  0  0
  2  1  1  6
  2  3  1  0
  2 10  1  0
  3  4  1  0
  4  5  2  0
  5  6  1  0
  7  6  2  0
  8  7  1  0
  9  8  2  0
  9  4  1  0
 10 11  2  0
 12 10  1  0
 12 13  1  0
 13 14  1  6
 14 15  1  0
 15 19  1  0
 16 15  2  0
 17 13  1  0
 17 18  2  0
 21 20  1  0
 21 22  2  0
 23 21  1  0
 24 23  1  0
 25 24  1  1
 25 26  1  0
 26 17  1  0
 27 28  1  0
 27 25  1  0
 29 27  2  0
M  END
$$$$
