FDQ.pdb
     RDKit          3D

 29 29  0  0  1  0  0  0  0  0999 V2000
    6.0317  -18.1635   25.0130 N   0  0  0  0  0  0  0  0  0  0  0  0
    6.4283  -16.7906   24.9443 C   0  0  1  0  0  0  0  0  0  0  0  0
    6.5669  -16.2165   26.3221 C   0  0  0  0  0  0  0  0  0  0  0  0
    6.7036  -14.7457   26.2986 C   0  0  0  0  0  0  0  0  0  0  0  0
    5.5985  -13.9410   26.3804 C   0  0  0  0  0  0  0  0  0  0  0  0
    5.6552  -12.5543   26.3490 C   0  0  0  0  0  0  0  0  0  0  0  0
    6.8895  -11.9545   26.2287 C   0  0  0  0  0  0  0  0  0  0  0  0
    8.0286  -12.7403   26.1442 C   0  0  0  0  0  0  0  0  0  0  0  0
    7.9426  -14.1213   26.1786 C   0  0  0  0  0  0  0  0  0  0  0  0
    7.6294  -16.5826   24.0990 C   0  0  0  0  0  0  0  0  0  0  0  0
    8.6525  -17.3156   24.3098 O   0  0  0  0  0  0  0  0  0  0  0  0
    7.7444  -15.6324   23.0682 N   0  0  0  0  0  0  0  0  0  0  0  0
    8.8856  -15.5959   22.2262 C   0  0  1  0  0  0  0  0  0  0  0  0
    8.6373  -14.6852   21.0478 C   0  0  0  0  0  0  0  0  0  0  0  0
    8.1348  -15.5426   19.9371 C   0  0  0  0  0  0  0  0  0  0  0  0
    7.0341  -15.2992   19.3569 O   0  0  0  0  0  0  0  0  0  0  0  0
   10.1433  -15.2900   22.9194 C   0  0  0  0  0  0  0  0  0  0  0  0
   10.2910  -14.1869   23.4734 O   0  0  0  0  0  0  0  0  0  0  0  0
    8.8755  -16.6275   19.5262 O   0  0  0  0  0  0  0  0  0  0  0  0
   12.2600  -17.5883   28.7709 N   0  0  0  0  0  0  0  0  0  0  0  0
   11.6411  -16.7168   27.8342 C   0  0  0  0  0  0  0  0  0  0  0  0
   10.5193  -16.2073   28.1481 O   0  0  0  0  0  0  0  0  0  0  0  0
   12.3261  -16.4517   26.5553 C   0  0  0  0  0  0  0  0  0  0  0  0
   11.3842  -16.5295   25.3736 C   0  0  0  0  0  0  0  0  0  0  0  0
   12.1194  -16.1861   24.0826 C   0  0  2  0  0  0  0  0  0  0  0  0
   11.1808  -16.2443   22.9597 N   0  0  0  0  0  0  0  0  0  0  0  0
   13.1234  -17.2548   23.8729 C   0  0  0  0  0  0  0  0  0  0  0  0
   14.3092  -17.2520   24.6007 O   0  0  0  0  0  0  0  0  0  0  0  0
   12.9322  -18.1778   23.0414 O   0  0  0  0  0  0  0  0  0  0  0  0
  2  1  1  1
  2  3  1  0
  2 10  1  0
  3  4  1  0
  4  5  2  0
  5  6  1  0
  7  6  2  0
  8  7  1  0
  9  8  2  0
  9  4  1  0
 10 11  2  0
 12 10  1  0
 12 13  1  0
 13 14  1  6
 14 15  1  0
 15 19  1  0
 16 15  2  0
 17 13  1  0
 17 18  2  0
 21 20  1  0
 21 22  2  0
 23 21  1  0
 24 23  1  0
 25 24  1  1
 25 26  1  0
 26 17  1  0
 27 28  1  0
 27 25  1  0
 29 27  2  0
M  END
$$$$
