FDQ.pdb
     RDKit          3D

 29 29  0  0  1  0  0  0  0  0999 V2000
    6.3382  -17.0483   25.4809 N   0  0  0  0  0  0  0  0  0  0  0  0
    6.7308  -16.5717   24.1902 C   0  0  1  0  0  0  0  0  0  0  0  0
    6.3330  -15.1366   24.0193 C   0  0  0  0  0  0  0  0  0  0  0  0
    6.8798  -14.2784   25.0902 C   0  0  0  0  0  0  0  0  0  0  0  0
    8.1587  -13.7950   25.0121 C   0  0  0  0  0  0  0  0  0  0  0  0
    8.7383  -12.9971   25.9891 C   0  0  0  0  0  0  0  0  0  0  0  0
    7.9871  -12.6739   27.0977 C   0  0  0  0  0  0  0  0  0  0  0  0
    6.6884  -13.1466   27.2076 C   0  0  0  0  0  0  0  0  0  0  0  0
    6.1355  -13.9402   26.2176 C   0  0  0  0  0  0  0  0  0  0  0  0
    8.1636  -16.8215   23.8985 C   0  0  0  0  0  0  0  0  0  0  0  0
    8.8883  -17.3323   24.8162 O   0  0  0  0  0  0  0  0  0  0  0  0
    8.8069  -16.5400   22.6797 N   0  0  0  0  0  0  0  0  0  0  0  0
   10.1957  -16.7750   22.5101 C   0  0  1  0  0  0  0  0  0  0  0  0
   10.6142  -16.4419   21.0981 C   0  0  0  0  0  0  0  0  0  0  0  0
   11.7374  -17.3584   20.7525 C   0  0  0  0  0  0  0  0  0  0  0  0
   12.3948  -17.9693   21.6481 O   0  0  0  0  0  0  0  0  0  0  0  0
   11.0488  -16.1314   23.5172 C   0  0  0  0  0  0  0  0  0  0  0  0
   11.4822  -14.9835   23.3173 O   0  0  0  0  0  0  0  0  0  0  0  0
   12.0774  -17.5508   19.4327 O   0  0  0  0  0  0  0  0  0  0  0  0
   10.3805  -14.0235   29.2640 N   0  0  0  0  0  0  0  0  0  0  0  0
   10.5380  -15.4229   29.0720 C   0  0  0  0  0  0  0  0  0  0  0  0
    9.7972  -16.2027   29.7501 O   0  0  0  0  0  0  0  0  0  0  0  0
   11.5461  -15.8949   28.1046 C   0  0  0  0  0  0  0  0  0  0  0  0
   11.2658  -15.4063   26.7002 C   0  0  0  0  0  0  0  0  0  0  0  0
   12.1848  -16.1006   25.7010 C   0  0  2  0  0  0  0  0  0  0  0  0
   11.3745  -16.8110   24.7091 N   0  0  0  0  0  0  0  0  0  0  0  0
   12.9415  -17.1207   26.4633 C   0  0  0  0  0  0  0  0  0  0  0  0
   12.6828  -18.4737   26.2673 O   0  0  0  0  0  0  0  0  0  0  0  0
   13.8234  -16.7934   27.2969 O   0  0  0  0  0  0  0  0  0  0  0  0
  2  1  1  1
  2  3  1  0
  2 10  1  0
  3  4  1  0
  4  5  2  0
  5  6  1  0
  7  6  2  0
  8  7  1  0
  9  8  2  0
  9  4  1  0
 10 11  2  0
 12 10  1  0
 12 13  1  0
 13 14  1  6
 14 15  1  0
 15 19  1  0
 16 15  2  0
 17 13  1  0
 17 18  2  0
 21 20  1  0
 21 22  2  0
 23 21  1  0
 24 23  1  0
 25 24  1  1
 25 26  1  0
 26 17  1  0
 27 28  1  0
 27 25  1  0
 29 27  2  0
M  END
$$$$
