FDQ.pdb
     RDKit          3D

 29 29  0  0  1  0  0  0  0  0999 V2000
    6.0987  -16.6602   25.2683 N   0  0  0  0  0  0  0  0  0  0  0  0
    7.1371  -15.8389   24.7259 C   0  0  1  0  0  0  0  0  0  0  0  0
    7.7014  -14.9412   25.7855 C   0  0  0  0  0  0  0  0  0  0  0  0
    7.0268  -13.6273   25.8160 C   0  0  0  0  0  0  0  0  0  0  0  0
    6.8793  -12.8922   24.6699 C   0  0  0  0  0  0  0  0  0  0  0  0
    6.2698  -11.6455   24.6313 C   0  0  0  0  0  0  0  0  0  0  0  0
    5.7871  -11.1186   25.8091 C   0  0  0  0  0  0  0  0  0  0  0  0
    5.9198  -11.8374   26.9872 C   0  0  0  0  0  0  0  0  0  0  0  0
    6.5317  -13.0789   26.9964 C   0  0  0  0  0  0  0  0  0  0  0  0
    8.1727  -16.6229   24.0093 C   0  0  0  0  0  0  0  0  0  0  0  0
    8.5334  -17.7431   24.5027 O   0  0  0  0  0  0  0  0  0  0  0  0
    8.8047  -16.2352   22.8140 N   0  0  0  0  0  0  0  0  0  0  0  0
   10.0589  -16.7796   22.4356 C   0  0  1  0  0  0  0  0  0  0  0  0
   10.5156  -16.1811   21.1268 C   0  0  0  0  0  0  0  0  0  0  0  0
   11.7564  -16.9051   20.7300 C   0  0  0  0  0  0  0  0  0  0  0  0
   11.8161  -18.1715   20.7354 O   0  0  0  0  0  0  0  0  0  0  0  0
   11.0912  -16.7104   23.4774 C   0  0  0  0  0  0  0  0  0  0  0  0
   11.6100  -15.6169   23.7614 O   0  0  0  0  0  0  0  0  0  0  0  0
   12.8692  -16.1902   20.3488 O   0  0  0  0  0  0  0  0  0  0  0  0
   11.3826  -18.6183   29.1467 N   0  0  0  0  0  0  0  0  0  0  0  0
   10.6970  -19.3056   28.1086 C   0  0  0  0  0  0  0  0  0  0  0  0
    9.7423  -20.0782   28.4372 O   0  0  0  0  0  0  0  0  0  0  0  0
   11.1262  -19.0898   26.7142 C   0  0  0  0  0  0  0  0  0  0  0  0
   11.9387  -17.8234   26.5539 C   0  0  0  0  0  0  0  0  0  0  0  0
   12.5526  -17.7569   25.1597 C   0  0  2  0  0  0  0  0  0  0  0  0
   11.4924  -17.8793   24.1566 N   0  0  0  0  0  0  0  0  0  0  0  0
   13.4244  -18.9469   25.0263 C   0  0  0  0  0  0  0  0  0  0  0  0
   13.0853  -19.9658   24.1416 O   0  0  0  0  0  0  0  0  0  0  0  0
   14.4777  -19.0652   25.7019 O   0  0  0  0  0  0  0  0  0  0  0  0
  2  1  1  1
  2  3  1  0
  2 10  1  0
  3  4  1  0
  4  5  2  0
  5  6  1  0
  7  6  2  0
  8  7  1  0
  9  8  2  0
  9  4  1  0
 10 11  2  0
 12 10  1  0
 12 13  1  0
 13 14  1  6
 14 15  1  0
 15 19  1  0
 16 15  2  0
 17 13  1  0
 17 18  2  0
 21 20  1  0
 21 22  2  0
 23 21  1  0
 24 23  1  0
 25 24  1  1
 25 26  1  0
 26 17  1  0
 27 28  1  0
 27 25  1  0
 29 27  2  0
M  END
$$$$
