FDQ.pdb
     RDKit          3D

 29 29  0  0  1  0  0  0  0  0999 V2000
    6.0775  -17.3873   22.2620 N   0  0  0  0  0  0  0  0  0  0  0  0
    6.7949  -16.3842   22.9874 C   0  0  1  0  0  0  0  0  0  0  0  0
    6.0538  -16.0103   24.2355 C   0  0  0  0  0  0  0  0  0  0  0  0
    6.7260  -14.9219   24.9744 C   0  0  0  0  0  0  0  0  0  0  0  0
    7.0660  -13.7558   24.3421 C   0  0  0  0  0  0  0  0  0  0  0  0
    7.7116  -12.7010   24.9728 C   0  0  0  0  0  0  0  0  0  0  0  0
    8.0279  -12.8340   26.3070 C   0  0  0  0  0  0  0  0  0  0  0  0
    7.6972  -14.0017   26.9772 C   0  0  0  0  0  0  0  0  0  0  0  0
    7.0529  -15.0375   26.3232 C   0  0  0  0  0  0  0  0  0  0  0  0
    8.2092  -16.7573   23.2349 C   0  0  0  0  0  0  0  0  0  0  0  0
    8.4474  -17.7956   23.9374 O   0  0  0  0  0  0  0  0  0  0  0  0
    9.3312  -16.0564   22.7571 N   0  0  0  0  0  0  0  0  0  0  0  0
   10.6490  -16.4686   23.0832 C   0  0  1  0  0  0  0  0  0  0  0  0
   11.6382  -15.8801   22.1059 C   0  0  0  0  0  0  0  0  0  0  0  0
   12.9137  -16.6318   22.2764 C   0  0  0  0  0  0  0  0  0  0  0  0
   14.0236  -16.0336   22.4102 O   0  0  0  0  0  0  0  0  0  0  0  0
   11.0310  -16.2342   24.4814 C   0  0  0  0  0  0  0  0  0  0  0  0
   11.3287  -15.0869   24.8566 O   0  0  0  0  0  0  0  0  0  0  0  0
   12.8963  -18.0081   22.2884 O   0  0  0  0  0  0  0  0  0  0  0  0
    9.8192  -13.4411   29.5340 N   0  0  0  0  0  0  0  0  0  0  0  0
   10.0083  -14.8113   29.2069 C   0  0  0  0  0  0  0  0  0  0  0  0
   10.1150  -15.6413   30.1642 O   0  0  0  0  0  0  0  0  0  0  0  0
   10.0720  -15.1966   27.7848 C   0  0  0  0  0  0  0  0  0  0  0  0
   10.2118  -16.6921   27.6017 C   0  0  0  0  0  0  0  0  0  0  0  0
   11.4538  -17.0143   26.7778 C   0  0  2  0  0  0  0  0  0  0  0  0
   11.0584  -17.3056   25.3980 N   0  0  0  0  0  0  0  0  0  0  0  0
   12.0236  -18.2587   27.3444 C   0  0  0  0  0  0  0  0  0  0  0  0
   12.6349  -18.2415   28.5941 O   0  0  0  0  0  0  0  0  0  0  0  0
   11.9712  -19.3468   26.7173 O   0  0  0  0  0  0  0  0  0  0  0  0
  2  1  1  1
  2  3  1  0
  2 10  1  0
  3  4  1  0
  4  5  2  0
  5  6  1  0
  7  6  2  0
  8  7  1  0
  9  8  2  0
  9  4  1  0
 10 11  2  0
 12 10  1  0
 12 13  1  0
 13 14  1  6
 14 15  1  0
 15 19  1  0
 16 15  2  0
 17 13  1  0
 17 18  2  0
 21 20  1  0
 21 22  2  0
 23 21  1  0
 24 23  1  0
 25 24  1  1
 25 26  1  0
 26 17  1  0
 27 28  1  0
 27 25  1  0
 29 27  2  0
M  END
$$$$
