FDQ.pdb
     RDKit          3D

 29 29  0  0  1  0  0  0  0  0999 V2000
    7.7299  -14.5223   20.4969 N   0  0  0  0  0  0  0  0  0  0  0  0
    8.0188  -14.2944   21.8795 C   0  0  1  0  0  0  0  0  0  0  0  0
    6.8801  -13.5782   22.5408 C   0  0  0  0  0  0  0  0  0  0  0  0
    7.1415  -13.3240   23.9724 C   0  0  0  0  0  0  0  0  0  0  0  0
    6.6840  -14.1901   24.9296 C   0  0  0  0  0  0  0  0  0  0  0  0
    6.8816  -14.0031   26.2909 C   0  0  0  0  0  0  0  0  0  0  0  0
    7.5751  -12.8860   26.7020 C   0  0  0  0  0  0  0  0  0  0  0  0
    8.0524  -11.9894   25.7584 C   0  0  0  0  0  0  0  0  0  0  0  0
    7.8413  -12.2012   24.4071 C   0  0  0  0  0  0  0  0  0  0  0  0
    8.4263  -15.5305   22.5912 C   0  0  0  0  0  0  0  0  0  0  0  0
    8.3018  -16.6469   21.9858 O   0  0  0  0  0  0  0  0  0  0  0  0
    8.9460  -15.5837   23.8972 N   0  0  0  0  0  0  0  0  0  0  0  0
   10.0903  -16.3652   24.2017 C   0  0  1  0  0  0  0  0  0  0  0  0
   11.2771  -15.8902   23.3983 C   0  0  0  0  0  0  0  0  0  0  0  0
   11.9010  -17.1004   22.7921 C   0  0  0  0  0  0  0  0  0  0  0  0
   11.2138  -18.1243   22.4976 O   0  0  0  0  0  0  0  0  0  0  0  0
   10.3879  -16.4749   25.6354 C   0  0  0  0  0  0  0  0  0  0  0  0
   10.7107  -15.4612   26.2787 O   0  0  0  0  0  0  0  0  0  0  0  0
   13.2549  -17.1164   22.5442 O   0  0  0  0  0  0  0  0  0  0  0  0
    6.2337  -20.3731   25.5036 N   0  0  0  0  0  0  0  0  0  0  0  0
    7.0334  -20.0859   26.6430 C   0  0  0  0  0  0  0  0  0  0  0  0
    6.8024  -20.7371   27.7103 O   0  0  0  0  0  0  0  0  0  0  0  0
    8.0809  -19.0541   26.5298 C   0  0  0  0  0  0  0  0  0  0  0  0
    8.7705  -18.7899   27.8505 C   0  0  0  0  0  0  0  0  0  0  0  0
    9.8663  -17.7435   27.6797 C   0  0  2  0  0  0  0  0  0  0  0  0
   10.3060  -17.7250   26.2827 N   0  0  0  0  0  0  0  0  0  0  0  0
   11.0148  -18.1994   28.4966 C   0  0  0  0  0  0  0  0  0  0  0  0
   10.9541  -18.1347   29.8851 O   0  0  0  0  0  0  0  0  0  0  0  0
   12.0601  -18.6486   27.9623 O   0  0  0  0  0  0  0  0  0  0  0  0
  2  1  1  6
  2  3  1  0
  2 10  1  0
  3  4  1  0
  4  5  2  0
  5  6  1  0
  7  6  2  0
  8  7  1  0
  9  8  2  0
  9  4  1  0
 10 11  2  0
 12 10  1  0
 12 13  1  0
 13 14  1  6
 14 15  1  0
 15 19  1  0
 16 15  2  0
 17 13  1  0
 17 18  2  0
 21 20  1  0
 21 22  2  0
 23 21  1  0
 24 23  1  0
 25 24  1  6
 25 26  1  0
 26 17  1  0
 27 28  1  0
 27 25  1  0
 29 27  2  0
M  END
$$$$
