FDQ.pdb
     RDKit          3D

 29 29  0  0  1  0  0  0  0  0999 V2000
    9.1959  -13.8506   23.5069 N   0  0  0  0  0  0  0  0  0  0  0  0
    8.8643  -15.0329   24.2413 C   0  0  1  0  0  0  0  0  0  0  0  0
    7.3899  -15.0885   24.5055 C   0  0  0  0  0  0  0  0  0  0  0  0
    6.9110  -13.8933   25.2298 C   0  0  0  0  0  0  0  0  0  0  0  0
    6.5500  -13.9747   26.5483 C   0  0  0  0  0  0  0  0  0  0  0  0
    6.0784  -12.8951   27.2827 C   0  0  0  0  0  0  0  0  0  0  0  0
    5.9669  -11.6757   26.6516 C   0  0  0  0  0  0  0  0  0  0  0  0
    6.3245  -11.5589   25.3172 C   0  0  0  0  0  0  0  0  0  0  0  0
    6.7924  -12.6522   24.6092 C   0  0  0  0  0  0  0  0  0  0  0  0
    9.3938  -16.2668   23.6106 C   0  0  0  0  0  0  0  0  0  0  0  0
    8.9383  -17.3917   24.0048 O   0  0  0  0  0  0  0  0  0  0  0  0
   10.3709  -16.3089   22.5996 N   0  0  0  0  0  0  0  0  0  0  0  0
   11.3919  -17.2939   22.6048 C   0  0  1  0  0  0  0  0  0  0  0  0
   12.2175  -17.1983   21.3443 C   0  0  0  0  0  0  0  0  0  0  0  0
   13.1559  -18.3561   21.3532 C   0  0  0  0  0  0  0  0  0  0  0  0
   14.4043  -18.1972   21.5074 O   0  0  0  0  0  0  0  0  0  0  0  0
   12.2173  -17.3079   23.8191 C   0  0  0  0  0  0  0  0  0  0  0  0
   12.4276  -16.2489   24.4354 O   0  0  0  0  0  0  0  0  0  0  0  0
   12.6648  -19.6314   21.1890 O   0  0  0  0  0  0  0  0  0  0  0  0
   10.7112  -18.9055   30.0927 N   0  0  0  0  0  0  0  0  0  0  0  0
   10.6784  -19.1532   28.6935 C   0  0  0  0  0  0  0  0  0  0  0  0
    9.5579  -19.4435   28.1677 O   0  0  0  0  0  0  0  0  0  0  0  0
   11.9369  -19.0631   27.9298 C   0  0  0  0  0  0  0  0  0  0  0  0
   11.6989  -18.7607   26.4664 C   0  0  0  0  0  0  0  0  0  0  0  0
   13.0256  -18.6411   25.7243 C   0  0  2  0  0  0  0  0  0  0  0  0
   12.7685  -18.5184   24.2877 N   0  0  0  0  0  0  0  0  0  0  0  0
   13.7429  -19.9198   25.9354 C   0  0  0  0  0  0  0  0  0  0  0  0
   13.8917  -20.8192   24.8844 O   0  0  0  0  0  0  0  0  0  0  0  0
   14.2271  -20.2210   27.0555 O   0  0  0  0  0  0  0  0  0  0  0  0
  2  1  1  6
  2  3  1  0
  2 10  1  0
  3  4  1  0
  4  5  2  0
  5  6  1  0
  7  6  2  0
  8  7  1  0
  9  8  2  0
  9  4  1  0
 10 11  2  0
 12 10  1  0
 12 13  1  0
 13 14  1  6
 14 15  1  0
 15 19  1  0
 16 15  2  0
 17 13  1  0
 17 18  2  0
 21 20  1  0
 21 22  2  0
 23 21  1  0
 24 23  1  0
 25 24  1  1
 25 26  1  0
 26 17  1  0
 27 28  1  0
 27 25  1  0
 29 27  2  0
M  END
$$$$
