FDQ.pdb
     RDKit          3D

 29 29  0  0  1  0  0  0  0  0999 V2000
    7.2329  -16.6952   25.9671 N   0  0  0  0  0  0  0  0  0  0  0  0
    7.5410  -16.0273   24.7399 C   0  0  1  0  0  0  0  0  0  0  0  0
    8.3254  -14.7781   25.0066 C   0  0  0  0  0  0  0  0  0  0  0  0
    7.5413  -13.7829   25.7664 C   0  0  0  0  0  0  0  0  0  0  0  0
    8.0536  -13.2088   26.8994 C   0  0  0  0  0  0  0  0  0  0  0  0
    7.3650  -12.2796   27.6672 C   0  0  0  0  0  0  0  0  0  0  0  0
    6.0976  -11.9150   27.2688 C   0  0  0  0  0  0  0  0  0  0  0  0
    5.5497  -12.4771   26.1260 C   0  0  0  0  0  0  0  0  0  0  0  0
    6.2594  -13.4011   25.3789 C   0  0  0  0  0  0  0  0  0  0  0  0
    8.1835  -16.9219   23.7463 C   0  0  0  0  0  0  0  0  0  0  0  0
    8.6545  -18.0368   24.1506 O   0  0  0  0  0  0  0  0  0  0  0  0
    8.3237  -16.6464   22.3740 N   0  0  0  0  0  0  0  0  0  0  0  0
    9.1011  -17.4826   21.5320 C   0  0  1  0  0  0  0  0  0  0  0  0
    8.7394  -17.2493   20.0848 C   0  0  0  0  0  0  0  0  0  0  0  0
    9.4245  -18.3089   19.2917 C   0  0  0  0  0  0  0  0  0  0  0  0
    9.6714  -19.4509   19.7840 O   0  0  0  0  0  0  0  0  0  0  0  0
   10.5481  -17.4086   21.7700 C   0  0  0  0  0  0  0  0  0  0  0  0
   11.3149  -18.1713   21.1569 O   0  0  0  0  0  0  0  0  0  0  0  0
    9.8034  -18.0500   17.9940 O   0  0  0  0  0  0  0  0  0  0  0  0
   11.8139  -14.0472   20.3549 N   0  0  0  0  0  0  0  0  0  0  0  0
   13.0866  -14.6289   20.1061 C   0  0  0  0  0  0  0  0  0  0  0  0
   13.5047  -14.6521   18.9056 O   0  0  0  0  0  0  0  0  0  0  0  0
   13.8502  -15.1728   21.2445 C   0  0  0  0  0  0  0  0  0  0  0  0
   13.0763  -15.0970   22.5425 C   0  0  0  0  0  0  0  0  0  0  0  0
   12.5163  -16.4668   22.9100 C   0  0  2  0  0  0  0  0  0  0  0  0
   11.0685  -16.4742   22.6891 N   0  0  0  0  0  0  0  0  0  0  0  0
   12.7405  -16.6368   24.3644 C   0  0  0  0  0  0  0  0  0  0  0  0
   11.6569  -16.7372   25.2313 O   0  0  0  0  0  0  0  0  0  0  0  0
   13.9004  -16.6921   24.8453 O   0  0  0  0  0  0  0  0  0  0  0  0
  2  1  1  1
  2  3  1  0
  2 10  1  0
  3  4  1  0
  4  5  2  0
  5  6  1  0
  7  6  2  0
  8  7  1  0
  9  8  2  0
  9  4  1  0
 10 11  2  0
 12 10  1  0
 12 13  1  0
 13 14  1  6
 14 15  1  0
 15 19  1  0
 16 15  2  0
 17 13  1  0
 17 18  2  0
 21 20  1  0
 21 22  2  0
 23 21  1  0
 24 23  1  0
 25 24  1  1
 25 26  1  0
 26 17  1  0
 27 28  1  0
 27 25  1  0
 29 27  2  0
M  END
$$$$
