FDQ.pdb
     RDKit          3D

 29 29  0  0  1  0  0  0  0  0999 V2000
    5.8581  -16.7556   24.7063 N   0  0  0  0  0  0  0  0  0  0  0  0
    6.5979  -16.1160   23.6620 C   0  0  1  0  0  0  0  0  0  0  0  0
    6.3592  -14.6362   23.6825 C   0  0  0  0  0  0  0  0  0  0  0  0
    6.7643  -14.0271   24.9659 C   0  0  0  0  0  0  0  0  0  0  0  0
    7.8592  -13.2073   25.0342 C   0  0  0  0  0  0  0  0  0  0  0  0
    8.3024  -12.6155   26.2091 C   0  0  0  0  0  0  0  0  0  0  0  0
    7.6038  -12.8662   27.3697 C   0  0  0  0  0  0  0  0  0  0  0  0
    6.4902  -13.6913   27.3351 C   0  0  0  0  0  0  0  0  0  0  0  0
    6.0702  -14.2678   26.1490 C   0  0  0  0  0  0  0  0  0  0  0  0
    8.0364  -16.4779   23.6742 C   0  0  0  0  0  0  0  0  0  0  0  0
    8.4531  -17.2730   24.5811 O   0  0  0  0  0  0  0  0  0  0  0  0
    8.9998  -16.0144   22.7601 N   0  0  0  0  0  0  0  0  0  0  0  0
   10.3487  -16.4482   22.8307 C   0  0  1  0  0  0  0  0  0  0  0  0
   11.1786  -15.7496   21.7805 C   0  0  0  0  0  0  0  0  0  0  0  0
   12.3853  -16.5937   21.5510 C   0  0  0  0  0  0  0  0  0  0  0  0
   13.3656  -16.5822   22.3549 O   0  0  0  0  0  0  0  0  0  0  0  0
   10.9458  -16.3627   24.1694 C   0  0  0  0  0  0  0  0  0  0  0  0
   11.2126  -15.2507   24.6570 O   0  0  0  0  0  0  0  0  0  0  0  0
   12.4464  -17.4066   20.4419 O   0  0  0  0  0  0  0  0  0  0  0  0
    7.8208  -18.9974   28.1698 N   0  0  0  0  0  0  0  0  0  0  0  0
    9.2032  -18.8395   28.4601 C   0  0  0  0  0  0  0  0  0  0  0  0
    9.5511  -18.7843   29.6817 O   0  0  0  0  0  0  0  0  0  0  0  0
   10.1553  -18.7469   27.3377 C   0  0  0  0  0  0  0  0  0  0  0  0
   10.8904  -17.4245   27.3172 C   0  0  0  0  0  0  0  0  0  0  0  0
   11.9100  -17.3990   26.1836 C   0  0  2  0  0  0  0  0  0  0  0  0
   11.2143  -17.5372   24.9022 N   0  0  0  0  0  0  0  0  0  0  0  0
   12.7599  -18.6000   26.3548 C   0  0  0  0  0  0  0  0  0  0  0  0
   13.6432  -18.6839   27.4265 O   0  0  0  0  0  0  0  0  0  0  0  0
   12.7062  -19.5600   25.5453 O   0  0  0  0  0  0  0  0  0  0  0  0
  2  1  1  1
  2  3  1  0
  2 10  1  0
  3  4  1  0
  4  5  2  0
  5  6  1  0
  7  6  2  0
  8  7  1  0
  9  8  2  0
  9  4  1  0
 10 11  2  0
 12 10  1  0
 12 13  1  0
 13 14  1  6
 14 15  1  0
 15 19  1  0
 16 15  2  0
 17 13  1  0
 17 18  2  0
 21 20  1  0
 21 22  2  0
 23 21  1  0
 24 23  1  0
 25 24  1  1
 25 26  1  0
 26 17  1  0
 27 28  1  0
 27 25  1  0
 29 27  2  0
M  END
$$$$
