FDQ.pdb
     RDKit          3D

 29 29  0  0  1  0  0  0  0  0999 V2000
    6.4550  -16.4137   21.9657 N   0  0  0  0  0  0  0  0  0  0  0  0
    7.2074  -15.6420   22.9067 C   0  0  1  0  0  0  0  0  0  0  0  0
    6.3983  -15.3908   24.1433 C   0  0  0  0  0  0  0  0  0  0  0  0
    7.0685  -14.4482   25.0624 C   0  0  0  0  0  0  0  0  0  0  0  0
    8.0238  -14.8891   25.9391 C   0  0  0  0  0  0  0  0  0  0  0  0
    8.6806  -14.0604   26.8385 C   0  0  0  0  0  0  0  0  0  0  0  0
    8.3541  -12.7221   26.8507 C   0  0  0  0  0  0  0  0  0  0  0  0
    7.3914  -12.2431   25.9755 C   0  0  0  0  0  0  0  0  0  0  0  0
    6.7527  -13.0922   25.0886 C   0  0  0  0  0  0  0  0  0  0  0  0
    8.5425  -16.2243   23.1880 C   0  0  0  0  0  0  0  0  0  0  0  0
    8.5985  -17.3958   23.6908 O   0  0  0  0  0  0  0  0  0  0  0  0
    9.7743  -15.5893   22.9469 N   0  0  0  0  0  0  0  0  0  0  0  0
   11.0034  -16.2681   23.1503 C   0  0  1  0  0  0  0  0  0  0  0  0
   12.0730  -15.6939   22.2525 C   0  0  0  0  0  0  0  0  0  0  0  0
   13.1085  -16.7522   22.0824 C   0  0  0  0  0  0  0  0  0  0  0  0
   14.2734  -16.6244   22.5661 O   0  0  0  0  0  0  0  0  0  0  0  0
   11.4288  -16.3484   24.5533 C   0  0  0  0  0  0  0  0  0  0  0  0
   12.4058  -15.6850   24.9416 O   0  0  0  0  0  0  0  0  0  0  0  0
   12.8024  -17.8978   21.3835 O   0  0  0  0  0  0  0  0  0  0  0  0
   11.1964  -16.1643   30.1953 N   0  0  0  0  0  0  0  0  0  0  0  0
   10.4340  -15.3138   29.3493 C   0  0  0  0  0  0  0  0  0  0  0  0
   10.1859  -14.1360   29.7588 O   0  0  0  0  0  0  0  0  0  0  0  0
    9.9722  -15.8381   28.0505 C   0  0  0  0  0  0  0  0  0  0  0  0
   10.3276  -17.2968   27.8620 C   0  0  0  0  0  0  0  0  0  0  0  0
   11.3607  -17.4545   26.7517 C   0  0  2  0  0  0  0  0  0  0  0  0
   10.7309  -17.1732   25.4596 N   0  0  0  0  0  0  0  0  0  0  0  0
   11.7583  -18.8814   26.7461 C   0  0  0  0  0  0  0  0  0  0  0  0
   11.4460  -19.6896   25.6574 O   0  0  0  0  0  0  0  0  0  0  0  0
   12.3781  -19.3915   27.7134 O   0  0  0  0  0  0  0  0  0  0  0  0
  2  1  1  6
  2  3  1  0
  2 10  1  0
  3  4  1  0
  4  5  2  0
  5  6  1  0
  7  6  2  0
  8  7  1  0
  9  8  2  0
  9  4  1  0
 10 11  2  0
 12 10  1  0
 12 13  1  0
 13 14  1  6
 14 15  1  0
 15 19  1  0
 16 15  2  0
 17 13  1  0
 17 18  2  0
 21 20  1  0
 21 22  2  0
 23 21  1  0
 24 23  1  0
 25 24  1  1
 25 26  1  0
 26 17  1  0
 27 28  1  0
 27 25  1  0
 29 27  2  0
M  END
$$$$
