FDQ.pdb
     RDKit          3D

 29 29  0  0  1  0  0  0  0  0999 V2000
    5.9131  -17.0779   24.8632 N   0  0  0  0  0  0  0  0  0  0  0  0
    7.0711  -16.2417   24.7805 C   0  0  1  0  0  0  0  0  0  0  0  0
    7.2906  -15.5224   26.0772 C   0  0  0  0  0  0  0  0  0  0  0  0
    6.9091  -14.0977   25.9923 C   0  0  0  0  0  0  0  0  0  0  0  0
    7.6658  -13.2148   25.2689 C   0  0  0  0  0  0  0  0  0  0  0  0
    7.3724  -11.8623   25.1604 C   0  0  0  0  0  0  0  0  0  0  0  0
    6.2602  -11.3815   25.8158 C   0  0  0  0  0  0  0  0  0  0  0  0
    5.4722  -12.2489   26.5564 C   0  0  0  0  0  0  0  0  0  0  0  0
    5.7881  -13.5934   26.6469 C   0  0  0  0  0  0  0  0  0  0  0  0
    8.2718  -16.9710   24.3041 C   0  0  0  0  0  0  0  0  0  0  0  0
    8.4449  -18.1732   24.6953 O   0  0  0  0  0  0  0  0  0  0  0  0
    9.2547  -16.4468   23.4453 N   0  0  0  0  0  0  0  0  0  0  0  0
   10.5408  -17.0384   23.3521 C   0  0  1  0  0  0  0  0  0  0  0  0
   11.3113  -16.4370   22.2013 C   0  0  0  0  0  0  0  0  0  0  0  0
   10.4188  -16.4899   21.0089 C   0  0  0  0  0  0  0  0  0  0  0  0
   10.0918  -17.5916   20.4734 O   0  0  0  0  0  0  0  0  0  0  0  0
   11.3050  -17.0329   24.6059 C   0  0  0  0  0  0  0  0  0  0  0  0
   10.9687  -16.2738   25.5312 O   0  0  0  0  0  0  0  0  0  0  0  0
    9.9348  -15.3202   20.4685 O   0  0  0  0  0  0  0  0  0  0  0  0
    8.4179  -19.5355   28.2097 N   0  0  0  0  0  0  0  0  0  0  0  0
    9.8316  -19.5144   28.3552 C   0  0  0  0  0  0  0  0  0  0  0  0
   10.3529  -20.3010   29.2073 O   0  0  0  0  0  0  0  0  0  0  0  0
   10.6149  -18.5869   27.5178 C   0  0  0  0  0  0  0  0  0  0  0  0
   11.4623  -19.3134   26.4962 C   0  0  0  0  0  0  0  0  0  0  0  0
   12.6572  -18.4579   26.0896 C   0  0  2  0  0  0  0  0  0  0  0  0
   12.4161  -17.8871   24.7625 N   0  0  0  0  0  0  0  0  0  0  0  0
   13.8122  -19.3777   25.9699 C   0  0  0  0  0  0  0  0  0  0  0  0
   13.7131  -20.5259   25.1905 O   0  0  0  0  0  0  0  0  0  0  0  0
   14.8959  -19.1475   26.5635 O   0  0  0  0  0  0  0  0  0  0  0  0
  2  1  1  1
  2  3  1  0
  2 10  1  0
  3  4  1  0
  4  5  2  0
  5  6  1  0
  7  6  2  0
  8  7  1  0
  9  8  2  0
  9  4  1  0
 10 11  2  0
 12 10  1  0
 12 13  1  0
 13 14  1  6
 14 15  1  0
 15 19  1  0
 16 15  2  0
 17 13  1  0
 17 18  2  0
 21 20  1  0
 21 22  2  0
 23 21  1  0
 24 23  1  0
 25 24  1  6
 25 26  1  0
 26 17  1  0
 27 28  1  0
 27 25  1  0
 29 27  2  0
M  END
$$$$
