LGT.pdb
     RDKit          3D

 20 19  0  0  1  0  0  0  0  0999 V2000
    6.8361  -12.5988   18.6434 C   0  0  0  0  0  0  0  0  0  0  0  0
    8.0537  -13.3516   19.0752 C   0  0  1  0  0  0  0  0  0  0  0  0
    9.1160  -12.3385   19.4889 C   0  0  0  0  0  0  0  0  0  0  0  0
    7.8393  -14.2648   20.2392 C   0  0  0  0  0  0  0  0  0  0  0  0
    9.0578  -15.0523   20.6328 C   0  0  2  0  0  0  0  0  0  0  0  0
    9.4631  -15.8747   19.5231 N   0  0  0  0  0  0  0  0  0  0  0  0
    8.7027  -15.8549   21.8288 C   0  0  0  0  0  0  0  0  0  0  0  0
    8.8403  -17.1009   21.8214 O   0  0  0  0  0  0  0  0  0  0  0  0
    8.1929  -15.2280   23.0249 N   0  0  0  0  0  0  0  0  0  0  0  0
    8.1806  -16.0090   24.2101 C   0  0  0  0  0  0  0  0  0  0  0  0
    9.2788  -15.7809   25.1603 C   0  0  0  0  0  0  0  0  0  0  0  0
   10.4578  -15.6328   24.6731 O   0  0  0  0  0  0  0  0  0  0  0  0
    9.9957  -12.8633   27.5409 C   0  0  0  0  0  0  0  0  0  0  0  0
    9.9518  -14.1611   28.3356 C   0  0  1  0  0  0  0  0  0  0  0  0
    8.8005  -14.2344   29.1153 O   0  0  0  0  0  0  0  0  0  0  0  0
   10.1876  -15.3599   27.5005 C   0  0  2  0  0  0  0  0  0  0  0  0
    9.1705  -15.7068   26.5688 N   0  0  0  0  0  0  0  0  0  0  0  0
   10.7045  -16.4689   28.3416 C   0  0  0  0  0  0  0  0  0  0  0  0
   10.1060  -17.5701   28.2948 O   0  0  0  0  0  0  0  0  0  0  0  0
   11.7929  -16.3299   29.1560 O   0  0  0  0  0  0  0  0  0  0  0  0
  2  4  1  0
  2  1  1  1
  3  2  1  0
  4  5  1  0
  5  7  1  0
  5  6  1  6
  7  9  1  0
  8  7  2  0
  9 10  1  0
 10 11  1  0
 11 17  1  0
 11 12  2  0
 14 13  1  6
 14 16  1  0
 15 14  1  0
 16 18  1  0
 16 17  1  1
 18 19  2  0
 18 20  1  0
M  END
$$$$
