LGT.pdb
     RDKit          3D

 20 19  0  0  1  0  0  0  0  0999 V2000
    7.4603  -11.2462   26.5454 C   0  0  0  0  0  0  0  0  0  0  0  0
    6.9955  -12.6583   26.7056 C   0  0  1  0  0  0  0  0  0  0  0  0
    5.4705  -12.6610   26.6854 C   0  0  0  0  0  0  0  0  0  0  0  0
    7.4517  -13.5886   25.6281 C   0  0  0  0  0  0  0  0  0  0  0  0
    6.9109  -14.9854   25.7549 C   0  0  2  0  0  0  0  0  0  0  0  0
    7.2746  -15.5138   27.0436 N   0  0  0  0  0  0  0  0  0  0  0  0
    7.4738  -15.7845   24.6390 C   0  0  0  0  0  0  0  0  0  0  0  0
    8.7097  -15.8006   24.4295 O   0  0  0  0  0  0  0  0  0  0  0  0
    6.6206  -16.5596   23.7702 N   0  0  0  0  0  0  0  0  0  0  0  0
    7.2564  -17.4309   22.8476 C   0  0  0  0  0  0  0  0  0  0  0  0
    7.6462  -16.8501   21.5547 C   0  0  0  0  0  0  0  0  0  0  0  0
    8.1640  -17.6415   20.6859 O   0  0  0  0  0  0  0  0  0  0  0  0
    8.3046  -12.6050   20.9768 C   0  0  0  0  0  0  0  0  0  0  0  0
    7.7486  -13.4310   19.8252 C   0  0  1  0  0  0  0  0  0  0  0  0
    8.1537  -12.9169   18.5962 O   0  0  0  0  0  0  0  0  0  0  0  0
    7.9978  -14.8816   19.9796 C   0  0  2  0  0  0  0  0  0  0  0  0
    7.5086  -15.4973   21.1647 N   0  0  0  0  0  0  0  0  0  0  0  0
    9.4030  -15.1952   19.6165 C   0  0  0  0  0  0  0  0  0  0  0  0
    9.6530  -15.4697   18.4185 O   0  0  0  0  0  0  0  0  0  0  0  0
   10.4172  -15.1980   20.5322 O   0  0  0  0  0  0  0  0  0  0  0  0
  2  4  1  0
  2  1  1  6
  3  2  1  0
  4  5  1  0
  5  7  1  0
  5  6  1  1
  7  9  1  0
  8  7  2  0
  9 10  1  0
 10 11  1  0
 11 17  1  0
 11 12  2  0
 14 13  1  1
 14 16  1  0
 15 14  1  0
 16 18  1  0
 16 17  1  1
 18 19  2  0
 18 20  1  0
M  END
$$$$
