LGT.pdb
     RDKit          3D

 20 19  0  0  1  0  0  0  0  0999 V2000
    7.6475  -12.3251   27.5372 C   0  0  0  0  0  0  0  0  0  0  0  0
    6.8897  -13.0622   26.4798 C   0  0  1  0  0  0  0  0  0  0  0  0
    5.6261  -12.2695   26.1619 C   0  0  0  0  0  0  0  0  0  0  0  0
    7.6317  -13.2418   25.1945 C   0  0  0  0  0  0  0  0  0  0  0  0
    6.9721  -14.1911   24.2336 C   0  0  2  0  0  0  0  0  0  0  0  0
    5.8994  -14.8725   24.9097 N   0  0  0  0  0  0  0  0  0  0  0  0
    8.0145  -15.1267   23.7450 C   0  0  0  0  0  0  0  0  0  0  0  0
    9.1095  -14.6908   23.3177 O   0  0  0  0  0  0  0  0  0  0  0  0
    7.7985  -16.5539   23.7480 N   0  0  0  0  0  0  0  0  0  0  0  0
    8.8286  -17.3656   23.2053 C   0  0  0  0  0  0  0  0  0  0  0  0
    9.5341  -18.2495   24.1444 C   0  0  0  0  0  0  0  0  0  0  0  0
    8.8410  -18.7823   25.0852 O   0  0  0  0  0  0  0  0  0  0  0  0
   11.8005  -21.2885   23.0609 C   0  0  0  0  0  0  0  0  0  0  0  0
   12.4983  -20.4740   24.1415 C   0  0  1  0  0  0  0  0  0  0  0  0
   13.6268  -19.8325   23.6376 O   0  0  0  0  0  0  0  0  0  0  0  0
   11.5779  -19.5784   24.8768 C   0  0  2  0  0  0  0  0  0  0  0  0
   10.9099  -18.5772   24.1190 N   0  0  0  0  0  0  0  0  0  0  0  0
   12.2157  -19.1220   26.1377 C   0  0  0  0  0  0  0  0  0  0  0  0
   12.4286  -17.8940   26.2775 O   0  0  0  0  0  0  0  0  0  0  0  0
   12.5762  -19.9842   27.1346 O   0  0  0  0  0  0  0  0  0  0  0  0
  2  4  1  0
  2  1  1  1
  3  2  1  0
  4  5  1  0
  5  7  1  0
  5  6  1  1
  7  9  1  0
  8  7  2  0
  9 10  1  0
 10 11  1  0
 11 17  1  0
 11 12  2  0
 14 13  1  6
 14 16  1  0
 15 14  1  0
 16 18  1  0
 16 17  1  6
 18 19  2  0
 18 20  1  0
M  END
$$$$
