LGT.pdb
     RDKit          3D

 20 19  0  0  1  0  0  0  0  0999 V2000
    8.0343  -12.3046   19.9243 C   0  0  0  0  0  0  0  0  0  0  0  0
    8.0888  -13.7634   20.2476 C   0  0  1  0  0  0  0  0  0  0  0  0
    6.7609  -14.1581   20.8854 C   0  0  0  0  0  0  0  0  0  0  0  0
    8.2913  -14.6548   19.0648 C   0  0  0  0  0  0  0  0  0  0  0  0
    8.4543  -16.1080   19.4133 C   0  0  2  0  0  0  0  0  0  0  0  0
    7.4325  -16.4815   20.3559 N   0  0  0  0  0  0  0  0  0  0  0  0
    9.8204  -16.2838   19.9641 C   0  0  0  0  0  0  0  0  0  0  0  0
   10.8038  -15.7386   19.4099 O   0  0  0  0  0  0  0  0  0  0  0  0
   10.0533  -17.0815   21.1443 N   0  0  0  0  0  0  0  0  0  0  0  0
   11.1545  -16.7193   21.9635 C   0  0  0  0  0  0  0  0  0  0  0  0
   10.8787  -16.5411   23.3963 C   0  0  0  0  0  0  0  0  0  0  0  0
   11.8637  -16.2035   24.1480 O   0  0  0  0  0  0  0  0  0  0  0  0
    8.3107  -14.1952   25.2003 C   0  0  0  0  0  0  0  0  0  0  0  0
    8.1476  -15.6240   25.7001 C   0  0  1  0  0  0  0  0  0  0  0  0
    6.9366  -16.1683   25.2804 O   0  0  0  0  0  0  0  0  0  0  0  0
    9.3213  -16.4770   25.4088 C   0  0  2  0  0  0  0  0  0  0  0  0
    9.6291  -16.7043   24.0389 N   0  0  0  0  0  0  0  0  0  0  0  0
    9.3010  -17.6801   26.2789 C   0  0  0  0  0  0  0  0  0  0  0  0
    9.1990  -17.5081   27.5170 O   0  0  0  0  0  0  0  0  0  0  0  0
    9.3922  -18.9498   25.7821 O   0  0  0  0  0  0  0  0  0  0  0  0
  2  4  1  0
  2  1  1  6
  3  2  1  0
  4  5  1  0
  5  7  1  0
  5  6  1  1
  7  9  1  0
  8  7  2  0
  9 10  1  0
 10 11  1  0
 11 17  1  0
 11 12  2  0
 14 13  1  6
 14 16  1  0
 15 14  1  0
 16 18  1  0
 16 17  1  6
 18 19  2  0
 18 20  1  0
M  END
$$$$
