LGT.pdb
     RDKit          3D

 20 19  0  0  1  0  0  0  0  0999 V2000
    6.9715  -13.0356   17.7499 C   0  0  0  0  0  0  0  0  0  0  0  0
    7.9672  -13.8254   18.5376 C   0  0  1  0  0  0  0  0  0  0  0  0
    9.2429  -12.9980   18.6555 C   0  0  0  0  0  0  0  0  0  0  0  0
    7.5322  -14.1642   19.9271 C   0  0  0  0  0  0  0  0  0  0  0  0
    8.5775  -14.8754   20.7402 C   0  0  2  0  0  0  0  0  0  0  0  0
    8.8790  -16.1369   20.1160 N   0  0  0  0  0  0  0  0  0  0  0  0
    8.0388  -15.0403   22.1126 C   0  0  0  0  0  0  0  0  0  0  0  0
    7.6600  -14.0427   22.7704 O   0  0  0  0  0  0  0  0  0  0  0  0
    7.9369  -16.3441   22.7237 N   0  0  0  0  0  0  0  0  0  0  0  0
    7.3652  -16.4078   24.0213 C   0  0  0  0  0  0  0  0  0  0  0  0
    8.0358  -15.6327   25.0750 C   0  0  0  0  0  0  0  0  0  0  0  0
    9.3151  -15.7198   25.1463 O   0  0  0  0  0  0  0  0  0  0  0  0
    7.0843  -11.6994   26.1463 C   0  0  0  0  0  0  0  0  0  0  0  0
    7.2662  -12.6761   27.2999 C   0  0  1  0  0  0  0  0  0  0  0  0
    6.0504  -12.9557   27.9185 O   0  0  0  0  0  0  0  0  0  0  0  0
    8.0376  -13.8813   26.9223 C   0  0  2  0  0  0  0  0  0  0  0  0
    7.4123  -14.7931   26.0275 N   0  0  0  0  0  0  0  0  0  0  0  0
    8.6635  -14.4801   28.1283 C   0  0  0  0  0  0  0  0  0  0  0  0
    8.4625  -15.6977   28.3516 O   0  0  0  0  0  0  0  0  0  0  0  0
    9.4371  -13.7574   28.9923 O   0  0  0  0  0  0  0  0  0  0  0  0
  2  4  1  0
  2  1  1  1
  3  2  1  0
  4  5  1  0
  5  7  1  0
  5  6  1  6
  7  9  1  0
  8  7  2  0
  9 10  1  0
 10 11  1  0
 11 17  1  0
 11 12  2  0
 14 13  1  6
 14 16  1  0
 15 14  1  0
 16 18  1  0
 16 17  1  1
 18 19  2  0
 18 20  1  0
M  END
$$$$
