LGT.pdb
     RDKit          3D

 20 19  0  0  1  0  0  0  0  0999 V2000
    7.2211  -11.7842   26.2770 C   0  0  0  0  0  0  0  0  0  0  0  0
    6.7333  -13.0981   25.7562 C   0  0  1  0  0  0  0  0  0  0  0  0
    5.2675  -13.2497   26.1493 C   0  0  0  0  0  0  0  0  0  0  0  0
    6.8079  -13.2440   24.2703 C   0  0  0  0  0  0  0  0  0  0  0  0
    6.8898  -14.6686   23.7977 C   0  0  2  0  0  0  0  0  0  0  0  0
    6.0845  -15.4951   24.6583 N   0  0  0  0  0  0  0  0  0  0  0  0
    8.3199  -15.0626   23.8150 C   0  0  0  0  0  0  0  0  0  0  0  0
    9.1861  -14.3337   23.2768 O   0  0  0  0  0  0  0  0  0  0  0  0
    8.7500  -16.2868   24.4473 N   0  0  0  0  0  0  0  0  0  0  0  0
   10.1174  -16.6414   24.3082 C   0  0  0  0  0  0  0  0  0  0  0  0
   10.9229  -16.6535   25.5378 C   0  0  0  0  0  0  0  0  0  0  0  0
   12.1695  -16.9399   25.4223 O   0  0  0  0  0  0  0  0  0  0  0  0
   11.4742  -13.9057   28.2762 C   0  0  0  0  0  0  0  0  0  0  0  0
   11.0725  -15.2142   28.9427 C   0  0  1  0  0  0  0  0  0  0  0  0
    9.8177  -15.1110   29.5374 O   0  0  0  0  0  0  0  0  0  0  0  0
   11.2190  -16.3869   28.0519 C   0  0  2  0  0  0  0  0  0  0  0  0
   10.4630  -16.3799   26.8472 N   0  0  0  0  0  0  0  0  0  0  0  0
   11.1606  -17.6383   28.8489 C   0  0  0  0  0  0  0  0  0  0  0  0
   10.3001  -18.4952   28.5351 O   0  0  0  0  0  0  0  0  0  0  0  0
   11.9990  -17.8818   29.9000 O   0  0  0  0  0  0  0  0  0  0  0  0
  2  4  1  0
  2  1  1  6
  3  2  1  0
  4  5  1  0
  5  7  1  0
  5  6  1  1
  7  9  1  0
  8  7  2  0
  9 10  1  0
 10 11  1  0
 11 17  1  0
 11 12  2  0
 14 13  1  6
 14 16  1  0
 15 14  1  0
 16 18  1  0
 16 17  1  6
 18 19  2  0
 18 20  1  0
M  END
$$$$
