LGT.pdb
     RDKit          3D

 20 19  0  0  1  0  0  0  0  0999 V2000
    5.2762  -11.6668   26.4366 C   0  0  0  0  0  0  0  0  0  0  0  0
    6.7336  -11.9770   26.5619 C   0  0  1  0  0  0  0  0  0  0  0  0
    7.2678  -11.2562   27.7952 C   0  0  0  0  0  0  0  0  0  0  0  0
    7.0476  -13.4288   26.7299 C   0  0  0  0  0  0  0  0  0  0  0  0
    7.5484  -14.0962   25.4795 C   0  0  2  0  0  0  0  0  0  0  0  0
    6.6552  -13.7879   24.3936 N   0  0  0  0  0  0  0  0  0  0  0  0
    7.6238  -15.5526   25.7510 C   0  0  0  0  0  0  0  0  0  0  0  0
    8.3786  -15.9930   26.6498 O   0  0  0  0  0  0  0  0  0  0  0  0
    6.8360  -16.4956   24.9936 N   0  0  0  0  0  0  0  0  0  0  0  0
    7.2588  -17.8506   25.0073 C   0  0  0  0  0  0  0  0  0  0  0  0
    8.3919  -18.1956   24.1368 C   0  0  0  0  0  0  0  0  0  0  0  0
    8.7930  -19.4156   24.1481 O   0  0  0  0  0  0  0  0  0  0  0  0
    8.6260  -17.3569   20.3151 C   0  0  0  0  0  0  0  0  0  0  0  0
    9.9602  -17.0448   20.9786 C   0  0  1  0  0  0  0  0  0  0  0  0
   10.2329  -15.6798   20.9418 O   0  0  0  0  0  0  0  0  0  0  0  0
   10.0927  -17.6463   22.3243 C   0  0  2  0  0  0  0  0  0  0  0  0
    9.0929  -17.3149   23.2800 N   0  0  0  0  0  0  0  0  0  0  0  0
   11.4985  -17.5394   22.7903 C   0  0  0  0  0  0  0  0  0  0  0  0
   11.7150  -16.9442   23.8728 O   0  0  0  0  0  0  0  0  0  0  0  0
   12.5490  -18.0576   22.0866 O   0  0  0  0  0  0  0  0  0  0  0  0
  2  4  1  0
  2  1  1  1
  3  2  1  0
  4  5  1  0
  5  7  1  0
  5  6  1  6
  7  9  1  0
  8  7  2  0
  9 10  1  0
 10 11  1  0
 11 17  1  0
 11 12  2  0
 14 13  1  1
 14 16  1  0
 15 14  1  0
 16 18  1  0
 16 17  1  1
 18 19  2  0
 18 20  1  0
M  END
$$$$
