LGT.pdb
     RDKit          3D

 20 19  0  0  1  0  0  0  0  0999 V2000
    6.9106  -11.2177   25.2534 C   0  0  0  0  0  0  0  0  0  0  0  0
    6.6180  -12.5743   25.8101 C   0  0  1  0  0  0  0  0  0  0  0  0
    5.4529  -12.4456   26.7858 C   0  0  0  0  0  0  0  0  0  0  0  0
    6.2268  -13.5937   24.7891 C   0  0  0  0  0  0  0  0  0  0  0  0
    6.6097  -15.0016   25.1509 C   0  0  2  0  0  0  0  0  0  0  0  0
    7.1010  -15.0209   26.5038 N   0  0  0  0  0  0  0  0  0  0  0  0
    7.6317  -15.4507   24.1739 C   0  0  0  0  0  0  0  0  0  0  0  0
    7.4068  -16.4300   23.4242 O   0  0  0  0  0  0  0  0  0  0  0  0
    8.9036  -14.7777   24.0603 N   0  0  0  0  0  0  0  0  0  0  0  0
   10.0422  -15.5849   23.8020 C   0  0  0  0  0  0  0  0  0  0  0  0
   10.6308  -16.2815   24.9549 C   0  0  0  0  0  0  0  0  0  0  0  0
   11.7009  -16.9610   24.7488 O   0  0  0  0  0  0  0  0  0  0  0  0
   10.8749  -14.0132   28.1891 C   0  0  0  0  0  0  0  0  0  0  0  0
   10.5796  -15.4572   28.5706 C   0  0  1  0  0  0  0  0  0  0  0  0
    9.2971  -15.5857   29.0974 O   0  0  0  0  0  0  0  0  0  0  0  0
   10.8803  -16.4164   27.4845 C   0  0  2  0  0  0  0  0  0  0  0  0
   10.1361  -16.2809   26.2801 N   0  0  0  0  0  0  0  0  0  0  0  0
   10.9792  -17.7912   28.0365 C   0  0  0  0  0  0  0  0  0  0  0  0
   10.2387  -18.6763   27.5451 O   0  0  0  0  0  0  0  0  0  0  0  0
   11.8353  -18.1181   29.0501 O   0  0  0  0  0  0  0  0  0  0  0  0
  2  4  1  0
  2  1  1  6
  3  2  1  0
  4  5  1  0
  5  7  1  0
  5  6  1  1
  7  9  1  0
  8  7  2  0
  9 10  1  0
 10 11  1  0
 11 17  1  0
 11 12  2  0
 14 13  1  6
 14 16  1  0
 15 14  1  0
 16 18  1  0
 16 17  1  6
 18 19  2  0
 18 20  1  0
M  END
$$$$
