LGT.pdb
     RDKit          3D

 20 19  0  0  1  0  0  0  0  0999 V2000
    6.7321  -11.4105   26.1458 C   0  0  0  0  0  0  0  0  0  0  0  0
    7.2730  -12.7152   26.6367 C   0  0  1  0  0  0  0  0  0  0  0  0
    7.4290  -12.6245   28.1511 C   0  0  0  0  0  0  0  0  0  0  0  0
    6.4003  -13.8955   26.3539 C   0  0  0  0  0  0  0  0  0  0  0  0
    6.9946  -15.2113   26.7724 C   0  0  2  0  0  0  0  0  0  0  0  0
    8.4161  -15.0533   26.9348 N   0  0  0  0  0  0  0  0  0  0  0  0
    6.6541  -16.2069   25.7267 C   0  0  0  0  0  0  0  0  0  0  0  0
    5.5370  -16.1750   25.1588 O   0  0  0  0  0  0  0  0  0  0  0  0
    7.5926  -17.2321   25.3373 N   0  0  0  0  0  0  0  0  0  0  0  0
    7.1929  -18.1157   24.3007 C   0  0  0  0  0  0  0  0  0  0  0  0
    7.5616  -17.7325   22.9303 C   0  0  0  0  0  0  0  0  0  0  0  0
    7.3311  -18.5853   21.9982 O   0  0  0  0  0  0  0  0  0  0  0  0
    7.5185  -13.7778   21.4300 C   0  0  0  0  0  0  0  0  0  0  0  0
    7.5780  -15.0580   20.6083 C   0  0  1  0  0  0  0  0  0  0  0  0
    7.8561  -14.7849   19.2715 O   0  0  0  0  0  0  0  0  0  0  0  0
    8.4564  -16.0888   21.2048 C   0  0  2  0  0  0  0  0  0  0  0  0
    8.1495  -16.5103   22.5281 N   0  0  0  0  0  0  0  0  0  0  0  0
    9.8792  -15.7548   20.9424 C   0  0  0  0  0  0  0  0  0  0  0  0
   10.6283  -15.5585   21.9290 O   0  0  0  0  0  0  0  0  0  0  0  0
   10.3907  -15.6522   19.6795 O   0  0  0  0  0  0  0  0  0  0  0  0
  2  4  1  0
  2  1  1  1
  3  2  1  0
  4  5  1  0
  5  7  1  0
  5  6  1  6
  7  9  1  0
  8  7  2  0
  9 10  1  0
 10 11  1  0
 11 17  1  0
 11 12  2  0
 14 13  1  1
 14 16  1  0
 15 14  1  0
 16 18  1  0
 16 17  1  1
 18 19  2  0
 18 20  1  0
M  END
$$$$
