LGT.pdb
     RDKit          3D

 20 19  0  0  1  0  0  0  0  0999 V2000
   11.4975  -14.1144   28.0398 C   0  0  0  0  0  0  0  0  0  0  0  0
   10.1785  -14.8175   28.0792 C   0  0  1  0  0  0  0  0  0  0  0  0
    9.1122  -13.8035   28.4804 C   0  0  0  0  0  0  0  0  0  0  0  0
    9.7522  -15.4122   26.7756 C   0  0  0  0  0  0  0  0  0  0  0  0
    8.3615  -15.9828   26.7879 C   0  0  2  0  0  0  0  0  0  0  0  0
    8.4429  -17.4134   26.9250 N   0  0  0  0  0  0  0  0  0  0  0  0
    7.7009  -15.5745   25.5240 C   0  0  0  0  0  0  0  0  0  0  0  0
    7.7299  -14.3784   25.1497 O   0  0  0  0  0  0  0  0  0  0  0  0
    7.0118  -16.5357   24.6967 N   0  0  0  0  0  0  0  0  0  0  0  0
    6.4019  -16.0497   23.5107 C   0  0  0  0  0  0  0  0  0  0  0  0
    7.2265  -16.0613   22.2938 C   0  0  0  0  0  0  0  0  0  0  0  0
    7.5716  -17.2069   21.8272 O   0  0  0  0  0  0  0  0  0  0  0  0
    6.7950  -13.5553   19.1338 C   0  0  0  0  0  0  0  0  0  0  0  0
    8.2636  -13.7882   19.4604 C   0  0  1  0  0  0  0  0  0  0  0  0
    8.8858  -12.6049   19.8498 O   0  0  0  0  0  0  0  0  0  0  0  0
    8.4774  -14.9140   20.3968 C   0  0  2  0  0  0  0  0  0  0  0  0
    7.6837  -14.9308   21.5769 N   0  0  0  0  0  0  0  0  0  0  0  0
    9.9317  -15.1441   20.5881 C   0  0  0  0  0  0  0  0  0  0  0  0
   10.3740  -15.1650   21.7615 O   0  0  0  0  0  0  0  0  0  0  0  0
   10.7921  -15.3273   19.5425 O   0  0  0  0  0  0  0  0  0  0  0  0
  2  4  1  0
  2  1  1  6
  3  2  1  0
  4  5  1  0
  5  7  1  0
  5  6  1  6
  7  9  1  0
  8  7  2  0
  9 10  1  0
 10 11  1  0
 11 17  1  0
 11 12  2  0
 14 13  1  1
 14 16  1  0
 15 14  1  0
 16 18  1  0
 16 17  1  1
 18 19  2  0
 18 20  1  0
M  END
$$$$
