LGT.pdb
     RDKit          3D

 20 19  0  0  1  0  0  0  0  0999 V2000
    7.0830  -12.2838   21.0221 C   0  0  0  0  0  0  0  0  0  0  0  0
    7.4291  -13.7352   20.9265 C   0  0  1  0  0  0  0  0  0  0  0  0
    7.7069  -14.0614   19.4628 C   0  0  0  0  0  0  0  0  0  0  0  0
    8.6403  -14.1377   21.7048 C   0  0  0  0  0  0  0  0  0  0  0  0
    8.9122  -15.6161   21.6942 C   0  0  2  0  0  0  0  0  0  0  0  0
    7.7546  -16.3094   22.1954 N   0  0  0  0  0  0  0  0  0  0  0  0
   10.1162  -15.8540   22.5276 C   0  0  0  0  0  0  0  0  0  0  0  0
   11.1374  -15.1408   22.3866 O   0  0  0  0  0  0  0  0  0  0  0  0
   10.1447  -16.9052   23.5164 N   0  0  0  0  0  0  0  0  0  0  0  0
   11.3903  -17.1706   24.1432 C   0  0  0  0  0  0  0  0  0  0  0  0
   11.5004  -16.8158   25.5655 C   0  0  0  0  0  0  0  0  0  0  0  0
   12.6491  -16.9608   26.1213 O   0  0  0  0  0  0  0  0  0  0  0  0
   10.4970  -13.3672   27.3485 C   0  0  0  0  0  0  0  0  0  0  0  0
    9.8742  -14.5738   28.0370 C   0  0  1  0  0  0  0  0  0  0  0  0
    8.4987  -14.6193   27.8249 O   0  0  0  0  0  0  0  0  0  0  0  0
   10.5709  -15.8418   27.7258 C   0  0  2  0  0  0  0  0  0  0  0  0
   10.4627  -16.3268   26.3931 N   0  0  0  0  0  0  0  0  0  0  0  0
   10.3197  -16.8344   28.8012 C   0  0  0  0  0  0  0  0  0  0  0  0
    9.8801  -17.9613   28.4697 O   0  0  0  0  0  0  0  0  0  0  0  0
   10.5452  -16.5628   30.1213 O   0  0  0  0  0  0  0  0  0  0  0  0
  2  4  1  0
  2  1  1  6
  3  2  1  0
  4  5  1  0
  5  7  1  0
  5  6  1  1
  7  9  1  0
  8  7  2  0
  9 10  1  0
 10 11  1  0
 11 17  1  0
 11 12  2  0
 14 13  1  6
 14 16  1  0
 15 14  1  0
 16 18  1  0
 16 17  1  6
 18 19  2  0
 18 20  1  0
M  END
$$$$
