LGT.pdb
     RDKit          3D

 20 19  0  0  1  0  0  0  0  0999 V2000
    7.2167  -12.2093   19.9644 C   0  0  0  0  0  0  0  0  0  0  0  0
    7.9045  -13.5131   19.7139 C   0  0  1  0  0  0  0  0  0  0  0  0
    9.2267  -13.2247   19.0105 C   0  0  0  0  0  0  0  0  0  0  0  0
    8.2235  -14.2945   20.9477 C   0  0  0  0  0  0  0  0  0  0  0  0
    8.8092  -15.6525   20.6788 C   0  0  2  0  0  0  0  0  0  0  0  0
    7.8780  -16.4172   19.8913 N   0  0  0  0  0  0  0  0  0  0  0  0
    9.0898  -16.2849   21.9910 C   0  0  0  0  0  0  0  0  0  0  0  0
    8.1491  -16.6727   22.7233 O   0  0  0  0  0  0  0  0  0  0  0  0
   10.4433  -16.4698   22.4573 N   0  0  0  0  0  0  0  0  0  0  0  0
   10.6125  -17.0778   23.7287 C   0  0  0  0  0  0  0  0  0  0  0  0
   10.8068  -16.1728   24.8706 C   0  0  0  0  0  0  0  0  0  0  0  0
   11.8928  -15.4880   24.9011 O   0  0  0  0  0  0  0  0  0  0  0  0
    9.3861  -12.7438   27.5469 C   0  0  0  0  0  0  0  0  0  0  0  0
    8.9476  -14.1902   27.3635 C   0  0  1  0  0  0  0  0  0  0  0  0
    7.8876  -14.2841   26.4654 O   0  0  0  0  0  0  0  0  0  0  0  0
   10.0727  -15.1025   27.0604 C   0  0  2  0  0  0  0  0  0  0  0  0
    9.9132  -15.9761   25.9494 N   0  0  0  0  0  0  0  0  0  0  0  0
   10.5690  -15.7273   28.3127 C   0  0  0  0  0  0  0  0  0  0  0  0
   10.4748  -16.9729   28.4253 O   0  0  0  0  0  0  0  0  0  0  0  0
   11.1138  -14.9997   29.3329 O   0  0  0  0  0  0  0  0  0  0  0  0
  2  4  1  0
  2  1  1  1
  3  2  1  0
  4  5  1  0
  5  7  1  0
  5  6  1  1
  7  9  1  0
  8  7  2  0
  9 10  1  0
 10 11  1  0
 11 17  1  0
 11 12  2  0
 14 13  1  6
 14 16  1  0
 15 14  1  0
 16 18  1  0
 16 17  1  6
 18 19  2  0
 18 20  1  0
M  END
$$$$
