LGT.pdb
     RDKit          3D

 20 19  0  0  1  0  0  0  0  0999 V2000
    7.9388  -12.7628   21.5604 C   0  0  0  0  0  0  0  0  0  0  0  0
    7.4642  -13.5886   20.4078 C   0  0  1  0  0  0  0  0  0  0  0  0
    6.8252  -12.6542   19.3858 C   0  0  0  0  0  0  0  0  0  0  0  0
    8.5420  -14.3447   19.6997 C   0  0  0  0  0  0  0  0  0  0  0  0
    8.7040  -15.7639   20.1679 C   0  0  2  0  0  0  0  0  0  0  0  0
    7.5620  -16.1279   20.9650 N   0  0  0  0  0  0  0  0  0  0  0  0
    9.9724  -15.8387   20.9336 C   0  0  0  0  0  0  0  0  0  0  0  0
   11.0355  -15.3860   20.4473 O   0  0  0  0  0  0  0  0  0  0  0  0
   10.0172  -16.4302   22.2495 N   0  0  0  0  0  0  0  0  0  0  0  0
   11.2597  -16.3914   22.9347 C   0  0  0  0  0  0  0  0  0  0  0  0
   11.2093  -16.0916   24.3729 C   0  0  0  0  0  0  0  0  0  0  0  0
   12.3236  -16.0806   25.0114 O   0  0  0  0  0  0  0  0  0  0  0  0
    9.0364  -13.2049   26.3348 C   0  0  0  0  0  0  0  0  0  0  0  0
    8.9072  -14.5889   26.9559 C   0  0  1  0  0  0  0  0  0  0  0  0
    7.6193  -15.0934   26.7961 O   0  0  0  0  0  0  0  0  0  0  0  0
    9.9735  -15.5196   26.5235 C   0  0  2  0  0  0  0  0  0  0  0  0
   10.0501  -15.8115   25.1336 N   0  0  0  0  0  0  0  0  0  0  0  0
   10.0257  -16.6889   27.4372 C   0  0  0  0  0  0  0  0  0  0  0  0
    9.8809  -17.8308   26.9390 O   0  0  0  0  0  0  0  0  0  0  0  0
   10.2198  -16.5631   28.7839 O   0  0  0  0  0  0  0  0  0  0  0  0
  2  4  1  0
  2  1  1  1
  3  2  1  0
  4  5  1  0
  5  7  1  0
  5  6  1  1
  7  9  1  0
  8  7  2  0
  9 10  1  0
 10 11  1  0
 11 17  1  0
 11 12  2  0
 14 13  1  6
 14 16  1  0
 15 14  1  0
 16 18  1  0
 16 17  1  6
 18 19  2  0
 18 20  1  0
M  END
$$$$
