LGT.pdb
     RDKit          3D

 20 19  0  0  1  0  0  0  0  0999 V2000
    7.0789  -13.0224   17.7341 C   0  0  0  0  0  0  0  0  0  0  0  0
    8.0225  -13.8248   18.5717 C   0  0  1  0  0  0  0  0  0  0  0  0
    9.3287  -13.0468   18.6925 C   0  0  0  0  0  0  0  0  0  0  0  0
    7.5422  -14.0971   19.9610 C   0  0  0  0  0  0  0  0  0  0  0  0
    8.4784  -14.9429   20.7782 C   0  0  2  0  0  0  0  0  0  0  0  0
    8.6475  -16.2164   20.1290 N   0  0  0  0  0  0  0  0  0  0  0  0
    7.8912  -15.0752   22.1341 C   0  0  0  0  0  0  0  0  0  0  0  0
    7.4882  -14.0625   22.7534 O   0  0  0  0  0  0  0  0  0  0  0  0
    7.7685  -16.3638   22.7727 N   0  0  0  0  0  0  0  0  0  0  0  0
    7.1916  -16.3913   24.0693 C   0  0  0  0  0  0  0  0  0  0  0  0
    7.9401  -15.7134   25.1375 C   0  0  0  0  0  0  0  0  0  0  0  0
    9.2151  -15.8672   25.1520 O   0  0  0  0  0  0  0  0  0  0  0  0
    7.4383  -11.7721   26.2173 C   0  0  0  0  0  0  0  0  0  0  0  0
    7.4513  -12.7512   27.3830 C   0  0  1  0  0  0  0  0  0  0  0  0
    6.1830  -12.8840   27.9422 O   0  0  0  0  0  0  0  0  0  0  0  0
    8.0972  -14.0403   27.0495 C   0  0  2  0  0  0  0  0  0  0  0  0
    7.3966  -14.9017   26.1606 N   0  0  0  0  0  0  0  0  0  0  0  0
    8.6307  -14.6729   28.2823 C   0  0  0  0  0  0  0  0  0  0  0  0
    8.3527  -15.8778   28.4920 O   0  0  0  0  0  0  0  0  0  0  0  0
    9.4004  -13.9942   29.1845 O   0  0  0  0  0  0  0  0  0  0  0  0
  2  4  1  0
  2  1  1  6
  3  2  1  0
  4  5  1  0
  5  7  1  0
  5  6  1  6
  7  9  1  0
  8  7  2  0
  9 10  1  0
 10 11  1  0
 11 17  1  0
 11 12  2  0
 14 13  1  6
 14 16  1  0
 15 14  1  0
 16 18  1  0
 16 17  1  1
 18 19  2  0
 18 20  1  0
M  END
$$$$
