LGT.pdb
     RDKit          3D

 20 19  0  0  1  0  0  0  0  0999 V2000
    7.5149  -12.0420   20.8172 C   0  0  0  0  0  0  0  0  0  0  0  0
    7.6369  -13.5317   20.8605 C   0  0  1  0  0  0  0  0  0  0  0  0
    7.5450  -14.0571   19.4317 C   0  0  0  0  0  0  0  0  0  0  0  0
    8.9239  -14.0332   21.4321 C   0  0  0  0  0  0  0  0  0  0  0  0
    8.9827  -15.5268   21.5917 C   0  0  2  0  0  0  0  0  0  0  0  0
    7.7870  -15.9747   22.2564 N   0  0  0  0  0  0  0  0  0  0  0  0
   10.2091  -15.8448   22.3634 C   0  0  0  0  0  0  0  0  0  0  0  0
   11.3103  -15.3386   22.0430 O   0  0  0  0  0  0  0  0  0  0  0  0
   10.1687  -16.7390   23.4958 N   0  0  0  0  0  0  0  0  0  0  0  0
   11.4011  -17.0245   24.1395 C   0  0  0  0  0  0  0  0  0  0  0  0
   11.5198  -16.6140   25.5460 C   0  0  0  0  0  0  0  0  0  0  0  0
   12.6452  -16.8245   26.1278 O   0  0  0  0  0  0  0  0  0  0  0  0
   10.2075  -13.1569   27.4020 C   0  0  0  0  0  0  0  0  0  0  0  0
    9.7933  -14.4405   28.1081 C   0  0  1  0  0  0  0  0  0  0  0  0
    8.4181  -14.6409   28.0211 O   0  0  0  0  0  0  0  0  0  0  0  0
   10.5971  -15.6131   27.6969 C   0  0  2  0  0  0  0  0  0  0  0  0
   10.5136  -16.0056   26.3324 N   0  0  0  0  0  0  0  0  0  0  0  0
   10.4525  -16.7015   28.6964 C   0  0  0  0  0  0  0  0  0  0  0  0
   10.7707  -16.4546   29.8842 O   0  0  0  0  0  0  0  0  0  0  0  0
    9.9941  -17.9463   28.3686 O   0  0  0  0  0  0  0  0  0  0  0  0
  2  4  1  0
  2  1  1  6
  3  2  1  0
  4  5  1  0
  5  7  1  0
  5  6  1  1
  7  9  1  0
  8  7  2  0
  9 10  1  0
 10 11  1  0
 11 17  1  0
 11 12  2  0
 14 13  1  6
 14 16  1  0
 15 14  1  0
 16 18  1  0
 16 17  1  6
 18 19  2  0
 18 20  1  0
M  END
$$$$
