VLA.pdb
     RDKit          3D

 21 20  0  0  1  0  0  0  0  0999 V2000
    7.7202  -12.3815   20.4782 C   0  0  0  0  0  0  0  0  0  0  0  0
    8.3801  -13.5340   19.7911 C   0  0  2  0  0  0  0  0  0  0  0  0
    7.7546  -13.7932   18.4424 C   0  0  0  0  0  0  0  0  0  0  0  0
    8.2830  -14.8187   20.5849 C   0  0  2  0  0  0  0  0  0  0  0  0
    6.8730  -15.2158   20.5150 N   0  0  0  0  0  0  0  0  0  0  0  0
    8.6938  -14.6678   21.9955 C   0  0  0  0  0  0  0  0  0  0  0  0
    9.9297  -14.5122   22.2675 O   0  0  0  0  0  0  0  0  0  0  0  0
    5.9144  -12.6293   27.0244 C   0  0  0  0  0  0  0  0  0  0  0  0
    7.1744  -13.2419   26.4906 C   0  0  2  0  0  0  0  0  0  0  0  0
    8.2719  -12.1576   26.6073 C   0  0  0  0  0  0  0  0  0  0  0  0
    7.1521  -13.6735   25.0927 C   0  0  0  0  0  0  0  0  0  0  0  0
    8.2449  -14.4612   24.4905 C   0  0  2  0  0  0  0  0  0  0  0  0
    7.8089  -14.6822   23.0833 N   0  0  0  0  0  0  0  0  0  0  0  0
    8.5229  -15.7867   25.0438 C   0  0  0  0  0  0  0  0  0  0  0  0
    7.6403  -16.6778   25.2184 O   0  0  0  0  0  0  0  0  0  0  0  0
   11.3606  -18.0256   25.2364 C   0  0  0  0  0  0  0  0  0  0  0  0
   10.1141  -17.5291   25.9808 C   0  0  2  0  0  0  0  0  0  0  0  0
    9.8330  -16.2142   25.4474 N   0  0  0  0  0  0  0  0  0  0  0  0
   10.4281  -17.5064   27.4117 C   0  0  0  0  0  0  0  0  0  0  0  0
   10.5181  -16.3926   27.9889 O   0  0  0  0  0  0  0  0  0  0  0  0
   10.6273  -18.6685   28.1418 O   0  0  0  0  0  0  0  0  0  0  0  0
  2  4  1  0
  2  1  1  1
  3  2  1  0
  4  6  1  0
  4  5  1  1
  6  7  2  0
  9  8  1  6
  9 11  1  0
  9 10  1  0
 12 11  1  1
 12 14  1  0
 13  6  1  0
 13 12  1  0
 14 15  2  0
 17 16  1  6
 17 19  1  0
 18 17  1  0
 18 14  1  0
 19 20  2  0
 19 21  1  0
M  END
$$$$
