VLA.pdb
     RDKit          3D

 21 20  0  0  1  0  0  0  0  0999 V2000
    6.9516  -13.5843   19.1186 C   0  0  0  0  0  0  0  0  0  0  0  0
    7.5774  -13.4012   20.4642 C   0  0  2  0  0  0  0  0  0  0  0  0
    8.7630  -12.4704   20.3900 C   0  0  0  0  0  0  0  0  0  0  0  0
    8.0660  -14.7029   21.0615 C   0  0  2  0  0  0  0  0  0  0  0  0
    6.9093  -15.6041   21.0340 N   0  0  0  0  0  0  0  0  0  0  0  0
    8.5614  -14.5624   22.4458 C   0  0  0  0  0  0  0  0  0  0  0  0
    9.7480  -14.1377   22.6388 O   0  0  0  0  0  0  0  0  0  0  0  0
    7.9908  -11.8043   26.1586 C   0  0  0  0  0  0  0  0  0  0  0  0
    6.9528  -12.7745   25.6802 C   0  0  2  0  0  0  0  0  0  0  0  0
    5.7042  -12.5522   26.5664 C   0  0  0  0  0  0  0  0  0  0  0  0
    7.2910  -14.1950   25.7732 C   0  0  0  0  0  0  0  0  0  0  0  0
    8.3674  -14.8062   24.9700 C   0  0  2  0  0  0  0  0  0  0  0  0
    7.8098  -14.8664   23.5900 N   0  0  0  0  0  0  0  0  0  0  0  0
    8.7831  -16.1693   25.3012 C   0  0  0  0  0  0  0  0  0  0  0  0
    7.9758  -17.1109   25.5568 O   0  0  0  0  0  0  0  0  0  0  0  0
   11.9316  -18.1188   24.9912 C   0  0  0  0  0  0  0  0  0  0  0  0
   10.5715  -17.9319   25.6765 C   0  0  2  0  0  0  0  0  0  0  0  0
   10.1574  -16.5802   25.3704 N   0  0  0  0  0  0  0  0  0  0  0  0
   10.7602  -18.1567   27.1120 C   0  0  0  0  0  0  0  0  0  0  0  0
   11.1513  -19.2887   27.4960 O   0  0  0  0  0  0  0  0  0  0  0  0
   10.5219  -17.1650   28.0516 O   0  0  0  0  0  0  0  0  0  0  0  0
  2  4  1  0
  2  1  1  6
  3  2  1  0
  4  6  1  0
  4  5  1  1
  6  7  2  0
  9  8  1  1
  9 11  1  0
  9 10  1  0
 12 11  1  1
 12 14  1  0
 13  6  1  0
 13 12  1  0
 14 15  2  0
 17 16  1  6
 17 19  1  0
 18 17  1  0
 18 14  1  0
 19 20  2  0
 19 21  1  0
M  END
$$$$
