VLA.pdb
     RDKit          3D

 21 20  0  0  1  0  0  0  0  0999 V2000
    8.7607  -17.6008   21.0077 C   0  0  0  0  0  0  0  0  0  0  0  0
    7.4145  -16.9575   21.1060 C   0  0  2  0  0  0  0  0  0  0  0  0
    6.6162  -17.1719   19.8434 C   0  0  0  0  0  0  0  0  0  0  0  0
    7.4979  -15.4640   21.3357 C   0  0  2  0  0  0  0  0  0  0  0  0
    8.2403  -14.9328   20.1878 N   0  0  0  0  0  0  0  0  0  0  0  0
    8.1866  -15.1023   22.5912 C   0  0  0  0  0  0  0  0  0  0  0  0
    9.4438  -14.8910   22.5692 O   0  0  0  0  0  0  0  0  0  0  0  0
    7.9587  -11.5623   25.8379 C   0  0  0  0  0  0  0  0  0  0  0  0
    6.8964  -12.6107   25.6964 C   0  0  2  0  0  0  0  0  0  0  0  0
    5.8025  -12.2687   26.7359 C   0  0  0  0  0  0  0  0  0  0  0  0
    7.3026  -13.9936   25.9482 C   0  0  0  0  0  0  0  0  0  0  0  0
    8.2843  -14.6966   25.1001 C   0  0  2  0  0  0  0  0  0  0  0  0
    7.5496  -14.9700   23.8334 N   0  0  0  0  0  0  0  0  0  0  0  0
    8.7929  -15.9879   25.5629 C   0  0  0  0  0  0  0  0  0  0  0  0
    8.0523  -16.9586   25.8992 O   0  0  0  0  0  0  0  0  0  0  0  0
   12.1311  -17.6622   25.5829 C   0  0  0  0  0  0  0  0  0  0  0  0
   10.6986  -17.5687   26.1248 C   0  0  2  0  0  0  0  0  0  0  0  0
   10.1921  -16.2876   25.6834 N   0  0  0  0  0  0  0  0  0  0  0  0
   10.7651  -17.6810   27.5841 C   0  0  0  0  0  0  0  0  0  0  0  0
   11.2006  -18.7493   28.0848 O   0  0  0  0  0  0  0  0  0  0  0  0
   10.3647  -16.6512   28.4222 O   0  0  0  0  0  0  0  0  0  0  0  0
  2  4  1  0
  2  1  1  6
  3  2  1  0
  4  6  1  0
  4  5  1  6
  6  7  2  0
  9  8  1  1
  9 11  1  0
  9 10  1  0
 12 11  1  1
 12 14  1  0
 13  6  1  0
 13 12  1  0
 14 15  2  0
 17 16  1  6
 17 19  1  0
 18 17  1  0
 18 14  1  0
 19 20  2  0
 19 21  1  0
M  END
$$$$
