VLA.pdb
     RDKit          3D

 21 20  0  0  1  0  0  0  0  0999 V2000
    7.3445  -12.6595   20.1587 C   0  0  0  0  0  0  0  0  0  0  0  0
    8.3617  -13.6449   19.6791 C   0  0  2  0  0  0  0  0  0  0  0  0
    7.9685  -14.2247   18.3424 C   0  0  0  0  0  0  0  0  0  0  0  0
    8.5454  -14.8042   20.6342 C   0  0  2  0  0  0  0  0  0  0  0  0
    7.2927  -15.5643   20.5719 N   0  0  0  0  0  0  0  0  0  0  0  0
    8.8085  -14.3812   22.0246 C   0  0  0  0  0  0  0  0  0  0  0  0
    9.9232  -13.8288   22.3035 O   0  0  0  0  0  0  0  0  0  0  0  0
    5.4767  -12.6330   26.8026 C   0  0  0  0  0  0  0  0  0  0  0  0
    6.8443  -13.0661   26.3667 C   0  0  2  0  0  0  0  0  0  0  0  0
    7.7311  -11.7983   26.3836 C   0  0  0  0  0  0  0  0  0  0  0  0
    6.9531  -13.6414   25.0259 C   0  0  0  0  0  0  0  0  0  0  0  0
    8.2245  -14.1655   24.4907 C   0  0  2  0  0  0  0  0  0  0  0  0
    7.9059  -14.5436   23.0855 N   0  0  0  0  0  0  0  0  0  0  0  0
    8.7930  -15.3601   25.1151 C   0  0  0  0  0  0  0  0  0  0  0  0
    8.8940  -15.5219   26.3671 O   0  0  0  0  0  0  0  0  0  0  0  0
    9.4967  -18.8297   24.0742 C   0  0  0  0  0  0  0  0  0  0  0  0
    9.8776  -17.6518   24.9807 C   0  0  2  0  0  0  0  0  0  0  0  0
    9.2973  -16.4774   24.3671 N   0  0  0  0  0  0  0  0  0  0  0  0
   11.3401  -17.5941   25.0470 C   0  0  0  0  0  0  0  0  0  0  0  0
   11.9513  -18.5209   25.6379 O   0  0  0  0  0  0  0  0  0  0  0  0
   12.0638  -16.5551   24.4813 O   0  0  0  0  0  0  0  0  0  0  0  0
  2  4  1  0
  2  1  1  1
  3  2  1  0
  4  6  1  0
  4  5  1  1
  6  7  2  0
  9  8  1  6
  9 11  1  0
  9 10  1  0
 12 11  1  1
 12 14  1  0
 13  6  1  0
 13 12  1  0
 14 15  2  0
 17 16  1  6
 17 19  1  0
 18 17  1  0
 18 14  1  0
 19 20  2  0
 19 21  1  0
M  END
$$$$
