VLA.pdb
     RDKit          3D

 21 20  0  0  1  0  0  0  0  0999 V2000
    6.8696  -13.7924   19.2785 C   0  0  0  0  0  0  0  0  0  0  0  0
    7.5067  -13.4993   20.5991 C   0  0  2  0  0  0  0  0  0  0  0  0
    8.6976  -12.5865   20.4372 C   0  0  0  0  0  0  0  0  0  0  0  0
    7.9914  -14.7485   21.3022 C   0  0  2  0  0  0  0  0  0  0  0  0
    6.8308  -15.6436   21.3532 N   0  0  0  0  0  0  0  0  0  0  0  0
    8.4913  -14.4947   22.6686 C   0  0  0  0  0  0  0  0  0  0  0  0
    9.6472  -13.9780   22.8192 O   0  0  0  0  0  0  0  0  0  0  0  0
    7.6187  -11.4809   26.1444 C   0  0  0  0  0  0  0  0  0  0  0  0
    6.6734  -12.5723   25.7408 C   0  0  2  0  0  0  0  0  0  0  0  0
    5.4086  -12.4018   26.6155 C   0  0  0  0  0  0  0  0  0  0  0  0
    7.1387  -13.9463   25.9319 C   0  0  0  0  0  0  0  0  0  0  0  0
    8.2984  -14.4972   25.2047 C   0  0  2  0  0  0  0  0  0  0  0  0
    7.7760  -14.7842   23.8395 N   0  0  0  0  0  0  0  0  0  0  0  0
    8.8826  -15.7481   25.6887 C   0  0  0  0  0  0  0  0  0  0  0  0
    9.2048  -15.9559   26.8957 O   0  0  0  0  0  0  0  0  0  0  0  0
    9.4350  -19.1552   24.2264 C   0  0  0  0  0  0  0  0  0  0  0  0
    9.7257  -18.1135   25.3149 C   0  0  2  0  0  0  0  0  0  0  0  0
    9.1515  -16.8741   24.8391 N   0  0  0  0  0  0  0  0  0  0  0  0
   11.1792  -18.0381   25.4839 C   0  0  0  0  0  0  0  0  0  0  0  0
   11.7758  -17.0018   25.0944 O   0  0  0  0  0  0  0  0  0  0  0  0
   11.9097  -19.0686   26.0563 O   0  0  0  0  0  0  0  0  0  0  0  0
  2  4  1  0
  2  1  1  6
  3  2  1  0
  4  6  1  0
  4  5  1  1
  6  7  2  0
  9  8  1  1
  9 11  1  0
  9 10  1  0
 12 11  1  1
 12 14  1  0
 13  6  1  0
 13 12  1  0
 14 15  2  0
 17 16  1  6
 17 19  1  0
 18 17  1  0
 18 14  1  0
 19 20  2  0
 19 21  1  0
M  END
$$$$
