VLA.pdb
     RDKit          3D

 21 20  0  0  1  0  0  0  0  0999 V2000
    7.0056  -13.9107   21.2540 C   0  0  0  0  0  0  0  0  0  0  0  0
    8.0569  -14.8603   20.7756 C   0  0  2  0  0  0  0  0  0  0  0  0
    7.6173  -15.5690   19.5178 C   0  0  0  0  0  0  0  0  0  0  0  0
    8.3885  -15.9256   21.7980 C   0  0  2  0  0  0  0  0  0  0  0  0
    7.1610  -16.7127   21.9547 N   0  0  0  0  0  0  0  0  0  0  0  0
    8.8030  -15.3747   23.1041 C   0  0  0  0  0  0  0  0  0  0  0  0
    9.9508  -14.8298   23.2103 O   0  0  0  0  0  0  0  0  0  0  0  0
    8.0317  -11.7402   26.2685 C   0  0  0  0  0  0  0  0  0  0  0  0
    6.9427  -12.6777   25.8410 C   0  0  2  0  0  0  0  0  0  0  0  0
    5.7009  -12.3244   26.6937 C   0  0  0  0  0  0  0  0  0  0  0  0
    7.1953  -14.1062   26.0318 C   0  0  0  0  0  0  0  0  0  0  0  0
    8.4222  -14.7648   25.5437 C   0  0  2  0  0  0  0  0  0  0  0  0
    8.0131  -15.4050   24.2624 N   0  0  0  0  0  0  0  0  0  0  0  0
    9.0042  -15.8281   26.3628 C   0  0  0  0  0  0  0  0  0  0  0  0
    9.3157  -15.6891   27.5824 O   0  0  0  0  0  0  0  0  0  0  0  0
    9.4035  -19.5160   26.0215 C   0  0  0  0  0  0  0  0  0  0  0  0
    9.8522  -18.2011   26.6726 C   0  0  2  0  0  0  0  0  0  0  0  0
    9.2830  -17.1455   25.8638 N   0  0  0  0  0  0  0  0  0  0  0  0
   11.3172  -18.1837   26.6801 C   0  0  0  0  0  0  0  0  0  0  0  0
   11.9111  -17.3324   25.9700 O   0  0  0  0  0  0  0  0  0  0  0  0
   12.0617  -19.0720   27.4416 O   0  0  0  0  0  0  0  0  0  0  0  0
  2  4  1  0
  2  1  1  1
  3  2  1  0
  4  6  1  0
  4  5  1  1
  6  7  2  0
  9  8  1  1
  9 11  1  0
  9 10  1  0
 12 11  1  1
 12 14  1  0
 13  6  1  0
 13 12  1  0
 14 15  2  0
 17 16  1  6
 17 19  1  0
 18 17  1  0
 18 14  1  0
 19 20  2  0
 19 21  1  0
M  END
$$$$
