VLA.pdb
     RDKit          3D

 21 20  0  0  1  0  0  0  0  0999 V2000
    8.2882  -17.4413   20.9156 C   0  0  0  0  0  0  0  0  0  0  0  0
    7.0765  -16.5652   20.9106 C   0  0  2  0  0  0  0  0  0  0  0  0
    6.3920  -16.5919   19.5659 C   0  0  0  0  0  0  0  0  0  0  0  0
    7.4013  -15.1198   21.2198 C   0  0  2  0  0  0  0  0  0  0  0  0
    8.3011  -14.6833   20.1471 N   0  0  0  0  0  0  0  0  0  0  0  0
    8.0548  -14.9343   22.5313 C   0  0  0  0  0  0  0  0  0  0  0  0
    9.3273  -14.9732   22.6002 O   0  0  0  0  0  0  0  0  0  0  0  0
    8.0400  -11.5126   25.9808 C   0  0  0  0  0  0  0  0  0  0  0  0
    6.8664  -12.4122   25.7335 C   0  0  2  0  0  0  0  0  0  0  0  0
    5.7844  -12.0140   26.7653 C   0  0  0  0  0  0  0  0  0  0  0  0
    7.0963  -13.8483   25.8935 C   0  0  0  0  0  0  0  0  0  0  0  0
    8.0509  -14.5952   25.0520 C   0  0  2  0  0  0  0  0  0  0  0  0
    7.3677  -14.7129   23.7335 N   0  0  0  0  0  0  0  0  0  0  0  0
    8.4007  -15.9581   25.4527 C   0  0  0  0  0  0  0  0  0  0  0  0
    7.5613  -16.9006   25.5562 O   0  0  0  0  0  0  0  0  0  0  0  0
   11.3456  -18.0914   25.4410 C   0  0  0  0  0  0  0  0  0  0  0  0
   10.0813  -17.7006   26.2177 C   0  0  2  0  0  0  0  0  0  0  0  0
    9.7397  -16.3678   25.7713 N   0  0  0  0  0  0  0  0  0  0  0  0
   10.4000  -17.7568   27.6466 C   0  0  0  0  0  0  0  0  0  0  0  0
   10.3961  -16.6853   28.3051 O   0  0  0  0  0  0  0  0  0  0  0  0
   10.7034  -18.9481   28.2886 O   0  0  0  0  0  0  0  0  0  0  0  0
  2  4  1  0
  2  1  1  6
  3  2  1  0
  4  6  1  0
  4  5  1  6
  6  7  2  0
  9  8  1  1
  9 11  1  0
  9 10  1  0
 12 11  1  1
 12 14  1  0
 13  6  1  0
 13 12  1  0
 14 15  2  0
 17 16  1  6
 17 19  1  0
 18 17  1  0
 18 14  1  0
 19 20  2  0
 19 21  1  0
M  END
$$$$
