VLA.pdb
     RDKit          3D

 21 20  0  0  1  0  0  0  0  0999 V2000
    7.5616  -12.7359   21.1779 C   0  0  0  0  0  0  0  0  0  0  0  0
    8.4022  -13.8001   20.5482 C   0  0  2  0  0  0  0  0  0  0  0  0
    7.9050  -14.1373   19.1638 C   0  0  0  0  0  0  0  0  0  0  0  0
    8.4100  -15.0853   21.3473 C   0  0  2  0  0  0  0  0  0  0  0  0
    7.0273  -15.5729   21.3167 N   0  0  0  0  0  0  0  0  0  0  0  0
    8.8482  -14.9024   22.7458 C   0  0  0  0  0  0  0  0  0  0  0  0
   10.0583  -14.5746   22.9779 O   0  0  0  0  0  0  0  0  0  0  0  0
    7.9865  -11.7413   26.2313 C   0  0  0  0  0  0  0  0  0  0  0  0
    6.9472  -12.7017   25.7364 C   0  0  2  0  0  0  0  0  0  0  0  0
    5.6732  -12.4382   26.5739 C   0  0  0  0  0  0  0  0  0  0  0  0
    7.2546  -14.1260   25.8694 C   0  0  0  0  0  0  0  0  0  0  0  0
    8.4463  -14.7391   25.2519 C   0  0  2  0  0  0  0  0  0  0  0  0
    8.0167  -15.0647   23.8633 N   0  0  0  0  0  0  0  0  0  0  0  0
    8.9527  -15.9864   25.8247 C   0  0  0  0  0  0  0  0  0  0  0  0
    9.0883  -16.1884   27.0675 O   0  0  0  0  0  0  0  0  0  0  0  0
    9.4052  -19.4686   24.6880 C   0  0  0  0  0  0  0  0  0  0  0  0
    9.8997  -18.3305   25.5906 C   0  0  2  0  0  0  0  0  0  0  0  0
    9.3499  -17.1152   25.0309 N   0  0  0  0  0  0  0  0  0  0  0  0
   11.3646  -18.3516   25.5738 C   0  0  0  0  0  0  0  0  0  0  0  0
   11.9725  -17.3936   25.0313 O   0  0  0  0  0  0  0  0  0  0  0  0
   12.0939  -19.3895   26.1344 O   0  0  0  0  0  0  0  0  0  0  0  0
  2  4  1  0
  2  1  1  1
  3  2  1  0
  4  6  1  0
  4  5  1  1
  6  7  2  0
  9  8  1  1
  9 11  1  0
  9 10  1  0
 12 11  1  1
 12 14  1  0
 13  6  1  0
 13 12  1  0
 14 15  2  0
 17 16  1  6
 17 19  1  0
 18 17  1  0
 18 14  1  0
 19 20  2  0
 19 21  1  0
M  END
$$$$
