VLA.pdb
     RDKit          3D

 21 20  0  0  1  0  0  0  0  0999 V2000
    9.6833  -17.7599   21.1584 C   0  0  0  0  0  0  0  0  0  0  0  0
    8.2631  -17.2932   21.1285 C   0  0  2  0  0  0  0  0  0  0  0  0
    7.6322  -17.5582   19.7834 C   0  0  0  0  0  0  0  0  0  0  0  0
    8.1312  -15.8105   21.4014 C   0  0  2  0  0  0  0  0  0  0  0  0
    8.9248  -15.1493   20.3603 N   0  0  0  0  0  0  0  0  0  0  0  0
    8.6235  -15.4149   22.7365 C   0  0  0  0  0  0  0  0  0  0  0  0
    9.8782  -15.2819   22.9195 O   0  0  0  0  0  0  0  0  0  0  0  0
    7.9654  -11.7255   25.8957 C   0  0  0  0  0  0  0  0  0  0  0  0
    6.9017  -12.7332   25.5782 C   0  0  2  0  0  0  0  0  0  0  0  0
    5.6765  -12.3656   26.4486 C   0  0  0  0  0  0  0  0  0  0  0  0
    7.2191  -14.1328   25.8627 C   0  0  0  0  0  0  0  0  0  0  0  0
    8.3276  -14.8439   25.1972 C   0  0  2  0  0  0  0  0  0  0  0  0
    7.7983  -15.1683   23.8431 N   0  0  0  0  0  0  0  0  0  0  0  0
    8.7760  -16.1115   25.7738 C   0  0  0  0  0  0  0  0  0  0  0  0
    8.0026  -17.0781   26.0407 O   0  0  0  0  0  0  0  0  0  0  0  0
   12.0401  -17.8299   26.0550 C   0  0  0  0  0  0  0  0  0  0  0  0
   10.6078  -17.6724   26.5825 C   0  0  2  0  0  0  0  0  0  0  0  0
   10.1471  -16.3898   26.0976 N   0  0  0  0  0  0  0  0  0  0  0  0
   10.6606  -17.7410   28.0451 C   0  0  0  0  0  0  0  0  0  0  0  0
   11.0241  -18.8182   28.5828 O   0  0  0  0  0  0  0  0  0  0  0  0
   10.3238  -16.6608   28.8469 O   0  0  0  0  0  0  0  0  0  0  0  0
  2  4  1  0
  2  1  1  6
  3  2  1  0
  4  6  1  0
  4  5  1  6
  6  7  2  0
  9  8  1  1
  9 11  1  0
  9 10  1  0
 12 11  1  1
 12 14  1  0
 13  6  1  0
 13 12  1  0
 14 15  2  0
 17 16  1  6
 17 19  1  0
 18 17  1  0
 18 14  1  0
 19 20  2  0
 19 21  1  0
M  END
$$$$
