VLA.pdb
     RDKit          3D

 21 20  0  0  1  0  0  0  0  0999 V2000
    8.0169  -18.1980   19.4876 C   0  0  0  0  0  0  0  0  0  0  0  0
    8.5487  -17.6200   20.7600 C   0  0  2  0  0  0  0  0  0  0  0  0
    7.9909  -18.3442   21.9608 C   0  0  0  0  0  0  0  0  0  0  0  0
    8.2074  -16.1546   20.9216 C   0  0  2  0  0  0  0  0  0  0  0  0
    8.8963  -15.4693   19.8232 N   0  0  0  0  0  0  0  0  0  0  0  0
    8.6412  -15.5918   22.2164 C   0  0  0  0  0  0  0  0  0  0  0  0
    9.8879  -15.4526   22.4447 O   0  0  0  0  0  0  0  0  0  0  0  0
    8.2049  -12.8412   27.0681 C   0  0  0  0  0  0  0  0  0  0  0  0
    7.3313  -12.6251   25.8690 C   0  0  2  0  0  0  0  0  0  0  0  0
    5.9399  -12.2173   26.4088 C   0  0  0  0  0  0  0  0  0  0  0  0
    7.1245  -13.7782   24.9925 C   0  0  0  0  0  0  0  0  0  0  0  0
    8.2358  -14.6362   24.5383 C   0  0  2  0  0  0  0  0  0  0  0  0
    7.7676  -15.1891   23.2368 N   0  0  0  0  0  0  0  0  0  0  0  0
    8.5968  -15.7885   25.3643 C   0  0  0  0  0  0  0  0  0  0  0  0
    7.7575  -16.6187   25.8228 O   0  0  0  0  0  0  0  0  0  0  0  0
   11.7329  -17.6515   25.9771 C   0  0  0  0  0  0  0  0  0  0  0  0
   10.3213  -17.2945   26.4614 C   0  0  2  0  0  0  0  0  0  0  0  0
    9.9476  -16.0970   25.7411 N   0  0  0  0  0  0  0  0  0  0  0  0
   10.3853  -17.0889   27.9107 C   0  0  0  0  0  0  0  0  0  0  0  0
   10.1936  -15.9307   28.3617 O   0  0  0  0  0  0  0  0  0  0  0  0
   10.6491  -18.1266   28.7921 O   0  0  0  0  0  0  0  0  0  0  0  0
  2  4  1  0
  2  1  1  6
  3  2  1  0
  4  6  1  0
  4  5  1  6
  6  7  2  0
  9  8  1  1
  9 11  1  0
  9 10  1  0
 12 11  1  1
 12 14  1  0
 13  6  1  0
 13 12  1  0
 14 15  2  0
 17 16  1  6
 17 19  1  0
 18 17  1  0
 18 14  1  0
 19 20  2  0
 19 21  1  0
M  END
$$$$
