VLA.pdb
     RDKit          3D

 21 20  0  0  1  0  0  0  0  0999 V2000
    7.2172  -16.9575   19.1744 C   0  0  0  0  0  0  0  0  0  0  0  0
    7.8406  -16.6840   20.5057 C   0  0  2  0  0  0  0  0  0  0  0  0
    7.3250  -17.6398   21.5537 C   0  0  0  0  0  0  0  0  0  0  0  0
    7.5627  -15.2817   21.0021 C   0  0  2  0  0  0  0  0  0  0  0  0
    8.1629  -14.3883   20.0059 N   0  0  0  0  0  0  0  0  0  0  0  0
    8.1376  -15.0078   22.3347 C   0  0  0  0  0  0  0  0  0  0  0  0
    9.4045  -14.9411   22.4609 O   0  0  0  0  0  0  0  0  0  0  0  0
    8.0380  -11.6582   26.0378 C   0  0  0  0  0  0  0  0  0  0  0  0
    6.8454  -12.4413   25.5770 C   0  0  2  0  0  0  0  0  0  0  0  0
    5.6805  -12.0614   26.5219 C   0  0  0  0  0  0  0  0  0  0  0  0
    6.9640  -13.8991   25.6155 C   0  0  0  0  0  0  0  0  0  0  0  0
    7.9888  -14.6301   24.8455 C   0  0  2  0  0  0  0  0  0  0  0  0
    7.3798  -14.8103   23.4980 N   0  0  0  0  0  0  0  0  0  0  0  0
    8.3690  -15.9667   25.3028 C   0  0  0  0  0  0  0  0  0  0  0  0
    7.5396  -16.8938   25.5405 O   0  0  0  0  0  0  0  0  0  0  0  0
   11.3802  -18.0393   25.1644 C   0  0  0  0  0  0  0  0  0  0  0  0
   10.1112  -17.6945   25.9551 C   0  0  2  0  0  0  0  0  0  0  0  0
    9.7297  -16.3656   25.5299 N   0  0  0  0  0  0  0  0  0  0  0  0
   10.4417  -17.7617   27.3810 C   0  0  0  0  0  0  0  0  0  0  0  0
   10.8148  -18.8633   27.8595 O   0  0  0  0  0  0  0  0  0  0  0  0
   10.3555  -16.6541   28.2111 O   0  0  0  0  0  0  0  0  0  0  0  0
  2  4  1  0
  2  1  1  6
  3  2  1  0
  4  6  1  0
  4  5  1  6
  6  7  2  0
  9  8  1  1
  9 11  1  0
  9 10  1  0
 12 11  1  1
 12 14  1  0
 13  6  1  0
 13 12  1  0
 14 15  2  0
 17 16  1  6
 17 19  1  0
 18 17  1  0
 18 14  1  0
 19 20  2  0
 19 21  1  0
M  END
$$$$
