VLA.pdb
     RDKit          3D

 21 20  0  0  1  0  0  0  0  0999 V2000
    7.2159  -13.1377   21.3127 C   0  0  0  0  0  0  0  0  0  0  0  0
    8.3056  -13.9668   20.7120 C   0  0  2  0  0  0  0  0  0  0  0  0
    7.9071  -14.4851   19.3518 C   0  0  0  0  0  0  0  0  0  0  0  0
    8.6610  -15.1668   21.5628 C   0  0  2  0  0  0  0  0  0  0  0  0
    7.4603  -16.0089   21.5718 N   0  0  0  0  0  0  0  0  0  0  0  0
    9.0374  -14.8127   22.9463 C   0  0  0  0  0  0  0  0  0  0  0  0
   10.1674  -14.2618   23.1590 O   0  0  0  0  0  0  0  0  0  0  0  0
    8.2698  -11.7650   26.3546 C   0  0  0  0  0  0  0  0  0  0  0  0
    7.1961  -12.7375   25.9687 C   0  0  2  0  0  0  0  0  0  0  0  0
    5.9904  -12.4486   26.8944 C   0  0  0  0  0  0  0  0  0  0  0  0
    7.5139  -14.1579   26.1178 C   0  0  0  0  0  0  0  0  0  0  0  0
    8.6816  -14.7801   25.4645 C   0  0  2  0  0  0  0  0  0  0  0  0
    8.2291  -15.0405   24.0694 N   0  0  0  0  0  0  0  0  0  0  0  0
    9.1582  -16.0620   25.9841 C   0  0  0  0  0  0  0  0  0  0  0  0
    9.3909  -16.2844   27.2089 O   0  0  0  0  0  0  0  0  0  0  0  0
    9.7627  -19.4751   24.5337 C   0  0  0  0  0  0  0  0  0  0  0  0
    9.9770  -18.4415   25.6474 C   0  0  2  0  0  0  0  0  0  0  0  0
    9.4120  -17.2051   25.1529 N   0  0  0  0  0  0  0  0  0  0  0  0
   11.4175  -18.3475   25.8980 C   0  0  0  0  0  0  0  0  0  0  0  0
   12.0090  -17.2767   25.6059 O   0  0  0  0  0  0  0  0  0  0  0  0
   12.1414  -19.3970   26.4437 O   0  0  0  0  0  0  0  0  0  0  0  0
  2  4  1  0
  2  1  1  1
  3  2  1  0
  4  6  1  0
  4  5  1  1
  6  7  2  0
  9  8  1  1
  9 11  1  0
  9 10  1  0
 12 11  1  1
 12 14  1  0
 13  6  1  0
 13 12  1  0
 14 15  2  0
 17 16  1  6
 17 19  1  0
 18 17  1  0
 18 14  1  0
 19 20  2  0
 19 21  1  0
M  END
$$$$
