VLA.pdb
     RDKit          3D

 21 20  0  0  1  0  0  0  0  0999 V2000
    7.5835  -12.4189   21.0903 C   0  0  0  0  0  0  0  0  0  0  0  0
    8.3500  -13.4542   20.3311 C   0  0  2  0  0  0  0  0  0  0  0  0
    7.7884  -13.6363   18.9422 C   0  0  0  0  0  0  0  0  0  0  0  0
    8.3257  -14.8085   21.0058 C   0  0  2  0  0  0  0  0  0  0  0  0
    6.9325  -15.2597   20.9267 N   0  0  0  0  0  0  0  0  0  0  0  0
    8.7620  -14.7677   22.4163 C   0  0  0  0  0  0  0  0  0  0  0  0
    9.9946  -14.5737   22.6779 O   0  0  0  0  0  0  0  0  0  0  0  0
    8.0509  -11.8828   26.0899 C   0  0  0  0  0  0  0  0  0  0  0  0
    6.9661  -12.7912   25.5940 C   0  0  2  0  0  0  0  0  0  0  0  0
    5.7346  -12.5348   26.4948 C   0  0  0  0  0  0  0  0  0  0  0  0
    7.2387  -14.2277   25.6478 C   0  0  0  0  0  0  0  0  0  0  0  0
    8.3686  -14.8460   24.9279 C   0  0  2  0  0  0  0  0  0  0  0  0
    7.9052  -14.9292   23.5146 N   0  0  0  0  0  0  0  0  0  0  0  0
    8.7659  -16.2021   25.3067 C   0  0  0  0  0  0  0  0  0  0  0  0
    7.9458  -17.1378   25.5425 O   0  0  0  0  0  0  0  0  0  0  0  0
   11.9567  -18.0971   25.0848 C   0  0  0  0  0  0  0  0  0  0  0  0
   10.5383  -17.9855   25.6593 C   0  0  2  0  0  0  0  0  0  0  0  0
   10.1346  -16.6122   25.4506 N   0  0  0  0  0  0  0  0  0  0  0  0
   10.6008  -18.3499   27.0770 C   0  0  0  0  0  0  0  0  0  0  0  0
   10.9001  -19.5333   27.3800 O   0  0  0  0  0  0  0  0  0  0  0  0
   10.3415  -17.4346   28.0861 O   0  0  0  0  0  0  0  0  0  0  0  0
  2  4  1  0
  2  1  1  1
  3  2  1  0
  4  6  1  0
  4  5  1  1
  6  7  2  0
  9  8  1  1
  9 11  1  0
  9 10  1  0
 12 11  1  1
 12 14  1  0
 13  6  1  0
 13 12  1  0
 14 15  2  0
 17 16  1  1
 17 19  1  0
 18 17  1  0
 18 14  1  0
 19 20  2  0
 19 21  1  0
M  END
$$$$
