LDH.pdb
     RDKit          3D

 27 27  0  0  1  0  0  0  0  0999 V2000
    6.1317  -12.1494   27.1404 C   0  0  0  0  0  0  0  0  0  0  0  0
    6.0410  -13.0134   25.9258 C   0  0  1  0  0  0  0  0  0  0  0  0
    6.1863  -12.1598   24.6869 C   0  0  0  0  0  0  0  0  0  0  0  0
    7.0435  -14.1249   25.9026 C   0  0  0  0  0  0  0  0  0  0  0  0
    6.8295  -15.0722   24.7526 C   0  0  2  0  0  0  0  0  0  0  0  0
    5.6476  -15.8625   25.0386 N   0  0  0  0  0  0  0  0  0  0  0  0
    7.9687  -16.0107   24.6320 C   0  0  0  0  0  0  0  0  0  0  0  0
    7.9659  -17.0870   25.2695 O   0  0  0  0  0  0  0  0  0  0  0  0
    9.1090  -15.7376   23.7950 N   0  0  0  0  0  0  0  0  0  0  0  0
   10.2169  -16.6527   23.6902 C   0  0  1  0  0  0  0  0  0  0  0  0
   11.1173  -16.3886   22.5238 C   0  0  0  0  0  0  0  0  0  0  0  0
   12.1699  -17.4034   22.3565 C   0  0  0  0  0  0  0  0  0  0  0  0
   11.9578  -18.3670   21.5794 O   0  0  0  0  0  0  0  0  0  0  0  0
   10.9992  -16.7241   24.9655 C   0  0  0  0  0  0  0  0  0  0  0  0
   11.4937  -15.6911   25.4844 O   0  0  0  0  0  0  0  0  0  0  0  0
   13.3909  -17.3652   23.0062 O   0  0  0  0  0  0  0  0  0  0  0  0
   11.2212  -17.9561   25.6504 N   0  0  0  0  0  0  0  0  0  0  0  0
   11.7935  -18.0064   26.9851 C   0  0  1  0  0  0  0  0  0  0  0  0
   10.7285  -17.5343   27.9424 C   0  0  0  0  0  0  0  0  0  0  0  0
   10.7406  -16.0904   28.1668 C   0  0  0  0  0  0  0  0  0  0  0  0
   11.5650  -15.1563   27.5888 C   0  0  0  0  0  0  0  0  0  0  0  0
   11.2149  -13.9645   28.0929 N   0  0  0  0  0  0  0  0  0  0  0  0
   10.2118  -14.1265   28.9549 C   0  0  0  0  0  0  0  0  0  0  0  0
    9.9204  -15.4369   28.9997 N   0  0  0  0  0  0  0  0  0  0  0  0
   12.2600  -19.3847   27.3134 C   0  0  0  0  0  0  0  0  0  0  0  0
   12.1240  -20.4287   26.4104 O   0  0  0  0  0  0  0  0  0  0  0  0
   12.7947  -19.6533   28.4217 O   0  0  0  0  0  0  0  0  0  0  0  0
  2  1  1  1
  2  3  1  0
  4  5  1  0
  4  2  1  0
  5  6  1  1
  7  5  1  0
  7  8  2  0
  9  7  1  0
 10  9  1  0
 10 11  1  6
 12 11  1  0
 13 12  2  0
 14 10  1  0
 15 14  2  0
 16 12  1  0
 17 14  1  0
 18 17  1  0
 18 25  1  0
 18 19  1  1
 20 19  1  0
 21 20  2  0
 22 21  1  0
 23 22  1  0
 23 24  2  0
 24 20  1  0
 25 26  1  0
 27 25  2  0
M  END
$$$$
