LDH.pdb
     RDKit          3D

 27 27  0  0  1  0  0  0  0  0999 V2000
    7.9805  -11.6003   25.8785 C   0  0  0  0  0  0  0  0  0  0  0  0
    7.0842  -12.7895   25.7664 C   0  0  1  0  0  0  0  0  0  0  0  0
    5.6548  -12.3703   26.0228 C   0  0  0  0  0  0  0  0  0  0  0  0
    7.1830  -13.4946   24.4497 C   0  0  0  0  0  0  0  0  0  0  0  0
    6.6342  -14.8952   24.5015 C   0  0  2  0  0  0  0  0  0  0  0  0
    5.7971  -15.0038   25.6808 N   0  0  0  0  0  0  0  0  0  0  0  0
    7.7312  -15.8793   24.6475 C   0  0  0  0  0  0  0  0  0  0  0  0
    7.9356  -16.4328   25.7505 O   0  0  0  0  0  0  0  0  0  0  0  0
    8.5963  -16.2394   23.5533 N   0  0  0  0  0  0  0  0  0  0  0  0
    9.5499  -17.3148   23.6548 C   0  0  1  0  0  0  0  0  0  0  0  0
   10.1171  -17.7525   22.3404 C   0  0  0  0  0  0  0  0  0  0  0  0
   10.3261  -16.6436   21.3958 C   0  0  0  0  0  0  0  0  0  0  0  0
   10.8186  -15.5717   21.8267 O   0  0  0  0  0  0  0  0  0  0  0  0
   10.6412  -16.9975   24.6304 C   0  0  0  0  0  0  0  0  0  0  0  0
   11.2807  -15.9170   24.5627 O   0  0  0  0  0  0  0  0  0  0  0  0
   10.0123  -16.7051   20.0496 O   0  0  0  0  0  0  0  0  0  0  0  0
   11.0076  -17.8962   25.6763 N   0  0  0  0  0  0  0  0  0  0  0  0
   12.1904  -17.6891   26.4946 C   0  0  1  0  0  0  0  0  0  0  0  0
   11.7248  -17.5611   27.9229 C   0  0  0  0  0  0  0  0  0  0  0  0
   11.0664  -16.2891   28.2129 C   0  0  0  0  0  0  0  0  0  0  0  0
   10.8295  -15.2484   27.3485 C   0  0  0  0  0  0  0  0  0  0  0  0
   10.2027  -14.2946   28.0517 N   0  0  0  0  0  0  0  0  0  0  0  0
   10.0447  -14.7045   29.3097 C   0  0  0  0  0  0  0  0  0  0  0  0
   10.5773  -15.9337   29.4078 N   0  0  0  0  0  0  0  0  0  0  0  0
   13.1577  -18.8123   26.3273 C   0  0  0  0  0  0  0  0  0  0  0  0
   14.3670  -18.8327   27.0061 O   0  0  0  0  0  0  0  0  0  0  0  0
   12.9138  -19.7842   25.5642 O   0  0  0  0  0  0  0  0  0  0  0  0
  2  1  1  6
  2  3  1  0
  4  5  1  0
  4  2  1  0
  5  6  1  1
  7  5  1  0
  7  8  2  0
  9  7  1  0
 10  9  1  0
 10 11  1  6
 12 11  1  0
 13 12  2  0
 14 10  1  0
 15 14  2  0
 16 12  1  0
 17 14  1  0
 18 17  1  0
 18 25  1  0
 18 19  1  1
 20 19  1  0
 21 20  2  0
 22 21  1  0
 23 22  1  0
 23 24  2  0
 24 20  1  0
 25 26  1  0
 27 25  2  0
M  END
$$$$
