LDH.pdb
     RDKit          3D

 27 27  0  0  1  0  0  0  0  0999 V2000
    7.0922  -12.1248   19.6261 C   0  0  0  0  0  0  0  0  0  0  0  0
    7.7638  -13.3944   19.2170 C   0  0  1  0  0  0  0  0  0  0  0  0
    8.9879  -13.0744   18.3901 C   0  0  0  0  0  0  0  0  0  0  0  0
    8.1390  -14.2741   20.3686 C   0  0  0  0  0  0  0  0  0  0  0  0
    8.8321  -15.5361   19.9299 C   0  0  2  0  0  0  0  0  0  0  0  0
    7.8651  -16.3550   19.2246 N   0  0  0  0  0  0  0  0  0  0  0  0
    9.2939  -16.3118   21.1039 C   0  0  0  0  0  0  0  0  0  0  0  0
    8.5022  -17.0699   21.7066 O   0  0  0  0  0  0  0  0  0  0  0  0
   10.6448  -16.2337   21.5982 N   0  0  0  0  0  0  0  0  0  0  0  0
   11.0566  -16.9029   22.8060 C   0  0  1  0  0  0  0  0  0  0  0  0
   12.5186  -17.2208   22.8585 C   0  0  0  0  0  0  0  0  0  0  0  0
   12.9053  -17.9979   24.0468 C   0  0  0  0  0  0  0  0  0  0  0  0
   12.0052  -18.3760   24.8368 O   0  0  0  0  0  0  0  0  0  0  0  0
   10.6272  -16.1527   24.0292 C   0  0  0  0  0  0  0  0  0  0  0  0
   10.5421  -14.8982   24.0267 O   0  0  0  0  0  0  0  0  0  0  0  0
   14.2095  -18.3431   24.3541 O   0  0  0  0  0  0  0  0  0  0  0  0
   10.2958  -16.8165   25.2479 N   0  0  0  0  0  0  0  0  0  0  0  0
    9.5563  -16.1574   26.3110 C   0  0  1  0  0  0  0  0  0  0  0  0
    8.2627  -15.6656   25.7125 C   0  0  0  0  0  0  0  0  0  0  0  0
    7.8880  -14.3225   26.1497 C   0  0  0  0  0  0  0  0  0  0  0  0
    8.5879  -13.4828   26.9812 C   0  0  0  0  0  0  0  0  0  0  0  0
    7.8631  -12.3614   27.1002 N   0  0  0  0  0  0  0  0  0  0  0  0
    6.7491  -12.4763   26.3782 C   0  0  0  0  0  0  0  0  0  0  0  0
    6.7655  -13.6852   25.7929 N   0  0  0  0  0  0  0  0  0  0  0  0
    9.3185  -17.0888   27.4517 C   0  0  0  0  0  0  0  0  0  0  0  0
    9.2744  -16.6328   28.7608 O   0  0  0  0  0  0  0  0  0  0  0  0
    9.1487  -18.3236   27.2702 O   0  0  0  0  0  0  0  0  0  0  0  0
  2  1  1  1
  2  3  1  0
  4  5  1  0
  4  2  1  0
  5  6  1  1
  7  5  1  0
  7  8  2  0
  9  7  1  0
 10  9  1  0
 10 11  1  6
 12 11  1  0
 13 12  2  0
 14 10  1  0
 15 14  2  0
 16 12  1  0
 17 14  1  0
 18 17  1  0
 18 25  1  0
 18 19  1  6
 20 19  1  0
 21 20  2  0
 22 21  1  0
 23 22  1  0
 23 24  2  0
 24 20  1  0
 25 26  1  0
 27 25  2  0
M  END
$$$$
