LDH.pdb
     RDKit          3D

 27 27  0  0  1  0  0  0  0  0999 V2000
    8.7818  -12.4013   21.3418 C   0  0  0  0  0  0  0  0  0  0  0  0
    8.0492  -13.3704   20.4732 C   0  0  1  0  0  0  0  0  0  0  0  0
    7.5973  -12.6744   19.2098 C   0  0  0  0  0  0  0  0  0  0  0  0
    8.8454  -14.5904   20.1293 C   0  0  0  0  0  0  0  0  0  0  0  0
    7.9904  -15.7054   19.5897 C   0  0  2  0  0  0  0  0  0  0  0  0
    6.9887  -16.0241   20.5889 N   0  0  0  0  0  0  0  0  0  0  0  0
    8.8012  -16.9257   19.3736 C   0  0  0  0  0  0  0  0  0  0  0  0
    8.6699  -17.9099   20.1344 O   0  0  0  0  0  0  0  0  0  0  0  0
    9.7582  -17.0373   18.3025 N   0  0  0  0  0  0  0  0  0  0  0  0
   10.5250  -18.2375   18.0846 C   0  0  1  0  0  0  0  0  0  0  0  0
   10.9474  -18.4412   16.6630 C   0  0  0  0  0  0  0  0  0  0  0  0
   11.6883  -19.6943   16.4473 C   0  0  0  0  0  0  0  0  0  0  0  0
   11.2890  -20.7357   17.0247 O   0  0  0  0  0  0  0  0  0  0  0  0
   11.7001  -18.3199   19.0098 C   0  0  0  0  0  0  0  0  0  0  0  0
   12.5518  -19.2383   18.8998 O   0  0  0  0  0  0  0  0  0  0  0  0
   12.8080  -19.8016   15.6416 O   0  0  0  0  0  0  0  0  0  0  0  0
   11.9111  -17.3699   20.0532 N   0  0  0  0  0  0  0  0  0  0  0  0
   13.0268  -17.4730   20.9786 C   0  0  1  0  0  0  0  0  0  0  0  0
   14.2907  -17.3791   20.1619 C   0  0  0  0  0  0  0  0  0  0  0  0
   14.4057  -16.1370   19.4007 C   0  0  0  0  0  0  0  0  0  0  0  0
   13.3904  -15.3252   18.9573 C   0  0  0  0  0  0  0  0  0  0  0  0
   13.9659  -14.3036   18.3075 N   0  0  0  0  0  0  0  0  0  0  0  0
   15.2897  -14.4530   18.3329 C   0  0  0  0  0  0  0  0  0  0  0  0
   15.5596  -15.5831   19.0068 N   0  0  0  0  0  0  0  0  0  0  0  0
   12.9588  -16.4037   22.0166 C   0  0  0  0  0  0  0  0  0  0  0  0
   11.8846  -15.5291   22.0848 O   0  0  0  0  0  0  0  0  0  0  0  0
   13.8732  -16.2542   22.8698 O   0  0  0  0  0  0  0  0  0  0  0  0
  2  1  1  1
  2  3  1  0
  4  5  1  0
  4  2  1  0
  5  6  1  1
  7  5  1  0
  7  8  2  0
  9  7  1  0
 10  9  1  0
 10 11  1  6
 12 11  1  0
 13 12  2  0
 14 10  1  0
 15 14  2  0
 16 12  1  0
 17 14  1  0
 18 17  1  0
 18 25  1  0
 18 19  1  6
 20 19  1  0
 21 20  2  0
 22 21  1  0
 23 22  1  0
 23 24  2  0
 24 20  1  0
 25 26  1  0
 27 25  2  0
M  END
$$$$
