LDH.pdb
     RDKit          3D

 27 27  0  0  1  0  0  0  0  0999 V2000
    8.9781  -12.1817   18.9152 C   0  0  0  0  0  0  0  0  0  0  0  0
    8.6026  -13.5234   19.4528 C   0  0  1  0  0  0  0  0  0  0  0  0
    7.4931  -13.3684   20.4674 C   0  0  0  0  0  0  0  0  0  0  0  0
    8.1969  -14.5025   18.3956 C   0  0  0  0  0  0  0  0  0  0  0  0
    9.3610  -14.9703   17.5639 C   0  0  2  0  0  0  0  0  0  0  0  0
    8.8786  -15.9919   16.6546 N   0  0  0  0  0  0  0  0  0  0  0  0
   10.3952  -15.5951   18.4202 C   0  0  0  0  0  0  0  0  0  0  0  0
   10.1254  -16.6203   19.0842 O   0  0  0  0  0  0  0  0  0  0  0  0
   11.7308  -15.0661   18.5286 N   0  0  0  0  0  0  0  0  0  0  0  0
   12.7408  -15.7003   19.3372 C   0  0  1  0  0  0  0  0  0  0  0  0
   14.1234  -15.6049   18.7712 C   0  0  0  0  0  0  0  0  0  0  0  0
   14.6012  -14.2206   18.6260 C   0  0  0  0  0  0  0  0  0  0  0  0
   13.8414  -13.3754   18.0916 O   0  0  0  0  0  0  0  0  0  0  0  0
   12.7062  -15.2103   20.7522 C   0  0  0  0  0  0  0  0  0  0  0  0
   11.9883  -14.2333   21.0852 O   0  0  0  0  0  0  0  0  0  0  0  0
   15.8460  -13.7844   19.0441 O   0  0  0  0  0  0  0  0  0  0  0  0
   13.4784  -15.8213   21.7848 N   0  0  0  0  0  0  0  0  0  0  0  0
   12.8644  -16.4227   22.9565 C   0  0  1  0  0  0  0  0  0  0  0  0
   11.8340  -17.4061   22.4619 C   0  0  0  0  0  0  0  0  0  0  0  0
   10.4582  -16.9340   22.6029 C   0  0  0  0  0  0  0  0  0  0  0  0
   10.0269  -15.7519   23.1532 C   0  0  0  0  0  0  0  0  0  0  0  0
    8.6891  -15.7489   23.0673 N   0  0  0  0  0  0  0  0  0  0  0  0
    8.2808  -16.8774   22.4884 C   0  0  0  0  0  0  0  0  0  0  0  0
    9.3718  -17.6070   22.2027 N   0  0  0  0  0  0  0  0  0  0  0  0
   13.8896  -17.0821   23.8164 C   0  0  0  0  0  0  0  0  0  0  0  0
   13.8217  -17.0193   25.2002 O   0  0  0  0  0  0  0  0  0  0  0  0
   14.8550  -17.7204   23.3195 O   0  0  0  0  0  0  0  0  0  0  0  0
  2  1  1  6
  2  3  1  0
  4  5  1  0
  4  2  1  0
  5  6  1  6
  7  5  1  0
  7  8  2  0
  9  7  1  0
 10  9  1  0
 10 11  1  6
 12 11  1  0
 13 12  2  0
 14 10  1  0
 15 14  2  0
 16 12  1  0
 17 14  1  0
 18 17  1  0
 18 25  1  0
 18 19  1  6
 20 19  1  0
 21 20  2  0
 22 21  1  0
 23 22  1  0
 23 24  2  0
 24 20  1  0
 25 26  1  0
 27 25  2  0
M  END
$$$$
