LDH.pdb
     RDKit          3D

 27 27  0  0  1  0  0  0  0  0999 V2000
    8.6045  -11.9246   19.6014 C   0  0  0  0  0  0  0  0  0  0  0  0
    7.9661  -13.2681   19.4686 C   0  0  1  0  0  0  0  0  0  0  0  0
    7.5664  -13.4972   18.0290 C   0  0  0  0  0  0  0  0  0  0  0  0
    8.8298  -14.3937   19.9459 C   0  0  0  0  0  0  0  0  0  0  0  0
    8.1093  -15.7153   19.9453 C   0  0  2  0  0  0  0  0  0  0  0  0
    6.9685  -15.6027   20.8336 N   0  0  0  0  0  0  0  0  0  0  0  0
    8.9821  -16.7846   20.4820 C   0  0  0  0  0  0  0  0  0  0  0  0
    9.0717  -16.9612   21.7172 O   0  0  0  0  0  0  0  0  0  0  0  0
    9.7525  -17.6533   19.6292 N   0  0  0  0  0  0  0  0  0  0  0  0
   10.6888  -18.6113   20.1599 C   0  0  1  0  0  0  0  0  0  0  0  0
   10.8608  -19.8311   19.3093 C   0  0  0  0  0  0  0  0  0  0  0  0
   11.7621  -20.8332   19.9000 C   0  0  0  0  0  0  0  0  0  0  0  0
   11.4183  -21.3946   20.9696 O   0  0  0  0  0  0  0  0  0  0  0  0
   12.0126  -17.9810   20.4665 C   0  0  0  0  0  0  0  0  0  0  0  0
   12.8464  -17.7429   19.5561 O   0  0  0  0  0  0  0  0  0  0  0  0
   12.9765  -21.2014   19.3486 O   0  0  0  0  0  0  0  0  0  0  0  0
   12.3914  -17.6220   21.7944 N   0  0  0  0  0  0  0  0  0  0  0  0
   13.6394  -16.9361   22.0836 C   0  0  1  0  0  0  0  0  0  0  0  0
   13.3976  -15.4640   21.8647 C   0  0  0  0  0  0  0  0  0  0  0  0
   13.6235  -15.0315   20.4872 C   0  0  0  0  0  0  0  0  0  0  0  0
   12.8740  -14.1481   19.7495 C   0  0  0  0  0  0  0  0  0  0  0  0
   13.4554  -14.0572   18.5449 N   0  0  0  0  0  0  0  0  0  0  0  0
   14.5286  -14.8462   18.5114 C   0  0  0  0  0  0  0  0  0  0  0  0
   14.6312  -15.4460   19.7088 N   0  0  0  0  0  0  0  0  0  0  0  0
   14.0938  -17.2204   23.4757 C   0  0  0  0  0  0  0  0  0  0  0  0
   13.3814  -18.0691   24.3099 O   0  0  0  0  0  0  0  0  0  0  0  0
   15.1404  -16.7015   23.9465 O   0  0  0  0  0  0  0  0  0  0  0  0
  2  1  1  6
  2  3  1  0
  4  5  1  0
  4  2  1  0
  5  6  1  1
  7  5  1  0
  7  8  2  0
  9  7  1  0
 10  9  1  0
 10 11  1  6
 12 11  1  0
 13 12  2  0
 14 10  1  0
 15 14  2  0
 16 12  1  0
 17 14  1  0
 18 17  1  0
 18 25  1  0
 18 19  1  1
 20 19  1  0
 21 20  2  0
 22 21  1  0
 23 22  1  0
 23 24  2  0
 24 20  1  0
 25 26  1  0
 27 25  2  0
M  END
$$$$
