LDH.pdb
     RDKit          3D

 27 27  0  0  1  0  0  0  0  0999 V2000
    7.1868  -12.7292   20.6679 C   0  0  0  0  0  0  0  0  0  0  0  0
    7.7139  -13.3882   19.4358 C   0  0  1  0  0  0  0  0  0  0  0  0
    7.7607  -12.3843   18.3068 C   0  0  0  0  0  0  0  0  0  0  0  0
    9.0603  -14.0162   19.6192 C   0  0  0  0  0  0  0  0  0  0  0  0
    9.5582  -14.6912   18.3694 C   0  0  2  0  0  0  0  0  0  0  0  0
    8.6640  -15.7931   18.0701 N   0  0  0  0  0  0  0  0  0  0  0  0
   10.9060  -15.2643   18.5886 C   0  0  0  0  0  0  0  0  0  0  0  0
   11.0296  -16.4111   19.0729 O   0  0  0  0  0  0  0  0  0  0  0  0
   12.1124  -14.5473   18.2631 N   0  0  0  0  0  0  0  0  0  0  0  0
   13.4198  -15.0831   18.5453 C   0  0  1  0  0  0  0  0  0  0  0  0
   14.5357  -14.3631   17.8545 C   0  0  0  0  0  0  0  0  0  0  0  0
   15.8304  -15.0550   17.9582 C   0  0  0  0  0  0  0  0  0  0  0  0
   16.8736  -14.3647   18.0699 O   0  0  0  0  0  0  0  0  0  0  0  0
   13.6739  -15.1775   20.0184 C   0  0  0  0  0  0  0  0  0  0  0  0
   13.6548  -14.1543   20.7489 O   0  0  0  0  0  0  0  0  0  0  0  0
   15.9753  -16.4309   17.9405 O   0  0  0  0  0  0  0  0  0  0  0  0
   13.9479  -16.4211   20.6620 N   0  0  0  0  0  0  0  0  0  0  0  0
   14.2157  -16.5114   22.0874 C   0  0  1  0  0  0  0  0  0  0  0  0
   13.2286  -17.4952   22.6628 C   0  0  0  0  0  0  0  0  0  0  0  0
   11.8947  -16.9348   22.8681 C   0  0  0  0  0  0  0  0  0  0  0  0
   11.5222  -15.6135   22.8276 C   0  0  0  0  0  0  0  0  0  0  0  0
   10.2050  -15.5737   23.0735 N   0  0  0  0  0  0  0  0  0  0  0  0
    9.7531  -16.8128   23.2632 C   0  0  0  0  0  0  0  0  0  0  0  0
   10.7952  -17.6507   23.1364 N   0  0  0  0  0  0  0  0  0  0  0  0
   15.6249  -16.9311   22.3393 C   0  0  0  0  0  0  0  0  0  0  0  0
   16.5200  -17.1222   21.2973 O   0  0  0  0  0  0  0  0  0  0  0  0
   16.0555  -17.1277   23.5065 O   0  0  0  0  0  0  0  0  0  0  0  0
  2  1  1  1
  2  3  1  0
  4  5  1  0
  4  2  1  0
  5  6  1  1
  7  5  1  0
  7  8  2  0
  9  7  1  0
 10  9  1  0
 10 11  1  6
 12 11  1  0
 13 12  2  0
 14 10  1  0
 15 14  2  0
 16 12  1  0
 17 14  1  0
 18 17  1  0
 18 25  1  0
 18 19  1  6
 20 19  1  0
 21 20  2  0
 22 21  1  0
 23 22  1  0
 23 24  2  0
 24 20  1  0
 25 26  1  0
 27 25  2  0
M  END
$$$$
