LDH.pdb
     RDKit          3D

 27 27  0  0  1  0  0  0  0  0999 V2000
    7.2455  -12.0951   19.8362 C   0  0  0  0  0  0  0  0  0  0  0  0
    8.0432  -13.2484   19.3227 C   0  0  1  0  0  0  0  0  0  0  0  0
    9.3918  -12.7580   18.8478 C   0  0  0  0  0  0  0  0  0  0  0  0
    8.2210  -14.3486   20.3220 C   0  0  0  0  0  0  0  0  0  0  0  0
    9.0209  -15.5011   19.7765 C   0  0  2  0  0  0  0  0  0  0  0  0
    8.2093  -16.1782   18.7836 N   0  0  0  0  0  0  0  0  0  0  0  0
    9.3180  -16.4814   20.8460 C   0  0  0  0  0  0  0  0  0  0  0  0
    8.4093  -17.2132   21.2972 O   0  0  0  0  0  0  0  0  0  0  0  0
   10.6360  -16.6372   21.4064 N   0  0  0  0  0  0  0  0  0  0  0  0
   10.9055  -17.5579   22.4815 C   0  0  1  0  0  0  0  0  0  0  0  0
   12.2519  -18.2077   22.4043 C   0  0  0  0  0  0  0  0  0  0  0  0
   12.5058  -19.1578   23.4991 C   0  0  0  0  0  0  0  0  0  0  0  0
   11.7239  -20.1297   23.6450 O   0  0  0  0  0  0  0  0  0  0  0  0
   10.6931  -16.9227   23.8213 C   0  0  0  0  0  0  0  0  0  0  0  0
   11.4706  -16.0324   24.2500 O   0  0  0  0  0  0  0  0  0  0  0  0
   13.5608  -19.0493   24.3878 O   0  0  0  0  0  0  0  0  0  0  0  0
    9.6083  -17.2918   24.6715 N   0  0  0  0  0  0  0  0  0  0  0  0
    9.4855  -16.7906   26.0299 C   0  0  1  0  0  0  0  0  0  0  0  0
    8.0687  -16.3025   26.1963 C   0  0  0  0  0  0  0  0  0  0  0  0
    7.8455  -14.9591   25.6663 C   0  0  0  0  0  0  0  0  0  0  0  0
    8.7673  -14.1169   25.0941 C   0  0  0  0  0  0  0  0  0  0  0  0
    8.1130  -12.9962   24.7578 N   0  0  0  0  0  0  0  0  0  0  0  0
    6.8303  -13.1139   25.0986 C   0  0  0  0  0  0  0  0  0  0  0  0
    6.6666  -14.3239   25.6584 N   0  0  0  0  0  0  0  0  0  0  0  0
    9.8247  -17.8515   27.0222 C   0  0  0  0  0  0  0  0  0  0  0  0
    9.8634  -17.5838   28.3825 O   0  0  0  0  0  0  0  0  0  0  0  0
   10.0885  -19.0297   26.6634 O   0  0  0  0  0  0  0  0  0  0  0  0
  2  1  1  1
  2  3  1  0
  4  5  1  0
  4  2  1  0
  5  6  1  6
  7  5  1  0
  7  8  2  0
  9  7  1  0
 10  9  1  0
 10 11  1  1
 12 11  1  0
 13 12  2  0
 14 10  1  0
 15 14  2  0
 16 12  1  0
 17 14  1  0
 18 17  1  0
 18 25  1  0
 18 19  1  1
 20 19  1  0
 21 20  2  0
 22 21  1  0
 23 22  1  0
 23 24  2  0
 24 20  1  0
 25 26  1  0
 27 25  2  0
M  END
$$$$
