LDH.pdb
     RDKit          3D

 27 27  0  0  1  0  0  0  0  0999 V2000
    6.4804  -12.8720   19.7415 C   0  0  0  0  0  0  0  0  0  0  0  0
    7.8210  -13.4125   19.3662 C   0  0  1  0  0  0  0  0  0  0  0  0
    8.6271  -12.3327   18.6815 C   0  0  0  0  0  0  0  0  0  0  0  0
    8.5897  -13.9699   20.5234 C   0  0  0  0  0  0  0  0  0  0  0  0
    9.9253  -14.5302   20.1138 C   0  0  2  0  0  0  0  0  0  0  0  0
    9.7772  -15.1221   18.7982 N   0  0  0  0  0  0  0  0  0  0  0  0
   10.3432  -15.6091   21.0382 C   0  0  0  0  0  0  0  0  0  0  0  0
   10.3272  -15.4182   22.2743 O   0  0  0  0  0  0  0  0  0  0  0  0
   10.7782  -16.9007   20.5712 N   0  0  0  0  0  0  0  0  0  0  0  0
   11.3616  -17.8767   21.4561 C   0  0  1  0  0  0  0  0  0  0  0  0
   11.2143  -19.2904   20.9863 C   0  0  0  0  0  0  0  0  0  0  0  0
   11.2995  -20.2792   22.0729 C   0  0  0  0  0  0  0  0  0  0  0  0
   11.6574  -19.8907   23.2124 O   0  0  0  0  0  0  0  0  0  0  0  0
   12.7931  -17.5606   21.7632 C   0  0  0  0  0  0  0  0  0  0  0  0
   13.5922  -18.4571   22.1355 O   0  0  0  0  0  0  0  0  0  0  0  0
   11.0082  -21.6231   21.9200 O   0  0  0  0  0  0  0  0  0  0  0  0
   13.3184  -16.2387   21.6501 N   0  0  0  0  0  0  0  0  0  0  0  0
   14.6847  -15.9152   22.0240 C   0  0  1  0  0  0  0  0  0  0  0  0
   15.0314  -14.6106   21.3523 C   0  0  0  0  0  0  0  0  0  0  0  0
   15.1969  -14.7226   19.9047 C   0  0  0  0  0  0  0  0  0  0  0  0
   15.0672  -15.8479   19.1280 C   0  0  0  0  0  0  0  0  0  0  0  0
   15.3083  -15.4761   17.8627 N   0  0  0  0  0  0  0  0  0  0  0  0
   15.5801  -14.1721   17.8292 C   0  0  0  0  0  0  0  0  0  0  0  0
   15.5112  -13.7088   19.0881 N   0  0  0  0  0  0  0  0  0  0  0  0
   14.8252  -15.8278   23.5066 C   0  0  0  0  0  0  0  0  0  0  0  0
   13.7675  -16.1275   24.3523 O   0  0  0  0  0  0  0  0  0  0  0  0
   15.9082  -15.4791   24.0468 O   0  0  0  0  0  0  0  0  0  0  0  0
  2  1  1  1
  2  3  1  0
  4  5  1  0
  4  2  1  0
  5  6  1  6
  7  5  1  0
  7  8  2  0
  9  7  1  0
 10  9  1  0
 10 11  1  6
 12 11  1  0
 13 12  2  0
 14 10  1  0
 15 14  2  0
 16 12  1  0
 17 14  1  0
 18 17  1  0
 18 25  1  0
 18 19  1  6
 20 19  1  0
 21 20  2  0
 22 21  1  0
 23 22  1  0
 23 24  2  0
 24 20  1  0
 25 26  1  0
 27 25  2  0
M  END
$$$$
