LDH.pdb
     RDKit          3D

 27 27  0  0  1  0  0  0  0  0999 V2000
    8.3330  -11.2905   19.9672 C   0  0  0  0  0  0  0  0  0  0  0  0
    8.4856  -12.7526   20.2302 C   0  0  1  0  0  0  0  0  0  0  0  0
    7.1280  -13.3626   20.4940 C   0  0  0  0  0  0  0  0  0  0  0  0
    9.1742  -13.4932   19.1265 C   0  0  0  0  0  0  0  0  0  0  0  0
    9.3415  -14.9579   19.4298 C   0  0  2  0  0  0  0  0  0  0  0  0
    9.3973  -15.1124   20.8708 N   0  0  0  0  0  0  0  0  0  0  0  0
   10.6227  -15.4601   18.8827 C   0  0  0  0  0  0  0  0  0  0  0  0
   10.8155  -15.4739   17.6468 O   0  0  0  0  0  0  0  0  0  0  0  0
   11.6850  -15.9460   19.7260 N   0  0  0  0  0  0  0  0  0  0  0  0
   13.0545  -15.9916   19.2804 C   0  0  1  0  0  0  0  0  0  0  0  0
   13.5221  -14.7331   18.6182 C   0  0  0  0  0  0  0  0  0  0  0  0
   14.8833  -14.8333   18.0681 C   0  0  0  0  0  0  0  0  0  0  0  0
   15.2508  -15.9253   17.5683 O   0  0  0  0  0  0  0  0  0  0  0  0
   13.9834  -16.3931   20.3847 C   0  0  0  0  0  0  0  0  0  0  0  0
   14.1224  -15.6788   21.4101 O   0  0  0  0  0  0  0  0  0  0  0  0
   15.7947  -13.7922   18.0653 O   0  0  0  0  0  0  0  0  0  0  0  0
   14.7506  -17.5949   20.3303 N   0  0  0  0  0  0  0  0  0  0  0  0
   15.6652  -17.9769   21.3928 C   0  0  1  0  0  0  0  0  0  0  0  0
   15.6145  -19.4798   21.5028 C   0  0  0  0  0  0  0  0  0  0  0  0
   14.3893  -19.9811   22.1217 C   0  0  0  0  0  0  0  0  0  0  0  0
   13.6256  -19.3733   23.0880 C   0  0  0  0  0  0  0  0  0  0  0  0
   12.6016  -20.1981   23.3493 N   0  0  0  0  0  0  0  0  0  0  0  0
   12.7036  -21.2852   22.5856 C   0  0  0  0  0  0  0  0  0  0  0  0
   13.8056  -21.1504   21.8295 N   0  0  0  0  0  0  0  0  0  0  0  0
   17.0462  -17.4900   21.1080 C   0  0  0  0  0  0  0  0  0  0  0  0
   18.0902  -17.7177   21.9923 O   0  0  0  0  0  0  0  0  0  0  0  0
   17.3170  -16.8541   20.0551 O   0  0  0  0  0  0  0  0  0  0  0  0
  2  1  1  6
  2  3  1  0
  4  5  1  0
  4  2  1  0
  5  6  1  1
  7  5  1  0
  7  8  2  0
  9  7  1  0
 10  9  1  0
 10 11  1  1
 12 11  1  0
 13 12  2  0
 14 10  1  0
 15 14  2  0
 16 12  1  0
 17 14  1  0
 18 17  1  0
 18 25  1  0
 18 19  1  6
 20 19  1  0
 21 20  2  0
 22 21  1  0
 23 22  1  0
 23 24  2  0
 24 20  1  0
 25 26  1  0
 27 25  2  0
M  END
$$$$
