LDH.pdb
     RDKit          3D

 27 27  0  0  1  0  0  0  0  0999 V2000
    7.4684  -12.0325   20.0883 C   0  0  0  0  0  0  0  0  0  0  0  0
    7.9821  -13.3080   19.5056 C   0  0  1  0  0  0  0  0  0  0  0  0
    9.0627  -13.0019   18.4940 C   0  0  0  0  0  0  0  0  0  0  0  0
    8.4965  -14.2719   20.5289 C   0  0  0  0  0  0  0  0  0  0  0  0
    8.9671  -15.5652   19.9194 C   0  0  2  0  0  0  0  0  0  0  0  0
    7.8200  -16.2214   19.3222 N   0  0  0  0  0  0  0  0  0  0  0  0
    9.4984  -16.4704   20.9641 C   0  0  0  0  0  0  0  0  0  0  0  0
    8.7200  -17.1977   21.6199 O   0  0  0  0  0  0  0  0  0  0  0  0
   10.9036  -16.5564   21.2697 N   0  0  0  0  0  0  0  0  0  0  0  0
   11.4148  -17.4611   22.2679 C   0  0  1  0  0  0  0  0  0  0  0  0
   12.8618  -17.8040   22.0958 C   0  0  0  0  0  0  0  0  0  0  0  0
   13.1081  -19.2488   21.9631 C   0  0  0  0  0  0  0  0  0  0  0  0
   12.5300  -20.0325   22.7561 O   0  0  0  0  0  0  0  0  0  0  0  0
   11.1426  -16.9666   23.6553 C   0  0  0  0  0  0  0  0  0  0  0  0
   11.7778  -15.9937   24.1357 O   0  0  0  0  0  0  0  0  0  0  0  0
   13.9439  -19.8063   21.0117 O   0  0  0  0  0  0  0  0  0  0  0  0
   10.1582  -17.5684   24.4948 N   0  0  0  0  0  0  0  0  0  0  0  0
    9.9457  -17.1397   25.8668 C   0  0  1  0  0  0  0  0  0  0  0  0
    8.4572  -16.9992   26.0622 C   0  0  0  0  0  0  0  0  0  0  0  0
    7.9044  -15.7729   25.4911 C   0  0  0  0  0  0  0  0  0  0  0  0
    8.5807  -14.7655   24.8476 C   0  0  0  0  0  0  0  0  0  0  0  0
    7.6685  -13.8478   24.4970 N   0  0  0  0  0  0  0  0  0  0  0  0
    6.4622  -14.2481   24.8974 C   0  0  0  0  0  0  0  0  0  0  0  0
    6.6088  -15.4345   25.5098 N   0  0  0  0  0  0  0  0  0  0  0  0
   10.5396  -18.1140   26.8278 C   0  0  0  0  0  0  0  0  0  0  0  0
   10.6554  -17.8191   28.1780 O   0  0  0  0  0  0  0  0  0  0  0  0
   10.9581  -19.2404   26.4504 O   0  0  0  0  0  0  0  0  0  0  0  0
  2  1  1  1
  2  3  1  0
  4  5  1  0
  4  2  1  0
  5  6  1  1
  7  5  1  0
  7  8  2  0
  9  7  1  0
 10  9  1  0
 10 11  1  6
 12 11  1  0
 13 12  2  0
 14 10  1  0
 15 14  2  0
 16 12  1  0
 17 14  1  0
 18 17  1  0
 18 25  1  0
 18 19  1  1
 20 19  1  0
 21 20  2  0
 22 21  1  0
 23 22  1  0
 23 24  2  0
 24 20  1  0
 25 26  1  0
 27 25  2  0
M  END
$$$$
