HPT.pdb
     RDKit          3D

 25 26  0  0  1  0  0  0  0  0999 V2000
   25.6694  -19.1304  -17.7085 N   0  0  0  0  0  0  0  0  0  0  0  0
   25.7360  -18.9226  -16.2813 C   0  0  1  0  0  0  0  0  0  0  0  0
   24.5258  -18.1493  -15.7848 C   0  0  0  0  0  0  0  0  0  0  0  0
   24.7682  -16.6885  -15.7002 C   0  0  0  0  0  0  0  0  0  0  0  0
   25.9457  -16.0793  -15.3277 C   0  0  0  0  0  0  0  0  0  0  0  0
   25.8329  -14.7457  -15.3627 N   0  0  0  0  0  0  0  0  0  0  0  0
   24.5677  -14.4915  -15.7626 C   0  0  0  0  0  0  0  0  0  0  0  0
   23.9264  -15.6599  -15.9659 N   0  0  0  0  0  0  0  0  0  0  0  0
   25.9620  -20.1507  -15.5053 C   0  0  0  0  0  0  0  0  0  0  0  0
   25.2885  -21.1625  -15.8366 O   0  0  0  0  0  0  0  0  0  0  0  0
   26.8863  -20.2773  -14.4058 N   0  0  0  0  0  0  0  0  0  0  0  0
   27.6617  -19.1742  -13.9285 C   0  0  0  0  0  0  0  0  0  0  0  0
   28.4998  -19.7285  -12.8070 C   0  0  0  0  0  0  0  0  0  0  0  0
   28.5166  -21.2374  -13.0573 C   0  0  0  0  0  0  0  0  0  0  0  0
   27.1733  -21.4351  -13.6430 C   0  0  1  0  0  0  0  0  0  0  0  0
   26.1126  -21.7996  -12.6718 C   0  0  0  0  0  0  0  0  0  0  0  0
   26.0848  -22.9250  -12.1132 O   0  0  0  0  0  0  0  0  0  0  0  0
   25.6871  -20.9121   -9.5263 C   0  0  0  0  0  0  0  0  0  0  0  0
   24.3735  -20.3850  -10.0570 C   0  0  1  0  0  0  0  0  0  0  0  0
   24.5863  -19.0392  -10.4061 O   0  0  0  0  0  0  0  0  0  0  0  0
   24.0657  -21.0989  -11.3586 C   0  0  2  0  0  0  0  0  0  0  0  0
   25.0971  -20.8822  -12.3459 N   0  0  0  0  0  0  0  0  0  0  0  0
   22.7158  -20.7707  -11.8500 C   0  0  0  0  0  0  0  0  0  0  0  0
   22.5956  -20.2278  -12.9684 O   0  0  0  0  0  0  0  0  0  0  0  0
   21.6079  -21.0488  -11.1077 O   0  0  0  0  0  0  0  0  0  0  0  0
  2  1  1  6
  3  2  1  0
  4  3  1  0
  5  4  2  0
  6  7  1  0
  6  5  1  0
  7  8  2  0
  8  4  1  0
  9  2  1  0
  9 11  1  0
 10  9  2  0
 11 15  1  0
 12 11  1  0
 12 13  1  0
 13 14  1  0
 15 16  1  1
 15 14  1  0
 16 17  2  0
 19 18  1  6
 19 20  1  0
 19 21  1  0
 21 22  1  6
 22 16  1  0
 23 25  1  0
 23 21  1  0
 24 23  2  0
M  END
$$$$
