HPT.pdb
     RDKit          3D

 25 26  0  0  1  0  0  0  0  0999 V2000
   22.9023  -12.8203  -18.3201 N   0  0  0  0  0  0  0  0  0  0  0  0
   23.3713  -11.5988  -18.9304 C   0  0  1  0  0  0  0  0  0  0  0  0
   22.6462  -11.3279  -20.2379 C   0  0  0  0  0  0  0  0  0  0  0  0
   22.6934  -12.4776  -21.1739 C   0  0  0  0  0  0  0  0  0  0  0  0
   23.8168  -12.9742  -21.7967 C   0  0  0  0  0  0  0  0  0  0  0  0
   23.5162  -14.0229  -22.5729 N   0  0  0  0  0  0  0  0  0  0  0  0
   22.1832  -14.2049  -22.4494 C   0  0  0  0  0  0  0  0  0  0  0  0
   21.6874  -13.2756  -21.6078 N   0  0  0  0  0  0  0  0  0  0  0  0
   23.3483  -10.4327  -18.0352 C   0  0  0  0  0  0  0  0  0  0  0  0
   22.3288  -10.2966  -17.3077 O   0  0  0  0  0  0  0  0  0  0  0  0
   24.3950   -9.4461  -17.9332 N   0  0  0  0  0  0  0  0  0  0  0  0
   25.6236   -9.5581  -18.6568 C   0  0  0  0  0  0  0  0  0  0  0  0
   26.4361   -8.3553  -18.2562 C   0  0  0  0  0  0  0  0  0  0  0  0
   25.8149   -7.9024  -16.9337 C   0  0  0  0  0  0  0  0  0  0  0  0
   24.3980   -8.2621  -17.1569 C   0  0  1  0  0  0  0  0  0  0  0  0
   23.5535   -7.1737  -17.7078 C   0  0  0  0  0  0  0  0  0  0  0  0
   23.5248   -6.9158  -18.9374 O   0  0  0  0  0  0  0  0  0  0  0  0
   20.0180   -7.0060  -17.4697 C   0  0  0  0  0  0  0  0  0  0  0  0
   20.4079   -5.6723  -16.8745 C   0  0  1  0  0  0  0  0  0  0  0  0
   20.4506   -5.8461  -15.4795 O   0  0  0  0  0  0  0  0  0  0  0  0
   21.8333   -5.3650  -17.2898 C   0  0  2  0  0  0  0  0  0  0  0  0
   22.7514   -6.3921  -16.8565 N   0  0  0  0  0  0  0  0  0  0  0  0
   22.2393   -4.0117  -16.8712 C   0  0  0  0  0  0  0  0  0  0  0  0
   23.1452   -3.8889  -16.0201 O   0  0  0  0  0  0  0  0  0  0  0  0
   21.6453   -2.9033  -17.3952 O   0  0  0  0  0  0  0  0  0  0  0  0
  2  1  1  1
  3  2  1  0
  4  3  1  0
  5  4  2  0
  6  7  1  0
  6  5  1  0
  7  8  2  0
  8  4  1  0
  9  2  1  0
  9 11  1  0
 10  9  2  0
 11 15  1  0
 12 11  1  0
 12 13  1  0
 13 14  1  0
 15 16  1  6
 15 14  1  0
 16 17  2  0
 19 18  1  6
 19 20  1  0
 19 21  1  0
 21 22  1  1
 22 16  1  0
 23 25  1  0
 23 21  1  0
 24 23  2  0
M  END
$$$$
