HPT.pdb
     RDKit          3D

 25 26  0  0  1  0  0  0  0  0999 V2000
   20.2694  -15.2773  -16.3543 N   0  0  0  0  0  0  0  0  0  0  0  0
   21.1117  -14.1557  -16.6964 C   0  0  1  0  0  0  0  0  0  0  0  0
   21.0272  -13.8418  -18.1807 C   0  0  0  0  0  0  0  0  0  0  0  0
   21.4135  -14.9896  -19.0370 C   0  0  0  0  0  0  0  0  0  0  0  0
   20.6265  -16.0772  -19.3438 C   0  0  0  0  0  0  0  0  0  0  0  0
   21.2728  -16.9313  -20.1471 N   0  0  0  0  0  0  0  0  0  0  0  0
   22.4913  -16.3883  -20.3610 C   0  0  0  0  0  0  0  0  0  0  0  0
   22.5767  -15.2200  -19.6936 N   0  0  0  0  0  0  0  0  0  0  0  0
   20.8893  -12.9624  -15.8668 C   0  0  0  0  0  0  0  0  0  0  0  0
   19.6914  -12.6438  -15.6417 O   0  0  0  0  0  0  0  0  0  0  0  0
   21.9308  -12.1410  -15.3014 N   0  0  0  0  0  0  0  0  0  0  0  0
   23.3138  -12.4964  -15.3839 C   0  0  0  0  0  0  0  0  0  0  0  0
   24.0531  -11.4021  -14.6605 C   0  0  0  0  0  0  0  0  0  0  0  0
   22.9923  -10.7542  -13.7689 C   0  0  0  0  0  0  0  0  0  0  0  0
   21.7885  -10.9119  -14.6132 C   0  0  1  0  0  0  0  0  0  0  0  0
   21.4827   -9.7565  -15.4923 C   0  0  0  0  0  0  0  0  0  0  0  0
   21.9605   -9.6613  -16.6507 O   0  0  0  0  0  0  0  0  0  0  0  0
   18.2891   -6.2160  -16.5569 C   0  0  0  0  0  0  0  0  0  0  0  0
   18.6965   -7.3534  -15.6483 C   0  0  1  0  0  0  0  0  0  0  0  0
   18.0366   -8.5041  -16.1159 O   0  0  0  0  0  0  0  0  0  0  0  0
   20.1746   -7.6204  -15.8544 C   0  0  2  0  0  0  0  0  0  0  0  0
   20.6380   -8.7239  -15.0462 N   0  0  0  0  0  0  0  0  0  0  0  0
   20.9758   -6.3964  -15.6768 C   0  0  0  0  0  0  0  0  0  0  0  0
   21.2864   -6.0402  -14.5207 O   0  0  0  0  0  0  0  0  0  0  0  0
   21.3782   -5.6554  -16.7468 O   0  0  0  0  0  0  0  0  0  0  0  0
  2  1  1  1
  3  2  1  0
  4  3  1  0
  5  4  2  0
  6  7  1  0
  6  5  1  0
  7  8  2  0
  8  4  1  0
  9  2  1  0
  9 11  1  0
 10  9  2  0
 11 15  1  0
 12 11  1  0
 12 13  1  0
 13 14  1  0
 15 16  1  6
 15 14  1  0
 16 17  2  0
 19 18  1  6
 19 20  1  0
 19 21  1  0
 21 22  1  1
 22 16  1  0
 23 25  1  0
 23 21  1  0
 24 23  2  0
M  END
$$$$
