HPT.pdb
     RDKit          3D

 25 26  0  0  1  0  0  0  0  0999 V2000
   24.8869  -15.1927  -17.8859 N   0  0  0  0  0  0  0  0  0  0  0  0
   25.1163  -13.8005  -18.1919 C   0  0  1  0  0  0  0  0  0  0  0  0
   24.5749  -13.4470  -19.5670 C   0  0  0  0  0  0  0  0  0  0  0  0
   25.1144  -14.3158  -20.6413 C   0  0  0  0  0  0  0  0  0  0  0  0
   25.5209  -13.9065  -21.8917 C   0  0  0  0  0  0  0  0  0  0  0  0
   25.9635  -14.9397  -22.6192 N   0  0  0  0  0  0  0  0  0  0  0  0
   25.8410  -16.0285  -21.8287 C   0  0  0  0  0  0  0  0  0  0  0  0
   25.3303  -15.6540  -20.6385 N   0  0  0  0  0  0  0  0  0  0  0  0
   24.6404  -12.8715  -17.1564 C   0  0  0  0  0  0  0  0  0  0  0  0
   23.4888  -13.0827  -16.6914 O   0  0  0  0  0  0  0  0  0  0  0  0
   25.3876  -11.7500  -16.6433 N   0  0  0  0  0  0  0  0  0  0  0  0
   26.6615  -11.3737  -17.1735 C   0  0  0  0  0  0  0  0  0  0  0  0
   27.1022  -10.1887  -16.3557 C   0  0  0  0  0  0  0  0  0  0  0  0
   26.2746  -10.2854  -15.0728 C   0  0  0  0  0  0  0  0  0  0  0  0
   25.0212  -10.8700  -15.5964 C   0  0  1  0  0  0  0  0  0  0  0  0
   23.9772   -9.8843  -15.9702 C   0  0  0  0  0  0  0  0  0  0  0  0
   23.9593   -9.3354  -17.1006 O   0  0  0  0  0  0  0  0  0  0  0  0
   19.4106   -8.4313  -15.5374 C   0  0  0  0  0  0  0  0  0  0  0  0
   20.5256   -9.4122  -15.2554 C   0  0  1  0  0  0  0  0  0  0  0  0
   20.5356  -10.3335  -16.3180 O   0  0  0  0  0  0  0  0  0  0  0  0
   21.8452   -8.6713  -15.3472 C   0  0  2  0  0  0  0  0  0  0  0  0
   22.9661   -9.5343  -15.0570 N   0  0  0  0  0  0  0  0  0  0  0  0
   21.8343   -7.4431  -14.5330 C   0  0  0  0  0  0  0  0  0  0  0  0
   22.1850   -7.5087  -13.3361 O   0  0  0  0  0  0  0  0  0  0  0  0
   21.4503   -6.2485  -15.0636 O   0  0  0  0  0  0  0  0  0  0  0  0
  2  1  1  1
  3  2  1  0
  4  3  1  0
  5  4  2  0
  6  7  1  0
  6  5  1  0
  7  8  2  0
  8  4  1  0
  9  2  1  0
  9 11  1  0
 10  9  2  0
 11 15  1  0
 12 11  1  0
 12 13  1  0
 13 14  1  0
 15 16  1  6
 15 14  1  0
 16 17  2  0
 19 18  1  6
 19 20  1  0
 19 21  1  0
 21 22  1  1
 22 16  1  0
 23 25  1  0
 23 21  1  0
 24 23  2  0
M  END
$$$$
