HPT.pdb
     RDKit          3D

 25 26  0  0  1  0  0  0  0  0999 V2000
   21.5272  -13.2297  -17.6188 N   0  0  0  0  0  0  0  0  0  0  0  0
   22.3946  -12.1119  -17.9061 C   0  0  1  0  0  0  0  0  0  0  0  0
   22.0046  -11.4392  -19.2115 C   0  0  0  0  0  0  0  0  0  0  0  0
   21.9467  -12.3838  -20.3536 C   0  0  0  0  0  0  0  0  0  0  0  0
   20.8071  -12.8190  -20.9926 C   0  0  0  0  0  0  0  0  0  0  0  0
   21.1032  -13.6629  -21.9891 N   0  0  0  0  0  0  0  0  0  0  0  0
   22.4498  -13.7733  -21.9928 C   0  0  0  0  0  0  0  0  0  0  0  0
   22.9580  -13.0040  -21.0092 N   0  0  0  0  0  0  0  0  0  0  0  0
   22.5163  -11.1470  -16.8034 C   0  0  0  0  0  0  0  0  0  0  0  0
   21.4471  -10.7961  -16.2368 O   0  0  0  0  0  0  0  0  0  0  0  0
   23.7555  -10.5805  -16.3315 N   0  0  0  0  0  0  0  0  0  0  0  0
   25.0186  -10.9138  -16.9138 C   0  0  0  0  0  0  0  0  0  0  0  0
   26.0406  -10.1370  -16.1267 C   0  0  0  0  0  0  0  0  0  0  0  0
   25.3325   -9.8036  -14.8124 C   0  0  0  0  0  0  0  0  0  0  0  0
   23.9387   -9.6486  -15.2815 C   0  0  1  0  0  0  0  0  0  0  0  0
   23.5434   -8.2608  -15.6266 C   0  0  0  0  0  0  0  0  0  0  0  0
   23.8795   -7.7276  -16.7138 O   0  0  0  0  0  0  0  0  0  0  0  0
   20.5677   -7.1755  -16.5438 C   0  0  0  0  0  0  0  0  0  0  0  0
   20.7411   -6.2660  -15.3489 C   0  0  1  0  0  0  0  0  0  0  0  0
   20.1416   -6.9141  -14.2539 O   0  0  0  0  0  0  0  0  0  0  0  0
   22.2188   -6.1918  -15.0183 C   0  0  2  0  0  0  0  0  0  0  0  0
   22.7709   -7.4957  -14.7340 N   0  0  0  0  0  0  0  0  0  0  0  0
   22.4873   -5.2056  -13.9567 C   0  0  0  0  0  0  0  0  0  0  0  0
   22.8699   -5.6104  -12.8389 O   0  0  0  0  0  0  0  0  0  0  0  0
   22.3250   -3.8710  -14.1765 O   0  0  0  0  0  0  0  0  0  0  0  0
  2  1  1  1
  3  2  1  0
  4  3  1  0
  5  4  2  0
  6  7  1  0
  6  5  1  0
  7  8  2  0
  8  4  1  0
  9  2  1  0
  9 11  1  0
 10  9  2  0
 11 15  1  0
 12 11  1  0
 12 13  1  0
 13 14  1  0
 15 16  1  6
 15 14  1  0
 16 17  2  0
 19 18  1  6
 19 20  1  0
 19 21  1  0
 21 22  1  1
 22 16  1  0
 23 25  1  0
 23 21  1  0
 24 23  2  0
M  END
$$$$
