HPT.pdb
     RDKit          3D

 25 26  0  0  1  0  0  0  0  0999 V2000
   18.6428  -12.0613  -15.9716 N   0  0  0  0  0  0  0  0  0  0  0  0
   19.3091  -11.0624  -16.7733 C   0  0  1  0  0  0  0  0  0  0  0  0
   18.3061  -10.2342  -17.5587 C   0  0  0  0  0  0  0  0  0  0  0  0
   17.4191  -11.0595  -18.4144 C   0  0  0  0  0  0  0  0  0  0  0  0
   17.8205  -11.9134  -19.4174 C   0  0  0  0  0  0  0  0  0  0  0  0
   16.7702  -12.5130  -19.9918 N   0  0  0  0  0  0  0  0  0  0  0  0
   15.6784  -12.0403  -19.3517 C   0  0  0  0  0  0  0  0  0  0  0  0
   16.0679  -11.1658  -18.4024 N   0  0  0  0  0  0  0  0  0  0  0  0
   20.2519  -10.2203  -16.0225 C   0  0  0  0  0  0  0  0  0  0  0  0
   19.8507   -9.7665  -14.9178 O   0  0  0  0  0  0  0  0  0  0  0  0
   21.5847   -9.8804  -16.4554 N   0  0  0  0  0  0  0  0  0  0  0  0
   22.1785  -10.4547  -17.6231 C   0  0  0  0  0  0  0  0  0  0  0  0
   23.5598   -9.8606  -17.7041 C   0  0  0  0  0  0  0  0  0  0  0  0
   23.8449   -9.3707  -16.2834 C   0  0  0  0  0  0  0  0  0  0  0  0
   22.4879   -8.9730  -15.8510 C   0  0  1  0  0  0  0  0  0  0  0  0
   22.1519   -7.5450  -16.0724 C   0  0  0  0  0  0  0  0  0  0  0  0
   21.7136   -7.1313  -17.1752 O   0  0  0  0  0  0  0  0  0  0  0  0
   19.7060   -5.8312  -14.1700 C   0  0  0  0  0  0  0  0  0  0  0  0
   20.8855   -4.8988  -14.0135 C   0  0  1  0  0  0  0  0  0  0  0  0
   21.5118   -5.2352  -12.7999 O   0  0  0  0  0  0  0  0  0  0  0  0
   21.8957   -5.2241  -15.0963 C   0  0  2  0  0  0  0  0  0  0  0  0
   22.3168   -6.6043  -15.0396 N   0  0  0  0  0  0  0  0  0  0  0  0
   23.0224   -4.2743  -15.0885 C   0  0  0  0  0  0  0  0  0  0  0  0
   22.8050   -3.0768  -15.3690 O   0  0  0  0  0  0  0  0  0  0  0  0
   24.2859   -4.6814  -14.7825 O   0  0  0  0  0  0  0  0  0  0  0  0
  2  1  1  1
  3  2  1  0
  4  3  1  0
  5  4  2  0
  6  7  1  0
  6  5  1  0
  7  8  2  0
  8  4  1  0
  9  2  1  0
  9 11  1  0
 10  9  2  0
 11 15  1  0
 12 11  1  0
 12 13  1  0
 13 14  1  0
 15 16  1  6
 15 14  1  0
 16 17  2  0
 19 18  1  6
 19 20  1  0
 19 21  1  0
 21 22  1  1
 22 16  1  0
 23 25  1  0
 23 21  1  0
 24 23  2  0
M  END
$$$$
