HPT.pdb
     RDKit          3D

 25 26  0  0  1  0  0  0  0  0999 V2000
   22.0167  -35.3113  -10.0766 N   0  0  0  0  0  0  0  0  0  0  0  0
   22.5031  -34.2046   -9.2872 C   0  0  1  0  0  0  0  0  0  0  0  0
   21.3722  -33.5451   -8.5158 C   0  0  0  0  0  0  0  0  0  0  0  0
   20.3761  -32.8899   -9.3982 C   0  0  0  0  0  0  0  0  0  0  0  0
   19.9152  -33.3713  -10.6032 C   0  0  0  0  0  0  0  0  0  0  0  0
   19.0147  -32.5409  -11.1437 N   0  0  0  0  0  0  0  0  0  0  0  0
   18.8934  -31.5115  -10.2771 C   0  0  0  0  0  0  0  0  0  0  0  0
   19.7121  -31.7208   -9.2266 N   0  0  0  0  0  0  0  0  0  0  0  0
   23.6406  -34.5406   -8.4183 C   0  0  0  0  0  0  0  0  0  0  0  0
   23.5367  -35.5899   -7.7289 O   0  0  0  0  0  0  0  0  0  0  0  0
   24.8500  -33.7642   -8.2999 N   0  0  0  0  0  0  0  0  0  0  0  0
   25.0452  -32.5404   -9.0138 C   0  0  0  0  0  0  0  0  0  0  0  0
   26.4240  -32.0696   -8.6334 C   0  0  0  0  0  0  0  0  0  0  0  0
   27.1248  -33.3281   -8.1185 C   0  0  0  0  0  0  0  0  0  0  0  0
   25.9870  -34.0461   -7.5048 C   0  0  1  0  0  0  0  0  0  0  0  0
   25.7922  -33.7917   -6.0562 C   0  0  0  0  0  0  0  0  0  0  0  0
   25.2593  -32.7342   -5.6355 O   0  0  0  0  0  0  0  0  0  0  0  0
   24.3757  -36.5171   -3.8119 C   0  0  0  0  0  0  0  0  0  0  0  0
   25.5954  -35.9959   -3.0868 C   0  0  1  0  0  0  0  0  0  0  0  0
   26.6600  -36.8559   -3.4111 O   0  0  0  0  0  0  0  0  0  0  0  0
   25.9635  -34.6508   -3.6818 C   0  0  2  0  0  0  0  0  0  0  0  0
   26.2038  -34.7408   -5.1030 N   0  0  0  0  0  0  0  0  0  0  0  0
   27.0729  -34.0187   -2.9461 C   0  0  0  0  0  0  0  0  0  0  0  0
   26.9195  -33.7496   -1.7361 O   0  0  0  0  0  0  0  0  0  0  0  0
   28.2522  -33.7267   -3.5624 O   0  0  0  0  0  0  0  0  0  0  0  0
  2  1  1  1
  3  2  1  0
  4  3  1  0
  5  4  2  0
  6  7  1  0
  6  5  1  0
  7  8  2  0
  8  4  1  0
  9  2  1  0
  9 11  1  0
 10  9  2  0
 11 15  1  0
 12 11  1  0
 12 13  1  0
 13 14  1  0
 15 16  1  1
 15 14  1  0
 16 17  2  0
 19 18  1  6
 19 20  1  0
 19 21  1  0
 21 22  1  6
 22 16  1  0
 23 25  1  0
 23 21  1  0
 24 23  2  0
M  END
$$$$
