HPT.pdb
     RDKit          3D

 25 26  0  0  1  0  0  0  0  0999 V2000
   22.6481  -13.0714  -16.8172 N   0  0  0  0  0  0  0  0  0  0  0  0
   21.8305  -11.9512  -17.2185 C   0  0  1  0  0  0  0  0  0  0  0  0
   20.3902  -12.1384  -16.7719 C   0  0  0  0  0  0  0  0  0  0  0  0
   19.7999  -13.4146  -17.2442 C   0  0  0  0  0  0  0  0  0  0  0  0
   19.5492  -14.5290  -16.4751 C   0  0  0  0  0  0  0  0  0  0  0  0
   19.0051  -15.5096  -17.2066 N   0  0  0  0  0  0  0  0  0  0  0  0
   18.9037  -15.0219  -18.4625 C   0  0  0  0  0  0  0  0  0  0  0  0
   19.3816  -13.7614  -18.4859 N   0  0  0  0  0  0  0  0  0  0  0  0
   22.3664  -10.6421  -16.8175 C   0  0  0  0  0  0  0  0  0  0  0  0
   22.7282  -10.5214  -15.6168 O   0  0  0  0  0  0  0  0  0  0  0  0
   22.5043   -9.5015  -17.6889 N   0  0  0  0  0  0  0  0  0  0  0  0
   22.2048   -9.5666  -19.0859 C   0  0  0  0  0  0  0  0  0  0  0  0
   22.4995   -8.1914  -19.6239 C   0  0  0  0  0  0  0  0  0  0  0  0
   23.4373   -7.5722  -18.5862 C   0  0  0  0  0  0  0  0  0  0  0  0
   22.9259   -8.1942  -17.3459 C   0  0  1  0  0  0  0  0  0  0  0  0
   21.9054   -7.3989  -16.6196 C   0  0  0  0  0  0  0  0  0  0  0  0
   20.6969   -7.3998  -16.9641 O   0  0  0  0  0  0  0  0  0  0  0  0
   21.1386   -7.8821  -13.2795 C   0  0  0  0  0  0  0  0  0  0  0  0
   21.3518   -6.3859  -13.2486 C   0  0  1  0  0  0  0  0  0  0  0  0
   22.6580   -6.1707  -12.7734 O   0  0  0  0  0  0  0  0  0  0  0  0
   21.3494   -5.8758  -14.6763 C   0  0  2  0  0  0  0  0  0  0  0  0
   22.2690   -6.6132  -15.5108 N   0  0  0  0  0  0  0  0  0  0  0  0
   21.5597   -4.4183  -14.7309 C   0  0  0  0  0  0  0  0  0  0  0  0
   22.5980   -3.9774  -15.2671 O   0  0  0  0  0  0  0  0  0  0  0  0
   20.6452   -3.5537  -14.2092 O   0  0  0  0  0  0  0  0  0  0  0  0
  2  1  1  1
  3  2  1  0
  4  3  1  0
  5  4  2  0
  6  7  1  0
  6  5  1  0
  7  8  2  0
  8  4  1  0
  9  2  1  0
  9 11  1  0
 10  9  2  0
 11 15  1  0
 12 11  1  0
 12 13  1  0
 13 14  1  0
 15 16  1  6
 15 14  1  0
 16 17  2  0
 19 18  1  6
 19 20  1  0
 19 21  1  0
 21 22  1  6
 22 16  1  0
 23 25  1  0
 23 21  1  0
 24 23  2  0
M  END
$$$$
