HPT.pdb
     RDKit          3D

 25 26  0  0  1  0  0  0  0  0999 V2000
   18.3744  -12.4623  -16.2171 N   0  0  0  0  0  0  0  0  0  0  0  0
   17.7307  -11.1758  -16.0937 C   0  0  1  0  0  0  0  0  0  0  0  0
   16.9014  -11.0996  -14.8227 C   0  0  0  0  0  0  0  0  0  0  0  0
   15.8749  -12.1668  -14.7376 C   0  0  0  0  0  0  0  0  0  0  0  0
   14.6324  -12.1500  -15.3311 C   0  0  0  0  0  0  0  0  0  0  0  0
   13.9525  -13.2717  -15.0628 N   0  0  0  0  0  0  0  0  0  0  0  0
   14.7660  -14.0211  -14.2869 C   0  0  0  0  0  0  0  0  0  0  0  0
   15.9229  -13.3571  -14.0908 N   0  0  0  0  0  0  0  0  0  0  0  0
   18.6446  -10.0317  -16.2253 C   0  0  0  0  0  0  0  0  0  0  0  0
   19.7261  -10.0932  -15.5819 O   0  0  0  0  0  0  0  0  0  0  0  0
   18.3940   -8.8593  -17.0265 N   0  0  0  0  0  0  0  0  0  0  0  0
   17.2013   -8.7035  -17.8004 C   0  0  0  0  0  0  0  0  0  0  0  0
   17.3437   -7.3744  -18.4936 C   0  0  0  0  0  0  0  0  0  0  0  0
   18.8468   -7.0919  -18.4649 C   0  0  0  0  0  0  0  0  0  0  0  0
   19.2214   -7.7208  -17.1800 C   0  0  1  0  0  0  0  0  0  0  0  0
   19.2198   -6.8079  -16.0105 C   0  0  0  0  0  0  0  0  0  0  0  0
   18.1947   -6.6395  -15.3034 O   0  0  0  0  0  0  0  0  0  0  0  0
   22.9128   -6.1045  -14.1751 C   0  0  0  0  0  0  0  0  0  0  0  0
   21.5574   -6.1052  -13.5060 C   0  0  1  0  0  0  0  0  0  0  0  0
   21.6689   -5.2974  -12.3600 O   0  0  0  0  0  0  0  0  0  0  0  0
   20.5781   -5.3886  -14.4149 C   0  0  2  0  0  0  0  0  0  0  0  0
   20.3819   -6.0980  -15.6573 N   0  0  0  0  0  0  0  0  0  0  0  0
   20.9522   -3.9763  -14.6076 C   0  0  0  0  0  0  0  0  0  0  0  0
   21.3246   -3.5990  -15.7385 O   0  0  0  0  0  0  0  0  0  0  0  0
   20.8978   -3.0855  -13.5783 O   0  0  0  0  0  0  0  0  0  0  0  0
  2  1  1  1
  3  2  1  0
  4  3  1  0
  5  4  2  0
  6  7  1  0
  6  5  1  0
  7  8  2  0
  8  4  1  0
  9  2  1  0
  9 11  1  0
 10  9  2  0
 11 15  1  0
 12 11  1  0
 12 13  1  0
 13 14  1  0
 15 16  1  1
 15 14  1  0
 16 17  2  0
 19 18  1  6
 19 20  1  0
 19 21  1  0
 21 22  1  6
 22 16  1  0
 23 25  1  0
 23 21  1  0
 24 23  2  0
M  END
$$$$
