WAN.pdb
     RDKit          3D

 28 29  0  0  1  0  0  0  0  0999 V2000
   27.4272  -19.4009  -10.3288 N   0  0  0  0  0  0  0  0  0  0  0  0
   26.6028  -20.6118  -10.2628 C   0  0  1  0  0  0  0  0  0  0  0  0
   25.7211  -20.5532   -9.0216 C   0  0  0  0  0  0  0  0  0  0  0  0
   26.5151  -19.8936   -7.9553 C   0  0  0  0  0  0  0  0  0  0  0  0
   26.7206  -18.5424   -7.7400 C   0  0  0  0  0  0  0  0  0  0  0  0
   27.5019  -18.3993   -6.6672 N   0  0  0  0  0  0  0  0  0  0  0  0
   27.8178  -19.6165   -6.1684 C   0  0  0  0  0  0  0  0  0  0  0  0
   28.5946  -19.9942   -5.0741 C   0  0  0  0  0  0  0  0  0  0  0  0
   28.7415  -21.3473   -4.8018 C   0  0  0  0  0  0  0  0  0  0  0  0
   28.1318  -22.2794   -5.5979 C   0  0  0  0  0  0  0  0  0  0  0  0
   27.3569  -21.8877   -6.6895 C   0  0  0  0  0  0  0  0  0  0  0  0
   27.2104  -20.5488   -6.9606 C   0  0  0  0  0  0  0  0  0  0  0  0
   25.8107  -20.6726  -11.4945 C   0  0  0  0  0  0  0  0  0  0  0  0
   25.0662  -19.7331  -11.8678 O   0  0  0  0  0  0  0  0  0  0  0  0
   25.9672  -23.1050  -14.3172 C   0  0  0  0  0  0  0  0  0  0  0  0
   25.3756  -21.8493  -13.6783 C   0  0  2  0  0  0  0  0  0  0  0  0
   25.8701  -21.8314  -12.3177 N   0  0  0  0  0  0  0  0  0  0  0  0
   23.9117  -22.0142  -13.6465 C   0  0  0  0  0  0  0  0  0  0  0  0
   23.2884  -22.0985  -14.7304 O   0  0  0  0  0  0  0  0  0  0  0  0
   19.1046  -23.5920  -10.4187 N   0  0  0  0  0  0  0  0  0  0  0  0
   19.7922  -23.4039  -11.6483 C   0  0  0  0  0  0  0  0  0  0  0  0
   19.1180  -23.3080  -12.6828 O   0  0  0  0  0  0  0  0  0  0  0  0
   21.2472  -23.3318  -11.6477 C   0  0  0  0  0  0  0  0  0  0  0  0
   21.7414  -22.1909  -12.4799 C   0  0  2  0  0  0  0  0  0  0  0  0
   23.1867  -22.0810  -12.4381 N   0  0  0  0  0  0  0  0  0  0  0  0
   21.1174  -20.9292  -12.0316 C   0  0  0  0  0  0  0  0  0  0  0  0
   19.8979  -20.5617  -12.6578 O   0  0  0  0  0  0  0  0  0  0  0  0
   21.5462  -20.1692  -11.1749 O   0  0  0  0  0  0  0  0  0  0  0  0
  2  1  1  6
  3  2  1  0
  3  4  1  0
  4  5  2  0
  5  6  1  0
  7  6  1  0
  8  7  2  0
  9  8  1  0
 10 11  1  0
 10  9  2  0
 11 12  2  0
 12  4  1  0
 12  7  1  0
 13 17  1  0
 13  2  1  0
 14 13  2  0
 16 18  1  0
 16 15  1  6
 16 17  1  0
 18 25  1  0
 19 18  2  0
 20 21  1  0
 21 22  2  0
 23 21  1  0
 24 23  1  1
 24 26  1  0
 25 24  1  0
 26 28  2  0
 26 27  1  0
M  END
$$$$
