WAN.pdb
     RDKit          3D

 28 29  0  0  1  0  0  0  0  0999 V2000
   23.9104   -7.1640  -16.5226 N   0  0  0  0  0  0  0  0  0  0  0  0
   23.5092   -8.5141  -16.9309 C   0  0  1  0  0  0  0  0  0  0  0  0
   23.5664   -9.4426  -15.7243 C   0  0  0  0  0  0  0  0  0  0  0  0
   24.9687   -9.9134  -15.6043 C   0  0  0  0  0  0  0  0  0  0  0  0
   26.0809   -9.2165  -15.1663 C   0  0  0  0  0  0  0  0  0  0  0  0
   27.1385  -10.0288  -15.2238 N   0  0  0  0  0  0  0  0  0  0  0  0
   26.7566  -11.2413  -15.6869 C   0  0  0  0  0  0  0  0  0  0  0  0
   27.4787  -12.4103  -15.9229 C   0  0  0  0  0  0  0  0  0  0  0  0
   26.8015  -13.5199  -16.4096 C   0  0  0  0  0  0  0  0  0  0  0  0
   25.4549  -13.4542  -16.6480 C   0  0  0  0  0  0  0  0  0  0  0  0
   24.7446  -12.2782  -16.4070 C   0  0  0  0  0  0  0  0  0  0  0  0
   25.4133  -11.1789  -15.9254 C   0  0  0  0  0  0  0  0  0  0  0  0
   22.1563   -8.4219  -17.4870 C   0  0  0  0  0  0  0  0  0  0  0  0
   21.2999   -7.6123  -17.0538 O   0  0  0  0  0  0  0  0  0  0  0  0
   20.5508  -10.0819  -20.4266 C   0  0  0  0  0  0  0  0  0  0  0  0
   20.4590   -9.2221  -19.1667 C   0  0  2  0  0  0  0  0  0  0  0  0
   21.7729   -9.2726  -18.5609 N   0  0  0  0  0  0  0  0  0  0  0  0
   19.4949   -9.8670  -18.2578 C   0  0  0  0  0  0  0  0  0  0  0  0
   19.9119  -10.7180  -17.4379 O   0  0  0  0  0  0  0  0  0  0  0  0
   15.0202  -10.0941  -14.8951 N   0  0  0  0  0  0  0  0  0  0  0  0
   15.0226  -10.2115  -16.3116 C   0  0  0  0  0  0  0  0  0  0  0  0
   14.1909  -10.9661  -16.8339 O   0  0  0  0  0  0  0  0  0  0  0  0
   15.9912   -9.4496  -17.0884 C   0  0  0  0  0  0  0  0  0  0  0  0
   17.2204  -10.2531  -17.3748 C   0  0  2  0  0  0  0  0  0  0  0  0
   18.1182   -9.5596  -18.2780 N   0  0  0  0  0  0  0  0  0  0  0  0
   16.8468  -11.5692  -17.9323 C   0  0  0  0  0  0  0  0  0  0  0  0
   16.6897  -11.6451  -19.3408 O   0  0  0  0  0  0  0  0  0  0  0  0
   16.6593  -12.6000  -17.3019 O   0  0  0  0  0  0  0  0  0  0  0  0
  2  1  1  1
  3  2  1  0
  3  4  1  0
  4  5  2  0
  5  6  1  0
  7  6  1  0
  8  7  2  0
  9  8  1  0
 10 11  1  0
 10  9  2  0
 11 12  2  0
 12  4  1  0
 12  7  1  0
 13 17  1  0
 13  2  1  0
 14 13  2  0
 16 18  1  0
 16 15  1  6
 16 17  1  0
 18 25  1  0
 19 18  2  0
 20 21  1  0
 21 22  2  0
 23 21  1  0
 24 23  1  6
 24 26  1  0
 25 24  1  0
 26 28  2  0
 26 27  1  0
M  END
$$$$
