WAN.pdb
     RDKit          3D

 28 29  0  0  1  0  0  0  0  0999 V2000
   24.0995  -21.0427  -14.9981 N   0  0  0  0  0  0  0  0  0  0  0  0
   22.9334  -20.2279  -14.6422 C   0  0  1  0  0  0  0  0  0  0  0  0
   21.9351  -20.2484  -15.7930 C   0  0  0  0  0  0  0  0  0  0  0  0
   22.5278  -19.4531  -16.8969 C   0  0  0  0  0  0  0  0  0  0  0  0
   23.4947  -19.8297  -17.8121 C   0  0  0  0  0  0  0  0  0  0  0  0
   23.7302  -18.7986  -18.6266 N   0  0  0  0  0  0  0  0  0  0  0  0
   22.9471  -17.7529  -18.2754 C   0  0  0  0  0  0  0  0  0  0  0  0
   22.8227  -16.4708  -18.8087 C   0  0  0  0  0  0  0  0  0  0  0  0
   21.9161  -15.5962  -18.2254 C   0  0  0  0  0  0  0  0  0  0  0  0
   21.1673  -15.9966  -17.1515 C   0  0  0  0  0  0  0  0  0  0  0  0
   21.3015  -17.2826  -16.6283 C   0  0  0  0  0  0  0  0  0  0  0  0
   22.1984  -18.1496  -17.2041 C   0  0  0  0  0  0  0  0  0  0  0  0
   22.3638  -20.7876  -13.4133 C   0  0  0  0  0  0  0  0  0  0  0  0
   22.4044  -22.0136  -13.1454 O   0  0  0  0  0  0  0  0  0  0  0  0
   20.9256  -19.1551  -10.3778 C   0  0  0  0  0  0  0  0  0  0  0  0
   21.2087  -20.4063  -11.2081 C   0  0  2  0  0  0  0  0  0  0  0  0
   21.7343  -19.9289  -12.4698 N   0  0  0  0  0  0  0  0  0  0  0  0
   19.9197  -21.0759  -11.4565 C   0  0  0  0  0  0  0  0  0  0  0  0
   19.3010  -20.8235  -12.5166 O   0  0  0  0  0  0  0  0  0  0  0  0
   19.2954  -24.7440   -8.2477 N   0  0  0  0  0  0  0  0  0  0  0  0
   18.8230  -24.5866   -9.5790 C   0  0  0  0  0  0  0  0  0  0  0  0
   19.3700  -25.2476  -10.4721 O   0  0  0  0  0  0  0  0  0  0  0  0
   17.7261  -23.6646   -9.8418 C   0  0  0  0  0  0  0  0  0  0  0  0
   18.1019  -22.6408  -10.8660 C   0  0  2  0  0  0  0  0  0  0  0  0
   19.3577  -21.9919  -10.5426 N   0  0  0  0  0  0  0  0  0  0  0  0
   17.0251  -21.6381  -10.9989 C   0  0  0  0  0  0  0  0  0  0  0  0
   17.2644  -20.3635  -10.4225 O   0  0  0  0  0  0  0  0  0  0  0  0
   15.9480  -21.7962  -11.5558 O   0  0  0  0  0  0  0  0  0  0  0  0
  2  1  1  6
  3  2  1  0
  3  4  1  0
  4  5  2  0
  5  6  1  0
  7  6  1  0
  8  7  2  0
  9  8  1  0
 10 11  1  0
 10  9  2  0
 11 12  2  0
 12  4  1  0
 12  7  1  0
 13 17  1  0
 13  2  1  0
 14 13  2  0
 16 18  1  0
 16 15  1  1
 16 17  1  0
 18 25  1  0
 19 18  2  0
 20 21  1  0
 21 22  2  0
 23 21  1  0
 24 23  1  1
 24 26  1  0
 25 24  1  0
 26 28  2  0
 26 27  1  0
M  END
$$$$
