WAN.pdb
     RDKit          3D

 28 29  0  0  1  0  0  0  0  0999 V2000
   23.4702  -17.7893  -15.4735 N   0  0  0  0  0  0  0  0  0  0  0  0
   23.5861  -19.0157  -16.2692 C   0  0  1  0  0  0  0  0  0  0  0  0
   23.0480  -18.7585  -17.6712 C   0  0  0  0  0  0  0  0  0  0  0  0
   21.6659  -18.2399  -17.5180 C   0  0  0  0  0  0  0  0  0  0  0  0
   21.1819  -16.9730  -17.7919 C   0  0  0  0  0  0  0  0  0  0  0  0
   19.8783  -16.9475  -17.5058 N   0  0  0  0  0  0  0  0  0  0  0  0
   19.4882  -18.1605  -17.0512 C   0  0  0  0  0  0  0  0  0  0  0  0
   18.2468  -18.6342  -16.6290 C   0  0  0  0  0  0  0  0  0  0  0  0
   18.1498  -19.9535  -16.2084 C   0  0  0  0  0  0  0  0  0  0  0  0
   19.2558  -20.7604  -16.2134 C   0  0  0  0  0  0  0  0  0  0  0  0
   20.4918  -20.2735  -16.6389 C   0  0  0  0  0  0  0  0  0  0  0  0
   20.5897  -18.9679  -17.0554 C   0  0  0  0  0  0  0  0  0  0  0  0
   25.0012  -19.3965  -16.2873 C   0  0  0  0  0  0  0  0  0  0  0  0
   25.4445  -20.3208  -17.0123 O   0  0  0  0  0  0  0  0  0  0  0  0
   28.0094  -18.0245  -14.5424 C   0  0  0  0  0  0  0  0  0  0  0  0
   27.2897  -19.1644  -15.2617 C   0  0  2  0  0  0  0  0  0  0  0  0
   25.9304  -18.7070  -15.4596 N   0  0  0  0  0  0  0  0  0  0  0  0
   27.2702  -20.3227  -14.3509 C   0  0  0  0  0  0  0  0  0  0  0  0
   27.8172  -21.3893  -14.7163 O   0  0  0  0  0  0  0  0  0  0  0  0
   25.0070  -21.0576   -9.3706 N   0  0  0  0  0  0  0  0  0  0  0  0
   25.9599  -20.3686  -10.1690 C   0  0  0  0  0  0  0  0  0  0  0  0
   25.8484  -19.1398  -10.2770 O   0  0  0  0  0  0  0  0  0  0  0  0
   27.0203  -21.1231  -10.8236 C   0  0  0  0  0  0  0  0  0  0  0  0
   26.6666  -21.4535  -12.2393 C   0  0  2  0  0  0  0  0  0  0  0  0
   26.6575  -20.2729  -13.0812 N   0  0  0  0  0  0  0  0  0  0  0  0
   25.3540  -22.1297  -12.2889 C   0  0  0  0  0  0  0  0  0  0  0  0
   25.2405  -23.3569  -11.5851 O   0  0  0  0  0  0  0  0  0  0  0  0
   24.3553  -21.7381  -12.8758 O   0  0  0  0  0  0  0  0  0  0  0  0
  2  1  1  1
  3  2  1  0
  3  4  1  0
  4  5  2  0
  5  6  1  0
  7  6  1  0
  8  7  2  0
  9  8  1  0
 10 11  1  0
 10  9  2  0
 11 12  2  0
 12  4  1  0
 12  7  1  0
 13 17  1  0
 13  2  1  0
 14 13  2  0
 16 18  1  0
 16 15  1  1
 16 17  1  0
 18 25  1  0
 19 18  2  0
 20 21  1  0
 21 22  2  0
 23 21  1  0
 24 23  1  1
 24 26  1  0
 25 24  1  0
 26 28  2  0
 26 27  1  0
M  END
$$$$
