WAN.pdb
     RDKit          3D

 28 29  0  0  1  0  0  0  0  0999 V2000
   22.4364  -12.2607  -17.3463 N   0  0  0  0  0  0  0  0  0  0  0  0
   23.2280  -11.2308  -16.6658 C   0  0  1  0  0  0  0  0  0  0  0  0
   24.2559  -10.6629  -17.6365 C   0  0  0  0  0  0  0  0  0  0  0  0
   25.2240  -11.7491  -17.9290 C   0  0  0  0  0  0  0  0  0  0  0  0
   25.3957  -12.4623  -19.1021 C   0  0  0  0  0  0  0  0  0  0  0  0
   26.3796  -13.3457  -18.9196 N   0  0  0  0  0  0  0  0  0  0  0  0
   26.8620  -13.2362  -17.6604 C   0  0  0  0  0  0  0  0  0  0  0  0
   27.8760  -13.9243  -16.9956 C   0  0  0  0  0  0  0  0  0  0  0  0
   28.1527  -13.5853  -15.6783 C   0  0  0  0  0  0  0  0  0  0  0  0
   27.4387  -12.5954  -15.0581 C   0  0  0  0  0  0  0  0  0  0  0  0
   26.4270  -11.9146  -15.7352 C   0  0  0  0  0  0  0  0  0  0  0  0
   26.1516  -12.2489  -17.0391 C   0  0  0  0  0  0  0  0  0  0  0  0
   22.2975  -10.2029  -16.1906 C   0  0  0  0  0  0  0  0  0  0  0  0
   21.4316   -9.6781  -16.9329 O   0  0  0  0  0  0  0  0  0  0  0  0
   21.4587   -8.9636  -12.7939 C   0  0  0  0  0  0  0  0  0  0  0  0
   21.4734   -8.7488  -14.3066 C   0  0  2  0  0  0  0  0  0  0  0  0
   22.3572   -9.7648  -14.8384 N   0  0  0  0  0  0  0  0  0  0  0  0
   22.0682   -7.4250  -14.5619 C   0  0  0  0  0  0  0  0  0  0  0  0
   23.2192   -7.3632  -15.0535 O   0  0  0  0  0  0  0  0  0  0  0  0
   24.0343   -3.4444  -16.7156 N   0  0  0  0  0  0  0  0  0  0  0  0
   22.6291   -3.6534  -16.6696 C   0  0  0  0  0  0  0  0  0  0  0  0
   21.8911   -2.7239  -17.0237 O   0  0  0  0  0  0  0  0  0  0  0  0
   22.1140   -4.9374  -16.2133 C   0  0  0  0  0  0  0  0  0  0  0  0
   21.9409   -4.9636  -14.7274 C   0  0  2  0  0  0  0  0  0  0  0  0
   21.3870   -6.2241  -14.2724 N   0  0  0  0  0  0  0  0  0  0  0  0
   21.0827   -3.8406  -14.2975 C   0  0  0  0  0  0  0  0  0  0  0  0
   21.7406   -2.7006  -13.7665 O   0  0  0  0  0  0  0  0  0  0  0  0
   19.8620   -3.7946  -14.3531 O   0  0  0  0  0  0  0  0  0  0  0  0
  2  1  1  6
  3  2  1  0
  3  4  1  0
  4  5  2  0
  5  6  1  0
  7  6  1  0
  8  7  2  0
  9  8  1  0
 10 11  1  0
 10  9  2  0
 11 12  2  0
 12  4  1  0
 12  7  1  0
 13 17  1  0
 13  2  1  0
 14 13  2  0
 16 18  1  0
 16 15  1  1
 16 17  1  0
 18 25  1  0
 19 18  2  0
 20 21  1  0
 21 22  2  0
 23 21  1  0
 24 23  1  6
 24 26  1  0
 25 24  1  0
 26 28  2  0
 26 27  1  0
M  END
$$$$
