WAN.pdb
     RDKit          3D

 28 29  0  0  1  0  0  0  0  0999 V2000
   25.4860  -18.6635  -11.2269 N   0  0  0  0  0  0  0  0  0  0  0  0
   26.4114  -19.7546  -11.5491 C   0  0  1  0  0  0  0  0  0  0  0  0
   25.9159  -21.0421  -10.9024 C   0  0  0  0  0  0  0  0  0  0  0  0
   25.8141  -20.7848   -9.4443 C   0  0  0  0  0  0  0  0  0  0  0  0
   24.6817  -20.7398   -8.6506 C   0  0  0  0  0  0  0  0  0  0  0  0
   25.0547  -20.4763   -7.3963 N   0  0  0  0  0  0  0  0  0  0  0  0
   26.4001  -20.3463   -7.3393 C   0  0  0  0  0  0  0  0  0  0  0  0
   27.2586  -20.0753   -6.2747 C   0  0  0  0  0  0  0  0  0  0  0  0
   28.6217  -20.0004   -6.5258 C   0  0  0  0  0  0  0  0  0  0  0  0
   29.0989  -20.1907   -7.7948 C   0  0  0  0  0  0  0  0  0  0  0  0
   28.2288  -20.4616   -8.8508 C   0  0  0  0  0  0  0  0  0  0  0  0
   26.8792  -20.5360   -8.6041 C   0  0  0  0  0  0  0  0  0  0  0  0
   26.4718  -19.8636  -13.0094 C   0  0  0  0  0  0  0  0  0  0  0  0
   25.4505  -19.7954  -13.7364 O   0  0  0  0  0  0  0  0  0  0  0  0
   29.3691  -20.0717  -15.3649 C   0  0  0  0  0  0  0  0  0  0  0  0
   27.8655  -20.0989  -15.0939 C   0  0  2  0  0  0  0  0  0  0  0  0
   27.7258  -20.0548  -13.6535 N   0  0  0  0  0  0  0  0  0  0  0  0
   27.3497  -21.3913  -15.5789 C   0  0  0  0  0  0  0  0  0  0  0  0
   27.1937  -22.3266  -14.7597 O   0  0  0  0  0  0  0  0  0  0  0  0
   23.2264  -24.0351  -16.2906 N   0  0  0  0  0  0  0  0  0  0  0  0
   23.5082  -22.8457  -17.0160 C   0  0  0  0  0  0  0  0  0  0  0  0
   22.7707  -22.5568  -17.9682 O   0  0  0  0  0  0  0  0  0  0  0  0
   24.6403  -22.0196  -16.6184 C   0  0  0  0  0  0  0  0  0  0  0  0
   25.9089  -22.4767  -17.2665 C   0  0  2  0  0  0  0  0  0  0  0  0
   27.0248  -21.6126  -16.9338 N   0  0  0  0  0  0  0  0  0  0  0  0
   25.7327  -22.5466  -18.7316 C   0  0  0  0  0  0  0  0  0  0  0  0
   25.3506  -23.8029  -19.2700 O   0  0  0  0  0  0  0  0  0  0  0  0
   25.8832  -21.6304  -19.5274 O   0  0  0  0  0  0  0  0  0  0  0  0
  2  1  1  6
  3  2  1  0
  3  4  1  0
  4  5  2  0
  5  6  1  0
  7  6  1  0
  8  7  2  0
  9  8  1  0
 10 11  1  0
 10  9  2  0
 11 12  2  0
 12  4  1  0
 12  7  1  0
 13 17  1  0
 13  2  1  0
 14 13  2  0
 16 18  1  0
 16 15  1  1
 16 17  1  0
 18 25  1  0
 19 18  2  0
 20 21  1  0
 21 22  2  0
 23 21  1  0
 24 23  1  1
 24 26  1  0
 25 24  1  0
 26 28  2  0
 26 27  1  0
M  END
$$$$
