WAN.pdb
     RDKit          3D

 28 29  0  0  1  0  0  0  0  0999 V2000
   24.7380  -20.6709   -8.4337 N   0  0  0  0  0  0  0  0  0  0  0  0
   25.8722  -20.3268   -9.2974 C   0  0  1  0  0  0  0  0  0  0  0  0
   27.1590  -20.8475   -8.6693 C   0  0  0  0  0  0  0  0  0  0  0  0
   27.4331  -20.0053   -7.4785 C   0  0  0  0  0  0  0  0  0  0  0  0
   26.7191  -18.9194   -7.0038 C   0  0  0  0  0  0  0  0  0  0  0  0
   27.3251  -18.4623   -5.9058 N   0  0  0  0  0  0  0  0  0  0  0  0
   28.4180  -19.2148   -5.6422 C   0  0  0  0  0  0  0  0  0  0  0  0
   29.3664  -19.1427   -4.6229 C   0  0  0  0  0  0  0  0  0  0  0  0
   30.3980  -20.0713   -4.6114 C   0  0  0  0  0  0  0  0  0  0  0  0
   30.4705  -21.0311   -5.5850 C   0  0  0  0  0  0  0  0  0  0  0  0
   29.5146  -21.0921   -6.5989 C   0  0  0  0  0  0  0  0  0  0  0  0
   28.4928  -20.1737   -6.6119 C   0  0  0  0  0  0  0  0  0  0  0  0
   25.6227  -20.9264  -10.6112 C   0  0  0  0  0  0  0  0  0  0  0  0
   25.7991  -22.1478  -10.8426 O   0  0  0  0  0  0  0  0  0  0  0  0
   23.8560  -19.6993  -13.6212 C   0  0  0  0  0  0  0  0  0  0  0  0
   24.8859  -20.6437  -13.0029 C   0  0  2  0  0  0  0  0  0  0  0  0
   25.1619  -20.1138  -11.6841 N   0  0  0  0  0  0  0  0  0  0  0  0
   26.1132  -20.5553  -13.8136 C   0  0  0  0  0  0  0  0  0  0  0  0
   26.8209  -19.5246  -13.7299 O   0  0  0  0  0  0  0  0  0  0  0  0
   30.4188  -23.7312  -16.7569 N   0  0  0  0  0  0  0  0  0  0  0  0
   29.6944  -22.5707  -16.3716 C   0  0  0  0  0  0  0  0  0  0  0  0
   30.1064  -21.4708  -16.7645 O   0  0  0  0  0  0  0  0  0  0  0  0
   28.5080  -22.7148  -15.5386 C   0  0  0  0  0  0  0  0  0  0  0  0
   27.7367  -21.4356  -15.4542 C   0  0  2  0  0  0  0  0  0  0  0  0
   26.5199  -21.5910  -14.6809 N   0  0  0  0  0  0  0  0  0  0  0  0
   27.4233  -20.9426  -16.8111 C   0  0  0  0  0  0  0  0  0  0  0  0
   28.2170  -19.8731  -17.3014 O   0  0  0  0  0  0  0  0  0  0  0  0
   26.5483  -21.3635  -17.5544 O   0  0  0  0  0  0  0  0  0  0  0  0
  2  1  1  1
  3  2  1  0
  3  4  1  0
  4  5  2  0
  5  6  1  0
  7  6  1  0
  8  7  2  0
  9  8  1  0
 10 11  1  0
 10  9  2  0
 11 12  2  0
 12  4  1  0
 12  7  1  0
 13 17  1  0
 13  2  1  0
 14 13  2  0
 16 18  1  0
 16 15  1  6
 16 17  1  0
 18 25  1  0
 19 18  2  0
 20 21  1  0
 21 22  2  0
 23 21  1  0
 24 23  1  6
 24 26  1  0
 25 24  1  0
 26 28  2  0
 26 27  1  0
M  END
$$$$
