WAN.pdb
     RDKit          3D

 28 29  0  0  1  0  0  0  0  0999 V2000
   27.8203  -20.8475  -15.6324 N   0  0  0  0  0  0  0  0  0  0  0  0
   26.7322  -21.6330  -15.0413 C   0  0  1  0  0  0  0  0  0  0  0  0
   25.6208  -20.6935  -14.5903 C   0  0  0  0  0  0  0  0  0  0  0  0
   26.1726  -19.8638  -13.4905 C   0  0  0  0  0  0  0  0  0  0  0  0
   26.8965  -18.6876  -13.5736 C   0  0  0  0  0  0  0  0  0  0  0  0
   27.1915  -18.2844  -12.3358 N   0  0  0  0  0  0  0  0  0  0  0  0
   26.6833  -19.1601  -11.4385 C   0  0  0  0  0  0  0  0  0  0  0  0
   26.7203  -19.1822  -10.0450 C   0  0  0  0  0  0  0  0  0  0  0  0
   26.0966  -20.2306   -9.3826 C   0  0  0  0  0  0  0  0  0  0  0  0
   25.4629  -21.2139  -10.0939 C   0  0  0  0  0  0  0  0  0  0  0  0
   25.4332  -21.1792  -11.4880 C   0  0  0  0  0  0  0  0  0  0  0  0
   26.0501  -20.1424  -12.1453 C   0  0  0  0  0  0  0  0  0  0  0  0
   26.2691  -22.5796  -16.0599 C   0  0  0  0  0  0  0  0  0  0  0  0
   26.0319  -22.2373  -17.2444 O   0  0  0  0  0  0  0  0  0  0  0  0
   26.3276  -26.2258  -16.3264 C   0  0  0  0  0  0  0  0  0  0  0  0
   25.5967  -24.9287  -16.6700 C   0  0  2  0  0  0  0  0  0  0  0  0
   26.0725  -23.9466  -15.7186 N   0  0  0  0  0  0  0  0  0  0  0  0
   24.1591  -25.1536  -16.4374 C   0  0  0  0  0  0  0  0  0  0  0  0
   23.5044  -25.8081  -17.2821 O   0  0  0  0  0  0  0  0  0  0  0  0
   22.2377  -27.5624  -14.6066 N   0  0  0  0  0  0  0  0  0  0  0  0
   21.8968  -26.7256  -13.5094 C   0  0  0  0  0  0  0  0  0  0  0  0
   21.7474  -27.2542  -12.3994 O   0  0  0  0  0  0  0  0  0  0  0  0
   21.7375  -25.2940  -13.7272 C   0  0  0  0  0  0  0  0  0  0  0  0
   22.0750  -24.9110  -15.1335 C   0  0  2  0  0  0  0  0  0  0  0  0
   23.4935  -24.6580  -15.2965 N   0  0  0  0  0  0  0  0  0  0  0  0
   21.2922  -23.7250  -15.5374 C   0  0  0  0  0  0  0  0  0  0  0  0
   20.0714  -23.9672  -16.2195 O   0  0  0  0  0  0  0  0  0  0  0  0
   21.5906  -22.5552  -15.3430 O   0  0  0  0  0  0  0  0  0  0  0  0
  2  1  1  6
  3  2  1  0
  3  4  1  0
  4  5  2  0
  5  6  1  0
  7  6  1  0
  8  7  2  0
  9  8  1  0
 10 11  1  0
 10  9  2  0
 11 12  2  0
 12  4  1  0
 12  7  1  0
 13 17  1  0
 13  2  1  0
 14 13  2  0
 16 18  1  0
 16 15  1  1
 16 17  1  0
 18 25  1  0
 19 18  2  0
 20 21  1  0
 21 22  2  0
 23 21  1  0
 24 23  1  1
 24 26  1  0
 25 24  1  0
 26 28  2  0
 26 27  1  0
M  END
$$$$
