WAN.pdb
     RDKit          3D

 28 29  0  0  1  0  0  0  0  0999 V2000
   28.2204  -21.1533  -10.6696 N   0  0  0  0  0  0  0  0  0  0  0  0
   26.7815  -21.1568  -10.3868 C   0  0  1  0  0  0  0  0  0  0  0  0
   26.5466  -20.6588   -8.9662 C   0  0  0  0  0  0  0  0  0  0  0  0
   27.8010  -20.8964   -8.2095 C   0  0  0  0  0  0  0  0  0  0  0  0
   28.9015  -21.6516   -8.5739 C   0  0  0  0  0  0  0  0  0  0  0  0
   29.8015  -21.5894   -7.5901 N   0  0  0  0  0  0  0  0  0  0  0  0
   29.3270  -20.8152   -6.5873 C   0  0  0  0  0  0  0  0  0  0  0  0
   29.8809  -20.4472   -5.3619 C   0  0  0  0  0  0  0  0  0  0  0  0
   29.1429  -19.6246   -4.5221 C   0  0  0  0  0  0  0  0  0  0  0  0
   27.9006  -19.1915   -4.9008 C   0  0  0  0  0  0  0  0  0  0  0  0
   27.3585  -19.5670   -6.1300 C   0  0  0  0  0  0  0  0  0  0  0  0
   28.0875  -20.3812   -6.9625 C   0  0  0  0  0  0  0  0  0  0  0  0
   26.1352  -20.2967  -11.3822 C   0  0  0  0  0  0  0  0  0  0  0  0
   26.0014  -19.0586  -11.2224 O   0  0  0  0  0  0  0  0  0  0  0  0
   25.6057  -20.4979  -14.9303 C   0  0  0  0  0  0  0  0  0  0  0  0
   24.9740  -20.0722  -13.6057 C   0  0  2  0  0  0  0  0  0  0  0  0
   25.6309  -20.8627  -12.5860 N   0  0  0  0  0  0  0  0  0  0  0  0
   23.5501  -20.4491  -13.6509 C   0  0  0  0  0  0  0  0  0  0  0  0
   22.8071  -19.9063  -14.5017 O   0  0  0  0  0  0  0  0  0  0  0  0
   18.9811  -22.4413  -13.0569 N   0  0  0  0  0  0  0  0  0  0  0  0
   19.8464  -23.3662  -12.4118 C   0  0  0  0  0  0  0  0  0  0  0  0
   19.3513  -24.4071  -11.9587 O   0  0  0  0  0  0  0  0  0  0  0  0
   21.2669  -23.0602  -12.3081 C   0  0  0  0  0  0  0  0  0  0  0  0
   21.5771  -21.6996  -12.8476 C   0  0  2  0  0  0  0  0  0  0  0  0
   22.9937  -21.4001  -12.7699 N   0  0  0  0  0  0  0  0  0  0  0  0
   20.7955  -20.6769  -12.1226 C   0  0  0  0  0  0  0  0  0  0  0  0
   19.5394  -20.3198  -12.6785 O   0  0  0  0  0  0  0  0  0  0  0  0
   21.1223  -20.1068  -11.0913 O   0  0  0  0  0  0  0  0  0  0  0  0
  2  1  1  6
  3  2  1  0
  3  4  1  0
  4  5  2  0
  5  6  1  0
  7  6  1  0
  8  7  2  0
  9  8  1  0
 10 11  1  0
 10  9  2  0
 11 12  2  0
 12  4  1  0
 12  7  1  0
 13 17  1  0
 13  2  1  0
 14 13  2  0
 16 18  1  0
 16 15  1  6
 16 17  1  0
 18 25  1  0
 19 18  2  0
 20 21  1  0
 21 22  2  0
 23 21  1  0
 24 23  1  1
 24 26  1  0
 25 24  1  0
 26 28  2  0
 26 27  1  0
M  END
$$$$
