WAN.pdb
     RDKit          3D

 28 29  0  0  1  0  0  0  0  0999 V2000
   25.9229  -22.1287  -12.3490 N   0  0  0  0  0  0  0  0  0  0  0  0
   25.6079  -20.8026  -11.8081 C   0  0  1  0  0  0  0  0  0  0  0  0
   26.8610  -19.9364  -11.8375 C   0  0  0  0  0  0  0  0  0  0  0  0
   27.7942  -20.4876  -10.8236 C   0  0  0  0  0  0  0  0  0  0  0  0
   28.8964  -21.3019  -11.0143 C   0  0  0  0  0  0  0  0  0  0  0  0
   29.4443  -21.5574   -9.8243 N   0  0  0  0  0  0  0  0  0  0  0  0
   28.7358  -20.9355   -8.8540 C   0  0  0  0  0  0  0  0  0  0  0  0
   28.9020  -20.8934   -7.4704 C   0  0  0  0  0  0  0  0  0  0  0  0
   27.9985  -20.1564   -6.7171 C   0  0  0  0  0  0  0  0  0  0  0  0
   26.9722  -19.4906   -7.3317 C   0  0  0  0  0  0  0  0  0  0  0  0
   26.8178  -19.5409   -8.7170 C   0  0  0  0  0  0  0  0  0  0  0  0
   27.7111  -20.2700   -9.4642 C   0  0  0  0  0  0  0  0  0  0  0  0
   24.5323  -20.2372  -12.6275 C   0  0  0  0  0  0  0  0  0  0  0  0
   23.8557  -19.2436  -12.2649 O   0  0  0  0  0  0  0  0  0  0  0  0
   24.2328  -20.3737  -16.2187 C   0  0  0  0  0  0  0  0  0  0  0  0
   23.4823  -20.1137  -14.9134 C   0  0  2  0  0  0  0  0  0  0  0  0
   24.2226  -20.8189  -13.8883 N   0  0  0  0  0  0  0  0  0  0  0  0
   22.1480  -20.7264  -15.0381 C   0  0  0  0  0  0  0  0  0  0  0  0
   21.3111  -20.2025  -15.8098 O   0  0  0  0  0  0  0  0  0  0  0  0
   21.3276  -25.7177  -13.7145 N   0  0  0  0  0  0  0  0  0  0  0  0
   20.6395  -24.6301  -14.3177 C   0  0  0  0  0  0  0  0  0  0  0  0
   20.4554  -24.6657  -15.5419 O   0  0  0  0  0  0  0  0  0  0  0  0
   20.1814  -23.5263  -13.4847 C   0  0  0  0  0  0  0  0  0  0  0  0
   20.3747  -22.2076  -14.1643 C   0  0  2  0  0  0  0  0  0  0  0  0
   21.7794  -21.8829  -14.3193 N   0  0  0  0  0  0  0  0  0  0  0  0
   19.6817  -21.1427  -13.4105 C   0  0  0  0  0  0  0  0  0  0  0  0
   20.2882  -20.7190  -12.1993 O   0  0  0  0  0  0  0  0  0  0  0  0
   18.6376  -20.5895  -13.7253 O   0  0  0  0  0  0  0  0  0  0  0  0
  2  1  1  6
  3  2  1  0
  3  4  1  0
  4  5  2  0
  5  6  1  0
  7  6  1  0
  8  7  2  0
  9  8  1  0
 10 11  1  0
 10  9  2  0
 11 12  2  0
 12  4  1  0
 12  7  1  0
 13 17  1  0
 13  2  1  0
 14 13  2  0
 16 18  1  0
 16 15  1  6
 16 17  1  0
 18 25  1  0
 19 18  2  0
 20 21  1  0
 21 22  2  0
 23 21  1  0
 24 23  1  1
 24 26  1  0
 25 24  1  0
 26 28  2  0
 26 27  1  0
M  END
$$$$
