WAN.pdb
     RDKit          3D

 28 29  0  0  1  0  0  0  0  0999 V2000
   27.2211  -21.5853  -15.8831 N   0  0  0  0  0  0  0  0  0  0  0  0
   26.2164  -20.6256  -15.4141 C   0  0  1  0  0  0  0  0  0  0  0  0
   25.3828  -20.1510  -16.5978 C   0  0  0  0  0  0  0  0  0  0  0  0
   26.2503  -19.2644  -17.4127 C   0  0  0  0  0  0  0  0  0  0  0  0
   26.6575  -19.4213  -18.7256 C   0  0  0  0  0  0  0  0  0  0  0  0
   27.4329  -18.3858  -19.0544 N   0  0  0  0  0  0  0  0  0  0  0  0
   27.5492  -17.5502  -17.9968 C   0  0  0  0  0  0  0  0  0  0  0  0
   28.2397  -16.3495  -17.8385 C   0  0  0  0  0  0  0  0  0  0  0  0
   28.1720  -15.7034  -16.6118 C   0  0  0  0  0  0  0  0  0  0  0  0
   27.4398  -16.2440  -15.5891 C   0  0  0  0  0  0  0  0  0  0  0  0
   26.7533  -17.4460  -15.7612 C   0  0  0  0  0  0  0  0  0  0  0  0
   26.8193  -18.0869  -16.9746 C   0  0  0  0  0  0  0  0  0  0  0  0
   25.3978  -21.3034  -14.4048 C   0  0  0  0  0  0  0  0  0  0  0  0
   25.0491  -22.5048  -14.5112 O   0  0  0  0  0  0  0  0  0  0  0  0
   24.1025  -20.2106  -11.0735 C   0  0  0  0  0  0  0  0  0  0  0  0
   24.0858  -21.1746  -12.2589 C   0  0  2  0  0  0  0  0  0  0  0  0
   24.9681  -20.5938  -13.2491 N   0  0  0  0  0  0  0  0  0  0  0  0
   22.7151  -21.1909  -12.7994 C   0  0  0  0  0  0  0  0  0  0  0  0
   22.3957  -20.3431  -13.6652 O   0  0  0  0  0  0  0  0  0  0  0  0
   20.9930  -24.2684  -14.4679 N   0  0  0  0  0  0  0  0  0  0  0  0
   20.1094  -24.4691  -13.3728 C   0  0  0  0  0  0  0  0  0  0  0  0
   19.7768  -25.6304  -13.0993 O   0  0  0  0  0  0  0  0  0  0  0  0
   19.6325  -23.3160  -12.6210 C   0  0  0  0  0  0  0  0  0  0  0  0
   20.4168  -22.0845  -12.9472 C   0  0  2  0  0  0  0  0  0  0  0  0
   21.7491  -22.1280  -12.3764 N   0  0  0  0  0  0  0  0  0  0  0  0
   19.6953  -20.8847  -12.4758 C   0  0  0  0  0  0  0  0  0  0  0  0
   19.8619  -20.5342  -11.1106 O   0  0  0  0  0  0  0  0  0  0  0  0
   18.9686  -20.1629  -13.1438 O   0  0  0  0  0  0  0  0  0  0  0  0
  2  1  1  6
  3  2  1  0
  3  4  1  0
  4  5  2  0
  5  6  1  0
  7  6  1  0
  8  7  2  0
  9  8  1  0
 10 11  1  0
 10  9  2  0
 11 12  2  0
 12  4  1  0
 12  7  1  0
 13 17  1  0
 13  2  1  0
 14 13  2  0
 16 18  1  0
 16 15  1  1
 16 17  1  0
 18 25  1  0
 19 18  2  0
 20 21  1  0
 21 22  2  0
 23 21  1  0
 24 23  1  1
 24 26  1  0
 25 24  1  0
 26 28  2  0
 26 27  1  0
M  END
$$$$
