WAN.pdb
     RDKit          3D

 28 29  0  0  1  0  0  0  0  0999 V2000
   25.0474  -18.6460  -17.5769 N   0  0  0  0  0  0  0  0  0  0  0  0
   25.3761  -18.3879  -16.1713 C   0  0  1  0  0  0  0  0  0  0  0  0
   24.0917  -18.1293  -15.3935 C   0  0  0  0  0  0  0  0  0  0  0  0
   23.5666  -16.8169  -15.8456 C   0  0  0  0  0  0  0  0  0  0  0  0
   22.3485  -16.5289  -16.4352 C   0  0  0  0  0  0  0  0  0  0  0  0
   22.2961  -15.2175  -16.6785 N   0  0  0  0  0  0  0  0  0  0  0  0
   23.4440  -14.6319  -16.2667 C   0  0  0  0  0  0  0  0  0  0  0  0
   23.8684  -13.3043  -16.3001 C   0  0  0  0  0  0  0  0  0  0  0  0
   25.1238  -12.9975  -15.7935 C   0  0  0  0  0  0  0  0  0  0  0  0
   25.9170  -13.9859  -15.2755 C   0  0  0  0  0  0  0  0  0  0  0  0
   25.4797  -15.3102  -15.2479 C   0  0  0  0  0  0  0  0  0  0  0  0
   24.2374  -15.6157  -15.7490 C   0  0  0  0  0  0  0  0  0  0  0  0
   26.0959  -19.5600  -15.6652 C   0  0  0  0  0  0  0  0  0  0  0  0
   25.8853  -20.7211  -16.0939 O   0  0  0  0  0  0  0  0  0  0  0  0
   28.9448  -19.9326  -13.2831 C   0  0  0  0  0  0  0  0  0  0  0  0
   27.7543  -20.5264  -14.0346 C   0  0  2  0  0  0  0  0  0  0  0  0
   27.0774  -19.4028  -14.6475 N   0  0  0  0  0  0  0  0  0  0  0  0
   26.8553  -21.1316  -13.0361 C   0  0  0  0  0  0  0  0  0  0  0  0
   27.2131  -22.1851  -12.4594 O   0  0  0  0  0  0  0  0  0  0  0  0
   26.8279  -21.7133  -10.0311 N   0  0  0  0  0  0  0  0  0  0  0  0
   25.8727  -20.7594   -9.5864 C   0  0  0  0  0  0  0  0  0  0  0  0
   26.0543  -20.2251   -8.4839 O   0  0  0  0  0  0  0  0  0  0  0  0
   24.7286  -20.4483  -10.4329 C   0  0  0  0  0  0  0  0  0  0  0  0
   24.7691  -21.2165  -11.7161 C   0  0  2  0  0  0  0  0  0  0  0  0
   25.6056  -20.5664  -12.7062 N   0  0  0  0  0  0  0  0  0  0  0  0
   23.4002  -21.3992  -12.2406 C   0  0  0  0  0  0  0  0  0  0  0  0
   22.4894  -22.1096  -11.4159 O   0  0  0  0  0  0  0  0  0  0  0  0
   22.9728  -20.9997  -13.3144 O   0  0  0  0  0  0  0  0  0  0  0  0
  2  1  1  6
  3  2  1  0
  3  4  1  0
  4  5  2  0
  5  6  1  0
  7  6  1  0
  8  7  2  0
  9  8  1  0
 10 11  1  0
 10  9  2  0
 11 12  2  0
 12  4  1  0
 12  7  1  0
 13 17  1  0
 13  2  1  0
 14 13  2  0
 16 18  1  0
 16 15  1  1
 16 17  1  0
 18 25  1  0
 19 18  2  0
 20 21  1  0
 21 22  2  0
 23 21  1  0
 24 23  1  1
 24 26  1  0
 25 24  1  0
 26 28  2  0
 26 27  1  0
M  END
$$$$
