WAN.pdb
     RDKit          3D

 28 29  0  0  1  0  0  0  0  0999 V2000
   37.3398  -23.9558    5.5077 N   0  0  0  0  0  0  0  0  0  0  0  0
   36.3578  -23.7233    6.5718 C   0  0  1  0  0  0  0  0  0  0  0  0
   35.0178  -24.3194    6.1588 C   0  0  0  0  0  0  0  0  0  0  0  0
   34.3490  -23.3223    5.2865 C   0  0  0  0  0  0  0  0  0  0  0  0
   34.7307  -22.8739    4.0344 C   0  0  0  0  0  0  0  0  0  0  0  0
   33.8370  -21.9746    3.6168 N   0  0  0  0  0  0  0  0  0  0  0  0
   32.8769  -21.8165    4.5567 C   0  0  0  0  0  0  0  0  0  0  0  0
   31.7431  -21.0060    4.5932 C   0  0  0  0  0  0  0  0  0  0  0  0
   30.9268  -21.0595    5.7146 C   0  0  0  0  0  0  0  0  0  0  0  0
   31.2395  -21.8938    6.7541 C   0  0  0  0  0  0  0  0  0  0  0  0
   32.3769  -22.6997    6.7043 C   0  0  0  0  0  0  0  0  0  0  0  0
   33.1861  -22.6480    5.5952 C   0  0  0  0  0  0  0  0  0  0  0  0
   36.8786  -24.3419    7.7941 C   0  0  0  0  0  0  0  0  0  0  0  0
   37.4466  -25.4616    7.7974 O   0  0  0  0  0  0  0  0  0  0  0  0
   37.0311  -23.1349   11.3345 C   0  0  0  0  0  0  0  0  0  0  0  0
   37.2200  -24.2311   10.2869 C   0  0  2  0  0  0  0  0  0  0  0  0
   36.7480  -23.6672    9.0398 N   0  0  0  0  0  0  0  0  0  0  0  0
   36.3438  -25.3563   10.6580 C   0  0  0  0  0  0  0  0  0  0  0  0
   35.1204  -25.2824   10.3965 O   0  0  0  0  0  0  0  0  0  0  0  0
   34.8795  -30.6955   10.7309 N   0  0  0  0  0  0  0  0  0  0  0  0
   35.7102  -30.0443   11.6828 C   0  0  0  0  0  0  0  0  0  0  0  0
   35.6820  -30.4493   12.8528 O   0  0  0  0  0  0  0  0  0  0  0  0
   36.5544  -28.9374   11.2532 C   0  0  0  0  0  0  0  0  0  0  0  0
   35.9296  -27.6151   11.5682 C   0  0  2  0  0  0  0  0  0  0  0  0
   36.8339  -26.5144   11.2972 N   0  0  0  0  0  0  0  0  0  0  0  0
   35.4921  -27.5846   12.9790 C   0  0  0  0  0  0  0  0  0  0  0  0
   36.3909  -27.0087   13.9143 O   0  0  0  0  0  0  0  0  0  0  0  0
   34.4331  -28.0060   13.4219 O   0  0  0  0  0  0  0  0  0  0  0  0
  2  1  1  6
  3  2  1  0
  3  4  1  0
  4  5  2  0
  5  6  1  0
  7  6  1  0
  8  7  2  0
  9  8  1  0
 10 11  1  0
 10  9  2  0
 11 12  2  0
 12  4  1  0
 12  7  1  0
 13 17  1  0
 13  2  1  0
 14 13  2  0
 16 18  1  0
 16 15  1  1
 16 17  1  0
 18 25  1  0
 19 18  2  0
 20 21  1  0
 21 22  2  0
 23 21  1  0
 24 23  1  1
 24 26  1  0
 25 24  1  0
 26 28  2  0
 26 27  1  0
M  END
$$$$
