WAN.pdb
     RDKit          3D

 28 29  0  0  1  0  0  0  0  0999 V2000
   26.7081  -20.2410  -16.0772 N   0  0  0  0  0  0  0  0  0  0  0  0
   26.9799  -19.6052  -14.7840 C   0  0  1  0  0  0  0  0  0  0  0  0
   25.7352  -18.8601  -14.3180 C   0  0  0  0  0  0  0  0  0  0  0  0
   25.5311  -17.7269  -15.2543 C   0  0  0  0  0  0  0  0  0  0  0  0
   24.3711  -17.0200  -15.5172 C   0  0  0  0  0  0  0  0  0  0  0  0
   24.6438  -16.0844  -16.4294 N   0  0  0  0  0  0  0  0  0  0  0  0
   25.9497  -16.1533  -16.7760 C   0  0  0  0  0  0  0  0  0  0  0  0
   26.7088  -15.4044  -17.6740 C   0  0  0  0  0  0  0  0  0  0  0  0
   28.0542  -15.7123  -17.8215 C   0  0  0  0  0  0  0  0  0  0  0  0
   28.6105  -16.7308  -17.0951 C   0  0  0  0  0  0  0  0  0  0  0  0
   27.8395  -17.4719  -16.1996 C   0  0  0  0  0  0  0  0  0  0  0  0
   26.5075  -17.1686  -16.0525 C   0  0  0  0  0  0  0  0  0  0  0  0
   27.3678  -20.6628  -13.8465 C   0  0  0  0  0  0  0  0  0  0  0  0
   26.9809  -21.8510  -13.9683 O   0  0  0  0  0  0  0  0  0  0  0  0
   29.6834  -20.6728  -10.9085 C   0  0  0  0  0  0  0  0  0  0  0  0
   28.6173  -21.3482  -11.7699 C   0  0  2  0  0  0  0  0  0  0  0  0
   28.2159  -20.3570  -12.7460 N   0  0  0  0  0  0  0  0  0  0  0  0
   27.4663  -21.6470  -10.8996 C   0  0  0  0  0  0  0  0  0  0  0  0
   27.1399  -22.8431  -10.7171 O   0  0  0  0  0  0  0  0  0  0  0  0
   27.1265  -18.6267   -7.4330 N   0  0  0  0  0  0  0  0  0  0  0  0
   26.4726  -19.8859   -7.5177 C   0  0  0  0  0  0  0  0  0  0  0  0
   26.9305  -20.8248   -6.8523 O   0  0  0  0  0  0  0  0  0  0  0  0
   25.3020  -20.0251   -8.3736 C   0  0  0  0  0  0  0  0  0  0  0  0
   25.5477  -20.9927   -9.4879 C   0  0  2  0  0  0  0  0  0  0  0  0
   26.7187  -20.6335  -10.2641 N   0  0  0  0  0  0  0  0  0  0  0  0
   24.3583  -21.0732  -10.3605 C   0  0  0  0  0  0  0  0  0  0  0  0
   23.1389  -21.4582   -9.7446 O   0  0  0  0  0  0  0  0  0  0  0  0
   24.3188  -20.8413  -11.5604 O   0  0  0  0  0  0  0  0  0  0  0  0
  2  1  1  6
  3  2  1  0
  3  4  1  0
  4  5  2  0
  5  6  1  0
  7  6  1  0
  8  7  2  0
  9  8  1  0
 10 11  1  0
 10  9  2  0
 11 12  2  0
 12  4  1  0
 12  7  1  0
 13 17  1  0
 13  2  1  0
 14 13  2  0
 16 18  1  0
 16 15  1  1
 16 17  1  0
 18 25  1  0
 19 18  2  0
 20 21  1  0
 21 22  2  0
 23 21  1  0
 24 23  1  1
 24 26  1  0
 25 24  1  0
 26 28  2  0
 26 27  1  0
M  END
$$$$
