WAN.pdb
     RDKit          3D

 28 29  0  0  1  0  0  0  0  0999 V2000
   25.9619  -18.8473  -12.2395 N   0  0  0  0  0  0  0  0  0  0  0  0
   26.6307  -20.1346  -12.4542 C   0  0  1  0  0  0  0  0  0  0  0  0
   25.8969  -21.2189  -11.6750 C   0  0  0  0  0  0  0  0  0  0  0  0
   25.9030  -20.8088  -10.2487 C   0  0  0  0  0  0  0  0  0  0  0  0
   24.8472  -20.3680   -9.4707 C   0  0  0  0  0  0  0  0  0  0  0  0
   25.3057  -20.1067   -8.2446 N   0  0  0  0  0  0  0  0  0  0  0  0
   26.6332  -20.3623   -8.1909 C   0  0  0  0  0  0  0  0  0  0  0  0
   27.5550  -20.2503   -7.1511 C   0  0  0  0  0  0  0  0  0  0  0  0
   28.8774  -20.5922   -7.3989 C   0  0  0  0  0  0  0  0  0  0  0  0
   29.2541  -21.0283   -8.6407 C   0  0  0  0  0  0  0  0  0  0  0  0
   28.3212  -21.1360   -9.6721 C   0  0  0  0  0  0  0  0  0  0  0  0
   27.0120  -20.7979   -9.4287 C   0  0  0  0  0  0  0  0  0  0  0  0
   26.6257  -20.3981  -13.8959 C   0  0  0  0  0  0  0  0  0  0  0  0
   25.8045  -19.8614  -14.6795 O   0  0  0  0  0  0  0  0  0  0  0  0
   29.0602  -22.2159  -16.0629 C   0  0  0  0  0  0  0  0  0  0  0  0
   27.7338  -21.4790  -15.8825 C   0  0  2  0  0  0  0  0  0  0  0  0
   27.5790  -21.2940  -14.4549 N   0  0  0  0  0  0  0  0  0  0  0  0
   26.6620  -22.3692  -16.3623 C   0  0  0  0  0  0  0  0  0  0  0  0
   26.5410  -22.5612  -17.5947 O   0  0  0  0  0  0  0  0  0  0  0  0
   26.0031  -26.0373  -16.8176 N   0  0  0  0  0  0  0  0  0  0  0  0
   25.1842  -26.1726  -15.6638 C   0  0  0  0  0  0  0  0  0  0  0  0
   25.1547  -27.2737  -15.0974 O   0  0  0  0  0  0  0  0  0  0  0  0
   24.4182  -25.0256  -15.1949 C   0  0  0  0  0  0  0  0  0  0  0  0
   24.6840  -23.8102  -16.0257 C   0  0  2  0  0  0  0  0  0  0  0  0
   25.7669  -23.0133  -15.4825 N   0  0  0  0  0  0  0  0  0  0  0  0
   23.4561  -22.9970  -16.1413 C   0  0  0  0  0  0  0  0  0  0  0  0
   22.6576  -23.2060  -17.2959 O   0  0  0  0  0  0  0  0  0  0  0  0
   23.0584  -22.1616  -15.3418 O   0  0  0  0  0  0  0  0  0  0  0  0
  2  1  1  6
  3  2  1  0
  3  4  1  0
  4  5  2  0
  5  6  1  0
  7  6  1  0
  8  7  2  0
  9  8  1  0
 10 11  1  0
 10  9  2  0
 11 12  2  0
 12  4  1  0
 12  7  1  0
 13 17  1  0
 13  2  1  0
 14 13  2  0
 16 18  1  0
 16 15  1  1
 16 17  1  0
 18 25  1  0
 19 18  2  0
 20 21  1  0
 21 22  2  0
 23 21  1  0
 24 23  1  1
 24 26  1  0
 25 24  1  0
 26 28  2  0
 26 27  1  0
M  END
$$$$
