WAN.pdb
     RDKit          3D

 28 29  0  0  1  0  0  0  0  0999 V2000
   25.9762  -19.0297  -12.9856 N   0  0  0  0  0  0  0  0  0  0  0  0
   26.7926  -20.2479  -12.9917 C   0  0  1  0  0  0  0  0  0  0  0  0
   26.0862  -21.3310  -12.1860 C   0  0  0  0  0  0  0  0  0  0  0  0
   26.0058  -20.8478  -10.7851 C   0  0  0  0  0  0  0  0  0  0  0  0
   24.9291  -20.2822  -10.1254 C   0  0  0  0  0  0  0  0  0  0  0  0
   25.3021  -19.9945   -8.8765 N   0  0  0  0  0  0  0  0  0  0  0  0
   26.5934  -20.3538   -8.6928 C   0  0  0  0  0  0  0  0  0  0  0  0
   27.4295  -20.2623   -7.5809 C   0  0  0  0  0  0  0  0  0  0  0  0
   28.7340  -20.7231   -7.6937 C   0  0  0  0  0  0  0  0  0  0  0  0
   29.1765  -21.2535   -8.8758 C   0  0  0  0  0  0  0  0  0  0  0  0
   28.3291  -21.3395   -9.9804 C   0  0  0  0  0  0  0  0  0  0  0  0
   27.0377  -20.8837   -9.8706 C   0  0  0  0  0  0  0  0  0  0  0  0
   26.9836  -20.6427  -14.3901 C   0  0  0  0  0  0  0  0  0  0  0  0
   26.2266  -20.2535  -15.3131 O   0  0  0  0  0  0  0  0  0  0  0  0
   29.7229  -22.5480  -16.0747 C   0  0  0  0  0  0  0  0  0  0  0  0
   28.3584  -21.8613  -16.1129 C   0  0  2  0  0  0  0  0  0  0  0  0
   28.0625  -21.5006  -14.7423 N   0  0  0  0  0  0  0  0  0  0  0  0
   27.3712  -22.8587  -16.5623 C   0  0  0  0  0  0  0  0  0  0  0  0
   27.4127  -23.2592  -17.7490 O   0  0  0  0  0  0  0  0  0  0  0  0
   24.0797  -26.6097  -16.9283 N   0  0  0  0  0  0  0  0  0  0  0  0
   24.1775  -26.3795  -15.5292 C   0  0  0  0  0  0  0  0  0  0  0  0
   23.5919  -27.1623  -14.7687 O   0  0  0  0  0  0  0  0  0  0  0  0
   24.9534  -25.2451  -15.0459 C   0  0  0  0  0  0  0  0  0  0  0  0
   25.5139  -24.4410  -16.1762 C   0  0  2  0  0  0  0  0  0  0  0  0
   26.3808  -23.3792  -15.7031 N   0  0  0  0  0  0  0  0  0  0  0  0
   24.4173  -23.8827  -16.9935 C   0  0  0  0  0  0  0  0  0  0  0  0
   24.1953  -24.4828  -18.2604 O   0  0  0  0  0  0  0  0  0  0  0  0
   23.6813  -22.9552  -16.6881 O   0  0  0  0  0  0  0  0  0  0  0  0
  2  1  1  6
  3  2  1  0
  3  4  1  0
  4  5  2  0
  5  6  1  0
  7  6  1  0
  8  7  2  0
  9  8  1  0
 10 11  1  0
 10  9  2  0
 11 12  2  0
 12  4  1  0
 12  7  1  0
 13 17  1  0
 13  2  1  0
 14 13  2  0
 16 18  1  0
 16 15  1  1
 16 17  1  0
 18 25  1  0
 19 18  2  0
 20 21  1  0
 21 22  2  0
 23 21  1  0
 24 23  1  1
 24 26  1  0
 25 24  1  0
 26 28  2  0
 26 27  1  0
M  END
$$$$
