WAN.pdb
     RDKit          3D

 28 29  0  0  1  0  0  0  0  0999 V2000
   13.3710  -10.8129  -10.1948 N   0  0  0  0  0  0  0  0  0  0  0  0
   14.5292   -9.9377  -10.4027 C   0  0  1  0  0  0  0  0  0  0  0  0
   14.8110   -9.8221  -11.8956 C   0  0  0  0  0  0  0  0  0  0  0  0
   15.2844  -11.1523  -12.3527 C   0  0  0  0  0  0  0  0  0  0  0  0
   14.5545  -12.3123  -12.5423 C   0  0  0  0  0  0  0  0  0  0  0  0
   15.3845  -13.2707  -12.9596 N   0  0  0  0  0  0  0  0  0  0  0  0
   16.6408  -12.7770  -13.0510 C   0  0  0  0  0  0  0  0  0  0  0  0
   17.8420  -13.3710  -13.4354 C   0  0  0  0  0  0  0  0  0  0  0  0
   18.9946  -12.5974  -13.4303 C   0  0  0  0  0  0  0  0  0  0  0  0
   18.9388  -11.2822  -13.0543 C   0  0  0  0  0  0  0  0  0  0  0  0
   17.7300  -10.7003  -12.6725 C   0  0  0  0  0  0  0  0  0  0  0  0
   16.5882  -11.4645  -12.6768 C   0  0  0  0  0  0  0  0  0  0  0  0
   14.2122   -8.6384   -9.8033 C   0  0  0  0  0  0  0  0  0  0  0  0
   13.2282   -7.9477  -10.1653 O   0  0  0  0  0  0  0  0  0  0  0  0
   15.2236   -6.9404   -6.7160 C   0  0  0  0  0  0  0  0  0  0  0  0
   14.8246   -6.8083   -8.1850 C   0  0  2  0  0  0  0  0  0  0  0  0
   15.0368   -8.1164   -8.7682 N   0  0  0  0  0  0  0  0  0  0  0  0
   15.7550   -5.8544   -8.8143 C   0  0  0  0  0  0  0  0  0  0  0  0
   16.9855   -6.0855   -8.7627 O   0  0  0  0  0  0  0  0  0  0  0  0
   17.8194   -2.6313  -12.0623 N   0  0  0  0  0  0  0  0  0  0  0  0
   17.6615   -4.0261  -12.2853 C   0  0  0  0  0  0  0  0  0  0  0  0
   18.2383   -4.5282  -13.2595 O   0  0  0  0  0  0  0  0  0  0  0  0
   16.8370   -4.8052  -11.3713 C   0  0  0  0  0  0  0  0  0  0  0  0
   16.2324   -3.9449  -10.3070 C   0  0  2  0  0  0  0  0  0  0  0  0
   15.3088   -4.6896   -9.4733 N   0  0  0  0  0  0  0  0  0  0  0  0
   15.5514   -2.7854  -10.9188 C   0  0  0  0  0  0  0  0  0  0  0  0
   16.3627   -1.6682  -11.2472 O   0  0  0  0  0  0  0  0  0  0  0  0
   14.3586   -2.6916  -11.1708 O   0  0  0  0  0  0  0  0  0  0  0  0
  2  1  1  6
  3  2  1  0
  3  4  1  0
  4  5  2  0
  5  6  1  0
  7  6  1  0
  8  7  2  0
  9  8  1  0
 10 11  1  0
 10  9  2  0
 11 12  2  0
 12  4  1  0
 12  7  1  0
 13 17  1  0
 13  2  1  0
 14 13  2  0
 16 18  1  0
 16 15  1  1
 16 17  1  0
 18 25  1  0
 19 18  2  0
 20 21  1  0
 21 22  2  0
 23 21  1  0
 24 23  1  6
 24 26  1  0
 25 24  1  0
 26 28  2  0
 26 27  1  0
M  END
$$$$
