WAN.pdb
     RDKit          3D

 28 29  0  0  1  0  0  0  0  0999 V2000
   27.4135  -22.2237  -13.0541 N   0  0  0  0  0  0  0  0  0  0  0  0
   26.1746  -21.7311  -12.4434 C   0  0  1  0  0  0  0  0  0  0  0  0
   26.4481  -20.4001  -11.7541 C   0  0  0  0  0  0  0  0  0  0  0  0
   27.5514  -20.6294  -10.7883 C   0  0  0  0  0  0  0  0  0  0  0  0
   28.8586  -21.0055  -11.0414 C   0  0  0  0  0  0  0  0  0  0  0  0
   29.5053  -21.0968   -9.8773 N   0  0  0  0  0  0  0  0  0  0  0  0
   28.6629  -20.7920   -8.8635 C   0  0  0  0  0  0  0  0  0  0  0  0
   28.8563  -20.7427   -7.4837 C   0  0  0  0  0  0  0  0  0  0  0  0
   27.7833  -20.3899   -6.6769 C   0  0  0  0  0  0  0  0  0  0  0  0
   26.5682  -20.0990   -7.2365 C   0  0  0  0  0  0  0  0  0  0  0  0
   26.3886  -20.1517   -8.6187 C   0  0  0  0  0  0  0  0  0  0  0  0
   27.4495  -20.5009   -9.4189 C   0  0  0  0  0  0  0  0  0  0  0  0
   25.1793  -21.6001  -13.5111 C   0  0  0  0  0  0  0  0  0  0  0  0
   25.2083  -20.6695  -14.3534 O   0  0  0  0  0  0  0  0  0  0  0  0
   23.0086  -24.0966  -15.0309 C   0  0  0  0  0  0  0  0  0  0  0  0
   23.2410  -22.6105  -14.7623 C   0  0  2  0  0  0  0  0  0  0  0  0
   24.1280  -22.5525  -13.6195 N   0  0  0  0  0  0  0  0  0  0  0  0
   21.9452  -22.0190  -14.3848 C   0  0  0  0  0  0  0  0  0  0  0  0
   21.0394  -21.9451  -15.2475 O   0  0  0  0  0  0  0  0  0  0  0  0
   19.1394  -23.2026  -13.5279 N   0  0  0  0  0  0  0  0  0  0  0  0
   19.0999  -22.8799  -12.1442 C   0  0  0  0  0  0  0  0  0  0  0  0
   18.5568  -23.6843  -11.3748 O   0  0  0  0  0  0  0  0  0  0  0  0
   19.6922  -21.6301  -11.6866 C   0  0  0  0  0  0  0  0  0  0  0  0
   20.4060  -20.9219  -12.7944 C   0  0  2  0  0  0  0  0  0  0  0  0
   21.6884  -21.5332  -13.0855 N   0  0  0  0  0  0  0  0  0  0  0  0
   20.5829  -19.4956  -12.4528 C   0  0  0  0  0  0  0  0  0  0  0  0
   21.9111  -18.9954  -12.4657 O   0  0  0  0  0  0  0  0  0  0  0  0
   19.6996  -18.7023  -12.1599 O   0  0  0  0  0  0  0  0  0  0  0  0
  2  1  1  6
  3  2  1  0
  3  4  1  0
  4  5  2  0
  5  6  1  0
  7  6  1  0
  8  7  2  0
  9  8  1  0
 10 11  1  0
 10  9  2  0
 11 12  2  0
 12  4  1  0
 12  7  1  0
 13 17  1  0
 13  2  1  0
 14 13  2  0
 16 18  1  0
 16 15  1  1
 16 17  1  0
 18 25  1  0
 19 18  2  0
 20 21  1  0
 21 22  2  0
 23 21  1  0
 24 23  1  1
 24 26  1  0
 25 24  1  0
 26 28  2  0
 26 27  1  0
M  END
$$$$
