NDS.pdb
     RDKit          3D

 23 22  0  0  1  0  0  0  0  0999 V2000
   11.1047  -16.1526   15.8451 N   0  0  0  0  0  0  0  0  0  0  0  0
   10.9906  -17.5275   16.0941 C   0  0  0  0  0  0  0  0  0  0  0  0
   10.5487  -18.2843   15.2038 O   0  0  0  0  0  0  0  0  0  0  0  0
   11.3876  -18.0747   17.3919 C   0  0  0  0  0  0  0  0  0  0  0  0
   11.8808  -17.0188   18.3532 C   0  0  2  0  0  0  0  0  0  0  0  0
   13.2638  -16.6693   18.1008 N   0  0  0  0  0  0  0  0  0  0  0  0
   11.8190  -17.6406   19.7221 C   0  0  0  0  0  0  0  0  0  0  0  0
   10.7350  -18.1459   20.1499 O   0  0  0  0  0  0  0  0  0  0  0  0
   12.9393  -17.6885   20.5724 N   0  0  0  0  0  0  0  0  0  0  0  0
   12.8141  -18.2056   21.8959 C   0  0  1  0  0  0  0  0  0  0  0  0
   14.0928  -18.8302   22.4007 C   0  0  0  0  0  0  0  0  0  0  0  0
   14.5449  -19.9631   21.5559 C   0  0  0  0  0  0  0  0  0  0  0  0
   13.8773  -21.0291   21.5227 O   0  0  0  0  0  0  0  0  0  0  0  0
   12.4254  -17.1550   22.8820 C   0  0  0  0  0  0  0  0  0  0  0  0
   13.1452  -16.1346   22.9379 O   0  0  0  0  0  0  0  0  0  0  0  0
   15.7113  -19.8604   20.7911 O   0  0  0  0  0  0  0  0  0  0  0  0
    8.8162  -16.1810   23.9553 O   0  0  0  0  0  0  0  0  0  0  0  0
    9.9150  -15.3819   24.2013 C   0  0  0  0  0  0  0  0  0  0  0  0
   11.0526  -16.2331   24.7151 C   0  0  2  0  0  0  0  0  0  0  0  0
   11.3060  -17.2615   23.7347 N   0  0  0  0  0  0  0  0  0  0  0  0
   10.7709  -16.7973   26.0576 C   0  0  0  0  0  0  0  0  0  0  0  0
   10.5646  -15.9984   27.1713 O   0  0  0  0  0  0  0  0  0  0  0  0
   10.7120  -18.0425   26.2176 O   0  0  0  0  0  0  0  0  0  0  0  0
  2  1  1  0
  3  2  2  0
  4  2  1  0
  5  6  1  6
  5  4  1  0
  7  5  1  0
  7  8  2  0
  9  7  1  0
 10  9  1  0
 10 14  1  0
 10 11  1  1
 12 13  2  0
 12 11  1  0
 14 15  2  0
 14 20  1  0
 16 12  1  0
 18 17  1  0
 19 18  1  6
 19 21  1  0
 20 19  1  0
 21 23  2  0
 21 22  1  0
M  END
$$$$
