NDS.pdb
     RDKit          3D

 23 22  0  0  1  0  0  0  0  0999 V2000
    7.9642  -13.1475   15.4474 N   0  0  0  0  0  0  0  0  0  0  0  0
    7.5433  -14.4825   15.5250 C   0  0  0  0  0  0  0  0  0  0  0  0
    7.0216  -15.0270   14.5290 O   0  0  0  0  0  0  0  0  0  0  0  0
    7.7142  -15.2359   16.7678 C   0  0  0  0  0  0  0  0  0  0  0  0
    8.1203  -14.3670   17.9350 C   0  0  2  0  0  0  0  0  0  0  0  0
    9.2858  -13.5646   17.6249 N   0  0  0  0  0  0  0  0  0  0  0  0
    8.5081  -15.3106   19.0413 C   0  0  0  0  0  0  0  0  0  0  0  0
    7.6614  -16.1329   19.5107 O   0  0  0  0  0  0  0  0  0  0  0  0
    9.8023  -15.3228   19.5937 N   0  0  0  0  0  0  0  0  0  0  0  0
   10.1290  -16.2402   20.6361 C   0  0  1  0  0  0  0  0  0  0  0  0
   11.5453  -16.7543   20.5368 C   0  0  0  0  0  0  0  0  0  0  0  0
   11.8324  -17.8251   21.5229 C   0  0  0  0  0  0  0  0  0  0  0  0
   12.2794  -17.5291   22.6613 O   0  0  0  0  0  0  0  0  0  0  0  0
    9.9808  -15.6356   21.9924 C   0  0  0  0  0  0  0  0  0  0  0  0
   10.7513  -14.6948   22.2820 O   0  0  0  0  0  0  0  0  0  0  0  0
   11.6112  -19.1680   21.2011 O   0  0  0  0  0  0  0  0  0  0  0  0
    7.0871  -14.4053   23.2180 O   0  0  0  0  0  0  0  0  0  0  0  0
    7.5497  -14.9189   24.4132 C   0  0  0  0  0  0  0  0  0  0  0  0
    8.9607  -15.4275   24.2309 C   0  0  2  0  0  0  0  0  0  0  0  0
    9.0301  -16.0701   22.9404 N   0  0  0  0  0  0  0  0  0  0  0  0
    9.3788  -16.3321   25.3294 C   0  0  0  0  0  0  0  0  0  0  0  0
    9.3768  -15.9380   26.6583 O   0  0  0  0  0  0  0  0  0  0  0  0
    9.7529  -17.5041   25.0722 O   0  0  0  0  0  0  0  0  0  0  0  0
  2  1  1  0
  3  2  2  0
  4  2  1  0
  5  6  1  6
  5  4  1  0
  7  5  1  0
  7  8  2  0
  9  7  1  0
 10  9  1  0
 10 14  1  0
 10 11  1  6
 12 13  2  0
 12 11  1  0
 14 15  2  0
 14 20  1  0
 16 12  1  0
 18 17  1  0
 19 18  1  1
 19 21  1  0
 20 19  1  0
 21 23  2  0
 21 22  1  0
M  END
$$$$
