NDS.pdb
     RDKit          3D

 23 22  0  0  1  0  0  0  0  0999 V2000
    6.8264  -12.7484   17.9433 N   0  0  0  0  0  0  0  0  0  0  0  0
    7.9729  -13.5551   17.9537 C   0  0  0  0  0  0  0  0  0  0  0  0
    8.7086  -13.6001   16.9450 O   0  0  0  0  0  0  0  0  0  0  0  0
    8.3071  -14.3418   19.1414 C   0  0  0  0  0  0  0  0  0  0  0  0
    8.4712  -15.8147   18.8484 C   0  0  2  0  0  0  0  0  0  0  0  0
    7.2312  -16.4120   18.3968 N   0  0  0  0  0  0  0  0  0  0  0  0
    8.8287  -16.4625   20.1588 C   0  0  0  0  0  0  0  0  0  0  0  0
    7.9423  -17.0646   20.8408 O   0  0  0  0  0  0  0  0  0  0  0  0
   10.1369  -16.4300   20.6761 N   0  0  0  0  0  0  0  0  0  0  0  0
   10.4639  -17.1746   21.8481 C   0  0  1  0  0  0  0  0  0  0  0  0
   11.8640  -17.7386   21.8081 C   0  0  0  0  0  0  0  0  0  0  0  0
   12.2008  -18.5128   23.0282 C   0  0  0  0  0  0  0  0  0  0  0  0
   11.3606  -19.3101   23.5197 O   0  0  0  0  0  0  0  0  0  0  0  0
   10.3621  -16.3533   23.0900 C   0  0  0  0  0  0  0  0  0  0  0  0
   11.1566  -15.3950   23.2037 O   0  0  0  0  0  0  0  0  0  0  0  0
   13.4484  -18.3666   23.6430 O   0  0  0  0  0  0  0  0  0  0  0  0
    7.7737  -14.4124   24.2171 O   0  0  0  0  0  0  0  0  0  0  0  0
    8.0221  -15.1391   25.3646 C   0  0  0  0  0  0  0  0  0  0  0  0
    9.3994  -15.7549   25.2831 C   0  0  2  0  0  0  0  0  0  0  0  0
    9.4290  -16.6062   24.1180 N   0  0  0  0  0  0  0  0  0  0  0  0
    9.7618  -16.4878   26.5206 C   0  0  0  0  0  0  0  0  0  0  0  0
    9.7457  -15.8892   27.7707 O   0  0  0  0  0  0  0  0  0  0  0  0
   10.0995  -17.6969   26.4604 O   0  0  0  0  0  0  0  0  0  0  0  0
  2  1  1  0
  3  2  2  0
  4  2  1  0
  5  6  1  1
  5  4  1  0
  7  5  1  0
  7  8  2  0
  9  7  1  0
 10  9  1  0
 10 14  1  0
 10 11  1  6
 12 13  2  0
 12 11  1  0
 14 15  2  0
 14 20  1  0
 16 12  1  0
 18 17  1  0
 19 18  1  1
 19 21  1  0
 20 19  1  0
 21 23  2  0
 21 22  1  0
M  END
$$$$
