NDS.pdb
     RDKit          3D

 23 22  0  0  1  0  0  0  0  0999 V2000
    6.6758  -12.7698   18.7924 N   0  0  0  0  0  0  0  0  0  0  0  0
    7.5801  -13.6750   18.2194 C   0  0  0  0  0  0  0  0  0  0  0  0
    7.6728  -13.7556   16.9762 O   0  0  0  0  0  0  0  0  0  0  0  0
    8.4125  -14.5225   19.0739 C   0  0  0  0  0  0  0  0  0  0  0  0
    8.5773  -15.9244   18.5357 C   0  0  2  0  0  0  0  0  0  0  0  0
    7.3103  -16.6232   18.4657 N   0  0  0  0  0  0  0  0  0  0  0  0
    9.4364  -16.6546   19.5324 C   0  0  0  0  0  0  0  0  0  0  0  0
    8.9047  -17.3781   20.4307 O   0  0  0  0  0  0  0  0  0  0  0  0
   10.8409  -16.5689   19.5127 N   0  0  0  0  0  0  0  0  0  0  0  0
   11.6195  -17.3352   20.4300 C   0  0  1  0  0  0  0  0  0  0  0  0
   13.0616  -17.4663   20.0023 C   0  0  0  0  0  0  0  0  0  0  0  0
   13.8270  -18.4035   20.8610 C   0  0  0  0  0  0  0  0  0  0  0  0
   13.2431  -19.0361   21.7786 O   0  0  0  0  0  0  0  0  0  0  0  0
   11.6253  -16.7459   21.8011 C   0  0  0  0  0  0  0  0  0  0  0  0
   12.1261  -15.6076   21.9278 O   0  0  0  0  0  0  0  0  0  0  0  0
   15.1981  -18.5939   20.6621 O   0  0  0  0  0  0  0  0  0  0  0  0
    9.4183  -15.4749   25.4667 O   0  0  0  0  0  0  0  0  0  0  0  0
    9.5566  -16.2199   24.3125 C   0  0  0  0  0  0  0  0  0  0  0  0
   10.9863  -16.6916   24.1851 C   0  0  2  0  0  0  0  0  0  0  0  0
   11.1017  -17.4032   22.9348 N   0  0  0  0  0  0  0  0  0  0  0  0
   11.4107  -17.5187   25.3408 C   0  0  0  0  0  0  0  0  0  0  0  0
   11.8923  -18.8101   25.1935 O   0  0  0  0  0  0  0  0  0  0  0  0
   11.3410  -17.0548   26.5067 O   0  0  0  0  0  0  0  0  0  0  0  0
  2  1  1  0
  3  2  2  0
  4  2  1  0
  5  6  1  1
  5  4  1  0
  7  5  1  0
  7  8  2  0
  9  7  1  0
 10  9  1  0
 10 14  1  0
 10 11  1  6
 12 13  2  0
 12 11  1  0
 14 15  2  0
 14 20  1  0
 16 12  1  0
 18 17  1  0
 19 18  1  1
 19 21  1  0
 20 19  1  0
 21 23  2  0
 21 22  1  0
M  END
$$$$
