NDS.pdb
     RDKit          3D

 23 22  0  0  1  0  0  0  0  0999 V2000
    8.6883  -14.1882   15.0421 N   0  0  0  0  0  0  0  0  0  0  0  0
    7.4522  -14.5930   15.5652 C   0  0  0  0  0  0  0  0  0  0  0  0
    6.6028  -15.1171   14.8139 O   0  0  0  0  0  0  0  0  0  0  0  0
    7.1576  -14.4024   16.9858 C   0  0  0  0  0  0  0  0  0  0  0  0
    8.2188  -13.6062   17.7083 C   0  0  2  0  0  0  0  0  0  0  0  0
    8.8435  -12.6324   16.8366 N   0  0  0  0  0  0  0  0  0  0  0  0
    9.2805  -14.5946   18.1087 C   0  0  0  0  0  0  0  0  0  0  0  0
    8.9971  -15.5663   18.8761 O   0  0  0  0  0  0  0  0  0  0  0  0
   10.6094  -14.4873   17.6583 N   0  0  0  0  0  0  0  0  0  0  0  0
   11.5731  -15.4731   18.0247 C   0  0  1  0  0  0  0  0  0  0  0  0
   12.5732  -15.7464   16.9269 C   0  0  0  0  0  0  0  0  0  0  0  0
   13.3514  -16.9876   17.1619 C   0  0  0  0  0  0  0  0  0  0  0  0
   12.8165  -17.9645   17.7475 O   0  0  0  0  0  0  0  0  0  0  0  0
   12.3534  -15.0827   19.2354 C   0  0  0  0  0  0  0  0  0  0  0  0
   12.7633  -13.9030   19.2907 O   0  0  0  0  0  0  0  0  0  0  0  0
   14.6804  -17.0862   16.7381 O   0  0  0  0  0  0  0  0  0  0  0  0
   11.5369  -14.7049   22.6399 O   0  0  0  0  0  0  0  0  0  0  0  0
   12.5369  -15.6568   22.6580 C   0  0  0  0  0  0  0  0  0  0  0  0
   13.4035  -15.5011   21.4302 C   0  0  2  0  0  0  0  0  0  0  0  0
   12.6420  -15.9674   20.2962 N   0  0  0  0  0  0  0  0  0  0  0  0
   14.6996  -16.2098   21.5631 C   0  0  0  0  0  0  0  0  0  0  0  0
   14.7842  -17.5386   21.9481 O   0  0  0  0  0  0  0  0  0  0  0  0
   15.7752  -15.6054   21.3235 O   0  0  0  0  0  0  0  0  0  0  0  0
  2  1  1  0
  3  2  2  0
  4  2  1  0
  5  6  1  6
  5  4  1  0
  7  5  1  0
  7  8  2  0
  9  7  1  0
 10  9  1  0
 10 14  1  0
 10 11  1  6
 12 13  2  0
 12 11  1  0
 14 15  2  0
 14 20  1  0
 16 12  1  0
 18 17  1  0
 19 18  1  1
 19 21  1  0
 20 19  1  0
 21 23  2  0
 21 22  1  0
M  END
$$$$
