NDS.pdb
     RDKit          3D

 23 22  0  0  1  0  0  0  0  0999 V2000
    7.8314  -13.0666   15.1410 N   0  0  0  0  0  0  0  0  0  0  0  0
    8.0331  -14.4457   15.2919 C   0  0  0  0  0  0  0  0  0  0  0  0
    7.1899  -15.2487   14.8394 O   0  0  0  0  0  0  0  0  0  0  0  0
    9.2266  -14.9431   15.9769 C   0  0  0  0  0  0  0  0  0  0  0  0
    9.1324  -14.8380   17.4810 C   0  0  2  0  0  0  0  0  0  0  0  0
    9.0166  -13.4608   17.9150 N   0  0  0  0  0  0  0  0  0  0  0  0
   10.4344  -15.3684   18.0177 C   0  0  0  0  0  0  0  0  0  0  0  0
   10.7814  -16.5691   17.7909 O   0  0  0  0  0  0  0  0  0  0  0  0
   11.3082  -14.5716   18.7804 N   0  0  0  0  0  0  0  0  0  0  0  0
   12.4605  -15.1511   19.3897 C   0  0  1  0  0  0  0  0  0  0  0  0
   13.7325  -14.4107   19.0521 C   0  0  0  0  0  0  0  0  0  0  0  0
   14.9458  -15.1121   19.5395 C   0  0  0  0  0  0  0  0  0  0  0  0
   15.3532  -14.9222   20.7147 O   0  0  0  0  0  0  0  0  0  0  0  0
   12.3600  -15.1849   20.8782 C   0  0  0  0  0  0  0  0  0  0  0  0
   12.8754  -14.2334   21.5039 O   0  0  0  0  0  0  0  0  0  0  0  0
   15.6468  -15.9873   18.7038 O   0  0  0  0  0  0  0  0  0  0  0  0
    9.7274  -15.4681   24.4943 O   0  0  0  0  0  0  0  0  0  0  0  0
   10.0032  -15.7008   23.1616 C   0  0  0  0  0  0  0  0  0  0  0  0
   11.4619  -16.0617   23.0042 C   0  0  2  0  0  0  0  0  0  0  0  0
   11.7227  -16.2211   21.5936 N   0  0  0  0  0  0  0  0  0  0  0  0
   11.8291  -17.2706   23.7810 C   0  0  0  0  0  0  0  0  0  0  0  0
   11.8933  -17.2734   25.1656 O   0  0  0  0  0  0  0  0  0  0  0  0
   12.0965  -18.3446   23.1855 O   0  0  0  0  0  0  0  0  0  0  0  0
  2  1  1  0
  3  2  2  0
  4  2  1  0
  5  6  1  6
  5  4  1  0
  7  5  1  0
  7  8  2  0
  9  7  1  0
 10  9  1  0
 10 14  1  0
 10 11  1  1
 12 13  2  0
 12 11  1  0
 14 15  2  0
 14 20  1  0
 16 12  1  0
 18 17  1  0
 19 18  1  6
 19 21  1  0
 20 19  1  0
 21 23  2  0
 21 22  1  0
M  END
$$$$
