NDS.pdb
     RDKit          3D

 23 22  0  0  1  0  0  0  0  0999 V2000
    7.8268  -15.9300   13.8510 N   0  0  0  0  0  0  0  0  0  0  0  0
    7.6630  -14.8896   14.7762 C   0  0  0  0  0  0  0  0  0  0  0  0
    7.7043  -13.7028   14.3883 O   0  0  0  0  0  0  0  0  0  0  0  0
    7.4445  -15.1921   16.1911 C   0  0  0  0  0  0  0  0  0  0  0  0
    8.3166  -14.3722   17.1128 C   0  0  2  0  0  0  0  0  0  0  0  0
    9.6575  -14.2203   16.5861 N   0  0  0  0  0  0  0  0  0  0  0  0
    8.4246  -15.1577   18.3918 C   0  0  0  0  0  0  0  0  0  0  0  0
    7.3778  -15.5347   19.0045 O   0  0  0  0  0  0  0  0  0  0  0  0
    9.6675  -15.5026   18.9543 N   0  0  0  0  0  0  0  0  0  0  0  0
    9.7261  -16.3479   20.1018 C   0  0  1  0  0  0  0  0  0  0  0  0
   10.9062  -17.2894   20.0720 C   0  0  0  0  0  0  0  0  0  0  0  0
   10.9649  -18.1665   21.2674 C   0  0  0  0  0  0  0  0  0  0  0  0
    9.9249  -18.7464   21.6742 O   0  0  0  0  0  0  0  0  0  0  0  0
    9.8206  -15.5735   21.3740 C   0  0  0  0  0  0  0  0  0  0  0  0
   10.8236  -14.8419   21.5201 O   0  0  0  0  0  0  0  0  0  0  0  0
   12.1691  -18.3582   21.9520 O   0  0  0  0  0  0  0  0  0  0  0  0
    6.6980  -14.4255   23.6344 O   0  0  0  0  0  0  0  0  0  0  0  0
    7.9295  -13.8013   23.6187 C   0  0  0  0  0  0  0  0  0  0  0  0
    9.0228  -14.8438   23.5934 C   0  0  2  0  0  0  0  0  0  0  0  0
    8.8489  -15.6302   22.3956 N   0  0  0  0  0  0  0  0  0  0  0  0
    9.0290  -15.6822   24.8169 C   0  0  0  0  0  0  0  0  0  0  0  0
    9.2889  -15.1601   26.0743 O   0  0  0  0  0  0  0  0  0  0  0  0
    8.7929  -16.9140   24.7374 O   0  0  0  0  0  0  0  0  0  0  0  0
  2  1  1  0
  3  2  2  0
  4  2  1  0
  5  6  1  6
  5  4  1  0
  7  5  1  0
  7  8  2  0
  9  7  1  0
 10  9  1  0
 10 14  1  0
 10 11  1  6
 12 13  2  0
 12 11  1  0
 14 15  2  0
 14 20  1  0
 16 12  1  0
 18 17  1  0
 19 18  1  1
 19 21  1  0
 20 19  1  0
 21 23  2  0
 21 22  1  0
M  END
$$$$
