NDS.pdb
     RDKit          3D

 23 22  0  0  1  0  0  0  0  0999 V2000
    7.9231  -14.5873   14.0690 N   0  0  0  0  0  0  0  0  0  0  0  0
    7.4581  -14.2283   15.3418 C   0  0  0  0  0  0  0  0  0  0  0  0
    6.7548  -13.2050   15.4790 O   0  0  0  0  0  0  0  0  0  0  0  0
    7.7951  -15.0487   16.5057 C   0  0  0  0  0  0  0  0  0  0  0  0
    8.4864  -14.2685   17.5992 C   0  0  2  0  0  0  0  0  0  0  0  0
    9.6852  -13.6154   17.1147 N   0  0  0  0  0  0  0  0  0  0  0  0
    8.9129  -15.2812   18.6273 C   0  0  0  0  0  0  0  0  0  0  0  0
    8.0499  -16.0123   19.2054 O   0  0  0  0  0  0  0  0  0  0  0  0
   10.2618  -15.4590   18.9864 N   0  0  0  0  0  0  0  0  0  0  0  0
   10.6153  -16.3856   20.0117 C   0  0  1  0  0  0  0  0  0  0  0  0
   11.9737  -17.0073   19.7918 C   0  0  0  0  0  0  0  0  0  0  0  0
   12.0421  -17.7965   18.5372 C   0  0  0  0  0  0  0  0  0  0  0  0
   11.3436  -18.8351   18.4081 O   0  0  0  0  0  0  0  0  0  0  0  0
   10.6405  -15.7546   21.3639 C   0  0  0  0  0  0  0  0  0  0  0  0
   11.5197  -14.8904   21.5709 O   0  0  0  0  0  0  0  0  0  0  0  0
   12.8784  -17.3980   17.4896 O   0  0  0  0  0  0  0  0  0  0  0  0
    7.5016  -15.5211   23.8326 O   0  0  0  0  0  0  0  0  0  0  0  0
    8.5863  -14.6731   23.9364 C   0  0  0  0  0  0  0  0  0  0  0  0
    9.8584  -15.4487   23.6854 C   0  0  2  0  0  0  0  0  0  0  0  0
    9.7354  -16.0839   22.3952 N   0  0  0  0  0  0  0  0  0  0  0  0
   10.1439  -16.4252   24.7646 C   0  0  0  0  0  0  0  0  0  0  0  0
   10.4088  -16.0359   26.0683 O   0  0  0  0  0  0  0  0  0  0  0  0
   10.1519  -17.6567   24.5137 O   0  0  0  0  0  0  0  0  0  0  0  0
  2  1  1  0
  3  2  2  0
  4  2  1  0
  5  6  1  6
  5  4  1  0
  7  5  1  0
  7  8  2  0
  9  7  1  0
 10  9  1  0
 10 14  1  0
 10 11  1  6
 12 13  2  0
 12 11  1  0
 14 15  2  0
 14 20  1  0
 16 12  1  0
 18 17  1  0
 19 18  1  1
 19 21  1  0
 20 19  1  0
 21 23  2  0
 21 22  1  0
M  END
$$$$
