NDS.pdb
     RDKit          3D

 23 22  0  0  1  0  0  0  0  0999 V2000
    7.2844  -15.0173   13.6665 N   0  0  0  0  0  0  0  0  0  0  0  0
    7.6428  -14.3906   14.8682 C   0  0  0  0  0  0  0  0  0  0  0  0
    7.2045  -13.2498   15.1273 O   0  0  0  0  0  0  0  0  0  0  0  0
    8.5271  -15.0698   15.8160 C   0  0  0  0  0  0  0  0  0  0  0  0
    8.5966  -14.3804   17.1584 C   0  0  2  0  0  0  0  0  0  0  0  0
    8.9335  -12.9780   17.0230 N   0  0  0  0  0  0  0  0  0  0  0  0
    9.7223  -15.0408   17.9076 C   0  0  0  0  0  0  0  0  0  0  0  0
    9.6742  -16.2811   18.1770 O   0  0  0  0  0  0  0  0  0  0  0  0
   10.8565  -14.3257   18.3347 N   0  0  0  0  0  0  0  0  0  0  0  0
   11.8215  -14.9491   19.1802 C   0  0  1  0  0  0  0  0  0  0  0  0
   13.2175  -14.4163   18.9625 C   0  0  0  0  0  0  0  0  0  0  0  0
   14.2427  -15.1831   19.7125 C   0  0  0  0  0  0  0  0  0  0  0  0
   13.8909  -16.0109   20.5924 O   0  0  0  0  0  0  0  0  0  0  0  0
   11.5091  -14.7689   20.6283 C   0  0  0  0  0  0  0  0  0  0  0  0
   12.2705  -14.0266   21.2855 O   0  0  0  0  0  0  0  0  0  0  0  0
   15.6040  -14.9963   19.4520 O   0  0  0  0  0  0  0  0  0  0  0  0
    7.9049  -15.5102   22.3065 O   0  0  0  0  0  0  0  0  0  0  0  0
    8.8162  -14.6447   22.8782 C   0  0  0  0  0  0  0  0  0  0  0  0
   10.2138  -15.1863   22.6882 C   0  0  2  0  0  0  0  0  0  0  0  0
   10.4161  -15.3862   21.2731 N   0  0  0  0  0  0  0  0  0  0  0  0
   10.4470  -16.4267   23.4672 C   0  0  0  0  0  0  0  0  0  0  0  0
   10.8025  -17.6249   22.8681 O   0  0  0  0  0  0  0  0  0  0  0  0
   10.3241  -16.4172   24.7180 O   0  0  0  0  0  0  0  0  0  0  0  0
  2  1  1  0
  3  2  2  0
  4  2  1  0
  5  6  1  6
  5  4  1  0
  7  5  1  0
  7  8  2  0
  9  7  1  0
 10  9  1  0
 10 14  1  0
 10 11  1  1
 12 13  2  0
 12 11  1  0
 14 15  2  0
 14 20  1  0
 16 12  1  0
 18 17  1  0
 19 18  1  6
 19 21  1  0
 20 19  1  0
 21 23  2  0
 21 22  1  0
M  END
$$$$
