WCF.pdb
     RDKit          3D

 32 34  0  0  1  0  0  0  0  0999 V2000
   23.7182  -17.4201  -18.6259 N   0  0  0  0  0  0  0  0  0  0  0  0
   23.6193  -17.5360  -17.1924 C   0  0  1  0  0  0  0  0  0  0  0  0
   22.2582  -18.0934  -16.8274 C   0  0  0  0  0  0  0  0  0  0  0  0
   21.1470  -17.1719  -17.1433 C   0  0  0  0  0  0  0  0  0  0  0  0
   20.5079  -17.0730  -18.3587 C   0  0  0  0  0  0  0  0  0  0  0  0
   19.5671  -16.1030  -18.2976 N   0  0  0  0  0  0  0  0  0  0  0  0
   19.5711  -15.5603  -17.0692 C   0  0  0  0  0  0  0  0  0  0  0  0
   18.8237  -14.5657  -16.4961 C   0  0  0  0  0  0  0  0  0  0  0  0
   18.9947  -14.1659  -15.1870 C   0  0  0  0  0  0  0  0  0  0  0  0
   19.9689  -14.8277  -14.4756 C   0  0  0  0  0  0  0  0  0  0  0  0
   20.7489  -15.8473  -15.0324 C   0  0  0  0  0  0  0  0  0  0  0  0
   20.5437  -16.2105  -16.3390 C   0  0  0  0  0  0  0  0  0  0  0  0
   24.7121  -18.3926  -16.6784 C   0  0  0  0  0  0  0  0  0  0  0  0
   24.8050  -19.6134  -16.9772 O   0  0  0  0  0  0  0  0  0  0  0  0
   25.7348  -17.8790  -15.8076 N   0  0  0  0  0  0  0  0  0  0  0  0
   26.8115  -18.7110  -15.3020 C   0  0  1  0  0  0  0  0  0  0  0  0
   28.0990  -17.8776  -15.1855 C   0  0  0  0  0  0  0  0  0  0  0  0
   28.5070  -17.3039  -16.8573 S   0  0  0  0  0  0  0  0  0  0  0  0
   26.5403  -19.1973  -13.9350 C   0  0  0  0  0  0  0  0  0  0  0  0
   26.3843  -18.3409  -13.0194 O   0  0  0  0  0  0  0  0  0  0  0  0
   26.4398  -20.5653  -13.5767 N   0  0  0  0  0  0  0  0  0  0  0  0
   26.1385  -20.9273  -12.1820 C   0  0  1  0  0  0  0  0  0  0  0  0
   24.7496  -20.3971  -11.9003 C   0  0  0  0  0  0  0  0  0  0  0  0
   24.1788  -20.8481  -10.6172 C   0  0  0  0  0  0  0  0  0  0  0  0
   24.6338  -20.1800   -9.4715 C   0  0  0  0  0  0  0  0  0  0  0  0
   24.1355  -20.5543   -8.2468 C   0  0  0  0  0  0  0  0  0  0  0  0
   23.2062  -21.5695   -8.1642 C   0  0  0  0  0  0  0  0  0  0  0  0
   22.7644  -22.2205   -9.2927 C   0  0  0  0  0  0  0  0  0  0  0  0
   23.2573  -21.8518  -10.5144 C   0  0  0  0  0  0  0  0  0  0  0  0
   26.1633  -22.3853  -11.9767 C   0  0  0  0  0  0  0  0  0  0  0  0
   25.9204  -23.1734  -12.9278 O   0  0  0  0  0  0  0  0  0  0  0  0
   26.4501  -22.9569  -10.7565 O   0  0  0  0  0  0  0  0  0  0  0  0
  2  1  1  6
  2 13  1  0
  2  3  1  0
  4  3  1  0
  4  5  2  0
  6  5  1  0
  7  6  1  0
  8  7  2  0
  9  8  1  0
 10  9  2  0
 10 11  1  0
 11 12  2  0
 12  7  1  0
 12  4  1  0
 13 14  2  0
 15 16  1  0
 15 13  1  0
 16 17  1  1
 17 18  1  0
 19 16  1  0
 20 19  2  0
 21 19  1  0
 22 21  1  0
 22 23  1  6
 24 23  1  0
 25 24  2  0
 26 25  1  0
 27 26  2  0
 27 28  1  0
 28 29  2  0
 29 24  1  0
 30 32  1  0
 30 22  1  0
 31 30  2  0
M  END
$$$$
