WCF.pdb
     RDKit          3D

 32 34  0  0  1  0  0  0  0  0999 V2000
   27.0300  -36.3785  -12.0030 N   0  0  0  0  0  0  0  0  0  0  0  0
   26.3529  -35.2473  -11.4200 C   0  0  1  0  0  0  0  0  0  0  0  0
   24.9210  -35.2107  -11.9150 C   0  0  0  0  0  0  0  0  0  0  0  0
   24.8034  -34.7986  -13.3292 C   0  0  0  0  0  0  0  0  0  0  0  0
   25.2847  -35.5000  -14.4117 C   0  0  0  0  0  0  0  0  0  0  0  0
   25.0307  -34.8101  -15.5472 N   0  0  0  0  0  0  0  0  0  0  0  0
   24.3922  -33.6698  -15.2378 C   0  0  0  0  0  0  0  0  0  0  0  0
   23.9138  -32.6413  -16.0057 C   0  0  0  0  0  0  0  0  0  0  0  0
   23.2686  -31.5475  -15.4671 C   0  0  0  0  0  0  0  0  0  0  0  0
   23.1276  -31.5428  -14.0984 C   0  0  0  0  0  0  0  0  0  0  0  0
   23.6055  -32.5778  -13.2869 C   0  0  0  0  0  0  0  0  0  0  0  0
   24.2418  -33.6452  -13.8673 C   0  0  0  0  0  0  0  0  0  0  0  0
   26.4145  -35.3282   -9.9429 C   0  0  0  0  0  0  0  0  0  0  0  0
   26.5289  -36.4262   -9.3351 O   0  0  0  0  0  0  0  0  0  0  0  0
   26.3491  -34.1548   -9.1142 N   0  0  0  0  0  0  0  0  0  0  0  0
   26.3503  -34.2291   -7.6645 C   0  0  1  0  0  0  0  0  0  0  0  0
   27.2779  -33.1444   -7.0911 C   0  0  0  0  0  0  0  0  0  0  0  0
   27.2645  -33.3406   -5.2878 S   0  0  0  0  0  0  0  0  0  0  0  0
   25.0197  -33.9415   -7.0942 C   0  0  0  0  0  0  0  0  0  0  0  0
   24.4504  -32.8640   -7.4274 O   0  0  0  0  0  0  0  0  0  0  0  0
   24.3316  -34.7956   -6.1958 N   0  0  0  0  0  0  0  0  0  0  0  0
   23.0193  -34.3854   -5.6697 C   0  0  1  0  0  0  0  0  0  0  0  0
   22.0369  -34.5590   -6.8074 C   0  0  0  0  0  0  0  0  0  0  0  0
   20.6426  -34.2278   -6.4583 C   0  0  0  0  0  0  0  0  0  0  0  0
   19.7803  -35.3164   -6.2652 C   0  0  0  0  0  0  0  0  0  0  0  0
   18.4693  -35.0704   -5.9350 C   0  0  0  0  0  0  0  0  0  0  0  0
   18.0268  -33.7714   -5.8001 C   0  0  0  0  0  0  0  0  0  0  0  0
   18.8787  -32.7082   -5.9911 C   0  0  0  0  0  0  0  0  0  0  0  0
   20.1848  -32.9477   -6.3201 C   0  0  0  0  0  0  0  0  0  0  0  0
   22.6042  -35.2145   -4.5257 C   0  0  0  0  0  0  0  0  0  0  0  0
   22.9569  -36.4200   -4.4429 O   0  0  0  0  0  0  0  0  0  0  0  0
   21.8233  -34.7258   -3.5013 O   0  0  0  0  0  0  0  0  0  0  0  0
  2  1  1  6
  2 13  1  0
  2  3  1  0
  4  3  1  0
  4  5  2  0
  6  5  1  0
  7  6  1  0
  8  7  2  0
  9  8  1  0
 10  9  2  0
 10 11  1  0
 11 12  2  0
 12  7  1  0
 12  4  1  0
 13 14  2  0
 15 16  1  0
 15 13  1  0
 16 17  1  1
 17 18  1  0
 19 16  1  0
 20 19  2  0
 21 19  1  0
 22 21  1  0
 22 23  1  6
 24 23  1  0
 25 24  2  0
 26 25  1  0
 27 26  2  0
 27 28  1  0
 28 29  2  0
 29 24  1  0
 30 32  1  0
 30 22  1  0
 31 30  2  0
M  END
$$$$
