WCF.pdb
     RDKit          3D

 32 34  0  0  1  0  0  0  0  0999 V2000
   23.1573  -19.2202  -14.6349 N   0  0  0  0  0  0  0  0  0  0  0  0
   23.6791  -20.3639  -13.9296 C   0  0  1  0  0  0  0  0  0  0  0  0
   24.4927  -21.2135  -14.8851 C   0  0  0  0  0  0  0  0  0  0  0  0
   23.7075  -21.7159  -16.0317 C   0  0  0  0  0  0  0  0  0  0  0  0
   24.0009  -21.5028  -17.3599 C   0  0  0  0  0  0  0  0  0  0  0  0
   23.0494  -22.0765  -18.1313 N   0  0  0  0  0  0  0  0  0  0  0  0
   22.1352  -22.6635  -17.3418 C   0  0  0  0  0  0  0  0  0  0  0  0
   20.9961  -23.3729  -17.6167 C   0  0  0  0  0  0  0  0  0  0  0  0
   20.1933  -23.9044  -16.6290 C   0  0  0  0  0  0  0  0  0  0  0  0
   20.6017  -23.6824  -15.3339 C   0  0  0  0  0  0  0  0  0  0  0  0
   21.7596  -22.9618  -15.0207 C   0  0  0  0  0  0  0  0  0  0  0  0
   22.5264  -22.4511  -16.0366 C   0  0  0  0  0  0  0  0  0  0  0  0
   24.4909  -19.9177  -12.7746 C   0  0  0  0  0  0  0  0  0  0  0  0
   25.3899  -19.0414  -12.8846 O   0  0  0  0  0  0  0  0  0  0  0  0
   24.2983  -20.4587  -11.4562 N   0  0  0  0  0  0  0  0  0  0  0  0
   24.8006  -19.7965  -10.2660 C   0  0  1  0  0  0  0  0  0  0  0  0
   23.6227  -19.3801   -9.3689 C   0  0  0  0  0  0  0  0  0  0  0  0
   22.4225  -20.7396   -9.4123 S   0  0  0  0  0  0  0  0  0  0  0  0
   25.6204  -20.6992   -9.4343 C   0  0  0  0  0  0  0  0  0  0  0  0
   25.4152  -21.9424   -9.5265 O   0  0  0  0  0  0  0  0  0  0  0  0
   26.6286  -20.2663   -8.5365 N   0  0  0  0  0  0  0  0  0  0  0  0
   27.3395  -21.2590   -7.7142 C   0  0  1  0  0  0  0  0  0  0  0  0
   28.6889  -20.6528   -7.3958 C   0  0  0  0  0  0  0  0  0  0  0  0
   28.6757  -19.7096   -6.2619 C   0  0  0  0  0  0  0  0  0  0  0  0
   29.0627  -20.2332   -5.0201 C   0  0  0  0  0  0  0  0  0  0  0  0
   29.0733  -19.4012   -3.9265 C   0  0  0  0  0  0  0  0  0  0  0  0
   28.7073  -18.0791   -4.0655 C   0  0  0  0  0  0  0  0  0  0  0  0
   28.3287  -17.5723   -5.2871 C   0  0  0  0  0  0  0  0  0  0  0  0
   28.3164  -18.3965   -6.3790 C   0  0  0  0  0  0  0  0  0  0  0  0
   26.6197  -21.5507   -6.4631 C   0  0  0  0  0  0  0  0  0  0  0  0
   25.5969  -20.8916   -6.1404 O   0  0  0  0  0  0  0  0  0  0  0  0
   27.0168  -22.5431   -5.5940 O   0  0  0  0  0  0  0  0  0  0  0  0
  2  1  1  6
  2 13  1  0
  2  3  1  0
  4  3  1  0
  4  5  2  0
  6  5  1  0
  7  6  1  0
  8  7  2  0
  9  8  1  0
 10  9  2  0
 10 11  1  0
 11 12  2  0
 12  7  1  0
 12  4  1  0
 13 14  2  0
 15 16  1  0
 15 13  1  0
 16 17  1  1
 17 18  1  0
 19 16  1  0
 20 19  2  0
 21 19  1  0
 22 21  1  0
 22 23  1  1
 24 23  1  0
 25 24  2  0
 26 25  1  0
 27 26  2  0
 27 28  1  0
 28 29  2  0
 29 24  1  0
 30 32  1  0
 30 22  1  0
 31 30  2  0
M  END
$$$$
