WCF.pdb
     RDKit          3D

 32 34  0  0  1  0  0  0  0  0999 V2000
   29.0580  -21.5594  -15.0552 N   0  0  0  0  0  0  0  0  0  0  0  0
   28.0680  -21.3909  -14.0211 C   0  0  1  0  0  0  0  0  0  0  0  0
   28.3903  -20.1477  -13.2165 C   0  0  0  0  0  0  0  0  0  0  0  0
   29.6955  -20.2213  -12.5276 C   0  0  0  0  0  0  0  0  0  0  0  0
   30.8407  -19.5573  -12.9059 C   0  0  0  0  0  0  0  0  0  0  0  0
   31.8517  -19.8860  -12.0695 N   0  0  0  0  0  0  0  0  0  0  0  0
   31.3988  -20.7515  -11.1478 C   0  0  0  0  0  0  0  0  0  0  0  0
   32.0050  -21.3753  -10.0895 C   0  0  0  0  0  0  0  0  0  0  0  0
   31.3325  -22.2379   -9.2490 C   0  0  0  0  0  0  0  0  0  0  0  0
   30.0016  -22.4424   -9.5321 C   0  0  0  0  0  0  0  0  0  0  0  0
   29.3541  -21.8205  -10.6055 C   0  0  0  0  0  0  0  0  0  0  0  0
   30.0639  -20.9711  -11.4152 C   0  0  0  0  0  0  0  0  0  0  0  0
   26.7174  -21.3127  -14.6229 C   0  0  0  0  0  0  0  0  0  0  0  0
   26.4586  -20.5532  -15.5947 O   0  0  0  0  0  0  0  0  0  0  0  0
   25.6203  -22.1028  -14.1330 N   0  0  0  0  0  0  0  0  0  0  0  0
   24.2424  -21.8240  -14.4949 C   0  0  1  0  0  0  0  0  0  0  0  0
   23.6794  -22.9891  -15.3264 C   0  0  0  0  0  0  0  0  0  0  0  0
   24.6433  -24.4619  -14.8880 S   0  0  0  0  0  0  0  0  0  0  0  0
   23.3661  -21.7348  -13.3106 C   0  0  0  0  0  0  0  0  0  0  0  0
   23.3265  -22.7231  -12.5246 O   0  0  0  0  0  0  0  0  0  0  0  0
   22.5635  -20.6107  -12.9908 N   0  0  0  0  0  0  0  0  0  0  0  0
   21.6605  -20.6736  -11.8299 C   0  0  1  0  0  0  0  0  0  0  0  0
   22.1853  -19.6632  -10.8334 C   0  0  0  0  0  0  0  0  0  0  0  0
   23.1922  -20.2016   -9.8995 C   0  0  0  0  0  0  0  0  0  0  0  0
   22.7730  -21.2645   -9.0870 C   0  0  0  0  0  0  0  0  0  0  0  0
   23.6684  -21.8101   -8.1986 C   0  0  0  0  0  0  0  0  0  0  0  0
   24.9508  -21.3094   -8.1208 C   0  0  0  0  0  0  0  0  0  0  0  0
   25.3549  -20.2661   -8.9213 C   0  0  0  0  0  0  0  0  0  0  0  0
   24.4675  -19.7195   -9.8073 C   0  0  0  0  0  0  0  0  0  0  0  0
   20.2744  -20.3356  -12.1949 C   0  0  0  0  0  0  0  0  0  0  0  0
   19.3349  -20.4969  -11.3729 O   0  0  0  0  0  0  0  0  0  0  0  0
   19.9357  -19.8323  -13.4318 O   0  0  0  0  0  0  0  0  0  0  0  0
  2  1  1  6
  2 13  1  0
  2  3  1  0
  4  3  1  0
  4  5  2  0
  6  5  1  0
  7  6  1  0
  8  7  2  0
  9  8  1  0
 10  9  2  0
 10 11  1  0
 11 12  2  0
 12  7  1  0
 12  4  1  0
 13 14  2  0
 15 16  1  0
 15 13  1  0
 16 17  1  6
 17 18  1  0
 19 16  1  0
 20 19  2  0
 21 19  1  0
 22 21  1  0
 22 23  1  1
 24 23  1  0
 25 24  2  0
 26 25  1  0
 27 26  2  0
 27 28  1  0
 28 29  2  0
 29 24  1  0
 30 32  1  0
 30 22  1  0
 31 30  2  0
M  END
$$$$
