WCF.pdb
     RDKit          3D

 32 34  0  0  1  0  0  0  0  0999 V2000
   26.5551  -19.5405  -14.8026 N   0  0  0  0  0  0  0  0  0  0  0  0
   27.0215  -18.4320  -14.0079 C   0  0  1  0  0  0  0  0  0  0  0  0
   26.6005  -17.1326  -14.6643 C   0  0  0  0  0  0  0  0  0  0  0  0
   27.2063  -16.9294  -15.9967 C   0  0  0  0  0  0  0  0  0  0  0  0
   26.5376  -16.5178  -17.1277 C   0  0  0  0  0  0  0  0  0  0  0  0
   27.3972  -16.4750  -18.1712 N   0  0  0  0  0  0  0  0  0  0  0  0
   28.6178  -16.8486  -17.7539 C   0  0  0  0  0  0  0  0  0  0  0  0
   29.8192  -16.9678  -18.4012 C   0  0  0  0  0  0  0  0  0  0  0  0
   30.9733  -17.3691  -17.7611 C   0  0  0  0  0  0  0  0  0  0  0  0
   30.8541  -17.6475  -16.4188 C   0  0  0  0  0  0  0  0  0  0  0  0
   29.6414  -17.5358  -15.7296 C   0  0  0  0  0  0  0  0  0  0  0  0
   28.5194  -17.1338  -16.4083 C   0  0  0  0  0  0  0  0  0  0  0  0
   26.4915  -18.5403  -12.6297 C   0  0  0  0  0  0  0  0  0  0  0  0
   26.0504  -17.5419  -11.9998 O   0  0  0  0  0  0  0  0  0  0  0  0
   26.4476  -19.7953  -11.9289 N   0  0  0  0  0  0  0  0  0  0  0  0
   25.9448  -19.9076  -10.5717 C   0  0  1  0  0  0  0  0  0  0  0  0
   24.6513  -20.7398  -10.5658 C   0  0  0  0  0  0  0  0  0  0  0  0
   24.9899  -22.2446  -11.5205 S   0  0  0  0  0  0  0  0  0  0  0  0
   26.8794  -20.6386   -9.6938 C   0  0  0  0  0  0  0  0  0  0  0  0
   27.5145  -21.6148  -10.1833 O   0  0  0  0  0  0  0  0  0  0  0  0
   27.1167  -20.3184   -8.3332 N   0  0  0  0  0  0  0  0  0  0  0  0
   27.5656  -21.3733   -7.4097 C   0  0  1  0  0  0  0  0  0  0  0  0
   28.8892  -20.9040   -6.8464 C   0  0  0  0  0  0  0  0  0  0  0  0
   28.7664  -19.9528   -5.7258 C   0  0  0  0  0  0  0  0  0  0  0  0
   28.5618  -18.6107   -6.0763 C   0  0  0  0  0  0  0  0  0  0  0  0
   28.4368  -17.6780   -5.0749 C   0  0  0  0  0  0  0  0  0  0  0  0
   28.5135  -18.0717   -3.7557 C   0  0  0  0  0  0  0  0  0  0  0  0
   28.7144  -19.3905   -3.4194 C   0  0  0  0  0  0  0  0  0  0  0  0
   28.8396  -20.3229   -4.4125 C   0  0  0  0  0  0  0  0  0  0  0  0
   26.6070  -21.5849   -6.3121 C   0  0  0  0  0  0  0  0  0  0  0  0
   25.5575  -20.8943   -6.2321 O   0  0  0  0  0  0  0  0  0  0  0  0
   26.8007  -22.5332   -5.3318 O   0  0  0  0  0  0  0  0  0  0  0  0
  2  1  1  6
  2 13  1  0
  2  3  1  0
  4  3  1  0
  4  5  2  0
  6  5  1  0
  7  6  1  0
  8  7  2  0
  9  8  1  0
 10  9  2  0
 10 11  1  0
 11 12  2  0
 12  7  1  0
 12  4  1  0
 13 14  2  0
 15 16  1  0
 15 13  1  0
 16 17  1  6
 17 18  1  0
 19 16  1  0
 20 19  2  0
 21 19  1  0
 22 21  1  0
 22 23  1  1
 24 23  1  0
 25 24  2  0
 26 25  1  0
 27 26  2  0
 27 28  1  0
 28 29  2  0
 29 24  1  0
 30 32  1  0
 30 22  1  0
 31 30  2  0
M  END
$$$$
