WCF.pdb
     RDKit          3D

 32 34  0  0  1  0  0  0  0  0999 V2000
   24.8047  -18.1562  -15.3580 N   0  0  0  0  0  0  0  0  0  0  0  0
   25.9151  -18.4092  -14.4742 C   0  0  1  0  0  0  0  0  0  0  0  0
   26.4346  -17.0927  -13.9325 C   0  0  0  0  0  0  0  0  0  0  0  0
   27.0695  -16.2474  -14.9649 C   0  0  0  0  0  0  0  0  0  0  0  0
   26.7932  -14.9183  -15.1947 C   0  0  0  0  0  0  0  0  0  0  0  0
   27.5332  -14.4759  -16.2370 N   0  0  0  0  0  0  0  0  0  0  0  0
   28.2916  -15.4831  -16.6994 C   0  0  0  0  0  0  0  0  0  0  0  0
   29.2049  -15.5598  -17.7175 C   0  0  0  0  0  0  0  0  0  0  0  0
   29.8890  -16.7192  -18.0184 C   0  0  0  0  0  0  0  0  0  0  0  0
   29.6029  -17.8110  -17.2314 C   0  0  0  0  0  0  0  0  0  0  0  0
   28.6754  -17.7646  -16.1847 C   0  0  0  0  0  0  0  0  0  0  0  0
   28.0183  -16.5895  -15.9230 C   0  0  0  0  0  0  0  0  0  0  0  0
   25.4950  -19.3172  -13.3828 C   0  0  0  0  0  0  0  0  0  0  0  0
   24.3692  -19.2200  -12.8248 O   0  0  0  0  0  0  0  0  0  0  0  0
   26.3492  -20.3668  -12.8963 N   0  0  0  0  0  0  0  0  0  0  0  0
   25.9630  -21.2334  -11.7976 C   0  0  1  0  0  0  0  0  0  0  0  0
   26.2686  -22.6966  -12.1600 C   0  0  0  0  0  0  0  0  0  0  0  0
   24.9998  -23.2206  -13.3457 S   0  0  0  0  0  0  0  0  0  0  0  0
   26.7492  -20.9645  -10.5776 C   0  0  0  0  0  0  0  0  0  0  0  0
   27.9872  -21.2151  -10.6010 O   0  0  0  0  0  0  0  0  0  0  0  0
   26.2094  -20.4398   -9.3763 N   0  0  0  0  0  0  0  0  0  0  0  0
   26.8401  -20.7807   -8.0906 C   0  0  1  0  0  0  0  0  0  0  0  0
   27.5543  -19.5297   -7.6275 C   0  0  0  0  0  0  0  0  0  0  0  0
   28.1894  -19.6515   -6.3018 C   0  0  0  0  0  0  0  0  0  0  0  0
   29.2652  -20.5464   -6.2137 C   0  0  0  0  0  0  0  0  0  0  0  0
   29.8992  -20.7003   -5.0042 C   0  0  0  0  0  0  0  0  0  0  0  0
   29.4726  -19.9805   -3.9083 C   0  0  0  0  0  0  0  0  0  0  0  0
   28.4162  -19.1043   -4.0023 C   0  0  0  0  0  0  0  0  0  0  0  0
   27.7816  -18.9474   -5.2040 C   0  0  0  0  0  0  0  0  0  0  0  0
   25.8457  -21.1854   -7.0827 C   0  0  0  0  0  0  0  0  0  0  0  0
   24.6188  -20.9734   -7.2678 O   0  0  0  0  0  0  0  0  0  0  0  0
   26.1959  -21.8081   -5.9048 O   0  0  0  0  0  0  0  0  0  0  0  0
  2  1  1  6
  2 13  1  0
  2  3  1  0
  4  3  1  0
  4  5  2  0
  6  5  1  0
  7  6  1  0
  8  7  2  0
  9  8  1  0
 10  9  2  0
 10 11  1  0
 11 12  2  0
 12  7  1  0
 12  4  1  0
 13 14  2  0
 15 16  1  0
 15 13  1  0
 16 17  1  6
 17 18  1  0
 19 16  1  0
 20 19  2  0
 21 19  1  0
 22 21  1  0
 22 23  1  1
 24 23  1  0
 25 24  2  0
 26 25  1  0
 27 26  2  0
 27 28  1  0
 28 29  2  0
 29 24  1  0
 30 32  1  0
 30 22  1  0
 31 30  2  0
M  END
$$$$
