WCF.pdb
     RDKit          3D

 32 34  0  0  1  0  0  0  0  0999 V2000
   24.5739  -18.7831  -18.8463 N   0  0  0  0  0  0  0  0  0  0  0  0
   24.2797  -18.5771  -17.4503 C   0  0  1  0  0  0  0  0  0  0  0  0
   22.8028  -18.8160  -17.2087 C   0  0  0  0  0  0  0  0  0  0  0  0
   21.9396  -17.7689  -17.7935 C   0  0  0  0  0  0  0  0  0  0  0  0
   21.5862  -17.6692  -19.1204 C   0  0  0  0  0  0  0  0  0  0  0  0
   20.8181  -16.5708  -19.3030 N   0  0  0  0  0  0  0  0  0  0  0  0
   20.6567  -15.9441  -18.1262 C   0  0  0  0  0  0  0  0  0  0  0  0
   19.9747  -14.8111  -17.7688 C   0  0  0  0  0  0  0  0  0  0  0  0
   19.9355  -14.3435  -16.4717 C   0  0  0  0  0  0  0  0  0  0  0  0
   20.6267  -15.0850  -15.5411 C   0  0  0  0  0  0  0  0  0  0  0  0
   21.3328  -16.2461  -15.8747 C   0  0  0  0  0  0  0  0  0  0  0  0
   21.3443  -16.6723  -17.1783 C   0  0  0  0  0  0  0  0  0  0  0  0
   25.1171  -19.4726  -16.6202 C   0  0  0  0  0  0  0  0  0  0  0  0
   24.8129  -20.6786  -16.4174 O   0  0  0  0  0  0  0  0  0  0  0  0
   26.3305  -19.0169  -15.9973 N   0  0  0  0  0  0  0  0  0  0  0  0
   27.1040  -19.8570  -15.1011 C   0  0  1  0  0  0  0  0  0  0  0  0
   28.6006  -19.5359  -15.2529 C   0  0  0  0  0  0  0  0  0  0  0  0
   29.0451  -19.9027  -16.9729 S   0  0  0  0  0  0  0  0  0  0  0  0
   26.7924  -19.5884  -13.6836 C   0  0  0  0  0  0  0  0  0  0  0  0
   26.7265  -18.3841  -13.3073 O   0  0  0  0  0  0  0  0  0  0  0  0
   26.5586  -20.5926  -12.7105 N   0  0  0  0  0  0  0  0  0  0  0  0
   26.4018  -20.2085  -11.2981 C   0  0  1  0  0  0  0  0  0  0  0  0
   25.1392  -19.3779  -11.2256 C   0  0  0  0  0  0  0  0  0  0  0  0
   23.9133  -20.1067  -11.6022 C   0  0  0  0  0  0  0  0  0  0  0  0
   23.1073  -20.5459  -10.5423 C   0  0  0  0  0  0  0  0  0  0  0  0
   21.9501  -21.2283  -10.8311 C   0  0  0  0  0  0  0  0  0  0  0  0
   21.6032  -21.4681  -12.1439 C   0  0  0  0  0  0  0  0  0  0  0  0
   22.3991  -21.0341  -13.1787 C   0  0  0  0  0  0  0  0  0  0  0  0
   23.5522  -20.3543  -12.8966 C   0  0  0  0  0  0  0  0  0  0  0  0
   26.2722  -21.3847  -10.4216 C   0  0  0  0  0  0  0  0  0  0  0  0
   26.3664  -22.5496  -10.8895 O   0  0  0  0  0  0  0  0  0  0  0  0
   26.0466  -21.2778   -9.0668 O   0  0  0  0  0  0  0  0  0  0  0  0
  2  1  1  6
  2 13  1  0
  2  3  1  0
  4  3  1  0
  4  5  2  0
  6  5  1  0
  7  6  1  0
  8  7  2  0
  9  8  1  0
 10  9  2  0
 10 11  1  0
 11 12  2  0
 12  7  1  0
 12  4  1  0
 13 14  2  0
 15 16  1  0
 15 13  1  0
 16 17  1  1
 17 18  1  0
 19 16  1  0
 20 19  2  0
 21 19  1  0
 22 21  1  0
 22 23  1  6
 24 23  1  0
 25 24  2  0
 26 25  1  0
 27 26  2  0
 27 28  1  0
 28 29  2  0
 29 24  1  0
 30 32  1  0
 30 22  1  0
 31 30  2  0
M  END
$$$$
