WCF.pdb
     RDKit          3D

 32 34  0  0  1  0  0  0  0  0999 V2000
   28.5620  -20.6485  -15.7179 N   0  0  0  0  0  0  0  0  0  0  0  0
   27.5791  -20.0723  -14.8347 C   0  0  1  0  0  0  0  0  0  0  0  0
   26.5186  -19.3678  -15.6566 C   0  0  0  0  0  0  0  0  0  0  0  0
   27.0250  -18.1699  -16.3582 C   0  0  0  0  0  0  0  0  0  0  0  0
   27.4169  -18.1186  -17.6771 C   0  0  0  0  0  0  0  0  0  0  0  0
   27.8572  -16.8737  -17.9702 N   0  0  0  0  0  0  0  0  0  0  0  0
   27.7641  -16.1027  -16.8746 C   0  0  0  0  0  0  0  0  0  0  0  0
   28.0672  -14.7872  -16.6421 C   0  0  0  0  0  0  0  0  0  0  0  0
   27.8797  -14.1855  -15.4151 C   0  0  0  0  0  0  0  0  0  0  0  0
   27.3645  -14.9863  -14.4218 C   0  0  0  0  0  0  0  0  0  0  0  0
   27.0452  -16.3331  -14.6278 C   0  0  0  0  0  0  0  0  0  0  0  0
   27.2497  -16.8887  -15.8650 C   0  0  0  0  0  0  0  0  0  0  0  0
   26.9903  -21.1266  -13.9780 C   0  0  0  0  0  0  0  0  0  0  0  0
   26.6813  -22.2624  -14.4282 O   0  0  0  0  0  0  0  0  0  0  0  0
   26.7380  -20.9153  -12.5781 N   0  0  0  0  0  0  0  0  0  0  0  0
   25.6721  -21.6016  -11.8708 C   0  0  1  0  0  0  0  0  0  0  0  0
   25.8238  -21.3728  -10.3574 C   0  0  0  0  0  0  0  0  0  0  0  0
   25.9561  -19.5811  -10.1071 S   0  0  0  0  0  0  0  0  0  0  0  0
   24.3423  -21.0599  -12.2128 C   0  0  0  0  0  0  0  0  0  0  0  0
   24.1686  -19.8116  -12.1256 O   0  0  0  0  0  0  0  0  0  0  0  0
   23.2417  -21.8467  -12.6365 N   0  0  0  0  0  0  0  0  0  0  0  0
   21.9777  -21.1856  -13.0003 C   0  0  1  0  0  0  0  0  0  0  0  0
   21.7834  -21.4348  -14.4801 C   0  0  0  0  0  0  0  0  0  0  0  0
   20.4883  -20.9653  -15.0075 C   0  0  0  0  0  0  0  0  0  0  0  0
   20.4212  -19.6097  -15.3594 C   0  0  0  0  0  0  0  0  0  0  0  0
   19.2410  -19.1146  -15.8597 C   0  0  0  0  0  0  0  0  0  0  0  0
   18.1531  -19.9490  -16.0063 C   0  0  0  0  0  0  0  0  0  0  0  0
   18.2264  -21.2782  -15.6588 C   0  0  0  0  0  0  0  0  0  0  0  0
   19.3990  -21.7759  -15.1602 C   0  0  0  0  0  0  0  0  0  0  0  0
   20.8359  -21.7363  -12.2510 C   0  0  0  0  0  0  0  0  0  0  0  0
   20.7693  -22.9662  -11.9915 O   0  0  0  0  0  0  0  0  0  0  0  0
   19.7980  -20.9509  -11.7995 O   0  0  0  0  0  0  0  0  0  0  0  0
  2  1  1  6
  2 13  1  0
  2  3  1  0
  4  3  1  0
  4  5  2  0
  6  5  1  0
  7  6  1  0
  8  7  2  0
  9  8  1  0
 10  9  2  0
 10 11  1  0
 11 12  2  0
 12  7  1  0
 12  4  1  0
 13 14  2  0
 15 16  1  0
 15 13  1  0
 16 17  1  1
 17 18  1  0
 19 16  1  0
 20 19  2  0
 21 19  1  0
 22 21  1  0
 22 23  1  6
 24 23  1  0
 25 24  2  0
 26 25  1  0
 27 26  2  0
 27 28  1  0
 28 29  2  0
 29 24  1  0
 30 32  1  0
 30 22  1  0
 31 30  2  0
M  END
$$$$
