WCF.pdb
     RDKit          3D

 32 34  0  0  1  0  0  0  0  0999 V2000
   40.3323   -8.7052   -6.4644 N   0  0  0  0  0  0  0  0  0  0  0  0
   39.4184   -8.0605   -7.3739 C   0  0  1  0  0  0  0  0  0  0  0  0
   37.9955   -8.4077   -6.9846 C   0  0  0  0  0  0  0  0  0  0  0  0
   37.6438   -9.8168   -7.2574 C   0  0  0  0  0  0  0  0  0  0  0  0
   37.4869  -10.8025   -6.3090 C   0  0  0  0  0  0  0  0  0  0  0  0
   37.2018  -11.9758   -6.9187 N   0  0  0  0  0  0  0  0  0  0  0  0
   37.1667  -11.7860   -8.2478 C   0  0  0  0  0  0  0  0  0  0  0  0
   36.9199  -12.6329   -9.2958 C   0  0  0  0  0  0  0  0  0  0  0  0
   36.9269  -12.2134  -10.6098 C   0  0  0  0  0  0  0  0  0  0  0  0
   37.1982  -10.8804  -10.8170 C   0  0  0  0  0  0  0  0  0  0  0  0
   37.4545   -9.9905   -9.7679 C   0  0  0  0  0  0  0  0  0  0  0  0
   37.4378  -10.4535   -8.4770 C   0  0  0  0  0  0  0  0  0  0  0  0
   39.6425   -6.5970   -7.3621 C   0  0  0  0  0  0  0  0  0  0  0  0
   40.0088   -5.9825   -6.3247 O   0  0  0  0  0  0  0  0  0  0  0  0
   39.4563   -5.7903   -8.5379 N   0  0  0  0  0  0  0  0  0  0  0  0
   39.5919   -4.3452   -8.5154 C   0  0  1  0  0  0  0  0  0  0  0  0
   39.8251   -3.8245   -9.9437 C   0  0  0  0  0  0  0  0  0  0  0  0
   41.4829   -4.3703  -10.4381 S   0  0  0  0  0  0  0  0  0  0  0  0
   38.3561   -3.6802   -8.0580 C   0  0  0  0  0  0  0  0  0  0  0  0
   37.3282   -3.7696   -8.7871 O   0  0  0  0  0  0  0  0  0  0  0  0
   38.2411   -2.9464   -6.8504 N   0  0  0  0  0  0  0  0  0  0  0  0
   36.9454   -2.3493   -6.4876 C   0  0  1  0  0  0  0  0  0  0  0  0
   36.3311   -3.2711   -5.4569 C   0  0  0  0  0  0  0  0  0  0  0  0
   37.0572   -3.3127   -4.1736 C   0  0  0  0  0  0  0  0  0  0  0  0
   36.5596   -2.4854   -3.1568 C   0  0  0  0  0  0  0  0  0  0  0  0
   37.1928   -2.4835   -1.9373 C   0  0  0  0  0  0  0  0  0  0  0  0
   38.2954   -3.2862   -1.7344 C   0  0  0  0  0  0  0  0  0  0  0  0
   38.7781   -4.0954   -2.7368 C   0  0  0  0  0  0  0  0  0  0  0  0
   38.1513   -4.1009   -3.9527 C   0  0  0  0  0  0  0  0  0  0  0  0
   37.1042   -1.0017   -5.9153 C   0  0  0  0  0  0  0  0  0  0  0  0
   38.2463   -0.5506   -5.6384 O   0  0  0  0  0  0  0  0  0  0  0  0
   36.0325   -0.1753   -5.6577 O   0  0  0  0  0  0  0  0  0  0  0  0
  2  1  1  1
  2 13  1  0
  2  3  1  0
  4  3  1  0
  4  5  2  0
  6  5  1  0
  7  6  1  0
  8  7  2  0
  9  8  1  0
 10  9  2  0
 10 11  1  0
 11 12  2  0
 12  7  1  0
 12  4  1  0
 13 14  2  0
 15 16  1  0
 15 13  1  0
 16 17  1  6
 17 18  1  0
 19 16  1  0
 20 19  2  0
 21 19  1  0
 22 21  1  0
 22 23  1  1
 24 23  1  0
 25 24  2  0
 26 25  1  0
 27 26  2  0
 27 28  1  0
 28 29  2  0
 29 24  1  0
 30 32  1  0
 30 22  1  0
 31 30  2  0
M  END
$$$$
