WCF.pdb
     RDKit          3D

 32 34  0  0  1  0  0  0  0  0999 V2000
   25.2470  -17.8505  -17.2385 N   0  0  0  0  0  0  0  0  0  0  0  0
   25.1055  -17.8018  -15.8048 C   0  0  1  0  0  0  0  0  0  0  0  0
   24.1040  -16.7257  -15.4363 C   0  0  0  0  0  0  0  0  0  0  0  0
   24.4984  -15.3790  -15.8994 C   0  0  0  0  0  0  0  0  0  0  0  0
   23.7219  -14.5323  -16.6581 C   0  0  0  0  0  0  0  0  0  0  0  0
   24.4142  -13.4015  -16.9261 N   0  0  0  0  0  0  0  0  0  0  0  0
   25.6297  -13.4833  -16.3608 C   0  0  0  0  0  0  0  0  0  0  0  0
   26.6929  -12.6202  -16.3271 C   0  0  0  0  0  0  0  0  0  0  0  0
   27.8676  -12.9113  -15.6653 C   0  0  0  0  0  0  0  0  0  0  0  0
   27.9173  -14.1313  -15.0309 C   0  0  0  0  0  0  0  0  0  0  0  0
   26.8487  -15.0345  -15.0472 C   0  0  0  0  0  0  0  0  0  0  0  0
   25.7003  -14.7020  -15.7194 C   0  0  0  0  0  0  0  0  0  0  0  0
   24.6904  -19.1276  -15.2929 C   0  0  0  0  0  0  0  0  0  0  0  0
   24.0407  -19.9458  -15.9977 O   0  0  0  0  0  0  0  0  0  0  0  0
   25.0072  -19.5603  -13.9586 N   0  0  0  0  0  0  0  0  0  0  0  0
   24.5537  -20.8334  -13.4288 C   0  0  1  0  0  0  0  0  0  0  0  0
   25.3913  -21.2087  -12.1946 C   0  0  0  0  0  0  0  0  0  0  0  0
   25.5953  -19.6942  -11.2173 S   0  0  0  0  0  0  0  0  0  0  0  0
   23.1605  -20.7674  -12.9457 C   0  0  0  0  0  0  0  0  0  0  0  0
   22.9072  -20.0147  -11.9631 O   0  0  0  0  0  0  0  0  0  0  0  0
   22.0812  -21.4916  -13.5117 N   0  0  0  0  0  0  0  0  0  0  0  0
   20.7283  -21.3256  -12.9558 C   0  0  1  0  0  0  0  0  0  0  0  0
   19.9715  -20.4619  -13.9412 C   0  0  0  0  0  0  0  0  0  0  0  0
   20.2556  -19.0193  -13.8237 C   0  0  0  0  0  0  0  0  0  0  0  0
   21.2853  -18.5257  -14.6374 C   0  0  0  0  0  0  0  0  0  0  0  0
   21.5939  -17.1881  -14.5740 C   0  0  0  0  0  0  0  0  0  0  0  0
   20.8942  -16.3612  -13.7209 C   0  0  0  0  0  0  0  0  0  0  0  0
   19.8850  -16.8527  -12.9255 C   0  0  0  0  0  0  0  0  0  0  0  0
   19.5740  -18.1835  -12.9847 C   0  0  0  0  0  0  0  0  0  0  0  0
   20.0387  -22.6170  -12.7972 C   0  0  0  0  0  0  0  0  0  0  0  0
   18.8877  -22.6741  -12.2907 O   0  0  0  0  0  0  0  0  0  0  0  0
   20.6032  -23.8113  -13.1883 O   0  0  0  0  0  0  0  0  0  0  0  0
  2  1  1  6
  2 13  1  0
  2  3  1  0
  4  3  1  0
  4  5  2  0
  6  5  1  0
  7  6  1  0
  8  7  2  0
  9  8  1  0
 10  9  2  0
 10 11  1  0
 11 12  2  0
 12  7  1  0
 12  4  1  0
 13 14  2  0
 15 16  1  0
 15 13  1  0
 16 17  1  1
 17 18  1  0
 19 16  1  0
 20 19  2  0
 21 19  1  0
 22 21  1  0
 22 23  1  6
 24 23  1  0
 25 24  2  0
 26 25  1  0
 27 26  2  0
 27 28  1  0
 28 29  2  0
 29 24  1  0
 30 32  1  0
 30 22  1  0
 31 30  2  0
M  END
$$$$
