WCF.pdb
     RDKit          3D

 32 34  0  0  1  0  0  0  0  0999 V2000
   23.2111  -35.0777  -12.0820 N   0  0  0  0  0  0  0  0  0  0  0  0
   23.8213  -34.1905  -11.1235 C   0  0  1  0  0  0  0  0  0  0  0  0
   22.7376  -33.4749  -10.3423 C   0  0  0  0  0  0  0  0  0  0  0  0
   22.0353  -32.4420  -11.1319 C   0  0  0  0  0  0  0  0  0  0  0  0
   21.3924  -32.6488  -12.3318 C   0  0  0  0  0  0  0  0  0  0  0  0
   20.8935  -31.4763  -12.7858 N   0  0  0  0  0  0  0  0  0  0  0  0
   21.1925  -30.5011  -11.9122 C   0  0  0  0  0  0  0  0  0  0  0  0
   20.9194  -29.1588  -11.8968 C   0  0  0  0  0  0  0  0  0  0  0  0
   21.3247  -28.3281  -10.8729 C   0  0  0  0  0  0  0  0  0  0  0  0
   22.0278  -28.9259   -9.8523 C   0  0  0  0  0  0  0  0  0  0  0  0
   22.3227  -30.2938   -9.8392 C   0  0  0  0  0  0  0  0  0  0  0  0
   21.8998  -31.0806  -10.8799 C   0  0  0  0  0  0  0  0  0  0  0  0
   24.7203  -34.9547  -10.2291 C   0  0  0  0  0  0  0  0  0  0  0  0
   24.6370  -36.2059  -10.1034 O   0  0  0  0  0  0  0  0  0  0  0  0
   25.7446  -34.3116   -9.4513 N   0  0  0  0  0  0  0  0  0  0  0  0
   26.6057  -35.0481   -8.5439 C   0  0  1  0  0  0  0  0  0  0  0  0
   27.8927  -35.4655   -9.2754 C   0  0  0  0  0  0  0  0  0  0  0  0
   27.5442  -35.3629  -11.0526 S   0  0  0  0  0  0  0  0  0  0  0  0
   27.0567  -34.2164   -7.4109 C   0  0  0  0  0  0  0  0  0  0  0  0
   27.6465  -33.1295   -7.6693 O   0  0  0  0  0  0  0  0  0  0  0  0
   26.8712  -34.5531   -6.0463 N   0  0  0  0  0  0  0  0  0  0  0  0
   27.3440  -33.6287   -5.0027 C   0  0  1  0  0  0  0  0  0  0  0  0
   26.3793  -32.4630   -5.0047 C   0  0  0  0  0  0  0  0  0  0  0  0
   24.9938  -32.8239   -4.6501 C   0  0  0  0  0  0  0  0  0  0  0  0
   24.0593  -32.7812   -5.6944 C   0  0  0  0  0  0  0  0  0  0  0  0
   22.7524  -33.1102   -5.4255 C   0  0  0  0  0  0  0  0  0  0  0  0
   22.3843  -33.4731   -4.1473 C   0  0  0  0  0  0  0  0  0  0  0  0
   23.3069  -33.5128   -3.1275 C   0  0  0  0  0  0  0  0  0  0  0  0
   24.6091  -33.1861   -3.3899 C   0  0  0  0  0  0  0  0  0  0  0  0
   27.3533  -34.2619   -3.6732 C   0  0  0  0  0  0  0  0  0  0  0  0
   27.8384  -33.6624   -2.6783 O   0  0  0  0  0  0  0  0  0  0  0  0
   26.8401  -35.5204   -3.4484 O   0  0  0  0  0  0  0  0  0  0  0  0
  2  1  1  6
  2 13  1  0
  2  3  1  0
  4  3  1  0
  4  5  2  0
  6  5  1  0
  7  6  1  0
  8  7  2  0
  9  8  1  0
 10  9  2  0
 10 11  1  0
 11 12  2  0
 12  7  1  0
 12  4  1  0
 13 14  2  0
 15 16  1  0
 15 13  1  0
 16 17  1  6
 17 18  1  0
 19 16  1  0
 20 19  2  0
 21 19  1  0
 22 21  1  0
 22 23  1  1
 24 23  1  0
 25 24  2  0
 26 25  1  0
 27 26  2  0
 27 28  1  0
 28 29  2  0
 29 24  1  0
 30 32  1  0
 30 22  1  0
 31 30  2  0
M  END
$$$$
