WCF.pdb
     RDKit          3D

 32 34  0  0  1  0  0  0  0  0999 V2000
   21.4902  -10.6228  -17.0649 N   0  0  0  0  0  0  0  0  0  0  0  0
   20.7834   -9.5632  -17.7400 C   0  0  1  0  0  0  0  0  0  0  0  0
   19.3335   -9.9647  -17.9223 C   0  0  0  0  0  0  0  0  0  0  0  0
   19.1564  -11.1087  -18.8408 C   0  0  0  0  0  0  0  0  0  0  0  0
   18.8694  -12.4018  -18.4654 C   0  0  0  0  0  0  0  0  0  0  0  0
   18.8135  -13.1899  -19.5634 N   0  0  0  0  0  0  0  0  0  0  0  0
   19.0567  -12.4456  -20.6544 C   0  0  0  0  0  0  0  0  0  0  0  0
   19.1098  -12.7516  -21.9886 C   0  0  0  0  0  0  0  0  0  0  0  0
   19.3735  -11.8075  -22.9591 C   0  0  0  0  0  0  0  0  0  0  0  0
   19.5832  -10.5233  -22.5117 C   0  0  0  0  0  0  0  0  0  0  0  0
   19.5360  -10.1793  -21.1562 C   0  0  0  0  0  0  0  0  0  0  0  0
   19.2712  -11.1523  -20.2266 C   0  0  0  0  0  0  0  0  0  0  0  0
   20.9052   -8.3044  -16.9700 C   0  0  0  0  0  0  0  0  0  0  0  0
   20.9116   -8.2865  -15.7099 O   0  0  0  0  0  0  0  0  0  0  0  0
   21.0254   -7.0262  -17.6176 N   0  0  0  0  0  0  0  0  0  0  0  0
   21.0384   -5.7793  -16.8743 C   0  0  1  0  0  0  0  0  0  0  0  0
   22.3089   -4.9840  -17.2191 C   0  0  0  0  0  0  0  0  0  0  0  0
   22.5485   -5.1269  -19.0115 S   0  0  0  0  0  0  0  0  0  0  0  0
   19.9159   -4.8981  -17.2515 C   0  0  0  0  0  0  0  0  0  0  0  0
   19.7307   -4.6638  -18.4791 O   0  0  0  0  0  0  0  0  0  0  0  0
   19.0254   -4.2952  -16.3277 N   0  0  0  0  0  0  0  0  0  0  0  0
   18.0318   -3.3224  -16.8106 C   0  0  1  0  0  0  0  0  0  0  0  0
   16.6765   -3.9522  -16.5737 C   0  0  0  0  0  0  0  0  0  0  0  0
   16.3213   -5.0056  -17.5432 C   0  0  0  0  0  0  0  0  0  0  0  0
   15.4607   -4.6226  -18.5817 C   0  0  0  0  0  0  0  0  0  0  0  0
   15.0965   -5.5604  -19.5177 C   0  0  0  0  0  0  0  0  0  0  0  0
   15.5774   -6.8491  -19.4225 C   0  0  0  0  0  0  0  0  0  0  0  0
   16.4215   -7.2177  -18.4006 C   0  0  0  0  0  0  0  0  0  0  0  0
   16.7871   -6.2879  -17.4661 C   0  0  0  0  0  0  0  0  0  0  0  0
   18.1181   -2.0444  -16.0840 C   0  0  0  0  0  0  0  0  0  0  0  0
   18.9289   -1.8988  -15.1323 O   0  0  0  0  0  0  0  0  0  0  0  0
   17.3327   -0.9577  -16.4005 O   0  0  0  0  0  0  0  0  0  0  0  0
  2  1  1  1
  2 13  1  0
  2  3  1  0
  4  3  1  0
  4  5  2  0
  6  5  1  0
  7  6  1  0
  8  7  2  0
  9  8  1  0
 10  9  2  0
 10 11  1  0
 11 12  2  0
 12  7  1  0
 12  4  1  0
 13 14  2  0
 15 16  1  0
 15 13  1  0
 16 17  1  6
 17 18  1  0
 19 16  1  0
 20 19  2  0
 21 19  1  0
 22 21  1  0
 22 23  1  1
 24 23  1  0
 25 24  2  0
 26 25  1  0
 27 26  2  0
 27 28  1  0
 28 29  2  0
 29 24  1  0
 30 32  1  0
 30 22  1  0
 31 30  2  0
M  END
$$$$
