WCF.pdb
     RDKit          3D

 32 34  0  0  1  0  0  0  0  0999 V2000
   20.8146  -20.3534  -13.5607 N   0  0  0  0  0  0  0  0  0  0  0  0
   22.1805  -19.9408  -13.7663 C   0  0  1  0  0  0  0  0  0  0  0  0
   22.2514  -18.4270  -13.7702 C   0  0  0  0  0  0  0  0  0  0  0  0
   21.5441  -17.8131  -14.9131 C   0  0  0  0  0  0  0  0  0  0  0  0
   20.5273  -16.8889  -14.8245 C   0  0  0  0  0  0  0  0  0  0  0  0
   20.0925  -16.5741  -16.0661 N   0  0  0  0  0  0  0  0  0  0  0  0
   20.7999  -17.2694  -16.9715 C   0  0  0  0  0  0  0  0  0  0  0  0
   20.7608  -17.3114  -18.3401 C   0  0  0  0  0  0  0  0  0  0  0  0
   21.6043  -18.1093  -19.0850 C   0  0  0  0  0  0  0  0  0  0  0  0
   22.5005  -18.8720  -18.3720 C   0  0  0  0  0  0  0  0  0  0  0  0
   22.5648  -18.8514  -16.9743 C   0  0  0  0  0  0  0  0  0  0  0  0
   21.7051  -18.0429  -16.2757 C   0  0  0  0  0  0  0  0  0  0  0  0
   23.0472  -20.5220  -12.7160 C   0  0  0  0  0  0  0  0  0  0  0  0
   22.7044  -20.5519  -11.5037 O   0  0  0  0  0  0  0  0  0  0  0  0
   24.3331  -21.0894  -13.0200 N   0  0  0  0  0  0  0  0  0  0  0  0
   25.1943  -21.6504  -11.9948 C   0  0  1  0  0  0  0  0  0  0  0  0
   26.3776  -22.3789  -12.6540 C   0  0  0  0  0  0  0  0  0  0  0  0
   27.5409  -22.8000  -11.3274 S   0  0  0  0  0  0  0  0  0  0  0  0
   25.8051  -20.6043  -11.1514 C   0  0  0  0  0  0  0  0  0  0  0  0
   26.0275  -19.4752  -11.6727 O   0  0  0  0  0  0  0  0  0  0  0  0
   26.1593  -20.7786   -9.7897 N   0  0  0  0  0  0  0  0  0  0  0  0
   27.1964  -19.9188   -9.1965 C   0  0  1  0  0  0  0  0  0  0  0  0
   26.5371  -19.2023   -8.0383 C   0  0  0  0  0  0  0  0  0  0  0  0
   27.2515  -19.3417   -6.7553 C   0  0  0  0  0  0  0  0  0  0  0  0
   27.1314  -20.5831   -6.1148 C   0  0  0  0  0  0  0  0  0  0  0  0
   27.7774  -20.7738   -4.9170 C   0  0  0  0  0  0  0  0  0  0  0  0
   28.5254  -19.7530   -4.3696 C   0  0  0  0  0  0  0  0  0  0  0  0
   28.6387  -18.5375   -5.0039 C   0  0  0  0  0  0  0  0  0  0  0  0
   27.9975  -18.3425   -6.1965 C   0  0  0  0  0  0  0  0  0  0  0  0
   28.3432  -20.7020   -8.7066 C   0  0  0  0  0  0  0  0  0  0  0  0
   28.2510  -21.9472   -8.5471 O   0  0  0  0  0  0  0  0  0  0  0  0
   29.5577  -20.1269   -8.4031 O   0  0  0  0  0  0  0  0  0  0  0  0
  2  1  1  1
  2 13  1  0
  2  3  1  0
  4  3  1  0
  4  5  2  0
  6  5  1  0
  7  6  1  0
  8  7  2  0
  9  8  1  0
 10  9  2  0
 10 11  1  0
 11 12  2  0
 12  7  1  0
 12  4  1  0
 13 14  2  0
 15 16  1  0
 15 13  1  0
 16 17  1  6
 17 18  1  0
 19 16  1  0
 20 19  2  0
 21 19  1  0
 22 21  1  0
 22 23  1  1
 24 23  1  0
 25 24  2  0
 26 25  1  0
 27 26  2  0
 27 28  1  0
 28 29  2  0
 29 24  1  0
 30 32  1  0
 30 22  1  0
 31 30  2  0
M  END
$$$$
