WCF.pdb
     RDKit          3D

 32 34  0  0  1  0  0  0  0  0999 V2000
   25.7066  -22.0657  -14.5478 N   0  0  0  0  0  0  0  0  0  0  0  0
   24.9932  -20.8223  -14.3957 C   0  0  1  0  0  0  0  0  0  0  0  0
   25.7945  -19.8900  -13.5094 C   0  0  0  0  0  0  0  0  0  0  0  0
   25.7919  -20.2919  -12.0874 C   0  0  0  0  0  0  0  0  0  0  0  0
   26.8888  -20.7169  -11.3721 C   0  0  0  0  0  0  0  0  0  0  0  0
   26.5120  -21.0357  -10.1127 N   0  0  0  0  0  0  0  0  0  0  0  0
   25.1913  -20.8300   -9.9813 C   0  0  0  0  0  0  0  0  0  0  0  0
   24.3320  -20.9889   -8.9264 C   0  0  0  0  0  0  0  0  0  0  0  0
   22.9854  -20.7028   -9.0132 C   0  0  0  0  0  0  0  0  0  0  0  0
   22.5430  -20.2423  -10.2321 C   0  0  0  0  0  0  0  0  0  0  0  0
   23.3955  -20.0697  -11.3283 C   0  0  0  0  0  0  0  0  0  0  0  0
   24.7275  -20.3683  -11.1951 C   0  0  0  0  0  0  0  0  0  0  0  0
   24.7370  -20.2212  -15.7243 C   0  0  0  0  0  0  0  0  0  0  0  0
   25.5208  -20.3851  -16.6975 O   0  0  0  0  0  0  0  0  0  0  0  0
   23.5746  -19.4149  -15.9822 N   0  0  0  0  0  0  0  0  0  0  0  0
   23.3323  -18.7951  -17.2723 C   0  0  1  0  0  0  0  0  0  0  0  0
   22.5437  -19.7622  -18.1715 C   0  0  0  0  0  0  0  0  0  0  0  0
   21.1709  -20.4052  -17.1753 S   0  0  0  0  0  0  0  0  0  0  0  0
   22.4834  -17.5931  -17.1585 C   0  0  0  0  0  0  0  0  0  0  0  0
   21.7136  -17.5013  -16.1608 O   0  0  0  0  0  0  0  0  0  0  0  0
   22.4731  -16.5280  -18.0941 N   0  0  0  0  0  0  0  0  0  0  0  0
   21.4555  -15.4710  -17.9756 C   0  0  1  0  0  0  0  0  0  0  0  0
   22.0454  -14.4197  -17.0610 C   0  0  0  0  0  0  0  0  0  0  0  0
   21.1870  -13.2358  -16.8676 C   0  0  0  0  0  0  0  0  0  0  0  0
   21.3253  -12.2127  -17.8162 C   0  0  0  0  0  0  0  0  0  0  0  0
   20.5495  -11.0855  -17.6901 C   0  0  0  0  0  0  0  0  0  0  0  0
   19.6571  -10.9790  -16.6444 C   0  0  0  0  0  0  0  0  0  0  0  0
   19.5269  -11.9871  -15.7173 C   0  0  0  0  0  0  0  0  0  0  0  0
   20.2970  -13.1113  -15.8383 C   0  0  0  0  0  0  0  0  0  0  0  0
   21.1359  -14.8691  -19.2810 C   0  0  0  0  0  0  0  0  0  0  0  0
   20.0462  -14.2654  -19.4619 O   0  0  0  0  0  0  0  0  0  0  0  0
   21.9958  -14.9305  -20.3556 O   0  0  0  0  0  0  0  0  0  0  0  0
  2  1  1  6
  2 13  1  0
  2  3  1  0
  4  3  1  0
  4  5  2  0
  6  5  1  0
  7  6  1  0
  8  7  2  0
  9  8  1  0
 10  9  2  0
 10 11  1  0
 11 12  2  0
 12  7  1  0
 12  4  1  0
 13 14  2  0
 15 16  1  0
 15 13  1  0
 16 17  1  6
 17 18  1  0
 19 16  1  0
 20 19  2  0
 21 19  1  0
 22 21  1  0
 22 23  1  1
 24 23  1  0
 25 24  2  0
 26 25  1  0
 27 26  2  0
 27 28  1  0
 28 29  2  0
 29 24  1  0
 30 32  1  0
 30 22  1  0
 31 30  2  0
M  END
$$$$
