WCF.pdb
     RDKit          3D

 32 34  0  0  1  0  0  0  0  0999 V2000
   25.5345  -21.5868   -7.9700 N   0  0  0  0  0  0  0  0  0  0  0  0
   25.5875  -20.5762   -8.9966 C   0  0  1  0  0  0  0  0  0  0  0  0
   27.0283  -20.1617   -9.2180 C   0  0  0  0  0  0  0  0  0  0  0  0
   27.8969  -20.4271   -8.0524 C   0  0  0  0  0  0  0  0  0  0  0  0
   28.8171  -21.4465   -7.9534 C   0  0  0  0  0  0  0  0  0  0  0  0
   29.4049  -21.4087   -6.7357 N   0  0  0  0  0  0  0  0  0  0  0  0
   28.8934  -20.3872   -6.0296 C   0  0  0  0  0  0  0  0  0  0  0  0
   29.1457  -19.9188   -4.7673 C   0  0  0  0  0  0  0  0  0  0  0  0
   28.4950  -18.8251   -4.2351 C   0  0  0  0  0  0  0  0  0  0  0  0
   27.5659  -18.2195   -5.0496 C   0  0  0  0  0  0  0  0  0  0  0  0
   27.2857  -18.6741   -6.3430 C   0  0  0  0  0  0  0  0  0  0  0  0
   27.9572  -19.7665   -6.8296 C   0  0  0  0  0  0  0  0  0  0  0  0
   24.9728  -21.0890  -10.2422 C   0  0  0  0  0  0  0  0  0  0  0  0
   25.2299  -22.2370  -10.6942 O   0  0  0  0  0  0  0  0  0  0  0  0
   24.0428  -20.3051  -11.0093 N   0  0  0  0  0  0  0  0  0  0  0  0
   23.5051  -20.7629  -12.2776 C   0  0  1  0  0  0  0  0  0  0  0  0
   21.9924  -20.4894  -12.3278 C   0  0  0  0  0  0  0  0  0  0  0  0
   21.4816  -20.0488  -10.6439 S   0  0  0  0  0  0  0  0  0  0  0  0
   24.0711  -20.0189  -13.4199 C   0  0  0  0  0  0  0  0  0  0  0  0
   24.1429  -18.7606  -13.3328 O   0  0  0  0  0  0  0  0  0  0  0  0
   24.5441  -20.6212  -14.6129 N   0  0  0  0  0  0  0  0  0  0  0  0
   25.1996  -19.7871  -15.6335 C   0  0  1  0  0  0  0  0  0  0  0  0
   26.5885  -20.3591  -15.8158 C   0  0  0  0  0  0  0  0  0  0  0  0
   27.4153  -20.3408  -14.5944 C   0  0  0  0  0  0  0  0  0  0  0  0
   28.1035  -19.1473  -14.3338 C   0  0  0  0  0  0  0  0  0  0  0  0
   28.8878  -19.0691  -13.2082 C   0  0  0  0  0  0  0  0  0  0  0  0
   28.9850  -20.1533  -12.3618 C   0  0  0  0  0  0  0  0  0  0  0  0
   28.3068  -21.3211  -12.6240 C   0  0  0  0  0  0  0  0  0  0  0  0
   27.5247  -21.4041  -13.7432 C   0  0  0  0  0  0  0  0  0  0  0  0
   24.4771  -19.8218  -16.9162 C   0  0  0  0  0  0  0  0  0  0  0  0
   23.4537  -20.5407  -17.0592 O   0  0  0  0  0  0  0  0  0  0  0  0
   24.8724  -19.0824  -18.0094 O   0  0  0  0  0  0  0  0  0  0  0  0
  2  1  1  1
  2 13  1  0
  2  3  1  0
  4  3  1  0
  4  5  2  0
  6  5  1  0
  7  6  1  0
  8  7  2  0
  9  8  1  0
 10  9  2  0
 10 11  1  0
 11 12  2  0
 12  7  1  0
 12  4  1  0
 13 14  2  0
 15 16  1  0
 15 13  1  0
 16 17  1  1
 17 18  1  0
 19 16  1  0
 20 19  2  0
 21 19  1  0
 22 21  1  0
 22 23  1  6
 24 23  1  0
 25 24  2  0
 26 25  1  0
 27 26  2  0
 27 28  1  0
 28 29  2  0
 29 24  1  0
 30 32  1  0
 30 22  1  0
 31 30  2  0
M  END
$$$$
