WCF.pdb
     RDKit          3D

 32 34  0  0  1  0  0  0  0  0999 V2000
   13.7363  -17.1338    3.0468 N   0  0  0  0  0  0  0  0  0  0  0  0
   14.7040  -17.8626    3.8281 C   0  0  1  0  0  0  0  0  0  0  0  0
   15.6538  -18.5900    2.8978 C   0  0  0  0  0  0  0  0  0  0  0  0
   15.2980  -20.0098    2.6949 C   0  0  0  0  0  0  0  0  0  0  0  0
   14.1502  -20.4705    2.0900 C   0  0  0  0  0  0  0  0  0  0  0  0
   14.1399  -21.8230    2.1098 N   0  0  0  0  0  0  0  0  0  0  0  0
   15.2552  -22.2646    2.7136 C   0  0  0  0  0  0  0  0  0  0  0  0
   15.7246  -23.5234    2.9807 C   0  0  0  0  0  0  0  0  0  0  0  0
   16.9267  -23.7502    3.6182 C   0  0  0  0  0  0  0  0  0  0  0  0
   17.6409  -22.6302    3.9771 C   0  0  0  0  0  0  0  0  0  0  0  0
   17.1883  -21.3316    3.7187 C   0  0  0  0  0  0  0  0  0  0  0  0
   15.9859  -21.1549    3.0829 C   0  0  0  0  0  0  0  0  0  0  0  0
   15.4286  -16.9356    4.7270 C   0  0  0  0  0  0  0  0  0  0  0  0
   15.7441  -15.7678    4.3738 O   0  0  0  0  0  0  0  0  0  0  0  0
   15.8135  -17.3150    6.0596 N   0  0  0  0  0  0  0  0  0  0  0  0
   16.4417  -16.3839    6.9792 C   0  0  1  0  0  0  0  0  0  0  0  0
   15.7200  -16.4301    8.3367 C   0  0  0  0  0  0  0  0  0  0  0  0
   16.4737  -15.1493    9.3768 S   0  0  0  0  0  0  0  0  0  0  0  0
   17.8405  -16.7534    7.2718 C   0  0  0  0  0  0  0  0  0  0  0  0
   18.1062  -17.9744    7.4583 O   0  0  0  0  0  0  0  0  0  0  0  0
   18.9123  -15.8293    7.3562 N   0  0  0  0  0  0  0  0  0  0  0  0
   20.2611  -16.3147    7.6909 C   0  0  1  0  0  0  0  0  0  0  0  0
   21.2120  -15.5855    6.7670 C   0  0  0  0  0  0  0  0  0  0  0  0
   20.9916  -14.1286    6.6996 C   0  0  0  0  0  0  0  0  0  0  0  0
   21.7880  -13.3450    7.5468 C   0  0  0  0  0  0  0  0  0  0  0  0
   21.6301  -11.9801    7.5263 C   0  0  0  0  0  0  0  0  0  0  0  0
   20.7014  -11.4085    6.6826 C   0  0  0  0  0  0  0  0  0  0  0  0
   19.9235  -12.1837    5.8541 C   0  0  0  0  0  0  0  0  0  0  0  0
   20.0767  -13.5430    5.8707 C   0  0  0  0  0  0  0  0  0  0  0  0
   20.6144  -16.0289    9.0916 C   0  0  0  0  0  0  0  0  0  0  0  0
   21.6790  -16.4778    9.5912 O   0  0  0  0  0  0  0  0  0  0  0  0
   19.8158  -15.2677    9.9166 O   0  0  0  0  0  0  0  0  0  0  0  0
  2  1  1  6
  2 13  1  0
  2  3  1  0
  4  3  1  0
  4  5  2  0
  6  5  1  0
  7  6  1  0
  8  7  2  0
  9  8  1  0
 10  9  2  0
 10 11  1  0
 11 12  2  0
 12  7  1  0
 12  4  1  0
 13 14  2  0
 15 16  1  0
 15 13  1  0
 16 17  1  1
 17 18  1  0
 19 16  1  0
 20 19  2  0
 21 19  1  0
 22 21  1  0
 22 23  1  6
 24 23  1  0
 25 24  2  0
 26 25  1  0
 27 26  2  0
 27 28  1  0
 28 29  2  0
 29 24  1  0
 30 32  1  0
 30 22  1  0
 31 30  2  0
M  END
$$$$
