LIQ.pdb
     RDKit          3D

 26 25  0  0  1  0  0  0  0  0999 V2000
   14.1044  -12.2076  -17.2182 C   0  0  0  0  0  0  0  0  0  0  0  0
   15.5905  -12.5613  -17.2500 C   0  0  1  0  0  0  0  0  0  0  0  0
   16.1419  -12.0721  -18.5577 C   0  0  0  0  0  0  0  0  0  0  0  0
   16.3043  -12.0263  -16.0389 C   0  0  0  0  0  0  0  0  0  0  0  0
   17.7671  -12.3703  -16.1599 C   0  0  2  0  0  0  0  0  0  0  0  0
   17.9571  -13.7613  -15.8985 N   0  0  0  0  0  0  0  0  0  0  0  0
   18.6034  -11.5730  -15.2265 C   0  0  0  0  0  0  0  0  0  0  0  0
   18.7474  -12.0059  -14.0580 O   0  0  0  0  0  0  0  0  0  0  0  0
   23.4656  -10.5267  -16.1593 C   0  0  0  0  0  0  0  0  0  0  0  0
   22.1284  -10.7096  -15.4734 C   0  0  0  0  0  0  0  0  0  0  0  0
   21.3913   -9.3651  -15.3865 C   0  0  2  0  0  0  0  0  0  0  0  0
   22.3153   -8.4368  -14.6333 C   0  0  0  0  0  0  0  0  0  0  0  0
   20.0463   -9.5469  -14.7595 C   0  0  2  0  0  0  0  0  0  0  0  0
   19.2086  -10.3679  -15.6616 N   0  0  0  0  0  0  0  0  0  0  0  0
   19.3350   -8.2881  -14.4666 C   0  0  0  0  0  0  0  0  0  0  0  0
   18.9158   -7.5533  -15.4299 O   0  0  0  0  0  0  0  0  0  0  0  0
   17.3899   -4.7366   -8.6772 N   0  0  0  0  0  0  0  0  0  0  0  0
   16.6861   -5.3995   -9.7140 C   0  0  0  0  0  0  0  0  0  0  0  0
   15.6512   -6.0595   -9.4917 O   0  0  0  0  0  0  0  0  0  0  0  0
   17.2196   -5.2933  -11.1275 C   0  0  0  0  0  0  0  0  0  0  0  0
   17.8463   -6.6060  -11.4711 C   0  0  0  0  0  0  0  0  0  0  0  0
   18.3186   -6.6286  -12.8924 C   0  0  2  0  0  0  0  0  0  0  0  0
   19.0867   -7.8565  -13.1516 N   0  0  0  0  0  0  0  0  0  0  0  0
   19.1662   -5.4613  -13.1535 C   0  0  0  0  0  0  0  0  0  0  0  0
   18.7433   -4.3512  -13.5955 O   0  0  0  0  0  0  0  0  0  0  0  0
   20.5483   -5.5788  -12.8948 O   0  0  0  0  0  0  0  0  0  0  0  0
  2  3  1  6
  2  1  1  0
  4  2  1  0
  4  5  1  0
  5  6  1  1
  7  5  1  0
  7  8  2  0
  9 10  1  0
 10 11  1  0
 11 13  1  0
 11 12  1  1
 13 14  1  6
 14  7  1  0
 15 16  2  0
 15 13  1  0
 17 18  1  0
 18 19  2  0
 20 18  1  0
 20 21  1  0
 22 21  1  1
 22 24  1  0
 22 23  1  0
 23 15  1  0
 24 26  1  0
 25 24  2  0
M  END
$$$$
