LIQ.pdb
     RDKit          3D

 26 25  0  0  1  0  0  0  0  0999 V2000
   27.1568  -18.7536  -18.2137 C   0  0  0  0  0  0  0  0  0  0  0  0
   27.7924  -19.4698  -17.0229 C   0  0  1  0  0  0  0  0  0  0  0  0
   28.4089  -18.4211  -16.1434 C   0  0  0  0  0  0  0  0  0  0  0  0
   26.7969  -20.3555  -16.3248 C   0  0  0  0  0  0  0  0  0  0  0  0
   27.4479  -20.9162  -15.0860 C   0  0  2  0  0  0  0  0  0  0  0  0
   28.3683  -21.9455  -15.4504 N   0  0  0  0  0  0  0  0  0  0  0  0
   26.4480  -21.4618  -14.1326 C   0  0  0  0  0  0  0  0  0  0  0  0
   25.9682  -22.5949  -14.3760 O   0  0  0  0  0  0  0  0  0  0  0  0
   26.6424  -20.5066   -8.8044 C   0  0  0  0  0  0  0  0  0  0  0  0
   26.2923  -21.2384  -10.0826 C   0  0  0  0  0  0  0  0  0  0  0  0
   25.1091  -20.5496  -10.7783 C   0  0  2  0  0  0  0  0  0  0  0  0
   23.9275  -20.7272   -9.8536 C   0  0  0  0  0  0  0  0  0  0  0  0
   24.9137  -21.1083  -12.1512 C   0  0  2  0  0  0  0  0  0  0  0  0
   26.0636  -20.7114  -12.9938 N   0  0  0  0  0  0  0  0  0  0  0  0
   23.6686  -20.6761  -12.8138 C   0  0  0  0  0  0  0  0  0  0  0  0
   23.4801  -19.4340  -13.0695 O   0  0  0  0  0  0  0  0  0  0  0  0
   19.6586  -24.2315  -15.9274 N   0  0  0  0  0  0  0  0  0  0  0  0
   19.0283  -22.9736  -16.1002 C   0  0  0  0  0  0  0  0  0  0  0  0
   18.0248  -22.8328  -16.8276 O   0  0  0  0  0  0  0  0  0  0  0  0
   19.6026  -21.7755  -15.3733 C   0  0  0  0  0  0  0  0  0  0  0  0
   20.8222  -22.2358  -14.6420 C   0  0  0  0  0  0  0  0  0  0  0  0
   21.4329  -21.1229  -13.8468 C   0  0  2  0  0  0  0  0  0  0  0  0
   22.6652  -21.5864  -13.1899 N   0  0  0  0  0  0  0  0  0  0  0  0
   20.4845  -20.6603  -12.8290 C   0  0  0  0  0  0  0  0  0  0  0  0
   20.3851  -21.1507  -11.6644 O   0  0  0  0  0  0  0  0  0  0  0  0
   19.6227  -19.5951  -13.1662 O   0  0  0  0  0  0  0  0  0  0  0  0
  2  3  1  1
  2  1  1  0
  4  2  1  0
  4  5  1  0
  5  6  1  6
  7  5  1  0
  7  8  2  0
  9 10  1  0
 10 11  1  0
 11 13  1  0
 11 12  1  1
 13 14  1  6
 14  7  1  0
 15 16  2  0
 15 13  1  0
 17 18  1  0
 18 19  2  0
 20 18  1  0
 20 21  1  0
 22 21  1  1
 22 24  1  0
 22 23  1  0
 23 15  1  0
 24 26  1  0
 25 24  2  0
M  END
$$$$
