LIQ.pdb
     RDKit          3D

 26 25  0  0  1  0  0  0  0  0999 V2000
   29.8721  -21.0647  -17.6588 C   0  0  0  0  0  0  0  0  0  0  0  0
   29.0050  -20.1372  -16.8088 C   0  0  1  0  0  0  0  0  0  0  0  0
   28.1600  -19.3254  -17.7471 C   0  0  0  0  0  0  0  0  0  0  0  0
   28.2220  -20.9109  -15.7835 C   0  0  0  0  0  0  0  0  0  0  0  0
   27.2256  -19.9774  -15.1444 C   0  0  2  0  0  0  0  0  0  0  0  0
   27.9147  -18.9959  -14.3691 N   0  0  0  0  0  0  0  0  0  0  0  0
   26.2615  -20.7037  -14.2787 C   0  0  0  0  0  0  0  0  0  0  0  0
   25.6939  -21.7144  -14.7583 O   0  0  0  0  0  0  0  0  0  0  0  0
   27.0160  -20.5834   -8.8707 C   0  0  0  0  0  0  0  0  0  0  0  0
   26.6263  -21.1390  -10.2240 C   0  0  0  0  0  0  0  0  0  0  0  0
   25.2824  -20.5455  -10.6713 C   0  0  2  0  0  0  0  0  0  0  0  0
   24.2594  -21.0491   -9.6800 C   0  0  0  0  0  0  0  0  0  0  0  0
   24.9999  -20.9073  -12.0942 C   0  0  2  0  0  0  0  0  0  0  0  0
   26.0064  -20.2534  -12.9596 N   0  0  0  0  0  0  0  0  0  0  0  0
   23.6534  -20.5292  -12.5636 C   0  0  0  0  0  0  0  0  0  0  0  0
   23.3229  -19.2919  -12.6237 O   0  0  0  0  0  0  0  0  0  0  0  0
   20.0446  -23.7956  -16.2992 N   0  0  0  0  0  0  0  0  0  0  0  0
   19.2382  -22.6370  -16.1694 C   0  0  0  0  0  0  0  0  0  0  0  0
   18.2150  -22.4643  -16.8616 O   0  0  0  0  0  0  0  0  0  0  0  0
   19.6448  -21.5876  -15.1559 C   0  0  0  0  0  0  0  0  0  0  0  0
   20.9287  -22.0357  -14.5356 C   0  0  0  0  0  0  0  0  0  0  0  0
   21.3904  -21.0739  -13.4841 C   0  0  2  0  0  0  0  0  0  0  0  0
   22.7028  -21.4857  -12.9617 N   0  0  0  0  0  0  0  0  0  0  0  0
   20.4208  -21.0352  -12.3852 C   0  0  0  0  0  0  0  0  0  0  0  0
   20.4199  -21.8324  -11.3998 O   0  0  0  0  0  0  0  0  0  0  0  0
   19.4191  -20.0421  -12.4242 O   0  0  0  0  0  0  0  0  0  0  0  0
  2  3  1  6
  2  1  1  0
  4  2  1  0
  4  5  1  0
  5  6  1  1
  7  5  1  0
  7  8  2  0
  9 10  1  0
 10 11  1  0
 11 13  1  0
 11 12  1  1
 13 14  1  6
 14  7  1  0
 15 16  2  0
 15 13  1  0
 17 18  1  0
 18 19  2  0
 20 18  1  0
 20 21  1  0
 22 21  1  6
 22 24  1  0
 22 23  1  0
 23 15  1  0
 24 26  1  0
 25 24  2  0
M  END
$$$$
