LIQ.pdb
     RDKit          3D

 26 25  0  0  1  0  0  0  0  0999 V2000
   27.6025  -17.5592  -17.4877 C   0  0  0  0  0  0  0  0  0  0  0  0
   28.1757  -18.5999  -16.5268 C   0  0  1  0  0  0  0  0  0  0  0  0
   29.0718  -17.8778  -15.5631 C   0  0  0  0  0  0  0  0  0  0  0  0
   27.0818  -19.3997  -15.8737 C   0  0  0  0  0  0  0  0  0  0  0  0
   27.7108  -20.3335  -14.8713 C   0  0  2  0  0  0  0  0  0  0  0  0
   28.4450  -21.3496  -15.5553 N   0  0  0  0  0  0  0  0  0  0  0  0
   26.6964  -20.9654  -13.9892 C   0  0  0  0  0  0  0  0  0  0  0  0
   26.2165  -22.0672  -14.3487 O   0  0  0  0  0  0  0  0  0  0  0  0
   27.1918  -20.4092   -8.6839 C   0  0  0  0  0  0  0  0  0  0  0  0
   26.7874  -21.0778   -9.9806 C   0  0  0  0  0  0  0  0  0  0  0  0
   25.4887  -20.4548  -10.5131 C   0  0  2  0  0  0  0  0  0  0  0  0
   24.4097  -20.8505   -9.5323 C   0  0  0  0  0  0  0  0  0  0  0  0
   25.2395  -20.8913  -11.9211 C   0  0  2  0  0  0  0  0  0  0  0  0
   26.2987  -20.3283  -12.7877 N   0  0  0  0  0  0  0  0  0  0  0  0
   23.9249  -20.4932  -12.4593 C   0  0  0  0  0  0  0  0  0  0  0  0
   23.6298  -19.2502  -12.5674 O   0  0  0  0  0  0  0  0  0  0  0  0
   20.0259  -24.0041  -15.7491 N   0  0  0  0  0  0  0  0  0  0  0  0
   19.2695  -22.8058  -15.7135 C   0  0  0  0  0  0  0  0  0  0  0  0
   18.1934  -22.6862  -16.3328 O   0  0  0  0  0  0  0  0  0  0  0  0
   19.7975  -21.6460  -14.8949 C   0  0  0  0  0  0  0  0  0  0  0  0
   21.0951  -22.0763  -14.2907 C   0  0  0  0  0  0  0  0  0  0  0  0
   21.6682  -21.0068  -13.4124 C   0  0  2  0  0  0  0  0  0  0  0  0
   22.9678  -21.4366  -12.8729 N   0  0  0  0  0  0  0  0  0  0  0  0
   20.7501  -20.7288  -12.3037 C   0  0  0  0  0  0  0  0  0  0  0  0
   20.7793  -21.3185  -11.1821 O   0  0  0  0  0  0  0  0  0  0  0  0
   19.7660  -19.7359  -12.4955 O   0  0  0  0  0  0  0  0  0  0  0  0
  2  3  1  1
  2  1  1  0
  4  2  1  0
  4  5  1  0
  5  6  1  6
  7  5  1  0
  7  8  2  0
  9 10  1  0
 10 11  1  0
 11 13  1  0
 11 12  1  1
 13 14  1  6
 14  7  1  0
 15 16  2  0
 15 13  1  0
 17 18  1  0
 18 19  2  0
 20 18  1  0
 20 21  1  0
 22 21  1  6
 22 24  1  0
 22 23  1  0
 23 15  1  0
 24 26  1  0
 25 24  2  0
M  END
$$$$
