LIQ.pdb
     RDKit          3D

 26 25  0  0  1  0  0  0  0  0999 V2000
   28.7787  -17.8214  -15.7195 C   0  0  0  0  0  0  0  0  0  0  0  0
   28.0586  -18.5244  -16.8693 C   0  0  1  0  0  0  0  0  0  0  0  0
   29.1082  -19.0315  -17.8151 C   0  0  0  0  0  0  0  0  0  0  0  0
   27.1218  -19.5848  -16.3586 C   0  0  0  0  0  0  0  0  0  0  0  0
   27.8491  -20.3995  -15.3194 C   0  0  2  0  0  0  0  0  0  0  0  0
   28.6830  -21.3645  -15.9620 N   0  0  0  0  0  0  0  0  0  0  0  0
   26.9098  -21.0916  -14.4000 C   0  0  0  0  0  0  0  0  0  0  0  0
   26.4779  -22.2171  -14.7466 O   0  0  0  0  0  0  0  0  0  0  0  0
   27.9849  -20.9902   -9.2369 C   0  0  0  0  0  0  0  0  0  0  0  0
   27.4185  -21.5095  -10.5413 C   0  0  0  0  0  0  0  0  0  0  0  0
   26.0663  -20.8425  -10.8326 C   0  0  2  0  0  0  0  0  0  0  0  0
   25.1290  -21.3210   -9.7485 C   0  0  0  0  0  0  0  0  0  0  0  0
   25.6187  -21.1558  -12.2242 C   0  0  2  0  0  0  0  0  0  0  0  0
   26.5280  -20.4833  -13.1786 N   0  0  0  0  0  0  0  0  0  0  0  0
   24.2323  -20.7510  -12.5246 C   0  0  0  0  0  0  0  0  0  0  0  0
   23.9363  -19.5068  -12.6142 O   0  0  0  0  0  0  0  0  0  0  0  0
   20.1638  -23.8842  -16.0215 N   0  0  0  0  0  0  0  0  0  0  0  0
   19.2824  -23.1236  -15.2126 C   0  0  0  0  0  0  0  0  0  0  0  0
   18.0646  -23.3832  -15.1392 O   0  0  0  0  0  0  0  0  0  0  0  0
   19.8521  -21.9652  -14.4206 C   0  0  0  0  0  0  0  0  0  0  0  0
   21.2202  -22.3608  -13.9668 C   0  0  0  0  0  0  0  0  0  0  0  0
   21.8724  -21.2636  -13.1828 C   0  0  2  0  0  0  0  0  0  0  0  0
   23.2051  -21.6895  -12.7273 N   0  0  0  0  0  0  0  0  0  0  0  0
   21.0469  -20.9249  -12.0196 C   0  0  0  0  0  0  0  0  0  0  0  0
   21.1896  -21.4304  -10.8661 O   0  0  0  0  0  0  0  0  0  0  0  0
   20.0230  -19.9697  -12.1932 O   0  0  0  0  0  0  0  0  0  0  0  0
  2  3  1  6
  2  1  1  0
  4  2  1  0
  4  5  1  0
  5  6  1  6
  7  5  1  0
  7  8  2  0
  9 10  1  0
 10 11  1  0
 11 13  1  0
 11 12  1  1
 13 14  1  6
 14  7  1  0
 15 16  2  0
 15 13  1  0
 17 18  1  0
 18 19  2  0
 20 18  1  0
 20 21  1  0
 22 21  1  1
 22 24  1  0
 22 23  1  0
 23 15  1  0
 24 26  1  0
 25 24  2  0
M  END
$$$$
