LIQ.pdb
     RDKit          3D

 26 25  0  0  1  0  0  0  0  0999 V2000
   29.4544  -19.4036  -18.0146 C   0  0  0  0  0  0  0  0  0  0  0  0
   28.5809  -18.7813  -16.9263 C   0  0  1  0  0  0  0  0  0  0  0  0
   27.6682  -17.7927  -17.5919 C   0  0  0  0  0  0  0  0  0  0  0  0
   27.8698  -19.8389  -16.1271 C   0  0  0  0  0  0  0  0  0  0  0  0
   26.8983  -19.1575  -15.1973 C   0  0  2  0  0  0  0  0  0  0  0  0
   27.6150  -18.3687  -14.2468 N   0  0  0  0  0  0  0  0  0  0  0  0
   26.0382  -20.1341  -14.4811 C   0  0  0  0  0  0  0  0  0  0  0  0
   25.7133  -21.1814  -15.0902 O   0  0  0  0  0  0  0  0  0  0  0  0
   26.5373  -20.8869   -9.1301 C   0  0  0  0  0  0  0  0  0  0  0  0
   26.2304  -21.2233  -10.5739 C   0  0  0  0  0  0  0  0  0  0  0  0
   24.8754  -20.6246  -10.9789 C   0  0  2  0  0  0  0  0  0  0  0  0
   23.8440  -21.3256  -10.1260 C   0  0  0  0  0  0  0  0  0  0  0  0
   24.6627  -20.7641  -12.4522 C   0  0  2  0  0  0  0  0  0  0  0  0
   25.6108  -19.8720  -13.1558 N   0  0  0  0  0  0  0  0  0  0  0  0
   23.2933  -20.4508  -12.9028 C   0  0  0  0  0  0  0  0  0  0  0  0
   22.8327  -19.2623  -12.7652 O   0  0  0  0  0  0  0  0  0  0  0  0
   18.2885  -21.3893  -18.0214 N   0  0  0  0  0  0  0  0  0  0  0  0
   19.3815  -21.8269  -17.2318 C   0  0  0  0  0  0  0  0  0  0  0  0
   20.2433  -22.6121  -17.6753 O   0  0  0  0  0  0  0  0  0  0  0  0
   19.4915  -21.3168  -15.8100 C   0  0  0  0  0  0  0  0  0  0  0  0
   20.8703  -21.6301  -15.3256 C   0  0  0  0  0  0  0  0  0  0  0  0
   21.1088  -21.0655  -13.9588 C   0  0  2  0  0  0  0  0  0  0  0  0
   22.4600  -21.4167  -13.4942 N   0  0  0  0  0  0  0  0  0  0  0  0
   20.1181  -21.6006  -13.0199 C   0  0  0  0  0  0  0  0  0  0  0  0
   20.3331  -22.5575  -12.2169 O   0  0  0  0  0  0  0  0  0  0  0  0
   18.8364  -21.0105  -13.0063 O   0  0  0  0  0  0  0  0  0  0  0  0
  2  3  1  6
  2  1  1  0
  4  2  1  0
  4  5  1  0
  5  6  1  1
  7  5  1  0
  7  8  2  0
  9 10  1  0
 10 11  1  0
 11 13  1  0
 11 12  1  1
 13 14  1  6
 14  7  1  0
 15 16  2  0
 15 13  1  0
 17 18  1  0
 18 19  2  0
 20 18  1  0
 20 21  1  0
 22 21  1  6
 22 24  1  0
 22 23  1  0
 23 15  1  0
 24 26  1  0
 25 24  2  0
M  END
$$$$
