LIQ.pdb
     RDKit          3D

 26 25  0  0  1  0  0  0  0  0999 V2000
   27.3553  -17.3602  -17.4207 C   0  0  0  0  0  0  0  0  0  0  0  0
   27.9471  -18.3405  -16.4090 C   0  0  1  0  0  0  0  0  0  0  0  0
   28.7371  -17.5396  -15.4150 C   0  0  0  0  0  0  0  0  0  0  0  0
   26.8781  -19.2044  -15.7975 C   0  0  0  0  0  0  0  0  0  0  0  0
   27.5187  -20.0845  -14.7546 C   0  0  2  0  0  0  0  0  0  0  0  0
   28.3593  -21.0487  -15.3895 N   0  0  0  0  0  0  0  0  0  0  0  0
   26.5069  -20.7831  -13.9211 C   0  0  0  0  0  0  0  0  0  0  0  0
   26.0476  -21.8689  -14.3496 O   0  0  0  0  0  0  0  0  0  0  0  0
   26.8704  -20.5330   -8.5828 C   0  0  0  0  0  0  0  0  0  0  0  0
   26.4932  -21.1336   -9.9203 C   0  0  0  0  0  0  0  0  0  0  0  0
   25.2092  -20.4786  -10.4500 C   0  0  2  0  0  0  0  0  0  0  0  0
   24.1037  -20.9325   -9.5256 C   0  0  0  0  0  0  0  0  0  0  0  0
   24.9999  -20.8284  -11.8883 C   0  0  2  0  0  0  0  0  0  0  0  0
   26.0891  -20.2247  -12.6876 N   0  0  0  0  0  0  0  0  0  0  0  0
   23.7053  -20.3870  -12.4410 C   0  0  0  0  0  0  0  0  0  0  0  0
   23.4337  -19.1358  -12.5082 O   0  0  0  0  0  0  0  0  0  0  0  0
   20.4764  -23.0464  -16.8258 N   0  0  0  0  0  0  0  0  0  0  0  0
   19.5516  -22.0210  -16.5052 C   0  0  0  0  0  0  0  0  0  0  0  0
   18.5088  -21.8426  -17.1660 O   0  0  0  0  0  0  0  0  0  0  0  0
   19.8534  -21.1244  -15.3225 C   0  0  0  0  0  0  0  0  0  0  0  0
   21.1352  -21.5968  -14.7160 C   0  0  0  0  0  0  0  0  0  0  0  0
   21.4690  -20.8238  -13.4771 C   0  0  2  0  0  0  0  0  0  0  0  0
   22.7425  -21.2970  -12.9123 N   0  0  0  0  0  0  0  0  0  0  0  0
   20.4045  -20.9928  -12.4834 C   0  0  0  0  0  0  0  0  0  0  0  0
   20.4115  -21.8662  -11.5649 O   0  0  0  0  0  0  0  0  0  0  0  0
   19.2949  -20.1238  -12.5514 O   0  0  0  0  0  0  0  0  0  0  0  0
  2  3  1  1
  2  1  1  0
  4  2  1  0
  4  5  1  0
  5  6  1  6
  7  5  1  0
  7  8  2  0
  9 10  1  0
 10 11  1  0
 11 13  1  0
 11 12  1  1
 13 14  1  6
 14  7  1  0
 15 16  2  0
 15 13  1  0
 17 18  1  0
 18 19  2  0
 20 18  1  0
 20 21  1  0
 22 21  1  6
 22 24  1  0
 22 23  1  0
 23 15  1  0
 24 26  1  0
 25 24  2  0
M  END
$$$$
