LIQ.pdb
     RDKit          3D

 26 25  0  0  1  0  0  0  0  0999 V2000
   27.3512  -24.8191  -20.5070 C   0  0  0  0  0  0  0  0  0  0  0  0
   28.2248  -23.9791  -19.5764 C   0  0  1  0  0  0  0  0  0  0  0  0
   28.6462  -22.7555  -20.3371 C   0  0  0  0  0  0  0  0  0  0  0  0
   27.5187  -23.6890  -18.2803 C   0  0  0  0  0  0  0  0  0  0  0  0
   28.4309  -22.8517  -17.4203 C   0  0  2  0  0  0  0  0  0  0  0  0
   29.4234  -23.6845  -16.8195 N   0  0  0  0  0  0  0  0  0  0  0  0
   27.6837  -22.1288  -16.3594 C   0  0  0  0  0  0  0  0  0  0  0  0
   27.5061  -22.7184  -15.2665 O   0  0  0  0  0  0  0  0  0  0  0  0
   28.5035  -16.9720  -16.4450 C   0  0  0  0  0  0  0  0  0  0  0  0
   28.2064  -18.2460  -15.6830 C   0  0  0  0  0  0  0  0  0  0  0  0
   26.7137  -18.5902  -15.7918 C   0  0  2  0  0  0  0  0  0  0  0  0
   26.0080  -17.6752  -14.8184 C   0  0  0  0  0  0  0  0  0  0  0  0
   26.4950  -20.0484  -15.5445 C   0  0  2  0  0  0  0  0  0  0  0  0
   27.1972  -20.8190  -16.5947 N   0  0  0  0  0  0  0  0  0  0  0  0
   25.0778  -20.4575  -15.5237 C   0  0  0  0  0  0  0  0  0  0  0  0
   24.3869  -20.4191  -16.6030 O   0  0  0  0  0  0  0  0  0  0  0  0
   22.6881  -25.3449  -13.5162 N   0  0  0  0  0  0  0  0  0  0  0  0
   21.4530  -24.6817  -13.7262 C   0  0  0  0  0  0  0  0  0  0  0  0
   20.3639  -25.2888  -13.6922 O   0  0  0  0  0  0  0  0  0  0  0  0
   21.4738  -23.1920  -13.9987 C   0  0  0  0  0  0  0  0  0  0  0  0
   22.9038  -22.7575  -14.0119 C   0  0  0  0  0  0  0  0  0  0  0  0
   23.0291  -21.3068  -14.3633 C   0  0  2  0  0  0  0  0  0  0  0  0
   24.4437  -20.9025  -14.3503 N   0  0  0  0  0  0  0  0  0  0  0  0
   22.2830  -20.4948  -13.3972 C   0  0  0  0  0  0  0  0  0  0  0  0
   22.7910  -19.9545  -12.3693 O   0  0  0  0  0  0  0  0  0  0  0  0
   20.9045  -20.2987  -13.6258 O   0  0  0  0  0  0  0  0  0  0  0  0
  2  3  1  6
  2  1  1  0
  4  2  1  0
  4  5  1  0
  5  6  1  1
  7  5  1  0
  7  8  2  0
  9 10  1  0
 10 11  1  0
 11 13  1  0
 11 12  1  1
 13 14  1  6
 14  7  1  0
 15 16  2  0
 15 13  1  0
 17 18  1  0
 18 19  2  0
 20 18  1  0
 20 21  1  0
 22 21  1  1
 22 24  1  0
 22 23  1  0
 23 15  1  0
 24 26  1  0
 25 24  2  0
M  END
$$$$
