LIQ.pdb
     RDKit          3D

 26 25  0  0  1  0  0  0  0  0999 V2000
   15.5291  -15.3774  -16.6297 C   0  0  0  0  0  0  0  0  0  0  0  0
   16.6655  -15.1970  -17.6351 C   0  0  1  0  0  0  0  0  0  0  0  0
   16.0510  -14.7763  -18.9385 C   0  0  0  0  0  0  0  0  0  0  0  0
   17.7120  -14.2519  -17.1111 C   0  0  0  0  0  0  0  0  0  0  0  0
   18.8052  -14.1356  -18.1427 C   0  0  2  0  0  0  0  0  0  0  0  0
   19.5895  -15.3290  -18.1488 N   0  0  0  0  0  0  0  0  0  0  0  0
   19.6856  -12.9666  -17.8884 C   0  0  0  0  0  0  0  0  0  0  0  0
   20.5755  -13.0866  -17.0125 O   0  0  0  0  0  0  0  0  0  0  0  0
   21.8427  -11.2989  -21.5826 C   0  0  0  0  0  0  0  0  0  0  0  0
   22.0065  -11.0207  -20.1035 C   0  0  0  0  0  0  0  0  0  0  0  0
   20.9055  -10.0650  -19.6210 C   0  0  2  0  0  0  0  0  0  0  0  0
   21.5527   -8.7026  -19.5319 C   0  0  0  0  0  0  0  0  0  0  0  0
   20.3125  -10.5565  -18.3396 C   0  0  2  0  0  0  0  0  0  0  0  0
   19.5091  -11.7669  -18.6213 N   0  0  0  0  0  0  0  0  0  0  0  0
   19.4604   -9.5727  -17.6452 C   0  0  0  0  0  0  0  0  0  0  0  0
   18.4336   -9.0863  -18.2392 O   0  0  0  0  0  0  0  0  0  0  0  0
   18.0516   -9.2362  -11.7702 N   0  0  0  0  0  0  0  0  0  0  0  0
   17.2776   -8.1519  -12.2547 C   0  0  0  0  0  0  0  0  0  0  0  0
   16.3839   -7.6196  -11.5662 O   0  0  0  0  0  0  0  0  0  0  0  0
   17.5564   -7.6364  -13.6512 C   0  0  0  0  0  0  0  0  0  0  0  0
   18.4890   -8.6020  -14.3086 C   0  0  0  0  0  0  0  0  0  0  0  0
   18.8763   -8.1378  -15.6792 C   0  0  2  0  0  0  0  0  0  0  0  0
   19.7279   -9.1439  -16.3331 N   0  0  0  0  0  0  0  0  0  0  0  0
   19.6061   -6.8697  -15.5871 C   0  0  0  0  0  0  0  0  0  0  0  0
   20.8681   -6.7704  -15.5236 O   0  0  0  0  0  0  0  0  0  0  0  0
   18.8541   -5.6759  -15.5690 O   0  0  0  0  0  0  0  0  0  0  0  0
  2  3  1  6
  2  1  1  0
  4  2  1  0
  4  5  1  0
  5  6  1  1
  7  5  1  0
  7  8  2  0
  9 10  1  0
 10 11  1  0
 11 13  1  0
 11 12  1  1
 13 14  1  6
 14  7  1  0
 15 16  2  0
 15 13  1  0
 17 18  1  0
 18 19  2  0
 20 18  1  0
 20 21  1  0
 22 21  1  1
 22 24  1  0
 22 23  1  0
 23 15  1  0
 24 26  1  0
 25 24  2  0
M  END
$$$$
