LIQ.pdb
     RDKit          3D

 26 25  0  0  1  0  0  0  0  0999 V2000
   19.4537  -20.9450  -11.9507 C   0  0  0  0  0  0  0  0  0  0  0  0
   20.7779  -21.5022  -11.4304 C   0  0  1  0  0  0  0  0  0  0  0  0
   21.0590  -22.7708  -12.1821 C   0  0  0  0  0  0  0  0  0  0  0  0
   21.8737  -20.4753  -11.5185 C   0  0  0  0  0  0  0  0  0  0  0  0
   23.1665  -21.1236  -11.0931 C   0  0  2  0  0  0  0  0  0  0  0  0
   23.1340  -21.3854   -9.6896 N   0  0  0  0  0  0  0  0  0  0  0  0
   24.3433  -20.2747  -11.4106 C   0  0  0  0  0  0  0  0  0  0  0  0
   24.3692  -19.1134  -10.9371 O   0  0  0  0  0  0  0  0  0  0  0  0
   29.2930  -21.6781  -10.6200 C   0  0  0  0  0  0  0  0  0  0  0  0
   28.0325  -20.8757  -10.8639 C   0  0  0  0  0  0  0  0  0  0  0  0
   27.8014  -20.7009  -12.3721 C   0  0  2  0  0  0  0  0  0  0  0  0
   29.0509  -20.0406  -12.9064 C   0  0  0  0  0  0  0  0  0  0  0  0
   26.5399  -19.9385  -12.6218 C   0  0  2  0  0  0  0  0  0  0  0  0
   25.3895  -20.7791  -12.2222 N   0  0  0  0  0  0  0  0  0  0  0  0
   26.3522  -19.5121  -14.0216 C   0  0  0  0  0  0  0  0  0  0  0  0
   26.0369  -20.3761  -14.9148 O   0  0  0  0  0  0  0  0  0  0  0  0
   26.0650  -13.6325  -16.1103 N   0  0  0  0  0  0  0  0  0  0  0  0
   25.0992  -14.3155  -16.8915 C   0  0  0  0  0  0  0  0  0  0  0  0
   24.3179  -13.7099  -17.6523 O   0  0  0  0  0  0  0  0  0  0  0  0
   25.0269  -15.8247  -16.7878 C   0  0  0  0  0  0  0  0  0  0  0  0
   26.1415  -16.2677  -15.8959 C   0  0  0  0  0  0  0  0  0  0  0  0
   26.2051  -17.7615  -15.8046 C   0  0  2  0  0  0  0  0  0  0  0  0
   26.5001  -18.1726  -14.4229 N   0  0  0  0  0  0  0  0  0  0  0  0
   27.2515  -18.2703  -16.6965 C   0  0  0  0  0  0  0  0  0  0  0  0
   28.4915  -18.2481  -16.4348 O   0  0  0  0  0  0  0  0  0  0  0  0
   26.8533  -18.8244  -17.9315 O   0  0  0  0  0  0  0  0  0  0  0  0
  2  3  1  6
  2  1  1  0
  4  2  1  0
  4  5  1  0
  5  6  1  1
  7  5  1  0
  7  8  2  0
  9 10  1  0
 10 11  1  0
 11 13  1  0
 11 12  1  1
 13 14  1  6
 14  7  1  0
 15 16  2  0
 15 13  1  0
 17 18  1  0
 18 19  2  0
 20 18  1  0
 20 21  1  0
 22 21  1  1
 22 24  1  0
 22 23  1  0
 23 15  1  0
 24 26  1  0
 25 24  2  0
M  END
$$$$
