LIQ.pdb
     RDKit          3D

 26 25  0  0  1  0  0  0  0  0999 V2000
   27.5346  -20.0362  -19.3537 C   0  0  0  0  0  0  0  0  0  0  0  0
   28.0884  -20.8375  -18.1764 C   0  0  1  0  0  0  0  0  0  0  0  0
   29.1109  -19.9798  -17.4892 C   0  0  0  0  0  0  0  0  0  0  0  0
   26.9829  -21.3217  -17.2784 C   0  0  0  0  0  0  0  0  0  0  0  0
   27.6028  -22.0556  -16.1166 C   0  0  2  0  0  0  0  0  0  0  0  0
   28.1736  -23.2827  -16.5724 N   0  0  0  0  0  0  0  0  0  0  0  0
   26.6117  -22.3386  -15.0470 C   0  0  0  0  0  0  0  0  0  0  0  0
   25.9981  -23.4316  -15.0950 O   0  0  0  0  0  0  0  0  0  0  0  0
   25.5892  -20.7463   -9.2074 C   0  0  0  0  0  0  0  0  0  0  0  0
   25.0223  -21.3338  -10.4823 C   0  0  0  0  0  0  0  0  0  0  0  0
   25.9790  -21.0729  -11.6549 C   0  0  2  0  0  0  0  0  0  0  0  0
   26.1882  -19.5770  -11.6908 C   0  0  0  0  0  0  0  0  0  0  0  0
   25.4280  -21.6541  -12.9173 C   0  0  2  0  0  0  0  0  0  0  0  0
   26.3827  -21.3925  -14.0172 N   0  0  0  0  0  0  0  0  0  0  0  0
   24.1044  -21.1292  -13.3033 C   0  0  0  0  0  0  0  0  0  0  0  0
   23.9940  -19.9220  -13.7208 O   0  0  0  0  0  0  0  0  0  0  0  0
   20.3443  -22.7330  -16.6560 N   0  0  0  0  0  0  0  0  0  0  0  0
   19.2676  -22.1226  -15.9648 C   0  0  0  0  0  0  0  0  0  0  0  0
   18.2449  -21.7236  -16.5571 O   0  0  0  0  0  0  0  0  0  0  0  0
   19.3780  -21.9576  -14.4633 C   0  0  0  0  0  0  0  0  0  0  0  0
   20.7159  -22.4813  -14.0510 C   0  0  0  0  0  0  0  0  0  0  0  0
   21.6380  -21.3689  -13.6560 C   0  0  2  0  0  0  0  0  0  0  0  0
   22.9394  -21.9137  -13.2382 N   0  0  0  0  0  0  0  0  0  0  0  0
   21.0525  -20.6067  -12.5490 C   0  0  0  0  0  0  0  0  0  0  0  0
   21.1196  -20.9454  -11.3294 O   0  0  0  0  0  0  0  0  0  0  0  0
   20.3676  -19.4129  -12.8597 O   0  0  0  0  0  0  0  0  0  0  0  0
  2  3  1  1
  2  1  1  0
  4  2  1  0
  4  5  1  0
  5  6  1  6
  7  5  1  0
  7  8  2  0
  9 10  1  0
 10 11  1  0
 11 13  1  0
 11 12  1  6
 13 14  1  6
 14  7  1  0
 15 16  2  0
 15 13  1  0
 17 18  1  0
 18 19  2  0
 20 18  1  0
 20 21  1  0
 22 21  1  1
 22 24  1  0
 22 23  1  0
 23 15  1  0
 24 26  1  0
 25 24  2  0
M  END
$$$$
