LIQ.pdb
     RDKit          3D

 26 25  0  0  1  0  0  0  0  0999 V2000
   14.8773  -27.8930   -2.6854 C   0  0  0  0  0  0  0  0  0  0  0  0
   16.3114  -27.3660   -2.6648 C   0  0  1  0  0  0  0  0  0  0  0  0
   16.2667  -25.9228   -3.0754 C   0  0  0  0  0  0  0  0  0  0  0  0
   16.9626  -27.6097   -1.3309 C   0  0  0  0  0  0  0  0  0  0  0  0
   18.3522  -27.0265   -1.3679 C   0  0  2  0  0  0  0  0  0  0  0  0
   19.1888  -27.8297   -2.2013 N   0  0  0  0  0  0  0  0  0  0  0  0
   18.9502  -26.9317   -0.0115 C   0  0  0  0  0  0  0  0  0  0  0  0
   19.4518  -27.9718    0.4784 O   0  0  0  0  0  0  0  0  0  0  0  0
   22.7951  -23.9519    0.7492 C   0  0  0  0  0  0  0  0  0  0  0  0
   21.7681  -25.0421    0.9695 C   0  0  0  0  0  0  0  0  0  0  0  0
   20.6726  -24.5498    1.9266 C   0  0  2  0  0  0  0  0  0  0  0  0
   21.3695  -24.2579    3.2350 C   0  0  0  0  0  0  0  0  0  0  0  0
   19.5706  -25.5558    2.0200 C   0  0  2  0  0  0  0  0  0  0  0  0
   18.9437  -25.6991    0.6873 N   0  0  0  0  0  0  0  0  0  0  0  0
   18.5228  -25.2227    3.0037 C   0  0  0  0  0  0  0  0  0  0  0  0
   17.6800  -24.2912    2.7472 O   0  0  0  0  0  0  0  0  0  0  0  0
   16.8724  -28.6017    7.9165 N   0  0  0  0  0  0  0  0  0  0  0  0
   16.5983  -28.9455    6.5689 C   0  0  0  0  0  0  0  0  0  0  0  0
   16.2193  -30.0885    6.2435 O   0  0  0  0  0  0  0  0  0  0  0  0
   16.7757  -27.8823    5.5049 C   0  0  0  0  0  0  0  0  0  0  0  0
   17.1587  -26.6139    6.1967 C   0  0  0  0  0  0  0  0  0  0  0  0
   17.3852  -25.5052    5.2152 C   0  0  2  0  0  0  0  0  0  0  0  0
   18.4031  -25.9012    4.2294 N   0  0  0  0  0  0  0  0  0  0  0  0
   17.8345  -24.3009    5.9202 C   0  0  0  0  0  0  0  0  0  0  0  0
   19.0289  -23.8767    5.9277 O   0  0  0  0  0  0  0  0  0  0  0  0
   16.8728  -23.5605    6.6399 O   0  0  0  0  0  0  0  0  0  0  0  0
  2  3  1  1
  2  1  1  0
  4  2  1  0
  4  5  1  0
  5  6  1  6
  7  5  1  0
  7  8  2  0
  9 10  1  0
 10 11  1  0
 11 13  1  0
 11 12  1  1
 13 14  1  6
 14  7  1  0
 15 16  2  0
 15 13  1  0
 17 18  1  0
 18 19  2  0
 20 18  1  0
 20 21  1  0
 22 21  1  1
 22 24  1  0
 22 23  1  0
 23 15  1  0
 24 26  1  0
 25 24  2  0
M  END
$$$$
