LIQ.pdb
     RDKit          3D

 26 25  0  0  1  0  0  0  0  0999 V2000
   27.6716  -17.3289  -17.4792 C   0  0  0  0  0  0  0  0  0  0  0  0
   28.1731  -18.2936  -16.4056 C   0  0  1  0  0  0  0  0  0  0  0  0
   28.8420  -17.4739  -15.3406 C   0  0  0  0  0  0  0  0  0  0  0  0
   27.0623  -19.1741  -15.9021 C   0  0  0  0  0  0  0  0  0  0  0  0
   27.6086  -20.0412  -14.7964 C   0  0  2  0  0  0  0  0  0  0  0  0
   28.5455  -20.9744  -15.3356 N   0  0  0  0  0  0  0  0  0  0  0  0
   26.5318  -20.7767  -14.0850 C   0  0  0  0  0  0  0  0  0  0  0  0
   26.1328  -21.8551  -14.5864 O   0  0  0  0  0  0  0  0  0  0  0  0
   26.5562  -20.6054   -8.7410 C   0  0  0  0  0  0  0  0  0  0  0  0
   26.3013  -21.1977  -10.1107 C   0  0  0  0  0  0  0  0  0  0  0  0
   25.0069  -20.6211  -10.7028 C   0  0  2  0  0  0  0  0  0  0  0  0
   23.8852  -21.1672   -9.8505 C   0  0  0  0  0  0  0  0  0  0  0  0
   24.9032  -20.9562  -12.1561 C   0  0  2  0  0  0  0  0  0  0  0  0
   25.9881  -20.2600  -12.8828 N   0  0  0  0  0  0  0  0  0  0  0  0
   23.6124  -20.5976  -12.7739 C   0  0  0  0  0  0  0  0  0  0  0  0
   23.2464  -19.3698  -12.8198 O   0  0  0  0  0  0  0  0  0  0  0  0
   19.3505  -21.0118  -18.1507 N   0  0  0  0  0  0  0  0  0  0  0  0
   20.2008  -21.7540  -17.2930 C   0  0  0  0  0  0  0  0  0  0  0  0
   21.1623  -22.4177  -17.7299 O   0  0  0  0  0  0  0  0  0  0  0  0
   19.9198  -21.7299  -15.8049 C   0  0  0  0  0  0  0  0  0  0  0  0
   21.1811  -22.1185  -15.1032 C   0  0  0  0  0  0  0  0  0  0  0  0
   21.5008  -21.1672  -13.9911 C   0  0  2  0  0  0  0  0  0  0  0  0
   22.7547  -21.5627  -13.3308 N   0  0  0  0  0  0  0  0  0  0  0  0
   20.4132  -21.1675  -13.0081 C   0  0  0  0  0  0  0  0  0  0  0  0
   19.3885  -20.4240  -13.0705 O   0  0  0  0  0  0  0  0  0  0  0  0
   20.5108  -22.0568  -11.9169 O   0  0  0  0  0  0  0  0  0  0  0  0
  2  3  1  1
  2  1  1  0
  4  2  1  0
  4  5  1  0
  5  6  1  6
  7  5  1  0
  7  8  2  0
  9 10  1  0
 10 11  1  0
 11 13  1  0
 11 12  1  1
 13 14  1  6
 14  7  1  0
 15 16  2  0
 15 13  1  0
 17 18  1  0
 18 19  2  0
 20 18  1  0
 20 21  1  0
 22 21  1  6
 22 24  1  0
 22 23  1  0
 23 15  1  0
 24 26  1  0
 25 24  2  0
M  END
$$$$
