LIQ.pdb
     RDKit          3D

 26 25  0  0  1  0  0  0  0  0999 V2000
   27.2266  -19.2146   -7.0031 C   0  0  0  0  0  0  0  0  0  0  0  0
   26.7454  -20.2948   -7.9707 C   0  0  1  0  0  0  0  0  0  0  0  0
   25.5323  -20.9364   -7.3623 C   0  0  0  0  0  0  0  0  0  0  0  0
   26.5226  -19.7328   -9.3482 C   0  0  0  0  0  0  0  0  0  0  0  0
   26.2501  -20.8784  -10.2894 C   0  0  2  0  0  0  0  0  0  0  0  0
   27.4112  -21.7035  -10.3915 N   0  0  0  0  0  0  0  0  0  0  0  0
   25.8601  -20.4041  -11.6420 C   0  0  0  0  0  0  0  0  0  0  0  0
   26.4517  -19.3971  -12.0997 O   0  0  0  0  0  0  0  0  0  0  0  0
   26.9464  -22.6562  -15.7498 C   0  0  0  0  0  0  0  0  0  0  0  0
   26.4540  -21.6075  -14.7752 C   0  0  0  0  0  0  0  0  0  0  0  0
   24.9189  -21.6066  -14.7318 C   0  0  2  0  0  0  0  0  0  0  0  0
   24.4670  -21.3257  -16.1458 C   0  0  0  0  0  0  0  0  0  0  0  0
   24.4262  -20.6271  -13.7154 C   0  0  2  0  0  0  0  0  0  0  0  0
   24.8521  -21.0806  -12.3728 N   0  0  0  0  0  0  0  0  0  0  0  0
   22.9631  -20.4380  -13.7101 C   0  0  0  0  0  0  0  0  0  0  0  0
   22.2096  -21.3072  -13.1440 O   0  0  0  0  0  0  0  0  0  0  0  0
   19.7871  -16.7512  -12.0639 N   0  0  0  0  0  0  0  0  0  0  0  0
   18.7264  -16.9855  -12.9746 C   0  0  0  0  0  0  0  0  0  0  0  0
   17.5336  -16.8017  -12.6596 O   0  0  0  0  0  0  0  0  0  0  0  0
   19.0685  -17.4729  -14.3672 C   0  0  0  0  0  0  0  0  0  0  0  0
   20.5467  -17.6892  -14.4170 C   0  0  0  0  0  0  0  0  0  0  0  0
   20.8918  -19.1358  -14.2383 C   0  0  2  0  0  0  0  0  0  0  0  0
   22.3500  -19.3207  -14.3041 N   0  0  0  0  0  0  0  0  0  0  0  0
   20.2532  -19.9331  -15.2899 C   0  0  0  0  0  0  0  0  0  0  0  0
   20.7177  -20.0826  -16.4598 O   0  0  0  0  0  0  0  0  0  0  0  0
   19.0383  -20.5806  -14.9806 O   0  0  0  0  0  0  0  0  0  0  0  0
  2  3  1  1
  2  1  1  0
  4  2  1  0
  4  5  1  0
  5  6  1  6
  7  5  1  0
  7  8  2  0
  9 10  1  0
 10 11  1  0
 11 13  1  0
 11 12  1  6
 13 14  1  1
 14  7  1  0
 15 16  2  0
 15 13  1  0
 17 18  1  0
 18 19  2  0
 20 18  1  0
 20 21  1  0
 22 21  1  6
 22 24  1  0
 22 23  1  0
 23 15  1  0
 24 26  1  0
 25 24  2  0
M  END
$$$$
