WKN.pdb
     RDKit          3D

 32 33  0  0  1  0  0  0  0  0999 V2000
    6.4893  -17.9566   23.9846 N   0  0  0  0  0  0  0  0  0  0  0  0
    6.9421  -16.6217   23.6699 C   0  0  1  0  0  0  0  0  0  0  0  0
    7.9093  -16.1063   24.7043 C   0  0  0  0  0  0  0  0  0  0  0  0
    7.3861  -15.2389   25.7286 C   0  0  0  0  0  0  0  0  0  0  0  0
    6.7822  -15.6868   26.9129 C   0  0  0  0  0  0  0  0  0  0  0  0
    6.4368  -14.6294   27.6480 N   0  0  0  0  0  0  0  0  0  0  0  0
    6.7810  -13.5021   27.0061 C   0  0  0  0  0  0  0  0  0  0  0  0
    6.6095  -12.1953   27.3956 C   0  0  0  0  0  0  0  0  0  0  0  0
    7.0458  -11.1934   26.5548 C   0  0  0  0  0  0  0  0  0  0  0  0
    7.6381  -11.5286   25.3562 C   0  0  0  0  0  0  0  0  0  0  0  0
    7.7982  -12.8316   24.9918 C   0  0  0  0  0  0  0  0  0  0  0  0
    7.3810  -13.8742   25.7935 C   0  0  0  0  0  0  0  0  0  0  0  0
    7.4858  -16.4459   22.3299 C   0  0  0  0  0  0  0  0  0  0  0  0
    7.6867  -17.3884   21.5213 O   0  0  0  0  0  0  0  0  0  0  0  0
    7.8407  -15.1287   21.8196 N   0  0  0  0  0  0  0  0  0  0  0  0
    8.1836  -14.8672   20.4590 C   0  0  1  0  0  0  0  0  0  0  0  0
    8.2005  -13.4703   19.9843 C   0  0  0  0  0  0  0  0  0  0  0  0
    8.5624  -13.2005   18.5862 C   0  0  0  0  0  0  0  0  0  0  0  0
    7.5633  -13.5655   17.5375 C   0  0  0  0  0  0  0  0  0  0  0  0
    8.1748  -13.2652   16.1485 C   0  0  0  0  0  0  0  0  0  0  0  0
    8.6014  -14.5175   15.5735 N   0  0  0  0  0  0  0  0  0  0  0  0
    9.5701  -15.4689   20.2697 C   0  0  0  0  0  0  0  0  0  0  0  0
   10.0082  -15.8157   19.1490 O   0  0  0  0  0  0  0  0  0  0  0  0
   12.6158  -13.9179   18.8973 N   0  0  0  0  0  0  0  0  0  0  0  0
   12.8665  -15.2036   19.4715 C   0  0  0  0  0  0  0  0  0  0  0  0
   13.1634  -16.1406   18.6950 O   0  0  0  0  0  0  0  0  0  0  0  0
   12.7712  -15.3766   20.9344 C   0  0  0  0  0  0  0  0  0  0  0  0
   11.6913  -16.4081   21.2211 C   0  0  2  0  0  0  0  0  0  0  0  0
   10.4416  -15.6649   21.3705 N   0  0  0  0  0  0  0  0  0  0  0  0
   11.9842  -17.2016   22.4344 C   0  0  0  0  0  0  0  0  0  0  0  0
   12.1951  -18.4367   22.3457 O   0  0  0  0  0  0  0  0  0  0  0  0
   12.0420  -16.6426   23.7064 O   0  0  0  0  0  0  0  0  0  0  0  0
  2  3  1  0
  2  1  1  1
  3  4  1  0
  4  5  2  0
  6  5  1  0
  7  6  1  0
  8  7  2  0
  9  8  1  0
 10  9  2  0
 10 11  1  0
 11 12  2  0
 12  7  1  0
 12  4  1  0
 13  2  1  0
 13 14  2  0
 15 13  1  0
 16 22  1  0
 16 15  1  0
 16 17  1  1
 18 17  1  0
 19 18  1  0
 20 21  1  0
 20 19  1  0
 22 29  1  0
 23 22  2  0
 24 25  1  0
 25 26  2  0
 27 25  1  0
 28 27  1  1
 28 30  1  0
 29 28  1  0
 30 31  2  0
 30 32  1  0
M  END
$$$$
