WKN.pdb
     RDKit          3D

 32 33  0  0  1  0  0  0  0  0999 V2000
    6.2141  -18.2203   24.6089 N   0  0  0  0  0  0  0  0  0  0  0  0
    6.7984  -16.9281   24.3355 C   0  0  1  0  0  0  0  0  0  0  0  0
    7.3350  -16.2862   25.5890 C   0  0  0  0  0  0  0  0  0  0  0  0
    6.6788  -15.0922   26.0568 C   0  0  0  0  0  0  0  0  0  0  0  0
    5.3630  -15.0501   26.5413 C   0  0  0  0  0  0  0  0  0  0  0  0
    5.0798  -13.8015   26.9137 N   0  0  0  0  0  0  0  0  0  0  0  0
    6.1447  -13.0138   26.6969 C   0  0  0  0  0  0  0  0  0  0  0  0
    6.2895  -11.6673   26.9310 C   0  0  0  0  0  0  0  0  0  0  0  0
    7.4918  -11.0688   26.6188 C   0  0  0  0  0  0  0  0  0  0  0  0
    8.5075  -11.8327   26.0851 C   0  0  0  0  0  0  0  0  0  0  0  0
    8.3407  -13.1665   25.8627 C   0  0  0  0  0  0  0  0  0  0  0  0
    7.1600  -13.8174   26.1562 C   0  0  0  0  0  0  0  0  0  0  0  0
    7.8028  -16.9069   23.2806 C   0  0  0  0  0  0  0  0  0  0  0  0
    8.5033  -17.8994   22.9541 O   0  0  0  0  0  0  0  0  0  0  0  0
    8.0693  -15.7014   22.5080 N   0  0  0  0  0  0  0  0  0  0  0  0
    9.0827  -15.6040   21.5076 C   0  0  1  0  0  0  0  0  0  0  0  0
    9.1844  -14.3637   20.7149 C   0  0  0  0  0  0  0  0  0  0  0  0
    8.5655  -14.3203   19.3831 C   0  0  0  0  0  0  0  0  0  0  0  0
    8.1489  -12.9827   18.8649 C   0  0  0  0  0  0  0  0  0  0  0  0
    7.3999  -13.1843   17.5263 C   0  0  0  0  0  0  0  0  0  0  0  0
    8.2870  -13.8763   16.6235 N   0  0  0  0  0  0  0  0  0  0  0  0
   10.3978  -15.8284   22.2426 C   0  0  0  0  0  0  0  0  0  0  0  0
   10.7923  -15.0787   23.1648 O   0  0  0  0  0  0  0  0  0  0  0  0
   11.4796  -18.2955   24.4576 N   0  0  0  0  0  0  0  0  0  0  0  0
   12.2695  -19.1018   23.5792 C   0  0  0  0  0  0  0  0  0  0  0  0
   12.3222  -20.3323   23.8073 O   0  0  0  0  0  0  0  0  0  0  0  0
   12.9796  -18.4660   22.4520 C   0  0  0  0  0  0  0  0  0  0  0  0
   12.6116  -16.9906   22.4305 C   0  0  2  0  0  0  0  0  0  0  0  0
   11.2471  -16.9144   21.9121 N   0  0  0  0  0  0  0  0  0  0  0  0
   13.5398  -16.1950   21.5982 C   0  0  0  0  0  0  0  0  0  0  0  0
   13.2353  -15.9036   20.4148 O   0  0  0  0  0  0  0  0  0  0  0  0
   14.7672  -15.7363   22.0639 O   0  0  0  0  0  0  0  0  0  0  0  0
  2  3  1  0
  2  1  1  1
  3  4  1  0
  4  5  2  0
  6  5  1  0
  7  6  1  0
  8  7  2  0
  9  8  1  0
 10  9  2  0
 10 11  1  0
 11 12  2  0
 12  7  1  0
 12  4  1  0
 13  2  1  0
 13 14  2  0
 15 13  1  0
 16 22  1  0
 16 15  1  0
 16 17  1  1
 18 17  1  0
 19 18  1  0
 20 21  1  0
 20 19  1  0
 22 29  1  0
 23 22  2  0
 24 25  1  0
 25 26  2  0
 27 25  1  0
 28 27  1  6
 28 30  1  0
 29 28  1  0
 30 31  2  0
 30 32  1  0
M  END
$$$$
