WKN.pdb
     RDKit          3D

 32 33  0  0  1  0  0  0  0  0999 V2000
    9.5682  -15.5354   24.5125 N   0  0  0  0  0  0  0  0  0  0  0  0
    8.2961  -16.1012   24.1282 C   0  0  1  0  0  0  0  0  0  0  0  0
    7.2192  -15.7759   25.1310 C   0  0  0  0  0  0  0  0  0  0  0  0
    7.5282  -14.7993   26.1439 C   0  0  0  0  0  0  0  0  0  0  0  0
    8.4863  -14.9806   27.1525 C   0  0  0  0  0  0  0  0  0  0  0  0
    8.5389  -13.8786   27.9011 N   0  0  0  0  0  0  0  0  0  0  0  0
    7.6596  -12.9764   27.4379 C   0  0  0  0  0  0  0  0  0  0  0  0
    7.3827  -11.7148   27.9075 C   0  0  0  0  0  0  0  0  0  0  0  0
    6.4223  -10.9660   27.2609 C   0  0  0  0  0  0  0  0  0  0  0  0
    5.7721  -11.5001   26.1691 C   0  0  0  0  0  0  0  0  0  0  0  0
    6.0644  -12.7532   25.7212 C   0  0  0  0  0  0  0  0  0  0  0  0
    7.0159  -13.5464   26.3290 C   0  0  0  0  0  0  0  0  0  0  0  0
    7.8512  -15.7800   22.7788 C   0  0  0  0  0  0  0  0  0  0  0  0
    6.8080  -16.2445   22.2512 O   0  0  0  0  0  0  0  0  0  0  0  0
    8.6039  -14.8706   21.9257 N   0  0  0  0  0  0  0  0  0  0  0  0
    8.2929  -14.6230   20.5549 C   0  0  1  0  0  0  0  0  0  0  0  0
    8.3257  -13.2347   20.0564 C   0  0  0  0  0  0  0  0  0  0  0  0
    7.7856  -12.9478   18.7205 C   0  0  0  0  0  0  0  0  0  0  0  0
    8.4939  -13.5502   17.5515 C   0  0  0  0  0  0  0  0  0  0  0  0
    7.7889  -13.0856   16.2552 C   0  0  0  0  0  0  0  0  0  0  0  0
    8.5464  -13.5891   15.1355 N   0  0  0  0  0  0  0  0  0  0  0  0
    9.2887  -15.4564   19.7586 C   0  0  0  0  0  0  0  0  0  0  0  0
    9.2233  -15.5792   18.5140 O   0  0  0  0  0  0  0  0  0  0  0  0
   13.9401  -14.2159   19.3343 N   0  0  0  0  0  0  0  0  0  0  0  0
   13.4101  -15.4772   18.9175 C   0  0  0  0  0  0  0  0  0  0  0  0
   14.2164  -16.4206   18.7477 O   0  0  0  0  0  0  0  0  0  0  0  0
   11.9558  -15.6205   18.7089 C   0  0  0  0  0  0  0  0  0  0  0  0
   11.4502  -16.7204   19.6294 C   0  0  2  0  0  0  0  0  0  0  0  0
   10.3524  -16.1398   20.4000 N   0  0  0  0  0  0  0  0  0  0  0  0
   12.5114  -17.2333   20.5227 C   0  0  0  0  0  0  0  0  0  0  0  0
   12.6499  -16.7575   21.6770 O   0  0  0  0  0  0  0  0  0  0  0  0
   13.3912  -18.2430   20.1480 O   0  0  0  0  0  0  0  0  0  0  0  0
  2  3  1  0
  2  1  1  1
  3  4  1  0
  4  5  2  0
  6  5  1  0
  7  6  1  0
  8  7  2  0
  9  8  1  0
 10  9  2  0
 10 11  1  0
 11 12  2  0
 12  7  1  0
 12  4  1  0
 13  2  1  0
 13 14  2  0
 15 13  1  0
 16 22  1  0
 16 15  1  0
 16 17  1  6
 18 17  1  0
 19 18  1  0
 20 21  1  0
 20 19  1  0
 22 29  1  0
 23 22  2  0
 24 25  1  0
 25 26  2  0
 27 25  1  0
 28 27  1  6
 28 30  1  0
 29 28  1  0
 30 31  2  0
 30 32  1  0
M  END
$$$$
