WKN.pdb
     RDKit          3D

 32 33  0  0  1  0  0  0  0  0999 V2000
    6.0594  -17.2918   24.9863 N   0  0  0  0  0  0  0  0  0  0  0  0
    6.9009  -16.2045   24.5442 C   0  0  1  0  0  0  0  0  0  0  0  0
    7.9358  -15.8481   25.5802 C   0  0  0  0  0  0  0  0  0  0  0  0
    7.6023  -14.8107   26.5224 C   0  0  0  0  0  0  0  0  0  0  0  0
    7.7595  -14.9228   27.9119 C   0  0  0  0  0  0  0  0  0  0  0  0
    7.3825  -13.7783   28.4827 N   0  0  0  0  0  0  0  0  0  0  0  0
    6.9809  -12.9139   27.5377 C   0  0  0  0  0  0  0  0  0  0  0  0
    6.5119  -11.6299   27.6797 C   0  0  0  0  0  0  0  0  0  0  0  0
    6.1511  -10.9302   26.5477 C   0  0  0  0  0  0  0  0  0  0  0  0
    6.2709  -11.5340   25.3144 C   0  0  0  0  0  0  0  0  0  0  0  0
    6.7395  -12.8080   25.1985 C   0  0  0  0  0  0  0  0  0  0  0  0
    7.1152  -13.5544   26.2965 C   0  0  0  0  0  0  0  0  0  0  0  0
    7.5250  -16.3872   23.2407 C   0  0  0  0  0  0  0  0  0  0  0  0
    7.5583  -17.4823   22.6224 O   0  0  0  0  0  0  0  0  0  0  0  0
    8.1681  -15.2821   22.5434 N   0  0  0  0  0  0  0  0  0  0  0  0
    8.7611  -15.3934   21.2498 C   0  0  1  0  0  0  0  0  0  0  0  0
    8.9778  -14.1677   20.4575 C   0  0  0  0  0  0  0  0  0  0  0  0
    7.9924  -13.8035   19.4305 C   0  0  0  0  0  0  0  0  0  0  0  0
    8.4192  -13.9116   18.0031 C   0  0  0  0  0  0  0  0  0  0  0  0
    7.2485  -13.4514   17.1024 C   0  0  0  0  0  0  0  0  0  0  0  0
    7.6467  -13.6413   15.7290 N   0  0  0  0  0  0  0  0  0  0  0  0
   10.1034  -16.0760   21.4788 C   0  0  0  0  0  0  0  0  0  0  0  0
   10.8832  -15.7402   22.3993 O   0  0  0  0  0  0  0  0  0  0  0  0
   13.2834  -20.9052   20.9048 N   0  0  0  0  0  0  0  0  0  0  0  0
   13.1297  -19.7077   20.1380 C   0  0  0  0  0  0  0  0  0  0  0  0
   14.1459  -19.2446   19.5708 O   0  0  0  0  0  0  0  0  0  0  0  0
   11.8004  -19.0729   20.0416 C   0  0  0  0  0  0  0  0  0  0  0  0
   11.8191  -17.8027   20.8776 C   0  0  2  0  0  0  0  0  0  0  0  0
   10.5365  -17.1404   20.6486 N   0  0  0  0  0  0  0  0  0  0  0  0
   12.9457  -16.9142   20.5192 C   0  0  0  0  0  0  0  0  0  0  0  0
   12.8745  -16.1837   19.4998 O   0  0  0  0  0  0  0  0  0  0  0  0
   14.1148  -16.8375   21.2684 O   0  0  0  0  0  0  0  0  0  0  0  0
  2  3  1  0
  2  1  1  1
  3  4  1  0
  4  5  2  0
  6  5  1  0
  7  6  1  0
  8  7  2  0
  9  8  1  0
 10  9  2  0
 10 11  1  0
 11 12  2  0
 12  7  1  0
 12  4  1  0
 13  2  1  0
 13 14  2  0
 15 13  1  0
 16 22  1  0
 16 15  1  0
 16 17  1  1
 18 17  1  0
 19 18  1  0
 20 21  1  0
 20 19  1  0
 22 29  1  0
 23 22  2  0
 24 25  1  0
 25 26  2  0
 27 25  1  0
 28 27  1  6
 28 30  1  0
 29 28  1  0
 30 31  2  0
 30 32  1  0
M  END
$$$$
