WKN.pdb
     RDKit          3D

 32 33  0  0  1  0  0  0  0  0999 V2000
    6.3284  -17.4281   25.6488 N   0  0  0  0  0  0  0  0  0  0  0  0
    6.9648  -16.3320   24.9564 C   0  0  1  0  0  0  0  0  0  0  0  0
    8.1946  -15.8552   25.6854 C   0  0  0  0  0  0  0  0  0  0  0  0
    8.0263  -14.8010   26.6526 C   0  0  0  0  0  0  0  0  0  0  0  0
    8.4284  -14.8856   27.9939 C   0  0  0  0  0  0  0  0  0  0  0  0
    8.1507  -13.7317   28.6014 N   0  0  0  0  0  0  0  0  0  0  0  0
    7.5817  -12.8872   27.7270 C   0  0  0  0  0  0  0  0  0  0  0  0
    7.1362  -11.6024   27.9264 C   0  0  0  0  0  0  0  0  0  0  0  0
    6.5753  -10.9262   26.8637 C   0  0  0  0  0  0  0  0  0  0  0  0
    6.4785  -11.5533   25.6400 C   0  0  0  0  0  0  0  0  0  0  0  0
    6.9281  -12.8276   25.4663 C   0  0  0  0  0  0  0  0  0  0  0  0
    7.4980  -13.5512   26.4937 C   0  0  0  0  0  0  0  0  0  0  0  0
    7.2645  -16.5702   23.5509 C   0  0  0  0  0  0  0  0  0  0  0  0
    7.3415  -17.7129   23.0304 O   0  0  0  0  0  0  0  0  0  0  0  0
    7.4986  -15.4701   22.6257 N   0  0  0  0  0  0  0  0  0  0  0  0
    7.8531  -15.6441   21.2542 C   0  0  1  0  0  0  0  0  0  0  0  0
    7.7381  -14.4941   20.3370 C   0  0  0  0  0  0  0  0  0  0  0  0
    8.1609  -14.6563   18.9394 C   0  0  0  0  0  0  0  0  0  0  0  0
    7.9575  -13.4943   18.0231 C   0  0  0  0  0  0  0  0  0  0  0  0
    8.4336  -13.8944   16.6065 C   0  0  0  0  0  0  0  0  0  0  0  0
    8.4191  -12.7092   15.7843 N   0  0  0  0  0  0  0  0  0  0  0  0
    9.3000  -16.1201   21.2689 C   0  0  0  0  0  0  0  0  0  0  0  0
   10.1488  -15.6754   22.0751 O   0  0  0  0  0  0  0  0  0  0  0  0
   13.0549  -19.8859   20.8183 N   0  0  0  0  0  0  0  0  0  0  0  0
   12.5408  -19.3940   19.5776 C   0  0  0  0  0  0  0  0  0  0  0  0
   13.2843  -19.4599   18.5717 O   0  0  0  0  0  0  0  0  0  0  0  0
   11.1740  -18.8384   19.5272 C   0  0  0  0  0  0  0  0  0  0  0  0
   11.1321  -17.6000   20.4087 C   0  0  2  0  0  0  0  0  0  0  0  0
    9.7579  -17.1048   20.3576 N   0  0  0  0  0  0  0  0  0  0  0  0
   12.0861  -16.5624   19.9607 C   0  0  0  0  0  0  0  0  0  0  0  0
   11.8086  -15.8313   18.9777 O   0  0  0  0  0  0  0  0  0  0  0  0
   13.3096  -16.3420   20.5839 O   0  0  0  0  0  0  0  0  0  0  0  0
  2  3  1  0
  2  1  1  1
  3  4  1  0
  4  5  2  0
  6  5  1  0
  7  6  1  0
  8  7  2  0
  9  8  1  0
 10  9  2  0
 10 11  1  0
 11 12  2  0
 12  7  1  0
 12  4  1  0
 13  2  1  0
 13 14  2  0
 15 13  1  0
 16 22  1  0
 16 15  1  0
 16 17  1  6
 18 17  1  0
 19 18  1  0
 20 21  1  0
 20 19  1  0
 22 29  1  0
 23 22  2  0
 24 25  1  0
 25 26  2  0
 27 25  1  0
 28 27  1  6
 28 30  1  0
 29 28  1  0
 30 31  2  0
 30 32  1  0
M  END
$$$$
