WKN.pdb
     RDKit          3D

 32 33  0  0  1  0  0  0  0  0999 V2000
    6.2009  -18.1983   24.1415 N   0  0  0  0  0  0  0  0  0  0  0  0
    6.7895  -16.8930   23.9526 C   0  0  1  0  0  0  0  0  0  0  0  0
    7.4064  -16.3738   25.2258 C   0  0  0  0  0  0  0  0  0  0  0  0
    6.7579  -15.2619   25.8725 C   0  0  0  0  0  0  0  0  0  0  0  0
    5.5384  -15.3478   26.5607 C   0  0  0  0  0  0  0  0  0  0  0  0
    5.2382  -14.1478   27.0582 N   0  0  0  0  0  0  0  0  0  0  0  0
    6.1995  -13.2703   26.7306 C   0  0  0  0  0  0  0  0  0  0  0  0
    6.2916  -11.9323   27.0311 C   0  0  0  0  0  0  0  0  0  0  0  0
    7.3851  -11.2273   26.5747 C   0  0  0  0  0  0  0  0  0  0  0  0
    8.3485  -11.8800   25.8359 C   0  0  0  0  0  0  0  0  0  0  0  0
    8.2358  -13.2076   25.5513 C   0  0  0  0  0  0  0  0  0  0  0  0
    7.1640  -13.9621   25.9822 C   0  0  0  0  0  0  0  0  0  0  0  0
    7.7328  -16.7867   22.8476 C   0  0  0  0  0  0  0  0  0  0  0  0
    8.4131  -17.7485   22.4065 O   0  0  0  0  0  0  0  0  0  0  0  0
    7.9561  -15.5242   22.1567 N   0  0  0  0  0  0  0  0  0  0  0  0
    8.8719  -15.3593   21.0745 C   0  0  1  0  0  0  0  0  0  0  0  0
    8.6495  -14.2618   20.1138 C   0  0  0  0  0  0  0  0  0  0  0  0
    7.9572  -14.5536   18.8512 C   0  0  0  0  0  0  0  0  0  0  0  0
    8.2954  -13.7014   17.6719 C   0  0  0  0  0  0  0  0  0  0  0  0
    7.4585  -14.1799   16.4619 C   0  0  0  0  0  0  0  0  0  0  0  0
    7.8316  -13.3784   15.3220 N   0  0  0  0  0  0  0  0  0  0  0  0
   10.2367  -15.1755   21.7255 C   0  0  0  0  0  0  0  0  0  0  0  0
   10.3886  -14.5869   22.8203 O   0  0  0  0  0  0  0  0  0  0  0  0
   13.9795  -17.9816   23.3614 N   0  0  0  0  0  0  0  0  0  0  0  0
   12.6292  -18.4345   23.2313 C   0  0  0  0  0  0  0  0  0  0  0  0
   12.3217  -19.5163   23.7828 O   0  0  0  0  0  0  0  0  0  0  0  0
   11.6615  -17.6227   22.4673 C   0  0  0  0  0  0  0  0  0  0  0  0
   12.4013  -16.4316   21.8786 C   0  0  2  0  0  0  0  0  0  0  0  0
   11.4148  -15.6720   21.1129 N   0  0  0  0  0  0  0  0  0  0  0  0
   13.5334  -16.8449   21.0214 C   0  0  0  0  0  0  0  0  0  0  0  0
   13.3371  -17.5977   20.0352 O   0  0  0  0  0  0  0  0  0  0  0  0
   14.8426  -16.4354   21.2504 O   0  0  0  0  0  0  0  0  0  0  0  0
  2  3  1  0
  2  1  1  1
  3  4  1  0
  4  5  2  0
  6  5  1  0
  7  6  1  0
  8  7  2  0
  9  8  1  0
 10  9  2  0
 10 11  1  0
 11 12  2  0
 12  7  1  0
 12  4  1  0
 13  2  1  0
 13 14  2  0
 15 13  1  0
 16 22  1  0
 16 15  1  0
 16 17  1  1
 18 17  1  0
 19 18  1  0
 20 21  1  0
 20 19  1  0
 22 29  1  0
 23 22  2  0
 24 25  1  0
 25 26  2  0
 27 25  1  0
 28 27  1  6
 28 30  1  0
 29 28  1  0
 30 31  2  0
 30 32  1  0
M  END
$$$$
