WKN.pdb
     RDKit          3D

 32 33  0  0  1  0  0  0  0  0999 V2000
    6.4228  -17.9346   23.8300 N   0  0  0  0  0  0  0  0  0  0  0  0
    6.8909  -16.5750   23.6945 C   0  0  1  0  0  0  0  0  0  0  0  0
    7.5989  -16.1061   24.9395 C   0  0  0  0  0  0  0  0  0  0  0  0
    6.9392  -15.1087   25.7428 C   0  0  0  0  0  0  0  0  0  0  0  0
    5.9080  -15.3813   26.6540 C   0  0  0  0  0  0  0  0  0  0  0  0
    5.5431  -14.2436   27.2458 N   0  0  0  0  0  0  0  0  0  0  0  0
    6.2818  -13.2298   26.7685 C   0  0  0  0  0  0  0  0  0  0  0  0
    6.2376  -11.8955   27.0951 C   0  0  0  0  0  0  0  0  0  0  0  0
    7.1037  -11.0315   26.4592 C   0  0  0  0  0  0  0  0  0  0  0  0
    7.9835  -11.5270   25.5209 C   0  0  0  0  0  0  0  0  0  0  0  0
    8.0095  -12.8542   25.2143 C   0  0  0  0  0  0  0  0  0  0  0  0
    7.1665  -13.7638   25.8192 C   0  0  0  0  0  0  0  0  0  0  0  0
    7.7021  -16.3080   22.5143 C   0  0  0  0  0  0  0  0  0  0  0  0
    8.3385  -17.1898   21.8821 O   0  0  0  0  0  0  0  0  0  0  0  0
    7.8323  -14.9639   21.9688 N   0  0  0  0  0  0  0  0  0  0  0  0
    8.5344  -14.6573   20.7646 C   0  0  1  0  0  0  0  0  0  0  0  0
    8.4825  -13.2790   20.2407 C   0  0  0  0  0  0  0  0  0  0  0  0
    7.9976  -13.0583   18.8715 C   0  0  0  0  0  0  0  0  0  0  0  0
    8.5513  -13.9380   17.7988 C   0  0  0  0  0  0  0  0  0  0  0  0
    7.9865  -13.4695   16.4368 C   0  0  0  0  0  0  0  0  0  0  0  0
    8.4577  -14.3836   15.4251 N   0  0  0  0  0  0  0  0  0  0  0  0
    9.9866  -15.0257   21.0395 C   0  0  0  0  0  0  0  0  0  0  0  0
   10.5992  -14.6398   22.0612 O   0  0  0  0  0  0  0  0  0  0  0  0
   14.3187  -18.9655   20.0617 N   0  0  0  0  0  0  0  0  0  0  0  0
   13.8665  -17.6801   19.6271 C   0  0  0  0  0  0  0  0  0  0  0  0
   14.7342  -16.8282   19.3265 O   0  0  0  0  0  0  0  0  0  0  0  0
   12.4177  -17.4091   19.5465 C   0  0  0  0  0  0  0  0  0  0  0  0
   12.1141  -16.1908   20.4045 C   0  0  2  0  0  0  0  0  0  0  0  0
   10.7214  -15.8365   20.1380 N   0  0  0  0  0  0  0  0  0  0  0  0
   13.0157  -15.0574   20.1048 C   0  0  0  0  0  0  0  0  0  0  0  0
   14.0255  -14.8469   20.8217 O   0  0  0  0  0  0  0  0  0  0  0  0
   12.8045  -14.1849   19.0427 O   0  0  0  0  0  0  0  0  0  0  0  0
  2  3  1  0
  2  1  1  1
  3  4  1  0
  4  5  2  0
  6  5  1  0
  7  6  1  0
  8  7  2  0
  9  8  1  0
 10  9  2  0
 10 11  1  0
 11 12  2  0
 12  7  1  0
 12  4  1  0
 13  2  1  0
 13 14  2  0
 15 13  1  0
 16 22  1  0
 16 15  1  0
 16 17  1  1
 18 17  1  0
 19 18  1  0
 20 21  1  0
 20 19  1  0
 22 29  1  0
 23 22  2  0
 24 25  1  0
 25 26  2  0
 27 25  1  0
 28 27  1  6
 28 30  1  0
 29 28  1  0
 30 31  2  0
 30 32  1  0
M  END
$$$$
