WKN.pdb
     RDKit          3D

 32 33  0  0  1  0  0  0  0  0999 V2000
    6.8290  -18.7121   25.5197 N   0  0  0  0  0  0  0  0  0  0  0  0
    6.9382  -17.3502   25.0513 C   0  0  1  0  0  0  0  0  0  0  0  0
    7.3345  -16.4122   26.1622 C   0  0  0  0  0  0  0  0  0  0  0  0
    6.6008  -15.1784   26.2829 C   0  0  0  0  0  0  0  0  0  0  0  0
    5.2032  -15.0784   26.2143 C   0  0  0  0  0  0  0  0  0  0  0  0
    4.8525  -13.8041   26.3901 N   0  0  0  0  0  0  0  0  0  0  0  0
    5.9513  -13.0546   26.5698 C   0  0  0  0  0  0  0  0  0  0  0  0
    6.0524  -11.7003   26.7806 C   0  0  0  0  0  0  0  0  0  0  0  0
    7.3065  -11.1483   26.9346 C   0  0  0  0  0  0  0  0  0  0  0  0
    8.4153  -11.9648   26.8737 C   0  0  0  0  0  0  0  0  0  0  0  0
    8.2900  -13.3052   26.6645 C   0  0  0  0  0  0  0  0  0  0  0  0
    7.0608  -13.9111   26.5041 C   0  0  0  0  0  0  0  0  0  0  0  0
    7.7943  -17.1558   23.8888 C   0  0  0  0  0  0  0  0  0  0  0  0
    8.7338  -17.9284   23.5682 O   0  0  0  0  0  0  0  0  0  0  0  0
    7.6131  -16.0232   22.9914 N   0  0  0  0  0  0  0  0  0  0  0  0
    8.3382  -15.8466   21.7748 C   0  0  1  0  0  0  0  0  0  0  0  0
    7.9134  -14.7877   20.8393 C   0  0  0  0  0  0  0  0  0  0  0  0
    8.6281  -14.6389   19.5643 C   0  0  0  0  0  0  0  0  0  0  0  0
    8.0956  -13.6361   18.5937 C   0  0  0  0  0  0  0  0  0  0  0  0
    8.8943  -13.7551   17.2741 C   0  0  0  0  0  0  0  0  0  0  0  0
    8.2748  -12.8867   16.3029 N   0  0  0  0  0  0  0  0  0  0  0  0
    9.7774  -15.5823   22.1978 C   0  0  0  0  0  0  0  0  0  0  0  0
   10.0713  -15.0203   23.2776 O   0  0  0  0  0  0  0  0  0  0  0  0
   14.0515  -16.8955   24.5446 N   0  0  0  0  0  0  0  0  0  0  0  0
   13.4833  -17.5635   23.4149 C   0  0  0  0  0  0  0  0  0  0  0  0
   14.1826  -18.4264   22.8358 O   0  0  0  0  0  0  0  0  0  0  0  0
   12.1146  -17.2203   22.9812 C   0  0  0  0  0  0  0  0  0  0  0  0
   12.2103  -16.1262   21.9293 C   0  0  2  0  0  0  0  0  0  0  0  0
   10.8665  -15.9683   21.3764 N   0  0  0  0  0  0  0  0  0  0  0  0
   13.1849  -16.4559   20.8669 C   0  0  0  0  0  0  0  0  0  0  0  0
   14.3698  -16.0464   20.9475 O   0  0  0  0  0  0  0  0  0  0  0  0
   12.8561  -17.2166   19.7502 O   0  0  0  0  0  0  0  0  0  0  0  0
  2  3  1  0
  2  1  1  1
  3  4  1  0
  4  5  2  0
  6  5  1  0
  7  6  1  0
  8  7  2  0
  9  8  1  0
 10  9  2  0
 10 11  1  0
 11 12  2  0
 12  7  1  0
 12  4  1  0
 13  2  1  0
 13 14  2  0
 15 13  1  0
 16 22  1  0
 16 15  1  0
 16 17  1  1
 18 17  1  0
 19 18  1  0
 20 21  1  0
 20 19  1  0
 22 29  1  0
 23 22  2  0
 24 25  1  0
 25 26  2  0
 27 25  1  0
 28 27  1  1
 28 30  1  0
 29 28  1  0
 30 31  2  0
 30 32  1  0
M  END
$$$$
