WKN.pdb
     RDKit          3D

 32 33  0  0  1  0  0  0  0  0999 V2000
    6.2150  -18.1522   24.5058 N   0  0  0  0  0  0  0  0  0  0  0  0
    6.6104  -16.7799   24.2903 C   0  0  1  0  0  0  0  0  0  0  0  0
    7.3782  -16.2333   25.4662 C   0  0  0  0  0  0  0  0  0  0  0  0
    6.8105  -15.1090   26.1654 C   0  0  0  0  0  0  0  0  0  0  0  0
    5.7845  -15.2047   27.1173 C   0  0  0  0  0  0  0  0  0  0  0  0
    5.5156  -13.9859   27.5862 N   0  0  0  0  0  0  0  0  0  0  0  0
    6.3131  -13.0867   26.9886 C   0  0  0  0  0  0  0  0  0  0  0  0
    6.3717  -11.7253   27.1673 C   0  0  0  0  0  0  0  0  0  0  0  0
    7.2817  -11.0011   26.4265 C   0  0  0  0  0  0  0  0  0  0  0  0
    8.1015  -11.6587   25.5346 C   0  0  0  0  0  0  0  0  0  0  0  0
    8.0256  -13.0097   25.3753 C   0  0  0  0  0  0  0  0  0  0  0  0
    7.1346  -13.7840   26.0899 C   0  0  0  0  0  0  0  0  0  0  0  0
    7.3273  -16.5236   23.0484 C   0  0  0  0  0  0  0  0  0  0  0  0
    8.1625  -17.3153   22.5404 O   0  0  0  0  0  0  0  0  0  0  0  0
    7.1173  -15.2999   22.2872 N   0  0  0  0  0  0  0  0  0  0  0  0
    7.8033  -14.9878   21.0751 C   0  0  1  0  0  0  0  0  0  0  0  0
    7.6507  -13.6390   20.4970 C   0  0  0  0  0  0  0  0  0  0  0  0
    8.2544  -13.3558   19.1878 C   0  0  0  0  0  0  0  0  0  0  0  0
    7.8772  -14.2497   18.0521 C   0  0  0  0  0  0  0  0  0  0  0  0
    8.6349  -13.7843   16.7861 C   0  0  0  0  0  0  0  0  0  0  0  0
    8.2274  -14.6306   15.6912 N   0  0  0  0  0  0  0  0  0  0  0  0
    9.2771  -15.2333   21.3712 C   0  0  0  0  0  0  0  0  0  0  0  0
    9.8823  -14.6610   22.3063 O   0  0  0  0  0  0  0  0  0  0  0  0
   13.6828  -17.6873   22.7667 N   0  0  0  0  0  0  0  0  0  0  0  0
   12.9301  -18.1604   21.6464 C   0  0  0  0  0  0  0  0  0  0  0  0
   13.5175  -18.8924   20.8170 O   0  0  0  0  0  0  0  0  0  0  0  0
   11.5106  -17.7781   21.5118 C   0  0  0  0  0  0  0  0  0  0  0  0
   11.4493  -16.3905   20.8924 C   0  0  2  0  0  0  0  0  0  0  0  0
   10.0420  -16.1364   20.5906 N   0  0  0  0  0  0  0  0  0  0  0  0
   12.2800  -16.2854   19.6733 C   0  0  0  0  0  0  0  0  0  0  0  0
   13.5117  -16.0569   19.7660 O   0  0  0  0  0  0  0  0  0  0  0  0
   11.7611  -16.4299   18.3912 O   0  0  0  0  0  0  0  0  0  0  0  0
  2  3  1  0
  2  1  1  1
  3  4  1  0
  4  5  2  0
  6  5  1  0
  7  6  1  0
  8  7  2  0
  9  8  1  0
 10  9  2  0
 10 11  1  0
 11 12  2  0
 12  7  1  0
 12  4  1  0
 13  2  1  0
 13 14  2  0
 15 13  1  0
 16 22  1  0
 16 15  1  0
 16 17  1  1
 18 17  1  0
 19 18  1  0
 20 21  1  0
 20 19  1  0
 22 29  1  0
 23 22  2  0
 24 25  1  0
 25 26  2  0
 27 25  1  0
 28 27  1  6
 28 30  1  0
 29 28  1  0
 30 31  2  0
 30 32  1  0
M  END
$$$$
