QCA.pdb
     RDKit          3D

 21 20  0  0  1  0  0  0  0  0999 V2000
   17.9465  -12.8015  -15.8587 N   0  0  0  0  0  0  0  0  0  0  0  0
   17.9341  -11.8479  -16.9056 C   0  0  0  0  0  0  0  0  0  0  0  0
   18.6274  -12.0275  -17.9298 O   0  0  0  0  0  0  0  0  0  0  0  0
   17.1121  -10.6107  -16.8396 C   0  0  0  0  0  0  0  0  0  0  0  0
   17.5276   -9.7150  -15.7254 C   0  0  0  0  0  0  0  0  0  0  0  0
   18.4627   -8.6430  -16.2451 C   0  0  2  0  0  0  0  0  0  0  0  0
   19.7061   -9.2120  -16.7022 N   0  0  0  0  0  0  0  0  0  0  0  0
   18.7344   -7.5842  -15.2575 C   0  0  0  0  0  0  0  0  0  0  0  0
   17.7770   -7.0104  -14.6852 O   0  0  0  0  0  0  0  0  0  0  0  0
   20.0559   -7.2147  -14.9559 N   0  0  0  0  0  0  0  0  0  0  0  0
   20.4055   -6.1624  -14.0186 C   0  0  1  0  0  0  0  0  0  0  0  0
   21.6374   -6.6153  -13.2662 C   0  0  0  0  0  0  0  0  0  0  0  0
   22.3931   -5.2458  -12.3638 S   0  0  0  0  0  0  0  0  0  0  0  0
   20.6428   -4.9231  -14.7743 C   0  0  0  0  0  0  0  0  0  0  0  0
   21.4359   -4.9107  -15.7440 O   0  0  0  0  0  0  0  0  0  0  0  0
   18.8970   -1.6728  -15.0214 C   0  0  0  0  0  0  0  0  0  0  0  0
   20.1407   -2.5250  -15.2063 C   0  0  2  0  0  0  0  0  0  0  0  0
   19.9783   -3.7274  -14.4163 N   0  0  0  0  0  0  0  0  0  0  0  0
   21.3171   -1.7616  -14.7323 C   0  0  0  0  0  0  0  0  0  0  0  0
   21.8156   -2.0122  -13.6160 O   0  0  0  0  0  0  0  0  0  0  0  0
   21.8795   -0.7679  -15.5085 O   0  0  0  0  0  0  0  0  0  0  0  0
  2  1  1  0
  2  3  2  0
  4  5  1  0
  4  2  1  0
  6  8  1  0
  6  5  1  0
  6  7  1  1
  8 10  1  0
  9  8  2  0
 10 11  1  0
 11 14  1  0
 12 13  1  0
 11 12  1  6
 14 15  2  0
 14 18  1  0
 17 16  1  1
 17 19  1  0
 18 17  1  0
 19 21  1  0
 20 19  2  0
M  END
$$$$
