QCA.pdb
     RDKit          3D

 21 20  0  0  1  0  0  0  0  0999 V2000
   25.1445  -12.1905  -16.2150 N   0  0  0  0  0  0  0  0  0  0  0  0
   24.9025  -13.5820  -16.1128 C   0  0  0  0  0  0  0  0  0  0  0  0
   25.7481  -14.3310  -15.5780 O   0  0  0  0  0  0  0  0  0  0  0  0
   23.6556  -14.2084  -16.6262 C   0  0  0  0  0  0  0  0  0  0  0  0
   22.7089  -13.2055  -17.1870 C   0  0  0  0  0  0  0  0  0  0  0  0
   21.3386  -13.3852  -16.5675 C   0  0  2  0  0  0  0  0  0  0  0  0
   20.7855  -14.6769  -16.8901 N   0  0  0  0  0  0  0  0  0  0  0  0
   20.3874  -12.3277  -16.9511 C   0  0  0  0  0  0  0  0  0  0  0  0
   19.9016  -12.3211  -18.1075 O   0  0  0  0  0  0  0  0  0  0  0  0
   20.0242  -11.3297  -16.0313 N   0  0  0  0  0  0  0  0  0  0  0  0
   19.0131  -10.3210  -16.2927 C   0  0  1  0  0  0  0  0  0  0  0  0
   17.8748  -10.5575  -15.3246 C   0  0  0  0  0  0  0  0  0  0  0  0
   17.0248  -12.1102  -15.6812 S   0  0  0  0  0  0  0  0  0  0  0  0
   19.6214   -8.9932  -16.1183 C   0  0  0  0  0  0  0  0  0  0  0  0
   20.3796   -8.7628  -15.1480 O   0  0  0  0  0  0  0  0  0  0  0  0
   19.6259   -5.8329  -18.1265 C   0  0  0  0  0  0  0  0  0  0  0  0
   19.9985   -6.6657  -16.9120 C   0  0  2  0  0  0  0  0  0  0  0  0
   19.3583   -7.9577  -17.0444 N   0  0  0  0  0  0  0  0  0  0  0  0
   19.5096   -5.9797  -15.6948 C   0  0  0  0  0  0  0  0  0  0  0  0
   18.4104   -6.2984  -15.1972 O   0  0  0  0  0  0  0  0  0  0  0  0
   20.2531   -4.9841  -15.0928 O   0  0  0  0  0  0  0  0  0  0  0  0
  2  1  1  0
  2  3  2  0
  4  5  1  0
  4  2  1  0
  6  8  1  0
  6  5  1  0
  6  7  1  6
  8 10  1  0
  9  8  2  0
 10 11  1  0
 11 14  1  0
 12 13  1  0
 11 12  1  1
 14 15  2  0
 14 18  1  0
 17 16  1  6
 17 19  1  0
 18 17  1  0
 19 21  1  0
 20 19  2  0
M  END
$$$$
