QCA.pdb
     RDKit          3D

 21 20  0  0  1  0  0  0  0  0999 V2000
   18.3629  -11.9845  -16.7802 N   0  0  0  0  0  0  0  0  0  0  0  0
   19.4435  -11.6592  -17.6356 C   0  0  0  0  0  0  0  0  0  0  0  0
   19.6553  -12.3323  -18.6671 O   0  0  0  0  0  0  0  0  0  0  0  0
   20.3612  -10.5235  -17.3548 C   0  0  0  0  0  0  0  0  0  0  0  0
   19.9519   -9.7509  -16.1498 C   0  0  0  0  0  0  0  0  0  0  0  0
   20.9152   -8.6054  -15.9183 C   0  0  2  0  0  0  0  0  0  0  0  0
   22.1831   -9.0817  -15.4241 N   0  0  0  0  0  0  0  0  0  0  0  0
   20.3823   -7.5765  -15.0086 C   0  0  0  0  0  0  0  0  0  0  0  0
   19.8805   -7.9195  -13.9114 O   0  0  0  0  0  0  0  0  0  0  0  0
   20.4322   -6.2180  -15.3637 N   0  0  0  0  0  0  0  0  0  0  0  0
   20.0805   -5.1352  -14.4627 C   0  0  1  0  0  0  0  0  0  0  0  0
   21.0720   -5.1549  -13.3202 C   0  0  0  0  0  0  0  0  0  0  0  0
   22.7562   -4.8806  -13.9108 S   0  0  0  0  0  0  0  0  0  0  0  0
   20.1245   -3.8705  -15.2122 C   0  0  0  0  0  0  0  0  0  0  0  0
   21.1075   -3.5945  -15.9382 O   0  0  0  0  0  0  0  0  0  0  0  0
   17.7409   -1.0276  -15.7052 C   0  0  0  0  0  0  0  0  0  0  0  0
   19.0962   -1.6975  -15.8527 C   0  0  2  0  0  0  0  0  0  0  0  0
   19.0568   -2.9477  -15.1235 N   0  0  0  0  0  0  0  0  0  0  0  0
   20.1326   -0.8089  -15.2803 C   0  0  0  0  0  0  0  0  0  0  0  0
   20.4014    0.2758  -15.8358 O   0  0  0  0  0  0  0  0  0  0  0  0
   20.8147   -1.1598  -14.1322 O   0  0  0  0  0  0  0  0  0  0  0  0
  2  1  1  0
  2  3  2  0
  4  5  1  0
  4  2  1  0
  6  8  1  0
  6  5  1  0
  6  7  1  1
  8 10  1  0
  9  8  2  0
 10 11  1  0
 11 14  1  0
 12 13  1  0
 11 12  1  1
 14 15  2  0
 14 18  1  0
 17 16  1  1
 17 19  1  0
 18 17  1  0
 19 21  1  0
 20 19  2  0
M  END
$$$$
