QCA.pdb
     RDKit          3D

 21 20  0  0  1  0  0  0  0  0999 V2000
   19.6858  -11.6338  -19.4295 N   0  0  0  0  0  0  0  0  0  0  0  0
   18.5564  -10.7854  -19.5297 C   0  0  0  0  0  0  0  0  0  0  0  0
   17.5671  -11.1310  -20.2108 O   0  0  0  0  0  0  0  0  0  0  0  0
   18.4927   -9.4678  -18.8435 C   0  0  0  0  0  0  0  0  0  0  0  0
   19.8114   -9.0550  -18.2894 C   0  0  0  0  0  0  0  0  0  0  0  0
   19.8571   -9.3339  -16.8015 C   0  0  2  0  0  0  0  0  0  0  0  0
   18.8038  -10.2359  -16.4071 N   0  0  0  0  0  0  0  0  0  0  0  0
   19.7970   -8.1113  -15.9819 C   0  0  0  0  0  0  0  0  0  0  0  0
   18.6954   -7.7287  -15.5199 O   0  0  0  0  0  0  0  0  0  0  0  0
   20.9633   -7.3740  -15.7172 N   0  0  0  0  0  0  0  0  0  0  0  0
   20.9894   -6.1676  -14.9098 C   0  0  1  0  0  0  0  0  0  0  0  0
   22.1381   -6.2991  -13.9340 C   0  0  0  0  0  0  0  0  0  0  0  0
   22.3261   -4.8035  -12.9397 S   0  0  0  0  0  0  0  0  0  0  0  0
   21.1515   -5.0106  -15.8031 C   0  0  0  0  0  0  0  0  0  0  0  0
   22.0753   -4.9838  -16.6490 O   0  0  0  0  0  0  0  0  0  0  0  0
   19.1208   -1.9547  -16.5047 C   0  0  0  0  0  0  0  0  0  0  0  0
   20.3742   -2.8015  -16.6429 C   0  0  2  0  0  0  0  0  0  0  0  0
   20.2661   -3.9114  -15.7194 N   0  0  0  0  0  0  0  0  0  0  0  0
   21.5512   -1.9709  -16.3021 C   0  0  0  0  0  0  0  0  0  0  0  0
   22.1444   -2.1434  -15.2177 O   0  0  0  0  0  0  0  0  0  0  0  0
   22.0106   -0.9992  -17.1688 O   0  0  0  0  0  0  0  0  0  0  0  0
  2  1  1  0
  2  3  2  0
  4  5  1  0
  4  2  1  0
  6  8  1  0
  6  5  1  0
  6  7  1  1
  8 10  1  0
  9  8  2  0
 10 11  1  0
 11 14  1  0
 12 13  1  0
 11 12  1  1
 14 15  2  0
 14 18  1  0
 17 16  1  1
 17 19  1  0
 18 17  1  0
 19 21  1  0
 20 19  2  0
M  END
$$$$
