QCA.pdb
     RDKit          3D

 21 20  0  0  1  0  0  0  0  0999 V2000
   18.9368  -13.2513  -15.6233 N   0  0  0  0  0  0  0  0  0  0  0  0
   18.4045  -12.4438  -16.6576 C   0  0  0  0  0  0  0  0  0  0  0  0
   18.0077  -12.9641  -17.7224 O   0  0  0  0  0  0  0  0  0  0  0  0
   18.2935  -10.9665  -16.5308 C   0  0  0  0  0  0  0  0  0  0  0  0
   18.6976  -10.4832  -15.1819 C   0  0  0  0  0  0  0  0  0  0  0  0
   18.5533   -8.9775  -15.1076 C   0  0  2  0  0  0  0  0  0  0  0  0
   19.3740   -8.3251  -16.0972 N   0  0  0  0  0  0  0  0  0  0  0  0
   18.8569   -8.4326  -13.7730 C   0  0  0  0  0  0  0  0  0  0  0  0
   18.3407   -8.9574  -12.7574 O   0  0  0  0  0  0  0  0  0  0  0  0
   19.7180   -7.3312  -13.6332 N   0  0  0  0  0  0  0  0  0  0  0  0
   20.0648   -6.7353  -12.3554 C   0  0  1  0  0  0  0  0  0  0  0  0
   21.4437   -6.1288  -12.4966 C   0  0  0  0  0  0  0  0  0  0  0  0
   21.9120   -5.2160  -11.0106 S   0  0  0  0  0  0  0  0  0  0  0  0
   19.0484   -5.7271  -12.0184 C   0  0  0  0  0  0  0  0  0  0  0  0
   18.7232   -4.8483  -12.8499 O   0  0  0  0  0  0  0  0  0  0  0  0
   16.5909   -5.3357   -9.2541 C   0  0  0  0  0  0  0  0  0  0  0  0
   17.3751   -4.7887  -10.4344 C   0  0  2  0  0  0  0  0  0  0  0  0
   18.4237   -5.7360  -10.7500 N   0  0  0  0  0  0  0  0  0  0  0  0
   17.9663   -3.4865  -10.0523 C   0  0  0  0  0  0  0  0  0  0  0  0
   19.2042   -3.3702   -9.9443 O   0  0  0  0  0  0  0  0  0  0  0  0
   17.1673   -2.3866   -9.8106 O   0  0  0  0  0  0  0  0  0  0  0  0
  2  1  1  0
  2  3  2  0
  4  5  1  0
  4  2  1  0
  6  8  1  0
  6  5  1  0
  6  7  1  6
  8 10  1  0
  9  8  2  0
 10 11  1  0
 11 14  1  0
 12 13  1  0
 11 12  1  6
 14 15  2  0
 14 18  1  0
 17 16  1  1
 17 19  1  0
 18 17  1  0
 19 21  1  0
 20 19  2  0
M  END
$$$$
