QCA.pdb
     RDKit          3D

 21 20  0  0  1  0  0  0  0  0999 V2000
   21.1046  -20.8122  -13.0497 N   0  0  0  0  0  0  0  0  0  0  0  0
   21.3665  -21.7753  -12.0452 C   0  0  0  0  0  0  0  0  0  0  0  0
   20.5042  -22.6315  -11.7530 O   0  0  0  0  0  0  0  0  0  0  0  0
   22.6544  -21.8152  -11.3033 C   0  0  0  0  0  0  0  0  0  0  0  0
   23.5665  -20.7055  -11.6946 C   0  0  0  0  0  0  0  0  0  0  0  0
   24.2211  -21.0187  -13.0239 C   0  0  2  0  0  0  0  0  0  0  0  0
   25.1647  -22.1016  -12.8986 N   0  0  0  0  0  0  0  0  0  0  0  0
   24.8826  -19.8514  -13.6321 C   0  0  0  0  0  0  0  0  0  0  0  0
   24.2895  -18.7464  -13.6569 O   0  0  0  0  0  0  0  0  0  0  0  0
   26.1694  -19.9700  -14.1835 N   0  0  0  0  0  0  0  0  0  0  0  0
   26.9247  -18.8508  -14.7173 C   0  0  1  0  0  0  0  0  0  0  0  0
   28.3934  -19.1853  -14.5757 C   0  0  0  0  0  0  0  0  0  0  0  0
   28.8063  -19.6079  -12.8693 S   0  0  0  0  0  0  0  0  0  0  0  0
   26.5352  -18.6513  -16.1215 C   0  0  0  0  0  0  0  0  0  0  0  0
   26.6501  -19.5818  -16.9524 O   0  0  0  0  0  0  0  0  0  0  0  0
   24.7306  -15.9806  -17.9855 C   0  0  0  0  0  0  0  0  0  0  0  0
   25.6276  -17.2052  -17.9311 C   0  0  2  0  0  0  0  0  0  0  0  0
   26.0254  -17.4052  -16.5533 N   0  0  0  0  0  0  0  0  0  0  0  0
   26.8204  -16.9609  -18.7730 C   0  0  0  0  0  0  0  0  0  0  0  0
   27.8617  -16.5004  -18.2621 O   0  0  0  0  0  0  0  0  0  0  0  0
   26.8037  -17.2352  -20.1262 O   0  0  0  0  0  0  0  0  0  0  0  0
  2  1  1  0
  2  3  2  0
  4  5  1  0
  4  2  1  0
  6  8  1  0
  6  5  1  0
  6  7  1  1
  8 10  1  0
  9  8  2  0
 10 11  1  0
 11 14  1  0
 12 13  1  0
 11 12  1  6
 14 15  2  0
 14 18  1  0
 17 16  1  1
 17 19  1  0
 18 17  1  0
 19 21  1  0
 20 19  2  0
M  END
$$$$
