QCA.pdb
     RDKit          3D

 21 20  0  0  1  0  0  0  0  0999 V2000
   21.5340  -13.8357  -16.6173 N   0  0  0  0  0  0  0  0  0  0  0  0
   20.6814  -13.7079  -17.7407 C   0  0  0  0  0  0  0  0  0  0  0  0
   20.6352  -14.6118  -18.6027 O   0  0  0  0  0  0  0  0  0  0  0  0
   19.8163  -12.5163  -17.9465 C   0  0  0  0  0  0  0  0  0  0  0  0
   19.9661  -11.5141  -16.8558 C   0  0  0  0  0  0  0  0  0  0  0  0
   19.8579  -10.1137  -17.4220 C   0  0  2  0  0  0  0  0  0  0  0  0
   20.9558   -9.8238  -18.3105 N   0  0  0  0  0  0  0  0  0  0  0  0
   19.7731   -9.0742  -16.3816 C   0  0  0  0  0  0  0  0  0  0  0  0
   18.7451   -8.9950  -15.6673 O   0  0  0  0  0  0  0  0  0  0  0  0
   20.8340   -8.1737  -16.1874 N   0  0  0  0  0  0  0  0  0  0  0  0
   20.8227   -7.1160  -15.1928 C   0  0  1  0  0  0  0  0  0  0  0  0
   22.1580   -7.1464  -14.4823 C   0  0  0  0  0  0  0  0  0  0  0  0
   22.3127   -5.7720  -13.3214 S   0  0  0  0  0  0  0  0  0  0  0  0
   20.5879   -5.8347  -15.8758 C   0  0  0  0  0  0  0  0  0  0  0  0
   21.2060   -5.5515  -16.9280 O   0  0  0  0  0  0  0  0  0  0  0  0
   18.0418   -3.1442  -15.5535 C   0  0  0  0  0  0  0  0  0  0  0  0
   19.3765   -3.6690  -16.0539 C   0  0  2  0  0  0  0  0  0  0  0  0
   19.6606   -4.9039  -15.3534 N   0  0  0  0  0  0  0  0  0  0  0  0
   20.4246   -2.6660  -15.7589 C   0  0  0  0  0  0  0  0  0  0  0  0
   21.1736   -2.8171  -14.7722 O   0  0  0  0  0  0  0  0  0  0  0  0
   20.5917   -1.5553  -16.5620 O   0  0  0  0  0  0  0  0  0  0  0  0
  2  1  1  0
  2  3  2  0
  4  5  1  0
  4  2  1  0
  6  8  1  0
  6  5  1  0
  6  7  1  1
  8 10  1  0
  9  8  2  0
 10 11  1  0
 11 14  1  0
 12 13  1  0
 11 12  1  6
 14 15  2  0
 14 18  1  0
 17 16  1  1
 17 19  1  0
 18 17  1  0
 19 21  1  0
 20 19  2  0
M  END
$$$$
