QCA.pdb
     RDKit          3D

 21 20  0  0  1  0  0  0  0  0999 V2000
   20.0044  -23.1872  -14.3538 N   0  0  0  0  0  0  0  0  0  0  0  0
   20.5571  -22.3494  -13.3549 C   0  0  0  0  0  0  0  0  0  0  0  0
   19.8999  -21.3854  -12.9066 O   0  0  0  0  0  0  0  0  0  0  0  0
   21.9191  -22.5703  -12.8011 C   0  0  0  0  0  0  0  0  0  0  0  0
   22.8011  -21.3843  -12.9801 C   0  0  0  0  0  0  0  0  0  0  0  0
   23.5337  -21.4798  -14.3021 C   0  0  2  0  0  0  0  0  0  0  0  0
   24.4844  -22.5636  -14.2948 N   0  0  0  0  0  0  0  0  0  0  0  0
   24.2112  -20.2273  -14.6796 C   0  0  0  0  0  0  0  0  0  0  0  0
   23.5840  -19.1425  -14.6238 O   0  0  0  0  0  0  0  0  0  0  0  0
   25.5513  -20.2424  -15.1014 N   0  0  0  0  0  0  0  0  0  0  0  0
   26.2833  -19.0556  -15.5060 C   0  0  1  0  0  0  0  0  0  0  0  0
   27.7334  -19.2663  -15.1298 C   0  0  0  0  0  0  0  0  0  0  0  0
   27.9487  -19.2807  -13.3370 S   0  0  0  0  0  0  0  0  0  0  0  0
   26.1084  -18.8696  -16.9544 C   0  0  0  0  0  0  0  0  0  0  0  0
   26.3097  -19.8186  -17.7471 O   0  0  0  0  0  0  0  0  0  0  0  0
   24.8025  -16.1060  -19.1017 C   0  0  0  0  0  0  0  0  0  0  0  0
   25.5182  -17.4299  -18.8957 C   0  0  2  0  0  0  0  0  0  0  0  0
   25.7103  -17.6157  -17.4727 N   0  0  0  0  0  0  0  0  0  0  0  0
   26.8289  -17.3756  -19.5816 C   0  0  0  0  0  0  0  0  0  0  0  0
   27.8555  -17.0659  -18.9431 O   0  0  0  0  0  0  0  0  0  0  0  0
   26.9395  -17.6638  -20.9274 O   0  0  0  0  0  0  0  0  0  0  0  0
  2  1  1  0
  2  3  2  0
  4  5  1  0
  4  2  1  0
  6  8  1  0
  6  5  1  0
  6  7  1  1
  8 10  1  0
  9  8  2  0
 10 11  1  0
 11 14  1  0
 12 13  1  0
 11 12  1  6
 14 15  2  0
 14 18  1  0
 17 16  1  1
 17 19  1  0
 18 17  1  0
 19 21  1  0
 20 19  2  0
M  END
$$$$
