QCA.pdb
     RDKit          3D

 21 20  0  0  1  0  0  0  0  0999 V2000
   19.3258  -15.6267  -16.1698 N   0  0  0  0  0  0  0  0  0  0  0  0
   20.1915  -16.5752  -16.7665 C   0  0  0  0  0  0  0  0  0  0  0  0
   19.7618  -17.3581  -17.6408 O   0  0  0  0  0  0  0  0  0  0  0  0
   21.6258  -16.6847  -16.3902 C   0  0  0  0  0  0  0  0  0  0  0  0
   22.0028  -15.7260  -15.3154 C   0  0  0  0  0  0  0  0  0  0  0  0
   23.2904  -15.0182  -15.6822 C   0  0  2  0  0  0  0  0  0  0  0  0
   24.4254  -15.8972  -15.5482 N   0  0  0  0  0  0  0  0  0  0  0  0
   23.5182  -13.7903  -14.9008 C   0  0  0  0  0  0  0  0  0  0  0  0
   24.1576  -13.8512  -13.8234 O   0  0  0  0  0  0  0  0  0  0  0  0
   23.0234  -12.5561  -15.3547 N   0  0  0  0  0  0  0  0  0  0  0  0
   23.2107  -11.3023  -14.6470 C   0  0  1  0  0  0  0  0  0  0  0  0
   24.6883  -10.9790  -14.6794 C   0  0  0  0  0  0  0  0  0  0  0  0
   25.3094  -10.9262  -16.3741 S   0  0  0  0  0  0  0  0  0  0  0  0
   22.4027  -10.2667  -15.3088 C   0  0  0  0  0  0  0  0  0  0  0  0
   22.3636  -10.1918  -16.5587 O   0  0  0  0  0  0  0  0  0  0  0  0
   20.0436   -7.6129  -14.1359 C   0  0  0  0  0  0  0  0  0  0  0  0
   20.9289   -8.2663  -15.1832 C   0  0  2  0  0  0  0  0  0  0  0  0
   21.6583   -9.3405  -14.5424 N   0  0  0  0  0  0  0  0  0  0  0  0
   21.8732   -7.2546  -15.7084 C   0  0  0  0  0  0  0  0  0  0  0  0
   23.0391   -7.1997  -15.2665 O   0  0  0  0  0  0  0  0  0  0  0  0
   21.4860   -6.3613  -16.6875 O   0  0  0  0  0  0  0  0  0  0  0  0
  2  1  1  0
  2  3  2  0
  4  5  1  0
  4  2  1  0
  6  8  1  0
  6  5  1  0
  6  7  1  1
  8 10  1  0
  9  8  2  0
 10 11  1  0
 11 14  1  0
 12 13  1  0
 11 12  1  6
 14 15  2  0
 14 18  1  0
 17 16  1  1
 17 19  1  0
 18 17  1  0
 19 21  1  0
 20 19  2  0
M  END
$$$$
