QCA.pdb
     RDKit          3D

 21 20  0  0  1  0  0  0  0  0999 V2000
   16.2300  -12.5222  -14.3954 N   0  0  0  0  0  0  0  0  0  0  0  0
   15.7994  -13.0968  -13.1748 C   0  0  0  0  0  0  0  0  0  0  0  0
   15.6861  -14.3369  -13.0675 O   0  0  0  0  0  0  0  0  0  0  0  0
   15.4673  -12.2701  -11.9844 C   0  0  0  0  0  0  0  0  0  0  0  0
   15.6892  -10.8178  -12.2253 C   0  0  0  0  0  0  0  0  0  0  0  0
   15.3347  -10.0276  -10.9829 C   0  0  2  0  0  0  0  0  0  0  0  0
   13.9262  -10.1207  -10.6895 N   0  0  0  0  0  0  0  0  0  0  0  0
   15.7324   -8.6116  -11.0651 C   0  0  0  0  0  0  0  0  0  0  0  0
   14.9558   -7.7795  -11.5923 O   0  0  0  0  0  0  0  0  0  0  0  0
   16.9735   -8.1905  -10.5588 N   0  0  0  0  0  0  0  0  0  0  0  0
   17.4472   -6.8195  -10.6211 C   0  0  1  0  0  0  0  0  0  0  0  0
   17.6003   -6.3269   -9.1989 C   0  0  0  0  0  0  0  0  0  0  0  0
   16.0103   -6.2928   -8.3436 S   0  0  0  0  0  0  0  0  0  0  0  0
   18.7218   -6.7982  -11.3547 C   0  0  0  0  0  0  0  0  0  0  0  0
   19.6869   -7.5009  -10.9748 O   0  0  0  0  0  0  0  0  0  0  0  0
   19.8429   -5.2959  -14.5853 C   0  0  0  0  0  0  0  0  0  0  0  0
   20.1000   -6.0148  -13.2721 C   0  0  2  0  0  0  0  0  0  0  0  0
   18.8756   -5.9833  -12.4999 N   0  0  0  0  0  0  0  0  0  0  0  0
   21.1773   -5.3076  -12.5438 C   0  0  0  0  0  0  0  0  0  0  0  0
   20.8909   -4.4769  -11.6575 O   0  0  0  0  0  0  0  0  0  0  0  0
   22.5063   -5.5511  -12.8283 O   0  0  0  0  0  0  0  0  0  0  0  0
  2  1  1  0
  2  3  2  0
  4  5  1  0
  4  2  1  0
  6  8  1  0
  6  5  1  0
  6  7  1  6
  8 10  1  0
  9  8  2  0
 10 11  1  0
 11 14  1  0
 12 13  1  0
 11 12  1  1
 14 15  2  0
 14 18  1  0
 17 16  1  6
 17 19  1  0
 18 17  1  0
 19 21  1  0
 20 19  2  0
M  END
$$$$
