QCA.pdb
     RDKit          3D

 21 20  0  0  1  0  0  0  0  0999 V2000
   25.6700  -19.5635   -9.0525 N   0  0  0  0  0  0  0  0  0  0  0  0
   26.7842  -20.4288   -9.1750 C   0  0  0  0  0  0  0  0  0  0  0  0
   27.4809  -20.7045   -8.1747 O   0  0  0  0  0  0  0  0  0  0  0  0
   27.1728  -21.0401  -10.4736 C   0  0  0  0  0  0  0  0  0  0  0  0
   26.3675  -20.5132  -11.6095 C   0  0  0  0  0  0  0  0  0  0  0  0
   25.1228  -21.3556  -11.7954 C   0  0  2  0  0  0  0  0  0  0  0  0
   25.3043  -22.6807  -11.2568 N   0  0  0  0  0  0  0  0  0  0  0  0
   24.6899  -21.4457  -13.2006 C   0  0  0  0  0  0  0  0  0  0  0  0
   24.7307  -22.5512  -13.7918 O   0  0  0  0  0  0  0  0  0  0  0  0
   24.2344  -20.3030  -13.8794 N   0  0  0  0  0  0  0  0  0  0  0  0
   23.6149  -20.3376  -15.1920 C   0  0  1  0  0  0  0  0  0  0  0  0
   22.2586  -20.9897  -15.0370 C   0  0  0  0  0  0  0  0  0  0  0  0
   21.0484  -19.8304  -14.3647 S   0  0  0  0  0  0  0  0  0  0  0  0
   23.5125  -18.9601  -15.6972 C   0  0  0  0  0  0  0  0  0  0  0  0
   23.0244  -18.0545  -14.9822 O   0  0  0  0  0  0  0  0  0  0  0  0
   24.8595  -17.1694  -18.6701 C   0  0  0  0  0  0  0  0  0  0  0  0
   23.9205  -17.2743  -17.4807 C   0  0  2  0  0  0  0  0  0  0  0  0
   23.9639  -18.6387  -16.9980 N   0  0  0  0  0  0  0  0  0  0  0  0
   22.5492  -16.9365  -17.9241 C   0  0  0  0  0  0  0  0  0  0  0  0
   21.7582  -17.8437  -18.2540 O   0  0  0  0  0  0  0  0  0  0  0  0
   22.1233  -15.6243  -17.9804 O   0  0  0  0  0  0  0  0  0  0  0  0
  2  1  1  0
  2  3  2  0
  4  5  1  0
  4  2  1  0
  6  8  1  0
  6  5  1  0
  6  7  1  6
  8 10  1  0
  9  8  2  0
 10 11  1  0
 11 14  1  0
 12 13  1  0
 11 12  1  1
 14 15  2  0
 14 18  1  0
 17 16  1  6
 17 19  1  0
 18 17  1  0
 19 21  1  0
 20 19  2  0
M  END
$$$$
