QCA.pdb
     RDKit          3D

 21 20  0  0  1  0  0  0  0  0999 V2000
   18.1743  -11.8024  -15.0283 N   0  0  0  0  0  0  0  0  0  0  0  0
   17.9931  -11.5242  -16.4048 C   0  0  0  0  0  0  0  0  0  0  0  0
   17.5535  -12.4062  -17.1735 O   0  0  0  0  0  0  0  0  0  0  0  0
   18.3103  -10.1957  -16.9924 C   0  0  0  0  0  0  0  0  0  0  0  0
   18.8135   -9.2331  -15.9741 C   0  0  0  0  0  0  0  0  0  0  0  0
   19.0053   -7.8687  -16.6028 C   0  0  2  0  0  0  0  0  0  0  0  0
   20.0588   -7.8909  -17.5868 N   0  0  0  0  0  0  0  0  0  0  0  0
   19.2707   -6.8089  -15.6147 C   0  0  0  0  0  0  0  0  0  0  0  0
   18.4887   -6.6548  -14.6462 O   0  0  0  0  0  0  0  0  0  0  0  0
   20.3911   -5.9722  -15.7523 N   0  0  0  0  0  0  0  0  0  0  0  0
   20.7799   -4.9763  -14.7699 C   0  0  1  0  0  0  0  0  0  0  0  0
   22.0919   -5.4241  -14.1641 C   0  0  0  0  0  0  0  0  0  0  0  0
   21.8868   -5.8917  -12.4321 S   0  0  0  0  0  0  0  0  0  0  0  0
   20.8972   -3.6748  -15.4448 C   0  0  0  0  0  0  0  0  0  0  0  0
   21.6374   -3.5417  -16.4468 O   0  0  0  0  0  0  0  0  0  0  0  0
   19.1879   -0.3764  -15.1614 C   0  0  0  0  0  0  0  0  0  0  0  0
   20.3655   -1.2473  -15.5639 C   0  0  2  0  0  0  0  0  0  0  0  0
   20.1755   -2.5549  -14.9715 N   0  0  0  0  0  0  0  0  0  0  0  0
   21.6107   -0.6337  -15.0497 C   0  0  0  0  0  0  0  0  0  0  0  0
   22.0767   -0.9946  -13.9497 O   0  0  0  0  0  0  0  0  0  0  0  0
   22.2736    0.3398  -15.7703 O   0  0  0  0  0  0  0  0  0  0  0  0
  2  1  1  0
  2  3  2  0
  4  5  1  0
  4  2  1  0
  6  8  1  0
  6  5  1  0
  6  7  1  6
  8 10  1  0
  9  8  2  0
 10 11  1  0
 11 14  1  0
 12 13  1  0
 11 12  1  6
 14 15  2  0
 14 18  1  0
 17 16  1  1
 17 19  1  0
 18 17  1  0
 19 21  1  0
 20 19  2  0
M  END
$$$$
