QCA.pdb
     RDKit          3D

 21 20  0  0  1  0  0  0  0  0999 V2000
   18.8991   -8.6372  -18.8910 N   0  0  0  0  0  0  0  0  0  0  0  0
   19.3599   -9.9763  -18.8899 C   0  0  0  0  0  0  0  0  0  0  0  0
   19.3029  -10.6631  -19.9326 O   0  0  0  0  0  0  0  0  0  0  0  0
   19.9230  -10.6187  -17.6729 C   0  0  0  0  0  0  0  0  0  0  0  0
   19.8407   -9.7346  -16.4779 C   0  0  0  0  0  0  0  0  0  0  0  0
   21.0664   -8.8481  -16.4053 C   0  0  2  0  0  0  0  0  0  0  0  0
   22.2667   -9.6298  -16.2409 N   0  0  0  0  0  0  0  0  0  0  0  0
   20.9844   -7.8339  -15.3400 C   0  0  0  0  0  0  0  0  0  0  0  0
   21.2313   -8.1596  -14.1541 O   0  0  0  0  0  0  0  0  0  0  0  0
   20.6309   -6.5087  -15.6450 N   0  0  0  0  0  0  0  0  0  0  0  0
   20.6408   -5.4277  -14.6759 C   0  0  1  0  0  0  0  0  0  0  0  0
   22.0629   -5.2720  -14.1837 C   0  0  0  0  0  0  0  0  0  0  0  0
   22.2402   -3.8019  -13.1503 S   0  0  0  0  0  0  0  0  0  0  0  0
   20.1451   -4.2078  -15.3312 C   0  0  0  0  0  0  0  0  0  0  0  0
   20.6978   -3.7725  -16.3678 O   0  0  0  0  0  0  0  0  0  0  0  0
   17.1680   -2.0058  -14.8715 C   0  0  0  0  0  0  0  0  0  0  0  0
   18.5458   -2.3050  -15.4367 C   0  0  2  0  0  0  0  0  0  0  0  0
   19.0368   -3.5090  -14.7997 N   0  0  0  0  0  0  0  0  0  0  0  0
   19.4436   -1.1680  -15.1326 C   0  0  0  0  0  0  0  0  0  0  0  0
   20.3787   -1.3110  -14.3185 O   0  0  0  0  0  0  0  0  0  0  0  0
   19.2654    0.0601  -15.7379 O   0  0  0  0  0  0  0  0  0  0  0  0
  2  1  1  0
  2  3  2  0
  4  5  1  0
  4  2  1  0
  6  8  1  0
  6  5  1  0
  6  7  1  1
  8 10  1  0
  9  8  2  0
 10 11  1  0
 11 14  1  0
 12 13  1  0
 11 12  1  6
 14 15  2  0
 14 18  1  0
 17 16  1  1
 17 19  1  0
 18 17  1  0
 19 21  1  0
 20 19  2  0
M  END
$$$$
