LRF.pdb
     RDKit          3D

 31 31  0  0  1  0  0  0  0  0999 V2000
    8.3490  -12.1159   20.6554 C   0  0  0  0  0  0  0  0  0  0  0  0
    8.6963  -13.3614   19.8982 C   0  0  2  0  0  0  0  0  0  0  0  0
    9.4398  -13.0394   18.6375 C   0  0  0  0  0  0  0  0  0  0  0  0
    7.5251  -14.2688   19.6290 C   0  0  0  0  0  0  0  0  0  0  0  0
    7.9035  -15.7343   19.5984 C   0  0  2  0  0  0  0  0  0  0  0  0
    7.3212  -16.4512   18.5036 N   0  0  0  0  0  0  0  0  0  0  0  0
    7.5745  -16.3149   20.9105 C   0  0  0  0  0  0  0  0  0  0  0  0
    6.3404  -16.3852   21.2218 O   0  0  0  0  0  0  0  0  0  0  0  0
    6.4843  -21.7025   26.0354 N   0  0  0  0  0  0  0  0  0  0  0  0
    5.7033  -21.8511   24.8587 C   0  0  0  0  0  0  0  0  0  0  0  0
    5.1824  -23.0199   24.5976 N   0  0  0  0  0  0  0  0  0  0  0  0
    5.4721  -20.7923   23.9693 N   0  0  0  0  0  0  0  0  0  0  0  0
    6.1135  -19.5185   24.1573 C   0  0  0  0  0  0  0  0  0  0  0  0
    7.6228  -19.6176   24.1331 C   0  0  0  0  0  0  0  0  0  0  0  0
    8.1904  -18.9815   22.8724 C   0  0  0  0  0  0  0  0  0  0  0  0
    8.0537  -17.4807   23.0359 C   0  0  2  0  0  0  0  0  0  0  0  0
    8.5030  -16.8025   21.8583 N   0  0  0  0  0  0  0  0  0  0  0  0
    8.8269  -17.0054   24.2286 C   0  0  0  0  0  0  0  0  0  0  0  0
   10.0751  -16.9910   24.1653 O   0  0  0  0  0  0  0  0  0  0  0  0
    4.5522  -23.1519   23.7860 N   0  0  0  0  0  0  0  0  0  0  0  0
    8.1832  -16.5806   25.4026 C   0  0  2  0  0  0  0  0  0  0  0  0
    8.8188  -16.1487   26.6270 C   0  0  0  0  0  0  0  0  0  0  0  0
    7.8904  -15.2569   27.3639 C   0  0  0  0  0  0  0  0  0  0  0  0
    7.5744  -13.9806   26.7085 C   0  0  0  0  0  0  0  0  0  0  0  0
    6.3371  -13.7663   26.1591 C   0  0  0  0  0  0  0  0  0  0  0  0
    6.0397  -12.5503   25.5374 C   0  0  0  0  0  0  0  0  0  0  0  0
    7.0293  -11.5881   25.4998 C   0  0  0  0  0  0  0  0  0  0  0  0
    8.2905  -11.7679   26.0436 C   0  0  0  0  0  0  0  0  0  0  0  0
    8.5362  -12.9988   26.6525 C   0  0  0  0  0  0  0  0  0  0  0  0
    9.4183  -17.2399   27.4205 O   0  0  0  0  0  0  0  0  0  0  0  0
    9.1471  -18.5804   27.1844 O   0  0  0  0  0  0  0  0  0  0  0  0
  2  1  1  6
  3  2  1  0
  4  5  1  0
  4  2  1  0
  5  6  1  6
  7  5  1  0
  7  8  2  0
  9 10  1  0
 10 12  1  0
 11 10  2  0
 12 13  1  0
 13 14  1  0
 14 15  1  0
 16 15  1  6
 16 17  1  0
 17  7  1  0
 18 16  1  0
 19 18  2  0
 20 18  1  0
 21 20  1  0
 21 22  1  6
 22 23  1  0
 23 28  2  0
 24 25  2  0
 24 23  1  0
 25 26  1  0
 26 27  2  0
 28 27  1  0
 29 21  1  0
 30 29  1  0
 31 29  2  0
M  END
$$$$
