LRF.pdb
     RDKit          3D

 31 31  0  0  1  0  0  0  0  0999 V2000
    8.9574  -12.1962   19.4207 C   0  0  0  0  0  0  0  0  0  0  0  0
    7.8361  -13.1887   19.4729 C   0  0  2  0  0  0  0  0  0  0  0  0
    6.5147  -12.5268   19.2245 C   0  0  0  0  0  0  0  0  0  0  0  0
    7.8058  -14.0230   20.7261 C   0  0  0  0  0  0  0  0  0  0  0  0
    9.1522  -14.6213   21.0744 C   0  0  2  0  0  0  0  0  0  0  0  0
    9.7222  -15.3986   20.0149 N   0  0  0  0  0  0  0  0  0  0  0  0
    9.0021  -15.3757   22.3294 C   0  0  0  0  0  0  0  0  0  0  0  0
    8.1806  -14.9160   23.1889 O   0  0  0  0  0  0  0  0  0  0  0  0
   14.0632  -20.4890   21.2567 N   0  0  0  0  0  0  0  0  0  0  0  0
   12.8416  -19.9039   20.8300 C   0  0  0  0  0  0  0  0  0  0  0  0
   12.8822  -18.7578   20.2050 N   0  0  0  0  0  0  0  0  0  0  0  0
   11.5973  -20.5093   21.0548 N   0  0  0  0  0  0  0  0  0  0  0  0
   10.8761  -20.2792   22.2781 C   0  0  0  0  0  0  0  0  0  0  0  0
   10.7100  -18.8078   22.5878 C   0  0  0  0  0  0  0  0  0  0  0  0
   10.0202  -18.6081   23.9297 C   0  0  0  0  0  0  0  0  0  0  0  0
    9.4615  -17.1990   23.9327 C   0  0  2  0  0  0  0  0  0  0  0  0
    9.6862  -16.5651   22.6693 N   0  0  0  0  0  0  0  0  0  0  0  0
   10.0784  -16.3872   25.0313 C   0  0  0  0  0  0  0  0  0  0  0  0
   11.1152  -15.7348   24.7831 O   0  0  0  0  0  0  0  0  0  0  0  0
   12.0108  -18.2494   19.9697 N   0  0  0  0  0  0  0  0  0  0  0  0
    9.5199  -16.3458   26.3196 C   0  0  1  0  0  0  0  0  0  0  0  0
   10.0727  -15.6817   27.4784 C   0  0  0  0  0  0  0  0  0  0  0  0
    8.9728  -15.0325   28.2327 C   0  0  0  0  0  0  0  0  0  0  0  0
    8.1004  -14.1439   27.4533 C   0  0  0  0  0  0  0  0  0  0  0  0
    8.5101  -12.8783   27.1230 C   0  0  0  0  0  0  0  0  0  0  0  0
    7.6778  -12.0361   26.3803 C   0  0  0  0  0  0  0  0  0  0  0  0
    6.4438  -12.5244   25.9990 C   0  0  0  0  0  0  0  0  0  0  0  0
    5.9953  -13.7966   26.3136 C   0  0  0  0  0  0  0  0  0  0  0  0
    6.8638  -14.5970   27.0560 C   0  0  0  0  0  0  0  0  0  0  0  0
   10.9890  -16.5166   28.2803 O   0  0  0  0  0  0  0  0  0  0  0  0
   11.8194  -15.9949   29.2625 O   0  0  0  0  0  0  0  0  0  0  0  0
  2  1  1  1
  3  2  1  0
  4  5  1  0
  4  2  1  0
  5  6  1  6
  7  5  1  0
  7  8  2  0
  9 10  1  0
 10 12  1  0
 11 10  2  0
 12 13  1  0
 13 14  1  0
 14 15  1  0
 16 15  1  6
 16 17  1  0
 17  7  1  0
 18 16  1  0
 19 18  2  0
 20 18  1  0
 21 20  1  0
 21 22  1  6
 22 23  1  0
 23 28  2  0
 24 25  2  0
 24 23  1  0
 25 26  1  0
 26 27  2  0
 28 27  1  0
 29 21  1  0
 30 29  1  0
 31 29  2  0
M  END
$$$$
