LRF.pdb
     RDKit          3D

 31 31  0  0  1  0  0  0  0  0999 V2000
    9.4600  -13.1132   18.2744 C   0  0  0  0  0  0  0  0  0  0  0  0
    8.0034  -13.4097   18.4624 C   0  0  2  0  0  0  0  0  0  0  0  0
    7.1705  -12.1791   18.2681 C   0  0  0  0  0  0  0  0  0  0  0  0
    7.6743  -14.0965   19.7615 C   0  0  0  0  0  0  0  0  0  0  0  0
    8.5382  -15.3110   20.0271 C   0  0  2  0  0  0  0  0  0  0  0  0
    8.5064  -16.2761   18.9692 N   0  0  0  0  0  0  0  0  0  0  0  0
    8.1467  -15.8693   21.3316 C   0  0  0  0  0  0  0  0  0  0  0  0
    8.1657  -15.0786   22.3313 O   0  0  0  0  0  0  0  0  0  0  0  0
    8.3504  -21.5940   26.0907 N   0  0  0  0  0  0  0  0  0  0  0  0
    7.0182  -21.6506   26.5794 C   0  0  0  0  0  0  0  0  0  0  0  0
    6.8176  -22.0675   27.8008 N   0  0  0  0  0  0  0  0  0  0  0  0
    5.9137  -21.2772   25.8010 N   0  0  0  0  0  0  0  0  0  0  0  0
    6.0846  -20.8383   24.4418 C   0  0  0  0  0  0  0  0  0  0  0  0
    6.6737  -19.4480   24.3488 C   0  0  0  0  0  0  0  0  0  0  0  0
    6.8579  -19.0304   22.8969 C   0  0  0  0  0  0  0  0  0  0  0  0
    7.4853  -17.6506   22.9113 C   0  0  2  0  0  0  0  0  0  0  0  0
    7.7509  -17.2038   21.5778 N   0  0  0  0  0  0  0  0  0  0  0  0
    8.7512  -17.6529   23.7137 C   0  0  0  0  0  0  0  0  0  0  0  0
    9.6877  -18.3971   23.3512 O   0  0  0  0  0  0  0  0  0  0  0  0
    5.8681  -22.0627   28.2150 N   0  0  0  0  0  0  0  0  0  0  0  0
    8.9037  -16.8440   24.8519 C   0  0  2  0  0  0  0  0  0  0  0  0
   10.0982  -16.6983   25.6529 C   0  0  0  0  0  0  0  0  0  0  0  0
   10.2382  -15.2777   26.0562 C   0  0  0  0  0  0  0  0  0  0  0  0
    9.9928  -14.9887   27.4755 C   0  0  0  0  0  0  0  0  0  0  0  0
    9.0031  -14.1170   27.8488 C   0  0  0  0  0  0  0  0  0  0  0  0
    8.7717  -13.8454   29.2002 C   0  0  0  0  0  0  0  0  0  0  0  0
    9.5697  -14.4819   30.1300 C   0  0  0  0  0  0  0  0  0  0  0  0
   10.5787  -15.3685   29.7914 C   0  0  0  0  0  0  0  0  0  0  0  0
   10.7685  -15.6050   28.4298 C   0  0  0  0  0  0  0  0  0  0  0  0
   10.2255  -17.6856   26.7431 O   0  0  0  0  0  0  0  0  0  0  0  0
   11.4514  -18.1078   27.2383 O   0  0  0  0  0  0  0  0  0  0  0  0
  2  1  1  1
  3  2  1  0
  4  5  1  0
  4  2  1  0
  5  6  1  6
  7  5  1  0
  7  8  2  0
  9 10  1  0
 10 12  1  0
 11 10  2  0
 12 13  1  0
 13 14  1  0
 14 15  1  0
 16 15  1  6
 16 17  1  0
 17  7  1  0
 18 16  1  0
 19 18  2  0
 20 18  1  0
 21 20  1  0
 21 22  1  1
 22 23  1  0
 23 28  2  0
 24 25  2  0
 24 23  1  0
 25 26  1  0
 26 27  2  0
 28 27  1  0
 29 21  1  0
 30 29  1  0
 31 29  2  0
M  END
$$$$
