LRF.pdb
     RDKit          3D

 31 31  0  0  1  0  0  0  0  0999 V2000
    7.7821  -11.8735   21.8946 C   0  0  0  0  0  0  0  0  0  0  0  0
    8.1010  -13.1381   21.1567 C   0  0  2  0  0  0  0  0  0  0  0  0
    8.2936  -12.8778   19.6935 C   0  0  0  0  0  0  0  0  0  0  0  0
    7.1196  -14.2558   21.3915 C   0  0  0  0  0  0  0  0  0  0  0  0
    7.6215  -15.5991   20.9059 C   0  0  2  0  0  0  0  0  0  0  0  0
    6.6073  -16.3956   20.2825 N   0  0  0  0  0  0  0  0  0  0  0  0
    8.2738  -16.2758   22.0388 C   0  0  0  0  0  0  0  0  0  0  0  0
    7.5188  -16.7059   22.9715 O   0  0  0  0  0  0  0  0  0  0  0  0
   11.5019  -21.2255   22.7267 N   0  0  0  0  0  0  0  0  0  0  0  0
   12.5408  -21.3878   21.7723 C   0  0  0  0  0  0  0  0  0  0  0  0
   13.1420  -22.5445   21.6932 N   0  0  0  0  0  0  0  0  0  0  0  0
   12.9442  -20.3547   20.9146 N   0  0  0  0  0  0  0  0  0  0  0  0
   12.4573  -19.0134   21.0968 C   0  0  0  0  0  0  0  0  0  0  0  0
   11.3440  -18.9319   22.1178 C   0  0  0  0  0  0  0  0  0  0  0  0
   11.5471  -17.7478   23.0521 C   0  0  0  0  0  0  0  0  0  0  0  0
   10.1746  -17.1719   23.3387 C   0  0  2  0  0  0  0  0  0  0  0  0
    9.6627  -16.4929   22.1875 N   0  0  0  0  0  0  0  0  0  0  0  0
   10.2274  -16.2341   24.5067 C   0  0  0  0  0  0  0  0  0  0  0  0
   10.8687  -15.1677   24.3891 O   0  0  0  0  0  0  0  0  0  0  0  0
   13.9043  -22.7020   21.0096 N   0  0  0  0  0  0  0  0  0  0  0  0
    9.5772  -16.5271   25.7169 C   0  0  2  0  0  0  0  0  0  0  0  0
    9.7403  -15.8324   26.9740 C   0  0  0  0  0  0  0  0  0  0  0  0
    8.4139  -15.3581   27.4387 C   0  0  0  0  0  0  0  0  0  0  0  0
    7.8307  -14.2444   26.6786 C   0  0  0  0  0  0  0  0  0  0  0  0
    8.3815  -12.9909   26.7445 C   0  0  0  0  0  0  0  0  0  0  0  0
    7.8246  -11.9340   26.0190 C   0  0  0  0  0  0  0  0  0  0  0  0
    6.7130  -12.2006   25.2447 C   0  0  0  0  0  0  0  0  0  0  0  0
    6.1286  -13.4532   25.1528 C   0  0  0  0  0  0  0  0  0  0  0  0
    6.7227  -14.4732   25.8961 C   0  0  0  0  0  0  0  0  0  0  0  0
   10.5421  -16.5635   27.9751 O   0  0  0  0  0  0  0  0  0  0  0  0
   11.1334  -15.9427   29.0665 O   0  0  0  0  0  0  0  0  0  0  0  0
  2  1  1  1
  3  2  1  0
  4  5  1  0
  4  2  1  0
  5  6  1  1
  7  5  1  0
  7  8  2  0
  9 10  1  0
 10 12  1  0
 11 10  2  0
 12 13  1  0
 13 14  1  0
 14 15  1  0
 16 15  1  6
 16 17  1  0
 17  7  1  0
 18 16  1  0
 19 18  2  0
 20 18  1  0
 21 20  1  0
 21 22  1  6
 22 23  1  0
 23 28  2  0
 24 25  2  0
 24 23  1  0
 25 26  1  0
 26 27  2  0
 28 27  1  0
 29 21  1  0
 30 29  1  0
 31 29  2  0
M  END
$$$$
