LRF.pdb
     RDKit          3D

 31 31  0  0  1  0  0  0  0  0999 V2000
    9.0342  -13.6041   17.8582 C   0  0  0  0  0  0  0  0  0  0  0  0
    7.8235  -13.7021   18.7355 C   0  0  2  0  0  0  0  0  0  0  0  0
    7.3352  -12.3440   19.1389 C   0  0  0  0  0  0  0  0  0  0  0  0
    7.9967  -14.6013   19.9310 C   0  0  0  0  0  0  0  0  0  0  0  0
    8.4905  -15.9854   19.5670 C   0  0  2  0  0  0  0  0  0  0  0  0
    7.5389  -16.7526   18.8204 N   0  0  0  0  0  0  0  0  0  0  0  0
    8.9268  -16.6512   20.8052 C   0  0  0  0  0  0  0  0  0  0  0  0
    8.0204  -16.9765   21.6403 O   0  0  0  0  0  0  0  0  0  0  0  0
   12.1672  -19.9895   18.7939 N   0  0  0  0  0  0  0  0  0  0  0  0
   13.5818  -20.0120   18.9159 C   0  0  0  0  0  0  0  0  0  0  0  0
   14.2530  -20.9093   18.2448 N   0  0  0  0  0  0  0  0  0  0  0  0
   14.2825  -19.1095   19.7283 N   0  0  0  0  0  0  0  0  0  0  0  0
   13.8366  -18.8224   21.0655 C   0  0  0  0  0  0  0  0  0  0  0  0
   12.4127  -18.3132   21.1076 C   0  0  0  0  0  0  0  0  0  0  0  0
   12.0162  -17.9203   22.5234 C   0  0  0  0  0  0  0  0  0  0  0  0
   10.5775  -17.4467   22.4629 C   0  0  2  0  0  0  0  0  0  0  0  0
   10.2608  -16.9634   21.1536 N   0  0  0  0  0  0  0  0  0  0  0  0
   10.3302  -16.3739   23.4799 C   0  0  0  0  0  0  0  0  0  0  0  0
   10.7929  -15.2320   23.2695 O   0  0  0  0  0  0  0  0  0  0  0  0
   15.2855  -20.9606   18.3112 N   0  0  0  0  0  0  0  0  0  0  0  0
    9.5964  -16.6241   24.6514 C   0  0  1  0  0  0  0  0  0  0  0  0
    9.1308  -15.6416   25.6039 C   0  0  0  0  0  0  0  0  0  0  0  0
    8.3566  -14.6010   24.8842 C   0  0  0  0  0  0  0  0  0  0  0  0
    7.7931  -13.5314   25.7188 C   0  0  0  0  0  0  0  0  0  0  0  0
    6.4861  -13.5819   26.1288 C   0  0  0  0  0  0  0  0  0  0  0  0
    5.9537  -12.5630   26.9237 C   0  0  0  0  0  0  0  0  0  0  0  0
    6.7864  -11.5187   27.2738 C   0  0  0  0  0  0  0  0  0  0  0  0
    8.1114  -11.4329   26.8791 C   0  0  0  0  0  0  0  0  0  0  0  0
    8.5936  -12.4751   26.0870 C   0  0  0  0  0  0  0  0  0  0  0  0
    8.4750  -16.2123   26.7972 O   0  0  0  0  0  0  0  0  0  0  0  0
    7.5203  -17.2170   26.7246 O   0  0  0  0  0  0  0  0  0  0  0  0
  2  1  1  1
  3  2  1  0
  4  5  1  0
  4  2  1  0
  5  6  1  1
  7  5  1  0
  7  8  2  0
  9 10  1  0
 10 12  1  0
 11 10  2  0
 12 13  1  0
 13 14  1  0
 14 15  1  0
 16 15  1  6
 16 17  1  0
 17  7  1  0
 18 16  1  0
 19 18  2  0
 20 18  1  0
 21 20  1  0
 21 22  1  1
 22 23  1  0
 23 28  2  0
 24 25  2  0
 24 23  1  0
 25 26  1  0
 26 27  2  0
 28 27  1  0
 29 21  1  0
 30 29  1  0
 31 29  2  0
M  END
$$$$
