LRF.pdb
     RDKit          3D

 31 31  0  0  1  0  0  0  0  0999 V2000
    7.2823  -12.2613   21.0449 C   0  0  0  0  0  0  0  0  0  0  0  0
    8.1019  -13.4175   20.5585 C   0  0  2  0  0  0  0  0  0  0  0  0
    9.3268  -12.9469   19.8348 C   0  0  0  0  0  0  0  0  0  0  0  0
    7.3323  -14.4211   19.7410 C   0  0  0  0  0  0  0  0  0  0  0  0
    7.8906  -15.8246   19.8437 C   0  0  2  0  0  0  0  0  0  0  0  0
    7.2554  -16.7571   18.9614 N   0  0  0  0  0  0  0  0  0  0  0  0
    7.8326  -16.2332   21.2567 C   0  0  0  0  0  0  0  0  0  0  0  0
    6.6884  -16.2211   21.8186 O   0  0  0  0  0  0  0  0  0  0  0  0
   14.1320  -19.4325   22.3579 N   0  0  0  0  0  0  0  0  0  0  0  0
   13.0719  -19.3632   21.4155 C   0  0  0  0  0  0  0  0  0  0  0  0
   13.1101  -18.4337   20.4988 N   0  0  0  0  0  0  0  0  0  0  0  0
   11.9886  -20.2529   21.4334 N   0  0  0  0  0  0  0  0  0  0  0  0
   10.9287  -20.1043   22.3946 C   0  0  0  0  0  0  0  0  0  0  0  0
   10.4301  -18.6797   22.4957 C   0  0  0  0  0  0  0  0  0  0  0  0
    9.2591  -18.5796   23.4626 C   0  0  0  0  0  0  0  0  0  0  0  0
    8.7258  -17.1641   23.3642 C   0  0  2  0  0  0  0  0  0  0  0  0
    8.9309  -16.6387   22.0488 N   0  0  0  0  0  0  0  0  0  0  0  0
    9.3837  -16.2788   24.3790 C   0  0  0  0  0  0  0  0  0  0  0  0
   10.4522  -15.7078   24.0715 O   0  0  0  0  0  0  0  0  0  0  0  0
   12.3540  -18.3487   19.7959 N   0  0  0  0  0  0  0  0  0  0  0  0
    8.8287  -16.0806   25.6541 C   0  0  1  0  0  0  0  0  0  0  0  0
    9.4753  -15.4626   26.7897 C   0  0  0  0  0  0  0  0  0  0  0  0
    8.5048  -14.5719   27.4716 C   0  0  0  0  0  0  0  0  0  0  0  0
    7.8965  -13.5290   26.6347 C   0  0  0  0  0  0  0  0  0  0  0  0
    8.5659  -12.3602   26.3805 C   0  0  0  0  0  0  0  0  0  0  0  0
    7.9845  -11.3706   25.5828 C   0  0  0  0  0  0  0  0  0  0  0  0
    6.7265  -11.6152   25.0691 C   0  0  0  0  0  0  0  0  0  0  0  0
    6.0195  -12.7831   25.3037 C   0  0  0  0  0  0  0  0  0  0  0  0
    6.6441  -13.7384   26.1058 C   0  0  0  0  0  0  0  0  0  0  0  0
   10.2001  -16.4045   27.6657 O   0  0  0  0  0  0  0  0  0  0  0  0
   10.1620  -17.7804   27.4881 O   0  0  0  0  0  0  0  0  0  0  0  0
  2  1  1  6
  3  2  1  0
  4  5  1  0
  4  2  1  0
  5  6  1  6
  7  5  1  0
  7  8  2  0
  9 10  1  0
 10 12  1  0
 11 10  2  0
 12 13  1  0
 13 14  1  0
 14 15  1  0
 16 15  1  6
 16 17  1  0
 17  7  1  0
 18 16  1  0
 19 18  2  0
 20 18  1  0
 21 20  1  0
 21 22  1  1
 22 23  1  0
 23 28  2  0
 24 25  2  0
 24 23  1  0
 25 26  1  0
 26 27  2  0
 28 27  1  0
 29 21  1  0
 30 29  1  0
 31 29  2  0
M  END
$$$$
