LRF.pdb
     RDKit          3D

 31 31  0  0  1  0  0  0  0  0999 V2000
    6.7824  -12.9488   24.4250 C   0  0  0  0  0  0  0  0  0  0  0  0
    6.2753  -13.7180   25.6066 C   0  0  2  0  0  0  0  0  0  0  0  0
    6.6799  -13.0641   26.8930 C   0  0  0  0  0  0  0  0  0  0  0  0
    6.6376  -15.1795   25.5955 C   0  0  0  0  0  0  0  0  0  0  0  0
    6.2346  -15.8819   24.3163 C   0  0  2  0  0  0  0  0  0  0  0  0
    5.0057  -16.6093   24.4278 N   0  0  0  0  0  0  0  0  0  0  0  0
    7.3653  -16.7192   23.8833 C   0  0  0  0  0  0  0  0  0  0  0  0
    7.0892  -17.8756   23.4235 O   0  0  0  0  0  0  0  0  0  0  0  0
    7.2840  -13.7785   18.2474 N   0  0  0  0  0  0  0  0  0  0  0  0
    8.3210  -13.2852   19.0829 C   0  0  0  0  0  0  0  0  0  0  0  0
    8.2234  -12.0688   19.5484 N   0  0  0  0  0  0  0  0  0  0  0  0
    9.4427  -14.0535   19.4250 N   0  0  0  0  0  0  0  0  0  0  0  0
    9.2976  -15.4188   19.8540 C   0  0  0  0  0  0  0  0  0  0  0  0
    9.5479  -15.5932   21.3357 C   0  0  0  0  0  0  0  0  0  0  0  0
    9.4711  -17.0605   21.7323 C   0  0  0  0  0  0  0  0  0  0  0  0
    9.7125  -17.1263   23.2273 C   0  0  2  0  0  0  0  0  0  0  0  0
    8.7310  -16.3578   23.9305 N   0  0  0  0  0  0  0  0  0  0  0  0
   11.0876  -16.6340   23.5637 C   0  0  0  0  0  0  0  0  0  0  0  0
   11.5109  -15.6055   22.9933 O   0  0  0  0  0  0  0  0  0  0  0  0
    8.9633  -11.6702   20.1540 N   0  0  0  0  0  0  0  0  0  0  0  0
   11.9003  -17.2984   24.4971 C   0  0  2  0  0  0  0  0  0  0  0  0
   11.8535  -17.1590   25.9352 C   0  0  0  0  0  0  0  0  0  0  0  0
   10.5354  -16.6002   26.3230 C   0  0  0  0  0  0  0  0  0  0  0  0
   10.5696  -15.4863   27.2802 C   0  0  0  0  0  0  0  0  0  0  0  0
   10.6000  -15.7267   28.6293 C   0  0  0  0  0  0  0  0  0  0  0  0
   10.6337  -14.6644   29.5370 C   0  0  0  0  0  0  0  0  0  0  0  0
   10.6348  -13.3816   29.0262 C   0  0  0  0  0  0  0  0  0  0  0  0
   10.6047  -13.0993   27.6704 C   0  0  0  0  0  0  0  0  0  0  0  0
   10.5719  -14.1946   26.8071 C   0  0  0  0  0  0  0  0  0  0  0  0
   12.2793  -18.3615   26.6784 O   0  0  0  0  0  0  0  0  0  0  0  0
   12.2679  -19.6337   26.1239 O   0  0  0  0  0  0  0  0  0  0  0  0
  2  1  1  6
  3  2  1  0
  4  5  1  0
  4  2  1  0
  5  6  1  1
  7  5  1  0
  7  8  2  0
  9 10  1  0
 10 12  1  0
 11 10  2  0
 12 13  1  0
 13 14  1  0
 14 15  1  0
 16 15  1  6
 16 17  1  0
 17  7  1  0
 18 16  1  0
 19 18  2  0
 20 18  1  0
 21 20  1  0
 21 22  1  6
 22 23  1  0
 23 28  2  0
 24 25  2  0
 24 23  1  0
 25 26  1  0
 26 27  2  0
 28 27  1  0
 29 21  1  0
 30 29  1  0
 31 29  2  0
M  END
$$$$
