LRF.pdb
     RDKit          3D

 31 31  0  0  1  0  0  0  0  0999 V2000
    9.4791  -13.6468   18.4822 C   0  0  0  0  0  0  0  0  0  0  0  0
    8.1188  -13.3535   19.0380 C   0  0  2  0  0  0  0  0  0  0  0  0
    7.9337  -11.8848   19.2709 C   0  0  0  0  0  0  0  0  0  0  0  0
    7.7658  -14.1531   20.2642 C   0  0  0  0  0  0  0  0  0  0  0  0
    8.0112  -15.6377   20.0966 C   0  0  2  0  0  0  0  0  0  0  0  0
    7.0697  -16.2768   19.2266 N   0  0  0  0  0  0  0  0  0  0  0  0
    8.0632  -16.2428   21.4375 C   0  0  0  0  0  0  0  0  0  0  0  0
    6.9624  -16.3442   22.0722 O   0  0  0  0  0  0  0  0  0  0  0  0
   14.1010  -18.7012   24.2204 N   0  0  0  0  0  0  0  0  0  0  0  0
   13.6985  -19.6078   23.2042 C   0  0  0  0  0  0  0  0  0  0  0  0
   14.5253  -19.8555   22.2241 N   0  0  0  0  0  0  0  0  0  0  0  0
   12.4494  -20.2445   23.2141 N   0  0  0  0  0  0  0  0  0  0  0  0
   11.5943  -20.1716   24.3685 C   0  0  0  0  0  0  0  0  0  0  0  0
   10.7698  -18.9038   24.4031 C   0  0  0  0  0  0  0  0  0  0  0  0
    9.8969  -18.7876   23.1618 C   0  0  0  0  0  0  0  0  0  0  0  0
    9.1200  -17.4922   23.2889 C   0  0  2  0  0  0  0  0  0  0  0  0
    9.2236  -16.7224   22.0868 N   0  0  0  0  0  0  0  0  0  0  0  0
    9.6137  -16.6912   24.4556 C   0  0  0  0  0  0  0  0  0  0  0  0
   10.6310  -15.9807   24.3057 O   0  0  0  0  0  0  0  0  0  0  0  0
   14.2820  -20.5366   21.4824 N   0  0  0  0  0  0  0  0  0  0  0  0
    8.9622  -16.7230   25.6997 C   0  0  1  0  0  0  0  0  0  0  0  0
    9.3752  -16.0441   26.9073 C   0  0  0  0  0  0  0  0  0  0  0  0
    8.1759  -15.4963   27.5869 C   0  0  0  0  0  0  0  0  0  0  0  0
    7.6360  -14.2505   27.0259 C   0  0  0  0  0  0  0  0  0  0  0  0
    6.4276  -14.2431   26.3790 C   0  0  0  0  0  0  0  0  0  0  0  0
    5.9165  -13.0557   25.8476 C   0  0  0  0  0  0  0  0  0  0  0  0
    6.6682  -11.9074   25.9986 C   0  0  0  0  0  0  0  0  0  0  0  0
    7.8927  -11.8756   26.6455 C   0  0  0  0  0  0  0  0  0  0  0  0
    8.3577  -13.0869   27.1577 C   0  0  0  0  0  0  0  0  0  0  0  0
   10.2914  -16.8243   27.7625 O   0  0  0  0  0  0  0  0  0  0  0  0
   10.6062  -18.1531   27.5141 O   0  0  0  0  0  0  0  0  0  0  0  0
  2  1  1  1
  3  2  1  0
  4  5  1  0
  4  2  1  0
  5  6  1  6
  7  5  1  0
  7  8  2  0
  9 10  1  0
 10 12  1  0
 11 10  2  0
 12 13  1  0
 13 14  1  0
 14 15  1  0
 16 15  1  6
 16 17  1  0
 17  7  1  0
 18 16  1  0
 19 18  2  0
 20 18  1  0
 21 20  1  0
 21 22  1  1
 22 23  1  0
 23 28  2  0
 24 25  2  0
 24 23  1  0
 25 26  1  0
 26 27  2  0
 28 27  1  0
 29 21  1  0
 30 29  1  0
 31 29  2  0
M  END
$$$$
