LRF.pdb
     RDKit          3D

 31 31  0  0  1  0  0  0  0  0999 V2000
    6.0054  -14.2933   16.7452 C   0  0  0  0  0  0  0  0  0  0  0  0
    7.0050  -13.9738   17.8147 C   0  0  2  0  0  0  0  0  0  0  0  0
    8.4004  -13.9699   17.2684 C   0  0  0  0  0  0  0  0  0  0  0  0
    6.8975  -14.8409   19.0412 C   0  0  0  0  0  0  0  0  0  0  0  0
    7.3149  -14.1292   20.3106 C   0  0  2  0  0  0  0  0  0  0  0  0
    7.9510  -12.8678   20.0745 N   0  0  0  0  0  0  0  0  0  0  0  0
    8.1432  -15.0564   21.0987 C   0  0  0  0  0  0  0  0  0  0  0  0
    7.6210  -16.1749   21.4168 O   0  0  0  0  0  0  0  0  0  0  0  0
   16.1726  -17.2727   20.4891 N   0  0  0  0  0  0  0  0  0  0  0  0
   15.4410  -16.0806   20.7346 C   0  0  0  0  0  0  0  0  0  0  0  0
   15.9764  -14.9379   20.3980 N   0  0  0  0  0  0  0  0  0  0  0  0
   14.1690  -16.0851   21.3241 N   0  0  0  0  0  0  0  0  0  0  0  0
   13.6406  -17.2794   21.9273 C   0  0  0  0  0  0  0  0  0  0  0  0
   12.2355  -17.0921   22.4555 C   0  0  0  0  0  0  0  0  0  0  0  0
   11.6509  -15.7660   21.9907 C   0  0  0  0  0  0  0  0  0  0  0  0
   10.1678  -15.8050   22.3013 C   0  0  2  0  0  0  0  0  0  0  0  0
    9.4666  -14.8199   21.5356 N   0  0  0  0  0  0  0  0  0  0  0  0
    9.9273  -15.5849   23.7642 C   0  0  0  0  0  0  0  0  0  0  0  0
   10.6213  -14.7354   24.3633 O   0  0  0  0  0  0  0  0  0  0  0  0
   15.4907  -14.0444   20.5953 N   0  0  0  0  0  0  0  0  0  0  0  0
    8.9480  -16.3066   24.4668 C   0  0  1  0  0  0  0  0  0  0  0  0
    8.7684  -16.3462   25.9005 C   0  0  0  0  0  0  0  0  0  0  0  0
    7.4685  -15.7185   26.2414 C   0  0  0  0  0  0  0  0  0  0  0  0
    7.4730  -14.2529   26.3425 C   0  0  0  0  0  0  0  0  0  0  0  0
    7.4183  -13.4759   25.2147 C   0  0  0  0  0  0  0  0  0  0  0  0
    7.4216  -12.0817   25.3148 C   0  0  0  0  0  0  0  0  0  0  0  0
    7.4816  -11.5277   26.5781 C   0  0  0  0  0  0  0  0  0  0  0  0
    7.5377  -12.2797   27.7401 C   0  0  0  0  0  0  0  0  0  0  0  0
    7.5317  -13.6661   27.5852 C   0  0  0  0  0  0  0  0  0  0  0  0
    9.0170  -17.6679   26.5098 O   0  0  0  0  0  0  0  0  0  0  0  0
    9.2223  -17.8437   27.8711 O   0  0  0  0  0  0  0  0  0  0  0  0
  2  1  1  6
  3  2  1  0
  4  5  1  0
  4  2  1  0
  5  6  1  6
  7  5  1  0
  7  8  2  0
  9 10  1  0
 10 12  1  0
 11 10  2  0
 12 13  1  0
 13 14  1  0
 14 15  1  0
 16 15  1  1
 16 17  1  0
 17  7  1  0
 18 16  1  0
 19 18  2  0
 20 18  1  0
 21 20  1  0
 21 22  1  1
 22 23  1  0
 23 28  2  0
 24 25  2  0
 24 23  1  0
 25 26  1  0
 26 27  2  0
 28 27  1  0
 29 21  1  0
 30 29  1  0
 31 29  2  0
M  END
$$$$
