LRF.pdb
     RDKit          3D

 31 31  0  0  1  0  0  0  0  0999 V2000
    9.4998  -12.7251   19.1066 C   0  0  0  0  0  0  0  0  0  0  0  0
    8.0413  -12.8604   19.4224 C   0  0  2  0  0  0  0  0  0  0  0  0
    7.4554  -11.5487   19.8489 C   0  0  0  0  0  0  0  0  0  0  0  0
    7.7204  -13.9522   20.4085 C   0  0  0  0  0  0  0  0  0  0  0  0
    8.3037  -15.2942   20.0201 C   0  0  2  0  0  0  0  0  0  0  0  0
    7.6208  -15.9179   18.9263 N   0  0  0  0  0  0  0  0  0  0  0  0
    8.3509  -16.1346   21.2277 C   0  0  0  0  0  0  0  0  0  0  0  0
    7.2419  -16.3890   21.8022 O   0  0  0  0  0  0  0  0  0  0  0  0
    8.2607  -21.1253   20.3304 N   0  0  0  0  0  0  0  0  0  0  0  0
    9.4731  -21.2520   19.6019 C   0  0  0  0  0  0  0  0  0  0  0  0
    9.4164  -21.3051   18.2982 N   0  0  0  0  0  0  0  0  0  0  0  0
   10.7250  -21.3227   20.2290 N   0  0  0  0  0  0  0  0  0  0  0  0
   10.9791  -20.6056   21.4498 C   0  0  0  0  0  0  0  0  0  0  0  0
   10.1178  -19.3697   21.5890 C   0  0  0  0  0  0  0  0  0  0  0  0
   10.3906  -18.6613   22.9081 C   0  0  0  0  0  0  0  0  0  0  0  0
    9.4281  -17.4931   22.9884 C   0  0  2  0  0  0  0  0  0  0  0  0
    9.5151  -16.6865   21.8093 N   0  0  0  0  0  0  0  0  0  0  0  0
    9.7072  -16.6596   24.2024 C   0  0  0  0  0  0  0  0  0  0  0  0
   10.7095  -15.9130   24.1977 O   0  0  0  0  0  0  0  0  0  0  0  0
   10.2810  -21.3566   17.7300 N   0  0  0  0  0  0  0  0  0  0  0  0
    8.8734  -16.7008   25.3321 C   0  0  1  0  0  0  0  0  0  0  0  0
    9.1354  -16.0990   26.6200 C   0  0  0  0  0  0  0  0  0  0  0  0
    7.8765  -15.5166   27.1454 C   0  0  0  0  0  0  0  0  0  0  0  0
    7.5084  -14.1995   26.6088 C   0  0  0  0  0  0  0  0  0  0  0  0
    8.3972  -13.1569   26.6488 C   0  0  0  0  0  0  0  0  0  0  0  0
    8.0439  -11.9055   26.1362 C   0  0  0  0  0  0  0  0  0  0  0  0
    6.7810  -11.7648   25.5961 C   0  0  0  0  0  0  0  0  0  0  0  0
    5.8561  -12.7944   25.5379 C   0  0  0  0  0  0  0  0  0  0  0  0
    6.2583  -14.0228   26.0628 C   0  0  0  0  0  0  0  0  0  0  0  0
    9.8770  -16.9649   27.5581 O   0  0  0  0  0  0  0  0  0  0  0  0
   10.4790  -16.4840   28.7124 O   0  0  0  0  0  0  0  0  0  0  0  0
  2  1  1  1
  3  2  1  0
  4  5  1  0
  4  2  1  0
  5  6  1  6
  7  5  1  0
  7  8  2  0
  9 10  1  0
 10 12  1  0
 11 10  2  0
 12 13  1  0
 13 14  1  0
 14 15  1  0
 16 15  1  6
 16 17  1  0
 17  7  1  0
 18 16  1  0
 19 18  2  0
 20 18  1  0
 21 20  1  0
 21 22  1  6
 22 23  1  0
 23 28  2  0
 24 25  2  0
 24 23  1  0
 25 26  1  0
 26 27  2  0
 28 27  1  0
 29 21  1  0
 30 29  1  0
 31 29  2  0
M  END
$$$$
