LRF.pdb
     RDKit          3D

 31 31  0  0  1  0  0  0  0  0999 V2000
    5.1688  -22.1744   22.4287 C   0  0  0  0  0  0  0  0  0  0  0  0
    5.3728  -21.2517   21.2659 C   0  0  2  0  0  0  0  0  0  0  0  0
    5.2445  -21.9834   19.9644 C   0  0  0  0  0  0  0  0  0  0  0  0
    6.6491  -20.4548   21.3248 C   0  0  0  0  0  0  0  0  0  0  0  0
    6.8272  -19.7138   22.6329 C   0  0  2  0  0  0  0  0  0  0  0  0
    5.5990  -19.4959   23.3369 N   0  0  0  0  0  0  0  0  0  0  0  0
    7.5621  -18.4695   22.3527 C   0  0  0  0  0  0  0  0  0  0  0  0
    8.6887  -18.5795   21.7666 O   0  0  0  0  0  0  0  0  0  0  0  0
    7.7211  -12.4356   17.2118 N   0  0  0  0  0  0  0  0  0  0  0  0
    8.3706  -13.6518   17.5522 C   0  0  0  0  0  0  0  0  0  0  0  0
    8.7628  -14.4418   16.5890 N   0  0  0  0  0  0  0  0  0  0  0  0
    8.6049  -14.0346   18.8803 N   0  0  0  0  0  0  0  0  0  0  0  0
    8.0788  -13.2621   19.9737 C   0  0  0  0  0  0  0  0  0  0  0  0
    8.3317  -13.9084   21.3179 C   0  0  0  0  0  0  0  0  0  0  0  0
    7.3050  -14.9953   21.6017 C   0  0  0  0  0  0  0  0  0  0  0  0
    7.9931  -16.0387   22.4593 C   0  0  2  0  0  0  0  0  0  0  0  0
    7.1324  -17.1618   22.6743 N   0  0  0  0  0  0  0  0  0  0  0  0
    8.4099  -15.4522   23.7741 C   0  0  0  0  0  0  0  0  0  0  0  0
    7.9652  -14.3294   24.0961 O   0  0  0  0  0  0  0  0  0  0  0  0
    9.1836  -15.3653   16.7969 N   0  0  0  0  0  0  0  0  0  0  0  0
    9.2803  -16.1326   24.6417 C   0  0  1  0  0  0  0  0  0  0  0  0
    9.6892  -15.7076   25.9615 C   0  0  0  0  0  0  0  0  0  0  0  0
    8.4847  -15.5547   26.8136 C   0  0  0  0  0  0  0  0  0  0  0  0
    7.7694  -14.2778   26.6865 C   0  0  0  0  0  0  0  0  0  0  0  0
    6.4357  -14.2540   26.3711 C   0  0  0  0  0  0  0  0  0  0  0  0
    5.7581  -13.0374   26.2521 C   0  0  0  0  0  0  0  0  0  0  0  0
    6.4770  -11.8774   26.4621 C   0  0  0  0  0  0  0  0  0  0  0  0
    7.8246  -11.8615   26.7822 C   0  0  0  0  0  0  0  0  0  0  0  0
    8.4538  -13.1020   26.8890 C   0  0  0  0  0  0  0  0  0  0  0  0
   10.7861  -16.5043   26.5460 O   0  0  0  0  0  0  0  0  0  0  0  0
   11.4337  -16.1477   27.7206 O   0  0  0  0  0  0  0  0  0  0  0  0
  2  1  1  1
  3  2  1  0
  4  5  1  0
  4  2  1  0
  5  6  1  6
  7  5  1  0
  7  8  2  0
  9 10  1  0
 10 12  1  0
 11 10  2  0
 12 13  1  0
 13 14  1  0
 14 15  1  0
 16 15  1  6
 16 17  1  0
 17  7  1  0
 18 16  1  0
 19 18  2  0
 20 18  1  0
 21 20  1  0
 21 22  1  1
 22 23  1  0
 23 28  2  0
 24 25  2  0
 24 23  1  0
 25 26  1  0
 26 27  2  0
 28 27  1  0
 29 21  1  0
 30 29  1  0
 31 29  2  0
M  END
$$$$
