GSL.pdb
     RDKit          3D

 19 18  0  0  1  0  0  0  0  0999 V2000
   24.3807  -16.5133  -15.3866 N   0  0  0  0  0  0  0  0  0  0  0  0
   25.3151  -17.6088  -15.4549 C   0  0  0  0  0  0  0  0  0  0  0  0
   25.0560  -18.5621  -14.3441 C   0  0  0  0  0  0  0  0  0  0  0  0
   24.1419  -18.3376  -13.5387 O   0  0  0  0  0  0  0  0  0  0  0  0
   25.6842  -23.0058  -12.6340 O   0  0  0  0  0  0  0  0  0  0  0  0
   26.1472  -22.0975  -13.5956 C   0  0  0  0  0  0  0  0  0  0  0  0
   25.6394  -20.7450  -13.2017 C   0  0  2  0  0  0  0  0  0  0  0  0
   25.8489  -19.7323  -14.1962 N   0  0  0  0  0  0  0  0  0  0  0  0
   26.1424  -20.2915  -11.8756 C   0  0  0  0  0  0  0  0  0  0  0  0
   27.2607  -19.7482  -11.8163 O   0  0  0  0  0  0  0  0  0  0  0  0
   26.8970  -20.7399   -6.7431 C   0  0  0  0  0  0  0  0  0  0  0  0
   27.2894  -19.5402   -7.5520 C   0  0  2  0  0  0  0  0  0  0  0  0
   27.0459  -18.2468   -6.7503 C   0  0  0  0  0  0  0  0  0  0  0  0
   26.6556  -19.4259   -8.8920 C   0  0  0  0  0  0  0  0  0  0  0  0
   25.9659  -20.6446   -9.4160 C   0  0  2  0  0  0  0  0  0  0  0  0
   25.3535  -20.4776  -10.6935 N   0  0  0  0  0  0  0  0  0  0  0  0
   25.0456  -21.2459   -8.4174 C   0  0  0  0  0  0  0  0  0  0  0  0
   25.4869  -22.1046   -7.6115 O   0  0  0  0  0  0  0  0  0  0  0  0
   23.7112  -20.9056   -8.3272 O   0  0  0  0  0  0  0  0  0  0  0  0
  2  3  1  0
  2  1  1  0
  3  4  2  0
  5  6  1  0
  7  6  1  6
  7  9  1  0
  8  7  1  0
  8  3  1  0
  9 10  2  0
 12 11  1  1
 13 12  1  0
 14 12  1  0
 15 14  1  1
 15 17  1  0
 16  9  1  0
 16 15  1  0
 17 18  2  0
 17 19  1  0
M  END
$$$$
