GSL.pdb
     RDKit          3D

 19 18  0  0  1  0  0  0  0  0999 V2000
   22.4274  -13.0424  -18.9174 N   0  0  0  0  0  0  0  0  0  0  0  0
   23.6804  -12.3552  -18.7286 C   0  0  0  0  0  0  0  0  0  0  0  0
   23.6298  -11.5487  -17.4809 C   0  0  0  0  0  0  0  0  0  0  0  0
   22.5408  -11.3246  -16.9347 O   0  0  0  0  0  0  0  0  0  0  0  0
   27.0716   -9.4583  -16.2431 O   0  0  0  0  0  0  0  0  0  0  0  0
   26.2332   -9.9273  -15.2226 C   0  0  0  0  0  0  0  0  0  0  0  0
   24.8698  -10.0966  -15.8184 C   0  0  2  0  0  0  0  0  0  0  0  0
   24.8220  -11.0306  -16.9064 N   0  0  0  0  0  0  0  0  0  0  0  0
   24.2325   -8.8073  -16.2041 C   0  0  0  0  0  0  0  0  0  0  0  0
   24.2890   -8.4469  -17.3941 O   0  0  0  0  0  0  0  0  0  0  0  0
   19.8717   -5.9362  -17.8627 C   0  0  0  0  0  0  0  0  0  0  0  0
   21.0817   -5.7305  -17.0018 C   0  0  2  0  0  0  0  0  0  0  0  0
   22.0881   -4.7965  -17.7013 C   0  0  0  0  0  0  0  0  0  0  0  0
   21.7747   -6.9663  -16.5511 C   0  0  0  0  0  0  0  0  0  0  0  0
   22.9059   -6.7904  -15.5893 C   0  0  2  0  0  0  0  0  0  0  0  0
   23.5683   -7.9997  -15.2237 N   0  0  0  0  0  0  0  0  0  0  0  0
   22.5229   -5.9720  -14.4107 C   0  0  0  0  0  0  0  0  0  0  0  0
   22.3384   -4.7361  -14.5526 O   0  0  0  0  0  0  0  0  0  0  0  0
   22.3567   -6.5061  -13.1491 O   0  0  0  0  0  0  0  0  0  0  0  0
  2  3  1  0
  2  1  1  0
  3  4  2  0
  5  6  1  0
  7  6  1  6
  7  9  1  0
  8  7  1  0
  8  3  1  0
  9 10  2  0
 12 11  1  6
 13 12  1  0
 14 12  1  0
 15 14  1  1
 15 17  1  0
 16  9  1  0
 16 15  1  0
 17 18  2  0
 17 19  1  0
M  END
$$$$
