GSL.pdb
     RDKit          3D

 19 18  0  0  1  0  0  0  0  0999 V2000
   13.1074  -10.5708  -13.1896 N   0  0  0  0  0  0  0  0  0  0  0  0
   13.1133   -9.4184  -14.0554 C   0  0  0  0  0  0  0  0  0  0  0  0
   14.4298   -9.3065  -14.7366 C   0  0  0  0  0  0  0  0  0  0  0  0
   15.1248  -10.3178  -14.9062 O   0  0  0  0  0  0  0  0  0  0  0  0
   17.1887   -6.7450  -17.7014 O   0  0  0  0  0  0  0  0  0  0  0  0
   16.0205   -6.7081  -16.9281 C   0  0  0  0  0  0  0  0  0  0  0  0
   16.0990   -7.8484  -15.9605 C   0  0  2  0  0  0  0  0  0  0  0  0
   14.9008   -8.0470  -15.1967 N   0  0  0  0  0  0  0  0  0  0  0  0
   17.2872   -7.7795  -15.0658 C   0  0  0  0  0  0  0  0  0  0  0  0
   17.1833   -7.1762  -13.9821 O   0  0  0  0  0  0  0  0  0  0  0  0
   22.1448   -8.4457  -13.1137 C   0  0  0  0  0  0  0  0  0  0  0  0
   21.6153   -9.7299  -13.6777 C   0  0  2  0  0  0  0  0  0  0  0  0
   22.7636  -10.5765  -14.2601 C   0  0  0  0  0  0  0  0  0  0  0  0
   20.5299   -9.5971  -14.6851 C   0  0  0  0  0  0  0  0  0  0  0  0
   19.6504   -8.3933  -14.5715 C   0  0  2  0  0  0  0  0  0  0  0  0
   18.5240   -8.3958  -15.4468 N   0  0  0  0  0  0  0  0  0  0  0  0
   20.4191   -7.1242  -14.6360 C   0  0  0  0  0  0  0  0  0  0  0  0
   20.6730   -6.6141  -15.7572 O   0  0  0  0  0  0  0  0  0  0  0  0
   20.8759   -6.4663  -13.5122 O   0  0  0  0  0  0  0  0  0  0  0  0
  2  3  1  0
  2  1  1  0
  3  4  2  0
  5  6  1  0
  7  6  1  1
  7  9  1  0
  8  7  1  0
  8  3  1  0
  9 10  2  0
 12 11  1  6
 13 12  1  0
 14 12  1  0
 15 14  1  6
 15 17  1  0
 16  9  1  0
 16 15  1  0
 17 18  2  0
 17 19  1  0
M  END
$$$$
