GSL.pdb
     RDKit          3D

 19 18  0  0  1  0  0  0  0  0999 V2000
   15.7999  -13.1833  -13.8327 N   0  0  0  0  0  0  0  0  0  0  0  0
   16.0145  -11.7985  -14.1706 C   0  0  0  0  0  0  0  0  0  0  0  0
   16.4640  -11.0501  -12.9675 C   0  0  0  0  0  0  0  0  0  0  0  0
   16.0334  -11.3635  -11.8491 O   0  0  0  0  0  0  0  0  0  0  0  0
   18.7456   -7.5462  -13.4294 O   0  0  0  0  0  0  0  0  0  0  0  0
   19.0446   -8.3355  -12.3105 C   0  0  0  0  0  0  0  0  0  0  0  0
   17.8211   -9.1424  -12.0034 C   0  0  2  0  0  0  0  0  0  0  0  0
   17.3859   -9.9751  -13.0878 N   0  0  0  0  0  0  0  0  0  0  0  0
   16.6916   -8.3230  -11.4838 C   0  0  0  0  0  0  0  0  0  0  0  0
   15.8274   -7.9228  -12.2851 O   0  0  0  0  0  0  0  0  0  0  0  0
   13.8556   -5.9605   -7.0607 C   0  0  0  0  0  0  0  0  0  0  0  0
   13.5315   -7.0249   -8.0655 C   0  0  2  0  0  0  0  0  0  0  0  0
   12.4454   -7.9706   -7.5171 C   0  0  0  0  0  0  0  0  0  0  0  0
   14.6848   -7.8209   -8.5620 C   0  0  0  0  0  0  0  0  0  0  0  0
   15.5584   -7.1720   -9.5873 C   0  0  2  0  0  0  0  0  0  0  0  0
   16.6034   -8.0032  -10.0894 N   0  0  0  0  0  0  0  0  0  0  0  0
   16.0502   -5.8408   -9.1492 C   0  0  0  0  0  0  0  0  0  0  0  0
   15.3794   -4.8141   -9.4275 O   0  0  0  0  0  0  0  0  0  0  0  0
   17.2228   -5.6704   -8.4418 O   0  0  0  0  0  0  0  0  0  0  0  0
  2  3  1  0
  2  1  1  0
  3  4  2  0
  5  6  1  0
  7  6  1  6
  7  9  1  0
  8  7  1  0
  8  3  1  0
  9 10  2  0
 12 11  1  1
 13 12  1  0
 14 12  1  0
 15 14  1  1
 15 17  1  0
 16  9  1  0
 16 15  1  0
 17 18  2  0
 17 19  1  0
M  END
$$$$
