GSL.pdb
     RDKit          3D

 19 18  0  0  1  0  0  0  0  0999 V2000
   25.3919  -24.2895  -17.7601 N   0  0  0  0  0  0  0  0  0  0  0  0
   24.6885  -24.3936  -16.5062 C   0  0  0  0  0  0  0  0  0  0  0  0
   25.3859  -23.5890  -15.4689 C   0  0  0  0  0  0  0  0  0  0  0  0
   26.1157  -24.1501  -14.6400 O   0  0  0  0  0  0  0  0  0  0  0  0
   26.8454  -19.2629  -13.9888 O   0  0  0  0  0  0  0  0  0  0  0  0
   26.0305  -19.9081  -14.9289 C   0  0  0  0  0  0  0  0  0  0  0  0
   25.8411  -21.3152  -14.4528 C   0  0  2  0  0  0  0  0  0  0  0  0
   25.2233  -22.1780  -15.4183 N   0  0  0  0  0  0  0  0  0  0  0  0
   25.1379  -21.4030  -13.1432 C   0  0  0  0  0  0  0  0  0  0  0  0
   23.8934  -21.4231  -13.1350 O   0  0  0  0  0  0  0  0  0  0  0  0
   26.5871  -19.3920   -7.4358 C   0  0  0  0  0  0  0  0  0  0  0  0
   25.6697  -20.1412   -8.3550 C   0  0  2  0  0  0  0  0  0  0  0  0
   25.1416  -21.4155   -7.6679 C   0  0  0  0  0  0  0  0  0  0  0  0
   26.2280  -20.4860   -9.6891 C   0  0  0  0  0  0  0  0  0  0  0  0
   25.2851  -21.0973  -10.6753 C   0  0  2  0  0  0  0  0  0  0  0  0
   25.8807  -21.4631  -11.9189 N   0  0  0  0  0  0  0  0  0  0  0  0
   24.0502  -20.2910  -10.8506 C   0  0  0  0  0  0  0  0  0  0  0  0
   24.0666  -19.2993  -11.6237 O   0  0  0  0  0  0  0  0  0  0  0  0
   22.8683  -20.5785  -10.1988 O   0  0  0  0  0  0  0  0  0  0  0  0
  2  3  1  0
  2  1  1  0
  3  4  2  0
  5  6  1  0
  7  6  1  6
  7  9  1  0
  8  7  1  0
  8  3  1  0
  9 10  2  0
 12 11  1  1
 13 12  1  0
 14 12  1  0
 15 14  1  1
 15 17  1  0
 16  9  1  0
 16 15  1  0
 17 18  2  0
 17 19  1  0
M  END
$$$$
