GSL.pdb
     RDKit          3D

 19 18  0  0  1  0  0  0  0  0999 V2000
   19.6117  -12.2150  -19.9799 N   0  0  0  0  0  0  0  0  0  0  0  0
   19.1581  -10.8668  -19.7465 C   0  0  0  0  0  0  0  0  0  0  0  0
   20.1648  -10.1290  -18.9390 C   0  0  0  0  0  0  0  0  0  0  0  0
   20.5155  -10.5711  -17.8363 O   0  0  0  0  0  0  0  0  0  0  0  0
   22.9264   -7.5761  -20.5515 O   0  0  0  0  0  0  0  0  0  0  0  0
   22.2373   -6.9761  -19.4888 C   0  0  0  0  0  0  0  0  0  0  0  0
   21.6306   -8.0810  -18.6802 C   0  0  2  0  0  0  0  0  0  0  0  0
   20.7308   -8.9177  -19.4209 N   0  0  0  0  0  0  0  0  0  0  0  0
   20.9914   -7.6060  -17.4220 C   0  0  0  0  0  0  0  0  0  0  0  0
   19.7874   -7.2913  -17.4471 O   0  0  0  0  0  0  0  0  0  0  0  0
   19.6703   -6.5634  -12.6432 C   0  0  0  0  0  0  0  0  0  0  0  0
   20.2339   -7.9487  -12.7477 C   0  0  2  0  0  0  0  0  0  0  0  0
   21.0620   -8.2895  -11.4935 C   0  0  0  0  0  0  0  0  0  0  0  0
   21.0334   -8.2332  -13.9685 C   0  0  0  0  0  0  0  0  0  0  0  0
   21.1308   -7.1361  -14.9796 C   0  0  2  0  0  0  0  0  0  0  0  0
   21.7487   -7.5139  -16.2086 N   0  0  0  0  0  0  0  0  0  0  0  0
   21.7095   -5.8927  -14.4097 C   0  0  0  0  0  0  0  0  0  0  0  0
   22.9532   -5.7128  -14.4599 O   0  0  0  0  0  0  0  0  0  0  0  0
   20.9411   -4.9102  -13.8192 O   0  0  0  0  0  0  0  0  0  0  0  0
  2  3  1  0
  2  1  1  0
  3  4  2  0
  5  6  1  0
  7  6  1  6
  7  9  1  0
  8  7  1  0
  8  3  1  0
  9 10  2  0
 12 11  1  1
 13 12  1  0
 14 12  1  0
 15 14  1  1
 15 17  1  0
 16  9  1  0
 16 15  1  0
 17 18  2  0
 17 19  1  0
M  END
$$$$
