GSL.pdb
     RDKit          3D

 19 18  0  0  1  0  0  0  0  0999 V2000
   29.4595   -8.6653  -18.7414 N   0  0  0  0  0  0  0  0  0  0  0  0
   30.8731   -8.8681  -18.9376 C   0  0  0  0  0  0  0  0  0  0  0  0
   31.5994   -8.6188  -17.6647 C   0  0  0  0  0  0  0  0  0  0  0  0
   31.1044   -7.8741  -16.8075 O   0  0  0  0  0  0  0  0  0  0  0  0
   33.9876  -11.3030  -15.9611 O   0  0  0  0  0  0  0  0  0  0  0  0
   34.6789  -10.0847  -16.0060 C   0  0  0  0  0  0  0  0  0  0  0  0
   33.6626   -9.0126  -16.2511 C   0  0  2  0  0  0  0  0  0  0  0  0
   32.8600   -9.2281  -17.4207 N   0  0  0  0  0  0  0  0  0  0  0  0
   34.2440   -7.6418  -16.2578 C   0  0  0  0  0  0  0  0  0  0  0  0
   34.7771   -7.2255  -17.3026 O   0  0  0  0  0  0  0  0  0  0  0  0
   32.6083   -3.8593  -16.5585 C   0  0  0  0  0  0  0  0  0  0  0  0
   32.5677   -4.2239  -15.1048 C   0  0  2  0  0  0  0  0  0  0  0  0
   31.7811   -3.1666  -14.3060 C   0  0  0  0  0  0  0  0  0  0  0  0
   33.8854   -4.4619  -14.4588 C   0  0  0  0  0  0  0  0  0  0  0  0
   34.7558   -5.5112  -15.0727 C   0  0  2  0  0  0  0  0  0  0  0  0
   34.1897   -6.8206  -15.0843 N   0  0  0  0  0  0  0  0  0  0  0  0
   36.1358   -5.4922  -14.5241 C   0  0  0  0  0  0  0  0  0  0  0  0
   36.8231   -4.4435  -14.6218 O   0  0  0  0  0  0  0  0  0  0  0  0
   36.7110   -6.5823  -13.9035 O   0  0  0  0  0  0  0  0  0  0  0  0
  2  3  1  0
  2  1  1  0
  3  4  2  0
  5  6  1  0
  7  6  1  6
  7  9  1  0
  8  7  1  0
  8  3  1  0
  9 10  2  0
 12 11  1  6
 13 12  1  0
 14 12  1  0
 15 14  1  1
 15 17  1  0
 16  9  1  0
 16 15  1  0
 17 18  2  0
 17 19  1  0
M  END
$$$$
