GSL.pdb
     RDKit          3D

 19 18  0  0  1  0  0  0  0  0999 V2000
   18.5589  -11.6745    4.4598 N   0  0  0  0  0  0  0  0  0  0  0  0
   17.8442  -12.9223    4.5585 C   0  0  0  0  0  0  0  0  0  0  0  0
   18.0799  -13.5339    5.8927 C   0  0  0  0  0  0  0  0  0  0  0  0
   18.9010  -13.0253    6.6684 O   0  0  0  0  0  0  0  0  0  0  0  0
   16.2539  -17.2049    6.9436 O   0  0  0  0  0  0  0  0  0  0  0  0
   16.2945  -16.1963    7.9158 C   0  0  0  0  0  0  0  0  0  0  0  0
   17.4572  -15.3130    7.5830 C   0  0  2  0  0  0  0  0  0  0  0  0
   17.3706  -14.7001    6.2887 N   0  0  0  0  0  0  0  0  0  0  0  0
   18.7746  -15.9839    7.7599 C   0  0  0  0  0  0  0  0  0  0  0  0
   19.2418  -16.6398    6.8107 O   0  0  0  0  0  0  0  0  0  0  0  0
   24.1333  -15.4684   10.7512 C   0  0  0  0  0  0  0  0  0  0  0  0
   23.1437  -16.2883    9.9791 C   0  0  2  0  0  0  0  0  0  0  0  0
   23.7548  -16.7525    8.6427 C   0  0  0  0  0  0  0  0  0  0  0  0
   21.8245  -15.6489    9.7316 C   0  0  0  0  0  0  0  0  0  0  0  0
   20.7436  -16.5263    9.1864 C   0  0  2  0  0  0  0  0  0  0  0  0
   19.4883  -15.8753    8.9982 N   0  0  0  0  0  0  0  0  0  0  0  0
   20.6172  -17.8005    9.9389 C   0  0  0  0  0  0  0  0  0  0  0  0
   19.8276  -17.8633   10.9157 O   0  0  0  0  0  0  0  0  0  0  0  0
   21.3323  -18.9358    9.6163 O   0  0  0  0  0  0  0  0  0  0  0  0
  2  3  1  0
  2  1  1  0
  3  4  2  0
  5  6  1  0
  7  6  1  6
  7  9  1  0
  8  7  1  0
  8  3  1  0
  9 10  2  0
 12 11  1  6
 13 12  1  0
 14 12  1  0
 15 14  1  1
 15 17  1  0
 16  9  1  0
 16 15  1  0
 17 18  2  0
 17 19  1  0
M  END
$$$$
