GSL.pdb
     RDKit          3D

 19 18  0  0  1  0  0  0  0  0999 V2000
   13.8059   -9.2798  -18.3981 N   0  0  0  0  0  0  0  0  0  0  0  0
   14.9993   -8.5470  -18.7399 C   0  0  0  0  0  0  0  0  0  0  0  0
   15.9300   -8.5310  -17.5809 C   0  0  0  0  0  0  0  0  0  0  0  0
   16.0435   -7.5059  -16.8948 O   0  0  0  0  0  0  0  0  0  0  0  0
   16.9274  -11.6373  -14.8663 O   0  0  0  0  0  0  0  0  0  0  0  0
   17.9208  -11.1956  -15.7508 C   0  0  0  0  0  0  0  0  0  0  0  0
   17.5785   -9.7870  -16.1266 C   0  0  2  0  0  0  0  0  0  0  0  0
   16.6934   -9.6835  -17.2511 N   0  0  0  0  0  0  0  0  0  0  0  0
   18.7754   -8.9224  -16.3185 C   0  0  0  0  0  0  0  0  0  0  0  0
   19.2782   -8.8439  -17.4544 O   0  0  0  0  0  0  0  0  0  0  0  0
   22.2437   -4.6108  -13.3357 C   0  0  0  0  0  0  0  0  0  0  0  0
   21.9486   -5.5261  -14.4858 C   0  0  2  0  0  0  0  0  0  0  0  0
   21.8939   -4.7324  -15.8056 C   0  0  0  0  0  0  0  0  0  0  0  0
   20.7262   -6.3618  -14.3527 C   0  0  0  0  0  0  0  0  0  0  0  0
   20.5424   -7.4502  -15.3612 C   0  0  2  0  0  0  0  0  0  0  0  0
   19.3352   -8.1965  -15.2166 N   0  0  0  0  0  0  0  0  0  0  0  0
   21.7399   -8.3210  -15.4769 C   0  0  0  0  0  0  0  0  0  0  0  0
   21.8154   -9.3612  -14.7741 O   0  0  0  0  0  0  0  0  0  0  0  0
   22.7896   -8.0430  -16.3285 O   0  0  0  0  0  0  0  0  0  0  0  0
  2  3  1  0
  2  1  1  0
  3  4  2  0
  5  6  1  0
  7  6  1  6
  7  9  1  0
  8  7  1  0
  8  3  1  0
  9 10  2  0
 12 11  1  1
 13 12  1  0
 14 12  1  0
 15 14  1  1
 15 17  1  0
 16  9  1  0
 16 15  1  0
 17 18  2  0
 17 19  1  0
M  END
$$$$
