HID.pdb
     RDKit          3D

 27 27  0  0  1  0  0  0  0  0999 V2000
   28.2695  -10.2035  -19.4889 N   0  0  0  0  0  0  0  0  0  0  0  0
   27.8834   -9.2445  -18.4996 C   0  0  1  0  0  0  0  0  0  0  0  0
   28.1709   -7.8226  -18.9620 C   0  0  0  0  0  0  0  0  0  0  0  0
   29.5846   -7.6125  -19.2584 C   0  0  0  0  0  0  0  0  0  0  0  0
   30.5372   -7.1897  -18.3626 C   0  0  0  0  0  0  0  0  0  0  0  0
   31.7382   -7.1086  -18.9938 N   0  0  0  0  0  0  0  0  0  0  0  0
   31.4940   -7.4845  -20.2658 C   0  0  0  0  0  0  0  0  0  0  0  0
   30.1934   -7.7915  -20.4361 N   0  0  0  0  0  0  0  0  0  0  0  0
   26.4228   -9.3820  -18.1430 C   0  0  0  0  0  0  0  0  0  0  0  0
   25.5643   -9.5013  -19.0405 O   0  0  0  0  0  0  0  0  0  0  0  0
   26.2649  -12.1199  -14.1245 C   0  0  0  0  0  0  0  0  0  0  0  0
   25.2274  -11.8205  -15.1995 C   0  0  0  0  0  0  0  0  0  0  0  0
   24.6354  -10.4626  -15.0479 C   0  0  2  0  0  0  0  0  0  0  0  0
   23.1645  -10.6954  -14.6586 C   0  0  0  0  0  0  0  0  0  0  0  0
   24.7618   -9.5529  -16.2296 C   0  0  2  0  0  0  0  0  0  0  0  0
   26.0731   -9.3708  -16.7778 N   0  0  0  0  0  0  0  0  0  0  0  0
   23.9357   -8.3571  -16.2432 C   0  0  0  0  0  0  0  0  0  0  0  0
   24.1859   -7.3448  -15.5419 O   0  0  0  0  0  0  0  0  0  0  0  0
   22.7529   -8.2141  -17.0587 N   0  0  0  0  0  0  0  0  0  0  0  0
   21.9240   -7.0541  -17.0628 C   0  0  1  0  0  0  0  0  0  0  0  0
   21.4099   -6.6362  -18.3924 C   0  0  0  0  0  0  0  0  0  0  0  0
   20.6320   -5.3816  -18.3450 C   0  0  0  0  0  0  0  0  0  0  0  0
   20.4498   -4.7390  -17.2885 O   0  0  0  0  0  0  0  0  0  0  0  0
   20.8183   -7.1316  -16.0722 C   0  0  0  0  0  0  0  0  0  0  0  0
   20.6298   -6.0632  -15.2218 O   0  0  0  0  0  0  0  0  0  0  0  0
   20.0458   -4.8310  -19.4927 O   0  0  0  0  0  0  0  0  0  0  0  0
   20.0758   -8.1190  -15.9962 O   0  0  0  0  0  0  0  0  0  0  0  0
  2  1  1  6
  2  3  1  0
  4  3  1  0
  5  4  2  0
  6  7  1  0
  6  5  1  0
  7  8  2  0
  8  4  1  0
  9 16  1  0
  9  2  1  0
 10  9  2  0
 12 11  1  0
 13 12  1  0
 13 14  1  6
 15 13  1  0
 15 16  1  1
 17 15  1  0
 18 17  2  0
 19 17  1  0
 20 19  1  0
 21 22  1  0
 20 21  1  6
 22 26  1  0
 23 22  2  0
 24 20  1  0
 24 25  1  0
 27 24  2  0
M  END
$$$$
