HID.pdb
     RDKit          3D

 27 27  0  0  1  0  0  0  0  0999 V2000
   19.7586  -13.9577  -18.5573 N   0  0  0  0  0  0  0  0  0  0  0  0
   20.1570  -12.6253  -18.8941 C   0  0  1  0  0  0  0  0  0  0  0  0
   19.1683  -11.9751  -19.8521 C   0  0  0  0  0  0  0  0  0  0  0  0
   19.0411  -12.7163  -21.1031 C   0  0  0  0  0  0  0  0  0  0  0  0
   20.0234  -12.8597  -22.0533 C   0  0  0  0  0  0  0  0  0  0  0  0
   19.5453  -13.6128  -23.0789 N   0  0  0  0  0  0  0  0  0  0  0  0
   18.2772  -13.9147  -22.7332 C   0  0  0  0  0  0  0  0  0  0  0  0
   17.9624  -13.3767  -21.5390 N   0  0  0  0  0  0  0  0  0  0  0  0
   20.3122  -11.7705  -17.6593 C   0  0  0  0  0  0  0  0  0  0  0  0
   19.3970  -11.7152  -16.8131 O   0  0  0  0  0  0  0  0  0  0  0  0
   24.6159  -12.0834  -14.5512 C   0  0  0  0  0  0  0  0  0  0  0  0
   23.2440  -11.8411  -15.1683 C   0  0  0  0  0  0  0  0  0  0  0  0
   23.0849  -10.4431  -15.6556 C   0  0  2  0  0  0  0  0  0  0  0  0
   23.1984   -9.5548  -14.4036 C   0  0  0  0  0  0  0  0  0  0  0  0
   21.8390  -10.1539  -16.4328 C   0  0  2  0  0  0  0  0  0  0  0  0
   21.5127  -11.0492  -17.5029 N   0  0  0  0  0  0  0  0  0  0  0  0
   21.5288   -8.7598  -16.7028 C   0  0  0  0  0  0  0  0  0  0  0  0
   22.0936   -8.0962  -17.6081 O   0  0  0  0  0  0  0  0  0  0  0  0
   20.5469   -8.0034  -15.9624 N   0  0  0  0  0  0  0  0  0  0  0  0
   20.2470   -6.6314  -16.2087 C   0  0  1  0  0  0  0  0  0  0  0  0
   18.9732   -6.3709  -16.9271 C   0  0  0  0  0  0  0  0  0  0  0  0
   18.7311   -4.9353  -17.1758 C   0  0  0  0  0  0  0  0  0  0  0  0
   18.0314   -4.2271  -16.4198 O   0  0  0  0  0  0  0  0  0  0  0  0
   20.3424   -5.7916  -14.9859 C   0  0  0  0  0  0  0  0  0  0  0  0
   20.5170   -4.4329  -15.1410 O   0  0  0  0  0  0  0  0  0  0  0  0
   19.2764   -4.2745  -18.2847 O   0  0  0  0  0  0  0  0  0  0  0  0
   20.2697   -6.2784  -13.8503 O   0  0  0  0  0  0  0  0  0  0  0  0
  2  1  1  1
  2  3  1  0
  4  3  1  0
  5  4  2  0
  6  7  1  0
  6  5  1  0
  7  8  2  0
  8  4  1  0
  9 16  1  0
  9  2  1  0
 10  9  2  0
 12 11  1  0
 13 12  1  0
 13 14  1  1
 15 13  1  0
 15 16  1  6
 17 15  1  0
 18 17  2  0
 19 17  1  0
 20 19  1  0
 21 22  1  0
 20 21  1  1
 22 26  1  0
 23 22  2  0
 24 20  1  0
 24 25  1  0
 27 24  2  0
M  END
$$$$
