HID.pdb
     RDKit          3D

 27 27  0  0  1  0  0  0  0  0999 V2000
   20.3474  -13.4134  -15.9779 N   0  0  0  0  0  0  0  0  0  0  0  0
   20.9302  -12.5051  -16.9175 C   0  0  1  0  0  0  0  0  0  0  0  0
   19.8717  -11.8790  -17.8152 C   0  0  0  0  0  0  0  0  0  0  0  0
   19.1427  -12.8780  -18.5906 C   0  0  0  0  0  0  0  0  0  0  0  0
   19.5943  -13.4907  -19.7348 C   0  0  0  0  0  0  0  0  0  0  0  0
   18.6483  -14.3602  -20.1782 N   0  0  0  0  0  0  0  0  0  0  0  0
   17.6355  -14.2607  -19.2932 C   0  0  0  0  0  0  0  0  0  0  0  0
   17.9250  -13.3661  -18.3285 N   0  0  0  0  0  0  0  0  0  0  0  0
   21.7155  -11.4216  -16.2184 C   0  0  0  0  0  0  0  0  0  0  0  0
   21.2636  -10.8819  -15.1882 O   0  0  0  0  0  0  0  0  0  0  0  0
   27.0704  -12.0063  -15.4774 C   0  0  0  0  0  0  0  0  0  0  0  0
   25.5774  -11.7036  -15.5116 C   0  0  0  0  0  0  0  0  0  0  0  0
   25.2849  -10.3832  -16.1347 C   0  0  2  0  0  0  0  0  0  0  0  0
   26.0465   -9.3492  -15.2860 C   0  0  0  0  0  0  0  0  0  0  0  0
   23.8380  -10.0287  -16.2789 C   0  0  2  0  0  0  0  0  0  0  0  0
   22.9595  -11.0502  -16.7666 N   0  0  0  0  0  0  0  0  0  0  0  0
   23.5221   -8.6911  -16.7520 C   0  0  0  0  0  0  0  0  0  0  0  0
   23.3215   -8.4235  -17.9633 O   0  0  0  0  0  0  0  0  0  0  0  0
   23.4081   -7.5440  -15.8828 N   0  0  0  0  0  0  0  0  0  0  0  0
   22.9817   -6.2547  -16.3175 C   0  0  1  0  0  0  0  0  0  0  0  0
   23.6702   -5.7221  -17.5213 C   0  0  0  0  0  0  0  0  0  0  0  0
   23.2397   -4.3550  -17.8780 C   0  0  0  0  0  0  0  0  0  0  0  0
   22.5101   -3.6614  -17.1370 O   0  0  0  0  0  0  0  0  0  0  0  0
   21.5062   -6.1558  -16.4687 C   0  0  0  0  0  0  0  0  0  0  0  0
   20.9078   -6.8599  -17.4917 O   0  0  0  0  0  0  0  0  0  0  0  0
   23.6271   -3.7476  -19.0800 O   0  0  0  0  0  0  0  0  0  0  0  0
   20.8152   -5.4660  -15.7080 O   0  0  0  0  0  0  0  0  0  0  0  0
  2  1  1  1
  2  3  1  0
  4  3  1  0
  5  4  2  0
  6  7  1  0
  6  5  1  0
  7  8  2  0
  8  4  1  0
  9 16  1  0
  9  2  1  0
 10  9  2  0
 12 11  1  0
 13 12  1  0
 13 14  1  1
 15 13  1  0
 15 16  1  6
 17 15  1  0
 18 17  2  0
 19 17  1  0
 20 19  1  0
 21 22  1  0
 20 21  1  6
 22 26  1  0
 23 22  2  0
 24 20  1  0
 24 25  1  0
 27 24  2  0
M  END
$$$$
