HID.pdb
     RDKit          3D

 27 27  0  0  1  0  0  0  0  0999 V2000
   22.0100  -14.8743  -18.2094 N   0  0  0  0  0  0  0  0  0  0  0  0
   22.4414  -13.6012  -18.6997 C   0  0  1  0  0  0  0  0  0  0  0  0
   21.5026  -13.0729  -19.7757 C   0  0  0  0  0  0  0  0  0  0  0  0
   21.4391  -13.9558  -20.9365 C   0  0  0  0  0  0  0  0  0  0  0  0
   22.2586  -13.8921  -22.0378 C   0  0  0  0  0  0  0  0  0  0  0  0
   21.9060  -14.8702  -22.9133 N   0  0  0  0  0  0  0  0  0  0  0  0
   20.8754  -15.5131  -22.3272 C   0  0  0  0  0  0  0  0  0  0  0  0
   20.5852  -14.9671  -21.1303 N   0  0  0  0  0  0  0  0  0  0  0  0
   22.5578  -12.5935  -17.5814 C   0  0  0  0  0  0  0  0  0  0  0  0
   21.8172  -12.6756  -16.5806 O   0  0  0  0  0  0  0  0  0  0  0  0
   27.3285  -11.6192  -15.4673 C   0  0  0  0  0  0  0  0  0  0  0  0
   25.8788  -11.7889  -15.9047 C   0  0  0  0  0  0  0  0  0  0  0  0
   25.2404  -10.4897  -16.2539 C   0  0  2  0  0  0  0  0  0  0  0  0
   25.3658   -9.6166  -14.9923 C   0  0  0  0  0  0  0  0  0  0  0  0
   23.8284  -10.5601  -16.7446 C   0  0  2  0  0  0  0  0  0  0  0  0
   23.5211  -11.5730  -17.7105 N   0  0  0  0  0  0  0  0  0  0  0  0
   23.1302   -9.3024  -16.9532 C   0  0  0  0  0  0  0  0  0  0  0  0
   23.4863   -8.4565  -17.8114 O   0  0  0  0  0  0  0  0  0  0  0  0
   21.9655   -8.9024  -16.1997 N   0  0  0  0  0  0  0  0  0  0  0  0
   21.2973   -7.6543  -16.3694 C   0  0  1  0  0  0  0  0  0  0  0  0
   19.8130   -7.7150  -16.3711 C   0  0  0  0  0  0  0  0  0  0  0  0
   19.2743   -8.7015  -17.3292 C   0  0  0  0  0  0  0  0  0  0  0  0
   19.5522   -8.6815  -18.5478 O   0  0  0  0  0  0  0  0  0  0  0  0
   21.7798   -6.6091  -15.4289 C   0  0  0  0  0  0  0  0  0  0  0  0
   21.3787   -5.3073  -15.6406 O   0  0  0  0  0  0  0  0  0  0  0  0
   18.4109   -9.7290  -16.9259 O   0  0  0  0  0  0  0  0  0  0  0  0
   22.5219   -6.8786  -14.4757 O   0  0  0  0  0  0  0  0  0  0  0  0
  2  1  1  1
  2  3  1  0
  4  3  1  0
  5  4  2  0
  6  7  1  0
  6  5  1  0
  7  8  2  0
  8  4  1  0
  9 16  1  0
  9  2  1  0
 10  9  2  0
 12 11  1  0
 13 12  1  0
 13 14  1  1
 15 13  1  0
 15 16  1  6
 17 15  1  0
 18 17  2  0
 19 17  1  0
 20 19  1  0
 21 22  1  0
 20 21  1  1
 22 26  1  0
 23 22  2  0
 24 20  1  0
 24 25  1  0
 27 24  2  0
M  END
$$$$
