HID.pdb
     RDKit          3D

 27 27  0  0  1  0  0  0  0  0999 V2000
   34.9372   -3.9542  -16.0895 N   0  0  0  0  0  0  0  0  0  0  0  0
   34.1199   -4.8978  -15.3903 C   0  0  1  0  0  0  0  0  0  0  0  0
   32.8654   -4.2402  -14.8319 C   0  0  0  0  0  0  0  0  0  0  0  0
   33.1717   -3.2364  -13.8173 C   0  0  0  0  0  0  0  0  0  0  0  0
   34.4289   -2.9026  -13.3740 C   0  0  0  0  0  0  0  0  0  0  0  0
   34.3252   -1.9314  -12.4288 N   0  0  0  0  0  0  0  0  0  0  0  0
   33.0031   -1.6911  -12.3138 C   0  0  0  0  0  0  0  0  0  0  0  0
   32.2964   -2.4760  -13.1501 N   0  0  0  0  0  0  0  0  0  0  0  0
   33.7387   -6.0576  -16.2785 C   0  0  0  0  0  0  0  0  0  0  0  0
   33.4197   -5.8606  -17.4686 O   0  0  0  0  0  0  0  0  0  0  0  0
   35.9819  -10.0169  -14.3705 C   0  0  0  0  0  0  0  0  0  0  0  0
   35.4656   -9.8764  -15.7972 C   0  0  0  0  0  0  0  0  0  0  0  0
   33.9782   -9.8377  -15.8564 C   0  0  2  0  0  0  0  0  0  0  0  0
   33.5679  -11.0531  -16.7073 C   0  0  0  0  0  0  0  0  0  0  0  0
   33.3718   -8.5689  -16.3683 C   0  0  2  0  0  0  0  0  0  0  0  0
   33.7574   -7.3510  -15.7192 N   0  0  0  0  0  0  0  0  0  0  0  0
   31.9785   -8.6130  -16.7797 C   0  0  0  0  0  0  0  0  0  0  0  0
   31.0336   -8.2492  -16.0355 O   0  0  0  0  0  0  0  0  0  0  0  0
   31.5441   -9.0762  -18.0763 N   0  0  0  0  0  0  0  0  0  0  0  0
   30.1787   -9.1428  -18.4818 C   0  0  1  0  0  0  0  0  0  0  0  0
   29.7289   -8.0681  -19.4034 C   0  0  0  0  0  0  0  0  0  0  0  0
   28.3189   -8.2130  -19.8185 C   0  0  0  0  0  0  0  0  0  0  0  0
   27.3607   -7.9458  -19.0616 O   0  0  0  0  0  0  0  0  0  0  0  0
   29.7977  -10.4800  -19.0075 C   0  0  0  0  0  0  0  0  0  0  0  0
   28.5495  -10.9726  -18.6914 O   0  0  0  0  0  0  0  0  0  0  0  0
   27.9672   -8.6632  -21.0982 O   0  0  0  0  0  0  0  0  0  0  0  0
   30.5647  -11.1494  -19.7115 O   0  0  0  0  0  0  0  0  0  0  0  0
  2  1  1  6
  2  3  1  0
  4  3  1  0
  5  4  2  0
  6  7  1  0
  6  5  1  0
  7  8  2  0
  8  4  1  0
  9 16  1  0
  9  2  1  0
 10  9  2  0
 12 11  1  0
 13 12  1  0
 13 14  1  6
 15 13  1  0
 15 16  1  1
 17 15  1  0
 18 17  2  0
 19 17  1  0
 20 19  1  0
 21 22  1  0
 20 21  1  6
 22 26  1  0
 23 22  2  0
 24 20  1  0
 24 25  1  0
 27 24  2  0
M  END
$$$$
