HID.pdb
     RDKit          3D

 27 27  0  0  1  0  0  0  0  0999 V2000
   18.6359  -22.8162  -13.8675 N   0  0  0  0  0  0  0  0  0  0  0  0
   19.0696  -22.7594  -12.5052 C   0  0  1  0  0  0  0  0  0  0  0  0
   18.7669  -21.4038  -11.8816 C   0  0  0  0  0  0  0  0  0  0  0  0
   19.4425  -20.3121  -12.5762 C   0  0  0  0  0  0  0  0  0  0  0  0
   18.8242  -19.2889  -13.2538 C   0  0  0  0  0  0  0  0  0  0  0  0
   19.7700  -18.4611  -13.7713 N   0  0  0  0  0  0  0  0  0  0  0  0
   20.9499  -18.9971  -13.3982 C   0  0  0  0  0  0  0  0  0  0  0  0
   20.7624  -20.1178  -12.6744 N   0  0  0  0  0  0  0  0  0  0  0  0
   18.4365  -23.8552  -11.6818 C   0  0  0  0  0  0  0  0  0  0  0  0
   17.2269  -24.1278  -11.8208 O   0  0  0  0  0  0  0  0  0  0  0  0
   20.7615  -28.6262  -11.5712 C   0  0  0  0  0  0  0  0  0  0  0  0
   19.8245  -27.4269  -11.4991 C   0  0  0  0  0  0  0  0  0  0  0  0
   19.6586  -26.9249  -10.1071 C   0  0  2  0  0  0  0  0  0  0  0  0
   19.0345  -28.0914   -9.3200 C   0  0  0  0  0  0  0  0  0  0  0  0
   18.8699  -25.6626   -9.9513 C   0  0  2  0  0  0  0  0  0  0  0  0
   19.2531  -24.5471  -10.7650 N   0  0  0  0  0  0  0  0  0  0  0  0
   18.4393  -25.3054   -8.6098 C   0  0  0  0  0  0  0  0  0  0  0  0
   19.2172  -24.8283   -7.7459 O   0  0  0  0  0  0  0  0  0  0  0  0
   17.0834  -25.4621   -8.1393 N   0  0  0  0  0  0  0  0  0  0  0  0
   16.6512  -25.1151   -6.8256 C   0  0  1  0  0  0  0  0  0  0  0  0
   15.2955  -24.5153   -6.7324 C   0  0  0  0  0  0  0  0  0  0  0  0
   15.0045  -23.9440   -5.4018 C   0  0  0  0  0  0  0  0  0  0  0  0
   15.8601  -23.8783   -4.4929 O   0  0  0  0  0  0  0  0  0  0  0  0
   16.8000  -26.2318   -5.8557 C   0  0  0  0  0  0  0  0  0  0  0  0
   17.1968  -25.9296   -4.5705 O   0  0  0  0  0  0  0  0  0  0  0  0
   13.7397  -23.4366   -5.0753 O   0  0  0  0  0  0  0  0  0  0  0  0
   16.5787  -27.4077   -6.1725 O   0  0  0  0  0  0  0  0  0  0  0  0
  2  1  1  6
  2  3  1  0
  4  3  1  0
  5  4  2  0
  6  7  1  0
  6  5  1  0
  7  8  2  0
  8  4  1  0
  9 16  1  0
  9  2  1  0
 10  9  2  0
 12 11  1  0
 13 12  1  0
 13 14  1  1
 15 13  1  0
 15 16  1  1
 17 15  1  0
 18 17  2  0
 19 17  1  0
 20 19  1  0
 21 22  1  0
 20 21  1  6
 22 26  1  0
 23 22  2  0
 24 20  1  0
 24 25  1  0
 27 24  2  0
M  END
$$$$
