HID.pdb
     RDKit          3D

 27 27  0  0  1  0  0  0  0  0999 V2000
   27.0787  -20.1649  -16.5725 N   0  0  0  0  0  0  0  0  0  0  0  0
   26.2703  -19.3019  -15.7669 C   0  0  1  0  0  0  0  0  0  0  0  0
   25.5409  -18.2704  -16.6168 C   0  0  0  0  0  0  0  0  0  0  0  0
   26.4617  -17.3896  -17.3290 C   0  0  0  0  0  0  0  0  0  0  0  0
   27.0852  -16.2852  -16.7999 C   0  0  0  0  0  0  0  0  0  0  0  0
   27.8662  -15.7140  -17.7545 N   0  0  0  0  0  0  0  0  0  0  0  0
   27.7034  -16.4833  -18.8501 C   0  0  0  0  0  0  0  0  0  0  0  0
   26.8550  -17.5002  -18.6028 N   0  0  0  0  0  0  0  0  0  0  0  0
   25.2746  -20.0887  -14.9490 C   0  0  0  0  0  0  0  0  0  0  0  0
   24.6012  -20.9954  -15.4793 O   0  0  0  0  0  0  0  0  0  0  0  0
   26.6173  -20.9564   -9.6257 C   0  0  0  0  0  0  0  0  0  0  0  0
   26.1004  -21.1127  -11.0505 C   0  0  0  0  0  0  0  0  0  0  0  0
   24.7512  -20.5086  -11.2294 C   0  0  2  0  0  0  0  0  0  0  0  0
   23.8021  -21.3561  -10.3630 C   0  0  0  0  0  0  0  0  0  0  0  0
   24.2632  -20.3916  -12.6393 C   0  0  2  0  0  0  0  0  0  0  0  0
   25.1382  -19.7637  -13.5845 N   0  0  0  0  0  0  0  0  0  0  0  0
   22.8548  -20.0911  -12.8358 C   0  0  0  0  0  0  0  0  0  0  0  0
   22.3196  -19.0276  -12.4338 O   0  0  0  0  0  0  0  0  0  0  0  0
   21.9362  -20.9791  -13.5083 N   0  0  0  0  0  0  0  0  0  0  0  0
   20.5387  -20.7286  -13.6399 C   0  0  1  0  0  0  0  0  0  0  0  0
   19.8988  -21.2816  -14.8610 C   0  0  0  0  0  0  0  0  0  0  0  0
   19.8645  -20.3217  -15.9830 C   0  0  0  0  0  0  0  0  0  0  0  0
   20.3322  -19.1656  -15.8977 O   0  0  0  0  0  0  0  0  0  0  0  0
   19.7684  -21.1055  -12.4257 C   0  0  0  0  0  0  0  0  0  0  0  0
   20.0577  -22.3088  -11.8184 O   0  0  0  0  0  0  0  0  0  0  0  0
   19.3003  -20.6524  -17.2223 O   0  0  0  0  0  0  0  0  0  0  0  0
   18.8872  -20.3740  -11.9564 O   0  0  0  0  0  0  0  0  0  0  0  0
  2  1  1  6
  2  3  1  0
  4  3  1  0
  5  4  2  0
  6  7  1  0
  6  5  1  0
  7  8  2  0
  8  4  1  0
  9 16  1  0
  9  2  1  0
 10  9  2  0
 12 11  1  0
 13 12  1  0
 13 14  1  1
 15 13  1  0
 15 16  1  1
 17 15  1  0
 18 17  2  0
 19 17  1  0
 20 19  1  0
 21 22  1  0
 20 21  1  6
 22 26  1  0
 23 22  2  0
 24 20  1  0
 24 25  1  0
 27 24  2  0
M  END
$$$$
