HID.pdb
     RDKit          3D

 27 27  0  0  1  0  0  0  0  0999 V2000
   22.6754  -15.0090  -19.3574 N   0  0  0  0  0  0  0  0  0  0  0  0
   22.4418  -13.6038  -19.4918 C   0  0  1  0  0  0  0  0  0  0  0  0
   21.1030  -13.3245  -20.1610 C   0  0  0  0  0  0  0  0  0  0  0  0
   21.0167  -13.9146  -21.4933 C   0  0  0  0  0  0  0  0  0  0  0  0
   20.1109  -14.8688  -21.8902 C   0  0  0  0  0  0  0  0  0  0  0  0
   20.3312  -15.1773  -23.1955 N   0  0  0  0  0  0  0  0  0  0  0  0
   21.3700  -14.4031  -23.5703 C   0  0  0  0  0  0  0  0  0  0  0  0
   21.7921  -13.6352  -22.5470 N   0  0  0  0  0  0  0  0  0  0  0  0
   22.5010  -12.9074  -18.1535 C   0  0  0  0  0  0  0  0  0  0  0  0
   21.9003  -13.3836  -17.1692 O   0  0  0  0  0  0  0  0  0  0  0  0
   26.3479  -10.3978  -14.3650 C   0  0  0  0  0  0  0  0  0  0  0  0
   24.9675  -10.2115  -14.9829 C   0  0  0  0  0  0  0  0  0  0  0  0
   24.7949  -11.0119  -16.2266 C   0  0  2  0  0  0  0  0  0  0  0  0
   25.9268  -10.5611  -17.1673 C   0  0  0  0  0  0  0  0  0  0  0  0
   23.4542  -10.9240  -16.8860 C   0  0  2  0  0  0  0  0  0  0  0  0
   23.2501  -11.7172  -18.0617 N   0  0  0  0  0  0  0  0  0  0  0  0
   22.8132   -9.6201  -16.9246 C   0  0  0  0  0  0  0  0  0  0  0  0
   23.1739   -8.7033  -17.7046 O   0  0  0  0  0  0  0  0  0  0  0  0
   21.7051   -9.2508  -16.0759 N   0  0  0  0  0  0  0  0  0  0  0  0
   21.0613   -7.9792  -16.1152 C   0  0  1  0  0  0  0  0  0  0  0  0
   19.5768   -8.0088  -16.0696 C   0  0  0  0  0  0  0  0  0  0  0  0
   18.9675   -6.6657  -16.1497 C   0  0  0  0  0  0  0  0  0  0  0  0
   18.7288   -5.9705  -15.1386 O   0  0  0  0  0  0  0  0  0  0  0  0
   21.5995   -7.0288  -15.1068 C   0  0  0  0  0  0  0  0  0  0  0  0
   21.4071   -5.6798  -15.3157 O   0  0  0  0  0  0  0  0  0  0  0  0
   18.6172   -6.0844  -17.3757 O   0  0  0  0  0  0  0  0  0  0  0  0
   22.2067   -7.4167  -14.1005 O   0  0  0  0  0  0  0  0  0  0  0  0
  2  1  1  1
  2  3  1  0
  4  3  1  0
  5  4  2  0
  6  7  1  0
  6  5  1  0
  7  8  2  0
  8  4  1  0
  9 16  1  0
  9  2  1  0
 10  9  2  0
 12 11  1  0
 13 12  1  0
 13 14  1  6
 15 13  1  0
 15 16  1  6
 17 15  1  0
 18 17  2  0
 19 17  1  0
 20 19  1  0
 21 22  1  0
 20 21  1  1
 22 26  1  0
 23 22  2  0
 24 20  1  0
 24 25  1  0
 27 24  2  0
M  END
$$$$
