RYW.pdb
     RDKit          3D

 38 40  0  0  1  0  0  0  0  0999 V2000
    8.8324  -15.9712   15.0232 N   0  0  0  0  0  0  0  0  0  0  0  0
   10.1596  -16.3133   15.3509 C   0  0  0  0  0  0  0  0  0  0  0  0
   11.1781  -15.8653   14.6845 N   0  0  0  0  0  0  0  0  0  0  0  0
   10.3657  -17.1751   16.4464 N   0  0  0  0  0  0  0  0  0  0  0  0
    9.2306  -17.8472   17.0384 C   0  0  0  0  0  0  0  0  0  0  0  0
    9.1978  -17.6538   18.5342 C   0  0  0  0  0  0  0  0  0  0  0  0
   10.3963  -18.3482   19.1281 C   0  0  0  0  0  0  0  0  0  0  0  0
   10.3143  -18.4016   20.6363 C   0  0  2  0  0  0  0  0  0  0  0  0
    9.0476  -18.8998   21.1028 N   0  0  0  0  0  0  0  0  0  0  0  0
   10.5110  -17.0446   21.2256 C   0  0  0  0  0  0  0  0  0  0  0  0
   11.5897  -16.3892   21.0211 O   0  0  0  0  0  0  0  0  0  0  0  0
   12.1316  -16.1477   14.9452 O   0  0  0  0  0  0  0  0  0  0  0  0
    7.8369  -13.0240   16.7915 C   0  0  0  0  0  0  0  0  0  0  0  0
    7.9869  -13.3352   18.1366 C   0  0  0  0  0  0  0  0  0  0  0  0
    7.1741  -14.2549   18.7885 C   0  0  0  0  0  0  0  0  0  0  0  0
    7.3460  -14.5362   20.1003 C   0  0  0  0  0  0  0  0  0  0  0  0
    8.3327  -13.9162   20.8236 C   0  0  0  0  0  0  0  0  0  0  0  0
    8.5417  -14.1905   22.2658 C   0  0  2  0  0  0  0  0  0  0  0  0
    9.7172  -15.0593   22.5573 N   0  0  0  0  0  0  0  0  0  0  0  0
    9.5453  -16.4089   22.0273 C   0  0  0  0  0  0  0  0  0  0  0  0
    9.8903  -15.1674   24.0098 O   0  0  0  0  0  0  0  0  0  0  0  0
   10.2511  -14.2033   24.7446 C   0  0  0  0  0  0  0  0  0  0  0  0
    9.1555  -13.0011   20.2124 C   0  0  0  0  0  0  0  0  0  0  0  0
    8.9835  -12.7156   18.8864 N   0  0  0  0  0  0  0  0  0  0  0  0
    9.6465  -16.4071   24.6470 C   0  0  1  0  0  0  0  0  0  0  0  0
    9.8969  -16.6347   26.0653 C   0  0  0  0  0  0  0  0  0  0  0  0
    8.5368  -16.9495   26.6467 C   0  0  0  0  0  0  0  0  0  0  0  0
    7.6039  -15.8605   26.3015 C   0  0  0  0  0  0  0  0  0  0  0  0
    6.4336  -16.0218   25.5669 N   0  0  0  0  0  0  0  0  0  0  0  0
    5.8119  -14.8479   25.4914 C   0  0  0  0  0  0  0  0  0  0  0  0
    6.5224  -13.9278   26.1418 C   0  0  0  0  0  0  0  0  0  0  0  0
    6.3353  -12.5768   26.3571 C   0  0  0  0  0  0  0  0  0  0  0  0
    7.2475  -11.8296   27.0705 C   0  0  0  0  0  0  0  0  0  0  0  0
    8.3771  -12.4342   27.5856 C   0  0  0  0  0  0  0  0  0  0  0  0
    8.5487  -13.7790   27.3634 C   0  0  0  0  0  0  0  0  0  0  0  0
    7.6476  -14.5455   26.6538 C   0  0  0  0  0  0  0  0  0  0  0  0
   10.9502  -17.5932   26.3053 O   0  0  0  0  0  0  0  0  0  0  0  0
   11.5563  -18.1788   25.3675 O   0  0  0  0  0  0  0  0  0  0  0  0
  2  1  1  0
  2  3  2  0
  4  5  1  0
  4  2  1  0
  5  6  1  0
  6  7  1  0
  7  8  1  0
  8  9  1  6
 10 11  2  0
 10  8  1  0
 12 13  1  0
 13 23  2  0
 13 14  1  0
 14 15  2  0
 15 16  1  0
 16 17  1  0
 18 17  1  6
 18 19  1  0
 18 20  1  0
 19 10  1  0
 20 21  2  0
 22 16  2  0
 23 22  1  0
 24 20  1  0
 24 25  1  0
 25 26  1  1
 26 27  1  0
 27 28  2  0
 28 29  1  0
 30 31  2  0
 30 29  1  0
 32 31  1  0
 33 32  2  0
 34 33  1  0
 34 35  2  0
 35 27  1  0
 35 30  1  0
 36 25  1  0
 36 38  1  0
 37 36  2  0
M  END
$$$$
