RYW.pdb
     RDKit          3D

 38 40  0  0  1  0  0  0  0  0999 V2000
    9.5271  -16.1568   15.2616 N   0  0  0  0  0  0  0  0  0  0  0  0
    8.6009  -17.2188   15.2698 C   0  0  0  0  0  0  0  0  0  0  0  0
    7.4458  -17.1390   14.6852 N   0  0  0  0  0  0  0  0  0  0  0  0
    8.9626  -18.4024   15.9434 N   0  0  0  0  0  0  0  0  0  0  0  0
   10.0401  -18.3643   16.9068 C   0  0  0  0  0  0  0  0  0  0  0  0
    9.6015  -17.7116   18.1942 C   0  0  0  0  0  0  0  0  0  0  0  0
   10.7645  -17.7256   19.1527 C   0  0  0  0  0  0  0  0  0  0  0  0
   10.3137  -18.0130   20.5663 C   0  0  2  0  0  0  0  0  0  0  0  0
    8.9175  -18.3526   20.6419 N   0  0  0  0  0  0  0  0  0  0  0  0
   10.5388  -16.8278   21.4451 C   0  0  0  0  0  0  0  0  0  0  0  0
   11.6943  -16.2883   21.5378 O   0  0  0  0  0  0  0  0  0  0  0  0
    6.7618  -17.8998   14.7852 O   0  0  0  0  0  0  0  0  0  0  0  0
    7.9338  -12.6630   17.2248 C   0  0  0  0  0  0  0  0  0  0  0  0
    8.0636  -13.0199   18.5606 C   0  0  0  0  0  0  0  0  0  0  0  0
    7.1532  -13.8472   19.2073 C   0  0  0  0  0  0  0  0  0  0  0  0
    7.3078  -14.1765   20.5100 C   0  0  0  0  0  0  0  0  0  0  0  0
    8.3735  -13.6984   21.2291 C   0  0  0  0  0  0  0  0  0  0  0  0
    8.5676  -14.0282   22.6616 C   0  0  2  0  0  0  0  0  0  0  0  0
    9.6902  -14.9732   22.9233 N   0  0  0  0  0  0  0  0  0  0  0  0
    9.5185  -16.2372   22.2130 C   0  0  0  0  0  0  0  0  0  0  0  0
    9.7477  -15.2703   24.3585 O   0  0  0  0  0  0  0  0  0  0  0  0
   10.0566  -14.4152   25.2377 C   0  0  0  0  0  0  0  0  0  0  0  0
    9.2937  -12.8778   20.6228 C   0  0  0  0  0  0  0  0  0  0  0  0
    9.1393  -12.5440   19.3059 N   0  0  0  0  0  0  0  0  0  0  0  0
    9.4455  -16.5773   24.8089 C   0  0  1  0  0  0  0  0  0  0  0  0
    9.5876  -16.9915   26.1996 C   0  0  0  0  0  0  0  0  0  0  0  0
    8.1823  -17.3342   26.6407 C   0  0  0  0  0  0  0  0  0  0  0  0
    7.2904  -16.2036   26.3220 C   0  0  0  0  0  0  0  0  0  0  0  0
    6.1851  -16.2781   25.4806 N   0  0  0  0  0  0  0  0  0  0  0  0
    5.5813  -15.0926   25.4634 C   0  0  0  0  0  0  0  0  0  0  0  0
    6.2415  -14.2477   26.2536 C   0  0  0  0  0  0  0  0  0  0  0  0
    6.0475  -12.9195   26.5777 C   0  0  0  0  0  0  0  0  0  0  0  0
    6.9020  -12.2557   27.4311 C   0  0  0  0  0  0  0  0  0  0  0  0
    7.9793  -12.9229   27.9799 C   0  0  0  0  0  0  0  0  0  0  0  0
    8.1586  -14.2439   27.6484 C   0  0  0  0  0  0  0  0  0  0  0  0
    7.3146  -14.9275   26.7978 C   0  0  0  0  0  0  0  0  0  0  0  0
   10.5987  -18.0059   26.3854 O   0  0  0  0  0  0  0  0  0  0  0  0
   10.9598  -18.3976   27.5281 O   0  0  0  0  0  0  0  0  0  0  0  0
  2  1  1  0
  2  3  2  0
  4  5  1  0
  4  2  1  0
  5  6  1  0
  6  7  1  0
  7  8  1  0
  8  9  1  6
 10 11  2  0
 10  8  1  0
 12 13  1  0
 13 23  2  0
 13 14  1  0
 14 15  2  0
 15 16  1  0
 16 17  1  0
 18 17  1  6
 18 19  1  0
 18 20  1  0
 19 10  1  0
 20 21  2  0
 22 16  2  0
 23 22  1  0
 24 20  1  0
 24 25  1  0
 25 26  1  1
 26 27  1  0
 27 28  2  0
 28 29  1  0
 30 31  2  0
 30 29  1  0
 32 31  1  0
 33 32  2  0
 34 33  1  0
 34 35  2  0
 35 27  1  0
 35 30  1  0
 36 25  1  0
 36 38  1  0
 37 36  2  0
M  END
$$$$
