RYW.pdb
     RDKit          3D

 38 40  0  0  1  0  0  0  0  0999 V2000
   12.0332  -18.4864   14.5154 N   0  0  0  0  0  0  0  0  0  0  0  0
   11.4156  -19.3978   13.6357 C   0  0  0  0  0  0  0  0  0  0  0  0
   11.9691  -19.7773   12.5259 N   0  0  0  0  0  0  0  0  0  0  0  0
   10.1502  -19.9037   13.9940 N   0  0  0  0  0  0  0  0  0  0  0  0
    9.6062  -19.5857   15.2953 C   0  0  0  0  0  0  0  0  0  0  0  0
    9.9197  -20.6667   16.2997 C   0  0  0  0  0  0  0  0  0  0  0  0
    9.3706  -20.2438   17.6380 C   0  0  0  0  0  0  0  0  0  0  0  0
   10.4231  -19.5550   18.4759 C   0  0  2  0  0  0  0  0  0  0  0  0
   11.6232  -20.3379   18.6073 N   0  0  0  0  0  0  0  0  0  0  0  0
    9.9097  -19.2806   19.8501 C   0  0  0  0  0  0  0  0  0  0  0  0
    8.8000  -18.6708   20.0277 O   0  0  0  0  0  0  0  0  0  0  0  0
   11.4749  -20.4211   11.8951 O   0  0  0  0  0  0  0  0  0  0  0  0
    9.7734  -25.8018   23.2207 C   0  0  0  0  0  0  0  0  0  0  0  0
   10.0484  -24.4406   23.2372 C   0  0  0  0  0  0  0  0  0  0  0  0
   11.0987  -23.8793   22.5208 C   0  0  0  0  0  0  0  0  0  0  0  0
   11.3403  -22.5490   22.5578 C   0  0  0  0  0  0  0  0  0  0  0  0
   10.5499  -21.7165   23.3085 C   0  0  0  0  0  0  0  0  0  0  0  0
   10.7932  -20.2557   23.3826 C   0  0  2  0  0  0  0  0  0  0  0  0
   10.0569  -19.4620   22.3582 N   0  0  0  0  0  0  0  0  0  0  0  0
   10.5958  -19.6657   21.0166 C   0  0  0  0  0  0  0  0  0  0  0  0
   10.1743  -18.0348   22.6759 O   0  0  0  0  0  0  0  0  0  0  0  0
   11.1857  -17.3343   22.3828 C   0  0  0  0  0  0  0  0  0  0  0  0
    9.5024  -22.2362   24.0300 C   0  0  0  0  0  0  0  0  0  0  0  0
    9.2563  -23.5806   23.9937 N   0  0  0  0  0  0  0  0  0  0  0  0
    9.1117  -17.3838   23.3463 C   0  0  2  0  0  0  0  0  0  0  0  0
    9.1075  -15.9532   23.6280 C   0  0  0  0  0  0  0  0  0  0  0  0
    7.6566  -15.5449   23.5044 C   0  0  0  0  0  0  0  0  0  0  0  0
    7.5519  -14.0851   23.6864 C   0  0  0  0  0  0  0  0  0  0  0  0
    7.8647  -13.1402   22.7145 N   0  0  0  0  0  0  0  0  0  0  0  0
    7.6029  -11.9284   23.1975 C   0  0  0  0  0  0  0  0  0  0  0  0
    7.1346  -12.0383   24.4396 C   0  0  0  0  0  0  0  0  0  0  0  0
    6.7273  -11.1078   25.3749 C   0  0  0  0  0  0  0  0  0  0  0  0
    6.2859  -11.4894   26.6235 C   0  0  0  0  0  0  0  0  0  0  0  0
    6.2460  -12.8286   26.9578 C   0  0  0  0  0  0  0  0  0  0  0  0
    6.6539  -13.7422   26.0165 C   0  0  0  0  0  0  0  0  0  0  0  0
    7.0976  -13.3819   24.7609 C   0  0  0  0  0  0  0  0  0  0  0  0
    9.7796  -15.6194   24.8619 O   0  0  0  0  0  0  0  0  0  0  0  0
    9.7443  -16.3704   25.8741 O   0  0  0  0  0  0  0  0  0  0  0  0
  2  1  1  0
  2  3  2  0
  4  5  1  0
  4  2  1  0
  5  6  1  0
  6  7  1  0
  7  8  1  0
  8  9  1  1
 10 11  2  0
 10  8  1  0
 12 13  1  0
 13 23  2  0
 13 14  1  0
 14 15  2  0
 15 16  1  0
 16 17  1  0
 18 17  1  6
 18 19  1  0
 18 20  1  0
 19 10  1  0
 20 21  2  0
 22 16  2  0
 23 22  1  0
 24 20  1  0
 24 25  1  0
 25 26  1  6
 26 27  1  0
 27 28  2  0
 28 29  1  0
 30 31  2  0
 30 29  1  0
 32 31  1  0
 33 32  2  0
 34 33  1  0
 34 35  2  0
 35 27  1  0
 35 30  1  0
 36 25  1  0
 36 38  1  0
 37 36  2  0
M  END
$$$$
