RYW.pdb
     RDKit          3D

 38 40  0  0  1  0  0  0  0  0999 V2000
    9.7213  -20.4614   16.8334 N   0  0  0  0  0  0  0  0  0  0  0  0
    8.3594  -20.1065   16.7600 C   0  0  0  0  0  0  0  0  0  0  0  0
    7.9449  -19.0725   16.0958 N   0  0  0  0  0  0  0  0  0  0  0  0
    7.4302  -20.9181   17.4406 N   0  0  0  0  0  0  0  0  0  0  0  0
    7.9121  -22.0115   18.2547 C   0  0  0  0  0  0  0  0  0  0  0  0
    8.1522  -21.5714   19.6775 C   0  0  0  0  0  0  0  0  0  0  0  0
    9.4073  -20.7377   19.7102 C   0  0  0  0  0  0  0  0  0  0  0  0
    9.7194  -20.2614   21.1101 C   0  0  2  0  0  0  0  0  0  0  0  0
    8.6934  -20.6150   22.0550 N   0  0  0  0  0  0  0  0  0  0  0  0
    9.8718  -18.7771   21.1428 C   0  0  0  0  0  0  0  0  0  0  0  0
   10.7760  -18.1938   20.4521 O   0  0  0  0  0  0  0  0  0  0  0  0
    6.9563  -18.7936   16.1368 O   0  0  0  0  0  0  0  0  0  0  0  0
    7.9071  -10.4989   19.9776 C   0  0  0  0  0  0  0  0  0  0  0  0
    7.8717  -11.8071   20.4424 C   0  0  0  0  0  0  0  0  0  0  0  0
    7.8571  -12.1215   21.7960 C   0  0  0  0  0  0  0  0  0  0  0  0
    7.8224  -13.4065   22.2168 C   0  0  0  0  0  0  0  0  0  0  0  0
    7.8013  -14.4370   21.3118 C   0  0  0  0  0  0  0  0  0  0  0  0
    7.7761  -15.8573   21.7370 C   0  0  2  0  0  0  0  0  0  0  0  0
    9.1241  -16.4812   21.8601 N   0  0  0  0  0  0  0  0  0  0  0  0
    9.0498  -17.9382   21.9174 C   0  0  0  0  0  0  0  0  0  0  0  0
    9.7610  -16.0164   23.0970 O   0  0  0  0  0  0  0  0  0  0  0  0
   10.6489  -15.1164   23.1306 C   0  0  0  0  0  0  0  0  0  0  0  0
    7.8150  -14.1640   19.9653 C   0  0  0  0  0  0  0  0  0  0  0  0
    7.8497  -12.8658   19.5379 N   0  0  0  0  0  0  0  0  0  0  0  0
    9.3783  -16.5906   24.3323 C   0  0  1  0  0  0  0  0  0  0  0  0
   10.0744  -16.3193   25.5845 C   0  0  0  0  0  0  0  0  0  0  0  0
    8.9918  -16.3631   26.6395 C   0  0  0  0  0  0  0  0  0  0  0  0
    7.8696  -15.5073   26.2111 C   0  0  0  0  0  0  0  0  0  0  0  0
    6.6189  -15.9756   25.8216 N   0  0  0  0  0  0  0  0  0  0  0  0
    5.8370  -14.9327   25.5543 C   0  0  0  0  0  0  0  0  0  0  0  0
    6.5195  -13.8057   25.7504 C   0  0  0  0  0  0  0  0  0  0  0  0
    6.1891  -12.4722   25.6117 C   0  0  0  0  0  0  0  0  0  0  0  0
    7.1034  -11.4744   25.8720 C   0  0  0  0  0  0  0  0  0  0  0  0
    8.3808  -11.8033   26.2806 C   0  0  0  0  0  0  0  0  0  0  0  0
    8.6940  -13.1341   26.4145 C   0  0  0  0  0  0  0  0  0  0  0  0
    7.7939  -14.1482   26.1608 C   0  0  0  0  0  0  0  0  0  0  0  0
   11.2225  -17.1717   25.7875 O   0  0  0  0  0  0  0  0  0  0  0  0
   11.4176  -18.2146   25.1064 O   0  0  0  0  0  0  0  0  0  0  0  0
  2  1  1  0
  2  3  2  0
  4  5  1  0
  4  2  1  0
  5  6  1  0
  6  7  1  0
  7  8  1  0
  8  9  1  1
 10 11  2  0
 10  8  1  0
 12 13  1  0
 13 23  2  0
 13 14  1  0
 14 15  2  0
 15 16  1  0
 16 17  1  0
 18 17  1  6
 18 19  1  0
 18 20  1  0
 19 10  1  0
 20 21  2  0
 22 16  2  0
 23 22  1  0
 24 20  1  0
 24 25  1  0
 25 26  1  1
 26 27  1  0
 27 28  2  0
 28 29  1  0
 30 31  2  0
 30 29  1  0
 32 31  1  0
 33 32  2  0
 34 33  1  0
 34 35  2  0
 35 27  1  0
 35 30  1  0
 36 25  1  0
 36 38  1  0
 37 36  2  0
M  END
$$$$
