RYW.pdb
     RDKit          3D

 38 40  0  0  1  0  0  0  0  0999 V2000
    7.9252  -12.8483   15.5503 N   0  0  0  0  0  0  0  0  0  0  0  0
    8.4507  -13.3413   16.7614 C   0  0  0  0  0  0  0  0  0  0  0  0
    9.7151  -13.5793   16.9253 N   0  0  0  0  0  0  0  0  0  0  0  0
    7.5522  -13.5776   17.8208 N   0  0  0  0  0  0  0  0  0  0  0  0
    8.0709  -13.9829   19.1081 C   0  0  0  0  0  0  0  0  0  0  0  0
    6.9566  -14.3391   20.0607 C   0  0  0  0  0  0  0  0  0  0  0  0
    7.5402  -15.1456   21.1921 C   0  0  0  0  0  0  0  0  0  0  0  0
    8.3303  -16.3276   20.6796 C   0  0  2  0  0  0  0  0  0  0  0  0
    7.4945  -17.3276   20.0698 N   0  0  0  0  0  0  0  0  0  0  0  0
    9.0825  -16.9831   21.7896 C   0  0  0  0  0  0  0  0  0  0  0  0
    8.6177  -18.0197   22.3763 O   0  0  0  0  0  0  0  0  0  0  0  0
   10.0513  -14.0137   17.7942 O   0  0  0  0  0  0  0  0  0  0  0  0
   14.2838  -13.5710   18.9884 C   0  0  0  0  0  0  0  0  0  0  0  0
   13.8677  -14.5297   19.9032 C   0  0  0  0  0  0  0  0  0  0  0  0
   14.3232  -14.5609   21.2157 C   0  0  0  0  0  0  0  0  0  0  0  0
   13.8984  -15.5082   22.0827 C   0  0  0  0  0  0  0  0  0  0  0  0
   13.0026  -16.4674   21.6847 C   0  0  0  0  0  0  0  0  0  0  0  0
   12.5251  -17.5283   22.6041 C   0  0  1  0  0  0  0  0  0  0  0  0
   11.1687  -17.2801   23.1698 N   0  0  0  0  0  0  0  0  0  0  0  0
   10.3255  -16.5160   22.2549 C   0  0  0  0  0  0  0  0  0  0  0  0
   11.2959  -16.5090   24.4110 O   0  0  0  0  0  0  0  0  0  0  0  0
   11.9195  -15.4117   24.4915 C   0  0  0  0  0  0  0  0  0  0  0  0
   12.5306  -16.4679   20.3942 C   0  0  0  0  0  0  0  0  0  0  0  0
   12.9585  -15.5110   19.5165 N   0  0  0  0  0  0  0  0  0  0  0  0
   10.6973  -16.9986   25.5961 C   0  0  1  0  0  0  0  0  0  0  0  0
   10.9540  -16.4249   26.9118 C   0  0  0  0  0  0  0  0  0  0  0  0
   10.4942  -14.9887   26.7974 C   0  0  0  0  0  0  0  0  0  0  0  0
    9.0197  -14.9557   26.7966 C   0  0  0  0  0  0  0  0  0  0  0  0
    8.2019  -16.0596   26.5783 N   0  0  0  0  0  0  0  0  0  0  0  0
    6.9323  -15.6813   26.7023 C   0  0  0  0  0  0  0  0  0  0  0  0
    6.8835  -14.3818   26.9907 C   0  0  0  0  0  0  0  0  0  0  0  0
    5.8373  -13.5072   27.2079 C   0  0  0  0  0  0  0  0  0  0  0  0
    6.0592  -12.1752   27.4832 C   0  0  0  0  0  0  0  0  0  0  0  0
    7.3518  -11.6932   27.5454 C   0  0  0  0  0  0  0  0  0  0  0  0
    8.3818  -12.5757   27.3276 C   0  0  0  0  0  0  0  0  0  0  0  0
    8.1819  -13.9126   27.0523 C   0  0  0  0  0  0  0  0  0  0  0  0
   10.3940  -17.2088   27.9877 O   0  0  0  0  0  0  0  0  0  0  0  0
    9.6557  -18.2096   27.7802 O   0  0  0  0  0  0  0  0  0  0  0  0
  2  1  1  0
  2  3  2  0
  4  5  1  0
  4  2  1  0
  5  6  1  0
  6  7  1  0
  7  8  1  0
  8  9  1  1
 10 11  2  0
 10  8  1  0
 12 13  1  0
 13 23  2  0
 13 14  1  0
 14 15  2  0
 15 16  1  0
 16 17  1  0
 18 17  1  6
 18 19  1  0
 18 20  1  0
 19 10  1  0
 20 21  2  0
 22 16  2  0
 23 22  1  0
 24 20  1  0
 24 25  1  0
 25 26  1  1
 26 27  1  0
 27 28  2  0
 28 29  1  0
 30 31  2  0
 30 29  1  0
 32 31  1  0
 33 32  2  0
 34 33  1  0
 34 35  2  0
 35 27  1  0
 35 30  1  0
 36 25  1  0
 36 38  1  0
 37 36  2  0
M  END
$$$$
