RYW.pdb
     RDKit          3D

 38 40  0  0  1  0  0  0  0  0999 V2000
    7.5535  -11.5641   17.9283 N   0  0  0  0  0  0  0  0  0  0  0  0
    7.6604  -12.9175   17.5503 C   0  0  0  0  0  0  0  0  0  0  0  0
    8.1229  -13.2826   16.3949 N   0  0  0  0  0  0  0  0  0  0  0  0
    7.2439  -13.8943   18.4765 N   0  0  0  0  0  0  0  0  0  0  0  0
    8.2272  -14.7833   19.0539 C   0  0  0  0  0  0  0  0  0  0  0  0
    8.2574  -14.6651   20.5576 C   0  0  0  0  0  0  0  0  0  0  0  0
    8.0181  -16.0321   21.1452 C   0  0  0  0  0  0  0  0  0  0  0  0
    9.2214  -16.9293   20.9683 C   0  0  2  0  0  0  0  0  0  0  0  0
    8.9684  -18.0201   20.0647 N   0  0  0  0  0  0  0  0  0  0  0  0
    9.6428  -17.5137   22.2754 C   0  0  0  0  0  0  0  0  0  0  0  0
    8.8852  -18.3279   22.9061 O   0  0  0  0  0  0  0  0  0  0  0  0
    8.3393  -14.2710   16.2132 O   0  0  0  0  0  0  0  0  0  0  0  0
   13.9966  -22.5854   21.1265 C   0  0  0  0  0  0  0  0  0  0  0  0
   13.6750  -21.4629   21.8786 C   0  0  0  0  0  0  0  0  0  0  0  0
   13.7868  -20.1701   21.3811 C   0  0  0  0  0  0  0  0  0  0  0  0
   13.4654  -19.0971   22.1393 C   0  0  0  0  0  0  0  0  0  0  0  0
   13.0190  -19.2601   23.4259 C   0  0  0  0  0  0  0  0  0  0  0  0
   12.6699  -18.1066   24.2898 C   0  0  2  0  0  0  0  0  0  0  0  0
   11.2377  -17.7007   24.2161 N   0  0  0  0  0  0  0  0  0  0  0  0
   10.8739  -17.2156   22.8879 C   0  0  0  0  0  0  0  0  0  0  0  0
   10.9928  -16.6153   25.1717 O   0  0  0  0  0  0  0  0  0  0  0  0
   11.4869  -15.4569   25.0557 C   0  0  0  0  0  0  0  0  0  0  0  0
   12.8960  -20.5237   23.9514 C   0  0  0  0  0  0  0  0  0  0  0  0
   13.2201  -21.6096   23.1865 N   0  0  0  0  0  0  0  0  0  0  0  0
   10.1621  -16.8523   26.2926 C   0  0  1  0  0  0  0  0  0  0  0  0
   10.1028  -15.9565   27.4415 C   0  0  0  0  0  0  0  0  0  0  0  0
    8.6494  -15.9682   27.8591 C   0  0  0  0  0  0  0  0  0  0  0  0
    7.8285  -15.4395   26.7537 C   0  0  0  0  0  0  0  0  0  0  0  0
    7.1344  -16.2222   25.8367 N   0  0  0  0  0  0  0  0  0  0  0  0
    6.4598  -15.4211   25.0161 C   0  0  0  0  0  0  0  0  0  0  0  0
    6.6819  -14.1520   25.3543 C   0  0  0  0  0  0  0  0  0  0  0  0
    6.2415  -12.9512   24.8341 C   0  0  0  0  0  0  0  0  0  0  0  0
    6.6379  -11.7460   25.3725 C   0  0  0  0  0  0  0  0  0  0  0  0
    7.4942  -11.7266   26.4557 C   0  0  0  0  0  0  0  0  0  0  0  0
    7.9231  -12.9294   26.9621 C   0  0  0  0  0  0  0  0  0  0  0  0
    7.5374  -14.1464   26.4396 C   0  0  0  0  0  0  0  0  0  0  0  0
   11.0791  -16.2761   28.4567 O   0  0  0  0  0  0  0  0  0  0  0  0
   11.7448  -17.3467   28.4395 O   0  0  0  0  0  0  0  0  0  0  0  0
  2  1  1  0
  2  3  2  0
  4  5  1  0
  4  2  1  0
  5  6  1  0
  6  7  1  0
  7  8  1  0
  8  9  1  6
 10 11  2  0
 10  8  1  0
 12 13  1  0
 13 23  2  0
 13 14  1  0
 14 15  2  0
 15 16  1  0
 16 17  1  0
 18 17  1  6
 18 19  1  0
 18 20  1  0
 19 10  1  0
 20 21  2  0
 22 16  2  0
 23 22  1  0
 24 20  1  0
 24 25  1  0
 25 26  1  6
 26 27  1  0
 27 28  2  0
 28 29  1  0
 30 31  2  0
 30 29  1  0
 32 31  1  0
 33 32  2  0
 34 33  1  0
 34 35  2  0
 35 27  1  0
 35 30  1  0
 36 25  1  0
 36 38  1  0
 37 36  2  0
M  END
$$$$
