RYW.pdb
     RDKit          3D

 38 40  0  0  1  0  0  0  0  0999 V2000
   13.8126  -19.3012   16.1880 N   0  0  0  0  0  0  0  0  0  0  0  0
   14.7391  -19.3187   17.2497 C   0  0  0  0  0  0  0  0  0  0  0  0
   15.9809  -18.9776   17.0951 N   0  0  0  0  0  0  0  0  0  0  0  0
   14.2790  -19.7250   18.5181 N   0  0  0  0  0  0  0  0  0  0  0  0
   12.8811  -20.0521   18.6896 C   0  0  0  0  0  0  0  0  0  0  0  0
   12.0630  -18.8211   18.9913 C   0  0  0  0  0  0  0  0  0  0  0  0
   12.2181  -18.4959   20.4547 C   0  0  0  0  0  0  0  0  0  0  0  0
   10.9136  -18.0314   21.0602 C   0  0  2  0  0  0  0  0  0  0  0  0
   10.5238  -16.7263   20.5964 N   0  0  0  0  0  0  0  0  0  0  0  0
   11.0122  -17.9715   22.5482 C   0  0  0  0  0  0  0  0  0  0  0  0
   11.3298  -19.0066   23.2281 O   0  0  0  0  0  0  0  0  0  0  0  0
   16.6574  -19.1293   17.8540 O   0  0  0  0  0  0  0  0  0  0  0  0
   10.8473  -14.4941   30.7567 C   0  0  0  0  0  0  0  0  0  0  0  0
   10.9557  -14.7256   29.3916 C   0  0  0  0  0  0  0  0  0  0  0  0
   11.7725  -15.7175   28.8621 C   0  0  0  0  0  0  0  0  0  0  0  0
   11.8561  -15.9179   27.5271 C   0  0  0  0  0  0  0  0  0  0  0  0
   11.1326  -15.1417   26.6580 C   0  0  0  0  0  0  0  0  0  0  0  0
   11.2094  -15.3248   25.1886 C   0  0  1  0  0  0  0  0  0  0  0  0
   10.9493  -16.7201   24.7333 N   0  0  0  0  0  0  0  0  0  0  0  0
   10.7683  -16.7990   23.2867 C   0  0  0  0  0  0  0  0  0  0  0  0
    9.7216  -17.2141   25.3658 O   0  0  0  0  0  0  0  0  0  0  0  0
    9.6487  -17.5509   26.5827 C   0  0  0  0  0  0  0  0  0  0  0  0
   10.3145  -14.1513   27.1456 C   0  0  0  0  0  0  0  0  0  0  0  0
   10.2283  -13.9473   28.4947 N   0  0  0  0  0  0  0  0  0  0  0  0
    8.5414  -17.3293   24.5935 C   0  0  1  0  0  0  0  0  0  0  0  0
    7.2515  -17.6995   25.1635 C   0  0  0  0  0  0  0  0  0  0  0  0
    6.2392  -16.9225   24.3521 C   0  0  0  0  0  0  0  0  0  0  0  0
    6.7482  -15.5559   24.1318 C   0  0  0  0  0  0  0  0  0  0  0  0
    7.2515  -15.0821   22.9245 N   0  0  0  0  0  0  0  0  0  0  0  0
    7.5676  -13.7977   23.0687 C   0  0  0  0  0  0  0  0  0  0  0  0
    7.2948  -13.4115   24.3139 C   0  0  0  0  0  0  0  0  0  0  0  0
    7.4392  -12.2086   24.9764 C   0  0  0  0  0  0  0  0  0  0  0  0
    7.0848  -12.0705   26.3011 C   0  0  0  0  0  0  0  0  0  0  0  0
    6.5734  -13.1518   26.9911 C   0  0  0  0  0  0  0  0  0  0  0  0
    6.4353  -14.3415   26.3182 C   0  0  0  0  0  0  0  0  0  0  0  0
    6.7822  -14.5007   24.9925 C   0  0  0  0  0  0  0  0  0  0  0  0
    7.0632  -19.1288   25.2515 O   0  0  0  0  0  0  0  0  0  0  0  0
    7.8679  -19.9487   24.7320 O   0  0  0  0  0  0  0  0  0  0  0  0
  2  1  1  0
  2  3  2  0
  4  5  1  0
  4  2  1  0
  5  6  1  0
  6  7  1  0
  7  8  1  0
  8  9  1  6
 10 11  2  0
 10  8  1  0
 12 13  1  0
 13 23  2  0
 13 14  1  0
 14 15  2  0
 15 16  1  0
 16 17  1  0
 18 17  1  6
 18 19  1  0
 18 20  1  0
 19 10  1  0
 20 21  2  0
 22 16  2  0
 23 22  1  0
 24 20  1  0
 24 25  1  0
 25 26  1  1
 26 27  1  0
 27 28  2  0
 28 29  1  0
 30 31  2  0
 30 29  1  0
 32 31  1  0
 33 32  2  0
 34 33  1  0
 34 35  2  0
 35 27  1  0
 35 30  1  0
 36 25  1  0
 36 38  1  0
 37 36  2  0
M  END
$$$$
