RYW.pdb
     RDKit          3D

 38 40  0  0  1  0  0  0  0  0999 V2000
    7.3076  -12.0088   18.4020 N   0  0  0  0  0  0  0  0  0  0  0  0
    7.7448  -12.8019   17.3223 C   0  0  0  0  0  0  0  0  0  0  0  0
    7.8416  -12.3400   16.1142 N   0  0  0  0  0  0  0  0  0  0  0  0
    8.0846  -14.1437   17.5865 N   0  0  0  0  0  0  0  0  0  0  0  0
    7.5750  -14.7779   18.7816 C   0  0  0  0  0  0  0  0  0  0  0  0
    7.9576  -16.2363   18.8341 C   0  0  0  0  0  0  0  0  0  0  0  0
    7.4040  -16.8259   20.1058 C   0  0  0  0  0  0  0  0  0  0  0  0
    8.2532  -17.9746   20.5992 C   0  0  2  0  0  0  0  0  0  0  0  0
    7.8736  -19.2329   20.0134 N   0  0  0  0  0  0  0  0  0  0  0  0
    8.1447  -18.1149   22.0811 C   0  0  0  0  0  0  0  0  0  0  0  0
    7.4400  -17.2992   22.7687 O   0  0  0  0  0  0  0  0  0  0  0  0
    8.1800  -12.9445   15.3548 O   0  0  0  0  0  0  0  0  0  0  0  0
    8.0980  -21.5783   30.1863 C   0  0  0  0  0  0  0  0  0  0  0  0
    8.3448  -21.3602   28.8370 C   0  0  0  0  0  0  0  0  0  0  0  0
    9.6238  -21.1601   28.3318 C   0  0  0  0  0  0  0  0  0  0  0  0
    9.8311  -20.9503   27.0117 C   0  0  0  0  0  0  0  0  0  0  0  0
    8.7770  -20.9292   26.1343 C   0  0  0  0  0  0  0  0  0  0  0  0
    8.9657  -20.6894   24.6833 C   0  0  2  0  0  0  0  0  0  0  0  0
    8.6394  -19.3020   24.2469 N   0  0  0  0  0  0  0  0  0  0  0  0
    8.7950  -19.1309   22.8053 C   0  0  0  0  0  0  0  0  0  0  0  0
    9.5475  -18.3603   24.9102 O   0  0  0  0  0  0  0  0  0  0  0  0
   10.7543  -18.1952   24.5697 C   0  0  0  0  0  0  0  0  0  0  0  0
    7.4982  -21.1232   26.5981 C   0  0  0  0  0  0  0  0  0  0  0  0
    7.2867  -21.3358   27.9320 N   0  0  0  0  0  0  0  0  0  0  0  0
    9.0711  -17.5828   25.9923 C   0  0  2  0  0  0  0  0  0  0  0  0
    9.8998  -16.6149   26.7011 C   0  0  0  0  0  0  0  0  0  0  0  0
    8.9559  -15.9461   27.6751 C   0  0  0  0  0  0  0  0  0  0  0  0
    7.8972  -15.2527   26.9178 C   0  0  0  0  0  0  0  0  0  0  0  0
    6.9713  -15.8817   26.0918 N   0  0  0  0  0  0  0  0  0  0  0  0
    6.1340  -14.9649   25.6135 C   0  0  0  0  0  0  0  0  0  0  0  0
    6.4709  -13.7668   26.0881 C   0  0  0  0  0  0  0  0  0  0  0  0
    5.9477  -12.5026   25.9023 C   0  0  0  0  0  0  0  0  0  0  0  0
    6.5020  -11.3983   26.5127 C   0  0  0  0  0  0  0  0  0  0  0  0
    7.6050  -11.5472   27.3301 C   0  0  0  0  0  0  0  0  0  0  0  0
    8.1136  -12.8112   27.5055 C   0  0  0  0  0  0  0  0  0  0  0  0
    7.5733  -13.9297   26.9054 C   0  0  0  0  0  0  0  0  0  0  0  0
   11.1030  -17.1967   27.2487 O   0  0  0  0  0  0  0  0  0  0  0  0
   11.0965  -18.2828   27.8890 O   0  0  0  0  0  0  0  0  0  0  0  0
  2  1  1  0
  2  3  2  0
  4  5  1  0
  4  2  1  0
  5  6  1  0
  6  7  1  0
  7  8  1  0
  8  9  1  6
 10 11  2  0
 10  8  1  0
 12 13  1  0
 13 23  2  0
 13 14  1  0
 14 15  2  0
 15 16  1  0
 16 17  1  0
 18 17  1  6
 18 19  1  0
 18 20  1  0
 19 10  1  0
 20 21  2  0
 22 16  2  0
 23 22  1  0
 24 20  1  0
 24 25  1  0
 25 26  1  6
 26 27  1  0
 27 28  2  0
 28 29  1  0
 30 31  2  0
 30 29  1  0
 32 31  1  0
 33 32  2  0
 34 33  1  0
 34 35  2  0
 35 27  1  0
 35 30  1  0
 36 25  1  0
 36 38  1  0
 37 36  2  0
M  END
$$$$
