RYW.pdb
     RDKit          3D

 38 40  0  0  1  0  0  0  0  0999 V2000
    9.1105  -12.0436   19.2868 N   0  0  0  0  0  0  0  0  0  0  0  0
    8.3130  -12.7257   18.3463 C   0  0  0  0  0  0  0  0  0  0  0  0
    8.3285  -12.4375   17.0818 N   0  0  0  0  0  0  0  0  0  0  0  0
    7.4748  -13.7556   18.8178 N   0  0  0  0  0  0  0  0  0  0  0  0
    7.7218  -14.3232   20.1245 C   0  0  0  0  0  0  0  0  0  0  0  0
    6.6750  -15.3484   20.4837 C   0  0  0  0  0  0  0  0  0  0  0  0
    6.9960  -15.8942   21.8513 C   0  0  0  0  0  0  0  0  0  0  0  0
    7.7063  -17.2253   21.7637 C   0  0  2  0  0  0  0  0  0  0  0  0
    6.8743  -18.2592   21.2075 N   0  0  0  0  0  0  0  0  0  0  0  0
    8.1487  -17.6793   23.1149 C   0  0  0  0  0  0  0  0  0  0  0  0
    7.3359  -18.2624   23.9112 O   0  0  0  0  0  0  0  0  0  0  0  0
    7.7163  -12.9427   16.4286 O   0  0  0  0  0  0  0  0  0  0  0  0
   14.8299  -17.3203   20.7703 C   0  0  0  0  0  0  0  0  0  0  0  0
   13.9191  -17.7304   21.7353 C   0  0  0  0  0  0  0  0  0  0  0  0
   14.0826  -17.4515   23.0869 C   0  0  0  0  0  0  0  0  0  0  0  0
   13.1769  -17.8652   24.0025 C   0  0  0  0  0  0  0  0  0  0  0  0
   12.0686  -18.5750   23.6166 C   0  0  0  0  0  0  0  0  0  0  0  0
   11.0621  -19.0553   24.5939 C   0  0  1  0  0  0  0  0  0  0  0  0
    9.9412  -18.1025   24.8332 N   0  0  0  0  0  0  0  0  0  0  0  0
    9.4599  -17.5009   23.5930 C   0  0  0  0  0  0  0  0  0  0  0  0
   10.4056  -17.0187   25.7058 O   0  0  0  0  0  0  0  0  0  0  0  0
   11.2353  -16.1359   25.3429 C   0  0  0  0  0  0  0  0  0  0  0  0
   11.8740  -18.8694   22.2887 C   0  0  0  0  0  0  0  0  0  0  0  0
   12.7881  -18.4519   21.3617 N   0  0  0  0  0  0  0  0  0  0  0  0
    9.9133  -16.9350   27.0297 C   0  0  1  0  0  0  0  0  0  0  0  0
   10.6204  -16.2390   28.0982 C   0  0  0  0  0  0  0  0  0  0  0  0
    9.6434  -15.1909   28.5820 C   0  0  0  0  0  0  0  0  0  0  0  0
    8.5757  -15.0302   27.5773 C   0  0  0  0  0  0  0  0  0  0  0  0
    7.6322  -16.0020   27.2603 N   0  0  0  0  0  0  0  0  0  0  0  0
    6.7920  -15.5027   26.3575 C   0  0  0  0  0  0  0  0  0  0  0  0
    7.1437  -14.2505   26.0700 C   0  0  0  0  0  0  0  0  0  0  0  0
    6.6245  -13.3039   25.2092 C   0  0  0  0  0  0  0  0  0  0  0  0
    7.1955  -12.0558   25.0843 C   0  0  0  0  0  0  0  0  0  0  0  0
    8.3116  -11.7337   25.8310 C   0  0  0  0  0  0  0  0  0  0  0  0
    8.8160  -12.6859   26.6832 C   0  0  0  0  0  0  0  0  0  0  0  0
    8.2591  -13.9400   26.8245 C   0  0  0  0  0  0  0  0  0  0  0  0
   11.1653  -17.1353   29.0909 O   0  0  0  0  0  0  0  0  0  0  0  0
   10.9346  -18.3747   29.0803 O   0  0  0  0  0  0  0  0  0  0  0  0
  2  1  1  0
  2  3  2  0
  4  5  1  0
  4  2  1  0
  5  6  1  0
  6  7  1  0
  7  8  1  0
  8  9  1  1
 10 11  2  0
 10  8  1  0
 12 13  1  0
 13 23  2  0
 13 14  1  0
 14 15  2  0
 15 16  1  0
 16 17  1  0
 18 17  1  6
 18 19  1  0
 18 20  1  0
 19 10  1  0
 20 21  2  0
 22 16  2  0
 23 22  1  0
 24 20  1  0
 24 25  1  0
 25 26  1  1
 26 27  1  0
 27 28  2  0
 28 29  1  0
 30 31  2  0
 30 29  1  0
 32 31  1  0
 33 32  2  0
 34 33  1  0
 34 35  2  0
 35 27  1  0
 35 30  1  0
 36 25  1  0
 36 38  1  0
 37 36  2  0
M  END
$$$$
