RYW.pdb
     RDKit          3D

 38 40  0  0  1  0  0  0  0  0999 V2000
    5.3604  -23.6542   22.0538 N   0  0  0  0  0  0  0  0  0  0  0  0
    5.9336  -22.9142   23.1073 C   0  0  0  0  0  0  0  0  0  0  0  0
    6.1749  -23.4333   24.2711 N   0  0  0  0  0  0  0  0  0  0  0  0
    6.2487  -21.5621   22.8665 N   0  0  0  0  0  0  0  0  0  0  0  0
    6.0680  -21.0218   21.5376 C   0  0  0  0  0  0  0  0  0  0  0  0
    7.3843  -20.5987   20.9341 C   0  0  0  0  0  0  0  0  0  0  0  0
    7.7854  -19.2819   21.5477 C   0  0  0  0  0  0  0  0  0  0  0  0
    7.9828  -18.2170   20.4935 C   0  0  2  0  0  0  0  0  0  0  0  0
    8.4928  -18.7510   19.2585 N   0  0  0  0  0  0  0  0  0  0  0  0
    8.9419  -17.1757   20.9659 C   0  0  0  0  0  0  0  0  0  0  0  0
   10.1762  -17.2204   20.6350 O   0  0  0  0  0  0  0  0  0  0  0  0
    6.5643  -22.8536   25.0254 O   0  0  0  0  0  0  0  0  0  0  0  0
    7.5785  -13.6601   16.2635 C   0  0  0  0  0  0  0  0  0  0  0  0
    7.9215  -13.6799   17.6092 C   0  0  0  0  0  0  0  0  0  0  0  0
    6.9772  -13.8005   18.6217 C   0  0  0  0  0  0  0  0  0  0  0  0
    7.3437  -13.8167   19.9236 C   0  0  0  0  0  0  0  0  0  0  0  0
    8.6646  -13.7132   20.2783 C   0  0  0  0  0  0  0  0  0  0  0  0
    9.1014  -13.7146   21.6952 C   0  0  2  0  0  0  0  0  0  0  0  0
    9.4928  -15.0569   22.2116 N   0  0  0  0  0  0  0  0  0  0  0  0
    8.5620  -16.0990   21.7880 C   0  0  0  0  0  0  0  0  0  0  0  0
    9.4961  -15.0287   23.6781 O   0  0  0  0  0  0  0  0  0  0  0  0
    9.6395  -13.9712   24.3568 C   0  0  0  0  0  0  0  0  0  0  0  0
    9.6261  -13.5924   19.3041 C   0  0  0  0  0  0  0  0  0  0  0  0
    9.2577  -13.5762   17.9875 N   0  0  0  0  0  0  0  0  0  0  0  0
    9.3317  -16.2374   24.3954 C   0  0  1  0  0  0  0  0  0  0  0  0
    9.9840  -16.4985   25.6730 C   0  0  0  0  0  0  0  0  0  0  0  0
    9.6269  -15.3073   26.5336 C   0  0  0  0  0  0  0  0  0  0  0  0
    8.2052  -14.9744   26.3258 C   0  0  0  0  0  0  0  0  0  0  0  0
    7.2316  -15.8775   25.9115 N   0  0  0  0  0  0  0  0  0  0  0  0
    6.0564  -15.2543   25.8819 C   0  0  0  0  0  0  0  0  0  0  0  0
    6.2178  -13.9864   26.2568 C   0  0  0  0  0  0  0  0  0  0  0  0
    5.3414  -12.9275   26.3880 C   0  0  0  0  0  0  0  0  0  0  0  0
    5.7734  -11.6824   26.7910 C   0  0  0  0  0  0  0  0  0  0  0  0
    7.1098  -11.4774   27.0721 C   0  0  0  0  0  0  0  0  0  0  0  0
    7.9692  -12.5406   26.9374 C   0  0  0  0  0  0  0  0  0  0  0  0
    7.5575  -13.7949   26.5372 C   0  0  0  0  0  0  0  0  0  0  0  0
    9.6794  -17.8062   26.2048 O   0  0  0  0  0  0  0  0  0  0  0  0
   10.1491  -18.2151   27.3011 O   0  0  0  0  0  0  0  0  0  0  0  0
  2  1  1  0
  2  3  2  0
  4  5  1  0
  4  2  1  0
  5  6  1  0
  6  7  1  0
  7  8  1  0
  8  9  1  6
 10 11  2  0
 10  8  1  0
 12 13  1  0
 13 23  2  0
 13 14  1  0
 14 15  2  0
 15 16  1  0
 16 17  1  0
 18 17  1  6
 18 19  1  0
 18 20  1  0
 19 10  1  0
 20 21  2  0
 22 16  2  0
 23 22  1  0
 24 20  1  0
 24 25  1  0
 25 26  1  1
 26 27  1  0
 27 28  2  0
 28 29  1  0
 30 31  2  0
 30 29  1  0
 32 31  1  0
 33 32  2  0
 34 33  1  0
 34 35  2  0
 35 27  1  0
 35 30  1  0
 36 25  1  0
 36 38  1  0
 37 36  2  0
M  END
$$$$
