RYW.pdb
     RDKit          3D

 38 40  0  0  1  0  0  0  0  0999 V2000
    8.3626  -14.0247   16.1339 N   0  0  0  0  0  0  0  0  0  0  0  0
    8.0319  -13.7056   17.4661 C   0  0  0  0  0  0  0  0  0  0  0  0
    8.0233  -12.4862   17.9078 N   0  0  0  0  0  0  0  0  0  0  0  0
    7.7015  -14.7654   18.3340 N   0  0  0  0  0  0  0  0  0  0  0  0
    7.7725  -16.1246   17.8463 C   0  0  0  0  0  0  0  0  0  0  0  0
    7.4802  -17.1171   18.9442 C   0  0  0  0  0  0  0  0  0  0  0  0
    8.7510  -17.8637   19.2588 C   0  0  0  0  0  0  0  0  0  0  0  0
    8.7976  -18.2919   20.7074 C   0  0  2  0  0  0  0  0  0  0  0  0
    7.7294  -17.7230   21.4857 N   0  0  0  0  0  0  0  0  0  0  0  0
   10.0857  -17.8814   21.3397 C   0  0  0  0  0  0  0  0  0  0  0  0
   11.2030  -18.3214   20.9006 O   0  0  0  0  0  0  0  0  0  0  0  0
    7.8257  -12.2963   18.8985 O   0  0  0  0  0  0  0  0  0  0  0  0
   13.7902  -14.0472   17.5296 C   0  0  0  0  0  0  0  0  0  0  0  0
   13.2816  -14.3046   18.7961 C   0  0  0  0  0  0  0  0  0  0  0  0
   14.0019  -14.9878   19.7685 C   0  0  0  0  0  0  0  0  0  0  0  0
   13.4781  -15.2226   20.9932 C   0  0  0  0  0  0  0  0  0  0  0  0
   12.2150  -14.7898   21.3068 C   0  0  0  0  0  0  0  0  0  0  0  0
   11.6042  -15.0405   22.6345 C   0  0  2  0  0  0  0  0  0  0  0  0
   11.4177  -16.4837   22.9574 N   0  0  0  0  0  0  0  0  0  0  0  0
   10.1564  -17.0026   22.4361 C   0  0  0  0  0  0  0  0  0  0  0  0
   11.4047  -16.6556   24.4140 O   0  0  0  0  0  0  0  0  0  0  0  0
   12.4313  -16.9469   25.0927 C   0  0  0  0  0  0  0  0  0  0  0  0
   11.4732  -14.1110   20.3703 C   0  0  0  0  0  0  0  0  0  0  0  0
   12.0011  -13.8724   19.1319 N   0  0  0  0  0  0  0  0  0  0  0  0
   10.1899  -16.4918   25.1210 C   0  0  1  0  0  0  0  0  0  0  0  0
   10.0785  -16.6758   26.5631 C   0  0  0  0  0  0  0  0  0  0  0  0
    9.5269  -15.3634   27.0732 C   0  0  0  0  0  0  0  0  0  0  0  0
    8.2358  -15.0965   26.4121 C   0  0  0  0  0  0  0  0  0  0  0  0
    7.3721  -16.0765   25.9339 N   0  0  0  0  0  0  0  0  0  0  0  0
    6.2823  -15.4859   25.4502 C   0  0  0  0  0  0  0  0  0  0  0  0
    6.3950  -14.1660   25.5897 C   0  0  0  0  0  0  0  0  0  0  0  0
    5.5686  -13.1126   25.2521 C   0  0  0  0  0  0  0  0  0  0  0  0
    5.9322  -11.8062   25.4984 C   0  0  0  0  0  0  0  0  0  0  0  0
    7.1471  -11.5327   26.0951 C   0  0  0  0  0  0  0  0  0  0  0  0
    7.9579  -12.5913   26.4255 C   0  0  0  0  0  0  0  0  0  0  0  0
    7.6126  -13.9059   26.1893 C   0  0  0  0  0  0  0  0  0  0  0  0
    9.3584  -17.8744   26.9247 O   0  0  0  0  0  0  0  0  0  0  0  0
    9.1580  -18.2051   28.1247 O   0  0  0  0  0  0  0  0  0  0  0  0
  2  1  1  0
  2  3  2  0
  4  5  1  0
  4  2  1  0
  5  6  1  0
  6  7  1  0
  7  8  1  0
  8  9  1  1
 10 11  2  0
 10  8  1  0
 12 13  1  0
 13 23  2  0
 13 14  1  0
 14 15  2  0
 15 16  1  0
 16 17  1  0
 18 17  1  6
 18 19  1  0
 18 20  1  0
 19 10  1  0
 20 21  2  0
 22 16  2  0
 23 22  1  0
 24 20  1  0
 24 25  1  0
 25 26  1  1
 26 27  1  0
 27 28  2  0
 28 29  1  0
 30 31  2  0
 30 29  1  0
 32 31  1  0
 33 32  2  0
 34 33  1  0
 34 35  2  0
 35 27  1  0
 35 30  1  0
 36 25  1  0
 36 38  1  0
 37 36  2  0
M  END
$$$$
