RYW.pdb
     RDKit          3D

 38 40  0  0  1  0  0  0  0  0999 V2000
    9.0505  -14.5052   16.9849 N   0  0  0  0  0  0  0  0  0  0  0  0
    8.3347  -13.4051   17.4981 C   0  0  0  0  0  0  0  0  0  0  0  0
    8.2731  -12.2661   16.8807 N   0  0  0  0  0  0  0  0  0  0  0  0
    7.6685  -13.5696   18.7288 N   0  0  0  0  0  0  0  0  0  0  0  0
    7.6769  -14.8668   19.3673 C   0  0  0  0  0  0  0  0  0  0  0  0
    6.3054  -15.4951   19.3503 C   0  0  0  0  0  0  0  0  0  0  0  0
    6.2474  -16.5356   20.4390 C   0  0  0  0  0  0  0  0  0  0  0  0
    7.5575  -16.6285   21.1867 C   0  0  2  0  0  0  0  0  0  0  0  0
    8.5174  -17.4650   20.5163 N   0  0  0  0  0  0  0  0  0  0  0  0
    7.3481  -17.1876   22.5545 C   0  0  0  0  0  0  0  0  0  0  0  0
    6.4947  -16.6690   23.3530 O   0  0  0  0  0  0  0  0  0  0  0  0
    7.7785  -11.4725   17.3076 O   0  0  0  0  0  0  0  0  0  0  0  0
    7.7900  -22.2634   29.7657 C   0  0  0  0  0  0  0  0  0  0  0  0
    7.9549  -21.7641   28.4803 C   0  0  0  0  0  0  0  0  0  0  0  0
    9.2053  -21.5084   27.9302 C   0  0  0  0  0  0  0  0  0  0  0  0
    9.3323  -21.0221   26.6744 C   0  0  0  0  0  0  0  0  0  0  0  0
    8.2231  -20.7673   25.9090 C   0  0  0  0  0  0  0  0  0  0  0  0
    8.3243  -20.2221   24.5338 C   0  0  1  0  0  0  0  0  0  0  0  0
    7.9060  -18.7969   24.4103 N   0  0  0  0  0  0  0  0  0  0  0  0
    8.0586  -18.2978   23.0467 C   0  0  0  0  0  0  0  0  0  0  0  0
    8.7427  -17.9697   25.2862 O   0  0  0  0  0  0  0  0  0  0  0  0
    8.9718  -18.2458   26.4989 C   0  0  0  0  0  0  0  0  0  0  0  0
    6.9705  -21.0079   26.4200 C   0  0  0  0  0  0  0  0  0  0  0  0
    6.8400  -21.4998   27.6889 N   0  0  0  0  0  0  0  0  0  0  0  0
    9.3369  -16.7939   24.7696 C   0  0  2  0  0  0  0  0  0  0  0  0
   10.1513  -15.8939   25.5775 C   0  0  0  0  0  0  0  0  0  0  0  0
    9.4057  -15.7784   26.8881 C   0  0  0  0  0  0  0  0  0  0  0  0
    8.1272  -15.0818   26.6528 C   0  0  0  0  0  0  0  0  0  0  0  0
    6.9017  -15.7139   26.4690 N   0  0  0  0  0  0  0  0  0  0  0  0
    5.9578  -14.7852   26.3386 C   0  0  0  0  0  0  0  0  0  0  0  0
    6.5104  -13.5765   26.4279 C   0  0  0  0  0  0  0  0  0  0  0  0
    5.9912  -12.2992   26.3526 C   0  0  0  0  0  0  0  0  0  0  0  0
    6.7977  -11.1875   26.4667 C   0  0  0  0  0  0  0  0  0  0  0  0
    8.1562  -11.3421   26.6604 C   0  0  0  0  0  0  0  0  0  0  0  0
    8.6575  -12.6190   26.7336 C   0  0  0  0  0  0  0  0  0  0  0  0
    7.8680  -13.7448   26.6236 C   0  0  0  0  0  0  0  0  0  0  0  0
   11.5371  -16.2949   25.6449 O   0  0  0  0  0  0  0  0  0  0  0  0
   11.9247  -17.4441   25.3001 O   0  0  0  0  0  0  0  0  0  0  0  0
  2  1  1  0
  2  3  2  0
  4  5  1  0
  4  2  1  0
  5  6  1  0
  6  7  1  0
  7  8  1  0
  8  9  1  6
 10 11  2  0
 10  8  1  0
 12 13  1  0
 13 23  2  0
 13 14  1  0
 14 15  2  0
 15 16  1  0
 16 17  1  0
 18 17  1  6
 18 19  1  0
 18 20  1  0
 19 10  1  0
 20 21  2  0
 22 16  2  0
 23 22  1  0
 24 20  1  0
 24 25  1  0
 25 26  1  6
 26 27  1  0
 27 28  2  0
 28 29  1  0
 30 31  2  0
 30 29  1  0
 32 31  1  0
 33 32  2  0
 34 33  1  0
 34 35  2  0
 35 27  1  0
 35 30  1  0
 36 25  1  0
 36 38  1  0
 37 36  2  0
M  END
$$$$
