RYW.pdb
     RDKit          3D

 38 40  0  0  1  0  0  0  0  0999 V2000
    7.9080  -11.3029   18.9264 N   0  0  0  0  0  0  0  0  0  0  0  0
    8.0186  -12.7073   18.8891 C   0  0  0  0  0  0  0  0  0  0  0  0
    8.3610  -13.3498   17.8157 N   0  0  0  0  0  0  0  0  0  0  0  0
    7.7429  -13.4208   20.0725 N   0  0  0  0  0  0  0  0  0  0  0  0
    8.1544  -14.8031   20.1746 C   0  0  0  0  0  0  0  0  0  0  0  0
    7.0194  -15.6799   20.6425 C   0  0  0  0  0  0  0  0  0  0  0  0
    7.4681  -16.4164   21.8784 C   0  0  0  0  0  0  0  0  0  0  0  0
    8.4141  -17.5448   21.5379 C   0  0  2  0  0  0  0  0  0  0  0  0
    7.7314  -18.6986   21.0153 N   0  0  0  0  0  0  0  0  0  0  0  0
    9.1765  -17.9792   22.7452 C   0  0  0  0  0  0  0  0  0  0  0  0
    8.8253  -19.0156   23.4066 O   0  0  0  0  0  0  0  0  0  0  0  0
    8.4593  -14.3729   17.8345 O   0  0  0  0  0  0  0  0  0  0  0  0
   13.8842  -21.0631   19.7016 C   0  0  0  0  0  0  0  0  0  0  0  0
   13.5569  -20.2856   20.8049 C   0  0  0  0  0  0  0  0  0  0  0  0
   13.4356  -20.8138   22.0846 C   0  0  0  0  0  0  0  0  0  0  0  0
   13.1155  -20.0295   23.1391 C   0  0  0  0  0  0  0  0  0  0  0  0
   12.9009  -18.6854   22.9696 C   0  0  0  0  0  0  0  0  0  0  0  0
   12.5360  -17.7981   24.1001 C   0  0  2  0  0  0  0  0  0  0  0  0
   11.0740  -17.7428   24.3849 N   0  0  0  0  0  0  0  0  0  0  0  0
   10.3073  -17.2940   23.2262 C   0  0  0  0  0  0  0  0  0  0  0  0
   10.8296  -16.7955   25.4778 O   0  0  0  0  0  0  0  0  0  0  0  0
   11.1314  -15.5687   25.4202 C   0  0  0  0  0  0  0  0  0  0  0  0
   13.0120  -18.1283   21.7185 C   0  0  0  0  0  0  0  0  0  0  0  0
   13.3358  -18.9193   20.6514 N   0  0  0  0  0  0  0  0  0  0  0  0
   10.2245  -17.2550   26.6716 C   0  0  1  0  0  0  0  0  0  0  0  0
   10.0921  -16.4278   27.8650 C   0  0  0  0  0  0  0  0  0  0  0  0
    8.6205  -16.4873   28.2084 C   0  0  0  0  0  0  0  0  0  0  0  0
    7.8495  -15.8433   27.1285 C   0  0  0  0  0  0  0  0  0  0  0  0
    7.0339  -16.5177   26.2256 N   0  0  0  0  0  0  0  0  0  0  0  0
    6.4516  -15.6258   25.4281 C   0  0  0  0  0  0  0  0  0  0  0  0
    6.8497  -14.4010   25.7681 C   0  0  0  0  0  0  0  0  0  0  0  0
    6.5605  -13.1473   25.2671 C   0  0  0  0  0  0  0  0  0  0  0  0
    7.1279  -12.0110   25.8021 C   0  0  0  0  0  0  0  0  0  0  0  0
    8.0066  -12.1163   26.8622 C   0  0  0  0  0  0  0  0  0  0  0  0
    8.2839  -13.3704   27.3497 C   0  0  0  0  0  0  0  0  0  0  0  0
    7.7258  -14.5200   26.8302 C   0  0  0  0  0  0  0  0  0  0  0  0
   11.0237  -16.7891   28.9077 O   0  0  0  0  0  0  0  0  0  0  0  0
   11.0969  -16.1569   29.9961 O   0  0  0  0  0  0  0  0  0  0  0  0
  2  1  1  0
  2  3  2  0
  4  5  1  0
  4  2  1  0
  5  6  1  0
  6  7  1  0
  7  8  1  0
  8  9  1  1
 10 11  2  0
 10  8  1  0
 12 13  1  0
 13 23  2  0
 13 14  1  0
 14 15  2  0
 15 16  1  0
 16 17  1  0
 18 17  1  6
 18 19  1  0
 18 20  1  0
 19 10  1  0
 20 21  2  0
 22 16  2  0
 23 22  1  0
 24 20  1  0
 24 25  1  0
 25 26  1  1
 26 27  1  0
 27 28  2  0
 28 29  1  0
 30 31  2  0
 30 29  1  0
 32 31  1  0
 33 32  2  0
 34 33  1  0
 34 35  2  0
 35 27  1  0
 35 30  1  0
 36 25  1  0
 36 38  1  0
 37 36  2  0
M  END
$$$$
