QTG.pdb
     RDKit          3D

 21 20  0  0  1  0  0  0  0  0999 V2000
    8.3815  -16.7260   26.8759 N   0  0  0  0  0  0  0  0  0  0  0  0
    8.2978  -18.1250   27.1080 C   0  0  0  0  0  0  0  0  0  0  0  0
    9.1360  -18.6546   27.8795 O   0  0  0  0  0  0  0  0  0  0  0  0
    7.2282  -18.9112   26.4347 C   0  0  0  0  0  0  0  0  0  0  0  0
    6.3795  -17.9382   25.6468 C   0  0  0  0  0  0  0  0  0  0  0  0
    6.1396  -18.3874   24.2423 C   0  0  2  0  0  0  0  0  0  0  0  0
    5.9964  -19.8066   24.2087 N   0  0  0  0  0  0  0  0  0  0  0  0
    7.2184  -17.8811   23.3689 C   0  0  0  0  0  0  0  0  0  0  0  0
    8.1000  -18.6892   22.9793 O   0  0  0  0  0  0  0  0  0  0  0  0
    6.5272  -15.3565   20.5105 C   0  0  0  0  0  0  0  0  0  0  0  0
    7.8341  -15.0019   21.1450 C   0  0  1  0  0  0  0  0  0  0  0  0
    7.6626  -13.8225   21.8751 O   0  0  0  0  0  0  0  0  0  0  0  0
    8.3689  -16.0963   22.0395 C   0  0  2  0  0  0  0  0  0  0  0  0
    7.3198  -16.5274   22.9402 N   0  0  0  0  0  0  0  0  0  0  0  0
    9.5869  -15.6724   22.7693 C   0  0  0  0  0  0  0  0  0  0  0  0
    9.5208  -15.0149   23.8371 O   0  0  0  0  0  0  0  0  0  0  0  0
   10.8881  -15.9917   22.2926 N   0  0  0  0  0  0  0  0  0  0  0  0
   12.0939  -15.5108   22.9359 C   0  0  0  0  0  0  0  0  0  0  0  0
   13.2851  -15.9739   22.2131 C   0  0  0  0  0  0  0  0  0  0  0  0
   14.5318  -15.5124   22.6071 O   0  0  0  0  0  0  0  0  0  0  0  0
   13.2328  -16.7773   21.2433 O   0  0  0  0  0  0  0  0  0  0  0  0
  1  2  1  0
  2  3  2  0
  4  5  1  0
  4  2  1  0
  6  8  1  0
  6  5  1  0
  6  7  1  1
  8  9  2  0
 11 10  1  1
 11 13  1  0
 12 11  1  0
 13 15  1  0
 13 14  1  1
 14  8  1  0
 15 17  1  0
 15 16  2  0
 17 18  1  0
 18 19  1  0
 19 21  2  0
 19 20  1  0
M  END
$$$$
