QTG.pdb
     RDKit          3D

 21 20  0  0  1  0  0  0  0  0999 V2000
    8.7570  -19.9520   15.3961 N   0  0  0  0  0  0  0  0  0  0  0  0
    7.3384  -19.9717   15.4677 C   0  0  0  0  0  0  0  0  0  0  0  0
    6.7217  -20.8849   14.8643 O   0  0  0  0  0  0  0  0  0  0  0  0
    6.6349  -18.9182   16.2491 C   0  0  0  0  0  0  0  0  0  0  0  0
    7.6923  -18.0803   16.9329 C   0  0  0  0  0  0  0  0  0  0  0  0
    7.2369  -16.6831   17.2019 C   0  0  2  0  0  0  0  0  0  0  0  0
    7.1476  -15.9612   15.9744 N   0  0  0  0  0  0  0  0  0  0  0  0
    8.1310  -16.0528   18.1950 C   0  0  0  0  0  0  0  0  0  0  0  0
    9.2960  -15.7420   17.8371 O   0  0  0  0  0  0  0  0  0  0  0  0
    7.3546  -12.9617   20.1660 C   0  0  0  0  0  0  0  0  0  0  0  0
    7.8926  -13.9699   21.1308 C   0  0  1  0  0  0  0  0  0  0  0  0
    6.8242  -14.4839   21.8707 O   0  0  0  0  0  0  0  0  0  0  0  0
    8.6438  -15.0911   20.4508 C   0  0  2  0  0  0  0  0  0  0  0  0
    7.7508  -15.7751   19.5384 N   0  0  0  0  0  0  0  0  0  0  0  0
    9.2580  -16.0212   21.4272 C   0  0  0  0  0  0  0  0  0  0  0  0
    8.6401  -17.0246   21.8612 O   0  0  0  0  0  0  0  0  0  0  0  0
   10.5774  -15.8192   21.9178 N   0  0  0  0  0  0  0  0  0  0  0  0
   11.1903  -16.6995   22.8917 C   0  0  0  0  0  0  0  0  0  0  0  0
   12.5403  -16.2332   23.2322 C   0  0  0  0  0  0  0  0  0  0  0  0
   13.2582  -16.9082   24.2077 O   0  0  0  0  0  0  0  0  0  0  0  0
   13.0861  -15.2411   22.6784 O   0  0  0  0  0  0  0  0  0  0  0  0
  1  2  1  0
  2  3  2  0
  4  5  1  0
  4  2  1  0
  6  8  1  0
  6  5  1  0
  6  7  1  6
  8  9  2  0
 11 10  1  6
 11 13  1  0
 12 11  1  0
 13 15  1  0
 13 14  1  6
 14  8  1  0
 15 17  1  0
 15 16  2  0
 17 18  1  0
 18 19  1  0
 19 21  2  0
 19 20  1  0
M  END
$$$$
