QTG.pdb
     RDKit          3D

 21 20  0  0  1  0  0  0  0  0999 V2000
   15.1528  -15.5424   19.0443 N   0  0  0  0  0  0  0  0  0  0  0  0
   14.7105  -14.9526   17.8300 C   0  0  0  0  0  0  0  0  0  0  0  0
   15.4651  -15.0102   16.8273 O   0  0  0  0  0  0  0  0  0  0  0  0
   13.3778  -14.2910   17.7860 C   0  0  0  0  0  0  0  0  0  0  0  0
   12.3396  -15.3765   17.6086 C   0  0  0  0  0  0  0  0  0  0  0  0
   10.9416  -14.8530   17.6659 C   0  0  2  0  0  0  0  0  0  0  0  0
   10.7972  -13.7651   16.7539 N   0  0  0  0  0  0  0  0  0  0  0  0
   10.5994  -14.5048   19.0604 C   0  0  0  0  0  0  0  0  0  0  0  0
   11.2619  -13.5998   19.6296 O   0  0  0  0  0  0  0  0  0  0  0  0
    7.3197  -13.3351   20.3105 C   0  0  0  0  0  0  0  0  0  0  0  0
    7.7514  -14.4311   21.2319 C   0  0  1  0  0  0  0  0  0  0  0  0
    7.0186  -15.5801   20.9218 O   0  0  0  0  0  0  0  0  0  0  0  0
    9.2327  -14.7187   21.1491 C   0  0  2  0  0  0  0  0  0  0  0  0
    9.5601  -15.1354   19.8012 N   0  0  0  0  0  0  0  0  0  0  0  0
    9.6628  -15.7155   22.1577 C   0  0  0  0  0  0  0  0  0  0  0  0
   10.2459  -16.7778   21.8283 O   0  0  0  0  0  0  0  0  0  0  0  0
    9.4343  -15.5138   23.5467 N   0  0  0  0  0  0  0  0  0  0  0  0
    9.8309  -16.4804   24.5505 C   0  0  0  0  0  0  0  0  0  0  0  0
    9.5282  -15.9803   25.8974 C   0  0  0  0  0  0  0  0  0  0  0  0
    9.8810  -16.7504   26.9950 O   0  0  0  0  0  0  0  0  0  0  0  0
    8.9585  -14.8762   26.1099 O   0  0  0  0  0  0  0  0  0  0  0  0
  1  2  1  0
  2  3  2  0
  4  5  1  0
  4  2  1  0
  6  8  1  0
  6  5  1  0
  6  7  1  6
  8  9  2  0
 11 10  1  6
 11 13  1  0
 12 11  1  0
 13 15  1  0
 13 14  1  6
 14  8  1  0
 15 17  1  0
 15 16  2  0
 17 18  1  0
 18 19  1  0
 19 21  2  0
 19 20  1  0
M  END
$$$$
