QTG.pdb
     RDKit          3D

 21 20  0  0  1  0  0  0  0  0999 V2000
   10.4793  -18.2666   15.3980 N   0  0  0  0  0  0  0  0  0  0  0  0
    9.6846  -17.3123   14.7083 C   0  0  0  0  0  0  0  0  0  0  0  0
    9.1840  -17.6376   13.6029 O   0  0  0  0  0  0  0  0  0  0  0  0
    9.4728  -15.9688   15.3132 C   0  0  0  0  0  0  0  0  0  0  0  0
    8.0216  -15.8847   15.7312 C   0  0  0  0  0  0  0  0  0  0  0  0
    7.6724  -14.5670   16.3424 C   0  0  2  0  0  0  0  0  0  0  0  0
    7.8567  -13.5273   15.3827 N   0  0  0  0  0  0  0  0  0  0  0  0
    8.4532  -14.3729   17.5817 C   0  0  0  0  0  0  0  0  0  0  0  0
    9.5394  -13.7429   17.5105 O   0  0  0  0  0  0  0  0  0  0  0  0
    7.2947  -12.8091   20.7742 C   0  0  0  0  0  0  0  0  0  0  0  0
    7.9638  -14.0949   21.1425 C   0  0  1  0  0  0  0  0  0  0  0  0
    6.9750  -15.0280   21.4660 O   0  0  0  0  0  0  0  0  0  0  0  0
    8.8488  -14.6327   20.0418 C   0  0  2  0  0  0  0  0  0  0  0  0
    8.0474  -14.8586   18.8568 N   0  0  0  0  0  0  0  0  0  0  0  0
    9.5766  -15.8538   20.4602 C   0  0  0  0  0  0  0  0  0  0  0  0
    9.1506  -17.0025   20.1850 O   0  0  0  0  0  0  0  0  0  0  0  0
   10.7927  -15.7798   21.1938 N   0  0  0  0  0  0  0  0  0  0  0  0
   11.4621  -16.9547   21.7140 C   0  0  0  0  0  0  0  0  0  0  0  0
   12.6975  -16.5785   22.4126 C   0  0  0  0  0  0  0  0  0  0  0  0
   13.4232  -17.5603   23.0700 O   0  0  0  0  0  0  0  0  0  0  0  0
   13.1372  -15.3977   22.4463 O   0  0  0  0  0  0  0  0  0  0  0  0
  1  2  1  0
  2  3  2  0
  4  5  1  0
  4  2  1  0
  6  8  1  0
  6  5  1  0
  6  7  1  6
  8  9  2  0
 11 10  1  6
 11 13  1  0
 12 11  1  0
 13 15  1  0
 13 14  1  6
 14  8  1  0
 15 17  1  0
 15 16  2  0
 17 18  1  0
 18 19  1  0
 19 21  2  0
 19 20  1  0
M  END
$$$$
