QTG.pdb
     RDKit          3D

 21 20  0  0  1  0  0  0  0  0999 V2000
    8.3470  -19.6909   15.7417 N   0  0  0  0  0  0  0  0  0  0  0  0
    9.4722  -19.1275   15.0824 C   0  0  0  0  0  0  0  0  0  0  0  0
   10.3845  -19.8980   14.6922 O   0  0  0  0  0  0  0  0  0  0  0  0
    9.5327  -17.6545   14.8773 C   0  0  0  0  0  0  0  0  0  0  0  0
    8.2752  -17.0627   15.4742 C   0  0  0  0  0  0  0  0  0  0  0  0
    8.2276  -15.5739   15.3604 C   0  0  2  0  0  0  0  0  0  0  0  0
    8.4850  -15.1857   14.0117 N   0  0  0  0  0  0  0  0  0  0  0  0
    9.1589  -14.9721   16.3370 C   0  0  0  0  0  0  0  0  0  0  0  0
   10.3121  -14.6570   15.9463 O   0  0  0  0  0  0  0  0  0  0  0  0
    7.9612  -12.2771   18.9209 C   0  0  0  0  0  0  0  0  0  0  0  0
    8.9238  -13.2156   19.5760 C   0  0  1  0  0  0  0  0  0  0  0  0
    8.2027  -14.0706   20.4140 O   0  0  0  0  0  0  0  0  0  0  0  0
    9.7309  -14.0178   18.5816 C   0  0  2  0  0  0  0  0  0  0  0  0
    8.8272  -14.7267   17.6994 N   0  0  0  0  0  0  0  0  0  0  0  0
   10.6855  -14.9332   19.2499 C   0  0  0  0  0  0  0  0  0  0  0  0
   10.3167  -16.0310   19.7355 O   0  0  0  0  0  0  0  0  0  0  0  0
   12.0648  -14.6094   19.3717 N   0  0  0  0  0  0  0  0  0  0  0  0
   13.0048  -15.4555   20.0784 C   0  0  0  0  0  0  0  0  0  0  0  0
   14.3726  -14.9415   19.9337 C   0  0  0  0  0  0  0  0  0  0  0  0
   15.3901  -15.5209   20.6763 O   0  0  0  0  0  0  0  0  0  0  0  0
   14.6730  -13.9914   19.1618 O   0  0  0  0  0  0  0  0  0  0  0  0
  1  2  1  0
  2  3  2  0
  4  5  1  0
  4  2  1  0
  6  8  1  0
  6  5  1  0
  6  7  1  6
  8  9  2  0
 11 10  1  6
 11 13  1  0
 12 11  1  0
 13 15  1  0
 13 14  1  1
 14  8  1  0
 15 17  1  0
 15 16  2  0
 17 18  1  0
 18 19  1  0
 19 21  2  0
 19 20  1  0
M  END
$$$$
