QTG.pdb
     RDKit          3D

 21 20  0  0  1  0  0  0  0  0999 V2000
    8.0797  -12.7583   15.9302 N   0  0  0  0  0  0  0  0  0  0  0  0
    8.0644  -13.9673   15.1845 C   0  0  0  0  0  0  0  0  0  0  0  0
    7.5340  -13.9609   14.0456 O   0  0  0  0  0  0  0  0  0  0  0  0
    8.6724  -15.1921   15.7723 C   0  0  0  0  0  0  0  0  0  0  0  0
    9.1707  -14.8313   17.1540 C   0  0  0  0  0  0  0  0  0  0  0  0
    9.2422  -16.0108   18.0680 C   0  0  2  0  0  0  0  0  0  0  0  0
    8.0253  -16.7521   17.9934 N   0  0  0  0  0  0  0  0  0  0  0  0
    9.5767  -15.5595   19.4346 C   0  0  0  0  0  0  0  0  0  0  0  0
   10.6355  -14.9022   19.6038 O   0  0  0  0  0  0  0  0  0  0  0  0
    7.6146  -13.6512   22.0569 C   0  0  0  0  0  0  0  0  0  0  0  0
    8.1335  -14.8939   22.7074 C   0  0  1  0  0  0  0  0  0  0  0  0
    7.0667  -15.7812   22.8738 O   0  0  0  0  0  0  0  0  0  0  0  0
    9.2411  -15.5518   21.9173 C   0  0  2  0  0  0  0  0  0  0  0  0
    8.7685  -15.8256   20.5759 N   0  0  0  0  0  0  0  0  0  0  0  0
    9.7515  -16.7721   22.5853 C   0  0  0  0  0  0  0  0  0  0  0  0
    9.4324  -17.9214   22.1928 O   0  0  0  0  0  0  0  0  0  0  0  0
   10.6274  -16.6966   23.7031 N   0  0  0  0  0  0  0  0  0  0  0  0
   11.0964  -17.8729   24.4069 C   0  0  0  0  0  0  0  0  0  0  0  0
   11.9324  -17.4908   25.5519 C   0  0  0  0  0  0  0  0  0  0  0  0
   12.1423  -16.1450   25.8111 O   0  0  0  0  0  0  0  0  0  0  0  0
   12.4748  -18.3311   26.3191 O   0  0  0  0  0  0  0  0  0  0  0  0
  1  2  1  0
  2  3  2  0
  4  5  1  0
  4  2  1  0
  6  8  1  0
  6  5  1  0
  6  7  1  1
  8  9  2  0
 11 10  1  6
 11 13  1  0
 12 11  1  0
 13 15  1  0
 13 14  1  6
 14  8  1  0
 15 17  1  0
 15 16  2  0
 17 18  1  0
 18 19  1  0
 19 21  2  0
 19 20  1  0
M  END
$$$$
