QTG.pdb
     RDKit          3D

 21 20  0  0  1  0  0  0  0  0999 V2000
   15.3598  -16.0278   18.6816 N   0  0  0  0  0  0  0  0  0  0  0  0
   15.0584  -15.5938   17.3629 C   0  0  0  0  0  0  0  0  0  0  0  0
   15.9419  -15.7124   16.4777 O   0  0  0  0  0  0  0  0  0  0  0  0
   13.7164  -15.0176   17.0756 C   0  0  0  0  0  0  0  0  0  0  0  0
   12.8991  -15.1205   18.3442 C   0  0  0  0  0  0  0  0  0  0  0  0
   11.4782  -14.7014   18.1508 C   0  0  2  0  0  0  0  0  0  0  0  0
   11.4115  -13.6611   17.1765 N   0  0  0  0  0  0  0  0  0  0  0  0
   10.8893  -14.3297   19.4539 C   0  0  0  0  0  0  0  0  0  0  0  0
   11.2992  -13.2826   20.0174 O   0  0  0  0  0  0  0  0  0  0  0  0
    7.5364  -13.3641   20.4408 C   0  0  0  0  0  0  0  0  0  0  0  0
    7.9050  -14.4880   21.3560 C   0  0  1  0  0  0  0  0  0  0  0  0
    7.2547  -15.6443   20.9161 O   0  0  0  0  0  0  0  0  0  0  0  0
    9.3962  -14.7229   21.4268 C   0  0  2  0  0  0  0  0  0  0  0  0
    9.8814  -15.0894   20.1123 N   0  0  0  0  0  0  0  0  0  0  0  0
    9.7520  -15.7331   22.4509 C   0  0  0  0  0  0  0  0  0  0  0  0
   10.2809  -16.8289   22.1406 O   0  0  0  0  0  0  0  0  0  0  0  0
    9.5100  -15.5069   23.8339 N   0  0  0  0  0  0  0  0  0  0  0  0
    9.7980  -16.5002   24.8484 C   0  0  0  0  0  0  0  0  0  0  0  0
    9.3187  -16.0515   26.1617 C   0  0  0  0  0  0  0  0  0  0  0  0
    9.5009  -16.8763   27.2612 O   0  0  0  0  0  0  0  0  0  0  0  0
    8.7442  -14.9444   26.3434 O   0  0  0  0  0  0  0  0  0  0  0  0
  1  2  1  0
  2  3  2  0
  4  5  1  0
  4  2  1  0
  6  8  1  0
  6  5  1  0
  6  7  1  6
  8  9  2  0
 11 10  1  6
 11 13  1  0
 12 11  1  0
 13 15  1  0
 13 14  1  6
 14  8  1  0
 15 17  1  0
 15 16  2  0
 17 18  1  0
 18 19  1  0
 19 21  2  0
 19 20  1  0
M  END
$$$$
