QTG.pdb
     RDKit          3D

 21 20  0  0  1  0  0  0  0  0999 V2000
   11.7204  -26.4140   35.2621 N   0  0  0  0  0  0  0  0  0  0  0  0
   10.3530  -26.7951   35.2088 C   0  0  0  0  0  0  0  0  0  0  0  0
    9.8233  -27.2688   36.2448 O   0  0  0  0  0  0  0  0  0  0  0  0
    9.5987  -26.6222   33.9373 C   0  0  0  0  0  0  0  0  0  0  0  0
   10.5497  -26.0227   32.9253 C   0  0  0  0  0  0  0  0  0  0  0  0
    9.8961  -25.7504   31.6098 C   0  0  2  0  0  0  0  0  0  0  0  0
    9.4251  -26.9728   31.0442 N   0  0  0  0  0  0  0  0  0  0  0  0
   10.8319  -25.0155   30.7340 C   0  0  0  0  0  0  0  0  0  0  0  0
   11.5794  -25.6780   29.9696 O   0  0  0  0  0  0  0  0  0  0  0  0
   10.1842  -22.8550   27.8718 C   0  0  0  0  0  0  0  0  0  0  0  0
   10.9915  -22.0587   28.8469 C   0  0  1  0  0  0  0  0  0  0  0  0
   10.1193  -21.2574   29.5888 O   0  0  0  0  0  0  0  0  0  0  0  0
   11.8180  -22.9239   29.7700 C   0  0  2  0  0  0  0  0  0  0  0  0
   10.9384  -23.5962   30.7037 N   0  0  0  0  0  0  0  0  0  0  0  0
   12.8733  -22.1479   30.4628 C   0  0  0  0  0  0  0  0  0  0  0  0
   13.7148  -21.4656   29.8277 O   0  0  0  0  0  0  0  0  0  0  0  0
   12.9811  -22.1407   31.8808 N   0  0  0  0  0  0  0  0  0  0  0  0
   14.0313  -21.4278   32.5793 C   0  0  0  0  0  0  0  0  0  0  0  0
   15.2799  -22.2001   32.5618 C   0  0  0  0  0  0  0  0  0  0  0  0
   16.3661  -21.7378   33.2890 O   0  0  0  0  0  0  0  0  0  0  0  0
   15.4171  -23.2724   31.9136 O   0  0  0  0  0  0  0  0  0  0  0  0
  1  2  1  0
  2  3  2  0
  4  5  1  0
  4  2  1  0
  6  8  1  0
  6  5  1  0
  6  7  1  6
  8  9  2  0
 11 10  1  6
 11 13  1  0
 12 11  1  0
 13 15  1  0
 13 14  1  1
 14  8  1  0
 15 17  1  0
 15 16  2  0
 17 18  1  0
 18 19  1  0
 19 21  2  0
 19 20  1  0
M  END
$$$$
