QTG.pdb
     RDKit          3D

 21 20  0  0  1  0  0  0  0  0999 V2000
    5.4886  -21.4716   24.7599 N   0  0  0  0  0  0  0  0  0  0  0  0
    4.9735  -21.1903   23.4662 C   0  0  0  0  0  0  0  0  0  0  0  0
    3.7789  -20.8145   23.3668 O   0  0  0  0  0  0  0  0  0  0  0  0
    5.8592  -21.3487   22.2805 C   0  0  0  0  0  0  0  0  0  0  0  0
    6.7589  -20.1342   22.2224 C   0  0  0  0  0  0  0  0  0  0  0  0
    6.1323  -18.9858   21.5010 C   0  0  2  0  0  0  0  0  0  0  0  0
    5.5425  -19.4450   20.2855 N   0  0  0  0  0  0  0  0  0  0  0  0
    7.1339  -17.9173   21.3054 C   0  0  0  0  0  0  0  0  0  0  0  0
    8.3383  -18.2479   21.1571 O   0  0  0  0  0  0  0  0  0  0  0  0
    8.1796  -13.0864   20.6505 C   0  0  0  0  0  0  0  0  0  0  0  0
    7.2125  -14.2267   20.6824 C   0  0  1  0  0  0  0  0  0  0  0  0
    6.6704  -14.3792   19.4033 O   0  0  0  0  0  0  0  0  0  0  0  0
    7.8453  -15.5210   21.1388 C   0  0  2  0  0  0  0  0  0  0  0  0
    6.8155  -16.5302   21.2748 N   0  0  0  0  0  0  0  0  0  0  0  0
    8.6224  -15.3496   22.3888 C   0  0  0  0  0  0  0  0  0  0  0  0
    8.0699  -15.0305   23.4704 O   0  0  0  0  0  0  0  0  0  0  0  0
   10.0314  -15.5390   22.4202 N   0  0  0  0  0  0  0  0  0  0  0  0
   10.7928  -15.5240   23.6527 C   0  0  0  0  0  0  0  0  0  0  0  0
   12.2163  -15.7630   23.3836 C   0  0  0  0  0  0  0  0  0  0  0  0
   13.1131  -15.7397   24.4408 O   0  0  0  0  0  0  0  0  0  0  0  0
   12.6701  -15.9907   22.2299 O   0  0  0  0  0  0  0  0  0  0  0  0
  1  2  1  0
  2  3  2  0
  4  5  1  0
  4  2  1  0
  6  8  1  0
  6  5  1  0
  6  7  1  6
  8  9  2  0
 11 10  1  6
 11 13  1  0
 12 11  1  0
 13 15  1  0
 13 14  1  1
 14  8  1  0
 15 17  1  0
 15 16  2  0
 17 18  1  0
 18 19  1  0
 19 21  2  0
 19 20  1  0
M  END
$$$$
