QTG.pdb
     RDKit          3D

 21 20  0  0  1  0  0  0  0  0999 V2000
    9.8237  -15.0469   12.4303 N   0  0  0  0  0  0  0  0  0  0  0  0
    8.4360  -15.3235   12.3046 C   0  0  0  0  0  0  0  0  0  0  0  0
    8.0062  -15.7365   11.1987 O   0  0  0  0  0  0  0  0  0  0  0  0
    7.5438  -15.1167   13.4780 C   0  0  0  0  0  0  0  0  0  0  0  0
    8.4075  -14.6387   14.6241 C   0  0  0  0  0  0  0  0  0  0  0  0
    8.6014  -15.6827   15.6749 C   0  0  2  0  0  0  0  0  0  0  0  0
    7.3736  -16.3743   15.8988 N   0  0  0  0  0  0  0  0  0  0  0  0
    9.1610  -15.0618   16.8933 C   0  0  0  0  0  0  0  0  0  0  0  0
   10.2501  -14.4397   16.8001 O   0  0  0  0  0  0  0  0  0  0  0  0
    7.6850  -12.6395   19.3181 C   0  0  0  0  0  0  0  0  0  0  0  0
    8.2423  -13.7601   20.1368 C   0  0  1  0  0  0  0  0  0  0  0  0
    7.1763  -14.5241   20.6196 O   0  0  0  0  0  0  0  0  0  0  0  0
    9.2013  -14.6335   19.3613 C   0  0  2  0  0  0  0  0  0  0  0  0
    8.5380  -15.1259   18.1717 N   0  0  0  0  0  0  0  0  0  0  0  0
    9.7439  -15.7356   20.1901 C   0  0  0  0  0  0  0  0  0  0  0  0
    9.1957  -16.8647   20.2269 O   0  0  0  0  0  0  0  0  0  0  0  0
   10.9121  -15.5640   20.9827 N   0  0  0  0  0  0  0  0  0  0  0  0
   11.4228  -16.6029   21.8538 C   0  0  0  0  0  0  0  0  0  0  0  0
   12.6622  -16.1655   22.5083 C   0  0  0  0  0  0  0  0  0  0  0  0
   13.2186  -16.9642   23.4956 O   0  0  0  0  0  0  0  0  0  0  0  0
   13.2526  -15.0908   22.2164 O   0  0  0  0  0  0  0  0  0  0  0  0
  1  2  1  0
  2  3  2  0
  4  5  1  0
  4  2  1  0
  6  8  1  0
  6  5  1  0
  6  7  1  1
  8  9  2  0
 11 10  1  6
 11 13  1  0
 12 11  1  0
 13 15  1  0
 13 14  1  6
 14  8  1  0
 15 17  1  0
 15 16  2  0
 17 18  1  0
 18 19  1  0
 19 21  2  0
 19 20  1  0
M  END
$$$$
