QTG.pdb
     RDKit          3D

 21 20  0  0  1  0  0  0  0  0999 V2000
   10.0844  -18.3108   14.6813 N   0  0  0  0  0  0  0  0  0  0  0  0
    8.9533  -17.5199   14.3447 C   0  0  0  0  0  0  0  0  0  0  0  0
    7.8502  -18.0960   14.1735 O   0  0  0  0  0  0  0  0  0  0  0  0
    9.1113  -16.0462   14.2072 C   0  0  0  0  0  0  0  0  0  0  0  0
    9.5486  -15.5107   15.5525 C   0  0  0  0  0  0  0  0  0  0  0  0
    8.4365  -14.8501   16.2999 C   0  0  2  0  0  0  0  0  0  0  0  0
    7.9828  -13.7069   15.5766 N   0  0  0  0  0  0  0  0  0  0  0  0
    8.8782  -14.5422   17.6758 C   0  0  0  0  0  0  0  0  0  0  0  0
    9.6851  -13.5925   17.8454 O   0  0  0  0  0  0  0  0  0  0  0  0
    7.1241  -13.2257   20.4767 C   0  0  0  0  0  0  0  0  0  0  0  0
    7.7707  -14.4677   21.0019 C   0  0  1  0  0  0  0  0  0  0  0  0
    6.7990  -15.4690   21.0821 O   0  0  0  0  0  0  0  0  0  0  0  0
    8.9294  -14.9320   20.1501 C   0  0  2  0  0  0  0  0  0  0  0  0
    8.4429  -15.2596   18.8258 N   0  0  0  0  0  0  0  0  0  0  0  0
    9.6564  -16.0648   20.7698 C   0  0  0  0  0  0  0  0  0  0  0  0
    9.7080  -17.1939   20.2226 O   0  0  0  0  0  0  0  0  0  0  0  0
   10.3297  -15.9243   22.0145 N   0  0  0  0  0  0  0  0  0  0  0  0
   10.9767  -17.0362   22.6808 C   0  0  0  0  0  0  0  0  0  0  0  0
   11.7310  -16.5694   23.8508 C   0  0  0  0  0  0  0  0  0  0  0  0
   12.4128  -17.4964   24.6242 O   0  0  0  0  0  0  0  0  0  0  0  0
   11.7917  -15.3575   24.1921 O   0  0  0  0  0  0  0  0  0  0  0  0
  1  2  1  0
  2  3  2  0
  4  5  1  0
  4  2  1  0
  6  8  1  0
  6  5  1  0
  6  7  1  6
  8  9  2  0
 11 10  1  6
 11 13  1  0
 12 11  1  0
 13 15  1  0
 13 14  1  6
 14  8  1  0
 15 17  1  0
 15 16  2  0
 17 18  1  0
 18 19  1  0
 19 21  2  0
 19 20  1  0
M  END
$$$$
