QTG.pdb
     RDKit          3D

 21 20  0  0  1  0  0  0  0  0999 V2000
   13.4315  -29.0190   31.3042 N   0  0  0  0  0  0  0  0  0  0  0  0
   12.1015  -29.2119   30.8439 C   0  0  0  0  0  0  0  0  0  0  0  0
   11.6399  -30.3801   30.8211 O   0  0  0  0  0  0  0  0  0  0  0  0
   11.3048  -28.0329   30.4072 C   0  0  0  0  0  0  0  0  0  0  0  0
   12.1762  -26.8088   30.5808 C   0  0  0  0  0  0  0  0  0  0  0  0
   12.3301  -26.0260   29.3177 C   0  0  2  0  0  0  0  0  0  0  0  0
   13.1669  -26.7392   28.4083 N   0  0  0  0  0  0  0  0  0  0  0  0
   12.8210  -24.6685   29.6325 C   0  0  0  0  0  0  0  0  0  0  0  0
   14.0633  -24.4729   29.6538 O   0  0  0  0  0  0  0  0  0  0  0  0
   11.8010  -21.4498   27.9605 C   0  0  0  0  0  0  0  0  0  0  0  0
   11.7505  -21.2108   29.4359 C   0  0  1  0  0  0  0  0  0  0  0  0
   10.4101  -21.1810   29.8306 O   0  0  0  0  0  0  0  0  0  0  0  0
   12.5042  -22.2553   30.2263 C   0  0  2  0  0  0  0  0  0  0  0  0
   11.9681  -23.5641   29.9144 N   0  0  0  0  0  0  0  0  0  0  0  0
   12.4777  -21.9776   31.6816 C   0  0  0  0  0  0  0  0  0  0  0  0
   11.4622  -22.2169   32.3804 O   0  0  0  0  0  0  0  0  0  0  0  0
   13.6032  -21.4266   32.3539 N   0  0  0  0  0  0  0  0  0  0  0  0
   13.5843  -21.0971   33.7646 C   0  0  0  0  0  0  0  0  0  0  0  0
   14.8680  -20.5156   34.1766 C   0  0  0  0  0  0  0  0  0  0  0  0
   14.9991  -20.0218   35.4656 O   0  0  0  0  0  0  0  0  0  0  0  0
   15.8672  -20.4412   33.4119 O   0  0  0  0  0  0  0  0  0  0  0  0
  1  2  1  0
  2  3  2  0
  4  5  1  0
  4  2  1  0
  6  8  1  0
  6  5  1  0
  6  7  1  6
  8  9  2  0
 11 10  1  6
 11 13  1  0
 12 11  1  0
 13 15  1  0
 13 14  1  1
 14  8  1  0
 15 17  1  0
 15 16  2  0
 17 18  1  0
 18 19  1  0
 19 21  2  0
 19 20  1  0
M  END
$$$$
