QTG.pdb
     RDKit          3D

 21 20  0  0  1  0  0  0  0  0999 V2000
   11.6807  -16.8200   14.8533 N   0  0  0  0  0  0  0  0  0  0  0  0
   10.4739  -17.3664   14.3404 C   0  0  0  0  0  0  0  0  0  0  0  0
   10.5198  -18.0121   13.2637 O   0  0  0  0  0  0  0  0  0  0  0  0
    9.2048  -17.1577   15.0896 C   0  0  0  0  0  0  0  0  0  0  0  0
    9.5560  -16.4747   16.3927 C   0  0  0  0  0  0  0  0  0  0  0  0
    8.3528  -16.1486   17.2160 C   0  0  2  0  0  0  0  0  0  0  0  0
    7.3855  -15.4773   16.4099 N   0  0  0  0  0  0  0  0  0  0  0  0
    8.7624  -15.3811   18.4102 C   0  0  0  0  0  0  0  0  0  0  0  0
    9.3538  -14.2840   18.2410 O   0  0  0  0  0  0  0  0  0  0  0  0
    7.0223  -13.3970   20.3927 C   0  0  0  0  0  0  0  0  0  0  0  0
    7.6604  -14.2921   21.4067 C   0  0  1  0  0  0  0  0  0  0  0  0
    6.7134  -15.2329   21.8204 O   0  0  0  0  0  0  0  0  0  0  0  0
    8.8938  -14.9895   20.8812 C   0  0  2  0  0  0  0  0  0  0  0  0
    8.5267  -15.8113   19.7466 N   0  0  0  0  0  0  0  0  0  0  0  0
    9.5807  -15.7733   21.9346 C   0  0  0  0  0  0  0  0  0  0  0  0
    8.9784  -16.6484   22.6041 O   0  0  0  0  0  0  0  0  0  0  0  0
   10.9556  -15.5695   22.2355 N   0  0  0  0  0  0  0  0  0  0  0  0
   11.6455  -16.3122   23.2706 C   0  0  0  0  0  0  0  0  0  0  0  0
   13.0743  -15.9744   23.2838 C   0  0  0  0  0  0  0  0  0  0  0  0
   13.8839  -16.5166   24.2703 O   0  0  0  0  0  0  0  0  0  0  0  0
   13.6088  -15.2095   22.4364 O   0  0  0  0  0  0  0  0  0  0  0  0
  1  2  1  0
  2  3  2  0
  4  5  1  0
  4  2  1  0
  6  8  1  0
  6  5  1  0
  6  7  1  6
  8  9  2  0
 11 10  1  6
 11 13  1  0
 12 11  1  0
 13 15  1  0
 13 14  1  6
 14  8  1  0
 15 17  1  0
 15 16  2  0
 17 18  1  0
 18 19  1  0
 19 21  2  0
 19 20  1  0
M  END
$$$$
