QTG.pdb
     RDKit          3D

 21 20  0  0  1  0  0  0  0  0999 V2000
   15.2559  -14.6667   21.1327 N   0  0  0  0  0  0  0  0  0  0  0  0
   14.9498  -15.6755   20.1806 C   0  0  0  0  0  0  0  0  0  0  0  0
   15.3055  -16.8555   20.4241 O   0  0  0  0  0  0  0  0  0  0  0  0
   14.2234  -15.3043   18.9356 C   0  0  0  0  0  0  0  0  0  0  0  0
   13.1592  -14.2988   19.3156 C   0  0  0  0  0  0  0  0  0  0  0  0
   11.8131  -14.6494   18.7708 C   0  0  2  0  0  0  0  0  0  0  0  0
   11.7453  -14.2950   17.3903 N   0  0  0  0  0  0  0  0  0  0  0  0
   10.7639  -14.0160   19.5960 C   0  0  0  0  0  0  0  0  0  0  0  0
   10.5010  -12.8020   19.3988 O   0  0  0  0  0  0  0  0  0  0  0  0
    7.5989  -13.6997   19.1738 C   0  0  0  0  0  0  0  0  0  0  0  0
    7.6422  -14.3787   20.5056 C   0  0  1  0  0  0  0  0  0  0  0  0
    7.5159  -15.7555   20.3013 O   0  0  0  0  0  0  0  0  0  0  0  0
    8.9071  -14.0794   21.2766 C   0  0  2  0  0  0  0  0  0  0  0  0
   10.0299  -14.7009   20.6053 N   0  0  0  0  0  0  0  0  0  0  0  0
    8.8067  -14.4995   22.6941 C   0  0  0  0  0  0  0  0  0  0  0  0
    7.8326  -14.1667   23.4133 O   0  0  0  0  0  0  0  0  0  0  0  0
    9.8109  -15.2998   23.3052 N   0  0  0  0  0  0  0  0  0  0  0  0
    9.6627  -15.8557   24.6349 C   0  0  0  0  0  0  0  0  0  0  0  0
   10.8159  -16.6990   24.9737 C   0  0  0  0  0  0  0  0  0  0  0  0
   10.8474  -17.3298   26.2081 O   0  0  0  0  0  0  0  0  0  0  0  0
   11.7886  -16.8813   24.1931 O   0  0  0  0  0  0  0  0  0  0  0  0
  1  2  1  0
  2  3  2  0
  4  5  1  0
  4  2  1  0
  6  8  1  0
  6  5  1  0
  6  7  1  6
  8  9  2  0
 11 10  1  6
 11 13  1  0
 12 11  1  0
 13 15  1  0
 13 14  1  6
 14  8  1  0
 15 17  1  0
 15 16  2  0
 17 18  1  0
 18 19  1  0
 19 21  2  0
 19 20  1  0
M  END
$$$$
