QTG.pdb
     RDKit          3D

 21 20  0  0  1  0  0  0  0  0999 V2000
    1.2846  -25.6976   30.5439 N   0  0  0  0  0  0  0  0  0  0  0  0
    1.1182  -26.8666   29.7540 C   0  0  0  0  0  0  0  0  0  0  0  0
    2.1197  -27.5962   29.5471 O   0  0  0  0  0  0  0  0  0  0  0  0
   -0.2267  -27.1860   29.2019 C   0  0  0  0  0  0  0  0  0  0  0  0
   -1.1667  -26.0827   29.6343 C   0  0  0  0  0  0  0  0  0  0  0  0
   -2.5406  -26.2406   29.0690 C   0  0  2  0  0  0  0  0  0  0  0  0
   -2.4570  -26.7176   27.7269 N   0  0  0  0  0  0  0  0  0  0  0  0
   -3.2795  -24.9677   29.1992 C   0  0  0  0  0  0  0  0  0  0  0  0
   -3.3410  -24.4263   30.3328 O   0  0  0  0  0  0  0  0  0  0  0  0
   -2.9745  -21.8498   26.8679 C   0  0  0  0  0  0  0  0  0  0  0  0
   -4.4148  -22.1886   27.0853 C   0  0  1  0  0  0  0  0  0  0  0  0
   -4.8950  -22.8237   25.9367 O   0  0  0  0  0  0  0  0  0  0  0  0
   -4.6358  -23.0644   28.2969 C   0  0  2  0  0  0  0  0  0  0  0  0
   -3.9286  -24.3149   28.1134 N   0  0  0  0  0  0  0  0  0  0  0  0
   -6.0758  -23.2771   28.5740 C   0  0  0  0  0  0  0  0  0  0  0  0
   -6.7166  -24.2200   28.0475 O   0  0  0  0  0  0  0  0  0  0  0  0
   -6.7986  -22.4215   29.4503 N   0  0  0  0  0  0  0  0  0  0  0  0
   -8.1982  -22.6279   29.7627 C   0  0  0  0  0  0  0  0  0  0  0  0
   -8.7001  -21.5493   30.6231 C   0  0  0  0  0  0  0  0  0  0  0  0
  -10.0429  -21.5347   30.9682 O   0  0  0  0  0  0  0  0  0  0  0  0
   -7.9663  -20.6264   31.0690 O   0  0  0  0  0  0  0  0  0  0  0  0
  1  2  1  0
  2  3  2  0
  4  5  1  0
  4  2  1  0
  6  8  1  0
  6  5  1  0
  6  7  1  6
  8  9  2  0
 11 10  1  6
 11 13  1  0
 12 11  1  0
 13 15  1  0
 13 14  1  6
 14  8  1  0
 15 17  1  0
 15 16  2  0
 17 18  1  0
 18 19  1  0
 19 21  2  0
 19 20  1  0
M  END
$$$$
