QTG.pdb
     RDKit          3D

 21 20  0  0  1  0  0  0  0  0999 V2000
    9.4675  -12.5118   18.5703 N   0  0  0  0  0  0  0  0  0  0  0  0
    8.4091  -13.2718   18.0043 C   0  0  0  0  0  0  0  0  0  0  0  0
    8.3544  -13.3828   16.7542 O   0  0  0  0  0  0  0  0  0  0  0  0
    7.4076  -13.9066   18.9041 C   0  0  0  0  0  0  0  0  0  0  0  0
    7.8118  -13.5885   20.3265 C   0  0  0  0  0  0  0  0  0  0  0  0
    8.9622  -14.4166   20.7986 C   0  0  2  0  0  0  0  0  0  0  0  0
    9.0899  -15.5761   19.9768 N   0  0  0  0  0  0  0  0  0  0  0  0
    8.7954  -14.7246   22.2340 C   0  0  0  0  0  0  0  0  0  0  0  0
    8.5233  -13.7807   23.0194 O   0  0  0  0  0  0  0  0  0  0  0  0
    6.3095  -16.6577   23.9362 C   0  0  0  0  0  0  0  0  0  0  0  0
    7.6095  -17.2157   24.4209 C   0  0  1  0  0  0  0  0  0  0  0  0
    7.8405  -18.4269   23.7629 O   0  0  0  0  0  0  0  0  0  0  0  0
    8.7709  -16.2737   24.2027 C   0  0  2  0  0  0  0  0  0  0  0  0
    8.9248  -16.0315   22.7831 N   0  0  0  0  0  0  0  0  0  0  0  0
   10.0205  -16.7798   24.8177 C   0  0  0  0  0  0  0  0  0  0  0  0
   10.9131  -17.3384   24.1335 O   0  0  0  0  0  0  0  0  0  0  0  0
   10.2658  -16.6555   26.2129 N   0  0  0  0  0  0  0  0  0  0  0  0
   11.4595  -17.1803   26.8444 C   0  0  0  0  0  0  0  0  0  0  0  0
   11.1333  -18.3421   27.6809 C   0  0  0  0  0  0  0  0  0  0  0  0
   12.1275  -18.9046   28.4667 O   0  0  0  0  0  0  0  0  0  0  0  0
    9.9848  -18.8599   27.7222 O   0  0  0  0  0  0  0  0  0  0  0  0
  1  2  1  0
  2  3  2  0
  4  5  1  0
  4  2  1  0
  6  8  1  0
  6  5  1  0
  6  7  1  6
  8  9  2  0
 11 10  1  6
 11 13  1  0
 12 11  1  0
 13 15  1  0
 13 14  1  6
 14  8  1  0
 15 17  1  0
 15 16  2  0
 17 18  1  0
 18 19  1  0
 19 21  2  0
 19 20  1  0
M  END
$$$$
