QHA.pdb
     RDKit          3D

 25 25  0  0  1  0  0  0  0  0999 V2000
   14.3512  -17.5181   15.7373 N   0  0  0  0  0  0  0  0  0  0  0  0
   15.5312  -16.9918   16.3327 C   0  0  0  0  0  0  0  0  0  0  0  0
   16.6705  -17.1734   15.8023 O   0  0  0  0  0  0  0  0  0  0  0  0
   15.3675  -16.2242   17.5971 C   0  0  0  0  0  0  0  0  0  0  0  0
   13.9238  -16.3443   18.0309 C   0  0  0  0  0  0  0  0  0  0  0  0
   13.3459  -14.9698   18.1906 C   0  0  2  0  0  0  0  0  0  0  0  0
   14.4159  -14.0028   18.2501 N   0  0  0  0  0  0  0  0  0  0  0  0
   12.5168  -14.9032   19.4311 C   0  0  0  0  0  0  0  0  0  0  0  0
   12.8404  -14.1463   20.3815 O   0  0  0  0  0  0  0  0  0  0  0  0
   11.3643  -15.7013   19.5236 N   0  0  0  0  0  0  0  0  0  0  0  0
   10.3700  -15.4937   20.6136 C   0  0  1  0  0  0  0  0  0  0  0  0
    9.0471  -15.7590   20.0001 C   0  0  0  0  0  0  0  0  0  0  0  0
    8.6113  -14.7467   19.0297 C   0  0  0  0  0  0  0  0  0  0  0  0
    8.0424  -13.5276   19.3487 C   0  0  0  0  0  0  0  0  0  0  0  0
    7.7890  -12.9042   18.1858 N   0  0  0  0  0  0  0  0  0  0  0  0
    8.1754  -13.6839   17.1842 C   0  0  0  0  0  0  0  0  0  0  0  0
    8.6766  -14.8076   17.7098 N   0  0  0  0  0  0  0  0  0  0  0  0
   10.7964  -16.3031   21.7323 C   0  0  0  0  0  0  0  0  0  0  0  0
   11.3959  -17.4111   21.4908 O   0  0  0  0  0  0  0  0  0  0  0  0
   10.9222  -16.2014   25.5142 C   0  0  0  0  0  0  0  0  0  0  0  0
   11.0397  -16.8267   24.1370 C   0  0  2  0  0  0  0  0  0  0  0  0
   10.6008  -15.9505   23.0981 N   0  0  0  0  0  0  0  0  0  0  0  0
   10.2939  -18.0795   24.1556 C   0  0  0  0  0  0  0  0  0  0  0  0
    9.2123  -18.1283   23.4678 O   0  0  0  0  0  0  0  0  0  0  0  0
   10.6741  -19.2020   24.8577 O   0  0  0  0  0  0  0  0  0  0  0  0
  2  4  1  0
  2  1  1  0
  3  2  2  0
  5  6  1  0
  5  4  1  0
  6  7  1  1
  6  8  1  0
  8  9  2  0
 10  8  1  0
 10 11  1  0
 11 12  1  6
 12 13  1  0
 13 14  2  0
 14 15  1  0
 16 15  1  0
 17 13  1  0
 17 16  2  0
 18 22  1  0
 18 11  1  0
 19 18  2  0
 21 20  1  1
 21 23  1  0
 21 22  1  0
 23 25  1  0
 24 23  2  0
M  END
$$$$
