QHA.pdb
     RDKit          3D

 25 25  0  0  1  0  0  0  0  0999 V2000
    9.3726  -12.8639   18.1317 N   0  0  0  0  0  0  0  0  0  0  0  0
    9.9376  -14.0798   17.6557 C   0  0  0  0  0  0  0  0  0  0  0  0
    9.9162  -14.3736   16.4206 O   0  0  0  0  0  0  0  0  0  0  0  0
   10.5500  -14.9837   18.6669 C   0  0  0  0  0  0  0  0  0  0  0  0
   10.3627  -14.3533   20.0287 C   0  0  0  0  0  0  0  0  0  0  0  0
   10.9204  -15.2731   21.0736 C   0  0  2  0  0  0  0  0  0  0  0  0
   10.5222  -16.6294   20.7815 N   0  0  0  0  0  0  0  0  0  0  0  0
   10.4322  -14.8688   22.4259 C   0  0  0  0  0  0  0  0  0  0  0  0
   10.6519  -13.7134   22.8705 O   0  0  0  0  0  0  0  0  0  0  0  0
    9.7204  -15.8007   23.1996 N   0  0  0  0  0  0  0  0  0  0  0  0
    8.8772  -15.3637   24.3475 C   0  0  1  0  0  0  0  0  0  0  0  0
    7.6303  -16.1589   24.2498 C   0  0  0  0  0  0  0  0  0  0  0  0
    6.8163  -15.8723   23.0617 C   0  0  0  0  0  0  0  0  0  0  0  0
    6.1387  -14.6908   22.8240 C   0  0  0  0  0  0  0  0  0  0  0  0
    5.5207  -14.8323   21.6394 N   0  0  0  0  0  0  0  0  0  0  0  0
    5.7908  -16.0363   21.1520 C   0  0  0  0  0  0  0  0  0  0  0  0
    6.5832  -16.6646   22.0282 N   0  0  0  0  0  0  0  0  0  0  0  0
    9.6903  -15.4824   25.5364 C   0  0  0  0  0  0  0  0  0  0  0  0
   10.6736  -16.3060   25.5238 O   0  0  0  0  0  0  0  0  0  0  0  0
   10.1040  -13.8834   28.9408 C   0  0  0  0  0  0  0  0  0  0  0  0
   10.3474  -14.9100   27.8508 C   0  0  2  0  0  0  0  0  0  0  0  0
    9.4777  -14.7374   26.7313 N   0  0  0  0  0  0  0  0  0  0  0  0
   10.2186  -16.2320   28.4523 C   0  0  0  0  0  0  0  0  0  0  0  0
   11.0098  -16.5148   29.4214 O   0  0  0  0  0  0  0  0  0  0  0  0
    9.3100  -17.1858   28.0497 O   0  0  0  0  0  0  0  0  0  0  0  0
  2  4  1  0
  2  1  1  0
  3  2  2  0
  5  6  1  0
  5  4  1  0
  6  7  1  6
  6  8  1  0
  8  9  2  0
 10  8  1  0
 10 11  1  0
 11 12  1  1
 12 13  1  0
 13 14  2  0
 14 15  1  0
 16 15  1  0
 17 13  1  0
 17 16  2  0
 18 22  1  0
 18 11  1  0
 19 18  2  0
 21 20  1  1
 21 23  1  0
 21 22  1  0
 23 25  1  0
 24 23  2  0
M  END
$$$$
