QHA.pdb
     RDKit          3D

 25 25  0  0  1  0  0  0  0  0999 V2000
   14.9518  -17.8744   19.3722 N   0  0  0  0  0  0  0  0  0  0  0  0
   15.8862  -17.5165   18.3608 C   0  0  0  0  0  0  0  0  0  0  0  0
   16.6295  -18.3899   17.8161 O   0  0  0  0  0  0  0  0  0  0  0  0
   15.9499  -16.0807   17.9748 C   0  0  0  0  0  0  0  0  0  0  0  0
   14.9057  -15.3365   18.7766 C   0  0  0  0  0  0  0  0  0  0  0  0
   13.6806  -15.1527   17.9315 C   0  0  2  0  0  0  0  0  0  0  0  0
   13.9477  -14.1738   16.9049 N   0  0  0  0  0  0  0  0  0  0  0  0
   12.5330  -14.7140   18.7807 C   0  0  0  0  0  0  0  0  0  0  0  0
   12.4660  -13.5351   19.2129 O   0  0  0  0  0  0  0  0  0  0  0  0
   11.5235  -15.6399   19.0926 N   0  0  0  0  0  0  0  0  0  0  0  0
   10.3537  -15.2504   19.9290 C   0  0  1  0  0  0  0  0  0  0  0  0
    9.1657  -15.7904   19.2263 C   0  0  0  0  0  0  0  0  0  0  0  0
    8.8144  -15.0808   17.9895 C   0  0  0  0  0  0  0  0  0  0  0  0
    8.5015  -13.7370   17.9013 C   0  0  0  0  0  0  0  0  0  0  0  0
    8.2417  -13.4857   16.6073 N   0  0  0  0  0  0  0  0  0  0  0  0
    8.3818  -14.6073   15.9126 C   0  0  0  0  0  0  0  0  0  0  0  0
    8.7319  -15.5766   16.7658 N   0  0  0  0  0  0  0  0  0  0  0  0
   10.6317  -15.6962   21.2754 C   0  0  0  0  0  0  0  0  0  0  0  0
   11.4527  -16.6680   21.4394 O   0  0  0  0  0  0  0  0  0  0  0  0
    9.6575  -14.9166   24.8538 C   0  0  0  0  0  0  0  0  0  0  0  0
   10.3673  -15.6537   23.7338 C   0  0  2  0  0  0  0  0  0  0  0  0
   10.0564  -15.1228   22.4450 N   0  0  0  0  0  0  0  0  0  0  0  0
   10.0238  -17.0662   23.8475 C   0  0  0  0  0  0  0  0  0  0  0  0
   10.4300  -17.6861   24.8943 O   0  0  0  0  0  0  0  0  0  0  0  0
    9.2977  -17.7691   22.9113 O   0  0  0  0  0  0  0  0  0  0  0  0
  2  4  1  0
  2  1  1  0
  3  2  2  0
  5  6  1  0
  5  4  1  0
  6  7  1  6
  6  8  1  0
  8  9  2  0
 10  8  1  0
 10 11  1  0
 11 12  1  6
 12 13  1  0
 13 14  2  0
 14 15  1  0
 16 15  1  0
 17 13  1  0
 17 16  2  0
 18 22  1  0
 18 11  1  0
 19 18  2  0
 21 20  1  1
 21 23  1  0
 21 22  1  0
 23 25  1  0
 24 23  2  0
M  END
$$$$
