QHA.pdb
     RDKit          3D

 25 25  0  0  1  0  0  0  0  0999 V2000
    7.8450  -20.9412   19.3868 N   0  0  0  0  0  0  0  0  0  0  0  0
    8.2669  -21.3630   18.0952 C   0  0  0  0  0  0  0  0  0  0  0  0
    7.5656  -22.1667   17.4064 O   0  0  0  0  0  0  0  0  0  0  0  0
    9.5593  -20.8213   17.5944 C   0  0  0  0  0  0  0  0  0  0  0  0
   10.1130  -19.8892   18.6486 C   0  0  0  0  0  0  0  0  0  0  0  0
    9.7418  -18.4793   18.2974 C   0  0  2  0  0  0  0  0  0  0  0  0
   10.3474  -18.1230   17.0365 N   0  0  0  0  0  0  0  0  0  0  0  0
   10.1952  -17.5469   19.3725 C   0  0  0  0  0  0  0  0  0  0  0  0
   11.3477  -17.0449   19.3452 O   0  0  0  0  0  0  0  0  0  0  0  0
    9.3130  -17.2357   20.4207 N   0  0  0  0  0  0  0  0  0  0  0  0
    9.6569  -16.1987   21.4337 C   0  0  1  0  0  0  0  0  0  0  0  0
    8.4506  -15.3462   21.5547 C   0  0  0  0  0  0  0  0  0  0  0  0
    8.2431  -14.4212   20.4331 C   0  0  0  0  0  0  0  0  0  0  0  0
    9.1036  -14.2575   19.3634 C   0  0  0  0  0  0  0  0  0  0  0  0
    8.5550  -13.3255   18.5663 N   0  0  0  0  0  0  0  0  0  0  0  0
    7.4101  -12.9199   19.1000 C   0  0  0  0  0  0  0  0  0  0  0  0
    7.2279  -13.5951   20.2406 N   0  0  0  0  0  0  0  0  0  0  0  0
   10.1395  -16.8967   22.6036 C   0  0  0  0  0  0  0  0  0  0  0  0
    9.3973  -17.8057   23.1216 O   0  0  0  0  0  0  0  0  0  0  0  0
   13.2585  -17.1909   24.7217 C   0  0  0  0  0  0  0  0  0  0  0  0
   11.8021  -17.4131   24.3599 C   0  0  2  0  0  0  0  0  0  0  0  0
   11.3964  -16.6474   23.2247 N   0  0  0  0  0  0  0  0  0  0  0  0
   11.0028  -17.1147   25.5424 C   0  0  0  0  0  0  0  0  0  0  0  0
   10.1343  -16.1763   25.4416 O   0  0  0  0  0  0  0  0  0  0  0  0
   11.1203  -17.7707   26.7479 O   0  0  0  0  0  0  0  0  0  0  0  0
  2  4  1  0
  2  1  1  0
  3  2  2  0
  5  6  1  0
  5  4  1  0
  6  7  1  6
  6  8  1  0
  8  9  2  0
 10  8  1  0
 10 11  1  0
 11 12  1  1
 12 13  1  0
 13 14  2  0
 14 15  1  0
 16 15  1  0
 17 13  1  0
 17 16  2  0
 18 22  1  0
 18 11  1  0
 19 18  2  0
 21 20  1  1
 21 23  1  0
 21 22  1  0
 23 25  1  0
 24 23  2  0
M  END
$$$$
