QHA.pdb
     RDKit          3D

 25 25  0  0  1  0  0  0  0  0999 V2000
   11.4372  -20.0474   18.4934 N   0  0  0  0  0  0  0  0  0  0  0  0
   10.2950  -20.1392   17.6501 C   0  0  0  0  0  0  0  0  0  0  0  0
   10.0234  -21.2126   17.0285 O   0  0  0  0  0  0  0  0  0  0  0  0
    9.4406  -18.9265   17.5324 C   0  0  0  0  0  0  0  0  0  0  0  0
   10.0821  -17.8246   18.3455 C   0  0  0  0  0  0  0  0  0  0  0  0
    9.6066  -17.9245   19.7643 C   0  0  2  0  0  0  0  0  0  0  0  0
    8.2463  -18.4068   19.7820 N   0  0  0  0  0  0  0  0  0  0  0  0
    9.6925  -16.5898   20.4289 C   0  0  0  0  0  0  0  0  0  0  0  0
   10.7798  -15.9595   20.4688 O   0  0  0  0  0  0  0  0  0  0  0  0
    8.5370  -16.0439   21.0125 N   0  0  0  0  0  0  0  0  0  0  0  0
    8.5768  -14.7313   21.7161 C   0  0  1  0  0  0  0  0  0  0  0  0
    7.4788  -13.9303   21.1247 C   0  0  0  0  0  0  0  0  0  0  0  0
    7.5956  -13.7112   19.6773 C   0  0  0  0  0  0  0  0  0  0  0  0
    8.1940  -12.6167   19.0811 C   0  0  0  0  0  0  0  0  0  0  0  0
    8.0908  -12.7963   17.7536 N   0  0  0  0  0  0  0  0  0  0  0  0
    7.4620  -13.9409   17.5198 C   0  0  0  0  0  0  0  0  0  0  0  0
    7.1633  -14.4929   18.7015 N   0  0  0  0  0  0  0  0  0  0  0  0
    8.5515  -15.0123   23.1335 C   0  0  0  0  0  0  0  0  0  0  0  0
    8.4517  -14.0276   23.9495 O   0  0  0  0  0  0  0  0  0  0  0  0
    7.6144  -17.4236   25.6336 C   0  0  0  0  0  0  0  0  0  0  0  0
    8.6915  -16.4928   25.1094 C   0  0  2  0  0  0  0  0  0  0  0  0
    8.6246  -16.3196   23.6934 N   0  0  0  0  0  0  0  0  0  0  0  0
    9.9801  -17.0208   25.5416 C   0  0  0  0  0  0  0  0  0  0  0  0
   10.8313  -17.3115   24.6272 O   0  0  0  0  0  0  0  0  0  0  0  0
   10.3371  -17.2246   26.8564 O   0  0  0  0  0  0  0  0  0  0  0  0
  2  4  1  0
  2  1  1  0
  3  2  2  0
  5  6  1  0
  5  4  1  0
  6  7  1  6
  6  8  1  0
  8  9  2  0
 10  8  1  0
 10 11  1  0
 11 12  1  6
 12 13  1  0
 13 14  2  0
 14 15  1  0
 16 15  1  0
 17 13  1  0
 17 16  2  0
 18 22  1  0
 18 11  1  0
 19 18  2  0
 21 20  1  6
 21 23  1  0
 21 22  1  0
 23 25  1  0
 24 23  2  0
M  END
$$$$
