QHA.pdb
     RDKit          3D

 25 25  0  0  1  0  0  0  0  0999 V2000
   13.5984  -18.2744   16.0517 N   0  0  0  0  0  0  0  0  0  0  0  0
   13.2797  -18.1521   14.6705 C   0  0  0  0  0  0  0  0  0  0  0  0
   14.1924  -18.0677   13.7919 O   0  0  0  0  0  0  0  0  0  0  0  0
   11.8366  -18.1280   14.3079 C   0  0  0  0  0  0  0  0  0  0  0  0
   11.0437  -17.8734   15.5703 C   0  0  0  0  0  0  0  0  0  0  0  0
   10.4056  -16.5193   15.4814 C   0  0  2  0  0  0  0  0  0  0  0  0
   10.5724  -15.9964   14.1464 N   0  0  0  0  0  0  0  0  0  0  0  0
   11.0212  -15.5959   16.4810 C   0  0  0  0  0  0  0  0  0  0  0  0
   11.8594  -14.7289   16.1253 O   0  0  0  0  0  0  0  0  0  0  0  0
   10.6499  -15.7085   17.8313 N   0  0  0  0  0  0  0  0  0  0  0  0
   11.2143  -14.7942   18.8633 C   0  0  1  0  0  0  0  0  0  0  0  0
   10.1383  -14.6156   19.8668 C   0  0  0  0  0  0  0  0  0  0  0  0
    8.9568  -13.8973   19.3722 C   0  0  0  0  0  0  0  0  0  0  0  0
    8.9600  -12.6143   18.8571 C   0  0  0  0  0  0  0  0  0  0  0  0
    7.6902  -12.3296   18.5231 N   0  0  0  0  0  0  0  0  0  0  0  0
    6.9233  -13.3736   18.8101 C   0  0  0  0  0  0  0  0  0  0  0  0
    7.7063  -14.3267   19.3285 N   0  0  0  0  0  0  0  0  0  0  0  0
   12.4751  -15.3616   19.2843 C   0  0  0  0  0  0  0  0  0  0  0  0
   12.5560  -16.6342   19.4230 O   0  0  0  0  0  0  0  0  0  0  0  0
   16.0811  -14.3969   19.7563 C   0  0  0  0  0  0  0  0  0  0  0  0
   14.8461  -15.2496   19.9781 C   0  0  2  0  0  0  0  0  0  0  0  0
   13.6477  -14.5995   19.5531 N   0  0  0  0  0  0  0  0  0  0  0  0
   14.8076  -15.6122   21.3899 C   0  0  0  0  0  0  0  0  0  0  0  0
   13.7692  -15.2629   22.0569 O   0  0  0  0  0  0  0  0  0  0  0  0
   15.8055  -16.2994   22.0452 O   0  0  0  0  0  0  0  0  0  0  0  0
  2  4  1  0
  2  1  1  0
  3  2  2  0
  5  6  1  0
  5  4  1  0
  6  7  1  6
  6  8  1  0
  8  9  2  0
 10  8  1  0
 10 11  1  0
 11 12  1  1
 12 13  1  0
 13 14  2  0
 14 15  1  0
 16 15  1  0
 17 13  1  0
 17 16  2  0
 18 22  1  0
 18 11  1  0
 19 18  2  0
 21 20  1  1
 21 23  1  0
 21 22  1  0
 23 25  1  0
 24 23  2  0
M  END
$$$$
