QHA.pdb
     RDKit          3D

 25 25  0  0  1  0  0  0  0  0999 V2000
   14.3588  -17.0545   15.7839 N   0  0  0  0  0  0  0  0  0  0  0  0
   13.6642  -18.2346   15.3978 C   0  0  0  0  0  0  0  0  0  0  0  0
   14.1096  -18.9857   14.4761 O   0  0  0  0  0  0  0  0  0  0  0  0
   12.4006  -18.5438   16.1204 C   0  0  0  0  0  0  0  0  0  0  0  0
   12.2346  -17.5243   17.2249 C   0  0  0  0  0  0  0  0  0  0  0  0
   11.2500  -18.0469   18.2280 C   0  0  2  0  0  0  0  0  0  0  0  0
    9.9826  -18.2832   17.5789 N   0  0  0  0  0  0  0  0  0  0  0  0
   11.0866  -17.0680   19.3442 C   0  0  0  0  0  0  0  0  0  0  0  0
   11.9906  -16.2343   19.6063 O   0  0  0  0  0  0  0  0  0  0  0  0
    9.9038  -17.0903   20.1020 N   0  0  0  0  0  0  0  0  0  0  0  0
    9.7484  -16.2340   21.3112 C   0  0  1  0  0  0  0  0  0  0  0  0
    8.3464  -15.7540   21.2803 C   0  0  0  0  0  0  0  0  0  0  0  0
    8.0899  -14.6838   20.3081 C   0  0  0  0  0  0  0  0  0  0  0  0
    9.0563  -14.0327   19.5638 C   0  0  0  0  0  0  0  0  0  0  0  0
    8.4143  -13.1298   18.8038 N   0  0  0  0  0  0  0  0  0  0  0  0
    7.1129  -13.2032   19.0516 C   0  0  0  0  0  0  0  0  0  0  0  0
    6.9244  -14.1557   19.9722 N   0  0  0  0  0  0  0  0  0  0  0  0
   10.1943  -17.0165   22.4415 C   0  0  0  0  0  0  0  0  0  0  0  0
    9.7950  -18.2316   22.5384 O   0  0  0  0  0  0  0  0  0  0  0  0
   12.5656  -16.7911   25.3775 C   0  0  0  0  0  0  0  0  0  0  0  0
   11.4387  -17.3771   24.5479 C   0  0  2  0  0  0  0  0  0  0  0  0
   11.0593  -16.5298   23.4626 N   0  0  0  0  0  0  0  0  0  0  0  0
   10.3257  -17.6544   25.4480 C   0  0  0  0  0  0  0  0  0  0  0  0
    9.2523  -16.9725   25.2808 O   0  0  0  0  0  0  0  0  0  0  0  0
   10.3542  -18.5930   26.4559 O   0  0  0  0  0  0  0  0  0  0  0  0
  2  4  1  0
  2  1  1  0
  3  2  2  0
  5  6  1  0
  5  4  1  0
  6  7  1  6
  6  8  1  0
  8  9  2  0
 10  8  1  0
 10 11  1  0
 11 12  1  1
 12 13  1  0
 13 14  2  0
 14 15  1  0
 16 15  1  0
 17 13  1  0
 17 16  2  0
 18 22  1  0
 18 11  1  0
 19 18  2  0
 21 20  1  1
 21 23  1  0
 21 22  1  0
 23 25  1  0
 24 23  2  0
M  END
$$$$
