QFR.pdb
     RDKit          3D

 32 32  0  0  1  0  0  0  0  0999 V2000
   28.0417  -23.7538  -16.1196 N   0  0  0  0  0  0  0  0  0  0  0  0
   28.9018  -22.7993  -16.7075 C   0  0  0  0  0  0  0  0  0  0  0  0
   29.8315  -23.1768  -17.4662 O   0  0  0  0  0  0  0  0  0  0  0  0
   28.7043  -21.3668  -16.4283 C   0  0  0  0  0  0  0  0  0  0  0  0
   27.6074  -21.1716  -15.3880 C   0  0  0  0  0  0  0  0  0  0  0  0
   26.3038  -21.0970  -16.1573 C   0  0  2  0  0  0  0  0  0  0  0  0
   26.4608  -20.4067  -17.4151 N   0  0  0  0  0  0  0  0  0  0  0  0
   25.3068  -20.3379  -15.3469 C   0  0  0  0  0  0  0  0  0  0  0  0
   25.2524  -20.4153  -14.1069 O   0  0  0  0  0  0  0  0  0  0  0  0
   24.3805  -19.4916  -16.0129 N   0  0  0  0  0  0  0  0  0  0  0  0
   23.3279  -18.7496  -15.2742 C   0  0  1  0  0  0  0  0  0  0  0  0
   23.1504  -17.4956  -16.0145 C   0  0  0  0  0  0  0  0  0  0  0  0
   22.5465  -17.4822  -17.3177 C   0  0  0  0  0  0  0  0  0  0  0  0
   23.2759  -17.5385  -18.5103 C   0  0  0  0  0  0  0  0  0  0  0  0
   22.6402  -17.5423  -19.7328 C   0  0  0  0  0  0  0  0  0  0  0  0
   21.2806  -17.4916  -19.8403 C   0  0  0  0  0  0  0  0  0  0  0  0
   20.5472  -17.4357  -18.6755 C   0  0  0  0  0  0  0  0  0  0  0  0
   21.1782  -17.4317  -17.4495 C   0  0  0  0  0  0  0  0  0  0  0  0
   22.1721  -19.6599  -15.1941 C   0  0  0  0  0  0  0  0  0  0  0  0
   22.0547  -20.5967  -16.0629 O   0  0  0  0  0  0  0  0  0  0  0  0
   17.1686  -25.1951  -10.6765 N   0  0  0  0  0  0  0  0  0  0  0  0
   18.1939  -25.6787  -11.5759 C   0  0  0  0  0  0  0  0  0  0  0  0
   18.2447  -26.9149  -11.8675 N   0  0  0  0  0  0  0  0  0  0  0  0
   19.1121  -24.7415  -12.1066 N   0  0  0  0  0  0  0  0  0  0  0  0
   19.0304  -23.3457  -11.7758 C   0  0  0  0  0  0  0  0  0  0  0  0
   18.8760  -22.4246  -12.9656 C   0  0  0  0  0  0  0  0  0  0  0  0
   20.0124  -21.4582  -13.0844 C   0  0  0  0  0  0  0  0  0  0  0  0
   20.0151  -20.5833  -14.2876 C   0  0  2  0  0  0  0  0  0  0  0  0
   21.1368  -19.6239  -14.2299 N   0  0  0  0  0  0  0  0  0  0  0  0
   18.7545  -19.8107  -14.3581 C   0  0  0  0  0  0  0  0  0  0  0  0
   17.5397  -20.4021  -14.6167 O   0  0  0  0  0  0  0  0  0  0  0  0
   18.7242  -18.5572  -14.1846 O   0  0  0  0  0  0  0  0  0  0  0  0
  1  2  1  0
  2  4  1  0
  3  2  2  0
  4  5  1  0
  6  7  1  6
  6  5  1  0
  8  9  2  0
  8  6  1  0
 10  8  1  0
 11 10  1  0
 11 12  1  6
 13 14  2  0
 13 12  1  0
 15 14  1  0
 16 15  2  0
 17 16  1  0
 17 18  2  0
 18 13  1  0
 19 20  2  0
 19 11  1  0
 22 23  2  0
 22 21  1  0
 24 22  1  0
 25 24  1  0
 26 27  1  0
 26 25  1  0
 28 29  1  0
 28 27  1  1
 29 19  1  0
 30 28  1  0
 31 30  1  0
 32 30  2  0
M  END
$$$$
