QFR.pdb
     RDKit          3D

 32 32  0  0  1  0  0  0  0  0999 V2000
   27.2231  -20.3079  -19.5353 N   0  0  0  0  0  0  0  0  0  0  0  0
   28.2450  -19.9393  -18.6320 C   0  0  0  0  0  0  0  0  0  0  0  0
   29.4470  -20.1824  -18.9126 O   0  0  0  0  0  0  0  0  0  0  0  0
   27.8966  -19.2720  -17.3661 C   0  0  0  0  0  0  0  0  0  0  0  0
   26.9857  -20.1606  -16.5270 C   0  0  0  0  0  0  0  0  0  0  0  0
   27.8999  -21.0148  -15.6717 C   0  0  2  0  0  0  0  0  0  0  0  0
   28.2151  -22.2703  -16.3101 N   0  0  0  0  0  0  0  0  0  0  0  0
   27.2095  -21.3232  -14.3851 C   0  0  0  0  0  0  0  0  0  0  0  0
   26.3543  -22.2202  -14.2814 O   0  0  0  0  0  0  0  0  0  0  0  0
   27.5382  -20.5654  -13.2295 N   0  0  0  0  0  0  0  0  0  0  0  0
   26.9243  -20.8486  -11.9077 C   0  0  1  0  0  0  0  0  0  0  0  0
   27.8882  -20.3488  -10.9212 C   0  0  0  0  0  0  0  0  0  0  0  0
   27.5258  -20.1986   -9.5395 C   0  0  0  0  0  0  0  0  0  0  0  0
   27.7680  -21.1725   -8.5646 C   0  0  0  0  0  0  0  0  0  0  0  0
   27.4152  -20.9643   -7.2490 C   0  0  0  0  0  0  0  0  0  0  0  0
   26.8177  -19.8091   -6.8352 C   0  0  0  0  0  0  0  0  0  0  0  0
   26.5720  -18.8396   -7.7827 C   0  0  0  0  0  0  0  0  0  0  0  0
   26.9230  -19.0427   -9.1006 C   0  0  0  0  0  0  0  0  0  0  0  0
   25.5933  -20.2172  -11.9363 C   0  0  0  0  0  0  0  0  0  0  0  0
   25.4394  -19.1154  -12.5756 O   0  0  0  0  0  0  0  0  0  0  0  0
   22.2378  -24.5809  -16.3012 N   0  0  0  0  0  0  0  0  0  0  0  0
   22.9256  -24.8561  -15.0581 C   0  0  0  0  0  0  0  0  0  0  0  0
   23.6527  -25.8938  -14.9563 N   0  0  0  0  0  0  0  0  0  0  0  0
   22.7619  -23.9435  -13.9888 N   0  0  0  0  0  0  0  0  0  0  0  0
   22.0082  -22.7310  -14.1500 C   0  0  0  0  0  0  0  0  0  0  0  0
   21.8358  -21.9235  -12.8827 C   0  0  0  0  0  0  0  0  0  0  0  0
   22.5865  -20.6298  -12.9294 C   0  0  0  0  0  0  0  0  0  0  0  0
   23.0987  -20.1138  -11.6315 C   0  0  2  0  0  0  0  0  0  0  0  0
   24.4162  -20.7050  -11.3206 N   0  0  0  0  0  0  0  0  0  0  0  0
   22.1669  -20.4708  -10.5382 C   0  0  0  0  0  0  0  0  0  0  0  0
   20.9255  -19.8925  -10.4080 O   0  0  0  0  0  0  0  0  0  0  0  0
   22.4621  -21.3311   -9.6579 O   0  0  0  0  0  0  0  0  0  0  0  0
  1  2  1  0
  2  4  1  0
  3  2  2  0
  4  5  1  0
  6  7  1  6
  6  5  1  0
  8  9  2  0
  8  6  1  0
 10  8  1  0
 11 10  1  0
 11 12  1  1
 13 14  2  0
 13 12  1  0
 15 14  1  0
 16 15  2  0
 17 16  1  0
 17 18  2  0
 18 13  1  0
 19 20  2  0
 19 11  1  0
 22 23  2  0
 22 21  1  0
 24 22  1  0
 25 24  1  0
 26 27  1  0
 26 25  1  0
 28 29  1  0
 28 27  1  6
 29 19  1  0
 30 28  1  0
 31 30  1  0
 32 30  2  0
M  END
$$$$
