QFR.pdb
     RDKit          3D

 32 32  0  0  1  0  0  0  0  0999 V2000
   20.0316  -23.0534   -7.1628 N   0  0  0  0  0  0  0  0  0  0  0  0
   19.9997  -23.5696   -8.4777 C   0  0  0  0  0  0  0  0  0  0  0  0
   19.5693  -24.7336   -8.6836 O   0  0  0  0  0  0  0  0  0  0  0  0
   20.4710  -22.7409   -9.6003 C   0  0  0  0  0  0  0  0  0  0  0  0
   20.8527  -21.3481   -9.1128 C   0  0  0  0  0  0  0  0  0  0  0  0
   21.9410  -21.5466   -8.0769 C   0  0  2  0  0  0  0  0  0  0  0  0
   21.4959  -21.1823   -6.7531 N   0  0  0  0  0  0  0  0  0  0  0  0
   23.1005  -20.6721   -8.4201 C   0  0  0  0  0  0  0  0  0  0  0  0
   23.0142  -19.4323   -8.4675 O   0  0  0  0  0  0  0  0  0  0  0  0
   24.3552  -21.2740   -8.7050 N   0  0  0  0  0  0  0  0  0  0  0  0
   25.5640  -20.4625   -8.9958 C   0  0  1  0  0  0  0  0  0  0  0  0
   26.6298  -21.0547   -8.1801 C   0  0  0  0  0  0  0  0  0  0  0  0
   27.1351  -20.3809   -7.0166 C   0  0  0  0  0  0  0  0  0  0  0  0
   27.1690  -18.9889   -6.8809 C   0  0  0  0  0  0  0  0  0  0  0  0
   27.6477  -18.3982   -5.7317 C   0  0  0  0  0  0  0  0  0  0  0  0
   28.1082  -19.1343   -4.6788 C   0  0  0  0  0  0  0  0  0  0  0  0
   28.0818  -20.5067   -4.7960 C   0  0  0  0  0  0  0  0  0  0  0  0
   27.6038  -21.1031   -5.9437 C   0  0  0  0  0  0  0  0  0  0  0  0
   25.7312  -20.4962  -10.4593 C   0  0  0  0  0  0  0  0  0  0  0  0
   25.3517  -21.5372  -11.1065 O   0  0  0  0  0  0  0  0  0  0  0  0
   29.0844  -16.8481  -17.7804 N   0  0  0  0  0  0  0  0  0  0  0  0
   27.6548  -16.6280  -17.8220 C   0  0  0  0  0  0  0  0  0  0  0  0
   27.0878  -16.3761  -18.9315 N   0  0  0  0  0  0  0  0  0  0  0  0
   26.9321  -16.7062  -16.6076 N   0  0  0  0  0  0  0  0  0  0  0  0
   27.5723  -17.0914  -15.3804 C   0  0  0  0  0  0  0  0  0  0  0  0
   27.1317  -18.4310  -14.8337 C   0  0  0  0  0  0  0  0  0  0  0  0
   26.7923  -18.3643  -13.3778 C   0  0  0  0  0  0  0  0  0  0  0  0
   26.3928  -19.6431  -12.7312 C   0  0  2  0  0  0  0  0  0  0  0  0
   26.2790  -19.4725  -11.2684 N   0  0  0  0  0  0  0  0  0  0  0  0
   27.4102  -20.6857  -12.9932 C   0  0  0  0  0  0  0  0  0  0  0  0
   28.2519  -21.1586  -12.0131 O   0  0  0  0  0  0  0  0  0  0  0  0
   27.5640  -21.2017  -14.1388 O   0  0  0  0  0  0  0  0  0  0  0  0
  1  2  1  0
  2  4  1  0
  3  2  2  0
  4  5  1  0
  6  7  1  1
  6  5  1  0
  8  9  2  0
  8  6  1  0
 10  8  1  0
 11 10  1  0
 11 12  1  1
 13 14  2  0
 13 12  1  0
 15 14  1  0
 16 15  2  0
 17 16  1  0
 17 18  2  0
 18 13  1  0
 19 20  2  0
 19 11  1  0
 22 23  2  0
 22 21  1  0
 24 22  1  0
 25 24  1  0
 26 27  1  0
 26 25  1  0
 28 29  1  0
 28 27  1  6
 29 19  1  0
 30 28  1  0
 31 30  1  0
 32 30  2  0
M  END
$$$$
