QFR.pdb
     RDKit          3D

 32 32  0  0  1  0  0  0  0  0999 V2000
   24.5985  -21.0780  -19.3477 N   0  0  0  0  0  0  0  0  0  0  0  0
   23.6002  -21.9616  -18.8799 C   0  0  0  0  0  0  0  0  0  0  0  0
   22.3979  -21.5921  -18.8553 O   0  0  0  0  0  0  0  0  0  0  0  0
   23.9734  -23.3112  -18.4235 C   0  0  0  0  0  0  0  0  0  0  0  0
   23.3853  -23.5907  -17.0453 C   0  0  0  0  0  0  0  0  0  0  0  0
   24.2643  -22.8550  -16.0538 C   0  0  2  0  0  0  0  0  0  0  0  0
   25.5189  -23.5357  -15.8393 N   0  0  0  0  0  0  0  0  0  0  0  0
   23.5584  -22.7849  -14.7408 C   0  0  0  0  0  0  0  0  0  0  0  0
   23.5860  -23.7138  -13.9144 O   0  0  0  0  0  0  0  0  0  0  0  0
   22.8239  -21.6130  -14.4167 N   0  0  0  0  0  0  0  0  0  0  0  0
   22.2525  -21.3974  -13.0634 C   0  0  1  0  0  0  0  0  0  0  0  0
   22.8644  -20.1541  -12.5816 C   0  0  0  0  0  0  0  0  0  0  0  0
   23.9292  -20.1760  -11.6179 C   0  0  0  0  0  0  0  0  0  0  0  0
   23.7228  -20.2640  -10.2369 C   0  0  0  0  0  0  0  0  0  0  0  0
   24.7854  -20.3008   -9.3603 C   0  0  0  0  0  0  0  0  0  0  0  0
   26.0795  -20.2536   -9.7913 C   0  0  0  0  0  0  0  0  0  0  0  0
   26.3004  -20.1668  -11.1483 C   0  0  0  0  0  0  0  0  0  0  0  0
   25.2409  -20.1297  -12.0299 C   0  0  0  0  0  0  0  0  0  0  0  0
   20.7893  -21.4114  -13.2354 C   0  0  0  0  0  0  0  0  0  0  0  0
   20.2675  -20.7370  -14.1942 O   0  0  0  0  0  0  0  0  0  0  0  0
   15.3732  -26.8057   -9.4809 N   0  0  0  0  0  0  0  0  0  0  0  0
   16.7049  -26.5249   -8.9892 C   0  0  0  0  0  0  0  0  0  0  0  0
   17.1227  -27.1015   -7.9362 N   0  0  0  0  0  0  0  0  0  0  0  0
   17.5037  -25.6076   -9.7128 N   0  0  0  0  0  0  0  0  0  0  0  0
   17.1819  -25.2404  -11.0641 C   0  0  0  0  0  0  0  0  0  0  0  0
   18.1677  -24.2930  -11.7109 C   0  0  0  0  0  0  0  0  0  0  0  0
   17.6360  -22.8971  -11.8001 C   0  0  0  0  0  0  0  0  0  0  0  0
   18.4020  -21.9495  -12.6537 C   0  0  2  0  0  0  0  0  0  0  0  0
   19.8542  -22.1132  -12.4381 N   0  0  0  0  0  0  0  0  0  0  0  0
   18.0429  -20.5542  -12.3143 C   0  0  0  0  0  0  0  0  0  0  0  0
   16.9889  -19.8983  -12.9071 O   0  0  0  0  0  0  0  0  0  0  0  0
   18.6890  -19.8837  -11.4569 O   0  0  0  0  0  0  0  0  0  0  0  0
  1  2  1  0
  2  4  1  0
  3  2  2  0
  4  5  1  0
  6  7  1  1
  6  5  1  0
  8  9  2  0
  8  6  1  0
 10  8  1  0
 11 10  1  0
 11 12  1  6
 13 14  2  0
 13 12  1  0
 15 14  1  0
 16 15  2  0
 17 16  1  0
 17 18  2  0
 18 13  1  0
 19 20  2  0
 19 11  1  0
 22 23  2  0
 22 21  1  0
 24 22  1  0
 25 24  1  0
 26 27  1  0
 26 25  1  0
 28 29  1  0
 28 27  1  1
 29 19  1  0
 30 28  1  0
 31 30  1  0
 32 30  2  0
M  END
$$$$
