QFR.pdb
     RDKit          3D

 32 32  0  0  1  0  0  0  0  0999 V2000
   24.1347  -26.4368  -18.7884 N   0  0  0  0  0  0  0  0  0  0  0  0
   25.1929  -27.3323  -18.5154 C   0  0  0  0  0  0  0  0  0  0  0  0
   25.6489  -28.0619  -19.4331 O   0  0  0  0  0  0  0  0  0  0  0  0
   25.7564  -27.4060  -17.1566 C   0  0  0  0  0  0  0  0  0  0  0  0
   25.1127  -26.3599  -16.2539 C   0  0  0  0  0  0  0  0  0  0  0  0
   25.8802  -25.0734  -16.4840 C   0  0  2  0  0  0  0  0  0  0  0  0
   27.3021  -25.2592  -16.3199 N   0  0  0  0  0  0  0  0  0  0  0  0
   25.4383  -24.0608  -15.4809 C   0  0  0  0  0  0  0  0  0  0  0  0
   25.9319  -23.9857  -14.3419 O   0  0  0  0  0  0  0  0  0  0  0  0
   24.4133  -23.1435  -15.8355 N   0  0  0  0  0  0  0  0  0  0  0  0
   23.9833  -22.0582  -14.9181 C   0  0  1  0  0  0  0  0  0  0  0  0
   24.2777  -20.8115  -15.6331 C   0  0  0  0  0  0  0  0  0  0  0  0
   25.6169  -20.2978  -15.7087 C   0  0  0  0  0  0  0  0  0  0  0  0
   26.4769  -20.5322  -16.7870 C   0  0  0  0  0  0  0  0  0  0  0  0
   27.7462  -19.9964  -16.8133 C   0  0  0  0  0  0  0  0  0  0  0  0
   28.2230  -19.2180  -15.7988 C   0  0  0  0  0  0  0  0  0  0  0  0
   27.3888  -18.9774  -14.7292 C   0  0  0  0  0  0  0  0  0  0  0  0
   26.1178  -19.5110  -14.6977 C   0  0  0  0  0  0  0  0  0  0  0  0
   22.5735  -22.3379  -14.5937 C   0  0  0  0  0  0  0  0  0  0  0  0
   21.7598  -22.6239  -15.5437 O   0  0  0  0  0  0  0  0  0  0  0  0
   19.4163  -24.9310   -8.5086 N   0  0  0  0  0  0  0  0  0  0  0  0
   17.9897  -24.7572   -8.6778 C   0  0  0  0  0  0  0  0  0  0  0  0
   17.2187  -24.8587   -7.6722 N   0  0  0  0  0  0  0  0  0  0  0  0
   17.5014  -24.4734   -9.9755 N   0  0  0  0  0  0  0  0  0  0  0  0
   18.3946  -24.2740  -11.0830 C   0  0  0  0  0  0  0  0  0  0  0  0
   18.7461  -22.8285  -11.3562 C   0  0  0  0  0  0  0  0  0  0  0  0
   20.1950  -22.6509  -11.6855 C   0  0  0  0  0  0  0  0  0  0  0  0
   20.5407  -22.5663  -13.1300 C   0  0  2  0  0  0  0  0  0  0  0  0
   21.9886  -22.3323  -13.3051 N   0  0  0  0  0  0  0  0  0  0  0  0
   19.8150  -21.4417  -13.7622 C   0  0  0  0  0  0  0  0  0  0  0  0
   18.5893  -21.6005  -14.3662 O   0  0  0  0  0  0  0  0  0  0  0  0
   20.2844  -20.2663  -13.7831 O   0  0  0  0  0  0  0  0  0  0  0  0
  1  2  1  0
  2  4  1  0
  3  2  2  0
  4  5  1  0
  6  7  1  1
  6  5  1  0
  8  9  2  0
  8  6  1  0
 10  8  1  0
 11 10  1  0
 11 12  1  6
 13 14  2  0
 13 12  1  0
 15 14  1  0
 16 15  2  0
 17 16  1  0
 17 18  2  0
 18 13  1  0
 19 20  2  0
 19 11  1  0
 22 23  2  0
 22 21  1  0
 24 22  1  0
 25 24  1  0
 26 27  1  0
 26 25  1  0
 28 29  1  0
 28 27  1  1
 29 19  1  0
 30 28  1  0
 31 30  1  0
 32 30  2  0
M  END
$$$$
