QFR.pdb
     RDKit          3D

 32 32  0  0  1  0  0  0  0  0999 V2000
   28.5856  -17.5637  -14.0012 N   0  0  0  0  0  0  0  0  0  0  0  0
   28.7505  -18.1516  -15.2753 C   0  0  0  0  0  0  0  0  0  0  0  0
   29.3180  -17.5066  -16.1943 O   0  0  0  0  0  0  0  0  0  0  0  0
   28.2569  -19.5174  -15.5201 C   0  0  0  0  0  0  0  0  0  0  0  0
   27.6766  -20.1126  -14.2424 C   0  0  0  0  0  0  0  0  0  0  0  0
   28.8491  -20.6893  -13.4745 C   0  0  2  0  0  0  0  0  0  0  0  0
   29.4608  -21.7923  -14.1762 N   0  0  0  0  0  0  0  0  0  0  0  0
   28.3610  -21.2042  -12.1616 C   0  0  0  0  0  0  0  0  0  0  0  0
   27.6285  -22.2045  -12.0643 O   0  0  0  0  0  0  0  0  0  0  0  0
   28.7451  -20.5290  -10.9723 N   0  0  0  0  0  0  0  0  0  0  0  0
   28.1524  -20.8682   -9.6541 C   0  0  1  0  0  0  0  0  0  0  0  0
   29.0160  -20.2145   -8.6647 C   0  0  0  0  0  0  0  0  0  0  0  0
   28.5985  -20.0651   -7.2985 C   0  0  0  0  0  0  0  0  0  0  0  0
   27.9178  -18.9427   -6.8146 C   0  0  0  0  0  0  0  0  0  0  0  0
   27.5245  -18.8636   -5.4963 C   0  0  0  0  0  0  0  0  0  0  0  0
   27.7769  -19.8664   -4.6056 C   0  0  0  0  0  0  0  0  0  0  0  0
   28.4465  -20.9789   -5.0658 C   0  0  0  0  0  0  0  0  0  0  0  0
   28.8424  -21.0633   -6.3839 C   0  0  0  0  0  0  0  0  0  0  0  0
   26.7458  -20.4343   -9.7194 C   0  0  0  0  0  0  0  0  0  0  0  0
   26.4786  -19.2418  -10.1105 O   0  0  0  0  0  0  0  0  0  0  0  0
   19.1691  -21.8622  -12.1590 N   0  0  0  0  0  0  0  0  0  0  0  0
   19.6011  -20.7906  -13.0303 C   0  0  0  0  0  0  0  0  0  0  0  0
   19.1323  -20.7087  -14.2089 N   0  0  0  0  0  0  0  0  0  0  0  0
   20.5409  -19.8595  -12.5272 N   0  0  0  0  0  0  0  0  0  0  0  0
   21.9115  -20.2279  -12.3034 C   0  0  0  0  0  0  0  0  0  0  0  0
   22.1636  -20.9545  -11.0010 C   0  0  0  0  0  0  0  0  0  0  0  0
   23.6144  -21.2569  -10.7932 C   0  0  0  0  0  0  0  0  0  0  0  0
   24.2457  -20.6728   -9.5793 C   0  0  2  0  0  0  0  0  0  0  0  0
   25.6088  -21.2108   -9.3926 N   0  0  0  0  0  0  0  0  0  0  0  0
   23.4504  -21.0128   -8.3782 C   0  0  0  0  0  0  0  0  0  0  0  0
   22.2271  -20.4405   -8.1165 O   0  0  0  0  0  0  0  0  0  0  0  0
   23.8538  -21.8521   -7.5207 O   0  0  0  0  0  0  0  0  0  0  0  0
  1  2  1  0
  2  4  1  0
  3  2  2  0
  4  5  1  0
  6  7  1  6
  6  5  1  0
  8  9  2  0
  8  6  1  0
 10  8  1  0
 11 10  1  0
 11 12  1  1
 13 14  2  0
 13 12  1  0
 15 14  1  0
 16 15  2  0
 17 16  1  0
 17 18  2  0
 18 13  1  0
 19 20  2  0
 19 11  1  0
 22 23  2  0
 22 21  1  0
 24 22  1  0
 25 24  1  0
 26 27  1  0
 26 25  1  0
 28 29  1  0
 28 27  1  6
 29 19  1  0
 30 28  1  0
 31 30  1  0
 32 30  2  0
M  END
$$$$
