QFR.pdb
     RDKit          3D

 32 32  0  0  1  0  0  0  0  0999 V2000
   26.3176  -17.3498  -13.6349 N   0  0  0  0  0  0  0  0  0  0  0  0
   26.2418  -18.0496  -14.8599 C   0  0  0  0  0  0  0  0  0  0  0  0
   26.6315  -17.4985  -15.9215 O   0  0  0  0  0  0  0  0  0  0  0  0
   25.7066  -19.4214  -14.8867 C   0  0  0  0  0  0  0  0  0  0  0  0
   25.3535  -19.8846  -13.4781 C   0  0  0  0  0  0  0  0  0  0  0  0
   26.6482  -20.3662  -12.8546 C   0  0  2  0  0  0  0  0  0  0  0  0
   27.2344  -21.4516  -13.6039 N   0  0  0  0  0  0  0  0  0  0  0  0
   26.3645  -20.8688  -11.4784 C   0  0  0  0  0  0  0  0  0  0  0  0
   25.9848  -22.0316  -11.2544 O   0  0  0  0  0  0  0  0  0  0  0  0
   26.5332  -19.9883  -10.3765 N   0  0  0  0  0  0  0  0  0  0  0  0
   26.4721  -20.4705   -8.9736 C   0  0  1  0  0  0  0  0  0  0  0  0
   27.3587  -19.5764   -8.2209 C   0  0  0  0  0  0  0  0  0  0  0  0
   27.4976  -19.6958   -6.7963 C   0  0  0  0  0  0  0  0  0  0  0  0
   27.4917  -18.6029   -5.9229 C   0  0  0  0  0  0  0  0  0  0  0  0
   27.6094  -18.7804   -4.5615 C   0  0  0  0  0  0  0  0  0  0  0  0
   27.7363  -20.0190   -4.0026 C   0  0  0  0  0  0  0  0  0  0  0  0
   27.7440  -21.1061   -4.8487 C   0  0  0  0  0  0  0  0  0  0  0  0
   27.6265  -20.9343   -6.2117 C   0  0  0  0  0  0  0  0  0  0  0  0
   25.0444  -20.4750   -8.6094 C   0  0  0  0  0  0  0  0  0  0  0  0
   24.3159  -19.4685   -8.9300 O   0  0  0  0  0  0  0  0  0  0  0  0
   18.8501  -24.3520   -5.6317 N   0  0  0  0  0  0  0  0  0  0  0  0
   17.9908  -23.9704   -6.7317 C   0  0  0  0  0  0  0  0  0  0  0  0
   16.7494  -23.7879   -6.5278 N   0  0  0  0  0  0  0  0  0  0  0  0
   18.5756  -23.8096   -8.0105 N   0  0  0  0  0  0  0  0  0  0  0  0
   20.0017  -23.8034   -8.1846 C   0  0  0  0  0  0  0  0  0  0  0  0
   20.6898  -22.5464   -7.7006 C   0  0  0  0  0  0  0  0  0  0  0  0
   22.1634  -22.5725   -7.9594 C   0  0  0  0  0  0  0  0  0  0  0  0
   22.9248  -21.3526   -7.5779 C   0  0  2  0  0  0  0  0  0  0  0  0
   24.3531  -21.5020   -7.9240 N   0  0  0  0  0  0  0  0  0  0  0  0
   22.8283  -21.1281   -6.1180 C   0  0  0  0  0  0  0  0  0  0  0  0
   21.7959  -20.4208   -5.5466 O   0  0  0  0  0  0  0  0  0  0  0  0
   23.6945  -21.5755   -5.3107 O   0  0  0  0  0  0  0  0  0  0  0  0
  1  2  1  0
  2  4  1  0
  3  2  2  0
  4  5  1  0
  6  7  1  6
  6  5  1  0
  8  9  2  0
  8  6  1  0
 10  8  1  0
 11 10  1  0
 11 12  1  1
 13 14  2  0
 13 12  1  0
 15 14  1  0
 16 15  2  0
 17 16  1  0
 17 18  2  0
 18 13  1  0
 19 20  2  0
 19 11  1  0
 22 23  2  0
 22 21  1  0
 24 22  1  0
 25 24  1  0
 26 27  1  0
 26 25  1  0
 28 29  1  0
 28 27  1  1
 29 19  1  0
 30 28  1  0
 31 30  1  0
 32 30  2  0
M  END
$$$$
