QFR.pdb
     RDKit          3D

 32 32  0  0  1  0  0  0  0  0999 V2000
   24.5895  -20.1144  -18.5551 N   0  0  0  0  0  0  0  0  0  0  0  0
   25.6722  -20.0534  -19.4608 C   0  0  0  0  0  0  0  0  0  0  0  0
   25.7219  -19.1328  -20.3168 O   0  0  0  0  0  0  0  0  0  0  0  0
   26.7371  -21.0688  -19.3973 C   0  0  0  0  0  0  0  0  0  0  0  0
   26.5207  -21.9960  -18.2069 C   0  0  0  0  0  0  0  0  0  0  0  0
   27.2472  -21.3602  -17.0386 C   0  0  2  0  0  0  0  0  0  0  0  0
   28.6432  -21.7256  -17.0108 N   0  0  0  0  0  0  0  0  0  0  0  0
   26.6297  -21.8387  -15.7670 C   0  0  0  0  0  0  0  0  0  0  0  0
   26.2639  -23.0156  -15.6007 O   0  0  0  0  0  0  0  0  0  0  0  0
   26.4500  -20.9176  -14.7007 N   0  0  0  0  0  0  0  0  0  0  0  0
   25.8640  -21.3307  -13.4007 C   0  0  1  0  0  0  0  0  0  0  0  0
   26.6002  -20.5671  -12.3872 C   0  0  0  0  0  0  0  0  0  0  0  0
   26.2128  -20.6027  -11.0046 C   0  0  0  0  0  0  0  0  0  0  0  0
   26.8899  -21.3423  -10.0290 C   0  0  0  0  0  0  0  0  0  0  0  0
   26.4833  -21.3225   -8.7125 C   0  0  0  0  0  0  0  0  0  0  0  0
   25.4102  -20.5878   -8.2987 C   0  0  0  0  0  0  0  0  0  0  0  0
   24.7321  -19.8537   -9.2469 C   0  0  0  0  0  0  0  0  0  0  0  0
   25.1346  -19.8698  -10.5656 C   0  0  0  0  0  0  0  0  0  0  0  0
   24.4154  -21.0871  -13.5144 C   0  0  0  0  0  0  0  0  0  0  0  0
   24.0060  -20.0335  -14.1217 O   0  0  0  0  0  0  0  0  0  0  0  0
   16.9901  -25.6944  -11.8968 N   0  0  0  0  0  0  0  0  0  0  0  0
   16.5407  -24.3300  -11.7221 C   0  0  0  0  0  0  0  0  0  0  0  0
   15.3616  -24.1033  -11.3046 N   0  0  0  0  0  0  0  0  0  0  0  0
   17.4464  -23.2853  -12.0243 N   0  0  0  0  0  0  0  0  0  0  0  0
   18.7575  -23.5599  -12.5440 C   0  0  0  0  0  0  0  0  0  0  0  0
   19.5921  -22.3310  -12.8287 C   0  0  0  0  0  0  0  0  0  0  0  0
   21.0596  -22.6184  -12.7738 C   0  0  0  0  0  0  0  0  0  0  0  0
   21.9693  -21.4821  -13.0810 C   0  0  2  0  0  0  0  0  0  0  0  0
   23.3805  -21.9139  -13.0165 N   0  0  0  0  0  0  0  0  0  0  0  0
   21.7773  -20.3952  -12.0948 C   0  0  0  0  0  0  0  0  0  0  0  0
   21.0062  -19.2869  -12.3584 O   0  0  0  0  0  0  0  0  0  0  0  0
   22.3150  -20.4247  -10.9492 O   0  0  0  0  0  0  0  0  0  0  0  0
  1  2  1  0
  2  4  1  0
  3  2  2  0
  4  5  1  0
  6  7  1  1
  6  5  1  0
  8  9  2  0
  8  6  1  0
 10  8  1  0
 11 10  1  0
 11 12  1  1
 13 14  2  0
 13 12  1  0
 15 14  1  0
 16 15  2  0
 17 16  1  0
 17 18  2  0
 18 13  1  0
 19 20  2  0
 19 11  1  0
 22 23  2  0
 22 21  1  0
 24 22  1  0
 25 24  1  0
 26 27  1  0
 26 25  1  0
 28 29  1  0
 28 27  1  1
 29 19  1  0
 30 28  1  0
 31 30  1  0
 32 30  2  0
M  END
$$$$
