QFR.pdb
     RDKit          3D

 32 32  0  0  1  0  0  0  0  0999 V2000
   28.3885  -17.4498  -14.8158 N   0  0  0  0  0  0  0  0  0  0  0  0
   27.7852  -18.4263  -15.6397 C   0  0  0  0  0  0  0  0  0  0  0  0
   27.9088  -18.3546  -16.8896 O   0  0  0  0  0  0  0  0  0  0  0  0
   27.0148  -19.5233  -15.0297 C   0  0  0  0  0  0  0  0  0  0  0  0
   27.0173  -19.3974  -13.5106 C   0  0  0  0  0  0  0  0  0  0  0  0
   28.1190  -20.3113  -13.0127 C   0  0  2  0  0  0  0  0  0  0  0  0
   28.3276  -21.4328  -13.8971 N   0  0  0  0  0  0  0  0  0  0  0  0
   27.7304  -20.8546  -11.6783 C   0  0  0  0  0  0  0  0  0  0  0  0
   27.0796  -21.9061  -11.5462 O   0  0  0  0  0  0  0  0  0  0  0  0
   28.1163  -20.1468  -10.5087 N   0  0  0  0  0  0  0  0  0  0  0  0
   27.6790  -20.5741   -9.1558 C   0  0  1  0  0  0  0  0  0  0  0  0
   28.5519  -19.8519   -8.2238 C   0  0  0  0  0  0  0  0  0  0  0  0
   28.2495  -19.7893   -6.8210 C   0  0  0  0  0  0  0  0  0  0  0  0
   27.7732  -18.6398   -6.1816 C   0  0  0  0  0  0  0  0  0  0  0  0
   27.4814  -18.6448   -4.8349 C   0  0  0  0  0  0  0  0  0  0  0  0
   27.6410  -19.7604   -4.0651 C   0  0  0  0  0  0  0  0  0  0  0  0
   28.1094  -20.9012   -4.6793 C   0  0  0  0  0  0  0  0  0  0  0  0
   28.4029  -20.9018   -6.0265 C   0  0  0  0  0  0  0  0  0  0  0  0
   26.2344  -20.2919   -9.0899 C   0  0  0  0  0  0  0  0  0  0  0  0
   25.8189  -19.1041   -9.3411 O   0  0  0  0  0  0  0  0  0  0  0  0
   20.4290  -21.8106  -14.2131 N   0  0  0  0  0  0  0  0  0  0  0  0
   21.3340  -20.7116  -13.9538 C   0  0  0  0  0  0  0  0  0  0  0  0
   21.7895  -20.0278  -14.9237 N   0  0  0  0  0  0  0  0  0  0  0  0
   21.6794  -20.4347  -12.6094 N   0  0  0  0  0  0  0  0  0  0  0  0
   21.1169  -21.1882  -11.5230 C   0  0  0  0  0  0  0  0  0  0  0  0
   21.6751  -20.8413  -10.1607 C   0  0  0  0  0  0  0  0  0  0  0  0
   23.1399  -21.1298  -10.0590 C   0  0  0  0  0  0  0  0  0  0  0  0
   23.7922  -20.7982   -8.7637 C   0  0  2  0  0  0  0  0  0  0  0  0
   25.2093  -21.2149   -8.7738 N   0  0  0  0  0  0  0  0  0  0  0  0
   23.1139  -21.5076   -7.6558 C   0  0  0  0  0  0  0  0  0  0  0  0
   21.7914  -21.2943   -7.3427 O   0  0  0  0  0  0  0  0  0  0  0  0
   23.7158  -22.3528   -6.9309 O   0  0  0  0  0  0  0  0  0  0  0  0
  1  2  1  0
  2  4  1  0
  3  2  2  0
  4  5  1  0
  6  7  1  6
  6  5  1  0
  8  9  2  0
  8  6  1  0
 10  8  1  0
 11 10  1  0
 11 12  1  1
 13 14  2  0
 13 12  1  0
 15 14  1  0
 16 15  2  0
 17 16  1  0
 17 18  2  0
 18 13  1  0
 19 20  2  0
 19 11  1  0
 22 23  2  0
 22 21  1  0
 24 22  1  0
 25 24  1  0
 26 27  1  0
 26 25  1  0
 28 29  1  0
 28 27  1  6
 29 19  1  0
 30 28  1  0
 31 30  1  0
 32 30  2  0
M  END
$$$$
