QFR.pdb
     RDKit          3D

 32 32  0  0  1  0  0  0  0  0999 V2000
   26.6446  -20.5249  -18.5345 N   0  0  0  0  0  0  0  0  0  0  0  0
   25.3816  -21.1464  -18.4127 C   0  0  0  0  0  0  0  0  0  0  0  0
   25.0779  -22.1024  -19.1719 O   0  0  0  0  0  0  0  0  0  0  0  0
   24.4274  -20.6710  -17.3965 C   0  0  0  0  0  0  0  0  0  0  0  0
   24.3288  -21.6686  -16.2483 C   0  0  0  0  0  0  0  0  0  0  0  0
   25.6969  -21.6999  -15.5970 C   0  0  2  0  0  0  0  0  0  0  0  0
   26.5205  -22.7599  -16.1273 N   0  0  0  0  0  0  0  0  0  0  0  0
   25.5307  -21.9459  -14.1345 C   0  0  0  0  0  0  0  0  0  0  0  0
   25.1629  -23.0421  -13.6766 O   0  0  0  0  0  0  0  0  0  0  0  0
   25.8018  -20.8895  -13.2243 N   0  0  0  0  0  0  0  0  0  0  0  0
   25.7316  -21.0861  -11.7544 C   0  0  1  0  0  0  0  0  0  0  0  0
   26.6238  -20.0688  -11.1875 C   0  0  0  0  0  0  0  0  0  0  0  0
   26.8276  -19.9676   -9.7693 C   0  0  0  0  0  0  0  0  0  0  0  0
   26.0781  -19.1296   -8.9367 C   0  0  0  0  0  0  0  0  0  0  0  0
   26.3059  -19.0889   -7.5783 C   0  0  0  0  0  0  0  0  0  0  0  0
   27.2646  -19.8566   -6.9832 C   0  0  0  0  0  0  0  0  0  0  0  0
   28.0118  -20.6875   -7.7888 C   0  0  0  0  0  0  0  0  0  0  0  0
   27.7880  -20.7322   -9.1487 C   0  0  0  0  0  0  0  0  0  0  0  0
   24.3027  -21.0072  -11.4037 C   0  0  0  0  0  0  0  0  0  0  0  0
   23.5147  -20.3213  -12.1486 O   0  0  0  0  0  0  0  0  0  0  0  0
   19.0799  -25.5828   -5.9829 N   0  0  0  0  0  0  0  0  0  0  0  0
   18.1061  -24.7539   -6.6602 C   0  0  0  0  0  0  0  0  0  0  0  0
   16.8656  -24.9843   -6.5054 N   0  0  0  0  0  0  0  0  0  0  0  0
   18.5801  -23.7009   -7.4784 N   0  0  0  0  0  0  0  0  0  0  0  0
   19.9845  -23.5148   -7.7180 C   0  0  0  0  0  0  0  0  0  0  0  0
   20.3195  -22.3569   -8.6316 C   0  0  0  0  0  0  0  0  0  0  0  0
   21.7914  -22.2314   -8.8699 C   0  0  0  0  0  0  0  0  0  0  0  0
   22.2036  -21.5717  -10.1380 C   0  0  2  0  0  0  0  0  0  0  0  0
   23.6708  -21.6277  -10.3000 N   0  0  0  0  0  0  0  0  0  0  0  0
   21.7979  -20.1483  -10.1266 C   0  0  0  0  0  0  0  0  0  0  0  0
   22.4022  -19.2149   -9.3166 O   0  0  0  0  0  0  0  0  0  0  0  0
   20.8676  -19.7089  -10.8641 O   0  0  0  0  0  0  0  0  0  0  0  0
  1  2  1  0
  2  4  1  0
  3  2  2  0
  4  5  1  0
  6  7  1  6
  6  5  1  0
  8  9  2  0
  8  6  1  0
 10  8  1  0
 11 10  1  0
 11 12  1  1
 13 14  2  0
 13 12  1  0
 15 14  1  0
 16 15  2  0
 17 16  1  0
 17 18  2  0
 18 13  1  0
 19 20  2  0
 19 11  1  0
 22 23  2  0
 22 21  1  0
 24 22  1  0
 25 24  1  0
 26 27  1  0
 26 25  1  0
 28 29  1  0
 28 27  1  1
 29 19  1  0
 30 28  1  0
 31 30  1  0
 32 30  2  0
M  END
$$$$
