QFR.pdb
     RDKit          3D

 32 32  0  0  1  0  0  0  0  0999 V2000
   30.6573  -21.7987  -18.3699 N   0  0  0  0  0  0  0  0  0  0  0  0
   29.7778  -21.2987  -19.3563 C   0  0  0  0  0  0  0  0  0  0  0  0
   30.2404  -20.8217  -20.4244 O   0  0  0  0  0  0  0  0  0  0  0  0
   28.3234  -21.3393  -19.1277 C   0  0  0  0  0  0  0  0  0  0  0  0
   28.0143  -21.9336  -17.7585 C   0  0  0  0  0  0  0  0  0  0  0  0
   27.2390  -20.8731  -17.0028 C   0  0  2  0  0  0  0  0  0  0  0  0
   28.0107  -19.6662  -16.8270 N   0  0  0  0  0  0  0  0  0  0  0  0
   26.9018  -21.3953  -15.6461 C   0  0  0  0  0  0  0  0  0  0  0  0
   26.5904  -22.5820  -15.4429 O   0  0  0  0  0  0  0  0  0  0  0  0
   26.9363  -20.5061  -14.5389 N   0  0  0  0  0  0  0  0  0  0  0  0
   26.5879  -20.9522  -13.1664 C   0  0  1  0  0  0  0  0  0  0  0  0
   27.4111  -20.1287  -12.2741 C   0  0  0  0  0  0  0  0  0  0  0  0
   27.1427  -20.0657  -10.8644 C   0  0  0  0  0  0  0  0  0  0  0  0
   26.0886  -19.3328  -10.3084 C   0  0  0  0  0  0  0  0  0  0  0  0
   25.8677  -19.3255   -8.9483 C   0  0  0  0  0  0  0  0  0  0  0  0
   26.6585  -20.0259   -8.0841 C   0  0  0  0  0  0  0  0  0  0  0  0
   27.7011  -20.7529   -8.6153 C   0  0  0  0  0  0  0  0  0  0  0  0
   27.9267  -20.7638   -9.9755 C   0  0  0  0  0  0  0  0  0  0  0  0
   25.1247  -20.8175  -13.0566 C   0  0  0  0  0  0  0  0  0  0  0  0
   24.5527  -19.7904  -13.5706 O   0  0  0  0  0  0  0  0  0  0  0  0
   19.3055  -26.6630  -14.5553 N   0  0  0  0  0  0  0  0  0  0  0  0
   20.7096  -26.3137  -14.5262 C   0  0  0  0  0  0  0  0  0  0  0  0
   21.5734  -27.1383  -14.9617 N   0  0  0  0  0  0  0  0  0  0  0  0
   21.0714  -25.0469  -14.0090 N   0  0  0  0  0  0  0  0  0  0  0  0
   20.0764  -24.0989  -13.5900 C   0  0  0  0  0  0  0  0  0  0  0  0
   20.6324  -22.8119  -13.0223 C   0  0  0  0  0  0  0  0  0  0  0  0
   22.1286  -22.8022  -13.0018 C   0  0  0  0  0  0  0  0  0  0  0  0
   22.7767  -21.5493  -12.5292 C   0  0  2  0  0  0  0  0  0  0  0  0
   24.2398  -21.7266  -12.4297 N   0  0  0  0  0  0  0  0  0  0  0  0
   22.2668  -21.1871  -11.1876 C   0  0  0  0  0  0  0  0  0  0  0  0
   21.0197  -20.6393  -10.9951 O   0  0  0  0  0  0  0  0  0  0  0  0
   22.9533  -21.3611  -10.1385 O   0  0  0  0  0  0  0  0  0  0  0  0
  1  2  1  0
  2  4  1  0
  3  2  2  0
  4  5  1  0
  6  7  1  1
  6  5  1  0
  8  9  2  0
  8  6  1  0
 10  8  1  0
 11 10  1  0
 11 12  1  1
 13 14  2  0
 13 12  1  0
 15 14  1  0
 16 15  2  0
 17 16  1  0
 17 18  2  0
 18 13  1  0
 19 20  2  0
 19 11  1  0
 22 23  2  0
 22 21  1  0
 24 22  1  0
 25 24  1  0
 26 27  1  0
 26 25  1  0
 28 29  1  0
 28 27  1  1
 29 19  1  0
 30 28  1  0
 31 30  1  0
 32 30  2  0
M  END
$$$$
