NSP.pdb
     RDKit          3D

 22 22  0  0  1  0  0  0  0  0999 V2000
   12.4164   -8.8364  -15.6607 N   0  0  0  0  0  0  0  0  0  0  0  0
   13.5580   -9.2938  -16.3344 C   0  0  0  0  0  0  0  0  0  0  0  0
   13.4543   -9.3728  -17.6084 O   0  0  0  0  0  0  0  0  0  0  0  0
   14.8344   -9.6777  -15.7034 C   0  0  0  0  0  0  0  0  0  0  0  0
   15.5209  -10.8153  -16.3476 C   0  0  2  0  0  0  0  0  0  0  0  0
   14.9453  -12.1047  -15.8976 N   0  0  0  0  0  0  0  0  0  0  0  0
   16.9957  -10.8941  -16.0762 C   0  0  0  0  0  0  0  0  0  0  0  0
   17.4035  -11.3979  -15.0040 O   0  0  0  0  0  0  0  0  0  0  0  0
   21.4651  -10.6452  -18.0896 O   0  0  0  0  0  0  0  0  0  0  0  0
   20.0804  -10.4851  -18.1738 C   0  0  0  0  0  0  0  0  0  0  0  0
   19.3912  -10.4240  -16.8468 C   0  0  2  0  0  0  0  0  0  0  0  0
   17.9516  -10.4139  -16.9973 N   0  0  0  0  0  0  0  0  0  0  0  0
   19.8845   -9.2729  -16.0268 C   0  0  0  0  0  0  0  0  0  0  0  0
   19.4160   -8.1620  -16.3489 O   0  0  0  0  0  0  0  0  0  0  0  0
   20.8007   -9.3914  -14.9709 N   0  0  0  0  0  0  0  0  0  0  0  0
   21.0512  -10.6454  -14.1771 C   0  0  0  0  0  0  0  0  0  0  0  0
   22.5343  -10.7313  -14.3718 C   0  0  0  0  0  0  0  0  0  0  0  0
   23.0117   -9.2698  -14.4408 C   0  0  0  0  0  0  0  0  0  0  0  0
   21.6847   -8.5093  -14.2849 C   0  0  1  0  0  0  0  0  0  0  0  0
   21.7982   -7.1225  -14.6362 C   0  0  0  0  0  0  0  0  0  0  0  0
   22.8781   -6.5188  -14.7654 O   0  0  0  0  0  0  0  0  0  0  0  0
   20.6147   -6.3624  -14.8571 O   0  0  0  0  0  0  0  0  0  0  0  0
  1  2  1  0
  2  3  2  0
  4  5  1  0
  4  2  1  0
  5  6  1  1
  7  5  1  0
  8  7  2  0
 10  9  1  0
 11 10  1  6
 11 13  1  0
 11 12  1  0
 12  7  1  0
 13 15  1  0
 14 13  2  0
 15 19  1  0
 15 16  1  0
 16 17  1  0
 18 17  1  0
 19 18  1  0
 19 20  1  6
 20 22  1  0
 21 20  2  0
M  END
$$$$
