NSP.pdb
     RDKit          3D

 22 22  0  0  1  0  0  0  0  0999 V2000
   15.7229  -16.7153  -16.0896 N   0  0  0  0  0  0  0  0  0  0  0  0
   16.2219  -15.4859  -16.5432 C   0  0  0  0  0  0  0  0  0  0  0  0
   15.4365  -14.8151  -17.3001 O   0  0  0  0  0  0  0  0  0  0  0  0
   17.5460  -14.9222  -16.2208 C   0  0  0  0  0  0  0  0  0  0  0  0
   18.4162  -14.6892  -17.3908 C   0  0  2  0  0  0  0  0  0  0  0  0
   18.9131  -15.9709  -17.9446 N   0  0  0  0  0  0  0  0  0  0  0  0
   19.6306  -13.8507  -17.1130 C   0  0  0  0  0  0  0  0  0  0  0  0
   20.6338  -14.3710  -16.5722 O   0  0  0  0  0  0  0  0  0  0  0  0
   22.3142  -10.1273  -18.5169 O   0  0  0  0  0  0  0  0  0  0  0  0
   21.1825  -10.9423  -18.5878 C   0  0  0  0  0  0  0  0  0  0  0  0
   20.8118  -11.5863  -17.2888 C   0  0  2  0  0  0  0  0  0  0  0  0
   19.6829  -12.4792  -17.4430 N   0  0  0  0  0  0  0  0  0  0  0  0
   20.5864  -10.5658  -16.2171 C   0  0  0  0  0  0  0  0  0  0  0  0
   19.5475   -9.8873  -16.3505 O   0  0  0  0  0  0  0  0  0  0  0  0
   21.4504  -10.3574  -15.1315 N   0  0  0  0  0  0  0  0  0  0  0  0
   22.4215  -11.3715  -14.5893 C   0  0  0  0  0  0  0  0  0  0  0  0
   23.6663  -10.5416  -14.6677 C   0  0  0  0  0  0  0  0  0  0  0  0
   23.2008   -9.0997  -14.3977 C   0  0  0  0  0  0  0  0  0  0  0  0
   21.6884   -9.2997  -14.2070 C   0  0  1  0  0  0  0  0  0  0  0  0
   20.9572   -8.0660  -14.2592 C   0  0  0  0  0  0  0  0  0  0  0  0
   20.1660   -7.6830  -13.3789 O   0  0  0  0  0  0  0  0  0  0  0  0
   21.1277   -7.2038  -15.3792 O   0  0  0  0  0  0  0  0  0  0  0  0
  1  2  1  0
  2  3  2  0
  4  5  1  0
  4  2  1  0
  5  6  1  1
  7  5  1  0
  8  7  2  0
 10  9  1  0
 11 10  1  6
 11 13  1  0
 11 12  1  0
 12  7  1  0
 13 15  1  0
 14 13  2  0
 15 19  1  0
 15 16  1  0
 16 17  1  0
 18 17  1  0
 19 18  1  0
 19 20  1  6
 20 22  1  0
 21 20  2  0
M  END
$$$$
