NSP.pdb
     RDKit          3D

 22 22  0  0  1  0  0  0  0  0999 V2000
   11.5503  -13.6287  -13.3549 N   0  0  0  0  0  0  0  0  0  0  0  0
   11.7698  -13.5033  -11.9756 C   0  0  0  0  0  0  0  0  0  0  0  0
   10.8742  -14.0243  -11.2230 O   0  0  0  0  0  0  0  0  0  0  0  0
   12.9240  -12.8368  -11.3444 C   0  0  0  0  0  0  0  0  0  0  0  0
   13.8914  -12.2522  -12.2946 C   0  0  2  0  0  0  0  0  0  0  0  0
   14.7038  -13.3099  -12.9410 N   0  0  0  0  0  0  0  0  0  0  0  0
   14.8654  -11.2860  -11.6842 C   0  0  0  0  0  0  0  0  0  0  0  0
   15.5779  -11.6488  -10.7196 O   0  0  0  0  0  0  0  0  0  0  0  0
   17.9644   -7.7599  -12.1693 O   0  0  0  0  0  0  0  0  0  0  0  0
   17.0100   -8.6656  -12.6371 C   0  0  0  0  0  0  0  0  0  0  0  0
   15.9084   -8.9483  -11.6644 C   0  0  2  0  0  0  0  0  0  0  0  0
   15.0086   -9.9662  -12.1638 N   0  0  0  0  0  0  0  0  0  0  0  0
   15.1882   -7.6952  -11.2746 C   0  0  0  0  0  0  0  0  0  0  0  0
   14.7333   -7.0341  -12.2303 O   0  0  0  0  0  0  0  0  0  0  0  0
   15.0159   -7.2632   -9.9509 N   0  0  0  0  0  0  0  0  0  0  0  0
   14.9323   -8.1648   -8.7486 C   0  0  0  0  0  0  0  0  0  0  0  0
   16.0212   -7.5379   -7.9327 C   0  0  0  0  0  0  0  0  0  0  0  0
   15.9693   -6.0403   -8.2836 C   0  0  0  0  0  0  0  0  0  0  0  0
   14.8214   -6.0077   -9.3059 C   0  0  1  0  0  0  0  0  0  0  0  0
   14.7706   -4.7759  -10.0404 C   0  0  0  0  0  0  0  0  0  0  0  0
   14.1785   -3.7530   -9.6524 O   0  0  0  0  0  0  0  0  0  0  0  0
   15.4315   -4.6892  -11.2985 O   0  0  0  0  0  0  0  0  0  0  0  0
  1  2  1  0
  2  3  2  0
  4  5  1  0
  4  2  1  0
  5  6  1  1
  7  5  1  0
  8  7  2  0
 10  9  1  0
 11 10  1  6
 11 13  1  0
 11 12  1  0
 12  7  1  0
 13 15  1  0
 14 13  2  0
 15 19  1  0
 15 16  1  0
 16 17  1  0
 18 17  1  0
 19 18  1  0
 19 20  1  6
 20 22  1  0
 21 20  2  0
M  END
$$$$
