NSP.pdb
     RDKit          3D

 22 22  0  0  1  0  0  0  0  0999 V2000
   13.0156  -11.7543  -15.6644 N   0  0  0  0  0  0  0  0  0  0  0  0
   13.8234  -11.3581  -14.5889 C   0  0  0  0  0  0  0  0  0  0  0  0
   13.2019  -11.0667  -13.5078 O   0  0  0  0  0  0  0  0  0  0  0  0
   15.2945  -11.2569  -14.6084 C   0  0  0  0  0  0  0  0  0  0  0  0
   15.9177  -11.6084  -15.9002 C   0  0  2  0  0  0  0  0  0  0  0  0
   15.9407  -13.0774  -16.0945 N   0  0  0  0  0  0  0  0  0  0  0  0
   17.3350  -11.1393  -16.0618 C   0  0  0  0  0  0  0  0  0  0  0  0
   18.2763  -11.9594  -15.9563 O   0  0  0  0  0  0  0  0  0  0  0  0
   20.5442   -8.7470  -18.3660 O   0  0  0  0  0  0  0  0  0  0  0  0
   19.2632   -9.2091  -18.0572 C   0  0  0  0  0  0  0  0  0  0  0  0
   18.9598   -9.2334  -16.5919 C   0  0  2  0  0  0  0  0  0  0  0  0
   17.6492   -9.7897  -16.3312 N   0  0  0  0  0  0  0  0  0  0  0  0
   19.1359   -7.8811  -15.9745 C   0  0  0  0  0  0  0  0  0  0  0  0
   18.3457   -7.0091  -16.3900 O   0  0  0  0  0  0  0  0  0  0  0  0
   20.1004   -7.5770  -15.0021 N   0  0  0  0  0  0  0  0  0  0  0  0
   20.8008   -8.5848  -14.1307 C   0  0  0  0  0  0  0  0  0  0  0  0
   22.2135   -8.2053  -14.4545 C   0  0  0  0  0  0  0  0  0  0  0  0
   22.1725   -6.6853  -14.6924 C   0  0  0  0  0  0  0  0  0  0  0  0
   20.6798   -6.3848  -14.4793 C   0  0  1  0  0  0  0  0  0  0  0  0
   20.3043   -5.0847  -14.9570 C   0  0  0  0  0  0  0  0  0  0  0  0
   19.7704   -4.2077  -14.2547 O   0  0  0  0  0  0  0  0  0  0  0  0
   20.5459   -4.7483  -16.3192 O   0  0  0  0  0  0  0  0  0  0  0  0
  1  2  1  0
  2  3  2  0
  4  5  1  0
  4  2  1  0
  5  6  1  1
  7  5  1  0
  8  7  2  0
 10  9  1  0
 11 10  1  6
 11 13  1  0
 11 12  1  0
 12  7  1  0
 13 15  1  0
 14 13  2  0
 15 19  1  0
 15 16  1  0
 16 17  1  0
 18 17  1  0
 19 18  1  0
 19 20  1  6
 20 22  1  0
 21 20  2  0
M  END
$$$$
