NSP.pdb
     RDKit          3D

 22 22  0  0  1  0  0  0  0  0999 V2000
   14.5275  -13.9669  -14.3894 N   0  0  0  0  0  0  0  0  0  0  0  0
   15.1487  -12.7640  -14.7545 C   0  0  0  0  0  0  0  0  0  0  0  0
   14.3590  -11.8087  -15.0766 O   0  0  0  0  0  0  0  0  0  0  0  0
   16.6031  -12.5226  -14.7921 C   0  0  0  0  0  0  0  0  0  0  0  0
   17.1552  -12.3043  -16.1441 C   0  0  2  0  0  0  0  0  0  0  0  0
   17.2405  -13.5800  -16.8935 N   0  0  0  0  0  0  0  0  0  0  0  0
   18.5323  -11.7063  -16.1710 C   0  0  0  0  0  0  0  0  0  0  0  0
   19.5124  -12.4189  -16.4894 O   0  0  0  0  0  0  0  0  0  0  0  0
   21.5951   -9.0611  -17.8294 O   0  0  0  0  0  0  0  0  0  0  0  0
   20.4070   -9.7315  -17.5309 C   0  0  0  0  0  0  0  0  0  0  0  0
   19.9643   -9.5852  -16.1089 C   0  0  2  0  0  0  0  0  0  0  0  0
   18.7657  -10.3527  -15.8453 N   0  0  0  0  0  0  0  0  0  0  0  0
   19.8116   -8.1453  -15.7289 C   0  0  0  0  0  0  0  0  0  0  0  0
   18.9847   -7.5084  -16.4130 O   0  0  0  0  0  0  0  0  0  0  0  0
   20.5228   -7.5230  -14.6920 N   0  0  0  0  0  0  0  0  0  0  0  0
   21.2199   -8.2399  -13.5669 C   0  0  0  0  0  0  0  0  0  0  0  0
   22.5816   -7.6394  -13.7394 C   0  0  0  0  0  0  0  0  0  0  0  0
   22.3242   -6.2064  -14.2382 C   0  0  0  0  0  0  0  0  0  0  0  0
   20.7883   -6.1785  -14.3022 C   0  0  1  0  0  0  0  0  0  0  0  0
   20.2866   -5.0586  -15.0461 C   0  0  0  0  0  0  0  0  0  0  0  0
   19.4557   -4.2426  -14.6086 O   0  0  0  0  0  0  0  0  0  0  0  0
   20.7516   -4.8419  -16.3742 O   0  0  0  0  0  0  0  0  0  0  0  0
  1  2  1  0
  2  3  2  0
  4  5  1  0
  4  2  1  0
  5  6  1  1
  7  5  1  0
  8  7  2  0
 10  9  1  0
 11 10  1  6
 11 13  1  0
 11 12  1  0
 12  7  1  0
 13 15  1  0
 14 13  2  0
 15 19  1  0
 15 16  1  0
 16 17  1  0
 18 17  1  0
 19 18  1  0
 19 20  1  6
 20 22  1  0
 21 20  2  0
M  END
$$$$
