NSP.pdb
     RDKit          3D

 22 22  0  0  1  0  0  0  0  0999 V2000
   10.7558  -12.5357  -12.9305 N   0  0  0  0  0  0  0  0  0  0  0  0
   10.3492  -11.2927  -12.4245 C   0  0  0  0  0  0  0  0  0  0  0  0
    9.2264  -10.8580  -12.8608 O   0  0  0  0  0  0  0  0  0  0  0  0
   11.0960  -10.4725  -11.4527 C   0  0  0  0  0  0  0  0  0  0  0  0
   12.3713  -11.0639  -11.0009 C   0  0  2  0  0  0  0  0  0  0  0  0
   12.1318  -12.1815  -10.0574 N   0  0  0  0  0  0  0  0  0  0  0  0
   13.2924  -10.1086  -10.2980 C   0  0  0  0  0  0  0  0  0  0  0  0
   12.9867   -9.6723   -9.1641 O   0  0  0  0  0  0  0  0  0  0  0  0
   17.8680   -8.4536   -9.9926 O   0  0  0  0  0  0  0  0  0  0  0  0
   16.8776   -9.1821  -10.6548 C   0  0  0  0  0  0  0  0  0  0  0  0
   15.4815   -8.7815  -10.2945 C   0  0  2  0  0  0  0  0  0  0  0  0
   14.5058   -9.6782  -10.8769 N   0  0  0  0  0  0  0  0  0  0  0  0
   15.2162   -7.3500  -10.6427 C   0  0  0  0  0  0  0  0  0  0  0  0
   15.3687   -7.0677  -11.8487 O   0  0  0  0  0  0  0  0  0  0  0  0
   14.8248   -6.3718   -9.7161 N   0  0  0  0  0  0  0  0  0  0  0  0
   14.0851   -6.6398   -8.4330 C   0  0  0  0  0  0  0  0  0  0  0  0
   15.0337   -5.9626   -7.4916 C   0  0  0  0  0  0  0  0  0  0  0  0
   15.6101   -4.7799   -8.2901 C   0  0  0  0  0  0  0  0  0  0  0  0
   14.8983   -4.9508   -9.6421 C   0  0  1  0  0  0  0  0  0  0  0  0
   15.4958   -4.1656  -10.6842 C   0  0  0  0  0  0  0  0  0  0  0  0
   15.3511   -2.9360  -10.8052 O   0  0  0  0  0  0  0  0  0  0  0  0
   16.3123   -4.8084  -11.6575 O   0  0  0  0  0  0  0  0  0  0  0  0
  1  2  1  0
  2  3  2  0
  4  5  1  0
  4  2  1  0
  5  6  1  1
  7  5  1  0
  8  7  2  0
 10  9  1  0
 11 10  1  6
 11 13  1  0
 11 12  1  0
 12  7  1  0
 13 15  1  0
 14 13  2  0
 15 19  1  0
 15 16  1  0
 16 17  1  0
 18 17  1  0
 19 18  1  0
 19 20  1  6
 20 22  1  0
 21 20  2  0
M  END
$$$$
