NSP.pdb
     RDKit          3D

 22 22  0  0  1  0  0  0  0  0999 V2000
   16.9257  -13.5721  -15.1850 N   0  0  0  0  0  0  0  0  0  0  0  0
   18.1038  -13.2459  -15.8720 C   0  0  0  0  0  0  0  0  0  0  0  0
   18.9655  -14.1880  -15.9714 O   0  0  0  0  0  0  0  0  0  0  0  0
   18.4150  -11.9361  -16.4741 C   0  0  0  0  0  0  0  0  0  0  0  0
   17.3790  -10.9039  -16.2695 C   0  0  2  0  0  0  0  0  0  0  0  0
   16.1456  -11.2355  -17.0213 N   0  0  0  0  0  0  0  0  0  0  0  0
   17.7766   -9.5213  -16.7000 C   0  0  0  0  0  0  0  0  0  0  0  0
   17.3229   -9.0492  -17.7682 O   0  0  0  0  0  0  0  0  0  0  0  0
   17.9881   -5.1217  -16.3711 O   0  0  0  0  0  0  0  0  0  0  0  0
   17.7402   -6.4842  -16.1920 C   0  0  0  0  0  0  0  0  0  0  0  0
   18.9750   -7.3283  -16.1454 C   0  0  2  0  0  0  0  0  0  0  0  0
   18.6551   -8.7242  -15.9350 N   0  0  0  0  0  0  0  0  0  0  0  0
   19.9530   -6.8115  -15.1367 C   0  0  0  0  0  0  0  0  0  0  0  0
   19.4960   -6.6831  -13.9826 O   0  0  0  0  0  0  0  0  0  0  0  0
   21.2868   -6.4860  -15.4254 N   0  0  0  0  0  0  0  0  0  0  0  0
   22.0610   -6.9796  -16.6181 C   0  0  0  0  0  0  0  0  0  0  0  0
   22.4915   -5.6511  -17.1607 C   0  0  0  0  0  0  0  0  0  0  0  0
   22.6856   -4.7593  -15.9216 C   0  0  0  0  0  0  0  0  0  0  0  0
   22.3118   -5.7287  -14.7883 C   0  0  1  0  0  0  0  0  0  0  0  0
   22.0959   -5.0593  -13.5374 C   0  0  0  0  0  0  0  0  0  0  0  0
   22.8779   -5.1106  -12.5714 O   0  0  0  0  0  0  0  0  0  0  0  0
   20.9185   -4.2783  -13.3613 O   0  0  0  0  0  0  0  0  0  0  0  0
  1  2  1  0
  2  3  2  0
  4  5  1  0
  4  2  1  0
  5  6  1  6
  7  5  1  0
  8  7  2  0
 10  9  1  0
 11 10  1  1
 11 13  1  0
 11 12  1  0
 12  7  1  0
 13 15  1  0
 14 13  2  0
 15 19  1  0
 15 16  1  0
 16 17  1  0
 18 17  1  0
 19 18  1  0
 19 20  1  1
 20 22  1  0
 21 20  2  0
M  END
$$$$
