NSP.pdb
     RDKit          3D

 22 22  0  0  1  0  0  0  0  0999 V2000
   18.5507  -14.4014  -15.4006 N   0  0  0  0  0  0  0  0  0  0  0  0
   19.4873  -14.0342  -16.3774 C   0  0  0  0  0  0  0  0  0  0  0  0
   20.3077  -14.9521  -16.7303 O   0  0  0  0  0  0  0  0  0  0  0  0
   19.5939  -12.7077  -17.0129 C   0  0  0  0  0  0  0  0  0  0  0  0
   18.6197  -11.7118  -16.5236 C   0  0  2  0  0  0  0  0  0  0  0  0
   17.2475  -12.0499  -16.9695 N   0  0  0  0  0  0  0  0  0  0  0  0
   18.8771  -10.3046  -16.9804 C   0  0  0  0  0  0  0  0  0  0  0  0
   18.7358  -10.0090  -18.1897 O   0  0  0  0  0  0  0  0  0  0  0  0
   18.3837   -5.7901  -16.8360 O   0  0  0  0  0  0  0  0  0  0  0  0
   18.2232   -7.1512  -16.5680 C   0  0  0  0  0  0  0  0  0  0  0  0
   19.5101   -7.8947  -16.3932 C   0  0  2  0  0  0  0  0  0  0  0  0
   19.2784   -9.2899  -16.0850 N   0  0  0  0  0  0  0  0  0  0  0  0
   20.3934   -7.2294  -15.3843 C   0  0  0  0  0  0  0  0  0  0  0  0
   19.9384   -7.2096  -14.2223 O   0  0  0  0  0  0  0  0  0  0  0  0
   21.6414   -6.6610  -15.6807 N   0  0  0  0  0  0  0  0  0  0  0  0
   22.4957   -7.0162  -16.8680 C   0  0  0  0  0  0  0  0  0  0  0  0
   22.6666   -5.6382  -17.4306 C   0  0  0  0  0  0  0  0  0  0  0  0
   22.6875   -4.7078  -16.2049 C   0  0  0  0  0  0  0  0  0  0  0  0
   22.5038   -5.7139  -15.0569 C   0  0  1  0  0  0  0  0  0  0  0  0
   22.1643   -5.0794  -13.8153 C   0  0  0  0  0  0  0  0  0  0  0  0
   21.2509   -4.2456  -13.6816 O   0  0  0  0  0  0  0  0  0  0  0  0
   22.9038   -5.4055  -12.6432 O   0  0  0  0  0  0  0  0  0  0  0  0
  1  2  1  0
  2  3  2  0
  4  5  1  0
  4  2  1  0
  5  6  1  6
  7  5  1  0
  8  7  2  0
 10  9  1  0
 11 10  1  1
 11 13  1  0
 11 12  1  0
 12  7  1  0
 13 15  1  0
 14 13  2  0
 15 19  1  0
 15 16  1  0
 16 17  1  0
 18 17  1  0
 19 18  1  0
 19 20  1  1
 20 22  1  0
 21 20  2  0
M  END
$$$$
