NSP.pdb
     RDKit          3D

 22 22  0  0  1  0  0  0  0  0999 V2000
   25.5226  -22.9084  -11.8324 N   0  0  0  0  0  0  0  0  0  0  0  0
   26.2327  -21.8799  -11.1965 C   0  0  0  0  0  0  0  0  0  0  0  0
   26.6610  -22.1485  -10.0200 O   0  0  0  0  0  0  0  0  0  0  0  0
   26.5172  -20.5499  -11.7665 C   0  0  0  0  0  0  0  0  0  0  0  0
   25.8258  -20.2663  -13.0401 C   0  0  2  0  0  0  0  0  0  0  0  0
   26.0418  -21.3613  -14.0151 N   0  0  0  0  0  0  0  0  0  0  0  0
   26.2612  -19.0017  -13.7228 C   0  0  0  0  0  0  0  0  0  0  0  0
   26.2577  -17.9210  -13.0888 O   0  0  0  0  0  0  0  0  0  0  0  0
   28.4098  -17.1018  -17.7295 O   0  0  0  0  0  0  0  0  0  0  0  0
   28.0044  -18.1860  -16.9483 C   0  0  0  0  0  0  0  0  0  0  0  0
   27.0422  -17.8279  -15.8596 C   0  0  2  0  0  0  0  0  0  0  0  0
   26.6791  -18.9862  -15.0711 N   0  0  0  0  0  0  0  0  0  0  0  0
   25.8446  -17.1118  -16.4017 C   0  0  0  0  0  0  0  0  0  0  0  0
   25.1937  -17.7510  -17.2533 O   0  0  0  0  0  0  0  0  0  0  0  0
   25.4507  -15.8237  -16.0094 N   0  0  0  0  0  0  0  0  0  0  0  0
   25.7924  -15.1754  -14.6947 C   0  0  0  0  0  0  0  0  0  0  0  0
   26.4128  -13.9202  -15.2278 C   0  0  0  0  0  0  0  0  0  0  0  0
   25.6399  -13.6135  -16.5229 C   0  0  0  0  0  0  0  0  0  0  0  0
   24.6490  -14.7881  -16.5705 C   0  0  1  0  0  0  0  0  0  0  0  0
   24.0169  -14.9260  -17.8514 C   0  0  0  0  0  0  0  0  0  0  0  0
   24.6311  -15.0668  -18.9240 O   0  0  0  0  0  0  0  0  0  0  0  0
   22.5956  -14.9038  -17.9310 O   0  0  0  0  0  0  0  0  0  0  0  0
  1  2  1  0
  2  3  2  0
  4  5  1  0
  4  2  1  0
  5  6  1  6
  7  5  1  0
  8  7  2  0
 10  9  1  0
 11 10  1  6
 11 13  1  0
 11 12  1  0
 12  7  1  0
 13 15  1  0
 14 13  2  0
 15 19  1  0
 15 16  1  0
 16 17  1  0
 18 17  1  0
 19 18  1  0
 19 20  1  6
 20 22  1  0
 21 20  2  0
M  END
$$$$
