NSP.pdb
     RDKit          3D

 22 22  0  0  1  0  0  0  0  0999 V2000
   19.6164  -15.6759  -17.8456 N   0  0  0  0  0  0  0  0  0  0  0  0
   20.0352  -14.4912  -18.4679 C   0  0  0  0  0  0  0  0  0  0  0  0
   20.9254  -14.6289  -19.3781 O   0  0  0  0  0  0  0  0  0  0  0  0
   19.5392  -13.1363  -18.1627 C   0  0  0  0  0  0  0  0  0  0  0  0
   20.5169  -12.2622  -17.4841 C   0  0  2  0  0  0  0  0  0  0  0  0
   20.7754  -12.7301  -16.1019 N   0  0  0  0  0  0  0  0  0  0  0  0
   20.1012  -10.8237  -17.3717 C   0  0  0  0  0  0  0  0  0  0  0  0
   19.9443  -10.1399  -18.4098 O   0  0  0  0  0  0  0  0  0  0  0  0
   18.2677   -9.6238  -13.9075 O   0  0  0  0  0  0  0  0  0  0  0  0
   18.2076   -8.8073  -15.0388 C   0  0  0  0  0  0  0  0  0  0  0  0
   19.4407   -8.8464  -15.8859 C   0  0  2  0  0  0  0  0  0  0  0  0
   19.8785  -10.2057  -16.1222 N   0  0  0  0  0  0  0  0  0  0  0  0
   20.5268   -7.9919  -15.3105 C   0  0  0  0  0  0  0  0  0  0  0  0
   21.0942   -8.4714  -14.3077 O   0  0  0  0  0  0  0  0  0  0  0  0
   20.9076   -6.7447  -15.8281 N   0  0  0  0  0  0  0  0  0  0  0  0
   20.6696   -6.2832  -17.2408 C   0  0  0  0  0  0  0  0  0  0  0  0
   19.9538   -5.0038  -16.9321 C   0  0  0  0  0  0  0  0  0  0  0  0
   20.5865   -4.5000  -15.6227 C   0  0  0  0  0  0  0  0  0  0  0  0
   21.6120   -5.6087  -15.3348 C   0  0  1  0  0  0  0  0  0  0  0  0
   22.1228   -5.5543  -13.9948 C   0  0  0  0  0  0  0  0  0  0  0  0
   23.2247   -5.0676  -13.6845 O   0  0  0  0  0  0  0  0  0  0  0  0
   21.3397   -6.0845  -12.9305 O   0  0  0  0  0  0  0  0  0  0  0  0
  1  2  1  0
  2  3  2  0
  4  5  1  0
  4  2  1  0
  5  6  1  1
  7  5  1  0
  8  7  2  0
 10  9  1  0
 11 10  1  1
 11 13  1  0
 11 12  1  0
 12  7  1  0
 13 15  1  0
 14 13  2  0
 15 19  1  0
 15 16  1  0
 16 17  1  0
 18 17  1  0
 19 18  1  0
 19 20  1  1
 20 22  1  0
 21 20  2  0
M  END
$$$$
