NSP.pdb
     RDKit          3D

 22 22  0  0  1  0  0  0  0  0999 V2000
   18.0870  -14.1313  -15.8685 N   0  0  0  0  0  0  0  0  0  0  0  0
   18.2227  -13.1206  -16.8309 C   0  0  0  0  0  0  0  0  0  0  0  0
   18.5693  -13.5124  -17.9999 O   0  0  0  0  0  0  0  0  0  0  0  0
   18.0001  -11.6805  -16.6047 C   0  0  0  0  0  0  0  0  0  0  0  0
   17.6653  -11.3216  -15.2120 C   0  0  2  0  0  0  0  0  0  0  0  0
   16.2872  -11.7478  -14.8721 N   0  0  0  0  0  0  0  0  0  0  0  0
   17.7402   -9.8533  -14.9066 C   0  0  0  0  0  0  0  0  0  0  0  0
   17.3479   -9.0214  -15.7573 O   0  0  0  0  0  0  0  0  0  0  0  0
   16.9850   -8.3824  -11.3097 O   0  0  0  0  0  0  0  0  0  0  0  0
   18.1767   -7.8367  -11.7915 C   0  0  0  0  0  0  0  0  0  0  0  0
   18.3637   -7.9873  -13.2686 C   0  0  2  0  0  0  0  0  0  0  0  0
   18.2441   -9.3701  -13.6797 N   0  0  0  0  0  0  0  0  0  0  0  0
   19.6490   -7.3689  -13.7231 C   0  0  0  0  0  0  0  0  0  0  0  0
   20.6777   -7.9828  -13.3731 O   0  0  0  0  0  0  0  0  0  0  0  0
   19.7335   -6.1933  -14.4840 N   0  0  0  0  0  0  0  0  0  0  0  0
   18.6519   -5.6664  -15.3884 C   0  0  0  0  0  0  0  0  0  0  0  0
   18.5343   -4.2912  -14.8056 C   0  0  0  0  0  0  0  0  0  0  0  0
   19.9577   -3.9318  -14.3439 C   0  0  0  0  0  0  0  0  0  0  0  0
   20.7310   -5.2048  -14.7250 C   0  0  1  0  0  0  0  0  0  0  0  0
   22.0271   -5.2681  -14.1121 C   0  0  0  0  0  0  0  0  0  0  0  0
   22.2890   -5.9341  -13.0945 O   0  0  0  0  0  0  0  0  0  0  0  0
   23.1028   -4.5310  -14.6836 O   0  0  0  0  0  0  0  0  0  0  0  0
  1  2  1  0
  2  3  2  0
  4  5  1  0
  4  2  1  0
  5  6  1  6
  7  5  1  0
  8  7  2  0
 10  9  1  0
 11 10  1  1
 11 13  1  0
 11 12  1  0
 12  7  1  0
 13 15  1  0
 14 13  2  0
 15 19  1  0
 15 16  1  0
 16 17  1  0
 18 17  1  0
 19 18  1  0
 19 20  1  1
 20 22  1  0
 21 20  2  0
M  END
$$$$
