CAG.pdb
     RDKit          3D

 16 15  0  0  1  0  0  0  0  0999 V2000
   25.8316  -11.8920  -18.0683 N   0  0  0  0  0  0  0  0  0  0  0  0
   25.7380  -11.0979  -16.8701 C   0  0  1  0  0  0  0  0  0  0  0  0
   27.1336  -10.8166  -16.3594 C   0  0  0  0  0  0  0  0  0  0  0  0
   27.6745  -12.3011  -15.4527 S   0  0  0  0  0  0  0  0  0  0  0  0
   25.0139   -9.8491  -17.2164 C   0  0  0  0  0  0  0  0  0  0  0  0
   25.3320   -9.1983  -18.2424 O   0  0  0  0  0  0  0  0  0  0  0  0
   21.8368   -8.5684  -17.4106 C   0  0  0  0  0  0  0  0  0  0  0  0
   23.1574   -8.1968  -16.7866 C   0  0  2  0  0  0  0  0  0  0  0  0
   23.9351   -9.3402  -16.4046 N   0  0  0  0  0  0  0  0  0  0  0  0
   23.0213   -7.2866  -15.6436 C   0  0  0  0  0  0  0  0  0  0  0  0
   22.9067   -7.7790  -14.4915 O   0  0  0  0  0  0  0  0  0  0  0  0
   23.0135   -5.8598  -15.7862 N   0  0  0  0  0  0  0  0  0  0  0  0
   22.9548   -5.0622  -14.6008 C   0  0  0  0  0  0  0  0  0  0  0  0
   21.5707   -4.6926  -14.2099 C   0  0  0  0  0  0  0  0  0  0  0  0
   20.8885   -5.5691  -13.6246 O   0  0  0  0  0  0  0  0  0  0  0  0
   21.0234   -3.4470  -14.4630 O   0  0  0  0  0  0  0  0  0  0  0  0
  2  1  1  6
  2  3  1  0
  3  4  1  0
  5  2  1  0
  6  5  2  0
  8  7  1  1
  8  9  1  0
  9  5  1  0
 10  8  1  0
 11 10  2  0
 12 10  1  0
 13 14  1  0
 13 12  1  0
 14 16  1  0
 15 14  2  0
M  END
$$$$
