CAG.pdb
     RDKit          3D

 16 15  0  0  1  0  0  0  0  0999 V2000
   19.5476  -12.1550  -16.6779 N   0  0  0  0  0  0  0  0  0  0  0  0
   20.6819  -11.3806  -17.1122 C   0  0  1  0  0  0  0  0  0  0  0  0
   20.2915  -10.5875  -18.3396 C   0  0  0  0  0  0  0  0  0  0  0  0
   20.2958  -11.7486  -19.7433 S   0  0  0  0  0  0  0  0  0  0  0  0
   21.0784  -10.4977  -15.9867 C   0  0  0  0  0  0  0  0  0  0  0  0
   20.2011   -9.9307  -15.2892 O   0  0  0  0  0  0  0  0  0  0  0  0
   24.1338   -9.9945  -13.8796 C   0  0  0  0  0  0  0  0  0  0  0  0
   22.8552   -9.4963  -14.5030 C   0  0  2  0  0  0  0  0  0  0  0  0
   22.4615  -10.2583  -15.6530 N   0  0  0  0  0  0  0  0  0  0  0  0
   22.8961   -8.0697  -14.8448 C   0  0  0  0  0  0  0  0  0  0  0  0
   23.2050   -7.7401  -16.0190 O   0  0  0  0  0  0  0  0  0  0  0  0
   22.5983   -7.0369  -13.8957 N   0  0  0  0  0  0  0  0  0  0  0  0
   22.6692   -5.6770  -14.3320 C   0  0  0  0  0  0  0  0  0  0  0  0
   21.3381   -5.0786  -14.6072 C   0  0  0  0  0  0  0  0  0  0  0  0
   20.5387   -5.7561  -15.2988 O   0  0  0  0  0  0  0  0  0  0  0  0
   20.9608   -3.8324  -14.1388 O   0  0  0  0  0  0  0  0  0  0  0  0
  2  1  1  1
  2  3  1  0
  3  4  1  0
  5  2  1  0
  6  5  2  0
  8  7  1  6
  8  9  1  0
  9  5  1  0
 10  8  1  0
 11 10  2  0
 12 10  1  0
 13 14  1  0
 13 12  1  0
 14 16  1  0
 15 14  2  0
M  END
$$$$
