CAG.pdb
     RDKit          3D

 16 15  0  0  1  0  0  0  0  0999 V2000
   32.3355  -30.1960  -16.8479 N   0  0  0  0  0  0  0  0  0  0  0  0
   31.6293  -31.4120  -17.1606 C   0  0  1  0  0  0  0  0  0  0  0  0
   32.5212  -32.5913  -16.8421 C   0  0  0  0  0  0  0  0  0  0  0  0
   33.7083  -32.7430  -18.2156 S   0  0  0  0  0  0  0  0  0  0  0  0
   30.3840  -31.4267  -16.3527 C   0  0  0  0  0  0  0  0  0  0  0  0
   30.3691  -30.9150  -15.2058 O   0  0  0  0  0  0  0  0  0  0  0  0
   26.7730  -31.4677  -16.8606 C   0  0  0  0  0  0  0  0  0  0  0  0
   27.9448  -32.0086  -16.0823 C   0  0  2  0  0  0  0  0  0  0  0  0
   29.1621  -32.0180  -16.8415 N   0  0  0  0  0  0  0  0  0  0  0  0
   27.7007  -33.3428  -15.5221 C   0  0  0  0  0  0  0  0  0  0  0  0
   26.6410  -33.5391  -14.8729 O   0  0  0  0  0  0  0  0  0  0  0  0
   28.6201  -34.4311  -15.6844 N   0  0  0  0  0  0  0  0  0  0  0  0
   28.3056  -35.6801  -15.0630 C   0  0  0  0  0  0  0  0  0  0  0  0
   29.3036  -36.7433  -15.3440 C   0  0  0  0  0  0  0  0  0  0  0  0
   29.0923  -37.8735  -14.8398 O   0  0  0  0  0  0  0  0  0  0  0  0
   30.4284  -36.5342  -16.1226 O   0  0  0  0  0  0  0  0  0  0  0  0
  2  1  1  1
  2  3  1  0
  3  4  1  0
  5  2  1  0
  6  5  2  0
  8  7  1  6
  8  9  1  0
  9  5  1  0
 10  8  1  0
 11 10  2  0
 12 10  1  0
 13 14  1  0
 13 12  1  0
 14 16  1  0
 15 14  2  0
M  END
$$$$
