CAG.pdb
     RDKit          3D

 16 15  0  0  1  0  0  0  0  0999 V2000
   21.2140  -32.3929   -9.8736 N   0  0  0  0  0  0  0  0  0  0  0  0
   21.5912  -31.0040   -9.9340 C   0  0  1  0  0  0  0  0  0  0  0  0
   22.8288  -30.8702  -10.7932 C   0  0  0  0  0  0  0  0  0  0  0  0
   24.2590  -30.8715   -9.6649 S   0  0  0  0  0  0  0  0  0  0  0  0
   20.4424  -30.2524  -10.4987 C   0  0  0  0  0  0  0  0  0  0  0  0
   19.6966  -30.7885  -11.3554 O   0  0  0  0  0  0  0  0  0  0  0  0
   17.8331  -28.1722   -9.6962 C   0  0  0  0  0  0  0  0  0  0  0  0
   19.0223  -28.1716  -10.6221 C   0  0  2  0  0  0  0  0  0  0  0  0
   20.1399  -28.9007  -10.0950 N   0  0  0  0  0  0  0  0  0  0  0  0
   19.4507  -26.8234  -11.0125 C   0  0  0  0  0  0  0  0  0  0  0  0
   20.2034  -26.1816  -10.2351 O   0  0  0  0  0  0  0  0  0  0  0  0
   19.0466  -26.2083  -12.2432 N   0  0  0  0  0  0  0  0  0  0  0  0
   19.5075  -24.8833  -12.5199 C   0  0  0  0  0  0  0  0  0  0  0  0
   18.6175  -23.8264  -11.9756 C   0  0  0  0  0  0  0  0  0  0  0  0
   17.6675  -24.1996  -11.2445 O   0  0  0  0  0  0  0  0  0  0  0  0
   18.7967  -22.4801  -12.2409 O   0  0  0  0  0  0  0  0  0  0  0  0
  2  1  1  6
  2  3  1  0
  3  4  1  0
  5  2  1  0
  6  5  2  0
  8  7  1  1
  8  9  1  0
  9  5  1  0
 10  8  1  0
 11 10  2  0
 12 10  1  0
 13 14  1  0
 13 12  1  0
 14 16  1  0
 15 14  2  0
M  END
$$$$
