CAG.pdb
     RDKit          3D

 16 15  0  0  1  0  0  0  0  0999 V2000
   18.6135   -9.8615  -17.1864 N   0  0  0  0  0  0  0  0  0  0  0  0
   18.8430   -8.5412  -17.7148 C   0  0  1  0  0  0  0  0  0  0  0  0
   17.6566   -7.6660  -17.3768 C   0  0  0  0  0  0  0  0  0  0  0  0
   16.3635   -8.0292  -18.6075 S   0  0  0  0  0  0  0  0  0  0  0  0
   20.0980   -8.0290  -17.1096 C   0  0  0  0  0  0  0  0  0  0  0  0
   20.3455   -8.2385  -15.8961 O   0  0  0  0  0  0  0  0  0  0  0  0
   23.3452   -6.4729  -18.2826 C   0  0  0  0  0  0  0  0  0  0  0  0
   22.2443   -6.7157  -17.2823 C   0  0  2  0  0  0  0  0  0  0  0  0
   21.0675   -7.2833  -17.8748 N   0  0  0  0  0  0  0  0  0  0  0  0
   21.8839   -5.5167  -16.5167 C   0  0  0  0  0  0  0  0  0  0  0  0
   21.0245   -4.7322  -16.9949 O   0  0  0  0  0  0  0  0  0  0  0  0
   22.4709   -5.2033  -15.2465 N   0  0  0  0  0  0  0  0  0  0  0  0
   22.0820   -3.9864  -14.6039 C   0  0  0  0  0  0  0  0  0  0  0  0
   20.9205   -4.1488  -13.6930 C   0  0  0  0  0  0  0  0  0  0  0  0
   20.4425   -5.3038  -13.5763 O   0  0  0  0  0  0  0  0  0  0  0  0
   20.3631   -3.0965  -12.9878 O   0  0  0  0  0  0  0  0  0  0  0  0
  2  1  1  1
  2  3  1  0
  3  4  1  0
  5  2  1  0
  6  5  2  0
  8  7  1  6
  8  9  1  0
  9  5  1  0
 10  8  1  0
 11 10  2  0
 12 10  1  0
 13 14  1  0
 13 12  1  0
 14 16  1  0
 15 14  2  0
M  END
$$$$
