CAG.pdb
     RDKit          3D

 16 15  0  0  1  0  0  0  0  0999 V2000
   21.9961  -11.0325  -17.0928 N   0  0  0  0  0  0  0  0  0  0  0  0
   21.9489  -10.4585  -15.7724 C   0  0  1  0  0  0  0  0  0  0  0  0
   23.2702  -10.7121  -15.0813 C   0  0  0  0  0  0  0  0  0  0  0  0
   23.2029  -12.4068  -14.4164 S   0  0  0  0  0  0  0  0  0  0  0  0
   21.6743   -9.0076  -15.9247 C   0  0  0  0  0  0  0  0  0  0  0  0
   22.3819   -8.3079  -16.6911 O   0  0  0  0  0  0  0  0  0  0  0  0
   18.7354   -6.8180  -15.6178 C   0  0  0  0  0  0  0  0  0  0  0  0
   20.2252   -6.9936  -15.4721 C   0  0  2  0  0  0  0  0  0  0  0  0
   20.6038   -8.3529  -15.2128 N   0  0  0  0  0  0  0  0  0  0  0  0
   20.8146   -6.1133  -14.4566 C   0  0  0  0  0  0  0  0  0  0  0  0
   21.0504   -6.5846  -13.3142 O   0  0  0  0  0  0  0  0  0  0  0  0
   21.1326   -4.7389  -14.7133 N   0  0  0  0  0  0  0  0  0  0  0  0
   21.6786   -3.9604  -13.6452 C   0  0  0  0  0  0  0  0  0  0  0  0
   22.0123   -2.5693  -14.0436 C   0  0  0  0  0  0  0  0  0  0  0  0
   22.1193   -2.3367  -15.2727 O   0  0  0  0  0  0  0  0  0  0  0  0
   22.2038   -1.5489  -13.1287 O   0  0  0  0  0  0  0  0  0  0  0  0
  2  1  1  6
  2  3  1  0
  3  4  1  0
  5  2  1  0
  6  5  2  0
  8  7  1  1
  8  9  1  0
  9  5  1  0
 10  8  1  0
 11 10  2  0
 12 10  1  0
 13 14  1  0
 13 12  1  0
 14 16  1  0
 15 14  2  0
M  END
$$$$
