CAG.pdb
     RDKit          3D

 16 15  0  0  1  0  0  0  0  0999 V2000
   23.8621  -16.5691  -16.8412 N   0  0  0  0  0  0  0  0  0  0  0  0
   22.7822  -15.6611  -16.5505 C   0  0  1  0  0  0  0  0  0  0  0  0
   22.1211  -16.0853  -15.2579 C   0  0  0  0  0  0  0  0  0  0  0  0
   20.8829  -17.3506  -15.6872 S   0  0  0  0  0  0  0  0  0  0  0  0
   23.3585  -14.2964  -16.4547 C   0  0  0  0  0  0  0  0  0  0  0  0
   24.4941  -14.1246  -15.9465 O   0  0  0  0  0  0  0  0  0  0  0  0
   23.1012  -11.0904  -18.2122 C   0  0  0  0  0  0  0  0  0  0  0  0
   23.2234  -11.8171  -16.8975 C   0  0  2  0  0  0  0  0  0  0  0  0
   22.6520  -13.1326  -16.9322 N   0  0  0  0  0  0  0  0  0  0  0  0
   22.6663  -11.0652  -15.7670 C   0  0  0  0  0  0  0  0  0  0  0  0
   21.4741  -11.2817  -15.4283 O   0  0  0  0  0  0  0  0  0  0  0  0
   23.4248  -10.0944  -15.0334 N   0  0  0  0  0  0  0  0  0  0  0  0
   22.7990   -9.4459  -13.9232 C   0  0  0  0  0  0  0  0  0  0  0  0
   22.1320   -8.1703  -14.2882 C   0  0  0  0  0  0  0  0  0  0  0  0
   22.0685   -7.8874  -15.5097 O   0  0  0  0  0  0  0  0  0  0  0  0
   21.5930   -7.3067  -13.3507 O   0  0  0  0  0  0  0  0  0  0  0  0
  2  1  1  1
  2  3  1  0
  3  4  1  0
  5  2  1  0
  6  5  2  0
  8  7  1  6
  8  9  1  0
  9  5  1  0
 10  8  1  0
 11 10  2  0
 12 10  1  0
 13 14  1  0
 13 12  1  0
 14 16  1  0
 15 14  2  0
M  END
$$$$
