CAG.pdb
     RDKit          3D

 16 15  0  0  1  0  0  0  0  0999 V2000
   24.5327  -13.2778  -17.9242 N   0  0  0  0  0  0  0  0  0  0  0  0
   23.9509  -12.6703  -16.7548 C   0  0  1  0  0  0  0  0  0  0  0  0
   24.8867  -12.8693  -15.5834 C   0  0  0  0  0  0  0  0  0  0  0  0
   24.7649  -14.6215  -15.1004 S   0  0  0  0  0  0  0  0  0  0  0  0
   23.7399  -11.2320  -17.0557 C   0  0  0  0  0  0  0  0  0  0  0  0
   24.6276  -10.5751  -17.6540 O   0  0  0  0  0  0  0  0  0  0  0  0
   20.8736   -8.9873  -17.6039 C   0  0  0  0  0  0  0  0  0  0  0  0
   22.2672   -9.1845  -17.0650 C   0  0  2  0  0  0  0  0  0  0  0  0
   22.5298  -10.5417  -16.6809 N   0  0  0  0  0  0  0  0  0  0  0  0
   22.5897   -8.2840  -15.9520 C   0  0  0  0  0  0  0  0  0  0  0  0
   22.5096   -8.7259  -14.7768 O   0  0  0  0  0  0  0  0  0  0  0  0
   22.9923   -6.9220  -16.1494 N   0  0  0  0  0  0  0  0  0  0  0  0
   23.3999   -6.1652  -15.0066 C   0  0  0  0  0  0  0  0  0  0  0  0
   22.2747   -5.4712  -14.3302 C   0  0  0  0  0  0  0  0  0  0  0  0
   21.1416   -5.5661  -14.8625 O   0  0  0  0  0  0  0  0  0  0  0  0
   22.4306   -4.7430  -13.1638 O   0  0  0  0  0  0  0  0  0  0  0  0
  2  1  1  6
  2  3  1  0
  3  4  1  0
  5  2  1  0
  6  5  2  0
  8  7  1  1
  8  9  1  0
  9  5  1  0
 10  8  1  0
 11 10  2  0
 12 10  1  0
 13 14  1  0
 13 12  1  0
 14 16  1  0
 15 14  2  0
M  END
$$$$
