CAG.pdb
     RDKit          3D

 16 15  0  0  1  0  0  0  0  0999 V2000
   18.4103  -10.9612  -17.0503 N   0  0  0  0  0  0  0  0  0  0  0  0
   19.4220  -10.3331  -16.2398 C   0  0  1  0  0  0  0  0  0  0  0  0
   20.4685   -9.7260  -17.1474 C   0  0  0  0  0  0  0  0  0  0  0  0
   21.8381   -9.1737  -16.0807 S   0  0  0  0  0  0  0  0  0  0  0  0
   18.7517   -9.3056  -15.4040 C   0  0  0  0  0  0  0  0  0  0  0  0
   17.9336   -8.5055  -15.9219 O   0  0  0  0  0  0  0  0  0  0  0  0
   17.7139   -8.6091  -11.9873 C   0  0  0  0  0  0  0  0  0  0  0  0
   18.4658   -8.1177  -13.1975 C   0  0  2  0  0  0  0  0  0  0  0  0
   19.0069   -9.1849  -13.9891 N   0  0  0  0  0  0  0  0  0  0  0  0
   19.5264   -7.1581  -12.8693 C   0  0  0  0  0  0  0  0  0  0  0  0
   19.2470   -6.1820  -12.1264 O   0  0  0  0  0  0  0  0  0  0  0  0
   20.8673   -7.2877  -13.3605 N   0  0  0  0  0  0  0  0  0  0  0  0
   21.8166   -6.2778  -13.0088 C   0  0  0  0  0  0  0  0  0  0  0  0
   21.8345   -5.1337  -13.9554 C   0  0  0  0  0  0  0  0  0  0  0  0
   21.0141   -5.1647  -14.9053 O   0  0  0  0  0  0  0  0  0  0  0  0
   22.7025   -4.0635  -13.8277 O   0  0  0  0  0  0  0  0  0  0  0  0
  2  1  1  6
  2  3  1  0
  3  4  1  0
  5  2  1  0
  6  5  2  0
  8  7  1  1
  8  9  1  0
  9  5  1  0
 10  8  1  0
 11 10  2  0
 12 10  1  0
 13 14  1  0
 13 12  1  0
 14 16  1  0
 15 14  2  0
M  END
$$$$
