CAG.pdb
     RDKit          3D

 16 15  0  0  1  0  0  0  0  0999 V2000
   19.0678  -12.1286  -16.4140 N   0  0  0  0  0  0  0  0  0  0  0  0
   18.3875  -11.0133  -15.8069 C   0  0  1  0  0  0  0  0  0  0  0  0
   18.0854  -11.3514  -14.3639 C   0  0  0  0  0  0  0  0  0  0  0  0
   16.6463  -12.4683  -14.3721 S   0  0  0  0  0  0  0  0  0  0  0  0
   19.2761   -9.8299  -15.9231 C   0  0  0  0  0  0  0  0  0  0  0  0
   20.5212   -9.9629  -15.8254 O   0  0  0  0  0  0  0  0  0  0  0  0
   18.8597   -6.2687  -17.1533 C   0  0  0  0  0  0  0  0  0  0  0  0
   19.6025   -7.3904  -16.4739 C   0  0  2  0  0  0  0  0  0  0  0  0
   18.7569   -8.5028  -16.1487 N   0  0  0  0  0  0  0  0  0  0  0  0
   20.3339   -6.9583  -15.2773 C   0  0  0  0  0  0  0  0  0  0  0  0
   19.7767   -7.0754  -14.1554 O   0  0  0  0  0  0  0  0  0  0  0  0
   21.6570   -6.4085  -15.3347 N   0  0  0  0  0  0  0  0  0  0  0  0
   22.3199   -6.1120  -14.1028 C   0  0  0  0  0  0  0  0  0  0  0  0
   22.0442   -4.7411  -13.6028 C   0  0  0  0  0  0  0  0  0  0  0  0
   22.6783   -4.3648  -12.5867 O   0  0  0  0  0  0  0  0  0  0  0  0
   21.1355   -3.8882  -14.2045 O   0  0  0  0  0  0  0  0  0  0  0  0
  2  1  1  1
  2  3  1  0
  3  4  1  0
  5  2  1  0
  6  5  2  0
  8  7  1  1
  8  9  1  0
  9  5  1  0
 10  8  1  0
 11 10  2  0
 12 10  1  0
 13 14  1  0
 13 12  1  0
 14 16  1  0
 15 14  2  0
M  END
$$$$
