CAG.pdb
     RDKit          3D

 16 15  0  0  1  0  0  0  0  0999 V2000
   25.9672  -15.9840  -17.3750 N   0  0  0  0  0  0  0  0  0  0  0  0
   25.1611  -15.5348  -16.2689 C   0  0  1  0  0  0  0  0  0  0  0  0
   26.0475  -15.3639  -15.0553 C   0  0  0  0  0  0  0  0  0  0  0  0
   26.5033  -17.0356  -14.4932 S   0  0  0  0  0  0  0  0  0  0  0  0
   24.5218  -14.2568  -16.6709 C   0  0  0  0  0  0  0  0  0  0  0  0
   25.1668  -13.4104  -17.3380 O   0  0  0  0  0  0  0  0  0  0  0  0
   21.2301  -13.0491  -17.5428 C   0  0  0  0  0  0  0  0  0  0  0  0
   22.4996  -12.7539  -16.7861 C   0  0  2  0  0  0  0  0  0  0  0  0
   23.1590  -13.9393  -16.3191 N   0  0  0  0  0  0  0  0  0  0  0  0
   22.3035  -11.8237  -15.6681 C   0  0  0  0  0  0  0  0  0  0  0  0
   22.1203  -12.2958  -14.5164 O   0  0  0  0  0  0  0  0  0  0  0  0
   22.3121  -10.3995  -15.8349 N   0  0  0  0  0  0  0  0  0  0  0  0
   22.2123   -9.5814  -14.6663 C   0  0  0  0  0  0  0  0  0  0  0  0
   22.2229   -8.1268  -14.9653 C   0  0  0  0  0  0  0  0  0  0  0  0
   22.3529   -7.7913  -16.1681 O   0  0  0  0  0  0  0  0  0  0  0  0
   22.0974   -7.1557  -13.9875 O   0  0  0  0  0  0  0  0  0  0  0  0
  2  1  1  6
  2  3  1  0
  3  4  1  0
  5  2  1  0
  6  5  2  0
  8  7  1  1
  8  9  1  0
  9  5  1  0
 10  8  1  0
 11 10  2  0
 12 10  1  0
 13 14  1  0
 13 12  1  0
 14 16  1  0
 15 14  2  0
M  END
$$$$
