CAG.pdb
     RDKit          3D

 16 15  0  0  1  0  0  0  0  0999 V2000
   18.1376  -11.9841  -15.4487 N   0  0  0  0  0  0  0  0  0  0  0  0
   17.6089  -10.6708  -15.7144 C   0  0  1  0  0  0  0  0  0  0  0  0
   16.5356  -10.3602  -14.6949 C   0  0  0  0  0  0  0  0  0  0  0  0
   14.9411  -10.4050  -15.5747 S   0  0  0  0  0  0  0  0  0  0  0  0
   18.7379   -9.7100  -15.6388 C   0  0  0  0  0  0  0  0  0  0  0  0
   19.5846   -9.8018  -14.7156 O   0  0  0  0  0  0  0  0  0  0  0  0
   20.2911   -7.1200  -17.9271 C   0  0  0  0  0  0  0  0  0  0  0  0
   20.0409   -7.7721  -16.5916 C   0  0  2  0  0  0  0  0  0  0  0  0
   18.9070   -8.6508  -16.6037 N   0  0  0  0  0  0  0  0  0  0  0  0
   19.9081   -6.8081  -15.4931 C   0  0  0  0  0  0  0  0  0  0  0  0
   18.7558   -6.4267  -15.1620 O   0  0  0  0  0  0  0  0  0  0  0  0
   21.0375   -6.2835  -14.7822 N   0  0  0  0  0  0  0  0  0  0  0  0
   20.7947   -5.3937  -13.6894 C   0  0  0  0  0  0  0  0  0  0  0  0
   22.0391   -4.8648  -13.0753 C   0  0  0  0  0  0  0  0  0  0  0  0
   22.7113   -5.6581  -12.3717 O   0  0  0  0  0  0  0  0  0  0  0  0
   22.4699   -3.5612  -13.2490 O   0  0  0  0  0  0  0  0  0  0  0  0
  2  1  1  1
  2  3  1  0
  3  4  1  0
  5  2  1  0
  6  5  2  0
  8  7  1  6
  8  9  1  0
  9  5  1  0
 10  8  1  0
 11 10  2  0
 12 10  1  0
 13 14  1  0
 13 12  1  0
 14 16  1  0
 15 14  2  0
M  END
$$$$
