MKV.pdb
     RDKit          3D

 25 24  0  0  1  0  0  0  0  0999 V2000
   27.7996  -20.5846  -11.9509 C   0  0  0  0  0  0  0  0  0  0  0  0
   28.6060  -20.7878  -13.5479 S   0  0  0  0  0  0  0  0  0  0  0  0
   29.0957  -19.1922  -14.2742 C   0  0  0  0  0  0  0  0  0  0  0  0
   27.8296  -18.4367  -14.5917 C   0  0  0  0  0  0  0  0  0  0  0  0
   27.0628  -19.0342  -15.7446 C   0  0  2  0  0  0  0  0  0  0  0  0
   27.2920  -18.3880  -16.9985 N   0  0  0  0  0  0  0  0  0  0  0  0
   25.6171  -18.9435  -15.3901 C   0  0  0  0  0  0  0  0  0  0  0  0
   25.1076  -17.8503  -15.0326 O   0  0  0  0  0  0  0  0  0  0  0  0
   24.7459  -20.0725  -15.4360 N   0  0  0  0  0  0  0  0  0  0  0  0
   23.3458  -20.0024  -15.1353 C   0  0  1  0  0  0  0  0  0  0  0  0
   22.4784  -20.4085  -16.3099 C   0  0  0  0  0  0  0  0  0  0  0  0
   21.8257  -19.2119  -16.9055 C   0  0  0  0  0  0  0  0  0  0  0  0
   22.2054  -18.9644  -18.3378 C   0  0  0  0  0  0  0  0  0  0  0  0
   21.5002  -17.7439  -18.8756 C   0  0  0  0  0  0  0  0  0  0  0  0
   21.9754  -17.5573  -20.2477 N   0  0  0  0  0  0  0  0  0  0  0  0
   23.0806  -20.8514  -13.9473 C   0  0  0  0  0  0  0  0  0  0  0  0
   23.6102  -21.9958  -13.9308 O   0  0  0  0  0  0  0  0  0  0  0  0
   22.1828  -19.4981  -10.0917 C   0  0  0  0  0  0  0  0  0  0  0  0
   22.7218  -20.8652  -10.4485 C   0  0  2  0  0  0  0  0  0  0  0  0
   24.2246  -20.7176  -10.7122 C   0  0  0  0  0  0  0  0  0  0  0  0
   22.1161  -21.3610  -11.7415 C   0  0  2  0  0  0  0  0  0  0  0  0
   22.2858  -20.4777  -12.8421 N   0  0  0  0  0  0  0  0  0  0  0  0
   20.6841  -21.6983  -11.5874 C   0  0  0  0  0  0  0  0  0  0  0  0
   19.7197  -21.0825  -12.3582 O   0  0  0  0  0  0  0  0  0  0  0  0
   20.3072  -22.5506  -10.7546 O   0  0  0  0  0  0  0  0  0  0  0  0
  2  3  1  0
  2  1  1  0
  4  5  1  0
  4  3  1  0
  5  7  1  0
  5  6  1  6
  7  8  2  0
  9  7  1  0
  9 10  1  0
 10 11  1  6
 11 12  1  0
 13 12  1  0
 13 14  1  0
 15 14  1  0
 16 10  1  0
 16 17  2  0
 19 18  1  6
 19 21  1  0
 20 19  1  0
 21 22  1  6
 21 23  1  0
 22 16  1  0
 23 24  1  0
 25 23  2  0
M  END
$$$$
