MKV.pdb
     RDKit          3D

 25 24  0  0  1  0  0  0  0  0999 V2000
   27.0245  -15.5543  -15.1829 C   0  0  0  0  0  0  0  0  0  0  0  0
   27.7816  -16.2623  -16.6551 S   0  0  0  0  0  0  0  0  0  0  0  0
   28.4982  -17.9042  -16.3328 C   0  0  0  0  0  0  0  0  0  0  0  0
   27.4200  -18.7477  -15.7000 C   0  0  0  0  0  0  0  0  0  0  0  0
   27.9266  -20.0841  -15.2189 C   0  0  2  0  0  0  0  0  0  0  0  0
   28.3483  -20.9620  -16.2646 N   0  0  0  0  0  0  0  0  0  0  0  0
   26.8123  -20.7141  -14.4535 C   0  0  0  0  0  0  0  0  0  0  0  0
   26.0359  -21.5370  -15.0037 O   0  0  0  0  0  0  0  0  0  0  0  0
   26.5691  -20.4237  -13.0780 N   0  0  0  0  0  0  0  0  0  0  0  0
   25.4745  -20.9773  -12.3355 C   0  0  1  0  0  0  0  0  0  0  0  0
   25.5367  -20.6283  -10.8620 C   0  0  0  0  0  0  0  0  0  0  0  0
   24.3628  -21.1984  -10.1483 C   0  0  0  0  0  0  0  0  0  0  0  0
   24.3049  -20.8363   -8.6914 C   0  0  0  0  0  0  0  0  0  0  0  0
   23.1380  -21.5143   -8.0170 C   0  0  0  0  0  0  0  0  0  0  0  0
   23.0982  -21.0095   -6.6434 N   0  0  0  0  0  0  0  0  0  0  0  0
   24.2084  -20.5069  -12.9504 C   0  0  0  0  0  0  0  0  0  0  0  0
   24.0924  -19.2666  -13.1465 O   0  0  0  0  0  0  0  0  0  0  0  0
   22.7293  -21.2832  -16.3131 C   0  0  0  0  0  0  0  0  0  0  0  0
   21.6385  -21.4793  -15.2844 C   0  0  2  0  0  0  0  0  0  0  0  0
   20.3780  -20.7789  -15.8045 C   0  0  0  0  0  0  0  0  0  0  0  0
   21.9943  -20.7921  -13.9860 C   0  0  2  0  0  0  0  0  0  0  0  0
   23.1313  -21.3369  -13.3296 N   0  0  0  0  0  0  0  0  0  0  0  0
   20.8492  -20.7507  -13.0507 C   0  0  0  0  0  0  0  0  0  0  0  0
   20.5674  -21.8165  -12.2212 O   0  0  0  0  0  0  0  0  0  0  0  0
   20.1044  -19.7492  -12.9851 O   0  0  0  0  0  0  0  0  0  0  0  0
  2  3  1  0
  2  1  1  0
  4  5  1  0
  4  3  1  0
  5  7  1  0
  5  6  1  6
  7  8  2  0
  9  7  1  0
  9 10  1  0
 10 11  1  1
 11 12  1  0
 13 12  1  0
 13 14  1  0
 15 14  1  0
 16 10  1  0
 16 17  2  0
 19 18  1  6
 19 21  1  0
 20 19  1  0
 21 22  1  1
 21 23  1  0
 22 16  1  0
 23 24  1  0
 25 23  2  0
M  END
$$$$
