MKV.pdb
     RDKit          3D

 25 24  0  0  1  0  0  0  0  0999 V2000
   13.0358  -14.4847  -18.0133 C   0  0  0  0  0  0  0  0  0  0  0  0
   14.3454  -13.6749  -17.0799 S   0  0  0  0  0  0  0  0  0  0  0  0
   15.9700  -14.4401  -17.3772 C   0  0  0  0  0  0  0  0  0  0  0  0
   16.9950  -13.6184  -16.6365 C   0  0  0  0  0  0  0  0  0  0  0  0
   18.4045  -14.1135  -16.8422 C   0  0  2  0  0  0  0  0  0  0  0  0
   18.7180  -15.3062  -16.1201 N   0  0  0  0  0  0  0  0  0  0  0  0
   19.3125  -13.0121  -16.4105 C   0  0  0  0  0  0  0  0  0  0  0  0
   19.6213  -12.8675  -15.1995 O   0  0  0  0  0  0  0  0  0  0  0  0
   19.8723  -12.0768  -17.3311 N   0  0  0  0  0  0  0  0  0  0  0  0
   20.8672  -11.1103  -16.9683 C   0  0  1  0  0  0  0  0  0  0  0  0
   21.8670  -10.8607  -18.0796 C   0  0  0  0  0  0  0  0  0  0  0  0
   22.8674   -9.8457  -17.6532 C   0  0  0  0  0  0  0  0  0  0  0  0
   23.7725   -9.3848  -18.7601 C   0  0  0  0  0  0  0  0  0  0  0  0
   24.8122   -8.4248  -18.2370 C   0  0  0  0  0  0  0  0  0  0  0  0
   25.4745   -7.8473  -19.4080 N   0  0  0  0  0  0  0  0  0  0  0  0
   20.1776   -9.8582  -16.5691 C   0  0  0  0  0  0  0  0  0  0  0  0
   19.3544   -9.3702  -17.3903 O   0  0  0  0  0  0  0  0  0  0  0  0
   17.4659   -9.0058  -14.5283 C   0  0  0  0  0  0  0  0  0  0  0  0
   18.5828   -8.1189  -14.0257 C   0  0  2  0  0  0  0  0  0  0  0  0
   18.0033   -6.7150  -13.8178 C   0  0  0  0  0  0  0  0  0  0  0  0
   19.6660   -7.9749  -15.0700 C   0  0  2  0  0  0  0  0  0  0  0  0
   20.3722   -9.1767  -15.3482 N   0  0  0  0  0  0  0  0  0  0  0  0
   20.6232   -6.9001  -14.7287 C   0  0  0  0  0  0  0  0  0  0  0  0
   20.3548   -5.5823  -15.0364 O   0  0  0  0  0  0  0  0  0  0  0  0
   21.7022   -7.1553  -14.1519 O   0  0  0  0  0  0  0  0  0  0  0  0
  2  3  1  0
  2  1  1  0
  4  5  1  0
  4  3  1  0
  5  7  1  0
  5  6  1  1
  7  8  2  0
  9  7  1  0
  9 10  1  0
 10 11  1  6
 11 12  1  0
 13 12  1  0
 13 14  1  0
 15 14  1  0
 16 10  1  0
 16 17  2  0
 19 18  1  6
 19 21  1  0
 20 19  1  0
 21 22  1  1
 21 23  1  0
 22 16  1  0
 23 24  1  0
 25 23  2  0
M  END
$$$$
