MKV.pdb
     RDKit          3D

 25 24  0  0  1  0  0  0  0  0999 V2000
   27.0817  -18.3891   -4.9117 C   0  0  0  0  0  0  0  0  0  0  0  0
   28.3069  -19.6865   -4.6715 S   0  0  0  0  0  0  0  0  0  0  0  0
   28.5219  -20.7080   -6.1627 C   0  0  0  0  0  0  0  0  0  0  0  0
   27.5437  -20.2059   -7.1950 C   0  0  0  0  0  0  0  0  0  0  0  0
   27.5059  -21.0643   -8.4343 C   0  0  2  0  0  0  0  0  0  0  0  0
   28.7600  -21.1723   -9.1109 N   0  0  0  0  0  0  0  0  0  0  0  0
   26.4946  -20.4558   -9.3459 C   0  0  0  0  0  0  0  0  0  0  0  0
   26.5490  -19.2356   -9.6475 O   0  0  0  0  0  0  0  0  0  0  0  0
   25.4272  -21.2107   -9.9173 N   0  0  0  0  0  0  0  0  0  0  0  0
   24.9429  -21.0086  -11.2516 C   0  0  1  0  0  0  0  0  0  0  0  0
   25.5936  -21.9415  -12.2531 C   0  0  0  0  0  0  0  0  0  0  0  0
   25.1164  -21.6340  -13.6281 C   0  0  0  0  0  0  0  0  0  0  0  0
   25.7480  -22.4847  -14.6931 C   0  0  0  0  0  0  0  0  0  0  0  0
   25.2674  -22.0728  -16.0626 C   0  0  0  0  0  0  0  0  0  0  0  0
   26.4228  -21.5009  -16.7564 N   0  0  0  0  0  0  0  0  0  0  0  0
   23.4675  -21.1687  -11.2416 C   0  0  0  0  0  0  0  0  0  0  0  0
   22.9939  -22.0733  -10.5015 O   0  0  0  0  0  0  0  0  0  0  0  0
   20.7299  -18.7745  -10.2301 C   0  0  0  0  0  0  0  0  0  0  0  0
   20.3702  -19.3382  -11.5864 C   0  0  2  0  0  0  0  0  0  0  0  0
   18.8977  -19.7619  -11.5377 C   0  0  0  0  0  0  0  0  0  0  0  0
   21.1589  -20.5956  -11.8721 C   0  0  2  0  0  0  0  0  0  0  0  0
   22.5602  -20.3908  -11.9930 N   0  0  0  0  0  0  0  0  0  0  0  0
   20.6526  -21.3060  -13.0667 C   0  0  0  0  0  0  0  0  0  0  0  0
   21.1157  -20.9976  -14.3291 O   0  0  0  0  0  0  0  0  0  0  0  0
   19.7910  -22.2058  -12.9662 O   0  0  0  0  0  0  0  0  0  0  0  0
  2  3  1  0
  2  1  1  0
  4  5  1  0
  4  3  1  0
  5  7  1  0
  5  6  1  6
  7  8  2  0
  9  7  1  0
  9 10  1  0
 10 11  1  6
 11 12  1  0
 13 12  1  0
 13 14  1  0
 15 14  1  0
 16 10  1  0
 16 17  2  0
 19 18  1  1
 19 21  1  0
 20 19  1  0
 21 22  1  6
 21 23  1  0
 22 16  1  0
 23 24  1  0
 25 23  2  0
M  END
$$$$
