MKV.pdb
     RDKit          3D

 25 24  0  0  1  0  0  0  0  0999 V2000
   21.0988  -18.2224  -13.0750 C   0  0  0  0  0  0  0  0  0  0  0  0
   20.2322  -19.0038  -14.4463 S   0  0  0  0  0  0  0  0  0  0  0  0
   20.9865  -18.5968  -16.0522 C   0  0  0  0  0  0  0  0  0  0  0  0
   22.3850  -18.1032  -15.7785 C   0  0  0  0  0  0  0  0  0  0  0  0
   23.4162  -18.7290  -16.6837 C   0  0  2  0  0  0  0  0  0  0  0  0
   22.8658  -19.4824  -17.7661 N   0  0  0  0  0  0  0  0  0  0  0  0
   24.2539  -19.6179  -15.8282 C   0  0  0  0  0  0  0  0  0  0  0  0
   23.7583  -20.6308  -15.2704 O   0  0  0  0  0  0  0  0  0  0  0  0
   25.6407  -19.3735  -15.5986 N   0  0  0  0  0  0  0  0  0  0  0  0
   26.4631  -20.2067  -14.7709 C   0  0  1  0  0  0  0  0  0  0  0  0
   27.9405  -20.0393  -15.0643 C   0  0  0  0  0  0  0  0  0  0  0  0
   28.5387  -21.3442  -15.4543 C   0  0  0  0  0  0  0  0  0  0  0  0
   28.4739  -21.6239  -16.9289 C   0  0  0  0  0  0  0  0  0  0  0  0
   29.0301  -22.9915  -17.2395 C   0  0  0  0  0  0  0  0  0  0  0  0
   28.8291  -23.2086  -18.6734 N   0  0  0  0  0  0  0  0  0  0  0  0
   26.1552  -19.9033  -13.3512 C   0  0  0  0  0  0  0  0  0  0  0  0
   26.0082  -18.6892  -13.0432 O   0  0  0  0  0  0  0  0  0  0  0  0
   23.3346  -20.8954  -11.0751 C   0  0  0  0  0  0  0  0  0  0  0  0
   24.6178  -21.1557  -10.3186 C   0  0  2  0  0  0  0  0  0  0  0  0
   24.4770  -20.5180   -8.9318 C   0  0  0  0  0  0  0  0  0  0  0  0
   25.7839  -20.4605  -10.9832 C   0  0  2  0  0  0  0  0  0  0  0  0
   26.0157  -20.8640  -12.3263 N   0  0  0  0  0  0  0  0  0  0  0  0
   27.0298  -20.5981  -10.1978 C   0  0  0  0  0  0  0  0  0  0  0  0
   27.1690  -19.9867   -8.9689 O   0  0  0  0  0  0  0  0  0  0  0  0
   27.9917  -21.2721  -10.6251 O   0  0  0  0  0  0  0  0  0  0  0  0
  2  3  1  0
  2  1  1  0
  4  5  1  0
  4  3  1  0
  5  7  1  0
  5  6  1  6
  7  8  2  0
  9  7  1  0
  9 10  1  0
 10 11  1  1
 11 12  1  0
 13 12  1  0
 13 14  1  0
 15 14  1  0
 16 10  1  0
 16 17  2  0
 19 18  1  6
 19 21  1  0
 20 19  1  0
 21 22  1  6
 21 23  1  0
 22 16  1  0
 23 24  1  0
 25 23  2  0
M  END
$$$$
