MKV.pdb
     RDKit          3D

 25 24  0  0  1  0  0  0  0  0999 V2000
   17.2938  -18.3394  -17.1119 C   0  0  0  0  0  0  0  0  0  0  0  0
   18.4795  -18.7449  -18.4049 S   0  0  0  0  0  0  0  0  0  0  0  0
   20.0908  -19.2455  -17.7220 C   0  0  0  0  0  0  0  0  0  0  0  0
   19.8912  -19.5115  -16.2510 C   0  0  0  0  0  0  0  0  0  0  0  0
   21.1861  -19.7568  -15.5178 C   0  0  2  0  0  0  0  0  0  0  0  0
   22.2300  -20.2908  -16.3346 N   0  0  0  0  0  0  0  0  0  0  0  0
   20.8780  -20.7081  -14.4114 C   0  0  0  0  0  0  0  0  0  0  0  0
   20.8186  -21.9468  -14.6231 O   0  0  0  0  0  0  0  0  0  0  0  0
   20.6377  -20.2739  -13.0737 N   0  0  0  0  0  0  0  0  0  0  0  0
   20.4495  -21.1733  -11.9732 C   0  0  1  0  0  0  0  0  0  0  0  0
   20.8632  -20.5647  -10.6483 C   0  0  0  0  0  0  0  0  0  0  0  0
   20.6599  -21.5434   -9.5467 C   0  0  0  0  0  0  0  0  0  0  0  0
   21.1268  -21.0521   -8.2059 C   0  0  0  0  0  0  0  0  0  0  0  0
   20.9555  -22.1207   -7.1547 C   0  0  0  0  0  0  0  0  0  0  0  0
   21.4483  -21.5536   -5.8982 N   0  0  0  0  0  0  0  0  0  0  0  0
   19.0270  -21.5961  -11.9541 C   0  0  0  0  0  0  0  0  0  0  0  0
   18.1636  -20.7154  -12.2172 O   0  0  0  0  0  0  0  0  0  0  0  0
   17.2638  -24.6012  -13.7291 C   0  0  0  0  0  0  0  0  0  0  0  0
   16.8374  -24.5404  -12.2795 C   0  0  2  0  0  0  0  0  0  0  0  0
   15.3086  -24.6460  -12.2402 C   0  0  0  0  0  0  0  0  0  0  0  0
   17.1806  -23.1986  -11.6742 C   0  0  2  0  0  0  0  0  0  0  0  0
   18.5703  -22.9003  -11.6656 N   0  0  0  0  0  0  0  0  0  0  0  0
   16.6290  -23.0506  -10.3096 C   0  0  0  0  0  0  0  0  0  0  0  0
   15.4531  -22.3645  -10.0866 O   0  0  0  0  0  0  0  0  0  0  0  0
   17.2125  -23.5431   -9.3202 O   0  0  0  0  0  0  0  0  0  0  0  0
  2  3  1  0
  2  1  1  0
  4  5  1  0
  4  3  1  0
  5  7  1  0
  5  6  1  6
  7  8  2  0
  9  7  1  0
  9 10  1  0
 10 11  1  1
 11 12  1  0
 13 12  1  0
 13 14  1  0
 15 14  1  0
 16 10  1  0
 16 17  2  0
 19 18  1  6
 19 21  1  0
 20 19  1  0
 21 22  1  1
 21 23  1  0
 22 16  1  0
 23 24  1  0
 25 23  2  0
M  END
$$$$
