MKV.pdb
     RDKit          3D

 25 24  0  0  1  0  0  0  0  0999 V2000
   24.5246  -20.0785   -8.9868 C   0  0  0  0  0  0  0  0  0  0  0  0
   26.2408  -20.6228   -8.9691 S   0  0  0  0  0  0  0  0  0  0  0  0
   27.0155  -20.4940  -10.6112 C   0  0  0  0  0  0  0  0  0  0  0  0
   26.1784  -21.3068  -11.5669 C   0  0  0  0  0  0  0  0  0  0  0  0
   26.6961  -21.2646  -12.9827 C   0  0  2  0  0  0  0  0  0  0  0  0
   27.5377  -20.1450  -13.2659 N   0  0  0  0  0  0  0  0  0  0  0  0
   25.5013  -21.2328  -13.8746 C   0  0  0  0  0  0  0  0  0  0  0  0
   25.2504  -20.2228  -14.5815 O   0  0  0  0  0  0  0  0  0  0  0  0
   24.5917  -22.3275  -13.9744 N   0  0  0  0  0  0  0  0  0  0  0  0
   23.5326  -22.3888  -14.9389 C   0  0  1  0  0  0  0  0  0  0  0  0
   23.0976  -23.8103  -15.2342 C   0  0  0  0  0  0  0  0  0  0  0  0
   23.9136  -24.3786  -16.3406 C   0  0  0  0  0  0  0  0  0  0  0  0
   24.4995  -25.7268  -16.0306 C   0  0  0  0  0  0  0  0  0  0  0  0
   25.2786  -26.2559  -17.2092 C   0  0  0  0  0  0  0  0  0  0  0  0
   25.8717  -27.5246  -16.7825 N   0  0  0  0  0  0  0  0  0  0  0  0
   22.4004  -21.5684  -14.4414 C   0  0  0  0  0  0  0  0  0  0  0  0
   22.2833  -21.4510  -13.1913 O   0  0  0  0  0  0  0  0  0  0  0  0
   19.0480  -18.0313  -14.8223 C   0  0  0  0  0  0  0  0  0  0  0  0
   20.1145  -18.8594  -15.5033 C   0  0  2  0  0  0  0  0  0  0  0  0
   19.5259  -19.3851  -16.8174 C   0  0  0  0  0  0  0  0  0  0  0  0
   20.4555  -20.0796  -14.6789 C   0  0  2  0  0  0  0  0  0  0  0  0
   21.4509  -20.9143  -15.2559 N   0  0  0  0  0  0  0  0  0  0  0  0
   19.2553  -20.8820  -14.3570 C   0  0  0  0  0  0  0  0  0  0  0  0
   18.3761  -20.4854  -13.3705 O   0  0  0  0  0  0  0  0  0  0  0  0
   19.0036  -21.9420  -14.9695 O   0  0  0  0  0  0  0  0  0  0  0  0
  2  3  1  0
  2  1  1  0
  4  5  1  0
  4  3  1  0
  5  7  1  0
  5  6  1  1
  7  8  2  0
  9  7  1  0
  9 10  1  0
 10 11  1  1
 11 12  1  0
 13 12  1  0
 13 14  1  0
 15 14  1  0
 16 10  1  0
 16 17  2  0
 19 18  1  1
 19 21  1  0
 20 19  1  0
 21 22  1  6
 21 23  1  0
 22 16  1  0
 23 24  1  0
 25 23  2  0
M  END
$$$$
