MKV.pdb
     RDKit          3D

 25 24  0  0  1  0  0  0  0  0999 V2000
   18.3252  -22.3038  -15.0889 C   0  0  0  0  0  0  0  0  0  0  0  0
   18.2417  -20.7886  -16.0581 S   0  0  0  0  0  0  0  0  0  0  0  0
   19.8002  -20.4526  -16.9365 C   0  0  0  0  0  0  0  0  0  0  0  0
   20.5556  -19.4246  -16.1321 C   0  0  0  0  0  0  0  0  0  0  0  0
   21.7923  -19.9855  -15.4762 C   0  0  2  0  0  0  0  0  0  0  0  0
   21.5794  -20.4849  -14.1543 N   0  0  0  0  0  0  0  0  0  0  0  0
   22.7957  -18.8827  -15.4405 C   0  0  0  0  0  0  0  0  0  0  0  0
   22.4623  -17.7176  -15.1029 O   0  0  0  0  0  0  0  0  0  0  0  0
   24.1664  -19.0842  -15.7814 N   0  0  0  0  0  0  0  0  0  0  0  0
   25.1667  -18.0633  -15.6679 C   0  0  1  0  0  0  0  0  0  0  0  0
   26.4898  -18.6006  -15.1605 C   0  0  0  0  0  0  0  0  0  0  0  0
   26.2812  -19.3932  -13.9191 C   0  0  0  0  0  0  0  0  0  0  0  0
   27.5522  -19.9202  -13.3159 C   0  0  0  0  0  0  0  0  0  0  0  0
   27.2612  -20.7299  -12.0765 C   0  0  0  0  0  0  0  0  0  0  0  0
   28.5276  -21.3419  -11.6703 N   0  0  0  0  0  0  0  0  0  0  0  0
   25.3194  -17.4104  -16.9919 C   0  0  0  0  0  0  0  0  0  0  0  0
   25.2938  -18.1588  -18.0066 O   0  0  0  0  0  0  0  0  0  0  0  0
   23.1438  -14.7320  -18.5530 C   0  0  0  0  0  0  0  0  0  0  0  0
   24.5868  -14.3142  -18.7259 C   0  0  2  0  0  0  0  0  0  0  0  0
   24.7732  -13.8800  -20.1842 C   0  0  0  0  0  0  0  0  0  0  0  0
   25.5151  -15.4885  -18.5163 C   0  0  2  0  0  0  0  0  0  0  0  0
   25.4902  -16.0247  -17.2001 N   0  0  0  0  0  0  0  0  0  0  0  0
   26.9073  -15.1675  -18.8991 C   0  0  0  0  0  0  0  0  0  0  0  0
   27.3338  -15.2900  -20.2055 O   0  0  0  0  0  0  0  0  0  0  0  0
   27.7369  -14.7762  -18.0501 O   0  0  0  0  0  0  0  0  0  0  0  0
  2  3  1  0
  2  1  1  0
  4  5  1  0
  4  3  1  0
  5  7  1  0
  5  6  1  1
  7  8  2  0
  9  7  1  0
  9 10  1  0
 10 11  1  6
 11 12  1  0
 13 12  1  0
 13 14  1  0
 15 14  1  0
 16 10  1  0
 16 17  2  0
 19 18  1  6
 19 21  1  0
 20 19  1  0
 21 22  1  1
 21 23  1  0
 22 16  1  0
 23 24  1  0
 25 23  2  0
M  END
$$$$
