MKV.pdb
     RDKit          3D

 25 24  0  0  1  0  0  0  0  0999 V2000
   29.0817  -19.7682   -7.1799 C   0  0  0  0  0  0  0  0  0  0  0  0
   27.6048  -18.7445   -7.0670 S   0  0  0  0  0  0  0  0  0  0  0  0
   26.1305  -19.5987   -7.7076 C   0  0  0  0  0  0  0  0  0  0  0  0
   26.4202  -19.9820   -9.1371 C   0  0  0  0  0  0  0  0  0  0  0  0
   25.2552  -20.6634   -9.8099 C   0  0  2  0  0  0  0  0  0  0  0  0
   24.9756  -21.9736   -9.3124 N   0  0  0  0  0  0  0  0  0  0  0  0
   25.5833  -20.7376  -11.2627 C   0  0  0  0  0  0  0  0  0  0  0  0
   26.5621  -21.4152  -11.6695 O   0  0  0  0  0  0  0  0  0  0  0  0
   24.8184  -20.0560  -12.2556 N   0  0  0  0  0  0  0  0  0  0  0  0
   24.8491  -20.3965  -13.6480 C   0  0  1  0  0  0  0  0  0  0  0  0
   23.5969  -21.1232  -14.0960 C   0  0  0  0  0  0  0  0  0  0  0  0
   23.9482  -22.2240  -15.0327 C   0  0  0  0  0  0  0  0  0  0  0  0
   24.7560  -23.3221  -14.4014 C   0  0  0  0  0  0  0  0  0  0  0  0
   23.9312  -24.5768  -14.2539 C   0  0  0  0  0  0  0  0  0  0  0  0
   24.6891  -25.6529  -14.8950 N   0  0  0  0  0  0  0  0  0  0  0  0
   25.0613  -19.1519  -14.4281 C   0  0  0  0  0  0  0  0  0  0  0  0
   24.3782  -18.1447  -14.0977 O   0  0  0  0  0  0  0  0  0  0  0  0
   27.7963  -18.5956  -17.7973 C   0  0  0  0  0  0  0  0  0  0  0  0
   27.4971  -17.5425  -16.7541 C   0  0  2  0  0  0  0  0  0  0  0  0
   28.4984  -17.7263  -15.6081 C   0  0  0  0  0  0  0  0  0  0  0  0
   26.1272  -17.7564  -16.1521 C   0  0  2  0  0  0  0  0  0  0  0  0
   25.9634  -19.0112  -15.5048 N   0  0  0  0  0  0  0  0  0  0  0  0
   25.0500  -17.5628  -17.1471 C   0  0  0  0  0  0  0  0  0  0  0  0
   24.7284  -16.3050  -17.6140 O   0  0  0  0  0  0  0  0  0  0  0  0
   24.4006  -18.5331  -17.5932 O   0  0  0  0  0  0  0  0  0  0  0  0
  2  3  1  0
  2  1  1  0
  4  5  1  0
  4  3  1  0
  5  7  1  0
  5  6  1  1
  7  8  2  0
  9  7  1  0
  9 10  1  0
 10 11  1  6
 11 12  1  0
 13 12  1  0
 13 14  1  0
 15 14  1  0
 16 10  1  0
 16 17  2  0
 19 18  1  6
 19 21  1  0
 20 19  1  0
 21 22  1  6
 21 23  1  0
 22 16  1  0
 23 24  1  0
 25 23  2  0
M  END
$$$$
