MKV.pdb
     RDKit          3D

 25 24  0  0  1  0  0  0  0  0999 V2000
   14.4774  -23.4094    5.6667 C   0  0  0  0  0  0  0  0  0  0  0  0
   13.7455  -23.7398    4.0551 S   0  0  0  0  0  0  0  0  0  0  0  0
   13.7862  -22.2766    2.9731 C   0  0  0  0  0  0  0  0  0  0  0  0
   14.9871  -21.4566    3.3729 C   0  0  0  0  0  0  0  0  0  0  0  0
   15.1592  -20.2179    2.5302 C   0  0  2  0  0  0  0  0  0  0  0  0
   15.4108  -20.4796    1.1480 N   0  0  0  0  0  0  0  0  0  0  0  0
   16.3025  -19.4585    3.1135 C   0  0  0  0  0  0  0  0  0  0  0  0
   17.4795  -19.6588    2.7171 O   0  0  0  0  0  0  0  0  0  0  0  0
   16.1281  -18.4791    4.1362 N   0  0  0  0  0  0  0  0  0  0  0  0
   17.1896  -17.6466    4.6217 C   0  0  1  0  0  0  0  0  0  0  0  0
   16.7509  -16.2118    4.8359 C   0  0  0  0  0  0  0  0  0  0  0  0
   17.9159  -15.3689    5.2167 C   0  0  0  0  0  0  0  0  0  0  0  0
   17.6076  -13.8997    5.2748 C   0  0  0  0  0  0  0  0  0  0  0  0
   18.8576  -13.1007    5.5486 C   0  0  0  0  0  0  0  0  0  0  0  0
   18.4520  -11.6949    5.6006 N   0  0  0  0  0  0  0  0  0  0  0  0
   17.7161  -18.2444    5.8738 C   0  0  0  0  0  0  0  0  0  0  0  0
   16.8741  -18.7422    6.6698 O   0  0  0  0  0  0  0  0  0  0  0  0
   21.6522  -19.5836    6.5909 C   0  0  0  0  0  0  0  0  0  0  0  0
   20.4530  -19.9579    7.4326 C   0  0  2  0  0  0  0  0  0  0  0  0
   19.7231  -21.1014    6.7187 C   0  0  0  0  0  0  0  0  0  0  0  0
   19.4688  -18.8130    7.5050 C   0  0  2  0  0  0  0  0  0  0  0  0
   19.0787  -18.2976    6.2391 N   0  0  0  0  0  0  0  0  0  0  0  0
   19.9626  -17.7131    8.3620 C   0  0  0  0  0  0  0  0  0  0  0  0
   20.2357  -16.4673    7.8361 O   0  0  0  0  0  0  0  0  0  0  0  0
   20.1463  -17.8812    9.5868 O   0  0  0  0  0  0  0  0  0  0  0  0
  2  3  1  0
  2  1  1  0
  4  5  1  0
  4  3  1  0
  5  7  1  0
  5  6  1  6
  7  8  2  0
  9  7  1  0
  9 10  1  0
 10 11  1  1
 11 12  1  0
 13 12  1  0
 13 14  1  0
 15 14  1  0
 16 10  1  0
 16 17  2  0
 19 18  1  6
 19 21  1  0
 20 19  1  0
 21 22  1  6
 21 23  1  0
 22 16  1  0
 23 24  1  0
 25 23  2  0
M  END
$$$$
