MKV.pdb
     RDKit          3D

 25 24  0  0  1  0  0  0  0  0999 V2000
   26.2881  -14.4753  -14.8370 C   0  0  0  0  0  0  0  0  0  0  0  0
   24.9591  -14.0337  -15.9687 S   0  0  0  0  0  0  0  0  0  0  0  0
   24.4137  -15.4530  -16.9695 C   0  0  0  0  0  0  0  0  0  0  0  0
   24.4467  -16.6691  -16.0781 C   0  0  0  0  0  0  0  0  0  0  0  0
   24.1401  -17.9473  -16.8174 C   0  0  2  0  0  0  0  0  0  0  0  0
   22.7844  -18.0605  -17.2549 N   0  0  0  0  0  0  0  0  0  0  0  0
   24.4626  -19.0677  -15.8875 C   0  0  0  0  0  0  0  0  0  0  0  0
   23.5753  -19.5712  -15.1514 O   0  0  0  0  0  0  0  0  0  0  0  0
   25.7732  -19.6217  -15.7826 N   0  0  0  0  0  0  0  0  0  0  0  0
   26.0971  -20.7282  -14.9303 C   0  0  1  0  0  0  0  0  0  0  0  0
   27.4395  -21.3464  -15.2658 C   0  0  0  0  0  0  0  0  0  0  0  0
   27.2674  -22.4450  -16.2539 C   0  0  0  0  0  0  0  0  0  0  0  0
   28.3784  -22.5335  -17.2612 C   0  0  0  0  0  0  0  0  0  0  0  0
   29.6901  -22.8481  -16.5855 C   0  0  0  0  0  0  0  0  0  0  0  0
   30.6769  -23.0283  -17.6519 N   0  0  0  0  0  0  0  0  0  0  0  0
   26.0529  -20.2611  -13.5223 C   0  0  0  0  0  0  0  0  0  0  0  0
   26.4154  -19.0737  -13.3005 O   0  0  0  0  0  0  0  0  0  0  0  0
   23.6192  -21.6707  -10.3335 C   0  0  0  0  0  0  0  0  0  0  0  0
   24.3262  -20.3396  -10.4563 C   0  0  2  0  0  0  0  0  0  0  0  0
   23.5066  -19.4646  -11.4116 C   0  0  0  0  0  0  0  0  0  0  0  0
   25.6822  -20.5089  -11.1022 C   0  0  2  0  0  0  0  0  0  0  0  0
   25.6390  -21.0398  -12.4200 N   0  0  0  0  0  0  0  0  0  0  0  0
   26.5951  -21.3191  -10.2666 C   0  0  0  0  0  0  0  0  0  0  0  0
   26.9367  -20.9199   -8.9909 O   0  0  0  0  0  0  0  0  0  0  0  0
   27.0826  -22.3883  -10.6923 O   0  0  0  0  0  0  0  0  0  0  0  0
  2  3  1  0
  2  1  1  0
  4  5  1  0
  4  3  1  0
  5  7  1  0
  5  6  1  1
  7  8  2  0
  9  7  1  0
  9 10  1  0
 10 11  1  6
 11 12  1  0
 13 12  1  0
 13 14  1  0
 15 14  1  0
 16 10  1  0
 16 17  2  0
 19 18  1  6
 19 21  1  0
 20 19  1  0
 21 22  1  6
 21 23  1  0
 22 16  1  0
 23 24  1  0
 25 23  2  0
M  END
$$$$
