MKV.pdb
     RDKit          3D

 25 24  0  0  1  0  0  0  0  0999 V2000
   25.7337  -14.2846  -14.2715 C   0  0  0  0  0  0  0  0  0  0  0  0
   26.0375  -14.5274  -16.0296 S   0  0  0  0  0  0  0  0  0  0  0  0
   24.9556  -15.8073  -16.7397 C   0  0  0  0  0  0  0  0  0  0  0  0
   24.7948  -16.8867  -15.6987 C   0  0  0  0  0  0  0  0  0  0  0  0
   23.8812  -18.0007  -16.1443 C   0  0  2  0  0  0  0  0  0  0  0  0
   22.5183  -17.6074  -16.3168 N   0  0  0  0  0  0  0  0  0  0  0  0
   23.9683  -19.0672  -15.1055 C   0  0  0  0  0  0  0  0  0  0  0  0
   23.1917  -19.0689  -14.1158 O   0  0  0  0  0  0  0  0  0  0  0  0
   24.9208  -20.1271  -15.1752 N   0  0  0  0  0  0  0  0  0  0  0  0
   24.9682  -21.2093  -14.2358 C   0  0  1  0  0  0  0  0  0  0  0  0
   25.7189  -22.4116  -14.7724 C   0  0  0  0  0  0  0  0  0  0  0  0
   24.7623  -23.4266  -15.2894 C   0  0  0  0  0  0  0  0  0  0  0  0
   25.4214  -24.5709  -16.0057 C   0  0  0  0  0  0  0  0  0  0  0  0
   24.3913  -25.4565  -16.6620 C   0  0  0  0  0  0  0  0  0  0  0  0
   25.1306  -26.4964  -17.3799 N   0  0  0  0  0  0  0  0  0  0  0  0
   25.5759  -20.7088  -12.9778 C   0  0  0  0  0  0  0  0  0  0  0  0
   26.3683  -19.7324  -13.0726 O   0  0  0  0  0  0  0  0  0  0  0  0
   24.0486  -19.3366   -9.7755 C   0  0  0  0  0  0  0  0  0  0  0  0
   25.0607  -20.3935   -9.3943 C   0  0  2  0  0  0  0  0  0  0  0  0
   25.9436  -19.8122   -8.2841 C   0  0  0  0  0  0  0  0  0  0  0  0
   25.9857  -20.6940  -10.5513 C   0  0  2  0  0  0  0  0  0  0  0  0
   25.3360  -21.2394  -11.6918 N   0  0  0  0  0  0  0  0  0  0  0  0
   27.1078  -21.5697  -10.1488 C   0  0  0  0  0  0  0  0  0  0  0  0
   28.1784  -21.0734   -9.4339 O   0  0  0  0  0  0  0  0  0  0  0  0
   27.1179  -22.7839  -10.4446 O   0  0  0  0  0  0  0  0  0  0  0  0
  2  3  1  0
  2  1  1  0
  4  5  1  0
  4  3  1  0
  5  7  1  0
  5  6  1  1
  7  8  2  0
  9  7  1  0
  9 10  1  0
 10 11  1  6
 11 12  1  0
 13 12  1  0
 13 14  1  0
 15 14  1  0
 16 10  1  0
 16 17  2  0
 19 18  1  6
 19 21  1  0
 20 19  1  0
 21 22  1  6
 21 23  1  0
 22 16  1  0
 23 24  1  0
 25 23  2  0
M  END
$$$$
