MKV.pdb
     RDKit          3D

 25 24  0  0  1  0  0  0  0  0999 V2000
   19.3028  -20.3777  -12.5653 C   0  0  0  0  0  0  0  0  0  0  0  0
   19.0684  -19.9358  -14.2950 S   0  0  0  0  0  0  0  0  0  0  0  0
   20.3371  -18.7690  -14.8801 C   0  0  0  0  0  0  0  0  0  0  0  0
   21.6790  -19.3255  -14.4751 C   0  0  0  0  0  0  0  0  0  0  0  0
   22.5341  -19.7136  -15.6552 C   0  0  2  0  0  0  0  0  0  0  0  0
   21.9836  -20.7590  -16.4592 N   0  0  0  0  0  0  0  0  0  0  0  0
   23.8520  -20.1440  -15.1059 C   0  0  0  0  0  0  0  0  0  0  0  0
   23.9601  -21.2119  -14.4498 O   0  0  0  0  0  0  0  0  0  0  0  0
   25.0437  -19.3815  -15.2908 N   0  0  0  0  0  0  0  0  0  0  0  0
   26.3245  -19.7833  -14.7868 C   0  0  1  0  0  0  0  0  0  0  0  0
   27.4678  -19.0386  -15.4465 C   0  0  0  0  0  0  0  0  0  0  0  0
   27.7669  -19.6303  -16.7781 C   0  0  0  0  0  0  0  0  0  0  0  0
   28.9230  -18.9807  -17.4840 C   0  0  0  0  0  0  0  0  0  0  0  0
   29.1180  -19.5792  -18.8552 C   0  0  0  0  0  0  0  0  0  0  0  0
   30.2933  -18.9252  -19.4333 N   0  0  0  0  0  0  0  0  0  0  0  0
   26.3289  -19.5887  -13.3156 C   0  0  0  0  0  0  0  0  0  0  0  0
   25.8508  -18.5066  -12.8789 O   0  0  0  0  0  0  0  0  0  0  0  0
   25.4609  -20.1203   -8.8739 C   0  0  0  0  0  0  0  0  0  0  0  0
   25.4408  -20.5055  -10.3361 C   0  0  2  0  0  0  0  0  0  0  0  0
   25.2352  -22.0226  -10.4139 C   0  0  0  0  0  0  0  0  0  0  0  0
   26.7790  -20.2302  -10.9828 C   0  0  2  0  0  0  0  0  0  0  0  0
   26.8247  -20.5166  -12.3743 N   0  0  0  0  0  0  0  0  0  0  0  0
   27.8819  -20.9325  -10.2913 C   0  0  0  0  0  0  0  0  0  0  0  0
   28.1947  -20.6493   -8.9778 O   0  0  0  0  0  0  0  0  0  0  0  0
   28.5617  -21.8023  -10.8772 O   0  0  0  0  0  0  0  0  0  0  0  0
  2  3  1  0
  2  1  1  0
  4  5  1  0
  4  3  1  0
  5  7  1  0
  5  6  1  1
  7  8  2  0
  9  7  1  0
  9 10  1  0
 10 11  1  6
 11 12  1  0
 13 12  1  0
 13 14  1  0
 15 14  1  0
 16 10  1  0
 16 17  2  0
 19 18  1  1
 19 21  1  0
 20 19  1  0
 21 22  1  6
 21 23  1  0
 22 16  1  0
 23 24  1  0
 25 23  2  0
M  END
$$$$
