ANK.pdb
     RDKit          3D

 23 22  0  0  1  0  0  0  0  0999 V2000
    7.2746  -12.3116   19.1628 C   0  0  0  0  0  0  0  0  0  0  0  0
    8.4729  -13.0205   19.7890 C   0  0  2  0  0  0  0  0  0  0  0  0
    9.0794  -13.8052   18.7348 N   0  0  0  0  0  0  0  0  0  0  0  0
    8.0378  -13.9500   20.8565 C   0  0  0  0  0  0  0  0  0  0  0  0
    7.3646  -13.5061   21.8286 O   0  0  0  0  0  0  0  0  0  0  0  0
    7.0873  -16.4373   19.1882 N   0  0  0  0  0  0  0  0  0  0  0  0
    7.3276  -17.6457   19.8701 C   0  0  0  0  0  0  0  0  0  0  0  0
    7.1479  -18.7253   19.2868 O   0  0  0  0  0  0  0  0  0  0  0  0
    7.7884  -17.6100   21.2652 C   0  0  0  0  0  0  0  0  0  0  0  0
    8.0188  -16.2656   21.8401 C   0  0  2  0  0  0  0  0  0  0  0  0
    8.3610  -15.3331   20.8123 N   0  0  0  0  0  0  0  0  0  0  0  0
    8.9812  -16.2393   22.9653 C   0  0  0  0  0  0  0  0  0  0  0  0
    8.5840  -15.7579   24.0491 O   0  0  0  0  0  0  0  0  0  0  0  0
   10.3015  -16.7218   22.8779 N   0  0  0  0  0  0  0  0  0  0  0  0
   11.2729  -16.7830   23.9350 C   0  0  1  0  0  0  0  0  0  0  0  0
   10.8001  -17.6265   25.0582 C   0  0  0  0  0  0  0  0  0  0  0  0
   11.7104  -17.7678   26.2234 C   0  0  0  0  0  0  0  0  0  0  0  0
   11.1513  -18.6078   27.3451 C   0  0  0  0  0  0  0  0  0  0  0  0
   12.0774  -18.6138   28.5459 C   0  0  0  0  0  0  0  0  0  0  0  0
   11.4470  -19.2243   29.6974 N   0  0  0  0  0  0  0  0  0  0  0  0
   12.6534  -17.0784   23.4609 C   0  0  0  0  0  0  0  0  0  0  0  0
   13.7463  -16.4357   24.0207 O   0  0  0  0  0  0  0  0  0  0  0  0
   12.8902  -17.9106   22.5504 O   0  0  0  0  0  0  0  0  0  0  0  0
  2  3  1  0
  2  1  1  6
  4  2  1  0
  5  4  2  0
  6  7  1  0
  7  9  1  0
  7  8  2  0
 10  9  1  6
 10 11  1  0
 10 12  1  0
 11  4  1  0
 12 14  1  0
 13 12  2  0
 14 15  1  0
 15 16  1  1
 15 21  1  0
 17 16  1  0
 18 17  1  0
 19 18  1  0
 19 20  1  0
 21 22  1  0
 23 21  2  0
M  END
$$$$
