ANK.pdb
     RDKit          3D

 23 22  0  0  1  0  0  0  0  0999 V2000
    8.3352  -19.2541   18.6740 C   0  0  0  0  0  0  0  0  0  0  0  0
    7.9745  -18.5139   19.9596 C   0  0  2  0  0  0  0  0  0  0  0  0
    6.6373  -17.9939   19.7696 N   0  0  0  0  0  0  0  0  0  0  0  0
    8.8831  -17.3655   20.1802 C   0  0  0  0  0  0  0  0  0  0  0  0
   10.1104  -17.5775   20.3906 O   0  0  0  0  0  0  0  0  0  0  0  0
    7.0412  -13.6805   17.7240 N   0  0  0  0  0  0  0  0  0  0  0  0
    8.3264  -14.0494   18.1659 C   0  0  0  0  0  0  0  0  0  0  0  0
    9.0992  -14.6297   17.3885 O   0  0  0  0  0  0  0  0  0  0  0  0
    8.7340  -13.7409   19.5438 C   0  0  0  0  0  0  0  0  0  0  0  0
    9.2373  -14.8800   20.3438 C   0  0  2  0  0  0  0  0  0  0  0  0
    8.4050  -16.0275   20.1607 N   0  0  0  0  0  0  0  0  0  0  0  0
    9.4597  -14.5703   21.7748 C   0  0  0  0  0  0  0  0  0  0  0  0
   10.2769  -13.6629   22.0453 O   0  0  0  0  0  0  0  0  0  0  0  0
    8.8074  -15.2358   22.8307 N   0  0  0  0  0  0  0  0  0  0  0  0
    8.8660  -14.9082   24.2286 C   0  0  1  0  0  0  0  0  0  0  0  0
    7.6892  -14.1113   24.6489 C   0  0  0  0  0  0  0  0  0  0  0  0
    7.7138  -13.5482   26.0232 C   0  0  0  0  0  0  0  0  0  0  0  0
    6.4858  -12.7498   26.3850 C   0  0  0  0  0  0  0  0  0  0  0  0
    6.6084  -12.1440   27.7698 C   0  0  0  0  0  0  0  0  0  0  0  0
    5.4565  -11.3296   28.0951 N   0  0  0  0  0  0  0  0  0  0  0  0
    9.1854  -16.0717   25.1016 C   0  0  0  0  0  0  0  0  0  0  0  0
    9.5986  -15.8814   26.4107 O   0  0  0  0  0  0  0  0  0  0  0  0
    9.0946  -17.2593   24.7026 O   0  0  0  0  0  0  0  0  0  0  0  0
  2  3  1  0
  2  1  1  6
  4  2  1  0
  5  4  2  0
  6  7  1  0
  7  9  1  0
  7  8  2  0
 10  9  1  6
 10 11  1  0
 10 12  1  0
 11  4  1  0
 12 14  1  0
 13 12  2  0
 14 15  1  0
 15 16  1  1
 15 21  1  0
 17 16  1  0
 18 17  1  0
 19 18  1  0
 19 20  1  0
 21 22  1  0
 23 21  2  0
M  END
$$$$
