ANK.pdb
     RDKit          3D

 23 22  0  0  1  0  0  0  0  0999 V2000
    9.8620  -16.8822   15.7370 C   0  0  0  0  0  0  0  0  0  0  0  0
    9.9407  -17.6620   17.0471 C   0  0  2  0  0  0  0  0  0  0  0  0
    8.6589  -18.3135   17.2117 N   0  0  0  0  0  0  0  0  0  0  0  0
   10.1380  -16.7473   18.1949 C   0  0  0  0  0  0  0  0  0  0  0  0
   11.2893  -16.2826   18.4265 O   0  0  0  0  0  0  0  0  0  0  0  0
    7.9185  -12.3898   19.4747 N   0  0  0  0  0  0  0  0  0  0  0  0
    7.6985  -13.7680   19.2875 C   0  0  0  0  0  0  0  0  0  0  0  0
    7.2536  -14.1766   18.2043 O   0  0  0  0  0  0  0  0  0  0  0  0
    7.9995  -14.7037   20.3801 C   0  0  0  0  0  0  0  0  0  0  0  0
    9.2002  -15.5504   20.1993 C   0  0  2  0  0  0  0  0  0  0  0  0
    9.0592  -16.3795   19.0436 N   0  0  0  0  0  0  0  0  0  0  0  0
    9.5888  -16.3235   21.4010 C   0  0  0  0  0  0  0  0  0  0  0  0
    8.7051  -17.0219   21.9447 O   0  0  0  0  0  0  0  0  0  0  0  0
   10.8839  -16.3124   21.9544 N   0  0  0  0  0  0  0  0  0  0  0  0
   11.3437  -17.0521   23.0973 C   0  0  1  0  0  0  0  0  0  0  0  0
   12.6570  -17.6887   22.8390 C   0  0  0  0  0  0  0  0  0  0  0  0
   12.7337  -18.6336   21.6955 C   0  0  0  0  0  0  0  0  0  0  0  0
   12.9328  -20.0741   22.0976 C   0  0  0  0  0  0  0  0  0  0  0  0
   13.0293  -20.9785   20.8842 C   0  0  0  0  0  0  0  0  0  0  0  0
   14.2965  -21.6775   20.8446 N   0  0  0  0  0  0  0  0  0  0  0  0
   11.2495  -16.2948   24.3761 C   0  0  0  0  0  0  0  0  0  0  0  0
   11.0980  -14.9172   24.3730 O   0  0  0  0  0  0  0  0  0  0  0  0
   11.2988  -16.8572   25.4982 O   0  0  0  0  0  0  0  0  0  0  0  0
  2  3  1  0
  2  1  1  6
  4  2  1  0
  5  4  2  0
  6  7  1  0
  7  9  1  0
  7  8  2  0
 10  9  1  1
 10 11  1  0
 10 12  1  0
 11  4  1  0
 12 14  1  0
 13 12  2  0
 14 15  1  0
 15 16  1  6
 15 21  1  0
 17 16  1  0
 18 17  1  0
 19 18  1  0
 19 20  1  0
 21 22  1  0
 23 21  2  0
M  END
$$$$
