ANK.pdb
     RDKit          3D

 23 22  0  0  1  0  0  0  0  0999 V2000
    7.2264  -18.6689   18.6740 C   0  0  0  0  0  0  0  0  0  0  0  0
    7.5027  -18.3530   20.1418 C   0  0  2  0  0  0  0  0  0  0  0  0
    6.2698  -17.8238   20.6844 N   0  0  0  0  0  0  0  0  0  0  0  0
    8.5432  -17.3071   20.2698 C   0  0  0  0  0  0  0  0  0  0  0  0
    9.7591  -17.6228   20.1387 O   0  0  0  0  0  0  0  0  0  0  0  0
    7.1868  -13.2025   18.2897 N   0  0  0  0  0  0  0  0  0  0  0  0
    8.4178  -13.7166   18.7408 C   0  0  0  0  0  0  0  0  0  0  0  0
    9.2091  -14.2161   17.9268 O   0  0  0  0  0  0  0  0  0  0  0  0
    8.7476  -13.6536   20.1715 C   0  0  0  0  0  0  0  0  0  0  0  0
    9.1644  -14.9274   20.7998 C   0  0  2  0  0  0  0  0  0  0  0  0
    8.2043  -15.9532   20.5375 N   0  0  0  0  0  0  0  0  0  0  0  0
    9.4916  -14.8196   22.2401 C   0  0  0  0  0  0  0  0  0  0  0  0
   10.3752  -13.9973   22.5679 O   0  0  0  0  0  0  0  0  0  0  0  0
    8.8675  -15.5846   23.2444 N   0  0  0  0  0  0  0  0  0  0  0  0
    9.0921  -15.5022   24.6612 C   0  0  1  0  0  0  0  0  0  0  0  0
    7.8559  -15.1227   25.3854 C   0  0  0  0  0  0  0  0  0  0  0  0
    7.6182  -13.6717   25.5966 C   0  0  0  0  0  0  0  0  0  0  0  0
    6.4310  -13.3623   26.4747 C   0  0  0  0  0  0  0  0  0  0  0  0
    6.2103  -11.8672   26.5995 C   0  0  0  0  0  0  0  0  0  0  0  0
    4.9860  -11.5706   27.3131 N   0  0  0  0  0  0  0  0  0  0  0  0
    9.8159  -16.6775   25.2204 C   0  0  0  0  0  0  0  0  0  0  0  0
   10.2971  -16.6592   26.5199 O   0  0  0  0  0  0  0  0  0  0  0  0
   10.0190  -17.7235   24.5552 O   0  0  0  0  0  0  0  0  0  0  0  0
  2  3  1  0
  2  1  1  6
  4  2  1  0
  5  4  2  0
  6  7  1  0
  7  9  1  0
  7  8  2  0
 10  9  1  1
 10 11  1  0
 10 12  1  0
 11  4  1  0
 12 14  1  0
 13 12  2  0
 14 15  1  0
 15 16  1  1
 15 21  1  0
 17 16  1  0
 18 17  1  0
 19 18  1  0
 19 20  1  0
 21 22  1  0
 23 21  2  0
M  END
$$$$
