ANK.pdb
     RDKit          3D

 23 22  0  0  1  0  0  0  0  0999 V2000
    7.2089  -19.3280   19.4118 C   0  0  0  0  0  0  0  0  0  0  0  0
    7.6902  -18.2609   18.4319 C   0  0  2  0  0  0  0  0  0  0  0  0
    8.4896  -18.9482   17.4403 N   0  0  0  0  0  0  0  0  0  0  0  0
    8.5582  -17.2725   19.1120 C   0  0  0  0  0  0  0  0  0  0  0  0
    9.7912  -17.5148   19.2402 O   0  0  0  0  0  0  0  0  0  0  0  0
    6.3494  -12.6649   18.7691 N   0  0  0  0  0  0  0  0  0  0  0  0
    7.6225  -13.2580   18.8712 C   0  0  0  0  0  0  0  0  0  0  0  0
    8.3275  -13.3756   17.8576 O   0  0  0  0  0  0  0  0  0  0  0  0
    8.0981  -13.7299   20.1792 C   0  0  0  0  0  0  0  0  0  0  0  0
    8.8392  -15.0112   20.1785 C   0  0  2  0  0  0  0  0  0  0  0  0
    8.0348  -16.0550   19.6248 N   0  0  0  0  0  0  0  0  0  0  0  0
    9.4168  -15.3833   21.4903 C   0  0  0  0  0  0  0  0  0  0  0  0
    8.6187  -15.5919   22.4304 O   0  0  0  0  0  0  0  0  0  0  0  0
   10.7987  -15.5124   21.7293 N   0  0  0  0  0  0  0  0  0  0  0  0
   11.4282  -16.0436   22.9067 C   0  0  1  0  0  0  0  0  0  0  0  0
   10.8969  -17.3845   23.2479 C   0  0  0  0  0  0  0  0  0  0  0  0
   11.4995  -18.0688   24.4206 C   0  0  0  0  0  0  0  0  0  0  0  0
   10.9280  -19.4374   24.6972 C   0  0  0  0  0  0  0  0  0  0  0  0
   11.6525  -20.1179   25.8425 C   0  0  0  0  0  0  0  0  0  0  0  0
   11.1456  -21.4548   26.0696 N   0  0  0  0  0  0  0  0  0  0  0  0
   12.9136  -15.9386   22.8887 C   0  0  0  0  0  0  0  0  0  0  0  0
   13.5883  -15.6516   21.7127 O   0  0  0  0  0  0  0  0  0  0  0  0
   13.6136  -16.0989   23.9193 O   0  0  0  0  0  0  0  0  0  0  0  0
  2  3  1  0
  2  1  1  1
  4  2  1  0
  5  4  2  0
  6  7  1  0
  7  9  1  0
  7  8  2  0
 10  9  1  1
 10 11  1  0
 10 12  1  0
 11  4  1  0
 12 14  1  0
 13 12  2  0
 14 15  1  0
 15 16  1  6
 15 21  1  0
 17 16  1  0
 18 17  1  0
 19 18  1  0
 19 20  1  0
 21 22  1  0
 23 21  2  0
M  END
$$$$
