ANK.pdb
     RDKit          3D

 23 22  0  0  1  0  0  0  0  0999 V2000
    8.1299  -12.3526   19.4446 C   0  0  0  0  0  0  0  0  0  0  0  0
    8.3510  -13.7620   18.9011 C   0  0  2  0  0  0  0  0  0  0  0  0
    7.1769  -14.0868   18.1197 N   0  0  0  0  0  0  0  0  0  0  0  0
    8.4499  -14.7440   20.0051 C   0  0  0  0  0  0  0  0  0  0  0  0
    7.3936  -15.1845   20.5395 O   0  0  0  0  0  0  0  0  0  0  0  0
    9.5808  -17.9595   19.4465 N   0  0  0  0  0  0  0  0  0  0  0  0
   10.7777  -18.0054   20.1868 C   0  0  0  0  0  0  0  0  0  0  0  0
   11.6445  -18.8448   19.9001 O   0  0  0  0  0  0  0  0  0  0  0  0
   10.9829  -17.0565   21.2902 C   0  0  0  0  0  0  0  0  0  0  0  0
    9.8669  -16.1227   21.5612 C   0  0  2  0  0  0  0  0  0  0  0  0
    9.7087  -15.2033   20.4783 N   0  0  0  0  0  0  0  0  0  0  0  0
    9.9481  -15.4379   22.8717 C   0  0  0  0  0  0  0  0  0  0  0  0
   10.2795  -14.2319   22.8696 O   0  0  0  0  0  0  0  0  0  0  0  0
    9.6751  -16.0667   24.1021 N   0  0  0  0  0  0  0  0  0  0  0  0
    9.3603  -15.4278   25.3501 C   0  0  1  0  0  0  0  0  0  0  0  0
    8.2494  -14.4585   25.1984 C   0  0  0  0  0  0  0  0  0  0  0  0
    7.8818  -13.6630   26.3977 C   0  0  0  0  0  0  0  0  0  0  0  0
    6.7712  -12.6693   26.1624 C   0  0  0  0  0  0  0  0  0  0  0  0
    6.4294  -11.9115   27.4308 C   0  0  0  0  0  0  0  0  0  0  0  0
    5.3204  -11.0044   27.2227 N   0  0  0  0  0  0  0  0  0  0  0  0
    9.2185  -16.3779   26.4881 C   0  0  0  0  0  0  0  0  0  0  0  0
    9.1606  -17.7446   26.2657 O   0  0  0  0  0  0  0  0  0  0  0  0
    9.1489  -15.9943   27.6822 O   0  0  0  0  0  0  0  0  0  0  0  0
  2  3  1  0
  2  1  1  1
  4  2  1  0
  5  4  2  0
  6  7  1  0
  7  9  1  0
  7  8  2  0
 10  9  1  6
 10 11  1  0
 10 12  1  0
 11  4  1  0
 12 14  1  0
 13 12  2  0
 14 15  1  0
 15 16  1  6
 15 21  1  0
 17 16  1  0
 18 17  1  0
 19 18  1  0
 19 20  1  0
 21 22  1  0
 23 21  2  0
M  END
$$$$
