ANK.pdb
     RDKit          3D

 23 22  0  0  1  0  0  0  0  0999 V2000
    8.0234  -12.1938   19.5150 C   0  0  0  0  0  0  0  0  0  0  0  0
    8.2036  -13.5914   18.9276 C   0  0  2  0  0  0  0  0  0  0  0  0
    6.9490  -13.9312   18.2910 N   0  0  0  0  0  0  0  0  0  0  0  0
    8.4562  -14.5847   19.9965 C   0  0  0  0  0  0  0  0  0  0  0  0
    7.6461  -14.6771   20.9611 O   0  0  0  0  0  0  0  0  0  0  0  0
    9.5775  -19.9627   20.8022 N   0  0  0  0  0  0  0  0  0  0  0  0
   10.5206  -18.9250   20.9315 C   0  0  0  0  0  0  0  0  0  0  0  0
   11.4773  -19.0591   21.7094 O   0  0  0  0  0  0  0  0  0  0  0  0
   10.3574  -17.6964   20.1418 C   0  0  0  0  0  0  0  0  0  0  0  0
    9.7966  -16.5305   20.8609 C   0  0  2  0  0  0  0  0  0  0  0  0
    9.5917  -15.4384   19.9618 N   0  0  0  0  0  0  0  0  0  0  0  0
   10.5600  -16.1307   22.0652 C   0  0  0  0  0  0  0  0  0  0  0  0
   11.5840  -15.4341   21.8905 O   0  0  0  0  0  0  0  0  0  0  0  0
   10.1969  -16.4898   23.3777 N   0  0  0  0  0  0  0  0  0  0  0  0
   10.9187  -16.2004   24.5860 C   0  0  1  0  0  0  0  0  0  0  0  0
   10.0205  -15.6770   25.6424 C   0  0  0  0  0  0  0  0  0  0  0  0
   10.6374  -15.3672   26.9576 C   0  0  0  0  0  0  0  0  0  0  0  0
    9.6559  -14.9044   28.0058 C   0  0  0  0  0  0  0  0  0  0  0  0
   10.3586  -14.5445   29.3006 C   0  0  0  0  0  0  0  0  0  0  0  0
    9.4455  -13.9409   30.2482 N   0  0  0  0  0  0  0  0  0  0  0  0
   11.8270  -17.2991   25.0166 C   0  0  0  0  0  0  0  0  0  0  0  0
   11.4530  -18.6253   24.8683 O   0  0  0  0  0  0  0  0  0  0  0  0
   12.9560  -17.0816   25.5226 O   0  0  0  0  0  0  0  0  0  0  0  0
  2  3  1  0
  2  1  1  1
  4  2  1  0
  5  4  2  0
  6  7  1  0
  7  9  1  0
  7  8  2  0
 10  9  1  6
 10 11  1  0
 10 12  1  0
 11  4  1  0
 12 14  1  0
 13 12  2  0
 14 15  1  0
 15 16  1  1
 15 21  1  0
 17 16  1  0
 18 17  1  0
 19 18  1  0
 19 20  1  0
 21 22  1  0
 23 21  2  0
M  END
$$$$
