ANK.pdb
     RDKit          3D

 23 22  0  0  1  0  0  0  0  0999 V2000
    9.1964  -17.2431   19.2091 C   0  0  0  0  0  0  0  0  0  0  0  0
   10.4101  -17.2124   18.2836 C   0  0  2  0  0  0  0  0  0  0  0  0
   10.3218  -18.3961   17.4555 N   0  0  0  0  0  0  0  0  0  0  0  0
   11.6684  -17.2923   19.0603 C   0  0  0  0  0  0  0  0  0  0  0  0
   12.1613  -18.4241   19.3275 O   0  0  0  0  0  0  0  0  0  0  0  0
   16.2010  -13.7551   21.0810 N   0  0  0  0  0  0  0  0  0  0  0  0
   15.7424  -14.9604   20.5153 C   0  0  0  0  0  0  0  0  0  0  0  0
   16.4612  -15.9702   20.5575 O   0  0  0  0  0  0  0  0  0  0  0  0
   14.4169  -15.0043   19.8823 C   0  0  0  0  0  0  0  0  0  0  0  0
   13.5475  -16.1375   20.2708 C   0  0  2  0  0  0  0  0  0  0  0  0
   12.3357  -16.1222   19.5130 N   0  0  0  0  0  0  0  0  0  0  0  0
   13.2981  -16.2447   21.7266 C   0  0  0  0  0  0  0  0  0  0  0  0
   12.9697  -15.2001   22.3310 O   0  0  0  0  0  0  0  0  0  0  0  0
   13.4104  -17.4454   22.4541 N   0  0  0  0  0  0  0  0  0  0  0  0
   13.2925  -17.6104   23.8767 C   0  0  1  0  0  0  0  0  0  0  0  0
   12.5738  -18.8602   24.2202 C   0  0  0  0  0  0  0  0  0  0  0  0
   12.3368  -19.1256   25.6624 C   0  0  0  0  0  0  0  0  0  0  0  0
   11.7107  -20.4683   25.9480 C   0  0  0  0  0  0  0  0  0  0  0  0
   11.3651  -20.6159   27.4171 C   0  0  0  0  0  0  0  0  0  0  0  0
   10.7748  -21.9084   27.6946 N   0  0  0  0  0  0  0  0  0  0  0  0
   14.5701  -17.3944   24.6107 C   0  0  0  0  0  0  0  0  0  0  0  0
   14.5793  -16.7622   25.8440 O   0  0  0  0  0  0  0  0  0  0  0  0
   15.6799  -17.7702   24.1579 O   0  0  0  0  0  0  0  0  0  0  0  0
  2  3  1  0
  2  1  1  1
  4  2  1  0
  5  4  2  0
  6  7  1  0
  7  9  1  0
  7  8  2  0
 10  9  1  1
 10 11  1  0
 10 12  1  0
 11  4  1  0
 12 14  1  0
 13 12  2  0
 14 15  1  0
 15 16  1  6
 15 21  1  0
 17 16  1  0
 18 17  1  0
 19 18  1  0
 19 20  1  0
 21 22  1  0
 23 21  2  0
M  END
$$$$
