ANK.pdb
     RDKit          3D

 23 22  0  0  1  0  0  0  0  0999 V2000
    9.8757  -16.8386   14.9293 C   0  0  0  0  0  0  0  0  0  0  0  0
    9.6334  -17.5684   16.2482 C   0  0  2  0  0  0  0  0  0  0  0  0
    8.2365  -17.9467   16.2546 N   0  0  0  0  0  0  0  0  0  0  0  0
    9.8672  -16.6680   17.4004 C   0  0  0  0  0  0  0  0  0  0  0  0
   11.0344  -16.2426   17.6280 O   0  0  0  0  0  0  0  0  0  0  0  0
    7.3438  -12.3262   19.1992 N   0  0  0  0  0  0  0  0  0  0  0  0
    7.3621  -13.6703   18.7799 C   0  0  0  0  0  0  0  0  0  0  0  0
    7.0587  -13.9524   17.6109 O   0  0  0  0  0  0  0  0  0  0  0  0
    7.7409  -14.7211   19.7350 C   0  0  0  0  0  0  0  0  0  0  0  0
    8.9826  -15.4649   19.4252 C   0  0  2  0  0  0  0  0  0  0  0  0
    8.8060  -16.2708   18.2580 N   0  0  0  0  0  0  0  0  0  0  0  0
    9.5316  -16.2375   20.5631 C   0  0  0  0  0  0  0  0  0  0  0  0
    8.9749  -17.3221   20.8423 O   0  0  0  0  0  0  0  0  0  0  0  0
   10.6325  -15.8189   21.3354 N   0  0  0  0  0  0  0  0  0  0  0  0
   11.2179  -16.5066   22.4530 C   0  0  1  0  0  0  0  0  0  0  0  0
   12.6814  -16.2826   22.5218 C   0  0  0  0  0  0  0  0  0  0  0  0
   13.4327  -17.0525   23.5461 C   0  0  0  0  0  0  0  0  0  0  0  0
   14.9132  -16.7632   23.5725 C   0  0  0  0  0  0  0  0  0  0  0  0
   15.6236  -17.6100   24.6107 C   0  0  0  0  0  0  0  0  0  0  0  0
   17.0613  -17.4683   24.5157 N   0  0  0  0  0  0  0  0  0  0  0  0
   10.4861  -16.2970   23.7330 C   0  0  0  0  0  0  0  0  0  0  0  0
    9.4715  -15.3571   23.8221 O   0  0  0  0  0  0  0  0  0  0  0  0
   10.7458  -16.9514   24.7733 O   0  0  0  0  0  0  0  0  0  0  0  0
  2  3  1  0
  2  1  1  6
  4  2  1  0
  5  4  2  0
  6  7  1  0
  7  9  1  0
  7  8  2  0
 10  9  1  1
 10 11  1  0
 10 12  1  0
 11  4  1  0
 12 14  1  0
 13 12  2  0
 14 15  1  0
 15 16  1  1
 15 21  1  0
 17 16  1  0
 18 17  1  0
 19 18  1  0
 19 20  1  0
 21 22  1  0
 23 21  2  0
M  END
$$$$
