ANK.pdb
     RDKit          3D

 23 22  0  0  1  0  0  0  0  0999 V2000
    8.7428  -12.2254   18.8353 C   0  0  0  0  0  0  0  0  0  0  0  0
    8.6279  -13.6605   18.3275 C   0  0  2  0  0  0  0  0  0  0  0  0
    7.3431  -13.7585   17.6683 N   0  0  0  0  0  0  0  0  0  0  0  0
    8.6367  -14.6214   19.4542 C   0  0  0  0  0  0  0  0  0  0  0  0
    7.5501  -14.9142   20.0278 O   0  0  0  0  0  0  0  0  0  0  0  0
   10.6476  -19.6421   21.1211 N   0  0  0  0  0  0  0  0  0  0  0  0
   11.0342  -18.3584   21.5519 C   0  0  0  0  0  0  0  0  0  0  0  0
   11.4512  -18.1996   22.7091 O   0  0  0  0  0  0  0  0  0  0  0  0
   10.9379  -17.2239   20.6227 C   0  0  0  0  0  0  0  0  0  0  0  0
    9.9028  -16.2131   20.9353 C   0  0  2  0  0  0  0  0  0  0  0  0
    9.8421  -15.2232   19.9060 N   0  0  0  0  0  0  0  0  0  0  0  0
   10.0220  -15.6138   22.2843 C   0  0  0  0  0  0  0  0  0  0  0  0
   11.0106  -14.8789   22.5005 O   0  0  0  0  0  0  0  0  0  0  0  0
    9.0923  -15.8265   23.3206 N   0  0  0  0  0  0  0  0  0  0  0  0
    9.0566  -15.1727   24.5997 C   0  0  1  0  0  0  0  0  0  0  0  0
    7.8235  -14.3666   24.7628 C   0  0  0  0  0  0  0  0  0  0  0  0
    7.7201  -13.5356   25.9896 C   0  0  0  0  0  0  0  0  0  0  0  0
    6.4303  -12.7612   26.1033 C   0  0  0  0  0  0  0  0  0  0  0  0
    6.4175  -11.8874   27.3428 C   0  0  0  0  0  0  0  0  0  0  0  0
    5.2169  -11.0812   27.4095 N   0  0  0  0  0  0  0  0  0  0  0  0
    9.3769  -16.0747   25.7405 C   0  0  0  0  0  0  0  0  0  0  0  0
    9.5625  -17.4331   25.5378 O   0  0  0  0  0  0  0  0  0  0  0  0
    9.4953  -15.6559   26.9188 O   0  0  0  0  0  0  0  0  0  0  0  0
  2  3  1  0
  2  1  1  1
  4  2  1  0
  5  4  2  0
  6  7  1  0
  7  9  1  0
  7  8  2  0
 10  9  1  6
 10 11  1  0
 10 12  1  0
 11  4  1  0
 12 14  1  0
 13 12  2  0
 14 15  1  0
 15 16  1  1
 15 21  1  0
 17 16  1  0
 18 17  1  0
 19 18  1  0
 19 20  1  0
 21 22  1  0
 23 21  2  0
M  END
$$$$
