HQT.pdb
     RDKit          3D

 27 27  0  0  1  0  0  0  0  0999 V2000
   15.3165  -13.2006  -12.2374 N   0  0  0  0  0  0  0  0  0  0  0  0
   14.7431  -11.8643  -12.2433 C   0  0  1  0  0  0  0  0  0  0  0  0
   13.4884  -11.9273  -11.3970 C   0  0  0  0  0  0  0  0  0  0  0  0
   12.4633  -12.8103  -12.0113 C   0  0  0  0  0  0  0  0  0  0  0  0
   11.9456  -13.9940  -11.5357 C   0  0  0  0  0  0  0  0  0  0  0  0
   11.0335  -14.4989  -12.3820 N   0  0  0  0  0  0  0  0  0  0  0  0
   10.9644  -13.6348  -13.4075 C   0  0  0  0  0  0  0  0  0  0  0  0
   11.8239  -12.6052  -13.2000 N   0  0  0  0  0  0  0  0  0  0  0  0
   15.7300  -10.9064  -11.7029 C   0  0  0  0  0  0  0  0  0  0  0  0
   16.3522  -11.1671  -10.6416 O   0  0  0  0  0  0  0  0  0  0  0  0
   20.1902   -7.8278  -14.4536 N   0  0  0  0  0  0  0  0  0  0  0  0
   20.1428   -7.1194  -13.1921 C   0  0  0  0  0  0  0  0  0  0  0  0
   21.0368   -6.2794  -13.0156 O   0  0  0  0  0  0  0  0  0  0  0  0
   19.0559   -7.4719  -12.2805 C   0  0  0  0  0  0  0  0  0  0  0  0
   18.1257   -8.5157  -12.7825 C   0  0  0  0  0  0  0  0  0  0  0  0
   17.0092   -8.7542  -11.8210 C   0  0  2  0  0  0  0  0  0  0  0  0
   16.0118   -9.6733  -12.3486 N   0  0  0  0  0  0  0  0  0  0  0  0
   16.3668   -7.4825  -11.3800 C   0  0  0  0  0  0  0  0  0  0  0  0
   15.6276   -6.8961  -12.2053 O   0  0  0  0  0  0  0  0  0  0  0  0
   14.5033   -6.6053   -7.8969 C   0  0  0  0  0  0  0  0  0  0  0  0
   15.5834   -5.6196   -8.2808 C   0  0  1  0  0  0  0  0  0  0  0  0
   16.7506   -5.9073   -7.5518 O   0  0  0  0  0  0  0  0  0  0  0  0
   15.8717   -5.6848   -9.7770 C   0  0  2  0  0  0  0  0  0  0  0  0
   16.5496   -6.9248  -10.1078 N   0  0  0  0  0  0  0  0  0  0  0  0
   16.6883   -4.5089  -10.1751 C   0  0  0  0  0  0  0  0  0  0  0  0
   17.8907   -4.6464  -10.5100 O   0  0  0  0  0  0  0  0  0  0  0  0
   16.1717   -3.2098  -10.1980 O   0  0  0  0  0  0  0  0  0  0  0  0
  2  1  1  1
  2  3  1  0
  3  4  1  0
  4  8  1  0
  5  4  2  0
  5  6  1  0
  6  7  1  0
  8  7  2  0
  9 10  2  0
  9  2  1  0
 11 12  1  0
 12 13  2  0
 12 14  1  0
 14 15  1  0
 16 15  1  6
 16 17  1  0
 17  9  1  0
 18 24  1  0
 18 16  1  0
 19 18  2  0
 21 20  1  6
 21 22  1  0
 21 23  1  0
 23 24  1  1
 23 25  1  0
 25 27  1  0
 26 25  2  0
M  END
$$$$
