HQT.pdb
     RDKit          3D

 27 27  0  0  1  0  0  0  0  0999 V2000
   22.2125  -12.6206  -20.8344 N   0  0  0  0  0  0  0  0  0  0  0  0
   22.4656  -12.3282  -19.4326 C   0  0  1  0  0  0  0  0  0  0  0  0
   23.9685  -12.3647  -19.2467 C   0  0  0  0  0  0  0  0  0  0  0  0
   24.5003  -13.7441  -19.3958 C   0  0  0  0  0  0  0  0  0  0  0  0
   25.0443  -14.3448  -20.5088 C   0  0  0  0  0  0  0  0  0  0  0  0
   25.4124  -15.6091  -20.2463 N   0  0  0  0  0  0  0  0  0  0  0  0
   25.1032  -15.8226  -18.9570 C   0  0  0  0  0  0  0  0  0  0  0  0
   24.5495  -14.7032  -18.4255 N   0  0  0  0  0  0  0  0  0  0  0  0
   21.8966  -11.0060  -19.0986 C   0  0  0  0  0  0  0  0  0  0  0  0
   21.8819  -10.0863  -19.9562 O   0  0  0  0  0  0  0  0  0  0  0  0
   16.6645   -9.7915  -16.2351 N   0  0  0  0  0  0  0  0  0  0  0  0
   17.2428   -8.4653  -16.2845 C   0  0  0  0  0  0  0  0  0  0  0  0
   16.4884   -7.5394  -15.9536 O   0  0  0  0  0  0  0  0  0  0  0  0
   18.6369   -8.3715  -16.7138 C   0  0  0  0  0  0  0  0  0  0  0  0
   19.2704   -9.6629  -17.0849 C   0  0  0  0  0  0  0  0  0  0  0  0
   20.6769   -9.4645  -17.5435 C   0  0  2  0  0  0  0  0  0  0  0  0
   21.3523  -10.7241  -17.8175 N   0  0  0  0  0  0  0  0  0  0  0  0
   21.4700   -8.6442  -16.5831 C   0  0  0  0  0  0  0  0  0  0  0  0
   22.1477   -9.2586  -15.7260 O   0  0  0  0  0  0  0  0  0  0  0  0
   23.2892   -4.3570  -14.9469 C   0  0  0  0  0  0  0  0  0  0  0  0
   22.5806   -5.1278  -16.0375 C   0  0  1  0  0  0  0  0  0  0  0  0
   23.4057   -5.1823  -17.1745 O   0  0  0  0  0  0  0  0  0  0  0  0
   22.2388   -6.5391  -15.5711 C   0  0  2  0  0  0  0  0  0  0  0  0
   21.4908   -7.2434  -16.5963 N   0  0  0  0  0  0  0  0  0  0  0  0
   21.4669   -6.4677  -14.3033 C   0  0  0  0  0  0  0  0  0  0  0  0
   20.2371   -6.2143  -14.3142 O   0  0  0  0  0  0  0  0  0  0  0  0
   22.0573   -6.6749  -13.0529 O   0  0  0  0  0  0  0  0  0  0  0  0
  2  1  1  6
  2  3  1  0
  3  4  1  0
  4  8  1  0
  5  4  2  0
  5  6  1  0
  6  7  1  0
  8  7  2  0
  9 10  2  0
  9  2  1  0
 11 12  1  0
 12 13  2  0
 12 14  1  0
 14 15  1  0
 16 15  1  1
 16 17  1  0
 17  9  1  0
 18 24  1  0
 18 16  1  0
 19 18  2  0
 21 20  1  1
 21 22  1  0
 21 23  1  0
 23 24  1  6
 23 25  1  0
 25 27  1  0
 26 25  2  0
M  END
$$$$
