HQT.pdb
     RDKit          3D

 27 27  0  0  1  0  0  0  0  0999 V2000
   16.8690  -12.2514  -14.5953 N   0  0  0  0  0  0  0  0  0  0  0  0
   16.3547  -10.8924  -14.5400 C   0  0  1  0  0  0  0  0  0  0  0  0
   14.8610  -11.0031  -14.3137 C   0  0  0  0  0  0  0  0  0  0  0  0
   14.1696  -11.5468  -15.5112 C   0  0  0  0  0  0  0  0  0  0  0  0
   13.4932  -10.8689  -16.5005 C   0  0  0  0  0  0  0  0  0  0  0  0
   13.0022  -11.7157  -17.4196 N   0  0  0  0  0  0  0  0  0  0  0  0
   13.3649  -12.9450  -17.0190 C   0  0  0  0  0  0  0  0  0  0  0  0
   14.0731  -12.8620  -15.8642 N   0  0  0  0  0  0  0  0  0  0  0  0
   17.0289  -10.1586  -13.4489 C   0  0  0  0  0  0  0  0  0  0  0  0
   17.2838  -10.7337  -12.3600 O   0  0  0  0  0  0  0  0  0  0  0  0
   21.8881   -6.5033  -13.7414 N   0  0  0  0  0  0  0  0  0  0  0  0
   21.5388   -6.4013  -12.3402 C   0  0  0  0  0  0  0  0  0  0  0  0
   22.3917   -5.8729  -11.6126 O   0  0  0  0  0  0  0  0  0  0  0  0
   20.2326   -6.9274  -11.9483 C   0  0  0  0  0  0  0  0  0  0  0  0
   19.4501   -7.5532  -13.0451 C   0  0  0  0  0  0  0  0  0  0  0  0
   18.1639   -8.1172  -12.5397 C   0  0  2  0  0  0  0  0  0  0  0  0
   17.4104   -8.7971  -13.5826 N   0  0  0  0  0  0  0  0  0  0  0  0
   17.3200   -7.0827  -11.8750 C   0  0  0  0  0  0  0  0  0  0  0  0
   16.8278   -6.1885  -12.6027 O   0  0  0  0  0  0  0  0  0  0  0  0
   15.6576   -7.5345   -8.0433 C   0  0  0  0  0  0  0  0  0  0  0  0
   15.0951   -6.6236   -9.1108 C   0  0  1  0  0  0  0  0  0  0  0  0
   14.3472   -5.6026   -8.4985 O   0  0  0  0  0  0  0  0  0  0  0  0
   16.2133   -6.0193   -9.9538 C   0  0  2  0  0  0  0  0  0  0  0  0
   17.0580   -7.0662  -10.4988 N   0  0  0  0  0  0  0  0  0  0  0  0
   17.0046   -5.0755   -9.1225 C   0  0  0  0  0  0  0  0  0  0  0  0
   16.4989   -4.0012   -8.7138 O   0  0  0  0  0  0  0  0  0  0  0  0
   18.3305   -5.3278   -8.7571 O   0  0  0  0  0  0  0  0  0  0  0  0
  2  1  1  1
  2  3  1  0
  3  4  1  0
  4  8  1  0
  5  4  2  0
  5  6  1  0
  6  7  1  0
  8  7  2  0
  9 10  2  0
  9  2  1  0
 11 12  1  0
 12 13  2  0
 12 14  1  0
 14 15  1  0
 16 15  1  6
 16 17  1  0
 17  9  1  0
 18 24  1  0
 18 16  1  0
 19 18  2  0
 21 20  1  1
 21 22  1  0
 21 23  1  0
 23 24  1  1
 23 25  1  0
 25 27  1  0
 26 25  2  0
M  END
$$$$
