HQT.pdb
     RDKit          3D

 27 27  0  0  1  0  0  0  0  0999 V2000
   28.2601  -21.8842  -16.9641 N   0  0  0  0  0  0  0  0  0  0  0  0
   27.8181  -20.6986  -16.2475 C   0  0  1  0  0  0  0  0  0  0  0  0
   27.4654  -19.6644  -17.2965 C   0  0  0  0  0  0  0  0  0  0  0  0
   28.6796  -19.1498  -17.9811 C   0  0  0  0  0  0  0  0  0  0  0  0
   29.0919  -19.3542  -19.2787 C   0  0  0  0  0  0  0  0  0  0  0  0
   30.2493  -18.7197  -19.5253 N   0  0  0  0  0  0  0  0  0  0  0  0
   30.5831  -18.1039  -18.3796 C   0  0  0  0  0  0  0  0  0  0  0  0
   29.6434  -18.3535  -17.4327 N   0  0  0  0  0  0  0  0  0  0  0  0
   26.6602  -21.0446  -15.3972 C   0  0  0  0  0  0  0  0  0  0  0  0
   25.7992  -21.8673  -15.8014 O   0  0  0  0  0  0  0  0  0  0  0  0
   26.0026  -20.5850   -9.0999 N   0  0  0  0  0  0  0  0  0  0  0  0
   24.7104  -21.0657   -9.5413 C   0  0  0  0  0  0  0  0  0  0  0  0
   23.9129  -21.3623   -8.6402 O   0  0  0  0  0  0  0  0  0  0  0  0
   24.4963  -21.1442  -10.9851 C   0  0  0  0  0  0  0  0  0  0  0  0
   25.6557  -20.7327  -11.8176 C   0  0  0  0  0  0  0  0  0  0  0  0
   25.3446  -20.8446  -13.2732 C   0  0  2  0  0  0  0  0  0  0  0  0
   26.4749  -20.4723  -14.1107 N   0  0  0  0  0  0  0  0  0  0  0  0
   24.1337  -20.0599  -13.6503 C   0  0  0  0  0  0  0  0  0  0  0  0
   24.2226  -18.8103  -13.6069 O   0  0  0  0  0  0  0  0  0  0  0  0
   22.4332  -19.3934  -16.6966 C   0  0  0  0  0  0  0  0  0  0  0  0
   21.3577  -19.9223  -15.7750 C   0  0  1  0  0  0  0  0  0  0  0  0
   21.1048  -21.2696  -16.0869 O   0  0  0  0  0  0  0  0  0  0  0  0
   21.7814  -19.7937  -14.3156 C   0  0  2  0  0  0  0  0  0  0  0  0
   22.9238  -20.6467  -14.0436 N   0  0  0  0  0  0  0  0  0  0  0  0
   20.6358  -20.1414  -13.4355 C   0  0  0  0  0  0  0  0  0  0  0  0
   20.6809  -21.1531  -12.6930 O   0  0  0  0  0  0  0  0  0  0  0  0
   19.4672  -19.3752  -13.3873 O   0  0  0  0  0  0  0  0  0  0  0  0
  2  1  1  6
  2  3  1  0
  3  4  1  0
  4  8  1  0
  5  4  2  0
  5  6  1  0
  6  7  1  0
  8  7  2  0
  9 10  2  0
  9  2  1  0
 11 12  1  0
 12 13  2  0
 12 14  1  0
 14 15  1  0
 16 15  1  1
 16 17  1  0
 17  9  1  0
 18 24  1  0
 18 16  1  0
 19 18  2  0
 21 20  1  6
 21 22  1  0
 21 23  1  0
 23 24  1  6
 23 25  1  0
 25 27  1  0
 26 25  2  0
M  END
$$$$
