HQT.pdb
     RDKit          3D

 27 27  0  0  1  0  0  0  0  0999 V2000
   19.1794  -13.0385  -16.7232 N   0  0  0  0  0  0  0  0  0  0  0  0
   18.5653  -11.7446  -16.4715 C   0  0  1  0  0  0  0  0  0  0  0  0
   17.8901  -11.8411  -15.1190 C   0  0  0  0  0  0  0  0  0  0  0  0
   16.6410  -12.6425  -15.1920 C   0  0  0  0  0  0  0  0  0  0  0  0
   16.0954  -13.2953  -16.2744 C   0  0  0  0  0  0  0  0  0  0  0  0
   14.9511  -13.9139  -15.9412 N   0  0  0  0  0  0  0  0  0  0  0  0
   14.7600  -13.6572  -14.6370 C   0  0  0  0  0  0  0  0  0  0  0  0
   15.7743  -12.8881  -14.1663 N   0  0  0  0  0  0  0  0  0  0  0  0
   19.6060  -10.6959  -16.4992 C   0  0  0  0  0  0  0  0  0  0  0  0
   20.7531  -10.9277  -16.0388 O   0  0  0  0  0  0  0  0  0  0  0  0
   19.0075   -7.2752  -20.6856 N   0  0  0  0  0  0  0  0  0  0  0  0
   19.8902   -8.4224  -20.7088 C   0  0  0  0  0  0  0  0  0  0  0  0
   19.8807   -9.0845  -21.7565 O   0  0  0  0  0  0  0  0  0  0  0  0
   20.6845   -8.6653  -19.5060 C   0  0  0  0  0  0  0  0  0  0  0  0
   20.4654   -7.6980  -18.4000 C   0  0  0  0  0  0  0  0  0  0  0  0
   20.4003   -8.3905  -17.0794 C   0  0  2  0  0  0  0  0  0  0  0  0
   19.3581   -9.4053  -17.0376 N   0  0  0  0  0  0  0  0  0  0  0  0
   20.2405   -7.4304  -15.9493 C   0  0  0  0  0  0  0  0  0  0  0  0
   19.0925   -6.9710  -15.7439 O   0  0  0  0  0  0  0  0  0  0  0  0
   20.3186   -7.9239  -12.4663 C   0  0  0  0  0  0  0  0  0  0  0  0
   21.2871   -6.7848  -12.6902 C   0  0  1  0  0  0  0  0  0  0  0  0
   22.6015   -7.2817  -12.6461 O   0  0  0  0  0  0  0  0  0  0  0  0
   21.0285   -6.1076  -14.0320 C   0  0  2  0  0  0  0  0  0  0  0  0
   21.2972   -7.0268  -15.1226 N   0  0  0  0  0  0  0  0  0  0  0  0
   21.8724   -4.8895  -14.1421 C   0  0  0  0  0  0  0  0  0  0  0  0
   22.7666   -4.8056  -15.0198 O   0  0  0  0  0  0  0  0  0  0  0  0
   21.7195   -3.7913  -13.2903 O   0  0  0  0  0  0  0  0  0  0  0  0
  2  1  1  1
  2  3  1  0
  3  4  1  0
  4  8  1  0
  5  4  2  0
  5  6  1  0
  6  7  1  0
  8  7  2  0
  9 10  2  0
  9  2  1  0
 11 12  1  0
 12 13  2  0
 12 14  1  0
 14 15  1  0
 16 15  1  6
 16 17  1  0
 17  9  1  0
 18 24  1  0
 18 16  1  0
 19 18  2  0
 21 20  1  6
 21 22  1  0
 21 23  1  0
 23 24  1  6
 23 25  1  0
 25 27  1  0
 26 25  2  0
M  END
$$$$
