HQT.pdb
     RDKit          3D

 27 27  0  0  1  0  0  0  0  0999 V2000
   16.4824  -12.1627  -14.8763 N   0  0  0  0  0  0  0  0  0  0  0  0
   17.6479  -11.3651  -15.2229 C   0  0  1  0  0  0  0  0  0  0  0  0
   17.7088  -11.3212  -16.7358 C   0  0  0  0  0  0  0  0  0  0  0  0
   17.9459  -12.6716  -17.3087 C   0  0  0  0  0  0  0  0  0  0  0  0
   17.0331  -13.5631  -17.8259 C   0  0  0  0  0  0  0  0  0  0  0  0
   17.6374  -14.6852  -18.2487 N   0  0  0  0  0  0  0  0  0  0  0  0
   18.9463  -14.5140  -18.0019 C   0  0  0  0  0  0  0  0  0  0  0  0
   19.1519  -13.2994  -17.4323 N   0  0  0  0  0  0  0  0  0  0  0  0
   17.5107  -10.0171  -14.6332 C   0  0  0  0  0  0  0  0  0  0  0  0
   16.3757   -9.5714  -14.3257 O   0  0  0  0  0  0  0  0  0  0  0  0
   16.9103   -8.2243   -9.7612 N   0  0  0  0  0  0  0  0  0  0  0  0
   17.3576   -6.9194  -10.2002 C   0  0  0  0  0  0  0  0  0  0  0  0
   17.2066   -5.9989   -9.3843 O   0  0  0  0  0  0  0  0  0  0  0  0
   17.9315   -6.8382  -11.5421 C   0  0  0  0  0  0  0  0  0  0  0  0
   17.9631   -8.1198  -12.2928 C   0  0  0  0  0  0  0  0  0  0  0  0
   18.5053   -7.9278  -13.6701 C   0  0  2  0  0  0  0  0  0  0  0  0
   18.6354   -9.1838  -14.3934 N   0  0  0  0  0  0  0  0  0  0  0  0
   19.8017   -7.1906  -13.6654 C   0  0  0  0  0  0  0  0  0  0  0  0
   20.8026   -7.7916  -13.2088 O   0  0  0  0  0  0  0  0  0  0  0  0
   22.6775   -3.7218  -15.6105 C   0  0  0  0  0  0  0  0  0  0  0  0
   21.2733   -4.2082  -15.3321 C   0  0  1  0  0  0  0  0  0  0  0  0
   20.6942   -4.6566  -16.5321 O   0  0  0  0  0  0  0  0  0  0  0  0
   21.2823   -5.3337  -14.3030 C   0  0  2  0  0  0  0  0  0  0  0  0
   19.9478   -5.8804  -14.1397 N   0  0  0  0  0  0  0  0  0  0  0  0
   21.8085   -4.8193  -13.0120 C   0  0  0  0  0  0  0  0  0  0  0  0
   21.1032   -4.0824  -12.2795 O   0  0  0  0  0  0  0  0  0  0  0  0
   23.0935   -5.1222  -12.5515 O   0  0  0  0  0  0  0  0  0  0  0  0
  2  1  1  6
  2  3  1  0
  3  4  1  0
  4  8  1  0
  5  4  2  0
  5  6  1  0
  6  7  1  0
  8  7  2  0
  9 10  2  0
  9  2  1  0
 11 12  1  0
 12 13  2  0
 12 14  1  0
 14 15  1  0
 16 15  1  1
 16 17  1  0
 17  9  1  0
 18 24  1  0
 18 16  1  0
 19 18  2  0
 21 20  1  6
 21 22  1  0
 21 23  1  0
 23 24  1  1
 23 25  1  0
 25 27  1  0
 26 25  2  0
M  END
$$$$
