HQT.pdb
     RDKit          3D

 27 27  0  0  1  0  0  0  0  0999 V2000
   13.1612   -7.7768  -10.2674 N   0  0  0  0  0  0  0  0  0  0  0  0
   14.5021   -8.1656   -9.8608 C   0  0  1  0  0  0  0  0  0  0  0  0
   14.7405   -9.5520  -10.4225 C   0  0  0  0  0  0  0  0  0  0  0  0
   13.8780  -10.5627   -9.7573 C   0  0  0  0  0  0  0  0  0  0  0  0
   12.9647  -10.3855   -8.7425 C   0  0  0  0  0  0  0  0  0  0  0  0
   12.3793  -11.5470   -8.4089 N   0  0  0  0  0  0  0  0  0  0  0  0
   12.9194  -12.4762   -9.2139 C   0  0  0  0  0  0  0  0  0  0  0  0
   13.8297  -11.8978  -10.0378 N   0  0  0  0  0  0  0  0  0  0  0  0
   15.4748   -7.1814  -10.3792 C   0  0  0  0  0  0  0  0  0  0  0  0
   15.5870   -6.9916  -11.6174 O   0  0  0  0  0  0  0  0  0  0  0  0
   16.9235   -1.7647   -7.7069 N   0  0  0  0  0  0  0  0  0  0  0  0
   17.7087   -1.7286   -8.9226 C   0  0  0  0  0  0  0  0  0  0  0  0
   18.2542   -0.6450   -9.1759 O   0  0  0  0  0  0  0  0  0  0  0  0
   17.7683   -2.9628   -9.7036 C   0  0  0  0  0  0  0  0  0  0  0  0
   16.9879   -4.0984   -9.1486 C   0  0  0  0  0  0  0  0  0  0  0  0
   17.0998   -5.3080  -10.0158 C   0  0  2  0  0  0  0  0  0  0  0  0
   16.3085   -6.4223   -9.5158 N   0  0  0  0  0  0  0  0  0  0  0  0
   18.5176   -5.7235  -10.2195 C   0  0  0  0  0  0  0  0  0  0  0  0
   19.1759   -6.0382   -9.2002 O   0  0  0  0  0  0  0  0  0  0  0  0
   20.0918   -8.6692  -11.8488 C   0  0  0  0  0  0  0  0  0  0  0  0
   20.6262   -7.4169  -12.5059 C   0  0  1  0  0  0  0  0  0  0  0  0
   19.9046   -7.1723  -13.6874 O   0  0  0  0  0  0  0  0  0  0  0  0
   20.5136   -6.2204  -11.5669 C   0  0  2  0  0  0  0  0  0  0  0  0
   19.1347   -5.7766  -11.4762 N   0  0  0  0  0  0  0  0  0  0  0  0
   21.3942   -5.1262  -12.0523 C   0  0  0  0  0  0  0  0  0  0  0  0
   20.9053   -4.0572  -12.4940 O   0  0  0  0  0  0  0  0  0  0  0  0
   22.7888   -5.2258  -12.0436 O   0  0  0  0  0  0  0  0  0  0  0  0
  2  1  1  6
  2  3  1  0
  3  4  1  0
  4  8  1  0
  5  4  2  0
  5  6  1  0
  6  7  1  0
  8  7  2  0
  9 10  2  0
  9  2  1  0
 11 12  1  0
 12 13  2  0
 12 14  1  0
 14 15  1  0
 16 15  1  1
 16 17  1  0
 17  9  1  0
 18 24  1  0
 18 16  1  0
 19 18  2  0
 21 20  1  1
 21 22  1  0
 21 23  1  0
 23 24  1  6
 23 25  1  0
 25 27  1  0
 26 25  2  0
M  END
$$$$
