HQT.pdb
     RDKit          3D

 27 27  0  0  1  0  0  0  0  0999 V2000
   22.4338  -12.7312  -17.6411 N   0  0  0  0  0  0  0  0  0  0  0  0
   22.7379  -11.8589  -16.5181 C   0  0  1  0  0  0  0  0  0  0  0  0
   24.2103  -11.5180  -16.6203 C   0  0  0  0  0  0  0  0  0  0  0  0
   25.0621  -12.7049  -16.3491 C   0  0  0  0  0  0  0  0  0  0  0  0
   25.9781  -13.3177  -17.1744 C   0  0  0  0  0  0  0  0  0  0  0  0
   26.5509  -14.3691  -16.5666 N   0  0  0  0  0  0  0  0  0  0  0  0
   26.0001  -14.4327  -15.3436 C   0  0  0  0  0  0  0  0  0  0  0  0
   25.0956  -13.4319  -15.1941 N   0  0  0  0  0  0  0  0  0  0  0  0
   21.8831  -10.6556  -16.5881 C   0  0  0  0  0  0  0  0  0  0  0  0
   21.5417  -10.1836  -17.7027 O   0  0  0  0  0  0  0  0  0  0  0  0
   16.9634  -11.9219  -14.8843 N   0  0  0  0  0  0  0  0  0  0  0  0
   17.1984  -10.4940  -14.8465 C   0  0  0  0  0  0  0  0  0  0  0  0
   16.3753   -9.8327  -14.1974 O   0  0  0  0  0  0  0  0  0  0  0  0
   18.3686  -10.0008  -15.5703 C   0  0  0  0  0  0  0  0  0  0  0  0
   19.2370   -9.0696  -14.8050 C   0  0  0  0  0  0  0  0  0  0  0  0
   20.5356   -8.8412  -15.5045 C   0  0  2  0  0  0  0  0  0  0  0  0
   21.4197   -9.9939  -15.4201 N   0  0  0  0  0  0  0  0  0  0  0  0
   21.2283   -7.6142  -15.0157 C   0  0  0  0  0  0  0  0  0  0  0  0
   21.8924   -7.7127  -13.9571 O   0  0  0  0  0  0  0  0  0  0  0  0
   23.7840   -5.2841  -16.6931 C   0  0  0  0  0  0  0  0  0  0  0  0
   22.6164   -4.4735  -16.1778 C   0  0  1  0  0  0  0  0  0  0  0  0
   21.7568   -4.1710  -17.2483 O   0  0  0  0  0  0  0  0  0  0  0  0
   21.8583   -5.2387  -15.0982 C   0  0  2  0  0  0  0  0  0  0  0  0
   21.1706   -6.3793  -15.6749 N   0  0  0  0  0  0  0  0  0  0  0  0
   20.9001   -4.3244  -14.4243 C   0  0  0  0  0  0  0  0  0  0  0  0
   19.6618   -4.4669  -14.5765 O   0  0  0  0  0  0  0  0  0  0  0  0
   21.3177   -3.2754  -13.5995 O   0  0  0  0  0  0  0  0  0  0  0  0
  2  1  1  6
  2  3  1  0
  3  4  1  0
  4  8  1  0
  5  4  2  0
  5  6  1  0
  6  7  1  0
  8  7  2  0
  9 10  2  0
  9  2  1  0
 11 12  1  0
 12 13  2  0
 12 14  1  0
 14 15  1  0
 16 15  1  1
 16 17  1  0
 17  9  1  0
 18 24  1  0
 18 16  1  0
 19 18  2  0
 21 20  1  6
 21 22  1  0
 21 23  1  0
 23 24  1  6
 23 25  1  0
 25 27  1  0
 26 25  2  0
M  END
$$$$
