HQT.pdb
     RDKit          3D

 27 27  0  0  1  0  0  0  0  0999 V2000
   13.3926  -11.2644  -12.3958 N   0  0  0  0  0  0  0  0  0  0  0  0
   14.5447  -11.0959  -11.5246 C   0  0  1  0  0  0  0  0  0  0  0  0
   15.4674  -12.2664  -11.7949 C   0  0  0  0  0  0  0  0  0  0  0  0
   14.9024  -13.5357  -11.2684 C   0  0  0  0  0  0  0  0  0  0  0  0
   13.7196  -13.7409  -10.5943 C   0  0  0  0  0  0  0  0  0  0  0  0
   13.5587  -15.0367  -10.2808 N   0  0  0  0  0  0  0  0  0  0  0  0
   14.6444  -15.6681  -10.7562 C   0  0  0  0  0  0  0  0  0  0  0  0
   15.4696  -14.7743  -11.3578 N   0  0  0  0  0  0  0  0  0  0  0  0
   15.1919   -9.7997  -11.8151 C   0  0  0  0  0  0  0  0  0  0  0  0
   15.2534   -9.3716  -12.9960 O   0  0  0  0  0  0  0  0  0  0  0  0
   15.5543   -4.7088   -8.1622 N   0  0  0  0  0  0  0  0  0  0  0  0
   16.2331   -4.2963   -9.3724 C   0  0  0  0  0  0  0  0  0  0  0  0
   16.5418   -3.0974   -9.4314 O   0  0  0  0  0  0  0  0  0  0  0  0
   16.4752   -5.3313  -10.3759 C   0  0  0  0  0  0  0  0  0  0  0  0
   15.9991   -6.6895  -10.0080 C   0  0  0  0  0  0  0  0  0  0  0  0
   16.3114   -7.6816  -11.0786 C   0  0  2  0  0  0  0  0  0  0  0  0
   15.7613   -8.9977  -10.7907 N   0  0  0  0  0  0  0  0  0  0  0  0
   17.7753   -7.7744  -11.3481 C   0  0  0  0  0  0  0  0  0  0  0  0
   18.4899   -8.3016  -10.4634 O   0  0  0  0  0  0  0  0  0  0  0  0
   21.5180   -8.6377  -14.1520 C   0  0  0  0  0  0  0  0  0  0  0  0
   20.0387   -8.4208  -13.9282 C   0  0  1  0  0  0  0  0  0  0  0  0
   19.4148   -9.6652  -13.7313 O   0  0  0  0  0  0  0  0  0  0  0  0
   19.7981   -7.5183  -12.7226 C   0  0  2  0  0  0  0  0  0  0  0  0
   18.3759   -7.3072  -12.5245 N   0  0  0  0  0  0  0  0  0  0  0  0
   20.5052   -6.2267  -12.9226 C   0  0  0  0  0  0  0  0  0  0  0  0
   19.9499   -5.2785  -13.5303 O   0  0  0  0  0  0  0  0  0  0  0  0
   21.8031   -6.0015  -12.4538 O   0  0  0  0  0  0  0  0  0  0  0  0
  2  1  1  6
  2  3  1  0
  3  4  1  0
  4  8  1  0
  5  4  2  0
  5  6  1  0
  6  7  1  0
  8  7  2  0
  9 10  2  0
  9  2  1  0
 11 12  1  0
 12 13  2  0
 12 14  1  0
 14 15  1  0
 16 15  1  1
 16 17  1  0
 17  9  1  0
 18 24  1  0
 18 16  1  0
 19 18  2  0
 21 20  1  1
 21 22  1  0
 21 23  1  0
 23 24  1  6
 23 25  1  0
 25 27  1  0
 26 25  2  0
M  END
$$$$
