HQT.pdb
     RDKit          3D

 27 27  0  0  1  0  0  0  0  0999 V2000
   28.0550  -21.4310  -15.7504 N   0  0  0  0  0  0  0  0  0  0  0  0
   27.1567  -20.3571  -15.3576 C   0  0  1  0  0  0  0  0  0  0  0  0
   26.7981  -19.6070  -16.6238 C   0  0  0  0  0  0  0  0  0  0  0  0
   27.9646  -18.8592  -17.1603 C   0  0  0  0  0  0  0  0  0  0  0  0
   28.4672  -17.6409  -16.7622 C   0  0  0  0  0  0  0  0  0  0  0  0
   29.5381  -17.2954  -17.4949 N   0  0  0  0  0  0  0  0  0  0  0  0
   29.7251  -18.2975  -18.3691 C   0  0  0  0  0  0  0  0  0  0  0  0
   28.7808  -19.2540  -18.1810 N   0  0  0  0  0  0  0  0  0  0  0  0
   25.9668  -20.9322  -14.6967 C   0  0  0  0  0  0  0  0  0  0  0  0
   25.3996  -21.9451  -15.1803 O   0  0  0  0  0  0  0  0  0  0  0  0
   24.8673  -20.8484   -8.5962 N   0  0  0  0  0  0  0  0  0  0  0  0
   26.0541  -21.0228   -9.4066 C   0  0  0  0  0  0  0  0  0  0  0  0
   27.1214  -21.1065   -8.7824 O   0  0  0  0  0  0  0  0  0  0  0  0
   25.8590  -21.0808  -10.8541 C   0  0  0  0  0  0  0  0  0  0  0  0
   24.4619  -20.8660  -11.3110 C   0  0  0  0  0  0  0  0  0  0  0  0
   24.3436  -21.0329  -12.7896 C   0  0  2  0  0  0  0  0  0  0  0  0
   25.4238  -20.3745  -13.5088 N   0  0  0  0  0  0  0  0  0  0  0  0
   23.0197  -20.5758  -13.3019 C   0  0  0  0  0  0  0  0  0  0  0  0
   22.8637  -19.3436  -13.4715 O   0  0  0  0  0  0  0  0  0  0  0  0
   21.1664  -21.5871  -16.4640 C   0  0  0  0  0  0  0  0  0  0  0  0
   20.2211  -21.7148  -15.2911 C   0  0  1  0  0  0  0  0  0  0  0  0
   20.1106  -23.0698  -14.9332 O   0  0  0  0  0  0  0  0  0  0  0  0
   20.7170  -20.8984  -14.1022 C   0  0  2  0  0  0  0  0  0  0  0  0
   21.9622  -21.4464  -13.5965 N   0  0  0  0  0  0  0  0  0  0  0  0
   19.6740  -20.8818  -13.0440 C   0  0  0  0  0  0  0  0  0  0  0  0
   19.8490  -21.4927  -11.9608 O   0  0  0  0  0  0  0  0  0  0  0  0
   18.4637  -20.1979  -13.1941 O   0  0  0  0  0  0  0  0  0  0  0  0
  2  1  1  6
  2  3  1  0
  3  4  1  0
  4  8  1  0
  5  4  2  0
  5  6  1  0
  6  7  1  0
  8  7  2  0
  9 10  2  0
  9  2  1  0
 11 12  1  0
 12 13  2  0
 12 14  1  0
 14 15  1  0
 16 15  1  1
 16 17  1  0
 17  9  1  0
 18 24  1  0
 18 16  1  0
 19 18  2  0
 21 20  1  6
 21 22  1  0
 21 23  1  0
 23 24  1  1
 23 25  1  0
 25 27  1  0
 26 25  2  0
M  END
$$$$
