HQT.pdb
     RDKit          3D

 27 27  0  0  1  0  0  0  0  0999 V2000
   23.7127  -13.6816  -16.8070 N   0  0  0  0  0  0  0  0  0  0  0  0
   24.2575  -12.4623  -16.2317 C   0  0  1  0  0  0  0  0  0  0  0  0
   25.6443  -12.2893  -16.8159 C   0  0  0  0  0  0  0  0  0  0  0  0
   26.5564  -13.3783  -16.3801 C   0  0  0  0  0  0  0  0  0  0  0  0
   26.2883  -14.4561  -15.5666 C   0  0  0  0  0  0  0  0  0  0  0  0
   27.3778  -15.2240  -15.4045 N   0  0  0  0  0  0  0  0  0  0  0  0
   28.3520  -14.6365  -16.1179 C   0  0  0  0  0  0  0  0  0  0  0  0
   27.8724  -13.5165  -16.7160 N   0  0  0  0  0  0  0  0  0  0  0  0
   23.3704  -11.3274  -16.5613 C   0  0  0  0  0  0  0  0  0  0  0  0
   22.9725  -11.1548  -17.7418 O   0  0  0  0  0  0  0  0  0  0  0  0
   17.9950  -10.0516  -14.6958 N   0  0  0  0  0  0  0  0  0  0  0  0
   18.2764   -8.8005  -15.3676 C   0  0  0  0  0  0  0  0  0  0  0  0
   17.3127   -8.0315  -15.4935 O   0  0  0  0  0  0  0  0  0  0  0  0
   19.6518   -8.5894  -15.8150 C   0  0  0  0  0  0  0  0  0  0  0  0
   20.5966   -9.6884  -15.4887 C   0  0  0  0  0  0  0  0  0  0  0  0
   21.9905   -9.3436  -15.8960 C   0  0  2  0  0  0  0  0  0  0  0  0
   22.9379  -10.4007  -15.5758 N   0  0  0  0  0  0  0  0  0  0  0  0
   22.4400   -8.0454  -15.3156 C   0  0  0  0  0  0  0  0  0  0  0  0
   22.9817   -8.0783  -14.1856 O   0  0  0  0  0  0  0  0  0  0  0  0
   22.9781   -3.1295  -15.4776 C   0  0  0  0  0  0  0  0  0  0  0  0
   22.5842   -4.3986  -16.1986 C   0  0  1  0  0  0  0  0  0  0  0  0
   23.4664   -4.6117  -17.2724 O   0  0  0  0  0  0  0  0  0  0  0  0
   22.6149   -5.5935  -15.2513 C   0  0  2  0  0  0  0  0  0  0  0  0
   22.2866   -6.8136  -15.9653 N   0  0  0  0  0  0  0  0  0  0  0  0
   21.6670   -5.3608  -14.1308 C   0  0  0  0  0  0  0  0  0  0  0  0
   20.4494   -5.6434  -14.2512 O   0  0  0  0  0  0  0  0  0  0  0  0
   22.0720   -4.8245  -12.9046 O   0  0  0  0  0  0  0  0  0  0  0  0
  2  1  1  6
  2  3  1  0
  3  4  1  0
  4  8  1  0
  5  4  2  0
  5  6  1  0
  6  7  1  0
  8  7  2  0
  9 10  2  0
  9  2  1  0
 11 12  1  0
 12 13  2  0
 12 14  1  0
 14 15  1  0
 16 15  1  1
 16 17  1  0
 17  9  1  0
 18 24  1  0
 18 16  1  0
 19 18  2  0
 21 20  1  1
 21 22  1  0
 21 23  1  0
 23 24  1  6
 23 25  1  0
 25 27  1  0
 26 25  2  0
M  END
$$$$
