HQT.pdb
     RDKit          3D

 27 27  0  0  1  0  0  0  0  0999 V2000
   17.8781  -12.0084  -17.1635 N   0  0  0  0  0  0  0  0  0  0  0  0
   19.0272  -11.6870  -16.3325 C   0  0  1  0  0  0  0  0  0  0  0  0
   20.2484  -11.7895  -17.2230 C   0  0  0  0  0  0  0  0  0  0  0  0
   20.4676  -13.1847  -17.6846 C   0  0  0  0  0  0  0  0  0  0  0  0
   20.5846  -14.3342  -16.9360 C   0  0  0  0  0  0  0  0  0  0  0  0
   20.7778  -15.4064  -17.7209 N   0  0  0  0  0  0  0  0  0  0  0  0
   20.7850  -14.9435  -18.9815 C   0  0  0  0  0  0  0  0  0  0  0  0
   20.5985  -13.5992  -18.9788 N   0  0  0  0  0  0  0  0  0  0  0  0
   18.8609  -10.3298  -15.7720 C   0  0  0  0  0  0  0  0  0  0  0  0
   18.4335   -9.3930  -16.4939 O   0  0  0  0  0  0  0  0  0  0  0  0
   17.1583   -8.6968   -9.9980 N   0  0  0  0  0  0  0  0  0  0  0  0
   17.3492   -7.4190  -10.6510 C   0  0  0  0  0  0  0  0  0  0  0  0
   16.9406   -6.4309  -10.0244 O   0  0  0  0  0  0  0  0  0  0  0  0
   17.9968   -7.4405  -11.9613 C   0  0  0  0  0  0  0  0  0  0  0  0
   18.2590   -8.7948  -12.5127 C   0  0  0  0  0  0  0  0  0  0  0  0
   18.9094   -8.7172  -13.8539 C   0  0  2  0  0  0  0  0  0  0  0  0
   19.1715  -10.0326  -14.4185 N   0  0  0  0  0  0  0  0  0  0  0  0
   20.1580   -7.9021  -13.8260 C   0  0  0  0  0  0  0  0  0  0  0  0
   21.2061   -8.4699  -13.4380 O   0  0  0  0  0  0  0  0  0  0  0  0
   23.0893   -4.5228  -15.5731 C   0  0  0  0  0  0  0  0  0  0  0  0
   21.8045   -5.3195  -15.5884 C   0  0  1  0  0  0  0  0  0  0  0  0
   21.9275   -6.3751  -16.5088 O   0  0  0  0  0  0  0  0  0  0  0  0
   21.4896   -5.8691  -14.2010 C   0  0  2  0  0  0  0  0  0  0  0  0
   20.2104   -6.5549  -14.2071 N   0  0  0  0  0  0  0  0  0  0  0  0
   21.4925   -4.7566  -13.2159 C   0  0  0  0  0  0  0  0  0  0  0  0
   20.4505   -4.0912  -12.9962 O   0  0  0  0  0  0  0  0  0  0  0  0
   22.6345   -4.3971  -12.4936 O   0  0  0  0  0  0  0  0  0  0  0  0
  2  1  1  6
  2  3  1  0
  3  4  1  0
  4  8  1  0
  5  4  2  0
  5  6  1  0
  6  7  1  0
  8  7  2  0
  9 10  2  0
  9  2  1  0
 11 12  1  0
 12 13  2  0
 12 14  1  0
 14 15  1  0
 16 15  1  1
 16 17  1  0
 17  9  1  0
 18 24  1  0
 18 16  1  0
 19 18  2  0
 21 20  1  1
 21 22  1  0
 21 23  1  0
 23 24  1  6
 23 25  1  0
 25 27  1  0
 26 25  2  0
M  END
$$$$
