RCM.pdb
     RDKit          3D

 26 25  0  0  1  0  0  0  0  0999 V2000
    8.3303  -13.1410   16.9197 N   0  0  0  0  0  0  0  0  0  0  0  0
    8.6084  -13.1202   18.3098 C   0  0  0  0  0  0  0  0  0  0  0  0
    8.7792  -12.0076   18.9765 N   0  0  0  0  0  0  0  0  0  0  0  0
    8.7227  -14.3035   19.0890 N   0  0  0  0  0  0  0  0  0  0  0  0
    8.1885  -15.5649   18.6195 C   0  0  0  0  0  0  0  0  0  0  0  0
    6.7408  -15.6042   19.0584 C   0  0  0  0  0  0  0  0  0  0  0  0
    6.5282  -16.7211   20.0049 C   0  0  0  0  0  0  0  0  0  0  0  0
    7.7353  -16.9029   20.8920 C   0  0  2  0  0  0  0  0  0  0  0  0
    8.3563  -18.1934   20.6899 N   0  0  0  0  0  0  0  0  0  0  0  0
    7.2637  -16.8562   22.3144 C   0  0  0  0  0  0  0  0  0  0  0  0
    6.6687  -15.7988   22.7206 O   0  0  0  0  0  0  0  0  0  0  0  0
    9.1008  -12.1241   19.9785 N   0  0  0  0  0  0  0  0  0  0  0  0
    7.4563  -17.9351   23.2051 C   0  0  2  0  0  0  0  0  0  0  0  0
    7.1209  -17.7467   24.6034 C   0  0  0  0  0  0  0  0  0  0  0  0
    7.0844  -19.1214   25.2440 S   0  0  0  0  0  0  0  0  0  0  0  0
    8.4677  -19.4312   26.3412 C   0  0  0  0  0  0  0  0  0  0  0  0
    8.1020  -16.8562   25.2803 O   0  0  0  0  0  0  0  0  0  0  0  0
    9.3147  -16.8429   24.8994 C   0  0  0  0  0  0  0  0  0  0  0  0
    7.3687  -10.5017   25.7085 S   0  0  0  0  0  0  0  0  0  0  0  0
    6.4814  -11.7434   26.6481 C   0  0  0  0  0  0  0  0  0  0  0  0
    7.0201  -13.4403   26.2540 C   0  0  0  0  0  0  0  0  0  0  0  0
    8.1291  -13.7741   27.1889 C   0  0  2  0  0  0  0  0  0  0  0  0
    8.7344  -15.1339   27.0101 N   0  0  0  0  0  0  0  0  0  0  0  0
    7.7548  -16.0075   26.3436 C   0  0  0  0  0  0  0  0  0  0  0  0
    9.1839  -15.7855   28.2416 O   0  0  0  0  0  0  0  0  0  0  0  0
    8.6734  -16.9952   28.6923 O   0  0  0  0  0  0  0  0  0  0  0  0
  2  1  1  0
  3  2  2  0
  4  2  1  0
  5  4  1  0
  6  5  1  0
  7  6  1  0
  8  7  1  0
  8  9  1  6
 10  8  1  0
 10 11  2  0
 12 10  1  0
 13 12  1  0
 13 14  1  6
 15 14  1  0
 16 13  1  0
 17 16  2  0
 19 18  1  0
 20 21  1  0
 20 19  1  0
 22 21  1  6
 22 23  1  0
 22 24  1  0
 23 16  1  0
 24 26  2  0
 24 25  1  0
M  END
$$$$
