RCM.pdb
     RDKit          3D

 26 25  0  0  1  0  0  0  0  0999 V2000
   11.0919  -15.9868   12.9774 N   0  0  0  0  0  0  0  0  0  0  0  0
    9.7001  -16.1597   13.1852 C   0  0  0  0  0  0  0  0  0  0  0  0
    8.8168  -15.2714   12.8081 N   0  0  0  0  0  0  0  0  0  0  0  0
    9.1540  -17.3097   13.8174 N   0  0  0  0  0  0  0  0  0  0  0  0
    9.6840  -17.7976   15.0735 C   0  0  0  0  0  0  0  0  0  0  0  0
    9.1085  -16.9071   16.1533 C   0  0  0  0  0  0  0  0  0  0  0  0
   10.1980  -16.3479   16.9833 C   0  0  0  0  0  0  0  0  0  0  0  0
   10.1844  -16.9617   18.3617 C   0  0  2  0  0  0  0  0  0  0  0  0
    9.1686  -17.9845   18.4802 N   0  0  0  0  0  0  0  0  0  0  0  0
    9.8373  -15.8775   19.3373 C   0  0  0  0  0  0  0  0  0  0  0  0
   10.5540  -14.8176   19.3450 O   0  0  0  0  0  0  0  0  0  0  0  0
    7.8052  -15.5447   12.9602 N   0  0  0  0  0  0  0  0  0  0  0  0
    8.7536  -15.9944   20.2354 C   0  0  1  0  0  0  0  0  0  0  0  0
    8.6041  -14.9930   21.2737 C   0  0  0  0  0  0  0  0  0  0  0  0
    7.1996  -14.4319   21.1554 S   0  0  0  0  0  0  0  0  0  0  0  0
    5.9293  -15.5764   21.6939 C   0  0  0  0  0  0  0  0  0  0  0  0
    8.8478  -15.5712   22.6228 O   0  0  0  0  0  0  0  0  0  0  0  0
    8.4205  -16.7358   22.9003 C   0  0  0  0  0  0  0  0  0  0  0  0
    6.0296  -11.2058   27.6204 S   0  0  0  0  0  0  0  0  0  0  0  0
    7.2510  -11.8669   26.4878 C   0  0  0  0  0  0  0  0  0  0  0  0
    6.8288  -13.5397   25.8977 C   0  0  0  0  0  0  0  0  0  0  0  0
    7.6583  -13.7982   24.6891 C   0  0  1  0  0  0  0  0  0  0  0  0
    8.9281  -14.5577   24.9304 N   0  0  0  0  0  0  0  0  0  0  0  0
    9.5412  -14.8853   23.6328 C   0  0  0  0  0  0  0  0  0  0  0  0
    8.7818  -15.7907   25.7059 O   0  0  0  0  0  0  0  0  0  0  0  0
    9.2900  -15.9477   26.9882 O   0  0  0  0  0  0  0  0  0  0  0  0
  2  1  1  0
  3  2  2  0
  4  2  1  0
  5  4  1  0
  6  5  1  0
  7  6  1  0
  8  7  1  0
  8  9  1  6
 10  8  1  0
 10 11  2  0
 12 10  1  0
 13 12  1  0
 13 14  1  1
 15 14  1  0
 16 13  1  0
 17 16  2  0
 19 18  1  0
 20 21  1  0
 20 19  1  0
 22 21  1  1
 22 23  1  0
 22 24  1  0
 23 16  1  0
 24 26  2  0
 24 25  1  0
M  END
$$$$
