RCM.pdb
     RDKit          3D

 26 25  0  0  1  0  0  0  0  0999 V2000
    9.5004  -13.3596   18.7474 N   0  0  0  0  0  0  0  0  0  0  0  0
    8.5163  -12.4804   19.2660 C   0  0  0  0  0  0  0  0  0  0  0  0
    8.5621  -11.1860   19.0817 N   0  0  0  0  0  0  0  0  0  0  0  0
    7.4033  -12.9338   20.0249 N   0  0  0  0  0  0  0  0  0  0  0  0
    7.4121  -14.2318   20.6667 C   0  0  0  0  0  0  0  0  0  0  0  0
    7.8545  -15.2246   19.6138 C   0  0  0  0  0  0  0  0  0  0  0  0
    7.2337  -16.5433   19.8676 C   0  0  0  0  0  0  0  0  0  0  0  0
    8.2298  -17.4877   20.4944 C   0  0  2  0  0  0  0  0  0  0  0  0
    8.0155  -18.8517   20.0642 N   0  0  0  0  0  0  0  0  0  0  0  0
    8.0162  -17.4523   21.9780 C   0  0  0  0  0  0  0  0  0  0  0  0
    8.1208  -16.3273   22.5782 O   0  0  0  0  0  0  0  0  0  0  0  0
    7.8027  -10.6315   19.5686 N   0  0  0  0  0  0  0  0  0  0  0  0
    7.7060  -18.6135   22.7197 C   0  0  1  0  0  0  0  0  0  0  0  0
    7.5443  -18.4946   24.1560 C   0  0  0  0  0  0  0  0  0  0  0  0
    7.1498  -19.8639   24.6767 S   0  0  0  0  0  0  0  0  0  0  0  0
    5.3927  -20.1943   24.5472 C   0  0  0  0  0  0  0  0  0  0  0  0
    8.7914  -18.0046   24.8027 O   0  0  0  0  0  0  0  0  0  0  0  0
    9.9229  -18.3046   24.3071 C   0  0  0  0  0  0  0  0  0  0  0  0
   10.3890  -13.7094   30.8312 S   0  0  0  0  0  0  0  0  0  0  0  0
   10.1616  -13.4646   29.0705 C   0  0  0  0  0  0  0  0  0  0  0  0
   10.8393  -14.8355   28.0775 C   0  0  0  0  0  0  0  0  0  0  0  0
    9.6984  -15.4481   27.3436 C   0  0  1  0  0  0  0  0  0  0  0  0
   10.0260  -16.6837   26.5604 N   0  0  0  0  0  0  0  0  0  0  0  0
    8.7890  -17.2087   25.9593 C   0  0  0  0  0  0  0  0  0  0  0  0
   10.6697  -17.7552   27.3225 O   0  0  0  0  0  0  0  0  0  0  0  0
   12.0439  -17.8442   27.4979 O   0  0  0  0  0  0  0  0  0  0  0  0
  2  1  1  0
  3  2  2  0
  4  2  1  0
  5  4  1  0
  6  5  1  0
  7  6  1  0
  8  7  1  0
  8  9  1  6
 10  8  1  0
 10 11  2  0
 12 10  1  0
 13 12  1  0
 13 14  1  1
 15 14  1  0
 16 13  1  0
 17 16  2  0
 19 18  1  0
 20 21  1  0
 20 19  1  0
 22 21  1  6
 22 23  1  0
 22 24  1  0
 23 16  1  0
 24 26  2  0
 24 25  1  0
M  END
$$$$
