RCM.pdb
     RDKit          3D

 26 25  0  0  1  0  0  0  0  0999 V2000
    7.8310  -15.8024   15.1517 N   0  0  0  0  0  0  0  0  0  0  0  0
    7.8605  -14.6521   15.9801 C   0  0  0  0  0  0  0  0  0  0  0  0
    7.3618  -13.5022   15.6051 N   0  0  0  0  0  0  0  0  0  0  0  0
    8.4320  -14.6561   17.2815 N   0  0  0  0  0  0  0  0  0  0  0  0
    7.6128  -14.8516   18.4595 C   0  0  0  0  0  0  0  0  0  0  0  0
    8.0884  -16.1373   19.1005 C   0  0  0  0  0  0  0  0  0  0  0  0
    7.9862  -16.0377   20.5730 C   0  0  0  0  0  0  0  0  0  0  0  0
    8.8092  -14.8815   21.0857 C   0  0  2  0  0  0  0  0  0  0  0  0
   10.1784  -14.9560   20.6258 N   0  0  0  0  0  0  0  0  0  0  0  0
    8.8387  -14.9745   22.5818 C   0  0  0  0  0  0  0  0  0  0  0  0
    9.9416  -15.2926   23.1471 O   0  0  0  0  0  0  0  0  0  0  0  0
    7.3542  -12.7474   16.3476 N   0  0  0  0  0  0  0  0  0  0  0  0
    7.6959  -14.7224   23.3724 C   0  0  1  0  0  0  0  0  0  0  0  0
    7.8384  -13.8850   24.5478 C   0  0  0  0  0  0  0  0  0  0  0  0
    6.4564  -13.7238   25.1526 S   0  0  0  0  0  0  0  0  0  0  0  0
    6.4650  -12.8661   26.7267 C   0  0  0  0  0  0  0  0  0  0  0  0
    8.7936  -14.4777   25.5225 O   0  0  0  0  0  0  0  0  0  0  0  0
    9.2012  -13.7889   26.5100 C   0  0  0  0  0  0  0  0  0  0  0  0
   10.5147  -13.5868   29.4341 S   0  0  0  0  0  0  0  0  0  0  0  0
   11.4955  -15.0692   29.2054 C   0  0  0  0  0  0  0  0  0  0  0  0
   10.4726  -16.5498   28.9116 C   0  0  0  0  0  0  0  0  0  0  0  0
    9.5730  -16.2384   27.7674 C   0  0  2  0  0  0  0  0  0  0  0  0
   10.1874  -16.3835   26.4076 N   0  0  0  0  0  0  0  0  0  0  0  0
    9.2827  -15.7890   25.4101 C   0  0  0  0  0  0  0  0  0  0  0  0
   10.4955  -17.7565   26.0036 O   0  0  0  0  0  0  0  0  0  0  0  0
   11.4788  -18.5256   26.6108 O   0  0  0  0  0  0  0  0  0  0  0  0
  2  1  1  0
  3  2  2  0
  4  2  1  0
  5  4  1  0
  6  5  1  0
  7  6  1  0
  8  7  1  0
  8  9  1  6
 10  8  1  0
 10 11  2  0
 12 10  1  0
 13 12  1  0
 13 14  1  1
 15 14  1  0
 16 13  1  0
 17 16  2  0
 19 18  1  0
 20 21  1  0
 20 19  1  0
 22 21  1  1
 22 23  1  0
 22 24  1  0
 23 16  1  0
 24 26  2  0
 24 25  1  0
M  END
$$$$
