RCM.pdb
     RDKit          3D

 26 25  0  0  1  0  0  0  0  0999 V2000
    8.2059  -13.3108   17.3017 N   0  0  0  0  0  0  0  0  0  0  0  0
    7.9677  -12.8504   18.6214 C   0  0  0  0  0  0  0  0  0  0  0  0
    7.4962  -11.6569   18.8757 N   0  0  0  0  0  0  0  0  0  0  0  0
    8.2205  -13.6470   19.7711 N   0  0  0  0  0  0  0  0  0  0  0  0
    8.8674  -14.9379   19.6614 C   0  0  0  0  0  0  0  0  0  0  0  0
    7.7720  -15.9750   19.7825 C   0  0  0  0  0  0  0  0  0  0  0  0
    7.9326  -16.7375   21.0400 C   0  0  0  0  0  0  0  0  0  0  0  0
    9.3943  -16.9297   21.3618 C   0  0  2  0  0  0  0  0  0  0  0  0
    9.9808  -17.9870   20.5681 N   0  0  0  0  0  0  0  0  0  0  0  0
    9.4909  -17.3485   22.7982 C   0  0  0  0  0  0  0  0  0  0  0  0
    8.9255  -16.6160   23.6818 O   0  0  0  0  0  0  0  0  0  0  0  0
    7.4695  -11.3885   19.8996 N   0  0  0  0  0  0  0  0  0  0  0  0
   10.1802  -18.5155   23.1952 C   0  0  2  0  0  0  0  0  0  0  0  0
   10.2866  -18.8084   24.6116 C   0  0  0  0  0  0  0  0  0  0  0  0
   11.0557  -20.1094   24.7430 S   0  0  0  0  0  0  0  0  0  0  0  0
   12.7971  -19.9485   24.3490 C   0  0  0  0  0  0  0  0  0  0  0  0
   10.9589  -17.7018   25.3444 O   0  0  0  0  0  0  0  0  0  0  0  0
   11.3055  -16.6482   24.7232 C   0  0  0  0  0  0  0  0  0  0  0  0
    8.4704  -11.8708   27.3085 S   0  0  0  0  0  0  0  0  0  0  0  0
    8.4918  -13.6189   27.7027 C   0  0  0  0  0  0  0  0  0  0  0  0
    9.8543  -14.5080   26.8793 C   0  0  0  0  0  0  0  0  0  0  0  0
    9.7709  -15.9301   27.3107 C   0  0  2  0  0  0  0  0  0  0  0  0
   11.0836  -16.5915   27.6050 N   0  0  0  0  0  0  0  0  0  0  0  0
   11.2392  -17.7568   26.7191 C   0  0  0  0  0  0  0  0  0  0  0  0
   11.2683  -17.0263   28.9906 O   0  0  0  0  0  0  0  0  0  0  0  0
   12.0089  -16.3095   29.9206 O   0  0  0  0  0  0  0  0  0  0  0  0
  2  1  1  0
  3  2  2  0
  4  2  1  0
  5  4  1  0
  6  5  1  0
  7  6  1  0
  8  7  1  0
  8  9  1  6
 10  8  1  0
 10 11  2  0
 12 10  1  0
 13 12  1  0
 13 14  1  6
 15 14  1  0
 16 13  1  0
 17 16  2  0
 19 18  1  0
 20 21  1  0
 20 19  1  0
 22 21  1  6
 22 23  1  0
 22 24  1  0
 23 16  1  0
 24 26  2  0
 24 25  1  0
M  END
$$$$
