RCM.pdb
     RDKit          3D

 26 25  0  0  1  0  0  0  0  0999 V2000
   10.2991  -13.7469   19.4665 N   0  0  0  0  0  0  0  0  0  0  0  0
    9.2561  -12.8208   19.2117 C   0  0  0  0  0  0  0  0  0  0  0  0
    9.4762  -11.5421   19.0443 N   0  0  0  0  0  0  0  0  0  0  0  0
    7.8914  -13.2064   19.1170 N   0  0  0  0  0  0  0  0  0  0  0  0
    7.5107  -14.6006   19.0262 C   0  0  0  0  0  0  0  0  0  0  0  0
    8.0580  -15.2731   20.2665 C   0  0  0  0  0  0  0  0  0  0  0  0
    6.9951  -16.0637   20.9254 C   0  0  0  0  0  0  0  0  0  0  0  0
    7.4511  -17.4846   21.1490 C   0  0  2  0  0  0  0  0  0  0  0  0
    6.3729  -18.4282   20.9517 N   0  0  0  0  0  0  0  0  0  0  0  0
    7.8859  -17.6014   22.5791 C   0  0  0  0  0  0  0  0  0  0  0  0
    6.9829  -17.6943   23.4808 O   0  0  0  0  0  0  0  0  0  0  0  0
    8.6098  -10.9430   18.9368 N   0  0  0  0  0  0  0  0  0  0  0  0
    9.2482  -17.6121   22.9511 C   0  0  2  0  0  0  0  0  0  0  0  0
    9.5801  -17.6722   24.3616 C   0  0  0  0  0  0  0  0  0  0  0  0
   10.8571  -18.4816   24.4867 S   0  0  0  0  0  0  0  0  0  0  0  0
   12.2704  -17.7050   23.7039 C   0  0  0  0  0  0  0  0  0  0  0  0
    9.7397  -16.3103   24.9389 O   0  0  0  0  0  0  0  0  0  0  0  0
   10.0796  -15.3402   24.1910 C   0  0  0  0  0  0  0  0  0  0  0  0
    5.5995  -12.9323   26.6169 S   0  0  0  0  0  0  0  0  0  0  0  0
    6.8929  -11.7737   27.0602 C   0  0  0  0  0  0  0  0  0  0  0  0
    8.4606  -12.6010   27.4878 C   0  0  0  0  0  0  0  0  0  0  0  0
    8.4480  -13.9314   26.8204 C   0  0  1  0  0  0  0  0  0  0  0  0
    9.7409  -14.6885   26.8698 N   0  0  0  0  0  0  0  0  0  0  0  0
    9.5303  -16.0287   26.2984 C   0  0  0  0  0  0  0  0  0  0  0  0
   10.3309  -14.8327   28.2018 O   0  0  0  0  0  0  0  0  0  0  0  0
   10.8719  -13.7705   28.9133 O   0  0  0  0  0  0  0  0  0  0  0  0
  2  1  1  0
  3  2  2  0
  4  2  1  0
  5  4  1  0
  6  5  1  0
  7  6  1  0
  8  7  1  0
  8  9  1  1
 10  8  1  0
 10 11  2  0
 12 10  1  0
 13 12  1  0
 13 14  1  6
 15 14  1  0
 16 13  1  0
 17 16  2  0
 19 18  1  0
 20 21  1  0
 20 19  1  0
 22 21  1  6
 22 23  1  0
 22 24  1  0
 23 16  1  0
 24 26  2  0
 24 25  1  0
M  END
$$$$
