RCM.pdb
     RDKit          3D

 26 25  0  0  1  0  0  0  0  0999 V2000
   11.9528  -18.7122   19.2667 N   0  0  0  0  0  0  0  0  0  0  0  0
   11.8427  -18.9687   17.8766 C   0  0  0  0  0  0  0  0  0  0  0  0
   12.8813  -19.2287   17.1249 N   0  0  0  0  0  0  0  0  0  0  0  0
   10.5981  -18.9649   17.1902 N   0  0  0  0  0  0  0  0  0  0  0  0
    9.4706  -18.2033   17.6860 C   0  0  0  0  0  0  0  0  0  0  0  0
    9.2964  -18.5962   19.1371 C   0  0  0  0  0  0  0  0  0  0  0  0
    8.1637  -17.8527   19.7311 C   0  0  0  0  0  0  0  0  0  0  0  0
    7.1597  -18.8055   20.3322 C   0  0  2  0  0  0  0  0  0  0  0  0
    5.9165  -18.8066   19.5933 N   0  0  0  0  0  0  0  0  0  0  0  0
    6.8510  -18.3236   21.7180 C   0  0  0  0  0  0  0  0  0  0  0  0
    5.9457  -17.4309   21.8610 O   0  0  0  0  0  0  0  0  0  0  0  0
   12.6725  -19.3721   16.0968 N   0  0  0  0  0  0  0  0  0  0  0  0
    7.5244  -18.8238   22.8542 C   0  0  2  0  0  0  0  0  0  0  0  0
    7.1862  -18.2787   24.1549 C   0  0  0  0  0  0  0  0  0  0  0  0
    6.9083  -19.4533   25.0739 S   0  0  0  0  0  0  0  0  0  0  0  0
    6.7056  -18.9800   26.7909 C   0  0  0  0  0  0  0  0  0  0  0  0
    8.2806  -17.4205   24.6836 O   0  0  0  0  0  0  0  0  0  0  0  0
    9.4929  -17.7222   24.4486 C   0  0  0  0  0  0  0  0  0  0  0  0
    5.8298  -11.0695   25.4848 S   0  0  0  0  0  0  0  0  0  0  0  0
    6.9658  -12.0307   26.4834 C   0  0  0  0  0  0  0  0  0  0  0  0
    7.6403  -13.4704   25.5907 C   0  0  0  0  0  0  0  0  0  0  0  0
    8.5683  -14.1664   26.5234 C   0  0  2  0  0  0  0  0  0  0  0  0
    9.1339  -15.4610   26.0218 N   0  0  0  0  0  0  0  0  0  0  0  0
    8.0438  -16.2663   25.4470 C   0  0  0  0  0  0  0  0  0  0  0  0
    9.8361  -16.2665   27.0224 O   0  0  0  0  0  0  0  0  0  0  0  0
   11.0732  -15.9184   27.5474 O   0  0  0  0  0  0  0  0  0  0  0  0
  2  1  1  0
  3  2  2  0
  4  2  1  0
  5  4  1  0
  6  5  1  0
  7  6  1  0
  8  7  1  0
  8  9  1  6
 10  8  1  0
 10 11  2  0
 12 10  1  0
 13 12  1  0
 13 14  1  6
 15 14  1  0
 16 13  1  0
 17 16  2  0
 19 18  1  0
 20 21  1  0
 20 19  1  0
 22 21  1  6
 22 23  1  0
 22 24  1  0
 23 16  1  0
 24 26  2  0
 24 25  1  0
M  END
$$$$
