RCM.pdb
     RDKit          3D

 26 25  0  0  1  0  0  0  0  0999 V2000
    8.1470  -12.9463   20.0080 N   0  0  0  0  0  0  0  0  0  0  0  0
    8.0740  -13.1745   18.6105 C   0  0  0  0  0  0  0  0  0  0  0  0
    7.7844  -12.2262   17.7571 N   0  0  0  0  0  0  0  0  0  0  0  0
    8.3099  -14.4485   18.0260 N   0  0  0  0  0  0  0  0  0  0  0  0
    9.6324  -15.0384   18.0222 C   0  0  0  0  0  0  0  0  0  0  0  0
    9.7399  -15.8513   19.2940 C   0  0  0  0  0  0  0  0  0  0  0  0
    8.9348  -17.0868   19.1755 C   0  0  0  0  0  0  0  0  0  0  0  0
    9.2211  -18.0200   20.3263 C   0  0  2  0  0  0  0  0  0  0  0  0
    8.5068  -19.2702   20.1898 N   0  0  0  0  0  0  0  0  0  0  0  0
    8.7255  -17.3610   21.5784 C   0  0  0  0  0  0  0  0  0  0  0  0
    7.5949  -16.7632   21.5413 O   0  0  0  0  0  0  0  0  0  0  0  0
    7.8758  -12.4915   16.7361 N   0  0  0  0  0  0  0  0  0  0  0  0
    9.4644  -17.3835   22.7817 C   0  0  1  0  0  0  0  0  0  0  0  0
    8.8191  -16.9303   23.9989 C   0  0  0  0  0  0  0  0  0  0  0  0
    7.6218  -17.8320   24.2331 S   0  0  0  0  0  0  0  0  0  0  0  0
    6.8443  -17.5810   25.8286 C   0  0  0  0  0  0  0  0  0  0  0  0
    9.7576  -16.9604   25.1530 O   0  0  0  0  0  0  0  0  0  0  0  0
   10.3184  -18.0515   25.4861 C   0  0  0  0  0  0  0  0  0  0  0  0
    8.1036  -11.5682   28.9939 S   0  0  0  0  0  0  0  0  0  0  0  0
    9.6664  -12.4326   28.8441 C   0  0  0  0  0  0  0  0  0  0  0  0
    9.5316  -13.9619   27.8603 C   0  0  0  0  0  0  0  0  0  0  0  0
   10.8890  -14.5706   27.8121 C   0  0  1  0  0  0  0  0  0  0  0  0
   10.9877  -15.8650   27.0623 N   0  0  0  0  0  0  0  0  0  0  0  0
   10.0670  -15.8221   25.9144 C   0  0  0  0  0  0  0  0  0  0  0  0
   10.7030  -17.0667   27.8485 O   0  0  0  0  0  0  0  0  0  0  0  0
   11.5646  -17.5641   28.8167 O   0  0  0  0  0  0  0  0  0  0  0  0
  2  1  1  0
  3  2  2  0
  4  2  1  0
  5  4  1  0
  6  5  1  0
  7  6  1  0
  8  7  1  0
  8  9  1  6
 10  8  1  0
 10 11  2  0
 12 10  1  0
 13 12  1  0
 13 14  1  1
 15 14  1  0
 16 13  1  0
 17 16  2  0
 19 18  1  0
 20 21  1  0
 20 19  1  0
 22 21  1  6
 22 23  1  0
 22 24  1  0
 23 16  1  0
 24 26  2  0
 24 25  1  0
M  END
$$$$
