RCM.pdb
     RDKit          3D

 26 25  0  0  1  0  0  0  0  0999 V2000
    8.3039  -13.4418   14.5322 N   0  0  0  0  0  0  0  0  0  0  0  0
    7.8875  -13.8865   15.8125 C   0  0  0  0  0  0  0  0  0  0  0  0
    7.2446  -15.0117   15.9916 N   0  0  0  0  0  0  0  0  0  0  0  0
    8.1354  -13.1478   17.0013 N   0  0  0  0  0  0  0  0  0  0  0  0
    7.6128  -13.5857   18.2789 C   0  0  0  0  0  0  0  0  0  0  0  0
    7.9391  -15.0593   18.3900 C   0  0  0  0  0  0  0  0  0  0  0  0
    7.4583  -15.5887   19.6851 C   0  0  0  0  0  0  0  0  0  0  0  0
    8.6119  -16.1065   20.5085 C   0  0  2  0  0  0  0  0  0  0  0  0
    8.5935  -17.5496   20.6044 N   0  0  0  0  0  0  0  0  0  0  0  0
    8.4539  -15.5682   21.8989 C   0  0  0  0  0  0  0  0  0  0  0  0
    8.4758  -14.2995   22.0631 O   0  0  0  0  0  0  0  0  0  0  0  0
    7.0441  -15.2639   17.0003 N   0  0  0  0  0  0  0  0  0  0  0  0
    8.2832  -16.4143   23.0167 C   0  0  1  0  0  0  0  0  0  0  0  0
    8.2489  -15.8173   24.3379 C   0  0  0  0  0  0  0  0  0  0  0  0
    6.8213  -15.9236   24.8402 S   0  0  0  0  0  0  0  0  0  0  0  0
    6.6807  -15.7677   26.6204 C   0  0  0  0  0  0  0  0  0  0  0  0
    9.2026  -16.4897   25.2610 O   0  0  0  0  0  0  0  0  0  0  0  0
    9.0023  -17.6949   25.6122 C   0  0  0  0  0  0  0  0  0  0  0  0
    8.5159  -12.1272   28.1349 S   0  0  0  0  0  0  0  0  0  0  0  0
    9.9675  -12.8830   28.8653 C   0  0  0  0  0  0  0  0  0  0  0  0
   10.9191  -13.8768   27.6689 C   0  0  0  0  0  0  0  0  0  0  0  0
   10.7962  -15.2996   28.0882 C   0  0  2  0  0  0  0  0  0  0  0  0
   11.0160  -16.3114   27.0040 N   0  0  0  0  0  0  0  0  0  0  0  0
   10.3408  -15.8517   25.7793 C   0  0  0  0  0  0  0  0  0  0  0  0
   10.5589  -17.6677   27.3120 O   0  0  0  0  0  0  0  0  0  0  0  0
    9.5662  -18.3179   26.5916 O   0  0  0  0  0  0  0  0  0  0  0  0
  2  1  1  0
  3  2  2  0
  4  2  1  0
  5  4  1  0
  6  5  1  0
  7  6  1  0
  8  7  1  0
  8  9  1  1
 10  8  1  0
 10 11  2  0
 12 10  1  0
 13 12  1  0
 13 14  1  1
 15 14  1  0
 16 13  1  0
 17 16  2  0
 19 18  1  0
 20 21  1  0
 20 19  1  0
 22 21  1  6
 22 23  1  0
 22 24  1  0
 23 16  1  0
 24 26  2  0
 24 25  1  0
M  END
$$$$
