RCM.pdb
     RDKit          3D

 26 25  0  0  1  0  0  0  0  0999 V2000
    7.9239  -14.7260   15.1347 N   0  0  0  0  0  0  0  0  0  0  0  0
    7.6620  -14.0734   16.3659 C   0  0  0  0  0  0  0  0  0  0  0  0
    7.7791  -12.7789   16.5146 N   0  0  0  0  0  0  0  0  0  0  0  0
    7.2514  -14.7712   17.5341 N   0  0  0  0  0  0  0  0  0  0  0  0
    8.1256  -15.7255   18.1837 C   0  0  0  0  0  0  0  0  0  0  0  0
    9.3287  -14.9429   18.6636 C   0  0  0  0  0  0  0  0  0  0  0  0
   10.4312  -15.8678   19.0066 C   0  0  0  0  0  0  0  0  0  0  0  0
    9.9881  -16.8560   20.0575 C   0  0  2  0  0  0  0  0  0  0  0  0
    8.7120  -17.4506   19.7264 N   0  0  0  0  0  0  0  0  0  0  0  0
    9.8059  -16.1020   21.3406 C   0  0  0  0  0  0  0  0  0  0  0  0
   10.6918  -15.2382   21.6663 O   0  0  0  0  0  0  0  0  0  0  0  0
    7.6745  -12.4251   17.5071 N   0  0  0  0  0  0  0  0  0  0  0  0
    8.6960  -16.3175   22.1869 C   0  0  1  0  0  0  0  0  0  0  0  0
    8.6466  -15.6166   23.4556 C   0  0  0  0  0  0  0  0  0  0  0  0
    7.1953  -15.5910   23.8965 S   0  0  0  0  0  0  0  0  0  0  0  0
    6.9240  -14.6439   25.3941 C   0  0  0  0  0  0  0  0  0  0  0  0
    9.5130  -16.2735   24.4712 O   0  0  0  0  0  0  0  0  0  0  0  0
    9.7559  -17.5185   24.3878 C   0  0  0  0  0  0  0  0  0  0  0  0
   10.7120  -13.0899   29.7816 S   0  0  0  0  0  0  0  0  0  0  0  0
   11.7405  -14.4959   30.2024 C   0  0  0  0  0  0  0  0  0  0  0  0
   11.5848  -15.8631   29.0060 C   0  0  0  0  0  0  0  0  0  0  0  0
   11.0391  -15.2827   27.7488 C   0  0  1  0  0  0  0  0  0  0  0  0
   10.8037  -16.2608   26.6374 N   0  0  0  0  0  0  0  0  0  0  0  0
   10.0925  -15.5779   25.5443 C   0  0  0  0  0  0  0  0  0  0  0  0
   10.0528  -17.4613   27.0090 O   0  0  0  0  0  0  0  0  0  0  0  0
   10.6590  -18.6430   27.4131 O   0  0  0  0  0  0  0  0  0  0  0  0
  2  1  1  0
  3  2  2  0
  4  2  1  0
  5  4  1  0
  6  5  1  0
  7  6  1  0
  8  7  1  0
  8  9  1  6
 10  8  1  0
 10 11  2  0
 12 10  1  0
 13 12  1  0
 13 14  1  1
 15 14  1  0
 16 13  1  0
 17 16  2  0
 19 18  1  0
 20 21  1  0
 20 19  1  0
 22 21  1  6
 22 23  1  0
 22 24  1  0
 23 16  1  0
 24 26  2  0
 24 25  1  0
M  END
$$$$
