RCM.pdb
     RDKit          3D

 26 25  0  0  1  0  0  0  0  0999 V2000
    7.1682  -12.4550   13.5200 N   0  0  0  0  0  0  0  0  0  0  0  0
    8.0390  -13.1534   14.3941 C   0  0  0  0  0  0  0  0  0  0  0  0
    8.9986  -13.9290   13.9594 N   0  0  0  0  0  0  0  0  0  0  0  0
    7.9401  -13.0664   15.8094 N   0  0  0  0  0  0  0  0  0  0  0  0
    8.9014  -13.7239   16.6700 C   0  0  0  0  0  0  0  0  0  0  0  0
    8.3123  -15.0750   17.0126 C   0  0  0  0  0  0  0  0  0  0  0  0
    8.4638  -15.3420   18.4598 C   0  0  0  0  0  0  0  0  0  0  0  0
    9.1966  -16.6415   18.6865 C   0  0  2  0  0  0  0  0  0  0  0  0
    8.8271  -17.6400   17.7076 N   0  0  0  0  0  0  0  0  0  0  0  0
    8.7859  -17.1650   20.0300 C   0  0  0  0  0  0  0  0  0  0  0  0
    7.6345  -17.7118   20.1407 O   0  0  0  0  0  0  0  0  0  0  0  0
    9.5252  -14.4619   14.7076 N   0  0  0  0  0  0  0  0  0  0  0  0
    9.6265  -17.0719   21.1611 C   0  0  1  0  0  0  0  0  0  0  0  0
    9.1487  -17.6011   22.4240 C   0  0  0  0  0  0  0  0  0  0  0  0
    9.8884  -18.9022   22.6724 S   0  0  0  0  0  0  0  0  0  0  0  0
   11.6711  -18.7333   22.5892 C   0  0  0  0  0  0  0  0  0  0  0  0
    9.3629  -16.6325   23.5328 O   0  0  0  0  0  0  0  0  0  0  0  0
   10.4047  -15.9042   23.5464 C   0  0  0  0  0  0  0  0  0  0  0  0
    6.6194  -10.6809   25.6544 S   0  0  0  0  0  0  0  0  0  0  0  0
    6.8424  -12.2667   26.4588 C   0  0  0  0  0  0  0  0  0  0  0  0
    7.3682  -13.5737   25.3012 C   0  0  0  0  0  0  0  0  0  0  0  0
    7.5371  -14.8197   26.0976 C   0  0  2  0  0  0  0  0  0  0  0  0
    8.7504  -15.6357   25.7666 N   0  0  0  0  0  0  0  0  0  0  0  0
    8.4556  -16.4731   24.5924 C   0  0  0  0  0  0  0  0  0  0  0  0
    9.2400  -16.4950   26.8459 O   0  0  0  0  0  0  0  0  0  0  0  0
   10.1309  -16.0620   27.8184 O   0  0  0  0  0  0  0  0  0  0  0  0
  2  1  1  0
  3  2  2  0
  4  2  1  0
  5  4  1  0
  6  5  1  0
  7  6  1  0
  8  7  1  0
  8  9  1  6
 10  8  1  0
 10 11  2  0
 12 10  1  0
 13 12  1  0
 13 14  1  6
 15 14  1  0
 16 13  1  0
 17 16  2  0
 19 18  1  0
 20 21  1  0
 20 19  1  0
 22 21  1  6
 22 23  1  0
 22 24  1  0
 23 16  1  0
 24 26  2  0
 24 25  1  0
M  END
$$$$
