RCM.pdb
     RDKit          3D

 26 25  0  0  1  0  0  0  0  0999 V2000
    9.0917  -14.7677   14.8754 N   0  0  0  0  0  0  0  0  0  0  0  0
    7.8469  -14.2075   15.2588 C   0  0  0  0  0  0  0  0  0  0  0  0
    7.2559  -13.2671   14.5675 N   0  0  0  0  0  0  0  0  0  0  0  0
    7.1423  -14.6225   16.4215 N   0  0  0  0  0  0  0  0  0  0  0  0
    7.8466  -15.0579   17.6095 C   0  0  0  0  0  0  0  0  0  0  0  0
    8.6767  -13.8788   18.0687 C   0  0  0  0  0  0  0  0  0  0  0  0
    8.6886  -13.8121   19.5466 C   0  0  0  0  0  0  0  0  0  0  0  0
    9.2695  -15.0764   20.1308 C   0  0  2  0  0  0  0  0  0  0  0  0
    8.7590  -16.2550   19.4657 N   0  0  0  0  0  0  0  0  0  0  0  0
    8.8364  -15.1541   21.5641 C   0  0  0  0  0  0  0  0  0  0  0  0
    9.2034  -14.2210   22.3589 O   0  0  0  0  0  0  0  0  0  0  0  0
    6.3235  -12.9416   14.9492 N   0  0  0  0  0  0  0  0  0  0  0  0
    8.0438  -16.2161   22.0524 C   0  0  1  0  0  0  0  0  0  0  0  0
    7.7464  -16.2622   23.4711 C   0  0  0  0  0  0  0  0  0  0  0  0
    6.5584  -17.1887   23.6494 S   0  0  0  0  0  0  0  0  0  0  0  0
    6.2196  -17.5882   25.3638 C   0  0  0  0  0  0  0  0  0  0  0  0
    8.9219  -16.7267   24.2560 O   0  0  0  0  0  0  0  0  0  0  0  0
    9.9181  -17.2445   23.6598 C   0  0  0  0  0  0  0  0  0  0  0  0
    9.4915  -12.8119   28.7373 S   0  0  0  0  0  0  0  0  0  0  0  0
   11.1035  -13.5251   29.0607 C   0  0  0  0  0  0  0  0  0  0  0  0
   11.3648  -15.0994   28.1785 C   0  0  0  0  0  0  0  0  0  0  0  0
   10.1963  -15.2936   27.2773 C   0  0  1  0  0  0  0  0  0  0  0  0
   10.2734  -16.4853   26.3711 N   0  0  0  0  0  0  0  0  0  0  0  0
    8.9950  -16.6223   25.6542 C   0  0  0  0  0  0  0  0  0  0  0  0
   10.5802  -17.7551   27.0321 O   0  0  0  0  0  0  0  0  0  0  0  0
    9.7134  -18.8395   27.0361 O   0  0  0  0  0  0  0  0  0  0  0  0
  2  1  1  0
  3  2  2  0
  4  2  1  0
  5  4  1  0
  6  5  1  0
  7  6  1  0
  8  7  1  0
  8  9  1  6
 10  8  1  0
 10 11  2  0
 12 10  1  0
 13 12  1  0
 13 14  1  1
 15 14  1  0
 16 13  1  0
 17 16  2  0
 19 18  1  0
 20 21  1  0
 20 19  1  0
 22 21  1  6
 22 23  1  0
 22 24  1  0
 23 16  1  0
 24 26  2  0
 24 25  1  0
M  END
$$$$
