RCM.pdb
     RDKit          3D

 26 25  0  0  1  0  0  0  0  0999 V2000
    7.6320  -12.8777   16.2317 N   0  0  0  0  0  0  0  0  0  0  0  0
    7.8600  -14.2172   15.8266 C   0  0  0  0  0  0  0  0  0  0  0  0
    8.0045  -14.5576   14.5718 N   0  0  0  0  0  0  0  0  0  0  0  0
    7.9506  -15.2947   16.7491 N   0  0  0  0  0  0  0  0  0  0  0  0
    7.7975  -15.0780   18.1727 C   0  0  0  0  0  0  0  0  0  0  0  0
    7.9623  -16.4312   18.8297 C   0  0  0  0  0  0  0  0  0  0  0  0
    9.1885  -16.4471   19.6572 C   0  0  0  0  0  0  0  0  0  0  0  0
    8.8840  -16.9449   21.0488 C   0  0  2  0  0  0  0  0  0  0  0  0
    7.5280  -17.4366   21.1547 N   0  0  0  0  0  0  0  0  0  0  0  0
    9.0069  -15.7795   21.9840 C   0  0  0  0  0  0  0  0  0  0  0  0
   10.1311  -15.1723   22.0505 O   0  0  0  0  0  0  0  0  0  0  0  0
    8.0555  -15.5990   14.3874 N   0  0  0  0  0  0  0  0  0  0  0  0
    7.9276  -15.3404   22.7822 C   0  0  1  0  0  0  0  0  0  0  0  0
    8.1659  -14.2859   23.7489 C   0  0  0  0  0  0  0  0  0  0  0  0
    6.8307  -13.9554   24.3888 S   0  0  0  0  0  0  0  0  0  0  0  0
    6.4683  -14.9534   25.8331 C   0  0  0  0  0  0  0  0  0  0  0  0
    9.1696  -14.7005   24.7661 O   0  0  0  0  0  0  0  0  0  0  0  0
   10.0038  -13.8533   25.2158 C   0  0  0  0  0  0  0  0  0  0  0  0
    9.8040  -13.1208   29.4022 S   0  0  0  0  0  0  0  0  0  0  0  0
   10.9926  -14.4347   29.6715 C   0  0  0  0  0  0  0  0  0  0  0  0
   10.5300  -15.9839   28.8285 C   0  0  0  0  0  0  0  0  0  0  0  0
    9.7972  -15.6045   27.5897 C   0  0  1  0  0  0  0  0  0  0  0  0
   10.1648  -16.3808   26.3611 N   0  0  0  0  0  0  0  0  0  0  0  0
    9.2491  -16.0084   25.2704 C   0  0  0  0  0  0  0  0  0  0  0  0
   10.1478  -17.8369   26.5127 O   0  0  0  0  0  0  0  0  0  0  0  0
   11.0620  -18.5312   27.2932 O   0  0  0  0  0  0  0  0  0  0  0  0
  2  1  1  0
  3  2  2  0
  4  2  1  0
  5  4  1  0
  6  5  1  0
  7  6  1  0
  8  7  1  0
  8  9  1  6
 10  8  1  0
 10 11  2  0
 12 10  1  0
 13 12  1  0
 13 14  1  6
 15 14  1  0
 16 13  1  0
 17 16  2  0
 19 18  1  0
 20 21  1  0
 20 19  1  0
 22 21  1  6
 22 23  1  0
 22 24  1  0
 23 16  1  0
 24 26  2  0
 24 25  1  0
M  END
$$$$
