TWG.pdb
     RDKit          3D

 26 27  0  0  1  0  0  0  0  0999 V2000
   10.2830  -20.8784   18.0033 C   0  0  0  0  0  0  0  0  0  0  0  0
   10.6193  -19.8730   19.0906 C   0  0  1  0  0  0  0  0  0  0  0  0
   11.9791  -19.6209   19.0557 O   0  0  0  0  0  0  0  0  0  0  0  0
    9.7840  -18.6414   19.0018 C   0  0  2  0  0  0  0  0  0  0  0  0
    9.9650  -18.1112   17.6398 N   0  0  0  0  0  0  0  0  0  0  0  0
   10.0449  -17.6166   20.0109 C   0  0  0  0  0  0  0  0  0  0  0  0
   10.6569  -16.5510   19.6805 O   0  0  0  0  0  0  0  0  0  0  0  0
    9.6494  -17.7394   21.3615 N   0  0  0  0  0  0  0  0  0  0  0  0
    9.9496  -16.7029   22.3196 C   0  0  1  0  0  0  0  0  0  0  0  0
    8.6732  -16.4438   23.0909 C   0  0  0  0  0  0  0  0  0  0  0  0
    7.6476  -15.8622   22.1878 C   0  0  0  0  0  0  0  0  0  0  0  0
    6.4596  -16.4136   21.7579 C   0  0  0  0  0  0  0  0  0  0  0  0
    5.7980  -15.5857   20.9458 N   0  0  0  0  0  0  0  0  0  0  0  0
    6.5501  -14.4770   20.8347 C   0  0  0  0  0  0  0  0  0  0  0  0
    6.3148  -13.3095   20.1070 C   0  0  0  0  0  0  0  0  0  0  0  0
    7.2405  -12.2771   20.1398 C   0  0  0  0  0  0  0  0  0  0  0  0
    8.3769  -12.4466   20.9029 C   0  0  0  0  0  0  0  0  0  0  0  0
    8.6232  -13.5944   21.6272 C   0  0  0  0  0  0  0  0  0  0  0  0
    7.6966  -14.6206   21.5907 C   0  0  0  0  0  0  0  0  0  0  0  0
   11.0630  -17.1000   23.1991 C   0  0  0  0  0  0  0  0  0  0  0  0
   11.4068  -16.4359   24.2137 O   0  0  0  0  0  0  0  0  0  0  0  0
   11.7883  -18.2724   22.9096 N   0  0  0  0  0  0  0  0  0  0  0  0
   12.8628  -18.6767   23.7923 C   0  0  0  0  0  0  0  0  0  0  0  0
   14.1875  -18.2596   23.3249 C   0  0  0  0  0  0  0  0  0  0  0  0
   15.2008  -18.6798   23.9372 O   0  0  0  0  0  0  0  0  0  0  0  0
   14.4063  -17.4241   22.2414 O   0  0  0  0  0  0  0  0  0  0  0  0
  2  1  1  6
  3  2  1  0
  4  2  1  0
  4  6  1  0
  4  5  1  6
  6  7  2  0
  8  6  1  0
  8  9  1  0
  9 10  1  1
 10 11  1  0
 11 19  1  0
 12 13  1  0
 12 11  2  0
 13 14  1  0
 14 19  2  0
 14 15  1  0
 15 16  2  0
 16 17  1  0
 18 17  2  0
 19 18  1  0
 20  9  1  0
 20 22  1  0
 21 20  2  0
 23 24  1  0
 23 22  1  0
 24 26  1  0
 25 24  2  0
M  END
$$$$
