TWG.pdb
     RDKit          3D

 26 27  0  0  1  0  0  0  0  0999 V2000
    7.2684  -16.6489   18.7567 C   0  0  0  0  0  0  0  0  0  0  0  0
    8.1458  -16.3740   19.9655 C   0  0  1  0  0  0  0  0  0  0  0  0
    9.3668  -15.8939   19.5266 O   0  0  0  0  0  0  0  0  0  0  0  0
    7.4795  -15.4841   20.9588 C   0  0  2  0  0  0  0  0  0  0  0  0
    7.0373  -14.2898   20.2194 N   0  0  0  0  0  0  0  0  0  0  0  0
    8.2766  -15.1208   22.1289 C   0  0  0  0  0  0  0  0  0  0  0  0
    8.7569  -13.9461   22.2218 O   0  0  0  0  0  0  0  0  0  0  0  0
    8.5521  -16.0144   23.1878 N   0  0  0  0  0  0  0  0  0  0  0  0
    9.3967  -15.6212   24.2897 C   0  0  1  0  0  0  0  0  0  0  0  0
    8.6823  -16.0447   25.5551 C   0  0  0  0  0  0  0  0  0  0  0  0
    7.5255  -15.1475   25.8055 C   0  0  0  0  0  0  0  0  0  0  0  0
    6.1784  -15.4302   25.7311 C   0  0  0  0  0  0  0  0  0  0  0  0
    5.4342  -14.3617   26.0260 N   0  0  0  0  0  0  0  0  0  0  0  0
    6.2910  -13.3622   26.2982 C   0  0  0  0  0  0  0  0  0  0  0  0
    6.0315  -12.0402   26.6627 C   0  0  0  0  0  0  0  0  0  0  0  0
    7.0852  -11.1701   26.9005 C   0  0  0  0  0  0  0  0  0  0  0  0
    8.3702  -11.6526   26.7652 C   0  0  0  0  0  0  0  0  0  0  0  0
    8.6423  -12.9562   26.4056 C   0  0  0  0  0  0  0  0  0  0  0  0
    7.5875  -13.8193   26.1698 C   0  0  0  0  0  0  0  0  0  0  0  0
   10.7350  -16.2266   24.1744 C   0  0  0  0  0  0  0  0  0  0  0  0
   11.5689  -16.2341   25.1195 O   0  0  0  0  0  0  0  0  0  0  0  0
   11.1185  -16.8300   22.9606 N   0  0  0  0  0  0  0  0  0  0  0  0
   12.4300  -17.4350   22.8536 C   0  0  0  0  0  0  0  0  0  0  0  0
   12.6972  -18.0147   21.5346 C   0  0  0  0  0  0  0  0  0  0  0  0
   12.6835  -17.2584   20.5317 O   0  0  0  0  0  0  0  0  0  0  0  0
   12.9680  -19.3551   21.3107 O   0  0  0  0  0  0  0  0  0  0  0  0
  2  1  1  6
  3  2  1  0
  4  2  1  0
  4  6  1  0
  4  5  1  6
  6  7  2  0
  8  6  1  0
  8  9  1  0
  9 10  1  1
 10 11  1  0
 11 19  1  0
 12 13  1  0
 12 11  2  0
 13 14  1  0
 14 19  2  0
 14 15  1  0
 15 16  2  0
 16 17  1  0
 18 17  2  0
 19 18  1  0
 20  9  1  0
 20 22  1  0
 21 20  2  0
 23 24  1  0
 23 22  1  0
 24 26  1  0
 25 24  2  0
M  END
$$$$
