TWG.pdb
     RDKit          3D

 26 27  0  0  1  0  0  0  0  0999 V2000
    6.7177  -17.9320   19.3664 C   0  0  0  0  0  0  0  0  0  0  0  0
    7.7547  -17.4202   20.3508 C   0  0  1  0  0  0  0  0  0  0  0  0
    8.9316  -17.1740   19.6664 O   0  0  0  0  0  0  0  0  0  0  0  0
    7.2651  -16.2486   21.1319 C   0  0  2  0  0  0  0  0  0  0  0  0
    6.7846  -15.2626   20.1492 N   0  0  0  0  0  0  0  0  0  0  0  0
    8.2241  -15.6516   22.0595 C   0  0  0  0  0  0  0  0  0  0  0  0
    8.7887  -14.5519   21.7580 O   0  0  0  0  0  0  0  0  0  0  0  0
    8.5697  -16.2340   23.2993 N   0  0  0  0  0  0  0  0  0  0  0  0
    9.5079  -15.5891   24.1860 C   0  0  1  0  0  0  0  0  0  0  0  0
    9.0189  -15.8469   25.5951 C   0  0  0  0  0  0  0  0  0  0  0  0
    7.7800  -15.0683   25.8493 C   0  0  0  0  0  0  0  0  0  0  0  0
    6.4676  -15.4856   25.7901 C   0  0  0  0  0  0  0  0  0  0  0  0
    5.6222  -14.4947   26.0835 N   0  0  0  0  0  0  0  0  0  0  0  0
    6.3765  -13.4117   26.3395 C   0  0  0  0  0  0  0  0  0  0  0  0
    5.9886  -12.1193   26.6959 C   0  0  0  0  0  0  0  0  0  0  0  0
    6.9515  -11.1456   26.9165 C   0  0  0  0  0  0  0  0  0  0  0  0
    8.2773  -11.4977   26.7729 C   0  0  0  0  0  0  0  0  0  0  0  0
    8.6759  -12.7706   26.4211 C   0  0  0  0  0  0  0  0  0  0  0  0
    7.7113  -13.7374   26.2023 C   0  0  0  0  0  0  0  0  0  0  0  0
   10.8754  -16.0926   23.9683 C   0  0  0  0  0  0  0  0  0  0  0  0
   11.8645  -15.7093   24.6489 O   0  0  0  0  0  0  0  0  0  0  0  0
   11.1081  -17.0465   22.9582 N   0  0  0  0  0  0  0  0  0  0  0  0
   12.4570  -17.5218   22.7300 C   0  0  0  0  0  0  0  0  0  0  0  0
   12.9397  -18.4266   23.7766 C   0  0  0  0  0  0  0  0  0  0  0  0
   14.1038  -18.8890   23.6816 O   0  0  0  0  0  0  0  0  0  0  0  0
   12.1947  -18.8142   24.8788 O   0  0  0  0  0  0  0  0  0  0  0  0
  2  1  1  6
  3  2  1  0
  4  2  1  0
  4  6  1  0
  4  5  1  6
  6  7  2  0
  8  6  1  0
  8  9  1  0
  9 10  1  1
 10 11  1  0
 11 19  1  0
 12 13  1  0
 12 11  2  0
 13 14  1  0
 14 19  2  0
 14 15  1  0
 15 16  2  0
 16 17  1  0
 18 17  2  0
 19 18  1  0
 20  9  1  0
 20 22  1  0
 21 20  2  0
 23 24  1  0
 23 22  1  0
 24 26  1  0
 25 24  2  0
M  END
$$$$
