TWG.pdb
     RDKit          3D

 26 27  0  0  1  0  0  0  0  0999 V2000
    7.8191  -14.9472   16.5140 C   0  0  0  0  0  0  0  0  0  0  0  0
    8.3352  -14.9491   17.9423 C   0  0  1  0  0  0  0  0  0  0  0  0
    9.7078  -14.7783   17.9176 O   0  0  0  0  0  0  0  0  0  0  0  0
    7.6281  -13.9572   18.8018 C   0  0  2  0  0  0  0  0  0  0  0  0
    7.7823  -12.6489   18.1434 N   0  0  0  0  0  0  0  0  0  0  0  0
    8.0530  -13.9030   20.1993 C   0  0  0  0  0  0  0  0  0  0  0  0
    8.9867  -13.1094   20.5418 O   0  0  0  0  0  0  0  0  0  0  0  0
    7.4764  -14.6957   21.2166 N   0  0  0  0  0  0  0  0  0  0  0  0
    8.0041  -14.6782   22.5595 C   0  0  1  0  0  0  0  0  0  0  0  0
    6.8751  -15.1033   23.4737 C   0  0  0  0  0  0  0  0  0  0  0  0
    7.2406  -14.8302   24.8870 C   0  0  0  0  0  0  0  0  0  0  0  0
    7.7867  -15.6846   25.8208 C   0  0  0  0  0  0  0  0  0  0  0  0
    7.9759  -15.0757   26.9939 N   0  0  0  0  0  0  0  0  0  0  0  0
    7.5532  -13.8089   26.8399 C   0  0  0  0  0  0  0  0  0  0  0  0
    7.5329  -12.7581   27.7582 C   0  0  0  0  0  0  0  0  0  0  0  0
    7.0474  -11.5163   27.3759 C   0  0  0  0  0  0  0  0  0  0  0  0
    6.5957  -11.3651   26.0814 C   0  0  0  0  0  0  0  0  0  0  0  0
    6.6093  -12.3941   25.1629 C   0  0  0  0  0  0  0  0  0  0  0  0
    7.0946  -13.6302   25.5498 C   0  0  0  0  0  0  0  0  0  0  0  0
    9.1805  -15.5574   22.6786 C   0  0  0  0  0  0  0  0  0  0  0  0
    9.2484  -16.6911   22.1320 O   0  0  0  0  0  0  0  0  0  0  0  0
   10.2901  -15.1288   23.4333 N   0  0  0  0  0  0  0  0  0  0  0  0
   11.4731  -15.9623   23.4893 C   0  0  0  0  0  0  0  0  0  0  0  0
   11.3827  -17.0345   24.4839 C   0  0  0  0  0  0  0  0  0  0  0  0
   11.0049  -16.7455   25.6466 O   0  0  0  0  0  0  0  0  0  0  0  0
   11.6875  -18.3624   24.2312 O   0  0  0  0  0  0  0  0  0  0  0  0
  2  1  1  6
  3  2  1  0
  4  2  1  0
  4  6  1  0
  4  5  1  6
  6  7  2  0
  8  6  1  0
  8  9  1  0
  9 10  1  1
 10 11  1  0
 11 19  1  0
 12 13  1  0
 12 11  2  0
 13 14  1  0
 14 19  2  0
 14 15  1  0
 15 16  2  0
 16 17  1  0
 18 17  2  0
 19 18  1  0
 20  9  1  0
 20 22  1  0
 21 20  2  0
 23 24  1  0
 23 22  1  0
 24 26  1  0
 25 24  2  0
M  END
$$$$
