TWG.pdb
     RDKit          3D

 26 27  0  0  1  0  0  0  0  0999 V2000
    8.9969  -17.3198   19.9765 C   0  0  0  0  0  0  0  0  0  0  0  0
    8.3470  -15.9543   19.8374 C   0  0  1  0  0  0  0  0  0  0  0  0
    7.5500  -15.9562   18.7065 O   0  0  0  0  0  0  0  0  0  0  0  0
    7.6231  -15.5425   21.0739 C   0  0  2  0  0  0  0  0  0  0  0  0
    6.7786  -14.3951   20.7011 N   0  0  0  0  0  0  0  0  0  0  0  0
    8.4592  -15.2338   22.2325 C   0  0  0  0  0  0  0  0  0  0  0  0
    8.9769  -14.0767   22.3432 O   0  0  0  0  0  0  0  0  0  0  0  0
    8.7333  -16.1628   23.2609 N   0  0  0  0  0  0  0  0  0  0  0  0
    9.5020  -15.7802   24.4206 C   0  0  1  0  0  0  0  0  0  0  0  0
    8.6860  -16.1791   25.6314 C   0  0  0  0  0  0  0  0  0  0  0  0
    7.5046  -15.2882   25.7592 C   0  0  0  0  0  0  0  0  0  0  0  0
    6.1733  -15.5806   25.5542 C   0  0  0  0  0  0  0  0  0  0  0  0
    5.3969  -14.5151   25.7658 N   0  0  0  0  0  0  0  0  0  0  0  0
    6.2165  -13.5079   26.1136 C   0  0  0  0  0  0  0  0  0  0  0  0
    5.9141  -12.1851   26.4405 C   0  0  0  0  0  0  0  0  0  0  0  0
    6.9338  -11.3061   26.7745 C   0  0  0  0  0  0  0  0  0  0  0  0
    8.2288  -11.7808   26.7707 C   0  0  0  0  0  0  0  0  0  0  0  0
    8.5431  -13.0850   26.4498 C   0  0  0  0  0  0  0  0  0  0  0  0
    7.5221  -13.9570   26.1176 C   0  0  0  0  0  0  0  0  0  0  0  0
   10.8314  -16.4153   24.4089 C   0  0  0  0  0  0  0  0  0  0  0  0
   11.4321  -16.7700   25.4587 O   0  0  0  0  0  0  0  0  0  0  0  0
   11.4767  -16.6454   23.1780 N   0  0  0  0  0  0  0  0  0  0  0  0
   12.7904  -17.2550   23.1701 C   0  0  0  0  0  0  0  0  0  0  0  0
   13.3903  -17.3265   21.8351 C   0  0  0  0  0  0  0  0  0  0  0  0
   14.5144  -17.8731   21.7097 O   0  0  0  0  0  0  0  0  0  0  0  0
   12.7992  -16.8280   20.6852 O   0  0  0  0  0  0  0  0  0  0  0  0
  2  1  1  1
  3  2  1  0
  4  2  1  0
  4  6  1  0
  4  5  1  6
  6  7  2  0
  8  6  1  0
  8  9  1  0
  9 10  1  1
 10 11  1  0
 11 19  1  0
 12 13  1  0
 12 11  2  0
 13 14  1  0
 14 19  2  0
 14 15  1  0
 15 16  2  0
 16 17  1  0
 18 17  2  0
 19 18  1  0
 20  9  1  0
 20 22  1  0
 21 20  2  0
 23 24  1  0
 23 22  1  0
 24 26  1  0
 25 24  2  0
M  END
$$$$
