TWG.pdb
     RDKit          3D

 26 27  0  0  1  0  0  0  0  0999 V2000
    7.1847  -16.7085   18.8474 C   0  0  0  0  0  0  0  0  0  0  0  0
    8.0808  -16.4360   20.0430 C   0  0  1  0  0  0  0  0  0  0  0  0
    9.2833  -15.9251   19.5880 O   0  0  0  0  0  0  0  0  0  0  0  0
    7.4176  -15.5754   21.0638 C   0  0  2  0  0  0  0  0  0  0  0  0
    6.9164  -14.3896   20.3488 N   0  0  0  0  0  0  0  0  0  0  0  0
    8.2382  -15.1968   22.2127 C   0  0  0  0  0  0  0  0  0  0  0  0
    8.6979  -14.0131   22.2935 O   0  0  0  0  0  0  0  0  0  0  0  0
    8.5588  -16.0850   23.2634 N   0  0  0  0  0  0  0  0  0  0  0  0
    9.4377  -15.6810   24.3341 C   0  0  1  0  0  0  0  0  0  0  0  0
    8.7351  -16.0346   25.6274 C   0  0  0  0  0  0  0  0  0  0  0  0
    7.5698  -15.1365   25.8301 C   0  0  0  0  0  0  0  0  0  0  0  0
    6.2255  -15.4359   25.7726 C   0  0  0  0  0  0  0  0  0  0  0  0
    5.4710  -14.3602   26.0100 N   0  0  0  0  0  0  0  0  0  0  0  0
    6.3182  -13.3392   26.2268 C   0  0  0  0  0  0  0  0  0  0  0  0
    6.0460  -12.0019   26.5195 C   0  0  0  0  0  0  0  0  0  0  0  0
    7.0913  -11.1100   26.7086 C   0  0  0  0  0  0  0  0  0  0  0  0
    8.3809  -11.5866   26.5983 C   0  0  0  0  0  0  0  0  0  0  0  0
    8.6654  -12.9051   26.3094 C   0  0  0  0  0  0  0  0  0  0  0  0
    7.6191  -13.7900   26.1219 C   0  0  0  0  0  0  0  0  0  0  0  0
   10.7529  -16.3347   24.2161 C   0  0  0  0  0  0  0  0  0  0  0  0
   11.2332  -17.0779   25.1136 O   0  0  0  0  0  0  0  0  0  0  0  0
   11.5235  -16.1322   23.0543 N   0  0  0  0  0  0  0  0  0  0  0  0
   12.8451  -16.7187   22.9700 C   0  0  0  0  0  0  0  0  0  0  0  0
   13.5047  -16.4832   21.6829 C   0  0  0  0  0  0  0  0  0  0  0  0
   12.8333  -15.9840   20.7458 O   0  0  0  0  0  0  0  0  0  0  0  0
   14.8338  -16.7751   21.4212 O   0  0  0  0  0  0  0  0  0  0  0  0
  2  1  1  6
  3  2  1  0
  4  2  1  0
  4  6  1  0
  4  5  1  6
  6  7  2  0
  8  6  1  0
  8  9  1  0
  9 10  1  1
 10 11  1  0
 11 19  1  0
 12 13  1  0
 12 11  2  0
 13 14  1  0
 14 19  2  0
 14 15  1  0
 15 16  2  0
 16 17  1  0
 18 17  2  0
 19 18  1  0
 20  9  1  0
 20 22  1  0
 21 20  2  0
 23 24  1  0
 23 22  1  0
 24 26  1  0
 25 24  2  0
M  END
$$$$
