TWG.pdb
     RDKit          3D

 26 27  0  0  1  0  0  0  0  0999 V2000
    8.5984  -17.6587   19.9939 C   0  0  0  0  0  0  0  0  0  0  0  0
    7.8702  -16.3464   19.7617 C   0  0  1  0  0  0  0  0  0  0  0  0
    6.9653  -16.5185   18.7295 O   0  0  0  0  0  0  0  0  0  0  0  0
    7.2538  -15.8117   21.0094 C   0  0  2  0  0  0  0  0  0  0  0  0
    6.3896  -14.6912   20.6016 N   0  0  0  0  0  0  0  0  0  0  0  0
    8.1849  -15.4099   22.0622 C   0  0  0  0  0  0  0  0  0  0  0  0
    8.8251  -14.3159   21.9507 O   0  0  0  0  0  0  0  0  0  0  0  0
    8.4223  -16.1792   23.2229 N   0  0  0  0  0  0  0  0  0  0  0  0
    9.4940  -15.8436   24.1290 C   0  0  1  0  0  0  0  0  0  0  0  0
    8.9618  -16.0632   25.5289 C   0  0  0  0  0  0  0  0  0  0  0  0
    7.7637  -15.2142   25.7519 C   0  0  0  0  0  0  0  0  0  0  0  0
    6.4328  -15.5723   25.7312 C   0  0  0  0  0  0  0  0  0  0  0  0
    5.6382  -14.5278   25.9768 N   0  0  0  0  0  0  0  0  0  0  0  0
    6.4451  -13.4686   26.1619 C   0  0  0  0  0  0  0  0  0  0  0  0
    6.1221  -12.1413   26.4480 C   0  0  0  0  0  0  0  0  0  0  0  0
    7.1319  -11.2028   26.6019 C   0  0  0  0  0  0  0  0  0  0  0  0
    8.4379  -11.6243   26.4640 C   0  0  0  0  0  0  0  0  0  0  0  0
    8.7725  -12.9323   26.1813 C   0  0  0  0  0  0  0  0  0  0  0  0
    7.7614  -13.8637   26.0289 C   0  0  0  0  0  0  0  0  0  0  0  0
   10.6940  -16.6532   23.8542 C   0  0  0  0  0  0  0  0  0  0  0  0
   10.6503  -17.8942   23.6383 O   0  0  0  0  0  0  0  0  0  0  0  0
   11.9570  -16.0298   23.8271 N   0  0  0  0  0  0  0  0  0  0  0  0
   13.1476  -16.8464   23.7124 C   0  0  0  0  0  0  0  0  0  0  0  0
   14.3911  -16.0858   23.8619 C   0  0  0  0  0  0  0  0  0  0  0  0
   14.3225  -14.8356   23.9636 O   0  0  0  0  0  0  0  0  0  0  0  0
   15.6544  -16.6537   23.9001 O   0  0  0  0  0  0  0  0  0  0  0  0
  2  1  1  1
  3  2  1  0
  4  2  1  0
  4  6  1  0
  4  5  1  6
  6  7  2  0
  8  6  1  0
  8  9  1  0
  9 10  1  1
 10 11  1  0
 11 19  1  0
 12 13  1  0
 12 11  2  0
 13 14  1  0
 14 19  2  0
 14 15  1  0
 15 16  2  0
 16 17  1  0
 18 17  2  0
 19 18  1  0
 20  9  1  0
 20 22  1  0
 21 20  2  0
 23 24  1  0
 23 22  1  0
 24 26  1  0
 25 24  2  0
M  END
$$$$
