TWG.pdb
     RDKit          3D

 26 27  0  0  1  0  0  0  0  0999 V2000
    7.0745  -15.2647   18.7300 C   0  0  0  0  0  0  0  0  0  0  0  0
    7.9195  -15.4750   19.9743 C   0  0  1  0  0  0  0  0  0  0  0  0
    9.2543  -15.4610   19.6109 O   0  0  0  0  0  0  0  0  0  0  0  0
    7.5877  -14.5037   21.0555 C   0  0  2  0  0  0  0  0  0  0  0  0
    7.5858  -13.1694   20.4324 N   0  0  0  0  0  0  0  0  0  0  0  0
    8.4504  -14.5391   22.2349 C   0  0  0  0  0  0  0  0  0  0  0  0
    9.2830  -13.5974   22.4327 O   0  0  0  0  0  0  0  0  0  0  0  0
    8.4151  -15.5785   23.1909 N   0  0  0  0  0  0  0  0  0  0  0  0
    9.3372  -15.5973   24.3007 C   0  0  1  0  0  0  0  0  0  0  0  0
    8.5444  -16.0325   25.5146 C   0  0  0  0  0  0  0  0  0  0  0  0
    7.4546  -15.0592   25.7806 C   0  0  0  0  0  0  0  0  0  0  0  0
    6.0908  -15.2572   25.7516 C   0  0  0  0  0  0  0  0  0  0  0  0
    5.4246  -14.1383   26.0465 N   0  0  0  0  0  0  0  0  0  0  0  0
    6.3505  -13.1903   26.2730 C   0  0  0  0  0  0  0  0  0  0  0  0
    6.1860  -11.8481   26.6181 C   0  0  0  0  0  0  0  0  0  0  0  0
    7.2991  -11.0424   26.8072 C   0  0  0  0  0  0  0  0  0  0  0  0
    8.5465  -11.6079   26.6440 C   0  0  0  0  0  0  0  0  0  0  0  0
    8.7248  -12.9326   26.3030 C   0  0  0  0  0  0  0  0  0  0  0  0
    7.6112  -13.7312   26.1159 C   0  0  0  0  0  0  0  0  0  0  0  0
   10.4769  -16.4904   24.0283 C   0  0  0  0  0  0  0  0  0  0  0  0
   11.2811  -16.8693   24.9218 O   0  0  0  0  0  0  0  0  0  0  0  0
   10.6943  -16.9529   22.7155 N   0  0  0  0  0  0  0  0  0  0  0  0
   11.7203  -17.9464   22.4753 C   0  0  0  0  0  0  0  0  0  0  0  0
   13.0743  -17.3872   22.4394 C   0  0  0  0  0  0  0  0  0  0  0  0
   14.0267  -18.1392   22.1149 O   0  0  0  0  0  0  0  0  0  0  0  0
   13.3841  -16.0708   22.7413 O   0  0  0  0  0  0  0  0  0  0  0  0
  2  1  1  6
  3  2  1  0
  4  2  1  0
  4  6  1  0
  4  5  1  6
  6  7  2  0
  8  6  1  0
  8  9  1  0
  9 10  1  1
 10 11  1  0
 11 19  1  0
 12 13  1  0
 12 11  2  0
 13 14  1  0
 14 19  2  0
 14 15  1  0
 15 16  2  0
 16 17  1  0
 18 17  2  0
 19 18  1  0
 20  9  1  0
 20 22  1  0
 21 20  2  0
 23 24  1  0
 23 22  1  0
 24 26  1  0
 25 24  2  0
M  END
$$$$
