TWG.pdb
     RDKit          3D

 26 27  0  0  1  0  0  0  0  0999 V2000
    8.8908  -17.5514   19.9894 C   0  0  0  0  0  0  0  0  0  0  0  0
    8.0819  -16.2858   19.7643 C   0  0  1  0  0  0  0  0  0  0  0  0
    7.2677  -16.4708   18.6612 O   0  0  0  0  0  0  0  0  0  0  0  0
    7.3401  -15.8624   20.9862 C   0  0  2  0  0  0  0  0  0  0  0  0
    6.3204  -14.8971   20.5425 N   0  0  0  0  0  0  0  0  0  0  0  0
    8.1529  -15.3168   22.0717 C   0  0  0  0  0  0  0  0  0  0  0  0
    8.3976  -14.0686   22.1070 O   0  0  0  0  0  0  0  0  0  0  0  0
    8.6951  -16.1087   23.1084 N   0  0  0  0  0  0  0  0  0  0  0  0
    9.4713  -15.5125   24.1687 C   0  0  1  0  0  0  0  0  0  0  0  0
    8.8866  -16.0184   25.4700 C   0  0  0  0  0  0  0  0  0  0  0  0
    7.6362  -15.2801   25.7817 C   0  0  0  0  0  0  0  0  0  0  0  0
    6.3330  -15.7272   25.7384 C   0  0  0  0  0  0  0  0  0  0  0  0
    5.4719  -14.7685   26.0877 N   0  0  0  0  0  0  0  0  0  0  0  0
    6.2063  -13.6773   26.3651 C   0  0  0  0  0  0  0  0  0  0  0  0
    5.7967  -12.4084   26.7775 C   0  0  0  0  0  0  0  0  0  0  0  0
    6.7413  -11.4199   27.0108 C   0  0  0  0  0  0  0  0  0  0  0  0
    8.0712  -11.7339   26.8230 C   0  0  0  0  0  0  0  0  0  0  0  0
    8.4911  -12.9831   26.4156 C   0  0  0  0  0  0  0  0  0  0  0  0
    7.5447  -13.9649   26.1846 C   0  0  0  0  0  0  0  0  0  0  0  0
   10.9001  -15.8451   24.0316 C   0  0  0  0  0  0  0  0  0  0  0  0
   11.7616  -15.5440   24.9009 O   0  0  0  0  0  0  0  0  0  0  0  0
   11.3430  -16.5311   22.8836 N   0  0  0  0  0  0  0  0  0  0  0  0
   12.7411  -16.8916   22.7692 C   0  0  0  0  0  0  0  0  0  0  0  0
   13.0317  -17.7311   21.6039 C   0  0  0  0  0  0  0  0  0  0  0  0
   12.0768  -18.1010   20.8764 O   0  0  0  0  0  0  0  0  0  0  0  0
   14.3012  -18.1519   21.2414 O   0  0  0  0  0  0  0  0  0  0  0  0
  2  1  1  1
  3  2  1  0
  4  2  1  0
  4  6  1  0
  4  5  1  6
  6  7  2  0
  8  6  1  0
  8  9  1  0
  9 10  1  1
 10 11  1  0
 11 19  1  0
 12 13  1  0
 12 11  2  0
 13 14  1  0
 14 19  2  0
 14 15  1  0
 15 16  2  0
 16 17  1  0
 18 17  2  0
 19 18  1  0
 20  9  1  0
 20 22  1  0
 21 20  2  0
 23 24  1  0
 23 22  1  0
 24 26  1  0
 25 24  2  0
M  END
$$$$
