TWG.pdb
     RDKit          3D

 26 27  0  0  1  0  0  0  0  0999 V2000
    8.4086  -17.2004   19.9443 C   0  0  0  0  0  0  0  0  0  0  0  0
    8.1913  -15.7128   19.7292 C   0  0  1  0  0  0  0  0  0  0  0  0
    7.4572  -15.5355   18.5700 O   0  0  0  0  0  0  0  0  0  0  0  0
    7.5896  -15.0496   20.9211 C   0  0  2  0  0  0  0  0  0  0  0  0
    7.0672  -13.7528   20.4584 N   0  0  0  0  0  0  0  0  0  0  0  0
    8.4705  -14.8871   22.0762 C   0  0  0  0  0  0  0  0  0  0  0  0
    9.1673  -13.8286   22.1908 O   0  0  0  0  0  0  0  0  0  0  0  0
    8.5979  -15.8554   23.0969 N   0  0  0  0  0  0  0  0  0  0  0  0
    9.4630  -15.6299   24.2295 C   0  0  1  0  0  0  0  0  0  0  0  0
    8.6833  -16.0445   25.4589 C   0  0  0  0  0  0  0  0  0  0  0  0
    7.4967  -15.1666   25.6232 C   0  0  0  0  0  0  0  0  0  0  0  0
    6.1606  -15.4873   25.5136 C   0  0  0  0  0  0  0  0  0  0  0  0
    5.3802  -14.4256   25.7291 N   0  0  0  0  0  0  0  0  0  0  0  0
    6.2018  -13.3925   25.9836 C   0  0  0  0  0  0  0  0  0  0  0  0
    5.8970  -12.0618   26.2740 C   0  0  0  0  0  0  0  0  0  0  0  0
    6.9197  -11.1544   26.5077 C   0  0  0  0  0  0  0  0  0  0  0  0
    8.2202  -11.6094   26.4428 C   0  0  0  0  0  0  0  0  0  0  0  0
    8.5369  -12.9211   26.1568 C   0  0  0  0  0  0  0  0  0  0  0  0
    7.5129  -13.8215   25.9248 C   0  0  0  0  0  0  0  0  0  0  0  0
   10.7251  -16.3773   24.0901 C   0  0  0  0  0  0  0  0  0  0  0  0
   11.5738  -16.4705   25.0173 O   0  0  0  0  0  0  0  0  0  0  0  0
   11.0143  -17.0243   22.8726 N   0  0  0  0  0  0  0  0  0  0  0  0
   12.1809  -17.8779   22.7839 C   0  0  0  0  0  0  0  0  0  0  0  0
   13.3324  -17.2255   22.1549 C   0  0  0  0  0  0  0  0  0  0  0  0
   13.2237  -16.0252   21.8005 O   0  0  0  0  0  0  0  0  0  0  0  0
   14.5493  -17.8452   21.9198 O   0  0  0  0  0  0  0  0  0  0  0  0
  2  1  1  1
  3  2  1  0
  4  2  1  0
  4  6  1  0
  4  5  1  6
  6  7  2  0
  8  6  1  0
  8  9  1  0
  9 10  1  1
 10 11  1  0
 11 19  1  0
 12 13  1  0
 12 11  2  0
 13 14  1  0
 14 19  2  0
 14 15  1  0
 15 16  2  0
 16 17  1  0
 18 17  2  0
 19 18  1  0
 20  9  1  0
 20 22  1  0
 21 20  2  0
 23 24  1  0
 23 22  1  0
 24 26  1  0
 25 24  2  0
M  END
$$$$
