TWG.pdb
     RDKit          3D

 26 27  0  0  1  0  0  0  0  0999 V2000
    6.9540  -17.0865   19.0594 C   0  0  0  0  0  0  0  0  0  0  0  0
    7.9302  -16.7558   20.1748 C   0  0  1  0  0  0  0  0  0  0  0  0
    9.1531  -16.4356   19.6128 O   0  0  0  0  0  0  0  0  0  0  0  0
    7.4056  -15.7061   21.0944 C   0  0  2  0  0  0  0  0  0  0  0  0
    7.0009  -14.5721   20.2465 N   0  0  0  0  0  0  0  0  0  0  0  0
    8.3103  -15.2779   22.1596 C   0  0  0  0  0  0  0  0  0  0  0  0
    8.9117  -14.1608   22.0618 O   0  0  0  0  0  0  0  0  0  0  0  0
    8.5630  -16.0458   23.3181 N   0  0  0  0  0  0  0  0  0  0  0  0
    9.5212  -15.6077   24.3041 C   0  0  1  0  0  0  0  0  0  0  0  0
    8.9331  -15.9431   25.6579 C   0  0  0  0  0  0  0  0  0  0  0  0
    7.6673  -15.1923   25.8579 C   0  0  0  0  0  0  0  0  0  0  0  0
    6.3687  -15.6477   25.7790 C   0  0  0  0  0  0  0  0  0  0  0  0
    5.4895  -14.6726   26.0214 N   0  0  0  0  0  0  0  0  0  0  0  0
    6.2072  -13.5619   26.2630 C   0  0  0  0  0  0  0  0  0  0  0  0
    5.7753  -12.2708   26.5705 C   0  0  0  0  0  0  0  0  0  0  0  0
    6.7053  -11.2645   26.7853 C   0  0  0  0  0  0  0  0  0  0  0  0
    8.0435  -11.5834   26.6851 C   0  0  0  0  0  0  0  0  0  0  0  0
    8.4854  -12.8545   26.3819 C   0  0  0  0  0  0  0  0  0  0  0  0
    7.5534  -13.8540   26.1687 C   0  0  0  0  0  0  0  0  0  0  0  0
   10.8317  -16.2463   24.0906 C   0  0  0  0  0  0  0  0  0  0  0  0
   11.7874  -16.1414   24.9056 O   0  0  0  0  0  0  0  0  0  0  0  0
   11.0456  -17.0135   22.9287 N   0  0  0  0  0  0  0  0  0  0  0  0
   12.2799  -17.7580   22.7888 C   0  0  0  0  0  0  0  0  0  0  0  0
   13.3292  -17.0173   22.0834 C   0  0  0  0  0  0  0  0  0  0  0  0
   13.1711  -16.7668   20.8626 O   0  0  0  0  0  0  0  0  0  0  0  0
   14.4991  -16.5667   22.6738 O   0  0  0  0  0  0  0  0  0  0  0  0
  2  1  1  6
  3  2  1  0
  4  2  1  0
  4  6  1  0
  4  5  1  6
  6  7  2  0
  8  6  1  0
  8  9  1  0
  9 10  1  1
 10 11  1  0
 11 19  1  0
 12 13  1  0
 12 11  2  0
 13 14  1  0
 14 19  2  0
 14 15  1  0
 15 16  2  0
 16 17  1  0
 18 17  2  0
 19 18  1  0
 20  9  1  0
 20 22  1  0
 21 20  2  0
 23 24  1  0
 23 22  1  0
 24 26  1  0
 25 24  2  0
M  END
$$$$
