TWG.pdb
     RDKit          3D

 26 27  0  0  1  0  0  0  0  0999 V2000
    9.3796  -17.3343   19.9359 C   0  0  0  0  0  0  0  0  0  0  0  0
    8.3449  -16.2339   19.7779 C   0  0  1  0  0  0  0  0  0  0  0  0
    7.5486  -16.5281   18.6855 O   0  0  0  0  0  0  0  0  0  0  0  0
    7.5718  -15.9986   21.0307 C   0  0  2  0  0  0  0  0  0  0  0  0
    6.4206  -15.1585   20.6598 N   0  0  0  0  0  0  0  0  0  0  0  0
    8.3187  -15.4164   22.1441 C   0  0  0  0  0  0  0  0  0  0  0  0
    8.5504  -14.1653   22.1592 O   0  0  0  0  0  0  0  0  0  0  0  0
    8.8097  -16.1752   23.2299 N   0  0  0  0  0  0  0  0  0  0  0  0
    9.4673  -15.5364   24.3442 C   0  0  1  0  0  0  0  0  0  0  0  0
    8.7714  -16.0261   25.5960 C   0  0  0  0  0  0  0  0  0  0  0  0
    7.4916  -15.2954   25.7801 C   0  0  0  0  0  0  0  0  0  0  0  0
    6.2013  -15.7688   25.6743 C   0  0  0  0  0  0  0  0  0  0  0  0
    5.3039  -14.8086   25.9096 N   0  0  0  0  0  0  0  0  0  0  0  0
    6.0010  -13.6898   26.1735 C   0  0  0  0  0  0  0  0  0  0  0  0
    5.5450  -12.4079   26.4844 C   0  0  0  0  0  0  0  0  0  0  0  0
    6.4564  -11.3902   26.7243 C   0  0  0  0  0  0  0  0  0  0  0  0
    7.8006  -11.6890   26.6449 C   0  0  0  0  0  0  0  0  0  0  0  0
    8.2663  -12.9508   26.3386 C   0  0  0  0  0  0  0  0  0  0  0  0
    7.3528  -13.9617   26.1004 C   0  0  0  0  0  0  0  0  0  0  0  0
   10.9095  -15.8377   24.3526 C   0  0  0  0  0  0  0  0  0  0  0  0
   11.6763  -15.4983   25.2937 O   0  0  0  0  0  0  0  0  0  0  0  0
   11.4760  -16.5364   23.2685 N   0  0  0  0  0  0  0  0  0  0  0  0
   12.8957  -16.8230   23.2746 C   0  0  0  0  0  0  0  0  0  0  0  0
   13.3360  -17.6058   22.1168 C   0  0  0  0  0  0  0  0  0  0  0  0
   12.5400  -17.7592   21.1571 O   0  0  0  0  0  0  0  0  0  0  0  0
   14.5840  -18.1969   22.0023 O   0  0  0  0  0  0  0  0  0  0  0  0
  2  1  1  1
  3  2  1  0
  4  2  1  0
  4  6  1  0
  4  5  1  6
  6  7  2  0
  8  6  1  0
  8  9  1  0
  9 10  1  1
 10 11  1  0
 11 19  1  0
 12 13  1  0
 12 11  2  0
 13 14  1  0
 14 19  2  0
 14 15  1  0
 15 16  2  0
 16 17  1  0
 18 17  2  0
 19 18  1  0
 20  9  1  0
 20 22  1  0
 21 20  2  0
 23 24  1  0
 23 22  1  0
 24 26  1  0
 25 24  2  0
M  END
$$$$
