TWG.pdb
     RDKit          3D

 26 27  0  0  1  0  0  0  0  0999 V2000
    9.2918  -17.8206   20.0084 C   0  0  0  0  0  0  0  0  0  0  0  0
    8.2442  -16.7472   19.7702 C   0  0  1  0  0  0  0  0  0  0  0  0
    7.4476  -17.1337   18.7071 O   0  0  0  0  0  0  0  0  0  0  0  0
    7.4727  -16.4244   21.0044 C   0  0  2  0  0  0  0  0  0  0  0  0
    6.3194  -15.6149   20.5764 N   0  0  0  0  0  0  0  0  0  0  0  0
    8.2204  -15.7628   22.0721 C   0  0  0  0  0  0  0  0  0  0  0  0
    8.4942  -14.5242   21.9729 O   0  0  0  0  0  0  0  0  0  0  0  0
    8.6671  -16.4298   23.2345 N   0  0  0  0  0  0  0  0  0  0  0  0
    9.5446  -15.7751   24.1744 C   0  0  1  0  0  0  0  0  0  0  0  0
    8.9767  -16.0387   25.5525 C   0  0  0  0  0  0  0  0  0  0  0  0
    7.7415  -15.2382   25.7505 C   0  0  0  0  0  0  0  0  0  0  0  0
    6.4264  -15.6255   25.6072 C   0  0  0  0  0  0  0  0  0  0  0  0
    5.5861  -14.6221   25.8714 N   0  0  0  0  0  0  0  0  0  0  0  0
    6.3465  -13.5610   26.1923 C   0  0  0  0  0  0  0  0  0  0  0  0
    5.9654  -12.2674   26.5518 C   0  0  0  0  0  0  0  0  0  0  0  0
    6.9337  -11.3193   26.8474 C   0  0  0  0  0  0  0  0  0  0  0  0
    8.2581  -11.6975   26.7733 C   0  0  0  0  0  0  0  0  0  0  0  0
    8.6500  -12.9719   26.4195 C   0  0  0  0  0  0  0  0  0  0  0  0
    7.6800  -13.9131   26.1259 C   0  0  0  0  0  0  0  0  0  0  0  0
   10.9279  -16.2635   24.0375 C   0  0  0  0  0  0  0  0  0  0  0  0
   11.8778  -15.8449   24.7525 O   0  0  0  0  0  0  0  0  0  0  0  0
   11.2223  -17.2432   23.0690 N   0  0  0  0  0  0  0  0  0  0  0  0
   12.5991  -17.6408   22.8595 C   0  0  0  0  0  0  0  0  0  0  0  0
   13.1890  -18.3246   24.0135 C   0  0  0  0  0  0  0  0  0  0  0  0
   12.9658  -17.8671   25.1619 O   0  0  0  0  0  0  0  0  0  0  0  0
   13.9858  -19.4550   23.9284 O   0  0  0  0  0  0  0  0  0  0  0  0
  2  1  1  1
  3  2  1  0
  4  2  1  0
  4  6  1  0
  4  5  1  6
  6  7  2  0
  8  6  1  0
  8  9  1  0
  9 10  1  1
 10 11  1  0
 11 19  1  0
 12 13  1  0
 12 11  2  0
 13 14  1  0
 14 19  2  0
 14 15  1  0
 15 16  2  0
 16 17  1  0
 18 17  2  0
 19 18  1  0
 20  9  1  0
 20 22  1  0
 21 20  2  0
 23 24  1  0
 23 22  1  0
 24 26  1  0
 25 24  2  0
M  END
$$$$
