QWT.pdb
     RDKit          3D

 31 32  0  0  1  0  0  0  0  0999 V2000
   30.4967  -24.0416  -15.5189 N   0  0  0  0  0  0  0  0  0  0  0  0
   30.0484  -23.2009  -16.5963 C   0  0  0  0  0  0  0  0  0  0  0  0
   30.7385  -23.2476  -17.6445 O   0  0  0  0  0  0  0  0  0  0  0  0
   28.8879  -22.3545  -16.4942 C   0  0  0  0  0  0  0  0  0  0  0  0
   28.1443  -22.2785  -15.2263 C   0  0  0  0  0  0  0  0  0  0  0  0
   27.7775  -20.9511  -14.6925 C   0  0  2  0  0  0  0  0  0  0  0  0
   28.7787  -19.9504  -14.6344 N   0  0  0  0  0  0  0  0  0  0  0  0
   27.1895  -21.1314  -13.3332 C   0  0  0  0  0  0  0  0  0  0  0  0
   26.4155  -22.1037  -13.1551 O   0  0  0  0  0  0  0  0  0  0  0  0
   27.4336  -20.2920  -12.2294 N   0  0  0  0  0  0  0  0  0  0  0  0
   26.6605  -20.4353  -11.0205 C   0  0  1  0  0  0  0  0  0  0  0  0
   27.1714  -19.5399   -9.9202 C   0  0  0  0  0  0  0  0  0  0  0  0
   26.7151  -20.0835   -8.6191 C   0  0  0  0  0  0  0  0  0  0  0  0
   25.5515  -20.8233   -8.4065 C   0  0  0  0  0  0  0  0  0  0  0  0
   25.4420  -21.1619   -7.1081 N   0  0  0  0  0  0  0  0  0  0  0  0
   26.5051  -20.6627   -6.4653 C   0  0  0  0  0  0  0  0  0  0  0  0
   26.8514  -20.7397   -5.1229 C   0  0  0  0  0  0  0  0  0  0  0  0
   28.0035  -20.1486   -4.6766 C   0  0  0  0  0  0  0  0  0  0  0  0
   28.8125  -19.4685   -5.5998 C   0  0  0  0  0  0  0  0  0  0  0  0
   28.4408  -19.4100   -6.9188 C   0  0  0  0  0  0  0  0  0  0  0  0
   27.2957  -19.9998   -7.3800 C   0  0  0  0  0  0  0  0  0  0  0  0
   25.2290  -20.1265  -11.3340 C   0  0  0  0  0  0  0  0  0  0  0  0
   24.9707  -18.9655  -11.7341 O   0  0  0  0  0  0  0  0  0  0  0  0
   20.9858  -21.6768  -13.0719 C   0  0  0  0  0  0  0  0  0  0  0  0
   22.4348  -21.8487  -12.7113 C   0  0  1  0  0  0  0  0  0  0  0  0
   23.2369  -21.5499  -13.8333 O   0  0  0  0  0  0  0  0  0  0  0  0
   22.8088  -20.8039  -11.6509 C   0  0  2  0  0  0  0  0  0  0  0  0
   24.1811  -21.0661  -11.2047 N   0  0  0  0  0  0  0  0  0  0  0  0
   21.9241  -20.8638  -10.4984 C   0  0  0  0  0  0  0  0  0  0  0  0
   22.2317  -21.4963   -9.4690 O   0  0  0  0  0  0  0  0  0  0  0  0
   20.6962  -20.2094  -10.5117 O   0  0  0  0  0  0  0  0  0  0  0  0
  2  3  2  0
  2  1  1  0
  4  2  1  0
  5  4  1  0
  6  5  1  0
  6  7  1  1
  8  9  2  0
  8  6  1  0
 10  8  1  0
 11 10  1  0
 11 12  1  1
 12 13  1  0
 13 21  1  0
 13 14  2  0
 14 15  1  0
 16 15  1  0
 16 17  2  0
 18 17  1  0
 19 18  2  0
 20 21  2  0
 20 19  1  0
 21 16  1  0
 22 28  1  0
 22 11  1  0
 23 22  2  0
 25 27  1  0
 25 24  1  6
 26 25  1  0
 27 29  1  0
 27 28  1  1
 29 31  1  0
 30 29  2  0
M  END
$$$$
