QWT.pdb
     RDKit          3D

 31 32  0  0  1  0  0  0  0  0999 V2000
   21.5214  -23.8742  -16.3069 N   0  0  0  0  0  0  0  0  0  0  0  0
   20.8806  -24.5599  -15.2171 C   0  0  0  0  0  0  0  0  0  0  0  0
   20.0943  -25.4830  -15.5440 O   0  0  0  0  0  0  0  0  0  0  0  0
   21.1132  -24.2203  -13.8372 C   0  0  0  0  0  0  0  0  0  0  0  0
   22.1369  -23.2214  -13.4898 C   0  0  0  0  0  0  0  0  0  0  0  0
   23.5145  -23.4084  -13.9883 C   0  0  2  0  0  0  0  0  0  0  0  0
   24.1742  -24.6281  -13.6979 N   0  0  0  0  0  0  0  0  0  0  0  0
   24.3533  -22.2736  -13.5039 C   0  0  0  0  0  0  0  0  0  0  0  0
   23.8992  -21.1111  -13.6398 O   0  0  0  0  0  0  0  0  0  0  0  0
   25.6210  -22.4038  -12.9051 N   0  0  0  0  0  0  0  0  0  0  0  0
   26.4038  -21.2330  -12.5950 C   0  0  1  0  0  0  0  0  0  0  0  0
   27.4186  -21.5085  -11.5145 C   0  0  0  0  0  0  0  0  0  0  0  0
   26.9299  -20.9175  -10.2462 C   0  0  0  0  0  0  0  0  0  0  0  0
   25.6296  -20.4763   -9.9990 C   0  0  0  0  0  0  0  0  0  0  0  0
   25.5275  -19.9977   -8.7449 N   0  0  0  0  0  0  0  0  0  0  0  0
   26.7284  -20.1148   -8.1646 C   0  0  0  0  0  0  0  0  0  0  0  0
   27.1367  -19.7662   -6.8841 C   0  0  0  0  0  0  0  0  0  0  0  0
   28.4324  -19.9803   -6.4951 C   0  0  0  0  0  0  0  0  0  0  0  0
   29.3259  -20.5507   -7.4146 C   0  0  0  0  0  0  0  0  0  0  0  0
   28.8906  -20.8822   -8.6723 C   0  0  0  0  0  0  0  0  0  0  0  0
   27.5984  -20.6790   -9.0733 C   0  0  0  0  0  0  0  0  0  0  0  0
   27.0772  -20.7676  -13.8491 C   0  0  0  0  0  0  0  0  0  0  0  0
   28.0431  -21.4522  -14.2653 O   0  0  0  0  0  0  0  0  0  0  0  0
   25.3294  -20.1170  -17.1527 C   0  0  0  0  0  0  0  0  0  0  0  0
   26.1035  -18.8735  -16.8155 C   0  0  1  0  0  0  0  0  0  0  0  0
   25.2808  -17.9923  -16.0821 O   0  0  0  0  0  0  0  0  0  0  0  0
   27.2513  -19.2465  -15.8672 C   0  0  2  0  0  0  0  0  0  0  0  0
   26.6787  -19.6186  -14.5692 N   0  0  0  0  0  0  0  0  0  0  0  0
   28.1711  -18.1374  -15.6705 C   0  0  0  0  0  0  0  0  0  0  0  0
   28.9401  -17.7561  -16.5748 O   0  0  0  0  0  0  0  0  0  0  0  0
   28.2192  -17.4627  -14.4546 O   0  0  0  0  0  0  0  0  0  0  0  0
  2  3  2  0
  2  1  1  0
  4  2  1  0
  5  4  1  0
  6  5  1  0
  6  7  1  1
  8  9  2  0
  8  6  1  0
 10  8  1  0
 11 10  1  0
 11 12  1  1
 12 13  1  0
 13 21  1  0
 13 14  2  0
 14 15  1  0
 16 15  1  0
 16 17  2  0
 18 17  1  0
 19 18  2  0
 20 21  2  0
 20 19  1  0
 21 16  1  0
 22 28  1  0
 22 11  1  0
 23 22  2  0
 25 27  1  0
 25 24  1  1
 26 25  1  0
 27 29  1  0
 27 28  1  1
 29 31  1  0
 30 29  2  0
M  END
$$$$
