QWT.pdb
     RDKit          3D

 31 32  0  0  1  0  0  0  0  0999 V2000
   23.7437  -18.5698  -19.4013 N   0  0  0  0  0  0  0  0  0  0  0  0
   24.6121  -17.4235  -19.3885 C   0  0  0  0  0  0  0  0  0  0  0  0
   24.0378  -16.3071  -19.4207 O   0  0  0  0  0  0  0  0  0  0  0  0
   26.0473  -17.5325  -19.3442 C   0  0  0  0  0  0  0  0  0  0  0  0
   26.7374  -17.6130  -18.0467 C   0  0  0  0  0  0  0  0  0  0  0  0
   27.4736  -18.8471  -17.7053 C   0  0  2  0  0  0  0  0  0  0  0  0
   27.6550  -19.8225  -18.7165 N   0  0  0  0  0  0  0  0  0  0  0  0
   26.8147  -19.4831  -16.5274 C   0  0  0  0  0  0  0  0  0  0  0  0
   25.9484  -20.3647  -16.7474 O   0  0  0  0  0  0  0  0  0  0  0  0
   27.0875  -19.1698  -15.1821 N   0  0  0  0  0  0  0  0  0  0  0  0
   26.4483  -19.9053  -14.1190 C   0  0  1  0  0  0  0  0  0  0  0  0
   27.1582  -19.7160  -12.8023 C   0  0  0  0  0  0  0  0  0  0  0  0
   26.4890  -20.5554  -11.7804 C   0  0  0  0  0  0  0  0  0  0  0  0
   26.0293  -21.8592  -11.9685 C   0  0  0  0  0  0  0  0  0  0  0  0
   25.4743  -22.3285  -10.8354 N   0  0  0  0  0  0  0  0  0  0  0  0
   25.5594  -21.3649   -9.9098 C   0  0  0  0  0  0  0  0  0  0  0  0
   25.1343  -21.3592   -8.5881 C   0  0  0  0  0  0  0  0  0  0  0  0
   25.3282  -20.2489   -7.8098 C   0  0  0  0  0  0  0  0  0  0  0  0
   25.9567  -19.1302   -8.3776 C   0  0  0  0  0  0  0  0  0  0  0  0
   26.3634  -19.1681   -9.6870 C   0  0  0  0  0  0  0  0  0  0  0  0
   26.1811  -20.2716  -10.4750 C   0  0  0  0  0  0  0  0  0  0  0  0
   25.0229  -19.4561  -14.0225 C   0  0  0  0  0  0  0  0  0  0  0  0
   24.8191  -18.2210  -13.9344 O   0  0  0  0  0  0  0  0  0  0  0  0
   22.2388  -19.2942  -16.1933 C   0  0  0  0  0  0  0  0  0  0  0  0
   21.7385  -20.1923  -15.0969 C   0  0  1  0  0  0  0  0  0  0  0  0
   22.0205  -21.5357  -15.4245 O   0  0  0  0  0  0  0  0  0  0  0  0
   22.5384  -19.9063  -13.8185 C   0  0  2  0  0  0  0  0  0  0  0  0
   23.9226  -20.3431  -14.0296 N   0  0  0  0  0  0  0  0  0  0  0  0
   21.9951  -20.6160  -12.6715 C   0  0  0  0  0  0  0  0  0  0  0  0
   22.6034  -21.5662  -12.1410 O   0  0  0  0  0  0  0  0  0  0  0  0
   20.7679  -20.2503  -12.1271 O   0  0  0  0  0  0  0  0  0  0  0  0
  2  3  2  0
  2  1  1  0
  4  2  1  0
  5  4  1  0
  6  5  1  0
  6  7  1  6
  8  9  2  0
  8  6  1  0
 10  8  1  0
 11 10  1  0
 11 12  1  1
 12 13  1  0
 13 21  1  0
 13 14  2  0
 14 15  1  0
 16 15  1  0
 16 17  2  0
 18 17  1  0
 19 18  2  0
 20 21  2  0
 20 19  1  0
 21 16  1  0
 22 28  1  0
 22 11  1  0
 23 22  2  0
 25 27  1  0
 25 24  1  6
 26 25  1  0
 27 29  1  0
 27 28  1  6
 29 31  1  0
 30 29  2  0
M  END
$$$$
