QWT.pdb
     RDKit          3D

 31 32  0  0  1  0  0  0  0  0999 V2000
   27.8336  -21.2544  -17.1640 N   0  0  0  0  0  0  0  0  0  0  0  0
   28.6901  -20.1187  -16.9521 C   0  0  0  0  0  0  0  0  0  0  0  0
   29.4413  -19.8186  -17.9127 O   0  0  0  0  0  0  0  0  0  0  0  0
   28.6988  -19.3665  -15.7242 C   0  0  0  0  0  0  0  0  0  0  0  0
   27.8188  -19.7647  -14.6135 C   0  0  0  0  0  0  0  0  0  0  0  0
   28.3798  -20.5760  -13.5142 C   0  0  2  0  0  0  0  0  0  0  0  0
   28.9459  -21.8356  -13.8303 N   0  0  0  0  0  0  0  0  0  0  0  0
   27.3252  -20.7627  -12.4754 C   0  0  0  0  0  0  0  0  0  0  0  0
   26.6146  -21.7955  -12.5425 O   0  0  0  0  0  0  0  0  0  0  0  0
   27.0614  -19.8668  -11.4217 N   0  0  0  0  0  0  0  0  0  0  0  0
   25.9567  -20.1020  -10.5251 C   0  0  1  0  0  0  0  0  0  0  0  0
   25.9879  -19.1683   -9.3416 C   0  0  0  0  0  0  0  0  0  0  0  0
   26.1800  -19.9720   -8.1113 C   0  0  0  0  0  0  0  0  0  0  0  0
   25.4935  -21.1420   -7.7851 C   0  0  0  0  0  0  0  0  0  0  0  0
   25.9142  -21.6167   -6.5977 N   0  0  0  0  0  0  0  0  0  0  0  0
   26.8593  -20.7871   -6.1384 C   0  0  0  0  0  0  0  0  0  0  0  0
   27.5978  -20.8412   -4.9638 C   0  0  0  0  0  0  0  0  0  0  0  0
   28.5280  -19.8730   -4.6931 C   0  0  0  0  0  0  0  0  0  0  0  0
   28.7100  -18.8361   -5.6209 C   0  0  0  0  0  0  0  0  0  0  0  0
   27.9631  -18.8114   -6.7710 C   0  0  0  0  0  0  0  0  0  0  0  0
   27.0341  -19.7741   -7.0573 C   0  0  0  0  0  0  0  0  0  0  0  0
   24.6809  -19.9424  -11.2931 C   0  0  0  0  0  0  0  0  0  0  0  0
   24.4765  -18.8286  -11.8339 O   0  0  0  0  0  0  0  0  0  0  0  0
   23.4628  -21.7552  -14.2270 C   0  0  0  0  0  0  0  0  0  0  0  0
   22.3630  -21.9248  -13.2166 C   0  0  1  0  0  0  0  0  0  0  0  0
   22.5661  -23.1220  -12.4976 O   0  0  0  0  0  0  0  0  0  0  0  0
   22.4675  -20.8004  -12.1772 C   0  0  2  0  0  0  0  0  0  0  0  0
   23.7208  -20.9699  -11.4344 N   0  0  0  0  0  0  0  0  0  0  0  0
   21.3596  -20.8307  -11.2357 C   0  0  0  0  0  0  0  0  0  0  0  0
   21.5260  -21.1352  -10.0382 O   0  0  0  0  0  0  0  0  0  0  0  0
   20.0685  -20.5169  -11.6490 O   0  0  0  0  0  0  0  0  0  0  0  0
  2  3  2  0
  2  1  1  0
  4  2  1  0
  5  4  1  0
  6  5  1  0
  6  7  1  6
  8  9  2  0
  8  6  1  0
 10  8  1  0
 11 10  1  0
 11 12  1  1
 12 13  1  0
 13 21  1  0
 13 14  2  0
 14 15  1  0
 16 15  1  0
 16 17  2  0
 18 17  1  0
 19 18  2  0
 20 21  2  0
 20 19  1  0
 21 16  1  0
 22 28  1  0
 22 11  1  0
 23 22  2  0
 25 27  1  0
 25 24  1  6
 26 25  1  0
 27 29  1  0
 27 28  1  1
 29 31  1  0
 30 29  2  0
M  END
$$$$
