QWT.pdb
     RDKit          3D

 31 32  0  0  1  0  0  0  0  0999 V2000
   25.0691  -20.5227  -17.2323 N   0  0  0  0  0  0  0  0  0  0  0  0
   25.9011  -21.5475  -17.8034 C   0  0  0  0  0  0  0  0  0  0  0  0
   26.0335  -21.5061  -19.0515 O   0  0  0  0  0  0  0  0  0  0  0  0
   26.5447  -22.5620  -17.0096 C   0  0  0  0  0  0  0  0  0  0  0  0
   26.4532  -22.5129  -15.5414 C   0  0  0  0  0  0  0  0  0  0  0  0
   26.9902  -21.3341  -14.8320 C   0  0  2  0  0  0  0  0  0  0  0  0
   28.3897  -21.1149  -14.8572 N   0  0  0  0  0  0  0  0  0  0  0  0
   26.5302  -21.3828  -13.4135 C   0  0  0  0  0  0  0  0  0  0  0  0
   25.4152  -21.9096  -13.1781 O   0  0  0  0  0  0  0  0  0  0  0  0
   27.2503  -20.8803  -12.3128 N   0  0  0  0  0  0  0  0  0  0  0  0
   26.6782  -20.9180  -10.9896 C   0  0  1  0  0  0  0  0  0  0  0  0
   27.5974  -20.3031   -9.9648 C   0  0  0  0  0  0  0  0  0  0  0  0
   26.9988  -20.4892   -8.6218 C   0  0  0  0  0  0  0  0  0  0  0  0
   25.8036  -21.1540   -8.3458 C   0  0  0  0  0  0  0  0  0  0  0  0
   25.5547  -21.1409   -7.0229 N   0  0  0  0  0  0  0  0  0  0  0  0
   26.5571  -20.4846   -6.4256 C   0  0  0  0  0  0  0  0  0  0  0  0
   26.7627  -20.2050   -5.0812 C   0  0  0  0  0  0  0  0  0  0  0  0
   27.8759  -19.5109   -4.6872 C   0  0  0  0  0  0  0  0  0  0  0  0
   28.7897  -19.0922   -5.6664 C   0  0  0  0  0  0  0  0  0  0  0  0
   28.5561  -19.3836   -6.9862 C   0  0  0  0  0  0  0  0  0  0  0  0
   27.4514  -20.0802   -7.3941 C   0  0  0  0  0  0  0  0  0  0  0  0
   25.3637  -20.2009  -11.0212 C   0  0  0  0  0  0  0  0  0  0  0  0
   25.3941  -18.9636  -11.2283 O   0  0  0  0  0  0  0  0  0  0  0  0
   20.9756  -20.3442  -12.8108 C   0  0  0  0  0  0  0  0  0  0  0  0
   22.3900  -20.7808  -12.5497 C   0  0  1  0  0  0  0  0  0  0  0  0
   23.2483  -20.1853  -13.4985 O   0  0  0  0  0  0  0  0  0  0  0  0
   22.8363  -20.2268  -11.1896 C   0  0  2  0  0  0  0  0  0  0  0  0
   24.1189  -20.8439  -10.8354 N   0  0  0  0  0  0  0  0  0  0  0  0
   21.8712  -20.5231  -10.1429 C   0  0  0  0  0  0  0  0  0  0  0  0
   22.0500  -21.4525   -9.3314 O   0  0  0  0  0  0  0  0  0  0  0  0
   20.7087  -19.7691  -10.0157 O   0  0  0  0  0  0  0  0  0  0  0  0
  2  3  2  0
  2  1  1  0
  4  2  1  0
  5  4  1  0
  6  5  1  0
  6  7  1  1
  8  9  2  0
  8  6  1  0
 10  8  1  0
 11 10  1  0
 11 12  1  1
 12 13  1  0
 13 21  1  0
 13 14  2  0
 14 15  1  0
 16 15  1  0
 16 17  2  0
 18 17  1  0
 19 18  2  0
 20 21  2  0
 20 19  1  0
 21 16  1  0
 22 28  1  0
 22 11  1  0
 23 22  2  0
 25 27  1  0
 25 24  1  6
 26 25  1  0
 27 29  1  0
 27 28  1  1
 29 31  1  0
 30 29  2  0
M  END
$$$$
