QWT.pdb
     RDKit          3D

 31 32  0  0  1  0  0  0  0  0999 V2000
   16.8916   -9.5376  -20.7355 N   0  0  0  0  0  0  0  0  0  0  0  0
   17.5933  -10.7931  -20.7478 C   0  0  0  0  0  0  0  0  0  0  0  0
   17.9185  -11.2219  -21.8825 O   0  0  0  0  0  0  0  0  0  0  0  0
   17.9073  -11.5230  -19.5469 C   0  0  0  0  0  0  0  0  0  0  0  0
   17.4435  -11.0237  -18.2423 C   0  0  0  0  0  0  0  0  0  0  0  0
   17.8759  -11.7237  -17.0157 C   0  0  2  0  0  0  0  0  0  0  0  0
   17.1619  -12.8799  -16.6150 N   0  0  0  0  0  0  0  0  0  0  0  0
   17.8893  -10.7448  -15.8897 C   0  0  0  0  0  0  0  0  0  0  0  0
   16.7851  -10.3967  -15.4042 O   0  0  0  0  0  0  0  0  0  0  0  0
   19.0481  -10.1764  -15.3270 N   0  0  0  0  0  0  0  0  0  0  0  0
   18.9411   -9.1914  -14.2793 C   0  0  1  0  0  0  0  0  0  0  0  0
   20.1300   -9.2287  -13.3526 C   0  0  0  0  0  0  0  0  0  0  0  0
   19.9093   -8.2495  -12.2622 C   0  0  0  0  0  0  0  0  0  0  0  0
   19.1069   -8.4467  -11.1380 C   0  0  0  0  0  0  0  0  0  0  0  0
   19.1311   -7.3570  -10.3479 N   0  0  0  0  0  0  0  0  0  0  0  0
   19.9297   -6.4513  -10.9262 C   0  0  0  0  0  0  0  0  0  0  0  0
   20.2787   -5.1745  -10.5070 C   0  0  0  0  0  0  0  0  0  0  0  0
   21.1256   -4.4109  -11.2657 C   0  0  0  0  0  0  0  0  0  0  0  0
   21.6221   -4.9451  -12.4645 C   0  0  0  0  0  0  0  0  0  0  0  0
   21.2564   -6.2094  -12.8506 C   0  0  0  0  0  0  0  0  0  0  0  0
   20.4155   -6.9856  -12.1008 C   0  0  0  0  0  0  0  0  0  0  0  0
   18.8032   -7.8406  -14.9111 C   0  0  0  0  0  0  0  0  0  0  0  0
   19.5348   -7.5969  -15.9012 O   0  0  0  0  0  0  0  0  0  0  0  0
   15.3740   -5.5038  -14.4050 C   0  0  0  0  0  0  0  0  0  0  0  0
   16.2932   -5.4226  -15.5915 C   0  0  1  0  0  0  0  0  0  0  0  0
   16.2005   -4.1391  -16.1707 O   0  0  0  0  0  0  0  0  0  0  0  0
   17.7432   -5.5480  -15.1041 C   0  0  2  0  0  0  0  0  0  0  0  0
   17.9028   -6.8523  -14.4526 N   0  0  0  0  0  0  0  0  0  0  0  0
   18.0841   -4.5051  -14.1497 C   0  0  0  0  0  0  0  0  0  0  0  0
   18.2221   -3.3166  -14.5000 O   0  0  0  0  0  0  0  0  0  0  0  0
   18.2674   -4.8074  -12.8039 O   0  0  0  0  0  0  0  0  0  0  0  0
  2  3  2  0
  2  1  1  0
  4  2  1  0
  5  4  1  0
  6  5  1  0
  6  7  1  1
  8  9  2  0
  8  6  1  0
 10  8  1  0
 11 10  1  0
 11 12  1  1
 12 13  1  0
 13 21  1  0
 13 14  2  0
 14 15  1  0
 16 15  1  0
 16 17  2  0
 18 17  1  0
 19 18  2  0
 20 21  2  0
 20 19  1  0
 21 16  1  0
 22 28  1  0
 22 11  1  0
 23 22  2  0
 25 27  1  0
 25 24  1  1
 26 25  1  0
 27 29  1  0
 27 28  1  1
 29 31  1  0
 30 29  2  0
M  END
$$$$
