QWT.pdb
     RDKit          3D

 31 32  0  0  1  0  0  0  0  0999 V2000
   27.3071  -37.1324  -12.2343 N   0  0  0  0  0  0  0  0  0  0  0  0
   25.8805  -37.0210  -12.3784 C   0  0  0  0  0  0  0  0  0  0  0  0
   25.3977  -37.5388  -13.4156 O   0  0  0  0  0  0  0  0  0  0  0  0
   25.0476  -36.3604  -11.4070 C   0  0  0  0  0  0  0  0  0  0  0  0
   25.6598  -35.7037  -10.2407 C   0  0  0  0  0  0  0  0  0  0  0  0
   25.3204  -34.2949   -9.9552 C   0  0  2  0  0  0  0  0  0  0  0  0
   25.6888  -33.3096  -10.9043 N   0  0  0  0  0  0  0  0  0  0  0  0
   25.8909  -33.9286   -8.6262 C   0  0  0  0  0  0  0  0  0  0  0  0
   27.0329  -33.4075   -8.6035 O   0  0  0  0  0  0  0  0  0  0  0  0
   25.2475  -34.1239   -7.3891 N   0  0  0  0  0  0  0  0  0  0  0  0
   25.8834  -33.7074   -6.1637 C   0  0  1  0  0  0  0  0  0  0  0  0
   24.9703  -32.8521   -5.3220 C   0  0  0  0  0  0  0  0  0  0  0  0
   24.9740  -31.4756   -5.8714 C   0  0  0  0  0  0  0  0  0  0  0  0
   24.7138  -31.1249   -7.1965 C   0  0  0  0  0  0  0  0  0  0  0  0
   24.7978  -29.7905   -7.3532 N   0  0  0  0  0  0  0  0  0  0  0  0
   25.1059  -29.2585   -6.1638 C   0  0  0  0  0  0  0  0  0  0  0  0
   25.3011  -27.9315   -5.8051 C   0  0  0  0  0  0  0  0  0  0  0  0
   25.6114  -27.6092   -4.5106 C   0  0  0  0  0  0  0  0  0  0  0  0
   25.7289  -28.6431   -3.5691 C   0  0  0  0  0  0  0  0  0  0  0  0
   25.5311  -29.9439   -3.9566 C   0  0  0  0  0  0  0  0  0  0  0  0
   25.2156  -30.2805   -5.2447 C   0  0  0  0  0  0  0  0  0  0  0  0
   26.3079  -34.9304   -5.4106 C   0  0  0  0  0  0  0  0  0  0  0  0
   25.4000  -35.7057   -5.0242 O   0  0  0  0  0  0  0  0  0  0  0  0
   29.3027  -37.1786   -6.5205 C   0  0  0  0  0  0  0  0  0  0  0  0
   29.4437  -36.8961   -5.0510 C   0  0  1  0  0  0  0  0  0  0  0  0
   30.2686  -35.7660   -4.8668 O   0  0  0  0  0  0  0  0  0  0  0  0
   28.0721  -36.4975   -4.4894 C   0  0  2  0  0  0  0  0  0  0  0  0
   27.6565  -35.2432   -5.1260 N   0  0  0  0  0  0  0  0  0  0  0  0
   28.1155  -36.2977   -3.0496 C   0  0  0  0  0  0  0  0  0  0  0  0
   28.0609  -35.1592   -2.5445 O   0  0  0  0  0  0  0  0  0  0  0  0
   28.2197  -37.3834   -2.1855 O   0  0  0  0  0  0  0  0  0  0  0  0
  2  3  2  0
  2  1  1  0
  4  2  1  0
  5  4  1  0
  6  5  1  0
  6  7  1  6
  8  9  2  0
  8  6  1  0
 10  8  1  0
 11 10  1  0
 11 12  1  1
 12 13  1  0
 13 21  1  0
 13 14  2  0
 14 15  1  0
 16 15  1  0
 16 17  2  0
 18 17  1  0
 19 18  2  0
 20 21  2  0
 20 19  1  0
 21 16  1  0
 22 28  1  0
 22 11  1  0
 23 22  2  0
 25 27  1  0
 25 24  1  6
 26 25  1  0
 27 29  1  0
 27 28  1  6
 29 31  1  0
 30 29  2  0
M  END
$$$$
