QWT.pdb
     RDKit          3D

 31 32  0  0  1  0  0  0  0  0999 V2000
   25.9830  -17.9998  -15.1365 N   0  0  0  0  0  0  0  0  0  0  0  0
   26.5882  -18.2422  -16.4184 C   0  0  0  0  0  0  0  0  0  0  0  0
   26.8807  -17.2176  -17.0830 O   0  0  0  0  0  0  0  0  0  0  0  0
   26.8461  -19.5667  -16.9213 C   0  0  0  0  0  0  0  0  0  0  0  0
   26.6883  -20.7316  -16.0356 C   0  0  0  0  0  0  0  0  0  0  0  0
   27.5154  -20.8172  -14.8149 C   0  0  2  0  0  0  0  0  0  0  0  0
   28.6102  -21.7163  -14.8070 N   0  0  0  0  0  0  0  0  0  0  0  0
   26.6247  -21.1238  -13.6579 C   0  0  0  0  0  0  0  0  0  0  0  0
   26.1967  -22.2986  -13.5446 O   0  0  0  0  0  0  0  0  0  0  0  0
   26.2226  -20.1947  -12.6793 N   0  0  0  0  0  0  0  0  0  0  0  0
   25.3731  -20.6068  -11.5893 C   0  0  1  0  0  0  0  0  0  0  0  0
   25.6469  -19.8144  -10.3360 C   0  0  0  0  0  0  0  0  0  0  0  0
   26.8528  -20.3720   -9.6792 C   0  0  0  0  0  0  0  0  0  0  0  0
   27.7842  -21.2252  -10.2716 C   0  0  0  0  0  0  0  0  0  0  0  0
   28.7567  -21.5387   -9.3950 N   0  0  0  0  0  0  0  0  0  0  0  0
   28.4856  -20.9117   -8.2435 C   0  0  0  0  0  0  0  0  0  0  0  0
   29.1826  -20.9136   -7.0427 C   0  0  0  0  0  0  0  0  0  0  0  0
   28.7177  -20.1875   -5.9784 C   0  0  0  0  0  0  0  0  0  0  0  0
   27.5313  -19.4538   -6.1309 C   0  0  0  0  0  0  0  0  0  0  0  0
   26.8662  -19.4744   -7.3303 C   0  0  0  0  0  0  0  0  0  0  0  0
   27.3212  -20.1908   -8.4035 C   0  0  0  0  0  0  0  0  0  0  0  0
   23.9459  -20.4494  -12.0152 C   0  0  0  0  0  0  0  0  0  0  0  0
   23.5345  -19.2798  -12.2088 O   0  0  0  0  0  0  0  0  0  0  0  0
   22.4743  -22.1408  -14.9817 C   0  0  0  0  0  0  0  0  0  0  0  0
   21.5169  -22.4339  -13.8607 C   0  0  1  0  0  0  0  0  0  0  0  0
   21.8505  -23.6710  -13.2693 O   0  0  0  0  0  0  0  0  0  0  0  0
   21.7121  -21.3864  -12.7560 C   0  0  2  0  0  0  0  0  0  0  0  0
   23.0639  -21.5369  -12.2071 N   0  0  0  0  0  0  0  0  0  0  0  0
   20.7500  -21.5526  -11.6783 C   0  0  0  0  0  0  0  0  0  0  0  0
   21.1027  -21.8945  -10.5325 O   0  0  0  0  0  0  0  0  0  0  0  0
   19.3938  -21.3316  -11.8977 O   0  0  0  0  0  0  0  0  0  0  0  0
  2  3  2  0
  2  1  1  0
  4  2  1  0
  5  4  1  0
  6  5  1  0
  6  7  1  6
  8  9  2  0
  8  6  1  0
 10  8  1  0
 11 10  1  0
 11 12  1  1
 12 13  1  0
 13 21  1  0
 13 14  2  0
 14 15  1  0
 16 15  1  0
 16 17  2  0
 18 17  1  0
 19 18  2  0
 20 21  2  0
 20 19  1  0
 21 16  1  0
 22 28  1  0
 22 11  1  0
 23 22  2  0
 25 27  1  0
 25 24  1  6
 26 25  1  0
 27 29  1  0
 27 28  1  1
 29 31  1  0
 30 29  2  0
M  END
$$$$
