QWT.pdb
     RDKit          3D

 31 32  0  0  1  0  0  0  0  0999 V2000
   27.2356  -16.4603  -14.5246 N   0  0  0  0  0  0  0  0  0  0  0  0
   27.8057  -17.0263  -15.7175 C   0  0  0  0  0  0  0  0  0  0  0  0
   28.5500  -16.2613  -16.3792 O   0  0  0  0  0  0  0  0  0  0  0  0
   27.5475  -18.3787  -16.1397 C   0  0  0  0  0  0  0  0  0  0  0  0
   26.8527  -19.3096  -15.2358 C   0  0  0  0  0  0  0  0  0  0  0  0
   27.6522  -20.1264  -14.3004 C   0  0  2  0  0  0  0  0  0  0  0  0
   28.5198  -21.1085  -14.8390 N   0  0  0  0  0  0  0  0  0  0  0  0
   26.7273  -20.7752  -13.3259 C   0  0  0  0  0  0  0  0  0  0  0  0
   26.2351  -21.8872  -13.6381 O   0  0  0  0  0  0  0  0  0  0  0  0
   26.3594  -20.2354  -12.0786 N   0  0  0  0  0  0  0  0  0  0  0  0
   25.3972  -20.9145  -11.2464 C   0  0  1  0  0  0  0  0  0  0  0  0
   25.5420  -20.5301   -9.7957 C   0  0  0  0  0  0  0  0  0  0  0  0
   26.9450  -20.7687   -9.3820 C   0  0  0  0  0  0  0  0  0  0  0  0
   27.8892  -21.5134  -10.0893 C   0  0  0  0  0  0  0  0  0  0  0  0
   29.0640  -21.5262   -9.4321 N   0  0  0  0  0  0  0  0  0  0  0  0
   28.9129  -20.8081   -8.3123 C   0  0  0  0  0  0  0  0  0  0  0  0
   29.8270  -20.5229   -7.3069 C   0  0  0  0  0  0  0  0  0  0  0  0
   29.4521  -19.7547   -6.2366 C   0  0  0  0  0  0  0  0  0  0  0  0
   28.1354  -19.2728   -6.1821 C   0  0  0  0  0  0  0  0  0  0  0  0
   27.2567  -19.5741   -7.1913 C   0  0  0  0  0  0  0  0  0  0  0  0
   27.6182  -20.3358   -8.2689 C   0  0  0  0  0  0  0  0  0  0  0  0
   24.0239  -20.5884  -11.7471 C   0  0  0  0  0  0  0  0  0  0  0  0
   23.7283  -19.3731  -11.8501 O   0  0  0  0  0  0  0  0  0  0  0  0
   22.6041  -21.7736  -14.9725 C   0  0  0  0  0  0  0  0  0  0  0  0
   21.5737  -22.1356  -13.9398 C   0  0  1  0  0  0  0  0  0  0  0  0
   21.8016  -23.4539  -13.4907 O   0  0  0  0  0  0  0  0  0  0  0  0
   21.7730  -21.2431  -12.7072 C   0  0  2  0  0  0  0  0  0  0  0  0
   23.0696  -21.5681  -12.1035 N   0  0  0  0  0  0  0  0  0  0  0  0
   20.7309  -21.4525  -11.7148 C   0  0  0  0  0  0  0  0  0  0  0  0
   20.9636  -22.0237  -10.6314 O   0  0  0  0  0  0  0  0  0  0  0  0
   19.4306  -21.0159  -11.9486 O   0  0  0  0  0  0  0  0  0  0  0  0
  2  3  2  0
  2  1  1  0
  4  2  1  0
  5  4  1  0
  6  5  1  0
  6  7  1  6
  8  9  2  0
  8  6  1  0
 10  8  1  0
 11 10  1  0
 11 12  1  1
 12 13  1  0
 13 21  1  0
 13 14  2  0
 14 15  1  0
 16 15  1  0
 16 17  2  0
 18 17  1  0
 19 18  2  0
 20 21  2  0
 20 19  1  0
 21 16  1  0
 22 28  1  0
 22 11  1  0
 23 22  2  0
 25 27  1  0
 25 24  1  6
 26 25  1  0
 27 29  1  0
 27 28  1  1
 29 31  1  0
 30 29  2  0
M  END
$$$$
