QWT.pdb
     RDKit          3D

 31 32  0  0  1  0  0  0  0  0999 V2000
   27.3746  -17.2705  -15.5149 N   0  0  0  0  0  0  0  0  0  0  0  0
   27.8899  -18.0881  -16.5801 C   0  0  0  0  0  0  0  0  0  0  0  0
   28.7157  -17.5284  -17.3430 O   0  0  0  0  0  0  0  0  0  0  0  0
   27.4930  -19.4587  -16.7734 C   0  0  0  0  0  0  0  0  0  0  0  0
   26.7060  -20.1478  -15.7379 C   0  0  0  0  0  0  0  0  0  0  0  0
   27.4160  -20.8152  -14.6281 C   0  0  2  0  0  0  0  0  0  0  0  0
   28.2168  -21.9453  -14.9261 N   0  0  0  0  0  0  0  0  0  0  0  0
   26.4196  -21.1865  -13.5815 C   0  0  0  0  0  0  0  0  0  0  0  0
   25.6946  -22.1892  -13.7938 O   0  0  0  0  0  0  0  0  0  0  0  0
   26.2258  -20.4967  -12.3694 N   0  0  0  0  0  0  0  0  0  0  0  0
   25.1993  -20.9175  -11.4481 C   0  0  1  0  0  0  0  0  0  0  0  0
   25.4165  -20.3467  -10.0695 C   0  0  0  0  0  0  0  0  0  0  0  0
   26.7796  -20.7122   -9.6168 C   0  0  0  0  0  0  0  0  0  0  0  0
   27.7064  -21.4628  -10.3408 C   0  0  0  0  0  0  0  0  0  0  0  0
   28.8450  -21.6069   -9.6371 N   0  0  0  0  0  0  0  0  0  0  0  0
   28.6872  -20.9691   -8.4706 C   0  0  0  0  0  0  0  0  0  0  0  0
   29.5685  -20.8259   -7.4073 C   0  0  0  0  0  0  0  0  0  0  0  0
   29.1933  -20.1191   -6.2956 C   0  0  0  0  0  0  0  0  0  0  0  0
   27.9095  -19.5538   -6.2589 C   0  0  0  0  0  0  0  0  0  0  0  0
   27.0627  -19.7151   -7.3257 C   0  0  0  0  0  0  0  0  0  0  0  0
   27.4253  -20.4140   -8.4447 C   0  0  0  0  0  0  0  0  0  0  0  0
   23.8703  -20.4947  -11.9939 C   0  0  0  0  0  0  0  0  0  0  0  0
   23.6303  -19.2632  -12.0197 O   0  0  0  0  0  0  0  0  0  0  0  0
   22.5058  -20.9558  -15.3202 C   0  0  0  0  0  0  0  0  0  0  0  0
   21.4582  -21.5643  -14.4306 C   0  0  1  0  0  0  0  0  0  0  0  0
   21.7053  -22.9466  -14.2913 O   0  0  0  0  0  0  0  0  0  0  0  0
   21.6052  -20.9780  -13.0197 C   0  0  2  0  0  0  0  0  0  0  0  0
   22.8986  -21.4021  -12.4733 N   0  0  0  0  0  0  0  0  0  0  0  0
   20.5500  -21.4383  -12.1312 C   0  0  0  0  0  0  0  0  0  0  0  0
   19.3875  -20.9948  -12.2102 O   0  0  0  0  0  0  0  0  0  0  0  0
   20.8106  -22.3976  -11.1575 O   0  0  0  0  0  0  0  0  0  0  0  0
  2  3  2  0
  2  1  1  0
  4  2  1  0
  5  4  1  0
  6  5  1  0
  6  7  1  6
  8  9  2  0
  8  6  1  0
 10  8  1  0
 11 10  1  0
 11 12  1  1
 12 13  1  0
 13 21  1  0
 13 14  2  0
 14 15  1  0
 16 15  1  0
 16 17  2  0
 18 17  1  0
 19 18  2  0
 20 21  2  0
 20 19  1  0
 21 16  1  0
 22 28  1  0
 22 11  1  0
 23 22  2  0
 25 27  1  0
 25 24  1  6
 26 25  1  0
 27 29  1  0
 27 28  1  1
 29 31  1  0
 30 29  2  0
M  END
$$$$
