QWT.pdb
     RDKit          3D

 31 32  0  0  1  0  0  0  0  0999 V2000
   25.1880  -24.6230  -18.9258 N   0  0  0  0  0  0  0  0  0  0  0  0
   26.6085  -24.7210  -19.1284 C   0  0  0  0  0  0  0  0  0  0  0  0
   26.9720  -24.9996  -20.2977 O   0  0  0  0  0  0  0  0  0  0  0  0
   27.5633  -24.5180  -18.0697 C   0  0  0  0  0  0  0  0  0  0  0  0
   27.1033  -24.0891  -16.7389 C   0  0  0  0  0  0  0  0  0  0  0  0
   26.9206  -22.6470  -16.4776 C   0  0  2  0  0  0  0  0  0  0  0  0
   27.9940  -21.7700  -16.7708 N   0  0  0  0  0  0  0  0  0  0  0  0
   26.5223  -22.4693  -15.0508 C   0  0  0  0  0  0  0  0  0  0  0  0
   25.6590  -23.2515  -14.5829 O   0  0  0  0  0  0  0  0  0  0  0  0
   27.0392  -21.4876  -14.1838 N   0  0  0  0  0  0  0  0  0  0  0  0
   26.4879  -21.3204  -12.8617 C   0  0  1  0  0  0  0  0  0  0  0  0
   27.3987  -20.5103  -11.9741 C   0  0  0  0  0  0  0  0  0  0  0  0
   26.7364  -20.3261  -10.6611 C   0  0  0  0  0  0  0  0  0  0  0  0
   25.3714  -20.1221  -10.4567 C   0  0  0  0  0  0  0  0  0  0  0  0
   25.1080  -19.9955   -9.1426 N   0  0  0  0  0  0  0  0  0  0  0  0
   26.2663  -20.1120   -8.4813 C   0  0  0  0  0  0  0  0  0  0  0  0
   26.5231  -20.0558   -7.1179 C   0  0  0  0  0  0  0  0  0  0  0  0
   27.8033  -20.2050   -6.6543 C   0  0  0  0  0  0  0  0  0  0  0  0
   28.8358  -20.4100   -7.5822 C   0  0  0  0  0  0  0  0  0  0  0  0
   28.5482  -20.4590   -8.9224 C   0  0  0  0  0  0  0  0  0  0  0  0
   27.2739  -20.3167   -9.3999 C   0  0  0  0  0  0  0  0  0  0  0  0
   25.1477  -20.6639  -12.9867 C   0  0  0  0  0  0  0  0  0  0  0  0
   25.1361  -19.4371  -13.2504 O   0  0  0  0  0  0  0  0  0  0  0  0
   22.2166  -22.8045  -14.5878 C   0  0  0  0  0  0  0  0  0  0  0  0
   22.2810  -21.3033  -14.6252 C   0  0  1  0  0  0  0  0  0  0  0  0
   20.9997  -20.7850  -14.9100 O   0  0  0  0  0  0  0  0  0  0  0  0
   22.6285  -20.7873  -13.2221 C   0  0  2  0  0  0  0  0  0  0  0  0
   23.9234  -21.3519  -12.8274 N   0  0  0  0  0  0  0  0  0  0  0  0
   21.6300  -21.1790  -12.2401 C   0  0  0  0  0  0  0  0  0  0  0  0
   20.4542  -20.7694  -12.3024 O   0  0  0  0  0  0  0  0  0  0  0  0
   21.9622  -22.0320  -11.1921 O   0  0  0  0  0  0  0  0  0  0  0  0
  2  3  2  0
  2  1  1  0
  4  2  1  0
  5  4  1  0
  6  5  1  0
  6  7  1  1
  8  9  2  0
  8  6  1  0
 10  8  1  0
 11 10  1  0
 11 12  1  1
 12 13  1  0
 13 21  1  0
 13 14  2  0
 14 15  1  0
 16 15  1  0
 16 17  2  0
 18 17  1  0
 19 18  2  0
 20 21  2  0
 20 19  1  0
 21 16  1  0
 22 28  1  0
 22 11  1  0
 23 22  2  0
 25 27  1  0
 25 24  1  1
 26 25  1  0
 27 29  1  0
 27 28  1  1
 29 31  1  0
 30 29  2  0
M  END
$$$$
