QWT.pdb
     RDKit          3D

 31 32  0  0  1  0  0  0  0  0999 V2000
   25.6928  -19.4376  -16.0742 N   0  0  0  0  0  0  0  0  0  0  0  0
   27.0522  -19.2329  -16.4966 C   0  0  0  0  0  0  0  0  0  0  0  0
   27.2371  -19.2102  -17.7386 O   0  0  0  0  0  0  0  0  0  0  0  0
   28.1407  -19.0657  -15.5688 C   0  0  0  0  0  0  0  0  0  0  0  0
   27.8765  -19.0616  -14.1208 C   0  0  0  0  0  0  0  0  0  0  0  0
   28.3815  -20.1809  -13.3001 C   0  0  2  0  0  0  0  0  0  0  0  0
   28.9693  -21.2872  -13.9618 N   0  0  0  0  0  0  0  0  0  0  0  0
   27.2737  -20.6677  -12.4272 C   0  0  0  0  0  0  0  0  0  0  0  0
   26.6544  -21.6983  -12.7884 O   0  0  0  0  0  0  0  0  0  0  0  0
   26.8648  -20.0586  -11.2254 N   0  0  0  0  0  0  0  0  0  0  0  0
   25.8302  -20.6590  -10.4199 C   0  0  1  0  0  0  0  0  0  0  0  0
   25.9193  -20.2235   -8.9791 C   0  0  0  0  0  0  0  0  0  0  0  0
   27.2533  -20.5995   -8.4541 C   0  0  0  0  0  0  0  0  0  0  0  0
   28.1842  -21.4146   -9.0988 C   0  0  0  0  0  0  0  0  0  0  0  0
   29.2910  -21.5495   -8.3444 N   0  0  0  0  0  0  0  0  0  0  0  0
   29.1084  -20.8427   -7.2220 C   0  0  0  0  0  0  0  0  0  0  0  0
   29.9532  -20.6636   -6.1348 C   0  0  0  0  0  0  0  0  0  0  0  0
   29.5575  -19.8852   -5.0795 C   0  0  0  0  0  0  0  0  0  0  0  0
   28.2903  -19.2842   -5.1242 C   0  0  0  0  0  0  0  0  0  0  0  0
   27.4795  -19.4826   -6.2126 C   0  0  0  0  0  0  0  0  0  0  0  0
   27.8632  -20.2531   -7.2761 C   0  0  0  0  0  0  0  0  0  0  0  0
   24.5012  -20.2908  -11.0041 C   0  0  0  0  0  0  0  0  0  0  0  0
   24.2418  -19.0671  -11.1042 O   0  0  0  0  0  0  0  0  0  0  0  0
   23.2172  -21.3612  -14.3210 C   0  0  0  0  0  0  0  0  0  0  0  0
   22.1227  -21.7192  -13.3551 C   0  0  1  0  0  0  0  0  0  0  0  0
   22.2838  -23.0575  -12.9374 O   0  0  0  0  0  0  0  0  0  0  0  0
   22.2855  -20.8719  -12.0857 C   0  0  2  0  0  0  0  0  0  0  0  0
   23.5500  -21.2408  -11.4405 N   0  0  0  0  0  0  0  0  0  0  0  0
   21.1994  -21.0948  -11.1447 C   0  0  0  0  0  0  0  0  0  0  0  0
   21.3817  -21.6860  -10.0624 O   0  0  0  0  0  0  0  0  0  0  0  0
   19.9122  -20.6490  -11.4285 O   0  0  0  0  0  0  0  0  0  0  0  0
  2  3  2  0
  2  1  1  0
  4  2  1  0
  5  4  1  0
  6  5  1  0
  6  7  1  6
  8  9  2  0
  8  6  1  0
 10  8  1  0
 11 10  1  0
 11 12  1  1
 12 13  1  0
 13 21  1  0
 13 14  2  0
 14 15  1  0
 16 15  1  0
 16 17  2  0
 18 17  1  0
 19 18  2  0
 20 21  2  0
 20 19  1  0
 21 16  1  0
 22 28  1  0
 22 11  1  0
 23 22  2  0
 25 27  1  0
 25 24  1  6
 26 25  1  0
 27 29  1  0
 27 28  1  1
 29 31  1  0
 30 29  2  0
M  END
$$$$
