QWT.pdb
     RDKit          3D

 31 32  0  0  1  0  0  0  0  0999 V2000
   28.9036  -17.9654  -15.5570 N   0  0  0  0  0  0  0  0  0  0  0  0
   28.3560  -18.5253  -16.7633 C   0  0  0  0  0  0  0  0  0  0  0  0
   28.9036  -18.1548  -17.8310 O   0  0  0  0  0  0  0  0  0  0  0  0
   27.2515  -19.4493  -16.7631 C   0  0  0  0  0  0  0  0  0  0  0  0
   26.7557  -20.0000  -15.4914 C   0  0  0  0  0  0  0  0  0  0  0  0
   27.6433  -20.8743  -14.6981 C   0  0  2  0  0  0  0  0  0  0  0  0
   27.9806  -22.1452  -15.2255 N   0  0  0  0  0  0  0  0  0  0  0  0
   27.0468  -21.0523  -13.3421 C   0  0  0  0  0  0  0  0  0  0  0  0
   26.1615  -21.9315  -13.2035 O   0  0  0  0  0  0  0  0  0  0  0  0
   27.3987  -20.3071  -12.2005 N   0  0  0  0  0  0  0  0  0  0  0  0
   26.7049  -20.5141  -10.9533 C   0  0  1  0  0  0  0  0  0  0  0  0
   27.3382  -19.7393   -9.8254 C   0  0  0  0  0  0  0  0  0  0  0  0
   26.7125  -20.1646   -8.5510 C   0  0  0  0  0  0  0  0  0  0  0  0
   25.5048  -20.8516   -8.4239 C   0  0  0  0  0  0  0  0  0  0  0  0
   25.2314  -21.0827   -7.1262 N   0  0  0  0  0  0  0  0  0  0  0  0
   26.2299  -20.5645   -6.4003 C   0  0  0  0  0  0  0  0  0  0  0  0
   26.4135  -20.5445   -5.0242 C   0  0  0  0  0  0  0  0  0  0  0  0
   27.5270  -19.9529   -4.4891 C   0  0  0  0  0  0  0  0  0  0  0  0
   28.4636  -19.3717   -5.3575 C   0  0  0  0  0  0  0  0  0  0  0  0
   28.2514  -19.4076   -6.7121 C   0  0  0  0  0  0  0  0  0  0  0  0
   27.1467  -19.9993   -7.2612 C   0  0  0  0  0  0  0  0  0  0  0  0
   25.2737  -20.1123  -11.1349 C   0  0  0  0  0  0  0  0  0  0  0  0
   25.0487  -18.9046  -11.3909 O   0  0  0  0  0  0  0  0  0  0  0  0
   20.9537  -21.5774  -12.8355 C   0  0  0  0  0  0  0  0  0  0  0  0
   22.4154  -21.7517  -12.5317 C   0  0  1  0  0  0  0  0  0  0  0  0
   23.1727  -21.4690  -13.6884 O   0  0  0  0  0  0  0  0  0  0  0  0
   22.8360  -20.6967  -11.4992 C   0  0  2  0  0  0  0  0  0  0  0  0
   24.1907  -21.0150  -11.0358 N   0  0  0  0  0  0  0  0  0  0  0  0
   21.9428  -20.6782  -10.3517 C   0  0  0  0  0  0  0  0  0  0  0  0
   22.2469  -21.2305   -9.2763 O   0  0  0  0  0  0  0  0  0  0  0  0
   20.7105  -20.0359  -10.4222 O   0  0  0  0  0  0  0  0  0  0  0  0
  2  3  2  0
  2  1  1  0
  4  2  1  0
  5  4  1  0
  6  5  1  0
  6  7  1  6
  8  9  2  0
  8  6  1  0
 10  8  1  0
 11 10  1  0
 11 12  1  1
 12 13  1  0
 13 21  1  0
 13 14  2  0
 14 15  1  0
 16 15  1  0
 16 17  2  0
 18 17  1  0
 19 18  2  0
 20 21  2  0
 20 19  1  0
 21 16  1  0
 22 28  1  0
 22 11  1  0
 23 22  2  0
 25 27  1  0
 25 24  1  6
 26 25  1  0
 27 29  1  0
 27 28  1  1
 29 31  1  0
 30 29  2  0
M  END
$$$$
