QWT.pdb
     RDKit          3D

 31 32  0  0  1  0  0  0  0  0999 V2000
   28.1065  -23.0742  -17.6913 N   0  0  0  0  0  0  0  0  0  0  0  0
   28.9021  -21.8966  -17.9121 C   0  0  0  0  0  0  0  0  0  0  0  0
   29.5325  -21.8632  -18.9977 O   0  0  0  0  0  0  0  0  0  0  0  0
   28.9823  -20.8196  -16.9596 C   0  0  0  0  0  0  0  0  0  0  0  0
   28.1833  -20.8711  -15.7246 C   0  0  0  0  0  0  0  0  0  0  0  0
   28.7407  -21.5587  -14.5422 C   0  0  2  0  0  0  0  0  0  0  0  0
   29.1383  -22.9117  -14.6774 N   0  0  0  0  0  0  0  0  0  0  0  0
   27.7609  -21.4483  -13.4224 C   0  0  0  0  0  0  0  0  0  0  0  0
   26.8565  -22.3159  -13.3492 O   0  0  0  0  0  0  0  0  0  0  0  0
   27.7693  -20.4420  -12.4377 N   0  0  0  0  0  0  0  0  0  0  0  0
   26.8352  -20.4894  -11.3400 C   0  0  1  0  0  0  0  0  0  0  0  0
   27.2623  -19.5960  -10.2029 C   0  0  0  0  0  0  0  0  0  0  0  0
   26.7118  -20.1433   -8.9404 C   0  0  0  0  0  0  0  0  0  0  0  0
   25.4889  -20.8001   -8.8001 C   0  0  0  0  0  0  0  0  0  0  0  0
   25.2992  -21.1688   -7.5193 N   0  0  0  0  0  0  0  0  0  0  0  0
   26.3674  -20.7703   -6.8175 C   0  0  0  0  0  0  0  0  0  0  0  0
   26.6491  -20.9138   -5.4655 C   0  0  0  0  0  0  0  0  0  0  0  0
   27.8213  -20.4244   -4.9532 C   0  0  0  0  0  0  0  0  0  0  0  0
   28.7170  -19.7791   -5.8195 C   0  0  0  0  0  0  0  0  0  0  0  0
   28.4077  -19.6528   -7.1497 C   0  0  0  0  0  0  0  0  0  0  0  0
   27.2432  -20.1410   -7.6766 C   0  0  0  0  0  0  0  0  0  0  0  0
   25.4847  -20.0904  -11.8496 C   0  0  0  0  0  0  0  0  0  0  0  0
   25.3634  -18.9209  -12.2881 O   0  0  0  0  0  0  0  0  0  0  0  0
   23.6214  -21.6856  -14.5958 C   0  0  0  0  0  0  0  0  0  0  0  0
   22.6630  -21.6901  -13.4379 C   0  0  1  0  0  0  0  0  0  0  0  0
   22.7912  -22.9021  -12.7267 O   0  0  0  0  0  0  0  0  0  0  0  0
   23.0749  -20.5902  -12.4498 C   0  0  2  0  0  0  0  0  0  0  0  0
   24.3673  -20.9559  -11.8605 N   0  0  0  0  0  0  0  0  0  0  0  0
   22.1022  -20.4334  -11.3802 C   0  0  0  0  0  0  0  0  0  0  0  0
   22.3526  -20.7852  -10.2107 O   0  0  0  0  0  0  0  0  0  0  0  0
   20.8513  -19.8797  -11.6345 O   0  0  0  0  0  0  0  0  0  0  0  0
  2  3  2  0
  2  1  1  0
  4  2  1  0
  5  4  1  0
  6  5  1  0
  6  7  1  6
  8  9  2  0
  8  6  1  0
 10  8  1  0
 11 10  1  0
 11 12  1  1
 12 13  1  0
 13 21  1  0
 13 14  2  0
 14 15  1  0
 16 15  1  0
 16 17  2  0
 18 17  1  0
 19 18  2  0
 20 21  2  0
 20 19  1  0
 21 16  1  0
 22 28  1  0
 22 11  1  0
 23 22  2  0
 25 27  1  0
 25 24  1  6
 26 25  1  0
 27 29  1  0
 27 28  1  1
 29 31  1  0
 30 29  2  0
M  END
$$$$
