QIV.pdb
     RDKit          3D

 25 24  0  0  1  0  0  0  0  0999 V2000
   11.6546  -16.6963   19.3792 N   0  0  0  0  0  0  0  0  0  0  0  0
   10.4679  -17.0522   18.6505 C   0  0  0  0  0  0  0  0  0  0  0  0
   10.6334  -17.7562   17.6420 O   0  0  0  0  0  0  0  0  0  0  0  0
    9.2017  -16.5602   19.1519 C   0  0  0  0  0  0  0  0  0  0  0  0
    9.2262  -15.6645   20.3496 C   0  0  0  0  0  0  0  0  0  0  0  0
    8.4561  -16.1721   21.5070 C   0  0  2  0  0  0  0  0  0  0  0  0
    7.0546  -15.9906   21.4464 N   0  0  0  0  0  0  0  0  0  0  0  0
    9.0581  -15.7371   22.8218 C   0  0  0  0  0  0  0  0  0  0  0  0
   10.2969  -15.6792   22.9613 O   0  0  0  0  0  0  0  0  0  0  0  0
    6.4812  -12.0402   25.8010 C   0  0  0  0  0  0  0  0  0  0  0  0
    7.4946  -12.8831   24.9888 C   0  0  0  0  0  0  0  0  0  0  0  0
    7.8959  -13.9993   25.8661 C   0  0  2  0  0  0  0  0  0  0  0  0
    8.3810  -13.5597   27.2323 C   0  0  0  0  0  0  0  0  0  0  0  0
    8.6932  -15.0876   25.2617 C   0  0  2  0  0  0  0  0  0  0  0  0
    8.2277  -15.3901   23.9122 N   0  0  0  0  0  0  0  0  0  0  0  0
    9.0464  -16.2696   26.0456 C   0  0  0  0  0  0  0  0  0  0  0  0
    8.1428  -17.0993   26.4573 O   0  0  0  0  0  0  0  0  0  0  0  0
   12.2577  -19.8052   27.4160 C   0  0  0  0  0  0  0  0  0  0  0  0
   11.9715  -18.4954   26.7059 C   0  0  1  0  0  0  0  0  0  0  0  0
   11.9256  -18.7994   25.2240 C   0  0  0  0  0  0  0  0  0  0  0  0
   10.6564  -17.9041   27.1208 C   0  0  2  0  0  0  0  0  0  0  0  0
   10.3367  -16.6728   26.4469 N   0  0  0  0  0  0  0  0  0  0  0  0
   10.5885  -17.7115   28.5921 C   0  0  0  0  0  0  0  0  0  0  0  0
   10.8422  -16.6083   29.1427 O   0  0  0  0  0  0  0  0  0  0  0  0
   10.2368  -18.7468   29.4702 O   0  0  0  0  0  0  0  0  0  0  0  0
  2  1  1  0
  3  2  2  0
  4  2  1  0
  5  4  1  0
  6  7  1  6
  6  5  1  0
  8  6  1  0
  9  8  2  0
 11 12  1  0
 11 10  1  0
 12 14  1  0
 12 13  1  1
 14 15  1  6
 15  8  1  0
 16 17  2  0
 16 14  1  0
 19 21  1  0
 19 18  1  1
 20 19  1  0
 21 22  1  6
 22 16  1  0
 23 21  1  0
 24 23  2  0
 25 23  1  0
M  END
$$$$
