QIV.pdb
     RDKit          3D

 25 24  0  0  1  0  0  0  0  0999 V2000
    8.3984  -20.2081   22.0670 N   0  0  0  0  0  0  0  0  0  0  0  0
    9.3025  -19.2375   21.5135 C   0  0  0  0  0  0  0  0  0  0  0  0
   10.5094  -19.4220   21.7356 O   0  0  0  0  0  0  0  0  0  0  0  0
    8.7293  -18.1433   20.7578 C   0  0  0  0  0  0  0  0  0  0  0  0
    7.7455  -17.2560   21.4521 C   0  0  0  0  0  0  0  0  0  0  0  0
    8.0234  -15.8092   21.3115 C   0  0  2  0  0  0  0  0  0  0  0  0
    8.6928  -15.4188   20.1281 N   0  0  0  0  0  0  0  0  0  0  0  0
    8.6346  -15.2262   22.5632 C   0  0  0  0  0  0  0  0  0  0  0  0
    9.8558  -14.9737   22.6118 O   0  0  0  0  0  0  0  0  0  0  0  0
    6.5941  -11.6688   27.0025 C   0  0  0  0  0  0  0  0  0  0  0  0
    7.8419  -12.4374   26.5032 C   0  0  0  0  0  0  0  0  0  0  0  0
    7.3701  -13.3314   25.4286 C   0  0  2  0  0  0  0  0  0  0  0  0
    5.9498  -13.8224   25.6208 C   0  0  0  0  0  0  0  0  0  0  0  0
    8.3078  -14.3658   24.9425 C   0  0  2  0  0  0  0  0  0  0  0  0
    7.8329  -14.9589   23.6967 N   0  0  0  0  0  0  0  0  0  0  0  0
    8.8936  -15.3294   25.8722 C   0  0  0  0  0  0  0  0  0  0  0  0
    8.2411  -16.3800   26.2529 O   0  0  0  0  0  0  0  0  0  0  0  0
   12.8183  -17.7098   27.7014 C   0  0  0  0  0  0  0  0  0  0  0  0
   12.2074  -16.6113   26.8517 C   0  0  1  0  0  0  0  0  0  0  0  0
   12.2453  -17.0924   25.4172 C   0  0  0  0  0  0  0  0  0  0  0  0
   10.7833  -16.3299   27.2315 C   0  0  2  0  0  0  0  0  0  0  0  0
   10.1749  -15.2786   26.4589 N   0  0  0  0  0  0  0  0  0  0  0  0
   10.6573  -16.0341   28.6816 C   0  0  0  0  0  0  0  0  0  0  0  0
   10.5316  -14.8627   29.1250 O   0  0  0  0  0  0  0  0  0  0  0  0
   10.6697  -17.0408   29.6579 O   0  0  0  0  0  0  0  0  0  0  0  0
  2  1  1  0
  3  2  2  0
  4  2  1  0
  5  4  1  0
  6  7  1  6
  6  5  1  0
  8  6  1  0
  9  8  2  0
 11 12  1  0
 11 10  1  0
 12 14  1  0
 12 13  1  1
 14 15  1  6
 15  8  1  0
 16 17  2  0
 16 14  1  0
 19 21  1  0
 19 18  1  1
 20 19  1  0
 21 22  1  6
 22 16  1  0
 23 21  1  0
 24 23  2  0
 25 23  1  0
M  END
$$$$
