QIV.pdb
     RDKit          3D

 25 24  0  0  1  0  0  0  0  0999 V2000
    6.5860  -18.7748   21.8351 N   0  0  0  0  0  0  0  0  0  0  0  0
    7.2290  -18.9753   20.5653 C   0  0  0  0  0  0  0  0  0  0  0  0
    6.5958  -19.6365   19.7276 O   0  0  0  0  0  0  0  0  0  0  0  0
    8.5437  -18.3965   20.3821 C   0  0  0  0  0  0  0  0  0  0  0  0
    9.1041  -17.5711   21.4964 C   0  0  0  0  0  0  0  0  0  0  0  0
    8.7562  -16.1343   21.4262 C   0  0  2  0  0  0  0  0  0  0  0  0
    9.1694  -15.4531   20.2575 N   0  0  0  0  0  0  0  0  0  0  0  0
    9.1096  -15.4037   22.6997 C   0  0  0  0  0  0  0  0  0  0  0  0
   10.1993  -14.8044   22.8028 O   0  0  0  0  0  0  0  0  0  0  0  0
    5.5187  -12.4238   25.3152 C   0  0  0  0  0  0  0  0  0  0  0  0
    6.7971  -12.9806   24.6425 C   0  0  0  0  0  0  0  0  0  0  0  0
    7.3395  -13.9936   25.5679 C   0  0  2  0  0  0  0  0  0  0  0  0
    7.4643  -13.5109   26.9985 C   0  0  0  0  0  0  0  0  0  0  0  0
    8.4863  -14.7999   25.0986 C   0  0  2  0  0  0  0  0  0  0  0  0
    8.2121  -15.3889   23.7919 N   0  0  0  0  0  0  0  0  0  0  0  0
    9.1868  -15.6953   26.0171 C   0  0  0  0  0  0  0  0  0  0  0  0
    8.9205  -16.9610   26.0578 O   0  0  0  0  0  0  0  0  0  0  0  0
   13.0492  -14.9580   27.5244 C   0  0  0  0  0  0  0  0  0  0  0  0
   12.0970  -15.6601   28.4743 C   0  0  1  0  0  0  0  0  0  0  0  0
   11.5747  -14.6091   29.4299 C   0  0  0  0  0  0  0  0  0  0  0  0
   10.9363  -16.2805   27.7539 C   0  0  2  0  0  0  0  0  0  0  0  0
   10.1981  -15.3523   26.9379 N   0  0  0  0  0  0  0  0  0  0  0  0
   10.0191  -16.9706   28.6966 C   0  0  0  0  0  0  0  0  0  0  0  0
    8.8967  -16.4990   29.0161 O   0  0  0  0  0  0  0  0  0  0  0  0
   10.3410  -18.1967   29.2965 O   0  0  0  0  0  0  0  0  0  0  0  0
  2  1  1  0
  3  2  2  0
  4  2  1  0
  5  4  1  0
  6  7  1  6
  6  5  1  0
  8  6  1  0
  9  8  2  0
 11 12  1  0
 11 10  1  0
 12 14  1  0
 12 13  1  1
 14 15  1  6
 15  8  1  0
 16 17  2  0
 16 14  1  0
 19 21  1  0
 19 18  1  6
 20 19  1  0
 21 22  1  1
 22 16  1  0
 23 21  1  0
 24 23  2  0
 25 23  1  0
M  END
$$$$
