QIV.pdb
     RDKit          3D

 25 24  0  0  1  0  0  0  0  0999 V2000
    8.9263  -17.9803   18.9119 N   0  0  0  0  0  0  0  0  0  0  0  0
    7.4901  -17.9311   18.8821 C   0  0  0  0  0  0  0  0  0  0  0  0
    6.9482  -18.3400   17.8433 O   0  0  0  0  0  0  0  0  0  0  0  0
    6.8137  -17.4121   20.0525 C   0  0  0  0  0  0  0  0  0  0  0  0
    7.6546  -16.9993   21.2186 C   0  0  0  0  0  0  0  0  0  0  0  0
    7.7180  -15.5371   21.4380 C   0  0  2  0  0  0  0  0  0  0  0  0
    8.1307  -14.7614   20.3295 N   0  0  0  0  0  0  0  0  0  0  0  0
    8.4446  -15.1876   22.7149 C   0  0  0  0  0  0  0  0  0  0  0  0
    9.6843  -15.0450   22.7179 O   0  0  0  0  0  0  0  0  0  0  0  0
    6.1005  -11.7714   26.0351 C   0  0  0  0  0  0  0  0  0  0  0  0
    7.1343  -12.5133   25.1531 C   0  0  0  0  0  0  0  0  0  0  0  0
    7.5788  -13.6815   25.9370 C   0  0  2  0  0  0  0  0  0  0  0  0
    8.1458  -13.3264   27.2962 C   0  0  0  0  0  0  0  0  0  0  0  0
    8.3322  -14.7340   25.2228 C   0  0  2  0  0  0  0  0  0  0  0  0
    7.7312  -15.0177   23.9237 N   0  0  0  0  0  0  0  0  0  0  0  0
    8.7963  -15.9238   25.9336 C   0  0  0  0  0  0  0  0  0  0  0  0
    7.9648  -16.8112   26.3757 O   0  0  0  0  0  0  0  0  0  0  0  0
   12.2736  -19.3715   26.7430 C   0  0  0  0  0  0  0  0  0  0  0  0
   11.8416  -18.0440   26.1488 C   0  0  1  0  0  0  0  0  0  0  0  0
   11.6251  -18.2744   24.6686 C   0  0  0  0  0  0  0  0  0  0  0  0
   10.5630  -17.5440   26.7541 C   0  0  2  0  0  0  0  0  0  0  0  0
   10.1297  -16.2764   26.2270 N   0  0  0  0  0  0  0  0  0  0  0  0
   10.6549  -17.4749   28.2349 C   0  0  0  0  0  0  0  0  0  0  0  0
   10.6377  -18.5016   28.9628 O   0  0  0  0  0  0  0  0  0  0  0  0
   10.7672  -16.2592   28.9251 O   0  0  0  0  0  0  0  0  0  0  0  0
  2  1  1  0
  3  2  2  0
  4  2  1  0
  5  4  1  0
  6  7  1  6
  6  5  1  0
  8  6  1  0
  9  8  2  0
 11 12  1  0
 11 10  1  0
 12 14  1  0
 12 13  1  1
 14 15  1  6
 15  8  1  0
 16 17  2  0
 16 14  1  0
 19 21  1  0
 19 18  1  1
 20 19  1  0
 21 22  1  6
 22 16  1  0
 23 21  1  0
 24 23  2  0
 25 23  1  0
M  END
$$$$
