QIV.pdb
     RDKit          3D

 25 24  0  0  1  0  0  0  0  0999 V2000
   10.8416  -20.7293   22.2441 N   0  0  0  0  0  0  0  0  0  0  0  0
   11.8637  -19.7731   21.9169 C   0  0  0  0  0  0  0  0  0  0  0  0
   13.0334  -20.1862   21.9514 O   0  0  0  0  0  0  0  0  0  0  0  0
   11.4408  -18.4289   21.5834 C   0  0  0  0  0  0  0  0  0  0  0  0
    9.9736  -18.1380   21.5875 C   0  0  0  0  0  0  0  0  0  0  0  0
    9.6238  -16.7594   21.1785 C   0  0  2  0  0  0  0  0  0  0  0  0
   10.2570  -16.2807   20.0078 N   0  0  0  0  0  0  0  0  0  0  0  0
    9.6957  -15.7908   22.3348 C   0  0  0  0  0  0  0  0  0  0  0  0
   10.5965  -14.9284   22.3817 O   0  0  0  0  0  0  0  0  0  0  0  0
    5.8811  -12.6584   25.5373 C   0  0  0  0  0  0  0  0  0  0  0  0
    7.3504  -13.1441   25.5876 C   0  0  0  0  0  0  0  0  0  0  0  0
    7.4140  -14.3472   24.7360 C   0  0  2  0  0  0  0  0  0  0  0  0
    6.2799  -15.3237   24.9710 C   0  0  0  0  0  0  0  0  0  0  0  0
    8.7354  -14.9854   24.5568 C   0  0  2  0  0  0  0  0  0  0  0  0
    8.7448  -15.8476   23.3795 N   0  0  0  0  0  0  0  0  0  0  0  0
    9.4508  -15.5407   25.7039 C   0  0  0  0  0  0  0  0  0  0  0  0
    9.7192  -16.8041   25.7828 O   0  0  0  0  0  0  0  0  0  0  0  0
   11.1760  -15.2167   30.3927 C   0  0  0  0  0  0  0  0  0  0  0  0
   10.3067  -14.7080   29.2579 C   0  0  1  0  0  0  0  0  0  0  0  0
   10.6415  -13.2440   29.0699 C   0  0  0  0  0  0  0  0  0  0  0  0
   10.5732  -15.4355   27.9730 C   0  0  2  0  0  0  0  0  0  0  0  0
    9.9356  -14.8404   26.8277 N   0  0  0  0  0  0  0  0  0  0  0  0
   10.2008  -16.8698   28.0748 C   0  0  0  0  0  0  0  0  0  0  0  0
    9.0088  -17.2668   27.9979 O   0  0  0  0  0  0  0  0  0  0  0  0
   11.1531  -17.8819   28.2637 O   0  0  0  0  0  0  0  0  0  0  0  0
  2  1  1  0
  3  2  2  0
  4  2  1  0
  5  4  1  0
  6  7  1  6
  6  5  1  0
  8  6  1  0
  9  8  2  0
 11 12  1  0
 11 10  1  0
 12 14  1  0
 12 13  1  1
 14 15  1  6
 15  8  1  0
 16 17  2  0
 16 14  1  0
 19 21  1  0
 19 18  1  1
 20 19  1  0
 21 22  1  6
 22 16  1  0
 23 21  1  0
 24 23  2  0
 25 23  1  0
M  END
$$$$
