QIV.pdb
     RDKit          3D

 25 24  0  0  1  0  0  0  0  0999 V2000
    7.7594  -12.7645   18.1391 N   0  0  0  0  0  0  0  0  0  0  0  0
    8.1568  -14.0757   17.7046 C   0  0  0  0  0  0  0  0  0  0  0  0
    7.8522  -14.3845   16.5419 O   0  0  0  0  0  0  0  0  0  0  0  0
    8.8660  -14.9089   18.6531 C   0  0  0  0  0  0  0  0  0  0  0  0
    9.0456  -14.3861   20.0430 C   0  0  0  0  0  0  0  0  0  0  0  0
    8.8093  -15.3875   21.1069 C   0  0  2  0  0  0  0  0  0  0  0  0
    7.5672  -16.0624   21.0578 N   0  0  0  0  0  0  0  0  0  0  0  0
    9.1411  -14.8462   22.4770 C   0  0  0  0  0  0  0  0  0  0  0  0
   10.1743  -14.1698   22.6562 O   0  0  0  0  0  0  0  0  0  0  0  0
    5.2830  -12.4298   25.1654 C   0  0  0  0  0  0  0  0  0  0  0  0
    6.6003  -12.8721   24.4826 C   0  0  0  0  0  0  0  0  0  0  0  0
    7.2004  -13.8879   25.3685 C   0  0  2  0  0  0  0  0  0  0  0  0
    7.2029  -13.4983   26.8325 C   0  0  0  0  0  0  0  0  0  0  0  0
    8.4476  -14.5376   24.9126 C   0  0  2  0  0  0  0  0  0  0  0  0
    8.2868  -15.0984   23.5750 N   0  0  0  0  0  0  0  0  0  0  0  0
    9.2159  -15.3851   25.8222 C   0  0  0  0  0  0  0  0  0  0  0  0
    9.5075  -16.6086   25.5179 O   0  0  0  0  0  0  0  0  0  0  0  0
   11.7135  -16.1360   30.1218 C   0  0  0  0  0  0  0  0  0  0  0  0
   10.6956  -15.3356   29.3311 C   0  0  1  0  0  0  0  0  0  0  0  0
   11.2485  -13.9333   29.1952 C   0  0  0  0  0  0  0  0  0  0  0  0
   10.4720  -15.9039   27.9606 C   0  0  2  0  0  0  0  0  0  0  0  0
    9.7328  -15.0319   27.0857 N   0  0  0  0  0  0  0  0  0  0  0  0
    9.8158  -17.2348   28.0260 C   0  0  0  0  0  0  0  0  0  0  0  0
    8.5810  -17.3714   28.2285 O   0  0  0  0  0  0  0  0  0  0  0  0
   10.5278  -18.4325   27.8663 O   0  0  0  0  0  0  0  0  0  0  0  0
  2  1  1  0
  3  2  2  0
  4  2  1  0
  5  4  1  0
  6  7  1  1
  6  5  1  0
  8  6  1  0
  9  8  2  0
 11 12  1  0
 11 10  1  0
 12 14  1  0
 12 13  1  1
 14 15  1  6
 15  8  1  0
 16 17  2  0
 16 14  1  0
 19 21  1  0
 19 18  1  1
 20 19  1  0
 21 22  1  6
 22 16  1  0
 23 21  1  0
 24 23  2  0
 25 23  1  0
M  END
$$$$
