QIV.pdb
     RDKit          3D

 25 24  0  0  1  0  0  0  0  0999 V2000
    7.5468  -21.5129   19.0050 N   0  0  0  0  0  0  0  0  0  0  0  0
    7.0723  -20.2506   18.5079 C   0  0  0  0  0  0  0  0  0  0  0  0
    6.0144  -19.8289   19.0009 O   0  0  0  0  0  0  0  0  0  0  0  0
    7.8612  -19.5942   17.4862 C   0  0  0  0  0  0  0  0  0  0  0  0
    7.4767  -18.2029   17.0943 C   0  0  0  0  0  0  0  0  0  0  0  0
    8.6228  -17.3003   16.8452 C   0  0  2  0  0  0  0  0  0  0  0  0
    9.6211  -17.7927   15.9726 N   0  0  0  0  0  0  0  0  0  0  0  0
    9.1796  -16.7262   18.1262 C   0  0  0  0  0  0  0  0  0  0  0  0
   10.3537  -16.9713   18.4706 O   0  0  0  0  0  0  0  0  0  0  0  0
    6.8932  -12.0013   19.9159 C   0  0  0  0  0  0  0  0  0  0  0  0
    7.9254  -13.0428   19.4190 C   0  0  0  0  0  0  0  0  0  0  0  0
    8.0249  -14.0611   20.4820 C   0  0  2  0  0  0  0  0  0  0  0  0
    8.2558  -13.4831   21.8631 C   0  0  0  0  0  0  0  0  0  0  0  0
    8.8205  -15.2728   20.1918 C   0  0  2  0  0  0  0  0  0  0  0  0
    8.3792  -15.9042   18.9524 N   0  0  0  0  0  0  0  0  0  0  0  0
    9.1423  -16.2198   21.2575 C   0  0  0  0  0  0  0  0  0  0  0  0
    8.2960  -17.1237   21.6332 O   0  0  0  0  0  0  0  0  0  0  0  0
   12.2559  -18.8110   24.1100 C   0  0  0  0  0  0  0  0  0  0  0  0
   11.9975  -17.8354   22.9771 C   0  0  1  0  0  0  0  0  0  0  0  0
   12.1381  -18.6131   21.6863 C   0  0  0  0  0  0  0  0  0  0  0  0
   10.6185  -17.2477   23.0418 C   0  0  2  0  0  0  0  0  0  0  0  0
   10.3427  -16.3011   21.9929 N   0  0  0  0  0  0  0  0  0  0  0  0
   10.3537  -16.6307   24.3667 C   0  0  0  0  0  0  0  0  0  0  0  0
   10.4227  -15.3890   24.5611 O   0  0  0  0  0  0  0  0  0  0  0  0
   10.0080  -17.3902   25.4939 O   0  0  0  0  0  0  0  0  0  0  0  0
  2  1  1  0
  3  2  2  0
  4  2  1  0
  5  4  1  0
  6  7  1  1
  6  5  1  0
  8  6  1  0
  9  8  2  0
 11 12  1  0
 11 10  1  0
 12 14  1  0
 12 13  1  1
 14 15  1  6
 15  8  1  0
 16 17  2  0
 16 14  1  0
 19 21  1  0
 19 18  1  1
 20 19  1  0
 21 22  1  6
 22 16  1  0
 23 21  1  0
 24 23  2  0
 25 23  1  0
M  END
$$$$
