QIV.pdb
     RDKit          3D

 25 24  0  0  1  0  0  0  0  0999 V2000
   12.6509  -19.2335   21.6173 N   0  0  0  0  0  0  0  0  0  0  0  0
   11.9299  -19.3398   20.3784 C   0  0  0  0  0  0  0  0  0  0  0  0
   12.5127  -19.9257   19.4526 O   0  0  0  0  0  0  0  0  0  0  0  0
   10.6052  -18.7577   20.3227 C   0  0  0  0  0  0  0  0  0  0  0  0
   10.0935  -18.0697   21.5482 C   0  0  0  0  0  0  0  0  0  0  0  0
    9.3534  -16.8164   21.2804 C   0  0  2  0  0  0  0  0  0  0  0  0
    9.5288  -16.2561   19.9935 N   0  0  0  0  0  0  0  0  0  0  0  0
    9.5184  -15.8123   22.3962 C   0  0  0  0  0  0  0  0  0  0  0  0
   10.5187  -15.0672   22.4331 O   0  0  0  0  0  0  0  0  0  0  0  0
    6.2252  -12.2537   25.8574 C   0  0  0  0  0  0  0  0  0  0  0  0
    7.6124  -12.9398   25.8104 C   0  0  0  0  0  0  0  0  0  0  0  0
    7.5068  -14.0094   24.7997 C   0  0  2  0  0  0  0  0  0  0  0  0
    6.1749  -14.7313   24.8098 C   0  0  0  0  0  0  0  0  0  0  0  0
    8.6755  -14.8973   24.6235 C   0  0  2  0  0  0  0  0  0  0  0  0
    8.5430  -15.7029   23.4139 N   0  0  0  0  0  0  0  0  0  0  0  0
    9.2303  -15.6256   25.7627 C   0  0  0  0  0  0  0  0  0  0  0  0
    8.5993  -16.6204   26.2980 O   0  0  0  0  0  0  0  0  0  0  0  0
   10.5281  -14.7808   30.1620 C   0  0  0  0  0  0  0  0  0  0  0  0
   10.0974  -14.5979   28.7187 C   0  0  1  0  0  0  0  0  0  0  0  0
   10.5517  -13.2175   28.2958 C   0  0  0  0  0  0  0  0  0  0  0  0
   10.7234  -15.6144   27.8098 C   0  0  2  0  0  0  0  0  0  0  0  0
   10.4577  -15.3844   26.4137 N   0  0  0  0  0  0  0  0  0  0  0  0
   10.3233  -16.9952   28.1833 C   0  0  0  0  0  0  0  0  0  0  0  0
    9.2093  -17.4867   27.8644 O   0  0  0  0  0  0  0  0  0  0  0  0
   11.1603  -17.8474   28.9180 O   0  0  0  0  0  0  0  0  0  0  0  0
  2  1  1  0
  3  2  2  0
  4  2  1  0
  5  4  1  0
  6  7  1  6
  6  5  1  0
  8  6  1  0
  9  8  2  0
 11 12  1  0
 11 10  1  0
 12 14  1  0
 12 13  1  1
 14 15  1  6
 15  8  1  0
 16 17  2  0
 16 14  1  0
 19 21  1  0
 19 18  1  1
 20 19  1  0
 21 22  1  6
 22 16  1  0
 23 21  1  0
 24 23  2  0
 25 23  1  0
M  END
$$$$
