QIV.pdb
     RDKit          3D

 25 24  0  0  1  0  0  0  0  0999 V2000
   14.8451  -20.6569   21.1937 N   0  0  0  0  0  0  0  0  0  0  0  0
   14.4514  -19.8423   20.0768 C   0  0  0  0  0  0  0  0  0  0  0  0
   15.3387  -19.5778   19.2505 O   0  0  0  0  0  0  0  0  0  0  0  0
   13.0716  -19.4068   20.0193 C   0  0  0  0  0  0  0  0  0  0  0  0
   12.7302  -18.0876   20.6359 C   0  0  0  0  0  0  0  0  0  0  0  0
   11.2916  -17.7441   20.5847 C   0  0  2  0  0  0  0  0  0  0  0  0
   10.7318  -17.6115   19.2925 N   0  0  0  0  0  0  0  0  0  0  0  0
   10.9512  -16.5951   21.5035 C   0  0  0  0  0  0  0  0  0  0  0  0
   11.6203  -15.5421   21.4734 O   0  0  0  0  0  0  0  0  0  0  0  0
    6.2671  -14.5113   21.5421 C   0  0  0  0  0  0  0  0  0  0  0  0
    7.7822  -14.8241   21.6050 C   0  0  0  0  0  0  0  0  0  0  0  0
    8.0666  -15.1951   23.0043 C   0  0  2  0  0  0  0  0  0  0  0  0
    7.4717  -14.2440   24.0224 C   0  0  0  0  0  0  0  0  0  0  0  0
    9.4382  -15.6442   23.3242 C   0  0  2  0  0  0  0  0  0  0  0  0
    9.8710  -16.6962   22.4102 N   0  0  0  0  0  0  0  0  0  0  0  0
    9.8408  -15.8625   24.7122 C   0  0  0  0  0  0  0  0  0  0  0  0
   10.5313  -16.9009   25.0577 O   0  0  0  0  0  0  0  0  0  0  0  0
   10.5170  -14.2400   29.4081 C   0  0  0  0  0  0  0  0  0  0  0  0
    9.8146  -14.0737   28.0735 C   0  0  1  0  0  0  0  0  0  0  0  0
   10.3740  -12.8205   27.4354 C   0  0  0  0  0  0  0  0  0  0  0  0
   10.0610  -15.2361   27.1574 C   0  0  2  0  0  0  0  0  0  0  0  0
    9.5675  -15.0342   25.8202 N   0  0  0  0  0  0  0  0  0  0  0  0
    9.5088  -16.4955   27.7189 C   0  0  0  0  0  0  0  0  0  0  0  0
    8.3152  -16.8515   27.5372 O   0  0  0  0  0  0  0  0  0  0  0  0
   10.2804  -17.3759   28.4911 O   0  0  0  0  0  0  0  0  0  0  0  0
  2  1  1  0
  3  2  2  0
  4  2  1  0
  5  4  1  0
  6  7  1  6
  6  5  1  0
  8  6  1  0
  9  8  2  0
 11 12  1  0
 11 10  1  0
 12 14  1  0
 12 13  1  1
 14 15  1  6
 15  8  1  0
 16 17  2  0
 16 14  1  0
 19 21  1  0
 19 18  1  1
 20 19  1  0
 21 22  1  6
 22 16  1  0
 23 21  1  0
 24 23  2  0
 25 23  1  0
M  END
$$$$
