QIV.pdb
     RDKit          3D

 25 24  0  0  1  0  0  0  0  0999 V2000
    7.0493  -12.7181   17.9742 N   0  0  0  0  0  0  0  0  0  0  0  0
    8.3394  -13.2641   18.2960 C   0  0  0  0  0  0  0  0  0  0  0  0
    9.2200  -13.1388   17.4306 O   0  0  0  0  0  0  0  0  0  0  0  0
    8.4919  -13.9060   19.5850 C   0  0  0  0  0  0  0  0  0  0  0  0
    7.2838  -14.0081   20.4609 C   0  0  0  0  0  0  0  0  0  0  0  0
    7.2990  -15.1603   21.3897 C   0  0  2  0  0  0  0  0  0  0  0  0
    6.0474  -15.7685   21.6430 N   0  0  0  0  0  0  0  0  0  0  0  0
    8.0842  -14.8645   22.6452 C   0  0  0  0  0  0  0  0  0  0  0  0
    9.3035  -14.6065   22.5821 O   0  0  0  0  0  0  0  0  0  0  0  0
    5.9329  -11.7724   26.3034 C   0  0  0  0  0  0  0  0  0  0  0  0
    6.8803  -12.4761   25.3012 C   0  0  0  0  0  0  0  0  0  0  0  0
    7.4122  -13.6604   26.0021 C   0  0  2  0  0  0  0  0  0  0  0  0
    8.0886  -13.3394   27.3191 C   0  0  0  0  0  0  0  0  0  0  0  0
    8.1196  -14.6721   25.1888 C   0  0  2  0  0  0  0  0  0  0  0  0
    7.4496  -14.8762   23.9086 N   0  0  0  0  0  0  0  0  0  0  0  0
    8.6115  -15.9037   25.8032 C   0  0  0  0  0  0  0  0  0  0  0  0
    7.7981  -16.8196   26.2202 O   0  0  0  0  0  0  0  0  0  0  0  0
   12.0990  -19.3788   26.4547 C   0  0  0  0  0  0  0  0  0  0  0  0
   11.6744  -18.0297   25.9055 C   0  0  1  0  0  0  0  0  0  0  0  0
   11.4474  -18.2113   24.4201 C   0  0  0  0  0  0  0  0  0  0  0  0
   10.4034  -17.5391   26.5341 C   0  0  2  0  0  0  0  0  0  0  0  0
    9.9554  -16.2710   26.0207 N   0  0  0  0  0  0  0  0  0  0  0  0
   10.5190  -17.4771   28.0136 C   0  0  0  0  0  0  0  0  0  0  0  0
   10.8464  -16.4259   28.6235 O   0  0  0  0  0  0  0  0  0  0  0  0
   10.2710  -18.5872   28.8340 O   0  0  0  0  0  0  0  0  0  0  0  0
  2  1  1  0
  3  2  2  0
  4  2  1  0
  5  4  1  0
  6  7  1  1
  6  5  1  0
  8  6  1  0
  9  8  2  0
 11 12  1  0
 11 10  1  0
 12 14  1  0
 12 13  1  1
 14 15  1  6
 15  8  1  0
 16 17  2  0
 16 14  1  0
 19 21  1  0
 19 18  1  1
 20 19  1  0
 21 22  1  6
 22 16  1  0
 23 21  1  0
 24 23  2  0
 25 23  1  0
M  END
$$$$
