QIV.pdb
     RDKit          3D

 25 24  0  0  1  0  0  0  0  0999 V2000
    7.2316  -12.5431   18.5093 N   0  0  0  0  0  0  0  0  0  0  0  0
    8.4969  -12.9272   19.0726 C   0  0  0  0  0  0  0  0  0  0  0  0
    9.4992  -12.3630   18.6068 O   0  0  0  0  0  0  0  0  0  0  0  0
    8.4876  -13.9284   20.1187 C   0  0  0  0  0  0  0  0  0  0  0  0
    7.1603  -14.4208   20.6014 C   0  0  0  0  0  0  0  0  0  0  0  0
    7.2395  -15.5218   21.5872 C   0  0  2  0  0  0  0  0  0  0  0  0
    6.0149  -16.1492   21.9151 N   0  0  0  0  0  0  0  0  0  0  0  0
    8.0576  -15.1397   22.7976 C   0  0  0  0  0  0  0  0  0  0  0  0
    9.2734  -14.8830   22.6833 O   0  0  0  0  0  0  0  0  0  0  0  0
    6.0093  -11.8762   26.4387 C   0  0  0  0  0  0  0  0  0  0  0  0
    6.8492  -12.6542   25.3963 C   0  0  0  0  0  0  0  0  0  0  0  0
    7.4684  -13.7778   26.1248 C   0  0  2  0  0  0  0  0  0  0  0  0
    8.2074  -13.3603   27.3797 C   0  0  0  0  0  0  0  0  0  0  0  0
    8.1670  -14.8058   25.3244 C   0  0  2  0  0  0  0  0  0  0  0  0
    7.4582  -15.0681   24.0761 N   0  0  0  0  0  0  0  0  0  0  0  0
    8.7025  -16.0053   25.9651 C   0  0  0  0  0  0  0  0  0  0  0  0
    7.9212  -16.9176   26.4462 O   0  0  0  0  0  0  0  0  0  0  0  0
   12.2970  -19.3886   26.5445 C   0  0  0  0  0  0  0  0  0  0  0  0
   11.8116  -18.0650   25.9839 C   0  0  1  0  0  0  0  0  0  0  0  0
   11.5369  -18.2851   24.5119 C   0  0  0  0  0  0  0  0  0  0  0  0
   10.5496  -17.5993   26.6486 C   0  0  2  0  0  0  0  0  0  0  0  0
   10.0598  -16.3427   26.1453 N   0  0  0  0  0  0  0  0  0  0  0  0
   10.7076  -17.5298   28.1239 C   0  0  0  0  0  0  0  0  0  0  0  0
   10.6825  -18.5533   28.8562 O   0  0  0  0  0  0  0  0  0  0  0  0
   10.8959  -16.3176   28.8033 O   0  0  0  0  0  0  0  0  0  0  0  0
  2  1  1  0
  3  2  2  0
  4  2  1  0
  5  4  1  0
  6  7  1  1
  6  5  1  0
  8  6  1  0
  9  8  2  0
 11 12  1  0
 11 10  1  0
 12 14  1  0
 12 13  1  1
 14 15  1  6
 15  8  1  0
 16 17  2  0
 16 14  1  0
 19 21  1  0
 19 18  1  1
 20 19  1  0
 21 22  1  6
 22 16  1  0
 23 21  1  0
 24 23  2  0
 25 23  1  0
M  END
$$$$
