QIV.pdb
     RDKit          3D

 25 24  0  0  1  0  0  0  0  0999 V2000
    7.3467  -19.1014   20.2078 N   0  0  0  0  0  0  0  0  0  0  0  0
    6.6221  -18.2072   19.3469 C   0  0  0  0  0  0  0  0  0  0  0  0
    6.0132  -18.7296   18.4002 O   0  0  0  0  0  0  0  0  0  0  0  0
    6.6702  -16.7936   19.6571 C   0  0  0  0  0  0  0  0  0  0  0  0
    7.4555  -16.3691   20.8572 C   0  0  0  0  0  0  0  0  0  0  0  0
    7.2680  -14.9516   21.2390 C   0  0  2  0  0  0  0  0  0  0  0  0
    7.3996  -14.0061   20.1952 N   0  0  0  0  0  0  0  0  0  0  0  0
    8.0560  -14.5896   22.4753 C   0  0  0  0  0  0  0  0  0  0  0  0
    9.2690  -14.3083   22.3918 O   0  0  0  0  0  0  0  0  0  0  0  0
    6.0340  -11.5628   26.4121 C   0  0  0  0  0  0  0  0  0  0  0  0
    6.9050  -12.2341   25.3222 C   0  0  0  0  0  0  0  0  0  0  0  0
    7.4050  -13.4902   25.9129 C   0  0  2  0  0  0  0  0  0  0  0  0
    8.0480  -13.3131   27.2732 C   0  0  0  0  0  0  0  0  0  0  0  0
    8.1241  -14.4236   25.0201 C   0  0  2  0  0  0  0  0  0  0  0  0
    7.4315  -14.5648   23.7434 N   0  0  0  0  0  0  0  0  0  0  0  0
    8.6672  -15.6763   25.5415 C   0  0  0  0  0  0  0  0  0  0  0  0
    7.8916  -16.6380   25.9261 O   0  0  0  0  0  0  0  0  0  0  0  0
   12.3048  -19.0476   25.9748 C   0  0  0  0  0  0  0  0  0  0  0  0
   11.8112  -17.7012   25.4793 C   0  0  1  0  0  0  0  0  0  0  0  0
   11.5821  -17.8380   23.9895 C   0  0  0  0  0  0  0  0  0  0  0  0
   10.5228  -17.2969   26.1332 C   0  0  2  0  0  0  0  0  0  0  0  0
   10.0265  -16.0190   25.6938 N   0  0  0  0  0  0  0  0  0  0  0  0
   10.6367  -17.3168   27.6141 C   0  0  0  0  0  0  0  0  0  0  0  0
   10.8993  -16.2857   28.2866 O   0  0  0  0  0  0  0  0  0  0  0  0
   10.4594  -18.4873   28.3658 O   0  0  0  0  0  0  0  0  0  0  0  0
  2  1  1  0
  3  2  2  0
  4  2  1  0
  5  4  1  0
  6  7  1  6
  6  5  1  0
  8  6  1  0
  9  8  2  0
 11 12  1  0
 11 10  1  0
 12 14  1  0
 12 13  1  1
 14 15  1  6
 15  8  1  0
 16 17  2  0
 16 14  1  0
 19 21  1  0
 19 18  1  1
 20 19  1  0
 21 22  1  6
 22 16  1  0
 23 21  1  0
 24 23  2  0
 25 23  1  0
M  END
$$$$
