QIV.pdb
     RDKit          3D

 25 24  0  0  1  0  0  0  0  0999 V2000
    5.1356  -18.9881   21.1817 N   0  0  0  0  0  0  0  0  0  0  0  0
    5.9396  -18.5619   20.0691 C   0  0  0  0  0  0  0  0  0  0  0  0
    6.0594  -19.3715   19.1362 O   0  0  0  0  0  0  0  0  0  0  0  0
    6.5326  -17.2426   20.1382 C   0  0  0  0  0  0  0  0  0  0  0  0
    6.1891  -16.3841   21.3139 C   0  0  0  0  0  0  0  0  0  0  0  0
    6.8154  -15.0434   21.2942 C   0  0  2  0  0  0  0  0  0  0  0  0
    7.3779  -14.6402   20.0606 N   0  0  0  0  0  0  0  0  0  0  0  0
    7.7407  -14.8339   22.4691 C   0  0  0  0  0  0  0  0  0  0  0  0
    8.9781  -14.8372   22.3076 O   0  0  0  0  0  0  0  0  0  0  0  0
    5.9938  -11.5698   26.4251 C   0  0  0  0  0  0  0  0  0  0  0  0
    6.8066  -12.2558   25.2999 C   0  0  0  0  0  0  0  0  0  0  0  0
    7.3732  -13.4823   25.8927 C   0  0  2  0  0  0  0  0  0  0  0  0
    8.1388  -13.2433   27.1780 C   0  0  0  0  0  0  0  0  0  0  0  0
    8.0155  -14.4476   24.9758 C   0  0  2  0  0  0  0  0  0  0  0  0
    7.2185  -14.6316   23.7673 N   0  0  0  0  0  0  0  0  0  0  0  0
    8.6013  -15.6827   25.4931 C   0  0  0  0  0  0  0  0  0  0  0  0
    7.8607  -16.6330   25.9653 O   0  0  0  0  0  0  0  0  0  0  0  0
   12.3613  -18.9678   25.7037 C   0  0  0  0  0  0  0  0  0  0  0  0
   11.8187  -17.6192   25.2693 C   0  0  1  0  0  0  0  0  0  0  0  0
   11.6287  -17.6841   23.7692 C   0  0  0  0  0  0  0  0  0  0  0  0
   10.4994  -17.3079   25.9125 C   0  0  2  0  0  0  0  0  0  0  0  0
    9.9695  -16.0187   25.5524 N   0  0  0  0  0  0  0  0  0  0  0  0
   10.5739  -17.4327   27.3907 C   0  0  0  0  0  0  0  0  0  0  0  0
   10.7173  -16.4372   28.1476 O   0  0  0  0  0  0  0  0  0  0  0  0
   10.4896  -18.6699   28.0457 O   0  0  0  0  0  0  0  0  0  0  0  0
  2  1  1  0
  3  2  2  0
  4  2  1  0
  5  4  1  0
  6  7  1  6
  6  5  1  0
  8  6  1  0
  9  8  2  0
 11 12  1  0
 11 10  1  0
 12 14  1  0
 12 13  1  1
 14 15  1  6
 15  8  1  0
 16 17  2  0
 16 14  1  0
 19 21  1  0
 19 18  1  1
 20 19  1  0
 21 22  1  1
 22 16  1  0
 23 21  1  0
 24 23  2  0
 25 23  1  0
M  END
$$$$
