HLH.pdb
     RDKit          3D

 29 30  0  0  1  0  0  0  0  0999 V2000
    9.1067  -15.3561   20.9827 N   0  0  0  0  0  0  0  0  0  0  0  0
    8.1212  -15.7457   21.9517 C   0  0  1  0  0  0  0  0  0  0  0  0
    8.0123  -17.2554   21.9968 C   0  0  0  0  0  0  0  0  0  0  0  0
    7.3795  -17.7604   20.7318 C   0  0  0  0  0  0  0  0  0  0  0  0
    7.0494  -16.9533   19.6781 C   0  0  0  0  0  0  0  0  0  0  0  0
    6.5104  -17.7255   18.7257 N   0  0  0  0  0  0  0  0  0  0  0  0
    6.5031  -18.9875   19.1724 C   0  0  0  0  0  0  0  0  0  0  0  0
    7.0379  -18.9963   20.4023 N   0  0  0  0  0  0  0  0  0  0  0  0
    8.6009  -15.3291   23.3212 C   0  0  0  0  0  0  0  0  0  0  0  0
    9.8183  -15.1605   23.5193 O   0  0  0  0  0  0  0  0  0  0  0  0
    7.8420  -11.6618   26.0164 C   0  0  0  0  0  0  0  0  0  0  0  0
    6.6807  -12.6667   26.0790 C   0  0  2  0  0  0  0  0  0  0  0  0
    5.5076  -12.0642   26.7189 C   0  0  0  0  0  0  0  0  0  0  0  0
    7.1290  -14.0105   26.4320 C   0  0  0  0  0  0  0  0  0  0  0  0
    8.1973  -14.7210   25.7202 C   0  0  2  0  0  0  0  0  0  0  0  0
    7.6947  -15.1284   24.3768 N   0  0  0  0  0  0  0  0  0  0  0  0
    8.9097  -15.8418   26.3127 C   0  0  0  0  0  0  0  0  0  0  0  0
    9.4204  -15.7274   27.5096 O   0  0  0  0  0  0  0  0  0  0  0  0
    9.1114  -17.0935   25.7302 N   0  0  0  0  0  0  0  0  0  0  0  0
    9.8505  -18.1541   26.4862 C   0  0  1  0  0  0  0  0  0  0  0  0
    9.2696  -19.4283   25.9350 C   0  0  0  0  0  0  0  0  0  0  0  0
    8.0812  -19.9337   26.6217 C   0  0  0  0  0  0  0  0  0  0  0  0
    7.5547  -19.6695   27.8500 C   0  0  0  0  0  0  0  0  0  0  0  0
    6.3877  -20.3591   27.9744 N   0  0  0  0  0  0  0  0  0  0  0  0
    6.1943  -21.0379   26.8406 C   0  0  0  0  0  0  0  0  0  0  0  0
    7.1961  -20.7930   26.0258 N   0  0  0  0  0  0  0  0  0  0  0  0
   11.2679  -18.0125   26.1319 C   0  0  0  0  0  0  0  0  0  0  0  0
   11.7656  -17.1384   25.1819 O   0  0  0  0  0  0  0  0  0  0  0  0
   12.1413  -18.7232   26.7137 O   0  0  0  0  0  0  0  0  0  0  0  0
  2  1  1  6
  2  9  1  0
  3  2  1  0
  4  3  1  0
  5  4  2  0
  6  5  1  0
  7  6  1  0
  7  8  2  0
  8  4  1  0
  9 16  1  0
  9 10  2  0
 12 11  1  1
 12 13  1  0
 15 14  1  1
 14 12  1  0
 15 17  1  0
 16 15  1  0
 17 18  2  0
 19 20  1  0
 19 17  1  0
 20 27  1  0
 20 21  1  6
 22 21  1  0
 23 22  2  0
 24 23  1  0
 25 24  1  0
 25 26  2  0
 26 22  1  0
 27 28  1  0
 29 27  2  0
M  END
$$$$
