HLH.pdb
     RDKit          3D

 29 30  0  0  1  0  0  0  0  0999 V2000
    9.9875  -15.5924   20.2975 N   0  0  0  0  0  0  0  0  0  0  0  0
    8.7501  -15.8292   20.9862 C   0  0  1  0  0  0  0  0  0  0  0  0
    8.3752  -17.2927   20.8825 C   0  0  0  0  0  0  0  0  0  0  0  0
    8.1271  -17.6565   19.4466 C   0  0  0  0  0  0  0  0  0  0  0  0
    7.1392  -17.0953   18.6852 C   0  0  0  0  0  0  0  0  0  0  0  0
    7.2021  -17.6448   17.4654 N   0  0  0  0  0  0  0  0  0  0  0  0
    8.2065  -18.5298   17.4626 C   0  0  0  0  0  0  0  0  0  0  0  0
    8.7656  -18.5282   18.6816 N   0  0  0  0  0  0  0  0  0  0  0  0
    8.9590  -15.5638   22.4577 C   0  0  0  0  0  0  0  0  0  0  0  0
   10.0392  -15.8788   22.9901 O   0  0  0  0  0  0  0  0  0  0  0  0
    5.7894  -12.5736   26.8440 C   0  0  0  0  0  0  0  0  0  0  0  0
    7.1772  -13.1227   26.4772 C   0  0  2  0  0  0  0  0  0  0  0  0
    8.2337  -12.2391   26.9790 C   0  0  0  0  0  0  0  0  0  0  0  0
    7.2201  -13.6592   25.1201 C   0  0  0  0  0  0  0  0  0  0  0  0
    8.2190  -14.6329   24.6654 C   0  0  2  0  0  0  0  0  0  0  0  0
    7.9528  -14.9664   23.2366 N   0  0  0  0  0  0  0  0  0  0  0  0
    8.4858  -15.8645   25.3911 C   0  0  0  0  0  0  0  0  0  0  0  0
    7.5299  -16.7386   25.5609 O   0  0  0  0  0  0  0  0  0  0  0  0
    9.7073  -16.2493   25.9446 N   0  0  0  0  0  0  0  0  0  0  0  0
    9.7807  -17.4736   26.8038 C   0  0  1  0  0  0  0  0  0  0  0  0
   10.8574  -18.2884   26.1390 C   0  0  0  0  0  0  0  0  0  0  0  0
   10.4357  -19.0713   24.9778 C   0  0  0  0  0  0  0  0  0  0  0  0
    9.2355  -19.1924   24.3451 C   0  0  0  0  0  0  0  0  0  0  0  0
    9.3999  -20.0023   23.2635 N   0  0  0  0  0  0  0  0  0  0  0  0
   10.6819  -20.3753   23.2266 C   0  0  0  0  0  0  0  0  0  0  0  0
   11.3104  -19.8272   24.2424 N   0  0  0  0  0  0  0  0  0  0  0  0
   10.1931  -17.0260   28.1395 C   0  0  0  0  0  0  0  0  0  0  0  0
   10.4397  -15.7120   28.4957 O   0  0  0  0  0  0  0  0  0  0  0  0
   10.3481  -17.8704   29.0718 O   0  0  0  0  0  0  0  0  0  0  0  0
  2  1  1  6
  2  9  1  0
  3  2  1  0
  4  3  1  0
  5  4  2  0
  6  5  1  0
  7  6  1  0
  7  8  2  0
  8  4  1  0
  9 16  1  0
  9 10  2  0
 12 11  1  6
 12 13  1  0
 15 14  1  1
 14 12  1  0
 15 17  1  0
 16 15  1  0
 17 18  2  0
 19 20  1  0
 19 17  1  0
 20 27  1  0
 20 21  1  6
 22 21  1  0
 23 22  2  0
 24 23  1  0
 25 24  1  0
 25 26  2  0
 26 22  1  0
 27 28  1  0
 29 27  2  0
M  END
$$$$
