HLH.pdb
     RDKit          3D

 29 30  0  0  1  0  0  0  0  0999 V2000
   10.2197  -16.1537   20.3584 N   0  0  0  0  0  0  0  0  0  0  0  0
    9.0659  -16.4627   21.1554 C   0  0  1  0  0  0  0  0  0  0  0  0
    8.9576  -17.9612   21.3451 C   0  0  0  0  0  0  0  0  0  0  0  0
    8.2344  -18.5732   20.1797 C   0  0  0  0  0  0  0  0  0  0  0  0
    7.8626  -17.8693   19.0676 C   0  0  0  0  0  0  0  0  0  0  0  0
    7.2449  -18.7175   18.2352 N   0  0  0  0  0  0  0  0  0  0  0  0
    7.2302  -19.9252   18.8126 C   0  0  0  0  0  0  0  0  0  0  0  0
    7.8392  -19.8243   20.0033 N   0  0  0  0  0  0  0  0  0  0  0  0
    9.2669  -15.8889   22.5373 C   0  0  0  0  0  0  0  0  0  0  0  0
   10.4162  -15.8181   23.0104 O   0  0  0  0  0  0  0  0  0  0  0  0
    8.4631  -13.1759   27.0145 C   0  0  0  0  0  0  0  0  0  0  0  0
    7.4454  -12.7924   25.9285 C   0  0  2  0  0  0  0  0  0  0  0  0
    6.2282  -12.2399   26.5303 C   0  0  0  0  0  0  0  0  0  0  0  0
    7.3783  -13.7821   24.8574 C   0  0  0  0  0  0  0  0  0  0  0  0
    8.4122  -14.7972   24.6267 C   0  0  2  0  0  0  0  0  0  0  0  0
    8.1768  -15.4332   23.2986 N   0  0  0  0  0  0  0  0  0  0  0  0
    8.7051  -15.8385   25.5985 C   0  0  0  0  0  0  0  0  0  0  0  0
    7.7840  -16.7089   25.9156 O   0  0  0  0  0  0  0  0  0  0  0  0
    9.9194  -16.0368   26.2564 N   0  0  0  0  0  0  0  0  0  0  0  0
   10.0807  -17.2025   27.1825 C   0  0  1  0  0  0  0  0  0  0  0  0
   11.4490  -17.7235   26.8341 C   0  0  0  0  0  0  0  0  0  0  0  0
   11.5393  -18.4905   25.5921 C   0  0  0  0  0  0  0  0  0  0  0  0
   10.5894  -18.9405   24.7255 C   0  0  0  0  0  0  0  0  0  0  0  0
   11.2148  -19.5476   23.6800 N   0  0  0  0  0  0  0  0  0  0  0  0
   12.5309  -19.4732   23.8953 C   0  0  0  0  0  0  0  0  0  0  0  0
   12.7380  -18.8454   25.0313 N   0  0  0  0  0  0  0  0  0  0  0  0
   10.0424  -16.6639   28.5473 C   0  0  0  0  0  0  0  0  0  0  0  0
    9.8720  -17.4185   29.6944 O   0  0  0  0  0  0  0  0  0  0  0  0
   10.1714  -15.4181   28.7416 O   0  0  0  0  0  0  0  0  0  0  0  0
  2  1  1  6
  2  9  1  0
  3  2  1  0
  4  3  1  0
  5  4  2  0
  6  5  1  0
  7  6  1  0
  7  8  2  0
  8  4  1  0
  9 16  1  0
  9 10  2  0
 12 11  1  1
 12 13  1  0
 15 14  1  1
 14 12  1  0
 15 17  1  0
 16 15  1  0
 17 18  2  0
 19 20  1  0
 19 17  1  0
 20 27  1  0
 20 21  1  6
 22 21  1  0
 23 22  2  0
 24 23  1  0
 25 24  1  0
 25 26  2  0
 26 22  1  0
 27 28  1  0
 29 27  2  0
M  END
$$$$
