HLH.pdb
     RDKit          3D

 29 30  0  0  1  0  0  0  0  0999 V2000
    9.8715  -15.7552   19.9048 N   0  0  0  0  0  0  0  0  0  0  0  0
    8.6345  -15.7196   20.6330 C   0  0  1  0  0  0  0  0  0  0  0  0
    7.9910  -17.0903   20.6219 C   0  0  0  0  0  0  0  0  0  0  0  0
    7.8191  -17.5630   19.2067 C   0  0  0  0  0  0  0  0  0  0  0  0
    8.3457  -16.9135   18.1243 C   0  0  0  0  0  0  0  0  0  0  0  0
    8.0030  -17.6027   17.0283 N   0  0  0  0  0  0  0  0  0  0  0  0
    7.2783  -18.6598   17.4150 C   0  0  0  0  0  0  0  0  0  0  0  0
    7.1725  -18.6247   18.7515 N   0  0  0  0  0  0  0  0  0  0  0  0
    8.9365  -15.4212   22.0818 C   0  0  0  0  0  0  0  0  0  0  0  0
   10.0547  -15.7096   22.5469 O   0  0  0  0  0  0  0  0  0  0  0  0
    6.0515  -12.3223   26.5584 C   0  0  0  0  0  0  0  0  0  0  0  0
    7.4177  -12.8960   26.1502 C   0  0  2  0  0  0  0  0  0  0  0  0
    8.5050  -12.0404   26.6343 C   0  0  0  0  0  0  0  0  0  0  0  0
    7.4148  -13.4178   24.7867 C   0  0  0  0  0  0  0  0  0  0  0  0
    8.3265  -14.4682   24.3195 C   0  0  2  0  0  0  0  0  0  0  0  0
    7.9750  -14.8229   22.9145 N   0  0  0  0  0  0  0  0  0  0  0  0
    8.5446  -15.6941   25.0707 C   0  0  0  0  0  0  0  0  0  0  0  0
    7.5660  -16.5460   25.2222 O   0  0  0  0  0  0  0  0  0  0  0  0
    9.7398  -16.0953   25.6683 N   0  0  0  0  0  0  0  0  0  0  0  0
    9.8071  -17.4075   26.3869 C   0  0  1  0  0  0  0  0  0  0  0  0
   11.1284  -17.9709   25.9377 C   0  0  0  0  0  0  0  0  0  0  0  0
   11.1499  -18.5440   24.5922 C   0  0  0  0  0  0  0  0  0  0  0  0
   10.3095  -19.4043   23.9524 C   0  0  0  0  0  0  0  0  0  0  0  0
   10.7503  -19.5647   22.6746 N   0  0  0  0  0  0  0  0  0  0  0  0
   11.8452  -18.8145   22.5255 C   0  0  0  0  0  0  0  0  0  0  0  0
   12.0941  -18.2006   23.6607 N   0  0  0  0  0  0  0  0  0  0  0  0
    9.8139  -17.1010   27.8223 C   0  0  0  0  0  0  0  0  0  0  0  0
    9.7065  -15.8324   28.3640 O   0  0  0  0  0  0  0  0  0  0  0  0
    9.9237  -18.0365   28.6703 O   0  0  0  0  0  0  0  0  0  0  0  0
  2  1  1  6
  2  9  1  0
  3  2  1  0
  4  3  1  0
  5  4  2  0
  6  5  1  0
  7  6  1  0
  7  8  2  0
  8  4  1  0
  9 16  1  0
  9 10  2  0
 12 11  1  6
 12 13  1  0
 15 14  1  1
 14 12  1  0
 15 17  1  0
 16 15  1  0
 17 18  2  0
 19 20  1  0
 19 17  1  0
 20 27  1  0
 20 21  1  6
 22 21  1  0
 23 22  2  0
 24 23  1  0
 25 24  1  0
 25 26  2  0
 26 22  1  0
 27 28  1  0
 29 27  2  0
M  END
$$$$
