HLH.pdb
     RDKit          3D

 29 30  0  0  1  0  0  0  0  0999 V2000
    8.6685  -13.1313   20.4356 N   0  0  0  0  0  0  0  0  0  0  0  0
    8.0364  -14.2702   21.0398 C   0  0  1  0  0  0  0  0  0  0  0  0
    8.5317  -15.5420   20.3839 C   0  0  0  0  0  0  0  0  0  0  0  0
    8.0001  -15.6350   18.9822 C   0  0  0  0  0  0  0  0  0  0  0  0
    8.3433  -14.7640   17.9851 C   0  0  0  0  0  0  0  0  0  0  0  0
    7.6926  -15.1370   16.8755 N   0  0  0  0  0  0  0  0  0  0  0  0
    6.9585  -16.2169   17.1707 C   0  0  0  0  0  0  0  0  0  0  0  0
    7.1551  -16.5125   18.4640 N   0  0  0  0  0  0  0  0  0  0  0  0
    8.4749  -14.3561   22.4819 C   0  0  0  0  0  0  0  0  0  0  0  0
    9.6885  -14.3189   22.7568 O   0  0  0  0  0  0  0  0  0  0  0  0
    7.7747  -11.6987   26.2148 C   0  0  0  0  0  0  0  0  0  0  0  0
    6.5901  -12.6015   25.8356 C   0  0  2  0  0  0  0  0  0  0  0  0
    5.3606  -12.1467   26.4916 C   0  0  0  0  0  0  0  0  0  0  0  0
    6.9561  -14.0145   25.8096 C   0  0  0  0  0  0  0  0  0  0  0  0
    7.9968  -14.5657   24.9345 C   0  0  2  0  0  0  0  0  0  0  0  0
    7.5345  -14.4776   23.5195 N   0  0  0  0  0  0  0  0  0  0  0  0
    8.5778  -15.8803   25.1557 C   0  0  0  0  0  0  0  0  0  0  0  0
    8.5340  -16.7777   24.2074 O   0  0  0  0  0  0  0  0  0  0  0  0
    9.2211  -16.3149   26.3149 N   0  0  0  0  0  0  0  0  0  0  0  0
    9.9163  -17.6413   26.3257 C   0  0  1  0  0  0  0  0  0  0  0  0
   11.1480  -17.3835   25.5002 C   0  0  0  0  0  0  0  0  0  0  0  0
   11.0307  -17.6841   24.0736 C   0  0  0  0  0  0  0  0  0  0  0  0
    9.9862  -18.1185   23.3146 C   0  0  0  0  0  0  0  0  0  0  0  0
   10.3918  -18.1726   22.0164 N   0  0  0  0  0  0  0  0  0  0  0  0
   11.6665  -17.7764   21.9724 C   0  0  0  0  0  0  0  0  0  0  0  0
   12.0595  -17.4820   23.1916 N   0  0  0  0  0  0  0  0  0  0  0  0
   10.2571  -17.9261   27.7247 C   0  0  0  0  0  0  0  0  0  0  0  0
    9.9545  -17.1074   28.7982 O   0  0  0  0  0  0  0  0  0  0  0  0
   10.8754  -18.9915   28.0228 O   0  0  0  0  0  0  0  0  0  0  0  0
  2  1  1  6
  2  9  1  0
  3  2  1  0
  4  3  1  0
  5  4  2  0
  6  5  1  0
  7  6  1  0
  7  8  2  0
  8  4  1  0
  9 16  1  0
  9 10  2  0
 12 11  1  1
 12 13  1  0
 15 14  1  1
 14 12  1  0
 15 17  1  0
 16 15  1  0
 17 18  2  0
 19 20  1  0
 19 17  1  0
 20 27  1  0
 20 21  1  6
 22 21  1  0
 23 22  2  0
 24 23  1  0
 25 24  1  0
 25 26  2  0
 26 22  1  0
 27 28  1  0
 29 27  2  0
M  END
$$$$
