HLH.pdb
     RDKit          3D

 29 30  0  0  1  0  0  0  0  0999 V2000
    9.8259  -16.6413   20.6639 N   0  0  0  0  0  0  0  0  0  0  0  0
    8.5419  -16.5456   21.2996 C   0  0  1  0  0  0  0  0  0  0  0  0
    7.9972  -17.9322   21.5707 C   0  0  0  0  0  0  0  0  0  0  0  0
    7.5121  -18.5504   20.2906 C   0  0  0  0  0  0  0  0  0  0  0  0
    7.6358  -17.9502   19.0679 C   0  0  0  0  0  0  0  0  0  0  0  0
    7.1027  -18.7716   18.1542 N   0  0  0  0  0  0  0  0  0  0  0  0
    6.6552  -19.8614   18.7900 C   0  0  0  0  0  0  0  0  0  0  0  0
    6.9116  -19.7144   20.0981 N   0  0  0  0  0  0  0  0  0  0  0  0
    8.7215  -15.9045   22.6546 C   0  0  0  0  0  0  0  0  0  0  0  0
    9.8053  -16.0312   23.2539 O   0  0  0  0  0  0  0  0  0  0  0  0
    8.4327  -12.3188   26.4212 C   0  0  0  0  0  0  0  0  0  0  0  0
    7.0222  -12.4447   25.8238 C   0  0  2  0  0  0  0  0  0  0  0  0
    6.0093  -12.4537   26.8834 C   0  0  0  0  0  0  0  0  0  0  0  0
    6.9710  -13.3981   24.7194 C   0  0  0  0  0  0  0  0  0  0  0  0
    7.8965  -14.5282   24.5815 C   0  0  2  0  0  0  0  0  0  0  0  0
    7.6843  -15.1666   23.2507 N   0  0  0  0  0  0  0  0  0  0  0  0
    8.0000  -15.5714   25.5894 C   0  0  0  0  0  0  0  0  0  0  0  0
    6.9252  -16.1970   25.9896 O   0  0  0  0  0  0  0  0  0  0  0  0
    9.1724  -16.0154   26.2015 N   0  0  0  0  0  0  0  0  0  0  0  0
    9.1297  -17.1998   27.1170 C   0  0  1  0  0  0  0  0  0  0  0  0
    9.9754  -18.2145   26.3958 C   0  0  0  0  0  0  0  0  0  0  0  0
    9.3182  -18.9245   25.2989 C   0  0  0  0  0  0  0  0  0  0  0  0
    8.0543  -18.8578   24.7953 C   0  0  0  0  0  0  0  0  0  0  0  0
    7.9769  -19.6860   23.7178 N   0  0  0  0  0  0  0  0  0  0  0  0
    9.1744  -20.2551   23.5562 C   0  0  0  0  0  0  0  0  0  0  0  0
    9.9831  -19.8097   24.4917 N   0  0  0  0  0  0  0  0  0  0  0  0
    9.7531  -16.7795   28.3777 C   0  0  0  0  0  0  0  0  0  0  0  0
    9.7136  -17.4960   29.5607 O   0  0  0  0  0  0  0  0  0  0  0  0
   10.3880  -15.6842   28.4373 O   0  0  0  0  0  0  0  0  0  0  0  0
  2  1  1  1
  2  9  1  0
  3  2  1  0
  4  3  1  0
  5  4  2  0
  6  5  1  0
  7  6  1  0
  7  8  2  0
  8  4  1  0
  9 16  1  0
  9 10  2  0
 12 11  1  1
 12 13  1  0
 15 14  1  1
 14 12  1  0
 15 17  1  0
 16 15  1  0
 17 18  2  0
 19 20  1  0
 19 17  1  0
 20 27  1  0
 20 21  1  6
 22 21  1  0
 23 22  2  0
 24 23  1  0
 25 24  1  0
 25 26  2  0
 26 22  1  0
 27 28  1  0
 29 27  2  0
M  END
$$$$
