HLH.pdb
     RDKit          3D

 29 30  0  0  1  0  0  0  0  0999 V2000
    8.4490  -14.1399   20.1335 N   0  0  0  0  0  0  0  0  0  0  0  0
    7.8337  -15.0308   21.0766 C   0  0  1  0  0  0  0  0  0  0  0  0
    8.3093  -16.4476   20.8322 C   0  0  0  0  0  0  0  0  0  0  0  0
    7.7900  -16.9406   19.5119 C   0  0  0  0  0  0  0  0  0  0  0  0
    6.5718  -17.5426   19.3568 C   0  0  0  0  0  0  0  0  0  0  0  0
    6.4316  -17.8523   18.0613 N   0  0  0  0  0  0  0  0  0  0  0  0
    7.5367  -17.4535   17.4195 C   0  0  0  0  0  0  0  0  0  0  0  0
    8.3615  -16.8965   18.3185 N   0  0  0  0  0  0  0  0  0  0  0  0
    8.3131  -14.6717   22.4624 C   0  0  0  0  0  0  0  0  0  0  0  0
    9.4731  -14.2477   22.6191 O   0  0  0  0  0  0  0  0  0  0  0  0
    7.5850  -11.4750   25.7591 C   0  0  0  0  0  0  0  0  0  0  0  0
    6.4245  -12.4659   25.5755 C   0  0  2  0  0  0  0  0  0  0  0  0
    5.2169  -11.9809   26.2501 C   0  0  0  0  0  0  0  0  0  0  0  0
    6.8562  -13.8548   25.7019 C   0  0  0  0  0  0  0  0  0  0  0  0
    7.9657  -14.4311   24.9341 C   0  0  2  0  0  0  0  0  0  0  0  0
    7.4706  -14.8086   23.5791 N   0  0  0  0  0  0  0  0  0  0  0  0
    8.7841  -15.5159   25.4519 C   0  0  0  0  0  0  0  0  0  0  0  0
    8.8672  -15.7086   26.7413 O   0  0  0  0  0  0  0  0  0  0  0  0
    9.5181  -16.4305   24.6961 N   0  0  0  0  0  0  0  0  0  0  0  0
   10.2986  -17.5068   25.3854 C   0  0  1  0  0  0  0  0  0  0  0  0
    9.3358  -18.6634   25.4029 C   0  0  0  0  0  0  0  0  0  0  0  0
    8.7590  -18.9898   26.7067 C   0  0  0  0  0  0  0  0  0  0  0  0
    8.8645  -18.3937   27.9271 C   0  0  0  0  0  0  0  0  0  0  0  0
    8.0646  -19.0624   28.8022 N   0  0  0  0  0  0  0  0  0  0  0  0
    7.4724  -20.0556   28.1338 C   0  0  0  0  0  0  0  0  0  0  0  0
    7.8772  -20.0234   26.8838 N   0  0  0  0  0  0  0  0  0  0  0  0
   11.4632  -17.7900   24.5380 C   0  0  0  0  0  0  0  0  0  0  0  0
   12.5434  -18.5714   24.9082 O   0  0  0  0  0  0  0  0  0  0  0  0
   11.5305  -17.3047   23.3692 O   0  0  0  0  0  0  0  0  0  0  0  0
  2  1  1  6
  2  9  1  0
  3  2  1  0
  4  3  1  0
  5  4  2  0
  6  5  1  0
  7  6  1  0
  7  8  2  0
  8  4  1  0
  9 16  1  0
  9 10  2  0
 12 11  1  1
 12 13  1  0
 15 14  1  1
 14 12  1  0
 15 17  1  0
 16 15  1  0
 17 18  2  0
 19 20  1  0
 19 17  1  0
 20 27  1  0
 20 21  1  6
 22 21  1  0
 23 22  2  0
 24 23  1  0
 25 24  1  0
 25 26  2  0
 26 22  1  0
 27 28  1  0
 29 27  2  0
M  END
$$$$
