HLH.pdb
     RDKit          3D

 29 30  0  0  1  0  0  0  0  0999 V2000
   10.0838  -13.6836   20.8044 N   0  0  0  0  0  0  0  0  0  0  0  0
    8.7911  -14.0165   21.3334 C   0  0  1  0  0  0  0  0  0  0  0  0
    8.2512  -15.2477   20.6364 C   0  0  0  0  0  0  0  0  0  0  0  0
    7.9596  -14.9338   19.1968 C   0  0  0  0  0  0  0  0  0  0  0  0
    8.3471  -13.7745   18.5833 C   0  0  0  0  0  0  0  0  0  0  0  0
    7.9268  -13.8250   17.3126 N   0  0  0  0  0  0  0  0  0  0  0  0
    7.2906  -14.9893   17.1341 C   0  0  0  0  0  0  0  0  0  0  0  0
    7.3172  -15.6598   18.2953 N   0  0  0  0  0  0  0  0  0  0  0  0
    8.9491  -14.4039   22.7840 C   0  0  0  0  0  0  0  0  0  0  0  0
   10.0746  -14.7133   23.2167 O   0  0  0  0  0  0  0  0  0  0  0  0
    8.1037  -11.9321   26.6603 C   0  0  0  0  0  0  0  0  0  0  0  0
    6.8566  -12.5496   26.0079 C   0  0  2  0  0  0  0  0  0  0  0  0
    5.6359  -11.9341   26.5370 C   0  0  0  0  0  0  0  0  0  0  0  0
    6.9697  -13.9971   25.8558 C   0  0  0  0  0  0  0  0  0  0  0  0
    8.0527  -14.6511   25.1128 C   0  0  2  0  0  0  0  0  0  0  0  0
    7.8453  -14.4210   23.6541 N   0  0  0  0  0  0  0  0  0  0  0  0
    8.4009  -16.0476   25.3210 C   0  0  0  0  0  0  0  0  0  0  0  0
    7.5429  -16.9837   25.0141 O   0  0  0  0  0  0  0  0  0  0  0  0
    9.6092  -16.5320   25.8229 N   0  0  0  0  0  0  0  0  0  0  0  0
    9.7614  -17.9938   26.1104 C   0  0  1  0  0  0  0  0  0  0  0  0
   11.1397  -18.2986   25.5882 C   0  0  0  0  0  0  0  0  0  0  0  0
   11.2641  -18.3789   24.1331 C   0  0  0  0  0  0  0  0  0  0  0  0
   10.3451  -18.2889   23.1316 C   0  0  0  0  0  0  0  0  0  0  0  0
   10.9996  -18.3615   21.9403 N   0  0  0  0  0  0  0  0  0  0  0  0
   12.3031  -18.4928   22.2004 C   0  0  0  0  0  0  0  0  0  0  0  0
   12.4745  -18.5042   23.5035 N   0  0  0  0  0  0  0  0  0  0  0  0
    9.6939  -18.1448   27.5688 C   0  0  0  0  0  0  0  0  0  0  0  0
    9.6689  -19.3535   28.2417 O   0  0  0  0  0  0  0  0  0  0  0  0
    9.6543  -17.1188   28.3118 O   0  0  0  0  0  0  0  0  0  0  0  0
  2  1  1  6
  2  9  1  0
  3  2  1  0
  4  3  1  0
  5  4  2  0
  6  5  1  0
  7  6  1  0
  7  8  2  0
  8  4  1  0
  9 16  1  0
  9 10  2  0
 12 11  1  1
 12 13  1  0
 15 14  1  1
 14 12  1  0
 15 17  1  0
 16 15  1  0
 17 18  2  0
 19 20  1  0
 19 17  1  0
 20 27  1  0
 20 21  1  1
 22 21  1  0
 23 22  2  0
 24 23  1  0
 25 24  1  0
 25 26  2  0
 26 22  1  0
 27 28  1  0
 29 27  2  0
M  END
$$$$
