HLH.pdb
     RDKit          3D

 29 30  0  0  1  0  0  0  0  0999 V2000
    9.4195  -15.7086   20.3714 N   0  0  0  0  0  0  0  0  0  0  0  0
    8.3396  -15.9436   21.2881 C   0  0  1  0  0  0  0  0  0  0  0  0
    8.1655  -17.4317   21.5078 C   0  0  0  0  0  0  0  0  0  0  0  0
    7.7950  -18.0996   20.2145 C   0  0  0  0  0  0  0  0  0  0  0  0
    6.7847  -17.6639   19.4019 C   0  0  0  0  0  0  0  0  0  0  0  0
    6.7301  -18.4831   18.3437 N   0  0  0  0  0  0  0  0  0  0  0  0
    7.6842  -19.4107   18.4900 C   0  0  0  0  0  0  0  0  0  0  0  0
    8.3299  -19.1654   19.6396 N   0  0  0  0  0  0  0  0  0  0  0  0
    8.7169  -15.3728   22.6338 C   0  0  0  0  0  0  0  0  0  0  0  0
    9.9151  -15.3353   22.9697 O   0  0  0  0  0  0  0  0  0  0  0  0
    8.3932  -12.8574   27.3070 C   0  0  0  0  0  0  0  0  0  0  0  0
    7.2626  -12.4087   26.3676 C   0  0  2  0  0  0  0  0  0  0  0  0
    6.0901  -11.9792   27.1353 C   0  0  0  0  0  0  0  0  0  0  0  0
    7.1281  -13.2821   25.2054 C   0  0  0  0  0  0  0  0  0  0  0  0
    8.1432  -14.2644   24.8087 C   0  0  2  0  0  0  0  0  0  0  0  0
    7.7368  -14.8829   23.5142 N   0  0  0  0  0  0  0  0  0  0  0  0
    8.5968  -15.3144   25.7067 C   0  0  0  0  0  0  0  0  0  0  0  0
    7.7565  -16.2272   26.1158 O   0  0  0  0  0  0  0  0  0  0  0  0
    9.8922  -15.4791   26.1978 N   0  0  0  0  0  0  0  0  0  0  0  0
   10.2052  -16.6373   27.0941 C   0  0  1  0  0  0  0  0  0  0  0  0
   11.5482  -17.0974   26.5944 C   0  0  0  0  0  0  0  0  0  0  0  0
   11.5254  -17.9528   25.4083 C   0  0  0  0  0  0  0  0  0  0  0  0
   10.5026  -18.4266   24.6434 C   0  0  0  0  0  0  0  0  0  0  0  0
   11.0325  -19.1288   23.6047 N   0  0  0  0  0  0  0  0  0  0  0  0
   12.3622  -19.0891   23.7240 C   0  0  0  0  0  0  0  0  0  0  0  0
   12.6693  -18.3910   24.7945 N   0  0  0  0  0  0  0  0  0  0  0  0
   10.2940  -16.1017   28.4578 C   0  0  0  0  0  0  0  0  0  0  0  0
   10.2816  -16.8637   29.6126 O   0  0  0  0  0  0  0  0  0  0  0  0
   10.3916  -14.8518   28.6435 O   0  0  0  0  0  0  0  0  0  0  0  0
  2  1  1  6
  2  9  1  0
  3  2  1  0
  4  3  1  0
  5  4  2  0
  6  5  1  0
  7  6  1  0
  7  8  2  0
  8  4  1  0
  9 16  1  0
  9 10  2  0
 12 11  1  1
 12 13  1  0
 15 14  1  1
 14 12  1  0
 15 17  1  0
 16 15  1  0
 17 18  2  0
 19 20  1  0
 19 17  1  0
 20 27  1  0
 20 21  1  6
 22 21  1  0
 23 22  2  0
 24 23  1  0
 25 24  1  0
 25 26  2  0
 26 22  1  0
 27 28  1  0
 29 27  2  0
M  END
$$$$
