HLH.pdb
     RDKit          3D

 29 30  0  0  1  0  0  0  0  0999 V2000
    9.5116  -15.4412   20.0239 N   0  0  0  0  0  0  0  0  0  0  0  0
    8.5164  -15.8029   20.9937 C   0  0  1  0  0  0  0  0  0  0  0  0
    8.5816  -17.2908   21.2679 C   0  0  0  0  0  0  0  0  0  0  0  0
    8.1637  -18.0550   20.0443 C   0  0  0  0  0  0  0  0  0  0  0  0
    7.8616  -17.4613   18.8497 C   0  0  0  0  0  0  0  0  0  0  0  0
    7.5327  -18.4293   17.9845 N   0  0  0  0  0  0  0  0  0  0  0  0
    7.6265  -19.6026   18.6224 C   0  0  0  0  0  0  0  0  0  0  0  0
    8.0139  -19.3605   19.8833 N   0  0  0  0  0  0  0  0  0  0  0  0
    8.8525  -15.1306   22.3030 C   0  0  0  0  0  0  0  0  0  0  0  0
   10.0200  -14.7554   22.5175 O   0  0  0  0  0  0  0  0  0  0  0  0
    5.6846  -12.5583   26.9110 C   0  0  0  0  0  0  0  0  0  0  0  0
    7.0967  -12.8127   26.3599 C   0  0  2  0  0  0  0  0  0  0  0  0
    7.9353  -11.6200   26.5118 C   0  0  0  0  0  0  0  0  0  0  0  0
    7.0766  -13.5700   25.1120 C   0  0  0  0  0  0  0  0  0  0  0  0
    8.2381  -14.2962   24.5865 C   0  0  2  0  0  0  0  0  0  0  0  0
    7.8681  -14.9216   23.2844 N   0  0  0  0  0  0  0  0  0  0  0  0
    8.9669  -15.2706   25.3829 C   0  0  0  0  0  0  0  0  0  0  0  0
    9.4633  -14.9230   26.5402 O   0  0  0  0  0  0  0  0  0  0  0  0
    9.1996  -16.6045   25.0466 N   0  0  0  0  0  0  0  0  0  0  0  0
    9.9057  -17.5023   26.0151 C   0  0  1  0  0  0  0  0  0  0  0  0
    9.3013  -18.8504   25.7279 C   0  0  0  0  0  0  0  0  0  0  0  0
    8.1831  -19.2408   26.5862 C   0  0  0  0  0  0  0  0  0  0  0  0
    7.6027  -18.6375   27.6608 C   0  0  0  0  0  0  0  0  0  0  0  0
    6.5416  -19.3929   28.0562 N   0  0  0  0  0  0  0  0  0  0  0  0
    6.4656  -20.4461   27.2384 C   0  0  0  0  0  0  0  0  0  0  0  0
    7.4378  -20.3675   26.3574 N   0  0  0  0  0  0  0  0  0  0  0  0
   11.3297  -17.4657   25.6610 C   0  0  0  0  0  0  0  0  0  0  0  0
   12.3689  -17.7916   26.5145 O   0  0  0  0  0  0  0  0  0  0  0  0
   11.6850  -17.1157   24.4959 O   0  0  0  0  0  0  0  0  0  0  0  0
  2  1  1  6
  2  9  1  0
  3  2  1  0
  4  3  1  0
  5  4  2  0
  6  5  1  0
  7  6  1  0
  7  8  2  0
  8  4  1  0
  9 16  1  0
  9 10  2  0
 12 11  1  6
 12 13  1  0
 15 14  1  1
 14 12  1  0
 15 17  1  0
 16 15  1  0
 17 18  2  0
 19 20  1  0
 19 17  1  0
 20 27  1  0
 20 21  1  6
 22 21  1  0
 23 22  2  0
 24 23  1  0
 25 24  1  0
 25 26  2  0
 26 22  1  0
 27 28  1  0
 29 27  2  0
M  END
$$$$
