HLH.pdb
     RDKit          3D

 29 30  0  0  1  0  0  0  0  0999 V2000
    9.7873  -18.3804   16.8391 N   0  0  0  0  0  0  0  0  0  0  0  0
    8.7803  -18.1258   17.8305 C   0  0  1  0  0  0  0  0  0  0  0  0
    8.4554  -19.4042   18.5743 C   0  0  0  0  0  0  0  0  0  0  0  0
    8.3658  -20.5498   17.6072 C   0  0  0  0  0  0  0  0  0  0  0  0
    8.6110  -20.4278   16.2672 C   0  0  0  0  0  0  0  0  0  0  0  0
    8.4418  -21.6338   15.7098 N   0  0  0  0  0  0  0  0  0  0  0  0
    8.0984  -22.4918   16.6784 C   0  0  0  0  0  0  0  0  0  0  0  0
    8.0551  -21.8161   17.8361 N   0  0  0  0  0  0  0  0  0  0  0  0
    9.3492  -17.1842   18.8645 C   0  0  0  0  0  0  0  0  0  0  0  0
   10.5838  -17.0684   18.9749 O   0  0  0  0  0  0  0  0  0  0  0  0
    8.8386  -12.7104   19.4817 C   0  0  0  0  0  0  0  0  0  0  0  0
    7.6751  -13.4959   20.1075 C   0  0  2  0  0  0  0  0  0  0  0  0
    6.5513  -12.6048   20.4101 C   0  0  0  0  0  0  0  0  0  0  0  0
    8.1336  -14.4907   21.0726 C   0  0  0  0  0  0  0  0  0  0  0  0
    9.0965  -15.5494   20.7490 C   0  0  2  0  0  0  0  0  0  0  0  0
    8.5069  -16.4360   19.7051 N   0  0  0  0  0  0  0  0  0  0  0  0
    9.7093  -16.3783   21.7748 C   0  0  0  0  0  0  0  0  0  0  0  0
    9.1155  -17.4746   22.1646 O   0  0  0  0  0  0  0  0  0  0  0  0
   10.9248  -16.1363   22.4155 N   0  0  0  0  0  0  0  0  0  0  0  0
   11.4288  -17.1034   23.4419 C   0  0  1  0  0  0  0  0  0  0  0  0
   12.4168  -17.9334   22.6672 C   0  0  0  0  0  0  0  0  0  0  0  0
   13.1589  -18.9262   23.4436 C   0  0  0  0  0  0  0  0  0  0  0  0
   13.1706  -19.2233   24.7729 C   0  0  0  0  0  0  0  0  0  0  0  0
   13.9930  -20.2904   24.9674 N   0  0  0  0  0  0  0  0  0  0  0  0
   14.4813  -20.6491   23.7770 C   0  0  0  0  0  0  0  0  0  0  0  0
   13.9919  -19.8444   22.8602 N   0  0  0  0  0  0  0  0  0  0  0  0
   12.0938  -16.3065   24.4798 C   0  0  0  0  0  0  0  0  0  0  0  0
   12.4466  -16.7718   25.7342 O   0  0  0  0  0  0  0  0  0  0  0  0
   12.3887  -15.0941   24.2572 O   0  0  0  0  0  0  0  0  0  0  0  0
  2  1  1  6
  2  9  1  0
  3  2  1  0
  4  3  1  0
  5  4  2  0
  6  5  1  0
  7  6  1  0
  7  8  2  0
  8  4  1  0
  9 16  1  0
  9 10  2  0
 12 11  1  1
 12 13  1  0
 15 14  1  1
 14 12  1  0
 15 17  1  0
 16 15  1  0
 17 18  2  0
 19 20  1  0
 19 17  1  0
 20 27  1  0
 20 21  1  6
 22 21  1  0
 23 22  2  0
 24 23  1  0
 25 24  1  0
 25 26  2  0
 26 22  1  0
 27 28  1  0
 29 27  2  0
M  END
$$$$
