HLH.pdb
     RDKit          3D

 29 30  0  0  1  0  0  0  0  0999 V2000
   10.7062  -14.0407   21.1093 N   0  0  0  0  0  0  0  0  0  0  0  0
    9.3571  -14.0891   21.5986 C   0  0  1  0  0  0  0  0  0  0  0  0
    8.5684  -15.1298   20.8318 C   0  0  0  0  0  0  0  0  0  0  0  0
    8.2504  -14.6189   19.4557 C   0  0  0  0  0  0  0  0  0  0  0  0
    8.7421  -13.4457   18.9534 C   0  0  0  0  0  0  0  0  0  0  0  0
    8.2615  -13.3000   17.7118 N   0  0  0  0  0  0  0  0  0  0  0  0
    7.4864  -14.3578   17.4424 C   0  0  0  0  0  0  0  0  0  0  0  0
    7.4873  -15.1587   18.5181 N   0  0  0  0  0  0  0  0  0  0  0  0
    9.3806  -14.5667   23.0306 C   0  0  0  0  0  0  0  0  0  0  0  0
   10.4720  -14.8106   23.5776 O   0  0  0  0  0  0  0  0  0  0  0  0
    7.9451  -12.1694   26.8309 C   0  0  0  0  0  0  0  0  0  0  0  0
    6.7735  -12.7699   26.0379 C   0  0  2  0  0  0  0  0  0  0  0  0
    5.4933  -12.2616   26.5393 C   0  0  0  0  0  0  0  0  0  0  0  0
    6.9657  -14.1890   25.7542 C   0  0  0  0  0  0  0  0  0  0  0  0
    8.2227  -14.7506   25.2472 C   0  0  2  0  0  0  0  0  0  0  0  0
    8.1896  -14.7408   23.7564 N   0  0  0  0  0  0  0  0  0  0  0  0
    8.7322  -16.0369   25.6951 C   0  0  0  0  0  0  0  0  0  0  0  0
    8.7133  -16.3360   26.9666 O   0  0  0  0  0  0  0  0  0  0  0  0
    9.2532  -17.0466   24.8854 N   0  0  0  0  0  0  0  0  0  0  0  0
    9.7427  -18.3184   25.5065 C   0  0  1  0  0  0  0  0  0  0  0  0
   10.8725  -18.7241   24.5988 C   0  0  0  0  0  0  0  0  0  0  0  0
   10.5184  -18.9222   23.1936 C   0  0  0  0  0  0  0  0  0  0  0  0
    9.3458  -18.7705   22.5171 C   0  0  0  0  0  0  0  0  0  0  0  0
    9.5753  -19.0191   21.1987 N   0  0  0  0  0  0  0  0  0  0  0  0
   10.8697  -19.3185   21.0611 C   0  0  0  0  0  0  0  0  0  0  0  0
   11.4434  -19.2641   22.2424 N   0  0  0  0  0  0  0  0  0  0  0  0
   10.2288  -17.9717   26.8474 C   0  0  0  0  0  0  0  0  0  0  0  0
   10.4952  -18.8813   27.8553 O   0  0  0  0  0  0  0  0  0  0  0  0
   10.4362  -16.7594   27.1533 O   0  0  0  0  0  0  0  0  0  0  0  0
  2  1  1  6
  2  9  1  0
  3  2  1  0
  4  3  1  0
  5  4  2  0
  6  5  1  0
  7  6  1  0
  7  8  2  0
  8  4  1  0
  9 16  1  0
  9 10  2  0
 12 11  1  1
 12 13  1  0
 15 14  1  1
 14 12  1  0
 15 17  1  0
 16 15  1  0
 17 18  2  0
 19 20  1  0
 19 17  1  0
 20 27  1  0
 20 21  1  6
 22 21  1  0
 23 22  2  0
 24 23  1  0
 25 24  1  0
 25 26  2  0
 26 22  1  0
 27 28  1  0
 29 27  2  0
M  END
$$$$
