HLH.pdb
     RDKit          3D

 29 30  0  0  1  0  0  0  0  0999 V2000
    9.5982  -15.4945   20.2217 N   0  0  0  0  0  0  0  0  0  0  0  0
    8.4448  -15.8644   20.9928 C   0  0  1  0  0  0  0  0  0  0  0  0
    8.2899  -17.3707   20.9972 C   0  0  0  0  0  0  0  0  0  0  0  0
    7.9143  -17.8500   19.6242 C   0  0  0  0  0  0  0  0  0  0  0  0
    6.8879  -17.3183   18.8932 C   0  0  0  0  0  0  0  0  0  0  0  0
    6.8333  -17.9760   17.7278 N   0  0  0  0  0  0  0  0  0  0  0  0
    7.8033  -18.8987   17.7286 C   0  0  0  0  0  0  0  0  0  0  0  0
    8.4587  -18.8119   18.8954 N   0  0  0  0  0  0  0  0  0  0  0  0
    8.6815  -15.4734   22.4317 C   0  0  0  0  0  0  0  0  0  0  0  0
    9.8341  -15.5245   22.8992 O   0  0  0  0  0  0  0  0  0  0  0  0
    8.3363  -12.5231   26.6316 C   0  0  0  0  0  0  0  0  0  0  0  0
    7.0272  -12.5158   25.8264 C   0  0  2  0  0  0  0  0  0  0  0  0
    5.9538  -11.8697   26.5874 C   0  0  0  0  0  0  0  0  0  0  0  0
    6.8033  -13.7741   25.1209 C   0  0  0  0  0  0  0  0  0  0  0  0
    7.8876  -14.6502   24.6634 C   0  0  2  0  0  0  0  0  0  0  0  0
    7.6208  -15.0525   23.2525 N   0  0  0  0  0  0  0  0  0  0  0  0
    8.3029  -15.8245   25.4139 C   0  0  0  0  0  0  0  0  0  0  0  0
    7.4239  -16.7377   25.7301 O   0  0  0  0  0  0  0  0  0  0  0  0
    9.5973  -16.1130   25.8471 N   0  0  0  0  0  0  0  0  0  0  0  0
    9.8825  -17.4229   26.5148 C   0  0  1  0  0  0  0  0  0  0  0  0
   11.2086  -17.8208   25.9248 C   0  0  0  0  0  0  0  0  0  0  0  0
   11.8780  -18.9495   26.5707 C   0  0  0  0  0  0  0  0  0  0  0  0
   11.6013  -19.6461   27.7081 C   0  0  0  0  0  0  0  0  0  0  0  0
   12.5054  -20.6571   27.8233 N   0  0  0  0  0  0  0  0  0  0  0  0
   13.3276  -20.5882   26.7730 C   0  0  0  0  0  0  0  0  0  0  0  0
   12.9646  -19.5752   26.0184 N   0  0  0  0  0  0  0  0  0  0  0  0
    9.9950  -17.1466   27.9519 C   0  0  0  0  0  0  0  0  0  0  0  0
    9.9796  -15.8859   28.5219 O   0  0  0  0  0  0  0  0  0  0  0  0
   10.1170  -18.1033   28.7743 O   0  0  0  0  0  0  0  0  0  0  0  0
  2  1  1  6
  2  9  1  0
  3  2  1  0
  4  3  1  0
  5  4  2  0
  6  5  1  0
  7  6  1  0
  7  8  2  0
  8  4  1  0
  9 16  1  0
  9 10  2  0
 12 11  1  1
 12 13  1  0
 15 14  1  1
 14 12  1  0
 15 17  1  0
 16 15  1  0
 17 18  2  0
 19 20  1  0
 19 17  1  0
 20 27  1  0
 20 21  1  6
 22 21  1  0
 23 22  2  0
 24 23  1  0
 25 24  1  0
 25 26  2  0
 26 22  1  0
 27 28  1  0
 29 27  2  0
M  END
$$$$
