HLH.pdb
     RDKit          3D

 29 30  0  0  1  0  0  0  0  0999 V2000
   10.1804  -15.4024   20.2998 N   0  0  0  0  0  0  0  0  0  0  0  0
    9.1521  -14.6014   20.9022 C   0  0  1  0  0  0  0  0  0  0  0  0
    7.7977  -15.0132   20.3646 C   0  0  0  0  0  0  0  0  0  0  0  0
    7.6750  -14.6087   18.9234 C   0  0  0  0  0  0  0  0  0  0  0  0
    7.7086  -13.3092   18.4983 C   0  0  0  0  0  0  0  0  0  0  0  0
    7.5733  -13.3120   17.1658 N   0  0  0  0  0  0  0  0  0  0  0  0
    7.4577  -14.5841   16.7653 C   0  0  0  0  0  0  0  0  0  0  0  0
    7.5215  -15.3692   17.8507 N   0  0  0  0  0  0  0  0  0  0  0  0
    9.1131  -14.9001   22.3816 C   0  0  0  0  0  0  0  0  0  0  0  0
    9.9777  -15.6444   22.8797 O   0  0  0  0  0  0  0  0  0  0  0  0
    5.8968  -12.5946   27.1354 C   0  0  0  0  0  0  0  0  0  0  0  0
    7.2597  -13.1746   26.7252 C   0  0  2  0  0  0  0  0  0  0  0  0
    8.3460  -12.5088   27.4500 C   0  0  0  0  0  0  0  0  0  0  0  0
    7.3477  -13.4211   25.2889 C   0  0  0  0  0  0  0  0  0  0  0  0
    8.2735  -14.3879   24.6882 C   0  0  2  0  0  0  0  0  0  0  0  0
    8.1157  -14.3510   23.2059 N   0  0  0  0  0  0  0  0  0  0  0  0
    8.3295  -15.7759   25.1182 C   0  0  0  0  0  0  0  0  0  0  0  0
    7.2924  -16.5515   24.9466 O   0  0  0  0  0  0  0  0  0  0  0  0
    9.4198  -16.4141   25.7103 N   0  0  0  0  0  0  0  0  0  0  0  0
    9.2344  -17.7494   26.3626 C   0  0  1  0  0  0  0  0  0  0  0  0
   10.1684  -18.6373   25.5852 C   0  0  0  0  0  0  0  0  0  0  0  0
    9.8165  -18.8557   24.1824 C   0  0  0  0  0  0  0  0  0  0  0  0
   10.1208  -18.1678   23.0467 C   0  0  0  0  0  0  0  0  0  0  0  0
    9.5975  -18.8393   21.9846 N   0  0  0  0  0  0  0  0  0  0  0  0
    8.9805  -19.9263   22.4554 C   0  0  0  0  0  0  0  0  0  0  0  0
    9.1037  -19.9484   23.7638 N   0  0  0  0  0  0  0  0  0  0  0  0
    9.6702  -17.6007   27.7563 C   0  0  0  0  0  0  0  0  0  0  0  0
   10.0911  -16.4164   28.3347 O   0  0  0  0  0  0  0  0  0  0  0  0
    9.6785  -18.6053   28.5290 O   0  0  0  0  0  0  0  0  0  0  0  0
  2  1  1  6
  2  9  1  0
  3  2  1  0
  4  3  1  0
  5  4  2  0
  6  5  1  0
  7  6  1  0
  7  8  2  0
  8  4  1  0
  9 16  1  0
  9 10  2  0
 12 11  1  6
 12 13  1  0
 15 14  1  1
 14 12  1  0
 15 17  1  0
 16 15  1  0
 17 18  2  0
 19 20  1  0
 19 17  1  0
 20 27  1  0
 20 21  1  6
 22 21  1  0
 23 22  2  0
 24 23  1  0
 25 24  1  0
 25 26  2  0
 26 22  1  0
 27 28  1  0
 29 27  2  0
M  END
$$$$
