HLH.pdb
     RDKit          3D

 29 30  0  0  1  0  0  0  0  0999 V2000
    9.9404  -15.9546   20.1886 N   0  0  0  0  0  0  0  0  0  0  0  0
    8.8017  -16.2432   21.0143 C   0  0  1  0  0  0  0  0  0  0  0  0
    8.6335  -17.7417   21.1536 C   0  0  0  0  0  0  0  0  0  0  0  0
    8.1375  -18.3229   19.8605 C   0  0  0  0  0  0  0  0  0  0  0  0
    8.9589  -18.8739   18.9160 C   0  0  0  0  0  0  0  0  0  0  0  0
    8.1914  -19.2904   17.9005 N   0  0  0  0  0  0  0  0  0  0  0  0
    6.9182  -19.0069   18.2019 C   0  0  0  0  0  0  0  0  0  0  0  0
    6.8978  -18.4144   19.4049 N   0  0  0  0  0  0  0  0  0  0  0  0
    9.0748  -15.7310   22.4080 C   0  0  0  0  0  0  0  0  0  0  0  0
   10.2313  -15.7856   22.8655 O   0  0  0  0  0  0  0  0  0  0  0  0
    8.0840  -13.4701   27.2558 C   0  0  0  0  0  0  0  0  0  0  0  0
    7.4678  -12.7429   26.0501 C   0  0  2  0  0  0  0  0  0  0  0  0
    6.3436  -11.9015   26.4711 C   0  0  0  0  0  0  0  0  0  0  0  0
    7.3710  -13.6027   24.8743 C   0  0  0  0  0  0  0  0  0  0  0  0
    8.3527  -14.6435   24.5490 C   0  0  2  0  0  0  0  0  0  0  0  0
    8.0438  -15.1934   23.1978 N   0  0  0  0  0  0  0  0  0  0  0  0
    8.6360  -15.7491   25.4502 C   0  0  0  0  0  0  0  0  0  0  0  0
    7.6776  -16.5659   25.7977 O   0  0  0  0  0  0  0  0  0  0  0  0
    9.8761  -16.0652   26.0058 N   0  0  0  0  0  0  0  0  0  0  0  0
   10.0100  -17.2680   26.8878 C   0  0  1  0  0  0  0  0  0  0  0  0
   11.3660  -17.8073   26.5194 C   0  0  0  0  0  0  0  0  0  0  0  0
   11.4602  -18.4463   25.2071 C   0  0  0  0  0  0  0  0  0  0  0  0
   10.5534  -19.1352   24.4596 C   0  0  0  0  0  0  0  0  0  0  0  0
   11.1343  -19.4608   23.2724 N   0  0  0  0  0  0  0  0  0  0  0  0
   12.3802  -18.9798   23.2844 C   0  0  0  0  0  0  0  0  0  0  0  0
   12.5872  -18.3726   24.4316 N   0  0  0  0  0  0  0  0  0  0  0  0
    9.9840  -16.7797   28.2717 C   0  0  0  0  0  0  0  0  0  0  0  0
    9.8762  -17.5809   29.3946 O   0  0  0  0  0  0  0  0  0  0  0  0
   10.0640  -15.5371   28.5077 O   0  0  0  0  0  0  0  0  0  0  0  0
  2  1  1  6
  2  9  1  0
  3  2  1  0
  4  3  1  0
  5  4  2  0
  6  5  1  0
  7  6  1  0
  7  8  2  0
  8  4  1  0
  9 16  1  0
  9 10  2  0
 12 11  1  1
 12 13  1  0
 15 14  1  1
 14 12  1  0
 15 17  1  0
 16 15  1  0
 17 18  2  0
 19 20  1  0
 19 17  1  0
 20 27  1  0
 20 21  1  6
 22 21  1  0
 23 22  2  0
 24 23  1  0
 25 24  1  0
 25 26  2  0
 26 22  1  0
 27 28  1  0
 29 27  2  0
M  END
$$$$
