AGR.pdb
     RDKit          3D

 21 20  0  0  1  0  0  0  0  0999 V2000
    7.8481  -19.5603   19.6516 C   0  0  0  0  0  0  0  0  0  0  0  0
    9.0693  -20.0793   18.8813 C   0  0  2  0  0  0  0  0  0  0  0  0
    9.4412  -21.3921   19.3659 N   0  0  0  0  0  0  0  0  0  0  0  0
   10.1940  -19.1535   19.0941 C   0  0  0  0  0  0  0  0  0  0  0  0
   10.1467  -18.0262   18.4841 O   0  0  0  0  0  0  0  0  0  0  0  0
   11.3048  -19.4400   19.9233 N   0  0  0  0  0  0  0  0  0  0  0  0
   12.3040  -18.4417   20.1342 C   0  0  0  0  0  0  0  0  0  0  0  0
   12.1428  -17.7037   21.4016 C   0  0  0  0  0  0  0  0  0  0  0  0
   13.0076  -16.8280   21.7243 O   0  0  0  0  0  0  0  0  0  0  0  0
    7.5369  -11.9384   21.4612 N   0  0  0  0  0  0  0  0  0  0  0  0
    7.9019  -12.8525   20.4409 C   0  0  0  0  0  0  0  0  0  0  0  0
    7.8936  -12.4520   19.2238 N   0  0  0  0  0  0  0  0  0  0  0  0
    8.2706  -14.1808   20.7323 N   0  0  0  0  0  0  0  0  0  0  0  0
    8.5418  -14.5735   22.0851 C   0  0  0  0  0  0  0  0  0  0  0  0
    8.8811  -16.0665   22.0398 C   0  0  0  0  0  0  0  0  0  0  0  0
    9.3016  -16.6130   23.3648 C   0  0  0  0  0  0  0  0  0  0  0  0
   10.7382  -16.9782   23.3910 C   0  0  2  0  0  0  0  0  0  0  0  0
   11.0751  -17.9030   22.3014 N   0  0  0  0  0  0  0  0  0  0  0  0
   11.1970  -17.4515   24.6758 C   0  0  0  0  0  0  0  0  0  0  0  0
   11.3407  -18.7094   24.8558 O   0  0  0  0  0  0  0  0  0  0  0  0
   11.4956  -16.6361   25.7297 O   0  0  0  0  0  0  0  0  0  0  0  0
  2  1  1  1
  2  4  1  0
  2  3  1  0
  4  5  2  0
  6  4  1  0
  6  7  1  0
  7  8  1  0
  8  9  2  0
 10 11  1  0
 11 13  1  0
 11 12  2  0
 13 14  1  0
 14 15  1  0
 15 16  1  0
 17 16  1  1
 17 19  1  0
 18  8  1  0
 18 17  1  0
 19 21  1  0
 20 19  2  0
M  END
$$$$
