AGR.pdb
     RDKit          3D

 21 20  0  0  1  0  0  0  0  0999 V2000
    8.6084  -19.6471   15.4243 C   0  0  0  0  0  0  0  0  0  0  0  0
    9.6820  -19.0873   16.3666 C   0  0  2  0  0  0  0  0  0  0  0  0
   10.2718  -20.1597   17.1405 N   0  0  0  0  0  0  0  0  0  0  0  0
    9.0528  -18.1238   17.2848 C   0  0  0  0  0  0  0  0  0  0  0  0
    9.1031  -16.8848   16.9565 O   0  0  0  0  0  0  0  0  0  0  0  0
    8.4066  -18.4895   18.4898 N   0  0  0  0  0  0  0  0  0  0  0  0
    7.7370  -17.4923   19.2623 C   0  0  0  0  0  0  0  0  0  0  0  0
    8.4992  -17.0526   20.4466 C   0  0  0  0  0  0  0  0  0  0  0  0
    9.2134  -17.8980   21.0742 O   0  0  0  0  0  0  0  0  0  0  0  0
    5.2787  -11.2930   26.4321 N   0  0  0  0  0  0  0  0  0  0  0  0
    6.4886  -11.9130   26.8343 C   0  0  0  0  0  0  0  0  0  0  0  0
    7.1271  -11.4265   27.8330 N   0  0  0  0  0  0  0  0  0  0  0  0
    7.0008  -13.0427   26.1662 N   0  0  0  0  0  0  0  0  0  0  0  0
    6.8040  -13.1956   24.7535 C   0  0  0  0  0  0  0  0  0  0  0  0
    7.4730  -14.5183   24.3667 C   0  0  0  0  0  0  0  0  0  0  0  0
    7.3736  -14.8212   22.9075 C   0  0  0  0  0  0  0  0  0  0  0  0
    8.6297  -15.3926   22.3660 C   0  0  2  0  0  0  0  0  0  0  0  0
    8.4935  -15.7328   20.9442 N   0  0  0  0  0  0  0  0  0  0  0  0
    9.1567  -16.4880   23.1457 C   0  0  0  0  0  0  0  0  0  0  0  0
   10.2787  -16.3394   23.7408 O   0  0  0  0  0  0  0  0  0  0  0  0
    8.5290  -17.6913   23.2967 O   0  0  0  0  0  0  0  0  0  0  0  0
  2  1  1  6
  2  4  1  0
  2  3  1  0
  4  5  2  0
  6  4  1  0
  6  7  1  0
  7  8  1  0
  8  9  2  0
 10 11  1  0
 11 13  1  0
 11 12  2  0
 13 14  1  0
 14 15  1  0
 15 16  1  0
 17 16  1  1
 17 19  1  0
 18  8  1  0
 18 17  1  0
 19 21  1  0
 20 19  2  0
M  END
$$$$
