AGR.pdb
     RDKit          3D

 21 20  0  0  1  0  0  0  0  0999 V2000
   10.3546  -20.1393   17.4507 C   0  0  0  0  0  0  0  0  0  0  0  0
    9.9720  -19.5411   18.8108 C   0  0  2  0  0  0  0  0  0  0  0  0
   10.5792  -18.2360   18.9681 N   0  0  0  0  0  0  0  0  0  0  0  0
   10.4640  -20.4301   19.8763 C   0  0  0  0  0  0  0  0  0  0  0  0
    9.8422  -21.5391   20.0458 O   0  0  0  0  0  0  0  0  0  0  0  0
   11.5689  -20.1277   20.7076 N   0  0  0  0  0  0  0  0  0  0  0  0
   12.0775  -21.1241   21.5953 C   0  0  0  0  0  0  0  0  0  0  0  0
   12.5368  -20.5832   22.8889 C   0  0  0  0  0  0  0  0  0  0  0  0
   13.0627  -19.4252   22.9259 O   0  0  0  0  0  0  0  0  0  0  0  0
   11.5052  -22.5338   31.6455 N   0  0  0  0  0  0  0  0  0  0  0  0
   12.5121  -21.5514   31.4698 C   0  0  0  0  0  0  0  0  0  0  0  0
   13.0068  -20.9847   32.5071 N   0  0  0  0  0  0  0  0  0  0  0  0
   12.9772  -21.1865   30.1909 N   0  0  0  0  0  0  0  0  0  0  0  0
   12.3525  -21.7232   29.0163 C   0  0  0  0  0  0  0  0  0  0  0  0
   13.1257  -21.1573   27.8212 C   0  0  0  0  0  0  0  0  0  0  0  0
   12.6420  -21.6808   26.5086 C   0  0  0  0  0  0  0  0  0  0  0  0
   12.9685  -20.7693   25.3860 C   0  0  2  0  0  0  0  0  0  0  0  0
   12.4324  -21.2723   24.1150 N   0  0  0  0  0  0  0  0  0  0  0  0
   14.3698  -20.4315   25.2967 C   0  0  0  0  0  0  0  0  0  0  0  0
   15.1612  -21.2327   24.6910 O   0  0  0  0  0  0  0  0  0  0  0  0
   14.9181  -19.2960   25.8207 O   0  0  0  0  0  0  0  0  0  0  0  0
  2  1  1  6
  2  4  1  0
  2  3  1  0
  4  5  2  0
  6  4  1  0
  6  7  1  0
  7  8  1  0
  8  9  2  0
 10 11  1  0
 11 13  1  0
 11 12  2  0
 13 14  1  0
 14 15  1  0
 15 16  1  0
 17 16  1  1
 17 19  1  0
 18  8  1  0
 18 17  1  0
 19 21  1  0
 20 19  2  0
M  END
$$$$
