AGR.pdb
     RDKit          3D

 21 20  0  0  1  0  0  0  0  0999 V2000
    9.8948  -19.4704   17.4016 C   0  0  0  0  0  0  0  0  0  0  0  0
   10.1973  -20.0444   18.7919 C   0  0  2  0  0  0  0  0  0  0  0  0
    9.0149  -19.9773   19.6251 N   0  0  0  0  0  0  0  0  0  0  0  0
   11.2671  -19.2462   19.4131 C   0  0  0  0  0  0  0  0  0  0  0  0
   12.4138  -19.2574   18.8383 O   0  0  0  0  0  0  0  0  0  0  0  0
   11.0967  -18.4808   20.5915 N   0  0  0  0  0  0  0  0  0  0  0  0
   12.1932  -17.7245   21.1064 C   0  0  0  0  0  0  0  0  0  0  0  0
   11.8478  -16.9156   22.2910 C   0  0  0  0  0  0  0  0  0  0  0  0
   12.7449  -16.1944   22.8332 O   0  0  0  0  0  0  0  0  0  0  0  0
    8.1696  -11.9908   21.0208 N   0  0  0  0  0  0  0  0  0  0  0  0
    7.7135  -13.0590   20.2078 C   0  0  0  0  0  0  0  0  0  0  0  0
    7.8861  -12.9849   18.9404 N   0  0  0  0  0  0  0  0  0  0  0  0
    7.0797  -14.1910   20.7574 N   0  0  0  0  0  0  0  0  0  0  0  0
    7.1841  -14.4651   22.1616 C   0  0  0  0  0  0  0  0  0  0  0  0
    8.5917  -15.0255   22.3870 C   0  0  0  0  0  0  0  0  0  0  0  0
    8.8428  -15.4286   23.8032 C   0  0  0  0  0  0  0  0  0  0  0  0
   10.1976  -15.9999   23.9924 C   0  0  2  0  0  0  0  0  0  0  0  0
   10.5662  -16.8831   22.8788 N   0  0  0  0  0  0  0  0  0  0  0  0
   10.3928  -16.6262   25.2789 C   0  0  0  0  0  0  0  0  0  0  0  0
   10.6442  -17.8792   25.3246 O   0  0  0  0  0  0  0  0  0  0  0  0
   10.3289  -15.9625   26.4707 O   0  0  0  0  0  0  0  0  0  0  0  0
  2  1  1  6
  2  4  1  0
  2  3  1  0
  4  5  2  0
  6  4  1  0
  6  7  1  0
  7  8  1  0
  8  9  2  0
 10 11  1  0
 11 13  1  0
 11 12  2  0
 13 14  1  0
 14 15  1  0
 15 16  1  0
 17 16  1  6
 17 19  1  0
 18  8  1  0
 18 17  1  0
 19 21  1  0
 20 19  2  0
M  END
$$$$
