AGR.pdb
     RDKit          3D

 21 20  0  0  1  0  0  0  0  0999 V2000
    9.2465  -16.8402   16.8331 C   0  0  0  0  0  0  0  0  0  0  0  0
    8.3018  -15.7045   16.4188 C   0  0  2  0  0  0  0  0  0  0  0  0
    9.0003  -14.7618   15.5702 N   0  0  0  0  0  0  0  0  0  0  0  0
    7.8377  -15.0069   17.6294 C   0  0  0  0  0  0  0  0  0  0  0  0
    7.0255  -15.6402   18.3939 O   0  0  0  0  0  0  0  0  0  0  0  0
    8.2358  -13.6961   17.9854 N   0  0  0  0  0  0  0  0  0  0  0  0
    7.7258  -13.1039   19.1806 C   0  0  0  0  0  0  0  0  0  0  0  0
    8.4388  -13.5284   20.4005 C   0  0  0  0  0  0  0  0  0  0  0  0
    9.6349  -13.1374   20.5882 O   0  0  0  0  0  0  0  0  0  0  0  0
    8.0127  -18.6467   27.4389 N   0  0  0  0  0  0  0  0  0  0  0  0
    7.4357  -18.7465   26.1478 C   0  0  0  0  0  0  0  0  0  0  0  0
    7.2685  -19.9094   25.6365 N   0  0  0  0  0  0  0  0  0  0  0  0
    7.0452  -17.6052   25.4197 N   0  0  0  0  0  0  0  0  0  0  0  0
    7.3303  -16.2940   25.9270 C   0  0  0  0  0  0  0  0  0  0  0  0
    8.2814  -15.6406   24.9196 C   0  0  0  0  0  0  0  0  0  0  0  0
    7.6016  -15.2226   23.6570 C   0  0  0  0  0  0  0  0  0  0  0  0
    8.5581  -14.7060   22.6490 C   0  0  2  0  0  0  0  0  0  0  0  0
    7.8776  -14.3547   21.3963 N   0  0  0  0  0  0  0  0  0  0  0  0
    9.6992  -15.5644   22.4331 C   0  0  0  0  0  0  0  0  0  0  0  0
    9.6456  -16.4419   21.5045 O   0  0  0  0  0  0  0  0  0  0  0  0
   10.8523  -15.5023   23.1620 O   0  0  0  0  0  0  0  0  0  0  0  0
  2  1  1  1
  2  4  1  0
  2  3  1  0
  4  5  2  0
  6  4  1  0
  6  7  1  0
  7  8  1  0
  8  9  2  0
 10 11  1  0
 11 13  1  0
 11 12  2  0
 13 14  1  0
 14 15  1  0
 15 16  1  0
 17 16  1  1
 17 19  1  0
 18  8  1  0
 18 17  1  0
 19 21  1  0
 20 19  2  0
M  END
$$$$
