AGR.pdb
     RDKit          3D

 21 20  0  0  1  0  0  0  0  0999 V2000
    7.1853  -16.4222   16.4501 C   0  0  0  0  0  0  0  0  0  0  0  0
    7.9922  -15.1262   16.2980 C   0  0  2  0  0  0  0  0  0  0  0  0
    9.1604  -15.3619   15.4755 N   0  0  0  0  0  0  0  0  0  0  0  0
    8.4273  -14.6780   17.6311 C   0  0  0  0  0  0  0  0  0  0  0  0
    9.5603  -15.1081   18.0516 O   0  0  0  0  0  0  0  0  0  0  0  0
    7.6719  -13.8116   18.4570 N   0  0  0  0  0  0  0  0  0  0  0  0
    8.2277  -13.3475   19.6879 C   0  0  0  0  0  0  0  0  0  0  0  0
    8.0533  -14.2922   20.8077 C   0  0  0  0  0  0  0  0  0  0  0  0
    7.2110  -15.2392   20.6954 O   0  0  0  0  0  0  0  0  0  0  0  0
   13.3338  -17.5873   21.1173 N   0  0  0  0  0  0  0  0  0  0  0  0
   12.3963  -18.5770   21.5064 C   0  0  0  0  0  0  0  0  0  0  0  0
   12.8248  -19.7465   21.8069 N   0  0  0  0  0  0  0  0  0  0  0  0
   11.0150  -18.3062   21.5695 N   0  0  0  0  0  0  0  0  0  0  0  0
   10.5528  -16.9723   21.8239 C   0  0  0  0  0  0  0  0  0  0  0  0
   10.2643  -16.8964   23.3264 C   0  0  0  0  0  0  0  0  0  0  0  0
    9.8337  -15.5376   23.7731 C   0  0  0  0  0  0  0  0  0  0  0  0
    8.5504  -15.1246   23.1565 C   0  0  2  0  0  0  0  0  0  0  0  0
    8.7691  -14.2200   22.0208 N   0  0  0  0  0  0  0  0  0  0  0  0
    7.5909  -14.6008   24.1002 C   0  0  0  0  0  0  0  0  0  0  0  0
    7.0608  -15.3970   24.9489 O   0  0  0  0  0  0  0  0  0  0  0  0
    7.2050  -13.2919   24.1524 O   0  0  0  0  0  0  0  0  0  0  0  0
  2  1  1  1
  2  4  1  0
  2  3  1  0
  4  5  2  0
  6  4  1  0
  6  7  1  0
  7  8  1  0
  8  9  2  0
 10 11  1  0
 11 13  1  0
 11 12  2  0
 13 14  1  0
 14 15  1  0
 15 16  1  0
 17 16  1  1
 17 19  1  0
 18  8  1  0
 18 17  1  0
 19 21  1  0
 20 19  2  0
M  END
$$$$
