AGR.pdb
     RDKit          3D

 21 20  0  0  1  0  0  0  0  0999 V2000
    7.3983  -21.0170   18.6699 C   0  0  0  0  0  0  0  0  0  0  0  0
    7.9432  -20.6076   20.0445 C   0  0  2  0  0  0  0  0  0  0  0  0
    6.8505  -20.2581   20.9281 N   0  0  0  0  0  0  0  0  0  0  0  0
    8.8190  -19.4358   19.8788 C   0  0  0  0  0  0  0  0  0  0  0  0
   10.0844  -19.6449   19.8946 O   0  0  0  0  0  0  0  0  0  0  0  0
    8.3431  -18.1141   19.7057 N   0  0  0  0  0  0  0  0  0  0  0  0
    9.2728  -17.0523   19.4870 C   0  0  0  0  0  0  0  0  0  0  0  0
    9.8191  -16.4802   20.7324 C   0  0  0  0  0  0  0  0  0  0  0  0
   10.6834  -15.5492   20.6610 O   0  0  0  0  0  0  0  0  0  0  0  0
    5.1467  -12.5217   26.0754 N   0  0  0  0  0  0  0  0  0  0  0  0
    6.5253  -12.5580   25.7469 C   0  0  0  0  0  0  0  0  0  0  0  0
    6.9753  -11.7219   24.8866 N   0  0  0  0  0  0  0  0  0  0  0  0
    7.4048  -13.4854   26.3399 N   0  0  0  0  0  0  0  0  0  0  0  0
    7.4595  -14.8360   25.8597 C   0  0  0  0  0  0  0  0  0  0  0  0
    8.5753  -14.8747   24.8109 C   0  0  0  0  0  0  0  0  0  0  0  0
    8.8514  -16.2504   24.2988 C   0  0  0  0  0  0  0  0  0  0  0  0
    9.9112  -16.2612   23.2623 C   0  0  2  0  0  0  0  0  0  0  0  0
    9.4437  -16.8998   22.0256 N   0  0  0  0  0  0  0  0  0  0  0  0
   11.1695  -16.8028   23.7194 C   0  0  0  0  0  0  0  0  0  0  0  0
   12.0572  -16.0034   24.1756 O   0  0  0  0  0  0  0  0  0  0  0  0
   11.4826  -18.1319   23.7006 O   0  0  0  0  0  0  0  0  0  0  0  0
  2  1  1  6
  2  4  1  0
  2  3  1  0
  4  5  2  0
  6  4  1  0
  6  7  1  0
  7  8  1  0
  8  9  2  0
 10 11  1  0
 11 13  1  0
 11 12  2  0
 13 14  1  0
 14 15  1  0
 15 16  1  0
 17 16  1  1
 17 19  1  0
 18  8  1  0
 18 17  1  0
 19 21  1  0
 20 19  2  0
M  END
$$$$
