AGR.pdb
     RDKit          3D

 21 20  0  0  1  0  0  0  0  0999 V2000
   10.2264  -21.7244   18.8588 C   0  0  0  0  0  0  0  0  0  0  0  0
   10.1474  -21.2116   20.3026 C   0  0  2  0  0  0  0  0  0  0  0  0
    8.8653  -20.5802   20.5361 N   0  0  0  0  0  0  0  0  0  0  0  0
   11.2152  -20.2205   20.5141 C   0  0  0  0  0  0  0  0  0  0  0  0
   12.2955  -20.6343   21.0684 O   0  0  0  0  0  0  0  0  0  0  0  0
   11.1116  -18.8586   20.1428 N   0  0  0  0  0  0  0  0  0  0  0  0
   12.1988  -17.9708   20.4057 C   0  0  0  0  0  0  0  0  0  0  0  0
   11.9350  -17.0241   21.5061 C   0  0  0  0  0  0  0  0  0  0  0  0
   12.7845  -16.1104   21.7560 O   0  0  0  0  0  0  0  0  0  0  0  0
    7.9700  -11.7371   20.2913 N   0  0  0  0  0  0  0  0  0  0  0  0
    7.9808  -12.9126   19.4989 C   0  0  0  0  0  0  0  0  0  0  0  0
    8.3712  -12.8306   18.2813 N   0  0  0  0  0  0  0  0  0  0  0  0
    7.5752  -14.1591   20.0157 N   0  0  0  0  0  0  0  0  0  0  0  0
    7.6274  -14.4056   21.4279 C   0  0  0  0  0  0  0  0  0  0  0  0
    8.9927  -15.0432   21.7030 C   0  0  0  0  0  0  0  0  0  0  0  0
    9.1931  -15.4039   23.1386 C   0  0  0  0  0  0  0  0  0  0  0  0
   10.4928  -16.0777   23.3719 C   0  0  2  0  0  0  0  0  0  0  0  0
   10.7831  -17.0593   22.3193 N   0  0  0  0  0  0  0  0  0  0  0  0
   10.6323  -16.6345   24.6970 C   0  0  0  0  0  0  0  0  0  0  0  0
   10.5169  -15.8602   25.7081 O   0  0  0  0  0  0  0  0  0  0  0  0
   10.8808  -17.9531   24.9507 O   0  0  0  0  0  0  0  0  0  0  0  0
  2  1  1  6
  2  4  1  0
  2  3  1  0
  4  5  2  0
  6  4  1  0
  6  7  1  0
  7  8  1  0
  8  9  2  0
 10 11  1  0
 11 13  1  0
 11 12  2  0
 13 14  1  0
 14 15  1  0
 15 16  1  0
 17 16  1  6
 17 19  1  0
 18  8  1  0
 18 17  1  0
 19 21  1  0
 20 19  2  0
M  END
$$$$
