AGR.pdb
     RDKit          3D

 21 20  0  0  1  0  0  0  0  0999 V2000
    6.6890  -23.0115   19.8266 C   0  0  0  0  0  0  0  0  0  0  0  0
    7.6564  -21.8315   19.6655 C   0  0  2  0  0  0  0  0  0  0  0  0
    9.0189  -22.3142   19.5807 N   0  0  0  0  0  0  0  0  0  0  0  0
    7.5319  -20.9513   20.8391 C   0  0  0  0  0  0  0  0  0  0  0  0
    6.4788  -20.2230   20.9145 O   0  0  0  0  0  0  0  0  0  0  0  0
    8.4987  -20.8703   21.8698 N   0  0  0  0  0  0  0  0  0  0  0  0
    8.2719  -20.0057   22.9836 C   0  0  0  0  0  0  0  0  0  0  0  0
    9.3019  -18.9609   23.1391 C   0  0  0  0  0  0  0  0  0  0  0  0
   10.5289  -19.2765   23.0215 O   0  0  0  0  0  0  0  0  0  0  0  0
    8.3386  -12.7341   17.7701 N   0  0  0  0  0  0  0  0  0  0  0  0
    7.9177  -12.9908   19.0994 C   0  0  0  0  0  0  0  0  0  0  0  0
    6.6962  -12.7642   19.4128 N   0  0  0  0  0  0  0  0  0  0  0  0
    8.8050  -13.4853   20.0758 N   0  0  0  0  0  0  0  0  0  0  0  0
    8.3160  -13.8571   21.3722 C   0  0  0  0  0  0  0  0  0  0  0  0
    9.0024  -15.1796   21.7277 C   0  0  0  0  0  0  0  0  0  0  0  0
    9.4820  -15.2300   23.1414 C   0  0  0  0  0  0  0  0  0  0  0  0
   10.0405  -16.5562   23.4976 C   0  0  2  0  0  0  0  0  0  0  0  0
    9.0184  -17.6070   23.4146 N   0  0  0  0  0  0  0  0  0  0  0  0
   10.7460  -16.5734   24.7576 C   0  0  0  0  0  0  0  0  0  0  0  0
   10.1446  -17.0134   25.7967 O   0  0  0  0  0  0  0  0  0  0  0  0
   12.0333  -16.1475   24.9196 O   0  0  0  0  0  0  0  0  0  0  0  0
  2  1  1  1
  2  4  1  0
  2  3  1  0
  4  5  2  0
  6  4  1  0
  6  7  1  0
  7  8  1  0
  8  9  2  0
 10 11  1  0
 11 13  1  0
 11 12  2  0
 13 14  1  0
 14 15  1  0
 15 16  1  0
 17 16  1  1
 17 19  1  0
 18  8  1  0
 18 17  1  0
 19 21  1  0
 20 19  2  0
M  END
$$$$
