AGR.pdb
     RDKit          3D

 21 20  0  0  1  0  0  0  0  0999 V2000
    5.1381  -21.0425   20.9257 C   0  0  0  0  0  0  0  0  0  0  0  0
    5.9564  -20.5290   22.1176 C   0  0  2  0  0  0  0  0  0  0  0  0
    5.3086  -19.3744   22.7043 N   0  0  0  0  0  0  0  0  0  0  0  0
    7.2940  -20.1381   21.6428 C   0  0  0  0  0  0  0  0  0  0  0  0
    7.3826  -19.7002   20.4404 O   0  0  0  0  0  0  0  0  0  0  0  0
    8.4658  -20.2197   22.4324 N   0  0  0  0  0  0  0  0  0  0  0  0
    9.6907  -19.6793   21.9353 C   0  0  0  0  0  0  0  0  0  0  0  0
   10.0396  -18.3711   22.5214 C   0  0  0  0  0  0  0  0  0  0  0  0
   11.1428  -17.8227   22.2033 O   0  0  0  0  0  0  0  0  0  0  0  0
    7.4313  -12.5141   20.5224 N   0  0  0  0  0  0  0  0  0  0  0  0
    7.8652  -13.5019   19.6027 C   0  0  0  0  0  0  0  0  0  0  0  0
    7.9785  -13.1846   18.3665 N   0  0  0  0  0  0  0  0  0  0  0  0
    8.1719  -14.8142   20.0137 N   0  0  0  0  0  0  0  0  0  0  0  0
    7.7660  -15.2774   21.3093 C   0  0  0  0  0  0  0  0  0  0  0  0
    8.8482  -14.8150   22.2898 C   0  0  0  0  0  0  0  0  0  0  0  0
    8.6328  -15.3163   23.6803 C   0  0  0  0  0  0  0  0  0  0  0  0
    9.5900  -16.3879   24.0451 C   0  0  2  0  0  0  0  0  0  0  0  0
    9.2201  -17.6683   23.4290 N   0  0  0  0  0  0  0  0  0  0  0  0
    9.8195  -16.5070   25.4659 C   0  0  0  0  0  0  0  0  0  0  0  0
    9.3983  -17.5497   26.0747 O   0  0  0  0  0  0  0  0  0  0  0  0
   10.4679  -15.5693   26.2176 O   0  0  0  0  0  0  0  0  0  0  0  0
  2  1  1  6
  2  4  1  0
  2  3  1  0
  4  5  2  0
  6  4  1  0
  6  7  1  0
  7  8  1  0
  8  9  2  0
 10 11  1  0
 11 13  1  0
 11 12  2  0
 13 14  1  0
 14 15  1  0
 15 16  1  0
 17 16  1  1
 17 19  1  0
 18  8  1  0
 18 17  1  0
 19 21  1  0
 20 19  2  0
M  END
$$$$
