AGR.pdb
     RDKit          3D

 21 20  0  0  1  0  0  0  0  0999 V2000
    9.1414  -20.2803   15.7585 C   0  0  0  0  0  0  0  0  0  0  0  0
    9.5911  -18.9945   16.4643 C   0  0  2  0  0  0  0  0  0  0  0  0
   11.0303  -18.9926   16.6236 N   0  0  0  0  0  0  0  0  0  0  0  0
    8.9618  -18.9372   17.7940 C   0  0  0  0  0  0  0  0  0  0  0  0
    7.6997  -18.7113   17.8342 O   0  0  0  0  0  0  0  0  0  0  0  0
    9.6668  -19.1159   19.0083 N   0  0  0  0  0  0  0  0  0  0  0  0
    8.9565  -19.0909   20.2469 C   0  0  0  0  0  0  0  0  0  0  0  0
    9.3620  -17.9869   21.1377 C   0  0  0  0  0  0  0  0  0  0  0  0
   10.6005  -17.7688   21.3317 O   0  0  0  0  0  0  0  0  0  0  0  0
    5.1364  -12.2969   26.8846 N   0  0  0  0  0  0  0  0  0  0  0  0
    6.4522  -11.8718   26.5717 C   0  0  0  0  0  0  0  0  0  0  0  0
    6.8421  -10.7228   26.9834 N   0  0  0  0  0  0  0  0  0  0  0  0
    7.3337  -12.6774   25.8239 N   0  0  0  0  0  0  0  0  0  0  0  0
    6.8316  -13.7939   25.0762 C   0  0  0  0  0  0  0  0  0  0  0  0
    8.0492  -14.4601   24.4282 C   0  0  0  0  0  0  0  0  0  0  0  0
    7.6871  -15.5996   23.5329 C   0  0  0  0  0  0  0  0  0  0  0  0
    8.8564  -16.1181   22.7835 C   0  0  2  0  0  0  0  0  0  0  0  0
    8.4558  -17.1363   21.8045 N   0  0  0  0  0  0  0  0  0  0  0  0
    9.9404  -16.5629   23.6276 C   0  0  0  0  0  0  0  0  0  0  0  0
   10.9773  -15.8235   23.7430 O   0  0  0  0  0  0  0  0  0  0  0  0
    9.9350  -17.7369   24.3251 O   0  0  0  0  0  0  0  0  0  0  0  0
  2  1  1  1
  2  4  1  0
  2  3  1  0
  4  5  2  0
  6  4  1  0
  6  7  1  0
  7  8  1  0
  8  9  2  0
 10 11  1  0
 11 13  1  0
 11 12  2  0
 13 14  1  0
 14 15  1  0
 15 16  1  0
 17 16  1  1
 17 19  1  0
 18  8  1  0
 18 17  1  0
 19 21  1  0
 20 19  2  0
M  END
$$$$
