AGR.pdb
     RDKit          3D

 21 20  0  0  1  0  0  0  0  0999 V2000
    6.8448  -12.9389   18.9272 C   0  0  0  0  0  0  0  0  0  0  0  0
    8.3603  -13.1735   18.8806 C   0  0  2  0  0  0  0  0  0  0  0  0
    8.7850  -13.4080   17.5163 N   0  0  0  0  0  0  0  0  0  0  0  0
    8.6831  -14.3579   19.6933 C   0  0  0  0  0  0  0  0  0  0  0  0
    8.2860  -14.3559   20.9130 O   0  0  0  0  0  0  0  0  0  0  0  0
    9.3966  -15.4785   19.2048 N   0  0  0  0  0  0  0  0  0  0  0  0
    9.5571  -16.6294   20.0349 C   0  0  0  0  0  0  0  0  0  0  0  0
   10.1972  -16.3373   21.3317 C   0  0  0  0  0  0  0  0  0  0  0  0
   11.3559  -15.8119   21.3476 O   0  0  0  0  0  0  0  0  0  0  0  0
    6.2959  -12.5089   27.5901 N   0  0  0  0  0  0  0  0  0  0  0  0
    6.3940  -12.2191   26.2058 C   0  0  0  0  0  0  0  0  0  0  0  0
    6.2137  -11.0121   25.8153 N   0  0  0  0  0  0  0  0  0  0  0  0
    6.6827  -13.2200   25.2571 N   0  0  0  0  0  0  0  0  0  0  0  0
    7.3191  -14.4389   25.6660 C   0  0  0  0  0  0  0  0  0  0  0  0
    8.4692  -14.6746   24.6822 C   0  0  0  0  0  0  0  0  0  0  0  0
    9.1678  -15.9772   24.8976 C   0  0  0  0  0  0  0  0  0  0  0  0
   10.2055  -16.2342   23.8706 C   0  0  2  0  0  0  0  0  0  0  0  0
    9.6040  -16.6041   22.5832 N   0  0  0  0  0  0  0  0  0  0  0  0
   11.2240  -17.1679   24.2905 C   0  0  0  0  0  0  0  0  0  0  0  0
   11.0949  -18.4026   23.9835 O   0  0  0  0  0  0  0  0  0  0  0  0
   12.3356  -16.8187   25.0026 O   0  0  0  0  0  0  0  0  0  0  0  0
  2  1  1  6
  2  4  1  0
  2  3  1  0
  4  5  2  0
  6  4  1  0
  6  7  1  0
  7  8  1  0
  8  9  2  0
 10 11  1  0
 11 13  1  0
 11 12  2  0
 13 14  1  0
 14 15  1  0
 15 16  1  0
 17 16  1  1
 17 19  1  0
 18  8  1  0
 18 17  1  0
 19 21  1  0
 20 19  2  0
M  END
$$$$
