AGR.pdb
     RDKit          3D

 21 20  0  0  1  0  0  0  0  0999 V2000
   13.9114  -19.6864   16.6369 C   0  0  0  0  0  0  0  0  0  0  0  0
   13.3379  -18.3591   17.1499 C   0  0  2  0  0  0  0  0  0  0  0  0
   14.4137  -17.4475   17.4795 N   0  0  0  0  0  0  0  0  0  0  0  0
   12.5438  -18.6211   18.3615 C   0  0  0  0  0  0  0  0  0  0  0  0
   11.3080  -18.9229   18.1966 O   0  0  0  0  0  0  0  0  0  0  0  0
   13.0662  -18.5581   19.6755 N   0  0  0  0  0  0  0  0  0  0  0  0
   12.2224  -18.8652   20.7859 C   0  0  0  0  0  0  0  0  0  0  0  0
   11.9396  -17.7042   21.6513 C   0  0  0  0  0  0  0  0  0  0  0  0
   12.8993  -16.9509   22.0125 O   0  0  0  0  0  0  0  0  0  0  0  0
    8.3703  -12.2624   19.4567 N   0  0  0  0  0  0  0  0  0  0  0  0
    8.0050  -13.4128   18.7130 C   0  0  0  0  0  0  0  0  0  0  0  0
    8.1330  -13.3880   17.4383 N   0  0  0  0  0  0  0  0  0  0  0  0
    7.5080  -14.5734   19.3385 N   0  0  0  0  0  0  0  0  0  0  0  0
    7.5322  -14.6884   20.7682 C   0  0  0  0  0  0  0  0  0  0  0  0
    8.8926  -15.2937   21.1280 C   0  0  0  0  0  0  0  0  0  0  0  0
    9.0306  -15.6033   22.5827 C   0  0  0  0  0  0  0  0  0  0  0  0
   10.3632  -16.1621   22.9137 C   0  0  2  0  0  0  0  0  0  0  0  0
   10.6534  -17.3611   22.1173 N   0  0  0  0  0  0  0  0  0  0  0  0
   10.5721  -16.3762   24.3265 C   0  0  0  0  0  0  0  0  0  0  0  0
   10.5862  -15.3652   25.1093 O   0  0  0  0  0  0  0  0  0  0  0  0
   10.7566  -17.6039   24.8954 O   0  0  0  0  0  0  0  0  0  0  0  0
  2  1  1  1
  2  4  1  0
  2  3  1  0
  4  5  2  0
  6  4  1  0
  6  7  1  0
  7  8  1  0
  8  9  2  0
 10 11  1  0
 11 13  1  0
 11 12  2  0
 13 14  1  0
 14 15  1  0
 15 16  1  0
 17 16  1  1
 17 19  1  0
 18  8  1  0
 18 17  1  0
 19 21  1  0
 20 19  2  0
M  END
$$$$
