KNV.pdb
     RDKit          3D

 25 24  0  0  1  0  0  0  0  0999 V2000
   18.4701  -14.4360  -19.2656 N   0  0  0  0  0  0  0  0  0  0  0  0
   18.1429  -13.7860  -18.0074 C   0  0  1  0  0  0  0  0  0  0  0  0
   18.6553  -14.6909  -16.9094 C   0  0  0  0  0  0  0  0  0  0  0  0
   17.7276  -15.8951  -16.8504 C   0  0  0  0  0  0  0  0  0  0  0  0
   18.1711  -16.8747  -15.7849 C   0  0  0  0  0  0  0  0  0  0  0  0
   17.2090  -18.0185  -15.7449 C   0  0  0  0  0  0  0  0  0  0  0  0
   17.8073  -19.0803  -14.9212 N   0  0  0  0  0  0  0  0  0  0  0  0
   18.7489  -12.4291  -17.9305 C   0  0  0  0  0  0  0  0  0  0  0  0
   19.9311  -12.2455  -18.3320 O   0  0  0  0  0  0  0  0  0  0  0  0
   15.7650   -8.7027  -19.1839 N   0  0  0  0  0  0  0  0  0  0  0  0
   17.1261   -8.7624  -18.8018 C   0  0  0  0  0  0  0  0  0  0  0  0
   18.0538   -8.6806  -19.6878 O   0  0  0  0  0  0  0  0  0  0  0  0
   17.6044   -8.9187  -17.4179 C   0  0  0  0  0  0  0  0  0  0  0  0
   18.6791   -9.9564  -17.3473 C   0  0  2  0  0  0  0  0  0  0  0  0
   18.0596  -11.3077  -17.4216 N   0  0  0  0  0  0  0  0  0  0  0  0
   19.5609   -9.9061  -16.1787 C   0  0  0  0  0  0  0  0  0  0  0  0
   19.0653  -10.1768  -15.0215 O   0  0  0  0  0  0  0  0  0  0  0  0
   23.2265  -11.4544  -15.5700 C   0  0  0  0  0  0  0  0  0  0  0  0
   23.0837  -10.0925  -14.9587 C   0  0  2  0  0  0  0  0  0  0  0  0
   23.8203   -9.9871  -13.6275 C   0  0  0  0  0  0  0  0  0  0  0  0
   21.7105   -9.5668  -14.9195 C   0  0  2  0  0  0  0  0  0  0  0  0
   20.9192   -9.6016  -16.0949 N   0  0  0  0  0  0  0  0  0  0  0  0
   21.7351   -8.1899  -14.3850 C   0  0  0  0  0  0  0  0  0  0  0  0
   21.7612   -7.9926  -13.0196 O   0  0  0  0  0  0  0  0  0  0  0  0
   21.7336   -7.1666  -15.1196 O   0  0  0  0  0  0  0  0  0  0  0  0
  2  3  1  0
  2  1  1  6
  4  3  1  0
  5  4  1  0
  6  5  1  0
  7  6  1  0
  8  9  2  0
  8  2  1  0
 10 11  1  0
 11 13  1  0
 12 11  2  0
 14 13  1  1
 14 15  1  0
 15  8  1  0
 16 14  1  0
 16 17  2  0
 19 18  1  1
 20 19  1  0
 21 19  1  0
 21 22  1  6
 22 16  1  0
 23 21  1  0
 24 23  1  0
 25 23  2  0
M  END
$$$$
