KNV.pdb
     RDKit          3D

 25 24  0  0  1  0  0  0  0  0999 V2000
   23.3292  -17.7990  -18.4380 N   0  0  0  0  0  0  0  0  0  0  0  0
   22.4563  -17.6113  -17.2910 C   0  0  1  0  0  0  0  0  0  0  0  0
   22.7157  -18.7727  -16.3579 C   0  0  0  0  0  0  0  0  0  0  0  0
   23.2140  -19.9304  -17.2099 C   0  0  0  0  0  0  0  0  0  0  0  0
   23.6625  -21.0903  -16.3467 C   0  0  0  0  0  0  0  0  0  0  0  0
   24.1338  -22.2005  -17.2304 C   0  0  0  0  0  0  0  0  0  0  0  0
   24.6263  -23.2844  -16.3664 N   0  0  0  0  0  0  0  0  0  0  0  0
   22.7142  -16.3041  -16.6282 C   0  0  0  0  0  0  0  0  0  0  0  0
   22.0133  -15.9520  -15.6397 O   0  0  0  0  0  0  0  0  0  0  0  0
   26.9777  -15.7414  -16.5615 N   0  0  0  0  0  0  0  0  0  0  0  0
   26.2817  -14.7035  -15.8978 C   0  0  0  0  0  0  0  0  0  0  0  0
   26.3883  -14.5604  -14.6248 O   0  0  0  0  0  0  0  0  0  0  0  0
   25.4022  -13.7248  -16.5588 C   0  0  0  0  0  0  0  0  0  0  0  0
   23.9666  -14.1061  -16.3843 C   0  0  2  0  0  0  0  0  0  0  0  0
   23.7232  -15.4135  -17.0528 N   0  0  0  0  0  0  0  0  0  0  0  0
   22.9715  -13.1418  -16.8592 C   0  0  0  0  0  0  0  0  0  0  0  0
   22.9323  -12.8664  -18.1164 O   0  0  0  0  0  0  0  0  0  0  0  0
   19.0255  -11.9136  -15.2376 C   0  0  0  0  0  0  0  0  0  0  0  0
   19.6124  -11.9027  -16.6175 C   0  0  2  0  0  0  0  0  0  0  0  0
   19.2572  -13.1651  -17.3961 C   0  0  0  0  0  0  0  0  0  0  0  0
   21.0373  -11.5447  -16.6868 C   0  0  2  0  0  0  0  0  0  0  0  0
   22.0037  -12.4316  -16.1496 N   0  0  0  0  0  0  0  0  0  0  0  0
   21.2270  -10.2007  -16.1039 C   0  0  0  0  0  0  0  0  0  0  0  0
   22.0655  -10.0437  -15.0193 O   0  0  0  0  0  0  0  0  0  0  0  0
   20.6557   -9.1704  -16.5500 O   0  0  0  0  0  0  0  0  0  0  0  0
  2  3  1  0
  2  1  1  6
  4  3  1  0
  5  4  1  0
  6  5  1  0
  7  6  1  0
  8  9  2  0
  8  2  1  0
 10 11  1  0
 11 13  1  0
 12 11  2  0
 14 13  1  6
 14 15  1  0
 15  8  1  0
 16 14  1  0
 16 17  2  0
 19 18  1  1
 20 19  1  0
 21 19  1  0
 21 22  1  1
 22 16  1  0
 23 21  1  0
 24 23  1  0
 25 23  2  0
M  END
$$$$
