KNV.pdb
     RDKit          3D

 25 24  0  0  1  0  0  0  0  0999 V2000
   28.4560  -22.7139  -17.8523 N   0  0  0  0  0  0  0  0  0  0  0  0
   27.3131  -23.2115  -17.1047 C   0  0  1  0  0  0  0  0  0  0  0  0
   27.8526  -24.2170  -16.1124 C   0  0  0  0  0  0  0  0  0  0  0  0
   27.9478  -25.5531  -16.8337 C   0  0  0  0  0  0  0  0  0  0  0  0
   26.5851  -26.1981  -16.9706 C   0  0  0  0  0  0  0  0  0  0  0  0
   26.7433  -27.5358  -17.6196 C   0  0  0  0  0  0  0  0  0  0  0  0
   25.4069  -28.1394  -17.7365 N   0  0  0  0  0  0  0  0  0  0  0  0
   26.5907  -22.1013  -16.4264 C   0  0  0  0  0  0  0  0  0  0  0  0
   27.2414  -21.1503  -15.9119 O   0  0  0  0  0  0  0  0  0  0  0  0
   22.9174  -18.7936  -14.6677 N   0  0  0  0  0  0  0  0  0  0  0  0
   22.4681  -19.5300  -15.7893 C   0  0  0  0  0  0  0  0  0  0  0  0
   21.3350  -19.2595  -16.3326 O   0  0  0  0  0  0  0  0  0  0  0  0
   23.2108  -20.6321  -16.4234 C   0  0  0  0  0  0  0  0  0  0  0  0
   24.4727  -20.9161  -15.6725 C   0  0  2  0  0  0  0  0  0  0  0  0
   25.1842  -22.0499  -16.3231 N   0  0  0  0  0  0  0  0  0  0  0  0
   24.3321  -21.2060  -14.2435 C   0  0  0  0  0  0  0  0  0  0  0  0
   23.7499  -22.2993  -13.8917 O   0  0  0  0  0  0  0  0  0  0  0  0
   26.9759  -20.6039  -11.1434 C   0  0  0  0  0  0  0  0  0  0  0  0
   25.5432  -20.3560  -10.7765 C   0  0  2  0  0  0  0  0  0  0  0  0
   25.2333  -20.8135   -9.3550 C   0  0  0  0  0  0  0  0  0  0  0  0
   24.5575  -20.8047  -11.7718 C   0  0  2  0  0  0  0  0  0  0  0  0
   24.7429  -20.4657  -13.1355 N   0  0  0  0  0  0  0  0  0  0  0  0
   23.2088  -20.3834  -11.3404 C   0  0  0  0  0  0  0  0  0  0  0  0
   22.4540  -19.5756  -12.1659 O   0  0  0  0  0  0  0  0  0  0  0  0
   22.6997  -20.7271  -10.2406 O   0  0  0  0  0  0  0  0  0  0  0  0
  2  3  1  0
  2  1  1  1
  4  3  1  0
  5  4  1  0
  6  5  1  0
  7  6  1  0
  8  9  2  0
  8  2  1  0
 10 11  1  0
 11 13  1  0
 12 11  2  0
 14 13  1  6
 14 15  1  0
 15  8  1  0
 16 14  1  0
 16 17  2  0
 19 18  1  6
 20 19  1  0
 21 19  1  0
 21 22  1  6
 22 16  1  0
 23 21  1  0
 24 23  1  0
 25 23  2  0
M  END
$$$$
