KNV.pdb
     RDKit          3D

 25 24  0  0  1  0  0  0  0  0999 V2000
   19.8218  -12.6441  -17.4238 N   0  0  0  0  0  0  0  0  0  0  0  0
   18.4546  -12.3169  -17.7932 C   0  0  1  0  0  0  0  0  0  0  0  0
   17.5985  -13.4823  -17.3508 C   0  0  0  0  0  0  0  0  0  0  0  0
   17.8802  -13.7110  -15.8734 C   0  0  0  0  0  0  0  0  0  0  0  0
   18.3655  -15.1227  -15.6220 C   0  0  0  0  0  0  0  0  0  0  0  0
   17.2112  -15.9614  -15.1750 C   0  0  0  0  0  0  0  0  0  0  0  0
   17.7188  -17.3143  -14.8997 N   0  0  0  0  0  0  0  0  0  0  0  0
   18.0183  -11.0420  -17.1617 C   0  0  0  0  0  0  0  0  0  0  0  0
   16.8245  -10.6537  -17.2904 O   0  0  0  0  0  0  0  0  0  0  0  0
   15.5891   -7.7179  -13.6849 N   0  0  0  0  0  0  0  0  0  0  0  0
   16.8963   -8.0063  -14.1434 C   0  0  0  0  0  0  0  0  0  0  0  0
   17.8567   -7.1789  -13.9305 O   0  0  0  0  0  0  0  0  0  0  0  0
   17.2796   -9.2231  -14.8789 C   0  0  0  0  0  0  0  0  0  0  0  0
   18.4365   -8.9467  -15.7855 C   0  0  2  0  0  0  0  0  0  0  0  0
   18.8851  -10.2219  -16.4082 N   0  0  0  0  0  0  0  0  0  0  0  0
   19.5954   -8.2834  -15.1831 C   0  0  0  0  0  0  0  0  0  0  0  0
   20.2497   -8.9028  -14.2632 O   0  0  0  0  0  0  0  0  0  0  0  0
   23.6715   -5.5659  -15.5296 C   0  0  0  0  0  0  0  0  0  0  0  0
   22.3529   -6.0437  -16.0603 C   0  0  2  0  0  0  0  0  0  0  0  0
   21.7231   -5.0320  -17.0121 C   0  0  0  0  0  0  0  0  0  0  0  0
   21.4226   -6.5619  -15.0457 C   0  0  2  0  0  0  0  0  0  0  0  0
   20.1464   -7.0300  -15.4472 N   0  0  0  0  0  0  0  0  0  0  0  0
   21.2620   -5.5541  -13.9775 C   0  0  0  0  0  0  0  0  0  0  0  0
   22.3540   -5.1939  -13.2148 O   0  0  0  0  0  0  0  0  0  0  0  0
   20.1634   -4.9945  -13.7193 O   0  0  0  0  0  0  0  0  0  0  0  0
  2  3  1  0
  2  1  1  1
  4  3  1  0
  5  4  1  0
  6  5  1  0
  7  6  1  0
  8  9  2  0
  8  2  1  0
 10 11  1  0
 11 13  1  0
 12 11  2  0
 14 13  1  1
 14 15  1  0
 15  8  1  0
 16 14  1  0
 16 17  2  0
 19 18  1  1
 20 19  1  0
 21 19  1  0
 21 22  1  6
 22 16  1  0
 23 21  1  0
 24 23  1  0
 25 23  2  0
M  END
$$$$
