KNV.pdb
     RDKit          3D

 25 24  0  0  1  0  0  0  0  0999 V2000
   23.2373  -13.9198  -20.3080 N   0  0  0  0  0  0  0  0  0  0  0  0
   23.9510  -13.7115  -19.0590 C   0  0  1  0  0  0  0  0  0  0  0  0
   25.4002  -14.0479  -19.3299 C   0  0  0  0  0  0  0  0  0  0  0  0
   25.4264  -15.4138  -19.9995 C   0  0  0  0  0  0  0  0  0  0  0  0
   26.8439  -15.8384  -20.3188 C   0  0  0  0  0  0  0  0  0  0  0  0
   26.8086  -17.1475  -21.0403 C   0  0  0  0  0  0  0  0  0  0  0  0
   28.1885  -17.4896  -21.4183 N   0  0  0  0  0  0  0  0  0  0  0  0
   23.7912  -12.3129  -18.5762 C   0  0  0  0  0  0  0  0  0  0  0  0
   24.3622  -11.9467  -17.5121 O   0  0  0  0  0  0  0  0  0  0  0  0
   23.2156   -7.1557  -18.4507 N   0  0  0  0  0  0  0  0  0  0  0  0
   22.6185   -7.6595  -19.6304 C   0  0  0  0  0  0  0  0  0  0  0  0
   22.1947   -6.8547  -20.5388 O   0  0  0  0  0  0  0  0  0  0  0  0
   22.4253   -9.0881  -19.9306 C   0  0  0  0  0  0  0  0  0  0  0  0
   22.9253   -9.9343  -18.8033 C   0  0  2  0  0  0  0  0  0  0  0  0
   23.0183  -11.3486  -19.2576 N   0  0  0  0  0  0  0  0  0  0  0  0
   22.1533   -9.8890  -17.5593 C   0  0  0  0  0  0  0  0  0  0  0  0
   20.9507  -10.3490  -17.5641 O   0  0  0  0  0  0  0  0  0  0  0  0
   22.8969   -9.5924  -12.9088 C   0  0  0  0  0  0  0  0  0  0  0  0
   22.1494  -10.3003  -13.9991 C   0  0  2  0  0  0  0  0  0  0  0  0
   22.8544  -11.5816  -14.4321 C   0  0  0  0  0  0  0  0  0  0  0  0
   21.7267   -9.4482  -15.1210 C   0  0  2  0  0  0  0  0  0  0  0  0
   22.5129   -9.4105  -16.2998 N   0  0  0  0  0  0  0  0  0  0  0  0
   21.5137   -8.0716  -14.6290 C   0  0  0  0  0  0  0  0  0  0  0  0
   22.1990   -7.0277  -15.2160 O   0  0  0  0  0  0  0  0  0  0  0  0
   20.7266   -7.7922  -13.6860 O   0  0  0  0  0  0  0  0  0  0  0  0
  2  3  1  0
  2  1  1  6
  4  3  1  0
  5  4  1  0
  6  5  1  0
  7  6  1  0
  8  9  2  0
  8  2  1  0
 10 11  1  0
 11 13  1  0
 12 11  2  0
 14 13  1  6
 14 15  1  0
 15  8  1  0
 16 14  1  0
 16 17  2  0
 19 18  1  1
 20 19  1  0
 21 19  1  0
 21 22  1  6
 22 16  1  0
 23 21  1  0
 24 23  1  0
 25 23  2  0
M  END
$$$$
