KNV.pdb
     RDKit          3D

 25 24  0  0  1  0  0  0  0  0999 V2000
   18.4170  -13.3275  -15.5407 N   0  0  0  0  0  0  0  0  0  0  0  0
   19.6231  -13.8076  -16.1947 C   0  0  1  0  0  0  0  0  0  0  0  0
   19.1778  -14.8050  -17.2406 C   0  0  0  0  0  0  0  0  0  0  0  0
   18.0485  -15.6215  -16.6303 C   0  0  0  0  0  0  0  0  0  0  0  0
   18.5048  -17.0280  -16.3062 C   0  0  0  0  0  0  0  0  0  0  0  0
   17.3371  -17.8142  -15.8021 C   0  0  0  0  0  0  0  0  0  0  0  0
   17.8228  -19.1522  -15.4310 N   0  0  0  0  0  0  0  0  0  0  0  0
   20.3909  -12.6840  -16.7968 C   0  0  0  0  0  0  0  0  0  0  0  0
   21.4484  -12.9211  -17.4433 O   0  0  0  0  0  0  0  0  0  0  0  0
   19.3187  -10.4758  -19.7005 N   0  0  0  0  0  0  0  0  0  0  0  0
   19.1184   -9.3471  -18.8710 C   0  0  0  0  0  0  0  0  0  0  0  0
   18.2596   -8.4471  -19.1947 O   0  0  0  0  0  0  0  0  0  0  0  0
   19.8368   -9.0920  -17.6111 C   0  0  0  0  0  0  0  0  0  0  0  0
   20.7665  -10.2209  -17.2983 C   0  0  2  0  0  0  0  0  0  0  0  0
   19.9938  -11.3345  -16.6833 N   0  0  0  0  0  0  0  0  0  0  0  0
   21.9086   -9.9077  -16.4362 C   0  0  0  0  0  0  0  0  0  0  0  0
   21.6818   -9.5427  -15.2225 O   0  0  0  0  0  0  0  0  0  0  0  0
   26.5175  -10.1677  -14.7183 C   0  0  0  0  0  0  0  0  0  0  0  0
   25.5363  -10.4738  -15.8102 C   0  0  2  0  0  0  0  0  0  0  0  0
   26.2169  -10.5880  -17.1702 C   0  0  0  0  0  0  0  0  0  0  0  0
   24.3304   -9.6316  -15.8197 C   0  0  2  0  0  0  0  0  0  0  0  0
   23.2748   -9.9393  -16.7141 N   0  0  0  0  0  0  0  0  0  0  0  0
   24.7280   -8.2199  -15.9968 C   0  0  0  0  0  0  0  0  0  0  0  0
   25.4587   -7.5918  -15.0091 O   0  0  0  0  0  0  0  0  0  0  0  0
   24.4321   -7.5449  -17.0183 O   0  0  0  0  0  0  0  0  0  0  0  0
  2  3  1  0
  2  1  1  6
  4  3  1  0
  5  4  1  0
  6  5  1  0
  7  6  1  0
  8  9  2  0
  8  2  1  0
 10 11  1  0
 11 13  1  0
 12 11  2  0
 14 13  1  1
 14 15  1  0
 15  8  1  0
 16 14  1  0
 16 17  2  0
 19 18  1  1
 20 19  1  0
 21 19  1  0
 21 22  1  6
 22 16  1  0
 23 21  1  0
 24 23  1  0
 25 23  2  0
M  END
$$$$
