KNV.pdb
     RDKit          3D

 25 24  0  0  1  0  0  0  0  0999 V2000
   17.6637  -13.5603  -18.6461 N   0  0  0  0  0  0  0  0  0  0  0  0
   19.0378  -13.8940  -18.3098 C   0  0  1  0  0  0  0  0  0  0  0  0
   19.5220  -14.8505  -19.3763 C   0  0  0  0  0  0  0  0  0  0  0  0
   19.2979  -16.2603  -18.8504 C   0  0  0  0  0  0  0  0  0  0  0  0
   19.7232  -17.2970  -19.8682 C   0  0  0  0  0  0  0  0  0  0  0  0
   19.4187  -18.6589  -19.3315 C   0  0  0  0  0  0  0  0  0  0  0  0
   19.8130  -19.6425  -20.3518 N   0  0  0  0  0  0  0  0  0  0  0  0
   19.8851  -12.6726  -18.2395 C   0  0  0  0  0  0  0  0  0  0  0  0
   21.0972  -12.7676  -17.9014 O   0  0  0  0  0  0  0  0  0  0  0  0
   21.2559   -7.1753  -20.0481 N   0  0  0  0  0  0  0  0  0  0  0  0
   20.4010   -7.8330  -19.1324 C   0  0  0  0  0  0  0  0  0  0  0  0
   20.1494   -7.3081  -17.9864 O   0  0  0  0  0  0  0  0  0  0  0  0
   19.7409   -9.1261  -19.3789 C   0  0  0  0  0  0  0  0  0  0  0  0
   20.2472  -10.1642  -18.4287 C   0  0  2  0  0  0  0  0  0  0  0  0
   19.3983  -11.3819  -18.5371 N   0  0  0  0  0  0  0  0  0  0  0  0
   20.3336   -9.7742  -17.0194 C   0  0  0  0  0  0  0  0  0  0  0  0
   19.2801   -9.8777  -16.2864 O   0  0  0  0  0  0  0  0  0  0  0  0
   22.6259  -11.2401  -14.3613 C   0  0  0  0  0  0  0  0  0  0  0  0
   22.5041   -9.7685  -14.0994 C   0  0  2  0  0  0  0  0  0  0  0  0
   22.4431   -9.4601  -12.6070 C   0  0  0  0  0  0  0  0  0  0  0  0
   21.4745   -9.0770  -14.8901 C   0  0  2  0  0  0  0  0  0  0  0  0
   21.4175   -9.2852  -16.2910 N   0  0  0  0  0  0  0  0  0  0  0  0
   21.5434   -7.6279  -14.6117 C   0  0  0  0  0  0  0  0  0  0  0  0
   21.2434   -7.1650  -13.3469 O   0  0  0  0  0  0  0  0  0  0  0  0
   21.8670   -6.7750  -15.4804 O   0  0  0  0  0  0  0  0  0  0  0  0
  2  3  1  0
  2  1  1  6
  4  3  1  0
  5  4  1  0
  6  5  1  0
  7  6  1  0
  8  9  2  0
  8  2  1  0
 10 11  1  0
 11 13  1  0
 12 11  2  0
 14 13  1  6
 14 15  1  0
 15  8  1  0
 16 14  1  0
 16 17  2  0
 19 18  1  1
 20 19  1  0
 21 19  1  0
 21 22  1  6
 22 16  1  0
 23 21  1  0
 24 23  1  0
 25 23  2  0
M  END
$$$$
