KNV.pdb
     RDKit          3D

 25 24  0  0  1  0  0  0  0  0999 V2000
   22.0308  -21.0335  -14.6690 N   0  0  0  0  0  0  0  0  0  0  0  0
   21.8214  -20.0062  -15.6758 C   0  0  1  0  0  0  0  0  0  0  0  0
   20.3305  -19.9404  -15.9201 C   0  0  0  0  0  0  0  0  0  0  0  0
   20.0011  -20.9892  -16.9718 C   0  0  0  0  0  0  0  0  0  0  0  0
   18.5230  -20.9895  -17.2987 C   0  0  0  0  0  0  0  0  0  0  0  0
   18.2540  -22.0348  -18.3333 C   0  0  0  0  0  0  0  0  0  0  0  0
   16.7954  -22.1550  -18.4820 N   0  0  0  0  0  0  0  0  0  0  0  0
   22.3643  -18.6955  -15.2265 C   0  0  0  0  0  0  0  0  0  0  0  0
   22.1676  -18.3070  -14.0421 O   0  0  0  0  0  0  0  0  0  0  0  0
   24.9132  -14.1320  -14.8538 N   0  0  0  0  0  0  0  0  0  0  0  0
   25.6780  -15.2294  -15.3155 C   0  0  0  0  0  0  0  0  0  0  0  0
   26.9619  -15.1674  -15.3271 O   0  0  0  0  0  0  0  0  0  0  0  0
   25.1154  -16.4973  -15.8097 C   0  0  0  0  0  0  0  0  0  0  0  0
   23.6333  -16.5274  -15.6112 C   0  0  2  0  0  0  0  0  0  0  0  0
   23.1052  -17.8409  -16.0705 N   0  0  0  0  0  0  0  0  0  0  0  0
   22.8654  -15.4595  -16.2558 C   0  0  0  0  0  0  0  0  0  0  0  0
   22.6871  -15.5125  -17.5299 O   0  0  0  0  0  0  0  0  0  0  0  0
   19.1882  -12.1927  -16.4551 C   0  0  0  0  0  0  0  0  0  0  0  0
   20.0919  -13.0988  -15.6733 C   0  0  2  0  0  0  0  0  0  0  0  0
   20.2741  -12.6184  -14.2373 C   0  0  0  0  0  0  0  0  0  0  0  0
   21.3519  -13.4538  -16.3440 C   0  0  2  0  0  0  0  0  0  0  0  0
   22.2578  -14.3338  -15.7006 N   0  0  0  0  0  0  0  0  0  0  0  0
   22.0601  -12.2158  -16.7290 C   0  0  0  0  0  0  0  0  0  0  0  0
   23.3409  -11.9948  -16.2657 O   0  0  0  0  0  0  0  0  0  0  0  0
   21.5507  -11.3342  -17.4706 O   0  0  0  0  0  0  0  0  0  0  0  0
  2  3  1  0
  2  1  1  1
  4  3  1  0
  5  4  1  0
  6  5  1  0
  7  6  1  0
  8  9  2  0
  8  2  1  0
 10 11  1  0
 11 13  1  0
 12 11  2  0
 14 13  1  6
 14 15  1  0
 15  8  1  0
 16 14  1  0
 16 17  2  0
 19 18  1  6
 20 19  1  0
 21 19  1  0
 21 22  1  1
 22 16  1  0
 23 21  1  0
 24 23  1  0
 25 23  2  0
M  END
$$$$
