KNV.pdb
     RDKit          3D

 25 24  0  0  1  0  0  0  0  0999 V2000
   14.9052  -13.6500  -17.3473 N   0  0  0  0  0  0  0  0  0  0  0  0
   16.0701  -13.4255  -16.5074 C   0  0  1  0  0  0  0  0  0  0  0  0
   17.1455  -14.3664  -17.0025 C   0  0  0  0  0  0  0  0  0  0  0  0
   16.8883  -15.7206  -16.3588 C   0  0  0  0  0  0  0  0  0  0  0  0
   15.4371  -15.8658  -15.9533 C   0  0  0  0  0  0  0  0  0  0  0  0
   15.2135  -17.2498  -15.4335 C   0  0  0  0  0  0  0  0  0  0  0  0
   14.6529  -17.1358  -14.0783 N   0  0  0  0  0  0  0  0  0  0  0  0
   16.5102  -12.0052  -16.5684 C   0  0  0  0  0  0  0  0  0  0  0  0
   16.6050  -11.4244  -17.6847 O   0  0  0  0  0  0  0  0  0  0  0  0
   17.8705   -7.0789  -15.4020 N   0  0  0  0  0  0  0  0  0  0  0  0
   16.5967   -7.5406  -14.9942 C   0  0  0  0  0  0  0  0  0  0  0  0
   15.6891   -6.7062  -14.6305 O   0  0  0  0  0  0  0  0  0  0  0  0
   16.1926   -8.9556  -14.9427 C   0  0  0  0  0  0  0  0  0  0  0  0
   17.2720   -9.8310  -15.4954 C   0  0  2  0  0  0  0  0  0  0  0  0
   16.8356  -11.2519  -15.4202 N   0  0  0  0  0  0  0  0  0  0  0  0
   18.5934   -9.7106  -14.8747 C   0  0  0  0  0  0  0  0  0  0  0  0
   18.7224  -10.0320  -13.6345 O   0  0  0  0  0  0  0  0  0  0  0  0
   23.4590   -9.9726  -14.5709 C   0  0  0  0  0  0  0  0  0  0  0  0
   22.2157   -9.9208  -15.4077 C   0  0  2  0  0  0  0  0  0  0  0  0
   22.5036   -9.4322  -16.8235 C   0  0  0  0  0  0  0  0  0  0  0  0
   21.0647   -9.2589  -14.7748 C   0  0  2  0  0  0  0  0  0  0  0  0
   19.8041   -9.2876  -15.4222 N   0  0  0  0  0  0  0  0  0  0  0  0
   21.4235   -7.8607  -14.4610 C   0  0  0  0  0  0  0  0  0  0  0  0
   22.3493   -7.6038  -13.4706 O   0  0  0  0  0  0  0  0  0  0  0  0
   20.9224   -6.8712  -15.0581 O   0  0  0  0  0  0  0  0  0  0  0  0
  2  3  1  0
  2  1  1  6
  4  3  1  0
  5  4  1  0
  6  5  1  0
  7  6  1  0
  8  9  2  0
  8  2  1  0
 10 11  1  0
 11 13  1  0
 12 11  2  0
 14 13  1  1
 14 15  1  0
 15  8  1  0
 16 14  1  0
 16 17  2  0
 19 18  1  1
 20 19  1  0
 21 19  1  0
 21 22  1  6
 22 16  1  0
 23 21  1  0
 24 23  1  0
 25 23  2  0
M  END
$$$$
