KNV.pdb
     RDKit          3D

 25 24  0  0  1  0  0  0  0  0999 V2000
   31.0384  -29.0750  -22.2667 N   0  0  0  0  0  0  0  0  0  0  0  0
   31.0674  -28.7215  -20.8571 C   0  0  1  0  0  0  0  0  0  0  0  0
   32.1019  -27.6285  -20.7085 C   0  0  0  0  0  0  0  0  0  0  0  0
   33.4613  -28.3058  -20.6213 C   0  0  0  0  0  0  0  0  0  0  0  0
   33.7483  -28.7750  -19.2110 C   0  0  0  0  0  0  0  0  0  0  0  0
   35.1441  -29.3076  -19.1502 C   0  0  0  0  0  0  0  0  0  0  0  0
   35.3891  -29.7702  -17.7755 N   0  0  0  0  0  0  0  0  0  0  0  0
   29.7267  -28.2785  -20.3870 C   0  0  0  0  0  0  0  0  0  0  0  0
   28.9339  -27.7148  -21.1909 O   0  0  0  0  0  0  0  0  0  0  0  0
   25.2812  -29.2236  -16.3927 N   0  0  0  0  0  0  0  0  0  0  0  0
   25.8465  -28.7539  -17.6019 C   0  0  0  0  0  0  0  0  0  0  0  0
   25.2200  -27.8913  -18.3199 O   0  0  0  0  0  0  0  0  0  0  0  0
   27.1473  -29.1817  -18.1433 C   0  0  0  0  0  0  0  0  0  0  0  0
   27.9407  -27.9992  -18.6006 C   0  0  2  0  0  0  0  0  0  0  0  0
   29.2801  -28.4573  -19.0603 N   0  0  0  0  0  0  0  0  0  0  0  0
   28.1206  -26.9173  -17.6296 C   0  0  0  0  0  0  0  0  0  0  0  0
   28.9171  -27.1081  -16.6360 O   0  0  0  0  0  0  0  0  0  0  0  0
   27.5835  -22.6188  -18.0396 C   0  0  0  0  0  0  0  0  0  0  0  0
   28.3200  -23.3583  -16.9628 C   0  0  2  0  0  0  0  0  0  0  0  0
   29.8206  -23.4066  -17.2309 C   0  0  0  0  0  0  0  0  0  0  0  0
   27.7420  -24.6589  -16.5916 C   0  0  2  0  0  0  0  0  0  0  0  0
   27.5507  -25.6452  -17.5913 N   0  0  0  0  0  0  0  0  0  0  0  0
   26.4709  -24.4356  -15.8728 C   0  0  0  0  0  0  0  0  0  0  0  0
   25.3022  -24.9645  -16.3810 O   0  0  0  0  0  0  0  0  0  0  0  0
   26.3926  -23.7772  -14.8017 O   0  0  0  0  0  0  0  0  0  0  0  0
  2  3  1  0
  2  1  1  6
  4  3  1  0
  5  4  1  0
  6  5  1  0
  7  6  1  0
  8  9  2  0
  8  2  1  0
 10 11  1  0
 11 13  1  0
 12 11  2  0
 14 13  1  1
 14 15  1  0
 15  8  1  0
 16 14  1  0
 16 17  2  0
 19 18  1  6
 20 19  1  0
 21 19  1  0
 21 22  1  6
 22 16  1  0
 23 21  1  0
 24 23  1  0
 25 23  2  0
M  END
$$$$
