KNV.pdb
     RDKit          3D

 25 24  0  0  1  0  0  0  0  0999 V2000
   17.8927  -25.1312   -7.0439 N   0  0  0  0  0  0  0  0  0  0  0  0
   18.8848  -24.9476   -8.0902 C   0  0  1  0  0  0  0  0  0  0  0  0
   19.1119  -26.3075   -8.7115 C   0  0  0  0  0  0  0  0  0  0  0  0
   17.7432  -26.8882   -9.0336 C   0  0  0  0  0  0  0  0  0  0  0  0
   17.8585  -28.3102   -9.5398 C   0  0  0  0  0  0  0  0  0  0  0  0
   16.4868  -28.8513   -9.7870 C   0  0  0  0  0  0  0  0  0  0  0  0
   16.6314  -30.2031  -10.3487 N   0  0  0  0  0  0  0  0  0  0  0  0
   18.4258  -23.9520   -9.0966 C   0  0  0  0  0  0  0  0  0  0  0  0
   17.2690  -23.4558   -9.0069 O   0  0  0  0  0  0  0  0  0  0  0  0
   20.3606  -20.3481  -13.8293 N   0  0  0  0  0  0  0  0  0  0  0  0
   19.5577  -20.8555  -12.7804 C   0  0  0  0  0  0  0  0  0  0  0  0
   18.3761  -20.3893  -12.5830 O   0  0  0  0  0  0  0  0  0  0  0  0
   19.9676  -21.9177  -11.8466 C   0  0  0  0  0  0  0  0  0  0  0  0
   18.7768  -22.4887  -11.1447 C   0  0  2  0  0  0  0  0  0  0  0  0
   19.2306  -23.5203  -10.1725 N   0  0  0  0  0  0  0  0  0  0  0  0
   17.7331  -23.0682  -11.9935 C   0  0  0  0  0  0  0  0  0  0  0  0
   17.9665  -24.1932  -12.5747 O   0  0  0  0  0  0  0  0  0  0  0  0
   13.3186  -22.4444  -12.2439 C   0  0  0  0  0  0  0  0  0  0  0  0
   14.2010  -23.5744  -12.6836 C   0  0  2  0  0  0  0  0  0  0  0  0
   14.2513  -24.6924  -11.6476 C   0  0  0  0  0  0  0  0  0  0  0  0
   15.5232  -23.1737  -13.1880 C   0  0  2  0  0  0  0  0  0  0  0  0
   16.4591  -22.5899  -12.2979 N   0  0  0  0  0  0  0  0  0  0  0  0
   15.3467  -22.2934  -14.3612 C   0  0  0  0  0  0  0  0  0  0  0  0
   15.8000  -20.9913  -14.3067 O   0  0  0  0  0  0  0  0  0  0  0  0
   14.7955  -22.6721  -15.4287 O   0  0  0  0  0  0  0  0  0  0  0  0
  2  3  1  0
  2  1  1  1
  4  3  1  0
  5  4  1  0
  6  5  1  0
  7  6  1  0
  8  9  2  0
  8  2  1  0
 10 11  1  0
 11 13  1  0
 12 11  2  0
 14 13  1  6
 14 15  1  0
 15  8  1  0
 16 14  1  0
 16 17  2  0
 19 18  1  1
 20 19  1  0
 21 19  1  0
 21 22  1  1
 22 16  1  0
 23 21  1  0
 24 23  1  0
 25 23  2  0
M  END
$$$$
