KNV.pdb
     RDKit          3D

 25 24  0  0  1  0  0  0  0  0999 V2000
   13.8786  -10.0453  -12.6896 N   0  0  0  0  0  0  0  0  0  0  0  0
   15.2425  -10.0612  -12.1872 C   0  0  1  0  0  0  0  0  0  0  0  0
   16.0818  -10.7462  -13.2423 C   0  0  0  0  0  0  0  0  0  0  0  0
   15.6771  -12.2126  -13.2559 C   0  0  0  0  0  0  0  0  0  0  0  0
   16.4421  -12.9807  -14.3125 C   0  0  0  0  0  0  0  0  0  0  0  0
   16.0738  -14.4271  -14.2245 C   0  0  0  0  0  0  0  0  0  0  0  0
   16.8781  -15.1568  -15.2168 N   0  0  0  0  0  0  0  0  0  0  0  0
   15.7275   -8.6826  -11.9069 C   0  0  0  0  0  0  0  0  0  0  0  0
   15.3927   -7.7323  -12.6667 O   0  0  0  0  0  0  0  0  0  0  0  0
   14.7184   -7.1433   -7.8671 N   0  0  0  0  0  0  0  0  0  0  0  0
   15.4287   -6.4598   -8.8823 C   0  0  0  0  0  0  0  0  0  0  0  0
   14.8216   -5.6299   -9.6538 O   0  0  0  0  0  0  0  0  0  0  0  0
   16.8674   -6.6176   -9.1534 C   0  0  0  0  0  0  0  0  0  0  0  0
   17.0943   -6.9990  -10.5816 C   0  0  2  0  0  0  0  0  0  0  0  0
   16.5615   -8.3694  -10.8124 N   0  0  0  0  0  0  0  0  0  0  0  0
   18.4774   -6.9445  -11.0612 C   0  0  0  0  0  0  0  0  0  0  0  0
   19.3914   -7.5342  -10.3722 O   0  0  0  0  0  0  0  0  0  0  0  0
   20.2752   -8.6582  -13.7132 C   0  0  0  0  0  0  0  0  0  0  0  0
   20.6876   -7.2198  -13.8124 C   0  0  2  0  0  0  0  0  0  0  0  0
   22.1342   -7.0739  -14.2729 C   0  0  0  0  0  0  0  0  0  0  0  0
   20.3511   -6.3921  -12.6440 C   0  0  2  0  0  0  0  0  0  0  0  0
   19.0072   -6.3338  -12.1973 N   0  0  0  0  0  0  0  0  0  0  0  0
   20.8560   -5.0209  -12.8614 C   0  0  0  0  0  0  0  0  0  0  0  0
   19.9592   -3.9799  -12.9881 O   0  0  0  0  0  0  0  0  0  0  0  0
   22.0823   -4.7435  -12.9389 O   0  0  0  0  0  0  0  0  0  0  0  0
  2  3  1  0
  2  1  1  6
  4  3  1  0
  5  4  1  0
  6  5  1  0
  7  6  1  0
  8  9  2  0
  8  2  1  0
 10 11  1  0
 11 13  1  0
 12 11  2  0
 14 13  1  1
 14 15  1  0
 15  8  1  0
 16 14  1  0
 16 17  2  0
 19 18  1  1
 20 19  1  0
 21 19  1  0
 21 22  1  6
 22 16  1  0
 23 21  1  0
 24 23  1  0
 25 23  2  0
M  END
$$$$
