KNV.pdb
     RDKit          3D

 25 24  0  0  1  0  0  0  0  0999 V2000
   25.2668  -19.1337  -16.7113 N   0  0  0  0  0  0  0  0  0  0  0  0
   24.3364  -18.0733  -17.0616 C   0  0  1  0  0  0  0  0  0  0  0  0
   24.3200  -17.9965  -18.5718 C   0  0  0  0  0  0  0  0  0  0  0  0
   25.6255  -18.6010  -19.0663 C   0  0  0  0  0  0  0  0  0  0  0  0
   25.6306  -18.7306  -20.5746 C   0  0  0  0  0  0  0  0  0  0  0  0
   26.9415  -19.3039  -21.0090 C   0  0  0  0  0  0  0  0  0  0  0  0
   26.9236  -19.4048  -22.4764 N   0  0  0  0  0  0  0  0  0  0  0  0
   22.9813  -18.3438  -16.5091 C   0  0  0  0  0  0  0  0  0  0  0  0
   21.9684  -17.8113  -17.0410 O   0  0  0  0  0  0  0  0  0  0  0  0
   20.2880  -23.1071  -17.0864 N   0  0  0  0  0  0  0  0  0  0  0  0
   20.3438  -21.8286  -16.4827 C   0  0  0  0  0  0  0  0  0  0  0  0
   19.3370  -21.3773  -15.8231 O   0  0  0  0  0  0  0  0  0  0  0  0
   21.5015  -20.9207  -16.5425 C   0  0  0  0  0  0  0  0  0  0  0  0
   21.5813  -20.0883  -15.3026 C   0  0  2  0  0  0  0  0  0  0  0  0
   22.7589  -19.1829  -15.3965 N   0  0  0  0  0  0  0  0  0  0  0  0
   21.6447  -20.8132  -14.0313 C   0  0  0  0  0  0  0  0  0  0  0  0
   22.3245  -21.9055  -13.9788 O   0  0  0  0  0  0  0  0  0  0  0  0
   20.8021  -19.5724   -9.7969 C   0  0  0  0  0  0  0  0  0  0  0  0
   21.6842  -20.6327  -10.3856 C   0  0  2  0  0  0  0  0  0  0  0  0
   23.1316  -20.1669  -10.5034 C   0  0  0  0  0  0  0  0  0  0  0  0
   21.1653  -21.2695  -11.6057 C   0  0  2  0  0  0  0  0  0  0  0  0
   21.0676  -20.5101  -12.7985 N   0  0  0  0  0  0  0  0  0  0  0  0
   19.8568  -21.8880  -11.3092 C   0  0  0  0  0  0  0  0  0  0  0  0
   19.7821  -22.9045  -10.3792 O   0  0  0  0  0  0  0  0  0  0  0  0
   18.7854  -21.5325  -11.8682 O   0  0  0  0  0  0  0  0  0  0  0  0
  2  3  1  0
  2  1  1  6
  4  3  1  0
  5  4  1  0
  6  5  1  0
  7  6  1  0
  8  9  2  0
  8  2  1  0
 10 11  1  0
 11 13  1  0
 12 11  2  0
 14 13  1  6
 14 15  1  0
 15  8  1  0
 16 14  1  0
 16 17  2  0
 19 18  1  6
 20 19  1  0
 21 19  1  0
 21 22  1  6
 22 16  1  0
 23 21  1  0
 24 23  1  0
 25 23  2  0
M  END
$$$$
