KNV.pdb
     RDKit          3D

 25 24  0  0  1  0  0  0  0  0999 V2000
   27.3384  -25.7460  -18.7993 N   0  0  0  0  0  0  0  0  0  0  0  0
   27.0338  -25.5796  -17.3878 C   0  0  1  0  0  0  0  0  0  0  0  0
   28.3610  -25.4750  -16.6705 C   0  0  0  0  0  0  0  0  0  0  0  0
   28.9698  -26.8690  -16.6472 C   0  0  0  0  0  0  0  0  0  0  0  0
   29.8516  -27.1002  -17.8557 C   0  0  0  0  0  0  0  0  0  0  0  0
   30.4248  -28.4792  -17.7829 C   0  0  0  0  0  0  0  0  0  0  0  0
   31.3011  -28.6638  -18.9499 N   0  0  0  0  0  0  0  0  0  0  0  0
   26.1879  -24.3767  -17.1593 C   0  0  0  0  0  0  0  0  0  0  0  0
   25.8738  -24.0440  -15.9833 O   0  0  0  0  0  0  0  0  0  0  0  0
   28.2719  -21.3794  -18.3928 N   0  0  0  0  0  0  0  0  0  0  0  0
   27.0141  -20.9540  -17.9038 C   0  0  0  0  0  0  0  0  0  0  0  0
   26.9295  -20.3349  -16.7805 O   0  0  0  0  0  0  0  0  0  0  0  0
   25.7296  -21.1651  -18.5921 C   0  0  0  0  0  0  0  0  0  0  0  0
   24.9753  -22.2929  -17.9631 C   0  0  2  0  0  0  0  0  0  0  0  0
   25.7051  -23.5665  -18.2091 N   0  0  0  0  0  0  0  0  0  0  0  0
   23.5813  -22.4606  -18.3808 C   0  0  0  0  0  0  0  0  0  0  0  0
   23.3329  -22.6686  -19.6270 O   0  0  0  0  0  0  0  0  0  0  0  0
   20.0317  -24.0634  -16.3877 C   0  0  0  0  0  0  0  0  0  0  0  0
   20.3422  -23.8114  -17.8330 C   0  0  2  0  0  0  0  0  0  0  0  0
   20.9341  -25.0431  -18.5102 C   0  0  0  0  0  0  0  0  0  0  0  0
   21.0847  -22.5712  -18.1048 C   0  0  2  0  0  0  0  0  0  0  0  0
   22.4108  -22.4352  -17.6232 N   0  0  0  0  0  0  0  0  0  0  0  0
   20.2790  -21.4171  -17.6561 C   0  0  0  0  0  0  0  0  0  0  0  0
   20.7389  -20.6305  -16.6199 O   0  0  0  0  0  0  0  0  0  0  0  0
   19.1750  -21.1050  -18.1762 O   0  0  0  0  0  0  0  0  0  0  0  0
  2  3  1  0
  2  1  1  6
  4  3  1  0
  5  4  1  0
  6  5  1  0
  7  6  1  0
  8  9  2  0
  8  2  1  0
 10 11  1  0
 11 13  1  0
 12 11  2  0
 14 13  1  6
 14 15  1  0
 15  8  1  0
 16 14  1  0
 16 17  2  0
 19 18  1  1
 20 19  1  0
 21 19  1  0
 21 22  1  1
 22 16  1  0
 23 21  1  0
 24 23  1  0
 25 23  2  0
M  END
$$$$
