EHY.pdb
     RDKit          3D

 32 33  0  0  1  0  0  0  0  0999 V2000
   27.0557  -19.1272  -17.7431 N   0  0  0  0  0  0  0  0  0  0  0  0
   26.3092  -19.8778  -16.7986 C   0  0  1  0  0  0  0  0  0  0  0  0
   27.0091  -20.1689  -15.5154 C   0  0  0  0  0  0  0  0  0  0  0  0
   28.1906  -21.0725  -15.5662 C   0  0  0  0  0  0  0  0  0  0  0  0
   28.1905  -22.1474  -16.5506 C   0  0  0  0  0  0  0  0  0  0  0  0
   28.6957  -21.9984  -17.6784 O   0  0  0  0  0  0  0  0  0  0  0  0
   25.0015  -19.2256  -16.4207 C   0  0  0  0  0  0  0  0  0  0  0  0
   25.0801  -18.3171  -15.5528 O   0  0  0  0  0  0  0  0  0  0  0  0
   27.6050  -23.3914  -16.2255 O   0  0  0  0  0  0  0  0  0  0  0  0
   23.7533  -19.5759  -16.9735 N   0  0  0  0  0  0  0  0  0  0  0  0
   22.5030  -18.9388  -16.5845 C   0  0  1  0  0  0  0  0  0  0  0  0
   21.6983  -18.7832  -17.8527 C   0  0  0  0  0  0  0  0  0  0  0  0
   20.3769  -18.1644  -17.6069 C   0  0  0  0  0  0  0  0  0  0  0  0
   19.1779  -18.7812  -17.8955 C   0  0  0  0  0  0  0  0  0  0  0  0
   18.1903  -17.9387  -17.5539 N   0  0  0  0  0  0  0  0  0  0  0  0
   18.7286  -16.8032  -17.0563 C   0  0  0  0  0  0  0  0  0  0  0  0
   20.0527  -16.9665  -17.0998 N   0  0  0  0  0  0  0  0  0  0  0  0
   21.8065  -19.6790  -15.5238 C   0  0  0  0  0  0  0  0  0  0  0  0
   21.8210  -20.9370  -15.5386 O   0  0  0  0  0  0  0  0  0  0  0  0
   16.5953  -14.6857  -13.4318 O   0  0  0  0  0  0  0  0  0  0  0  0
   17.4811  -15.7049  -13.1542 C   0  0  0  0  0  0  0  0  0  0  0  0
   16.9795  -16.9245  -12.7220 C   0  0  0  0  0  0  0  0  0  0  0  0
   17.8414  -17.9657  -12.4355 C   0  0  0  0  0  0  0  0  0  0  0  0
   19.2071  -17.8374  -12.5650 C   0  0  0  0  0  0  0  0  0  0  0  0
   20.1111  -18.9259  -12.2459 C   0  0  0  0  0  0  0  0  0  0  0  0
   20.4285  -19.8429  -13.4003 C   0  0  2  0  0  0  0  0  0  0  0  0
   21.0982  -19.0770  -14.4522 N   0  0  0  0  0  0  0  0  0  0  0  0
   19.2130  -20.4811  -13.8814 C   0  0  0  0  0  0  0  0  0  0  0  0
   18.6468  -20.1654  -15.1013 O   0  0  0  0  0  0  0  0  0  0  0  0
   19.6967  -16.6254  -12.9938 C   0  0  0  0  0  0  0  0  0  0  0  0
   18.8461  -15.5630  -13.2880 C   0  0  0  0  0  0  0  0  0  0  0  0
   18.6357  -21.3583  -13.1733 O   0  0  0  0  0  0  0  0  0  0  0  0
  2  1  1  6
  2  3  1  0
  3  4  1  0
  5  4  1  0
  5  9  1  0
  6  5  2  0
  7  2  1  0
  8  7  2  0
 10  7  1  0
 11 10  1  0
 11 12  1  6
 13 12  1  0
 13 14  2  0
 15 14  1  0
 16 15  1  0
 17 16  2  0
 17 13  1  0
 18 11  1  0
 18 19  2  0
 21 22  2  0
 21 20  1  0
 23 22  1  0
 24 23  2  0
 25 24  1  0
 26 25  1  1
 26 27  1  0
 27 18  1  0
 28 26  1  0
 29 28  1  0
 30 24  1  0
 30 31  2  0
 31 21  1  0
 32 28  2  0
M  END
$$$$
