EHY.pdb
     RDKit          3D

 32 33  0  0  1  0  0  0  0  0999 V2000
   23.2399  -11.8130  -20.7177 N   0  0  0  0  0  0  0  0  0  0  0  0
   23.8291  -10.7177  -20.0348 C   0  0  1  0  0  0  0  0  0  0  0  0
   23.6143   -9.3827  -20.6613 C   0  0  0  0  0  0  0  0  0  0  0  0
   24.1834   -9.1604  -22.0186 C   0  0  0  0  0  0  0  0  0  0  0  0
   25.6329   -9.0837  -22.1507 C   0  0  0  0  0  0  0  0  0  0  0  0
   26.3838   -9.1908  -21.1639 O   0  0  0  0  0  0  0  0  0  0  0  0
   23.3613  -10.5869  -18.6058 C   0  0  0  0  0  0  0  0  0  0  0  0
   22.1180  -10.6802  -18.4319 O   0  0  0  0  0  0  0  0  0  0  0  0
   26.2078   -8.8828  -23.4256 O   0  0  0  0  0  0  0  0  0  0  0  0
   24.2195  -10.3737  -17.5084 N   0  0  0  0  0  0  0  0  0  0  0  0
   23.7428  -10.2399  -16.1389 C   0  0  1  0  0  0  0  0  0  0  0  0
   24.8170  -10.8347  -15.2601 C   0  0  0  0  0  0  0  0  0  0  0  0
   24.9131  -12.3039  -15.4072 C   0  0  0  0  0  0  0  0  0  0  0  0
   24.1545  -13.0348  -16.2969 C   0  0  0  0  0  0  0  0  0  0  0  0
   24.4927  -14.3266  -16.1602 N   0  0  0  0  0  0  0  0  0  0  0  0
   25.4454  -14.4370  -15.2079 C   0  0  0  0  0  0  0  0  0  0  0  0
   25.6811  -13.1985  -14.7691 N   0  0  0  0  0  0  0  0  0  0  0  0
   23.3978   -8.8523  -15.8017 C   0  0  0  0  0  0  0  0  0  0  0  0
   24.2478   -7.9433  -15.9871 O   0  0  0  0  0  0  0  0  0  0  0  0
   20.4143   -0.8197  -15.7264 O   0  0  0  0  0  0  0  0  0  0  0  0
   20.6745   -2.1667  -15.8625 C   0  0  0  0  0  0  0  0  0  0  0  0
   21.9664   -2.6217  -15.6387 C   0  0  0  0  0  0  0  0  0  0  0  0
   22.2594   -3.9659  -15.7672 C   0  0  0  0  0  0  0  0  0  0  0  0
   21.2992   -4.8905  -16.1158 C   0  0  0  0  0  0  0  0  0  0  0  0
   21.6131   -6.2984  -16.2682 C   0  0  0  0  0  0  0  0  0  0  0  0
   21.8250   -7.0425  -14.9736 C   0  0  2  0  0  0  0  0  0  0  0  0
   22.1498   -8.4384  -15.2694 N   0  0  0  0  0  0  0  0  0  0  0  0
   20.6460   -6.9247  -14.1298 C   0  0  0  0  0  0  0  0  0  0  0  0
   20.4679   -5.8719  -13.2532 O   0  0  0  0  0  0  0  0  0  0  0  0
   20.0211   -4.4318  -16.3360 C   0  0  0  0  0  0  0  0  0  0  0  0
   19.7041   -3.0817  -16.2121 C   0  0  0  0  0  0  0  0  0  0  0  0
   19.7390   -7.8071  -14.1826 O   0  0  0  0  0  0  0  0  0  0  0  0
  2  1  1  6
  2  3  1  0
  3  4  1  0
  5  4  1  0
  5  9  1  0
  6  5  2  0
  7  2  1  0
  8  7  2  0
 10  7  1  0
 11 10  1  0
 11 12  1  1
 13 12  1  0
 13 14  2  0
 15 14  1  0
 16 15  1  0
 17 16  2  0
 17 13  1  0
 18 11  1  0
 18 19  2  0
 21 22  2  0
 21 20  1  0
 23 22  1  0
 24 23  2  0
 25 24  1  0
 26 25  1  6
 26 27  1  0
 27 18  1  0
 28 26  1  0
 29 28  1  0
 30 24  1  0
 30 31  2  0
 31 21  1  0
 32 28  2  0
M  END
$$$$
