EHY.pdb
     RDKit          3D

 32 33  0  0  1  0  0  0  0  0999 V2000
   17.5955   -8.5300  -17.1388 N   0  0  0  0  0  0  0  0  0  0  0  0
   17.9755   -9.1449  -15.9179 C   0  0  1  0  0  0  0  0  0  0  0  0
   19.4225   -9.0467  -15.5752 C   0  0  0  0  0  0  0  0  0  0  0  0
   19.9754   -7.6910  -15.3074 C   0  0  0  0  0  0  0  0  0  0  0  0
   21.4128   -7.5646  -15.1017 C   0  0  0  0  0  0  0  0  0  0  0  0
   22.1775   -7.2386  -16.0280 O   0  0  0  0  0  0  0  0  0  0  0  0
   17.2273   -8.6062  -14.7228 C   0  0  0  0  0  0  0  0  0  0  0  0
   16.8718   -7.4013  -14.8041 O   0  0  0  0  0  0  0  0  0  0  0  0
   21.9597   -7.8166  -13.8235 O   0  0  0  0  0  0  0  0  0  0  0  0
   16.9245   -9.3616  -13.5722 N   0  0  0  0  0  0  0  0  0  0  0  0
   16.0653   -8.8736  -12.5025 C   0  0  1  0  0  0  0  0  0  0  0  0
   15.3682  -10.0876  -11.9365 C   0  0  0  0  0  0  0  0  0  0  0  0
   14.3276   -9.7278  -10.9481 C   0  0  0  0  0  0  0  0  0  0  0  0
   14.5116   -9.7989   -9.5834 C   0  0  0  0  0  0  0  0  0  0  0  0
   13.3702   -9.4087   -8.9945 N   0  0  0  0  0  0  0  0  0  0  0  0
   12.4656   -9.0916   -9.9474 C   0  0  0  0  0  0  0  0  0  0  0  0
   13.0709   -9.2937  -11.1198 N   0  0  0  0  0  0  0  0  0  0  0  0
   16.8075   -8.0929  -11.5036 C   0  0  0  0  0  0  0  0  0  0  0  0
   17.9034   -8.5318  -11.0684 O   0  0  0  0  0  0  0  0  0  0  0  0
   21.7620   -5.5786  -14.1795 O   0  0  0  0  0  0  0  0  0  0  0  0
   20.7824   -5.4324  -13.2206 C   0  0  0  0  0  0  0  0  0  0  0  0
   19.5803   -4.8398  -13.5810 C   0  0  0  0  0  0  0  0  0  0  0  0
   18.5787   -4.6788  -12.6430 C   0  0  0  0  0  0  0  0  0  0  0  0
   18.7301   -5.0922  -11.3374 C   0  0  0  0  0  0  0  0  0  0  0  0
   17.6842   -4.9054  -10.3500 C   0  0  0  0  0  0  0  0  0  0  0  0
   17.0472   -6.1797   -9.8552 C   0  0  2  0  0  0  0  0  0  0  0  0
   16.3802   -6.8487  -10.9729 N   0  0  0  0  0  0  0  0  0  0  0  0
   16.1269   -5.8893   -8.7668 C   0  0  0  0  0  0  0  0  0  0  0  0
   14.7631   -6.0764   -8.8836 O   0  0  0  0  0  0  0  0  0  0  0  0
   19.9245   -5.6786  -10.9878 C   0  0  0  0  0  0  0  0  0  0  0  0
   20.9471   -5.8505  -11.9170 C   0  0  0  0  0  0  0  0  0  0  0  0
   16.5686   -5.4473   -7.6652 O   0  0  0  0  0  0  0  0  0  0  0  0
  2  1  1  6
  2  3  1  0
  3  4  1  0
  5  4  1  0
  5  9  1  0
  6  5  2  0
  7  2  1  0
  8  7  2  0
 10  7  1  0
 11 10  1  0
 11 12  1  1
 13 12  1  0
 13 14  2  0
 15 14  1  0
 16 15  1  0
 17 16  2  0
 17 13  1  0
 18 11  1  0
 18 19  2  0
 21 22  2  0
 21 20  1  0
 23 22  1  0
 24 23  2  0
 25 24  1  0
 26 25  1  6
 26 27  1  0
 27 18  1  0
 28 26  1  0
 29 28  1  0
 30 24  1  0
 30 31  2  0
 31 21  1  0
 32 28  2  0
M  END
$$$$
