EHY.pdb
     RDKit          3D

 32 33  0  0  1  0  0  0  0  0999 V2000
   27.3750  -20.9093  -17.4721 N   0  0  0  0  0  0  0  0  0  0  0  0
   27.1344  -21.8070  -16.4001 C   0  0  1  0  0  0  0  0  0  0  0  0
   28.3462  -22.4562  -15.8247 C   0  0  0  0  0  0  0  0  0  0  0  0
   29.6328  -22.2771  -16.5513 C   0  0  0  0  0  0  0  0  0  0  0  0
   29.7945  -22.9472  -17.8356 C   0  0  0  0  0  0  0  0  0  0  0  0
   29.2120  -24.0172  -18.0903 O   0  0  0  0  0  0  0  0  0  0  0  0
   26.4144  -21.1664  -15.2384 C   0  0  0  0  0  0  0  0  0  0  0  0
   26.7250  -19.9697  -15.0017 O   0  0  0  0  0  0  0  0  0  0  0  0
   30.6308  -22.3756  -18.8205 O   0  0  0  0  0  0  0  0  0  0  0  0
   25.4530  -21.8228  -14.4439 N   0  0  0  0  0  0  0  0  0  0  0  0
   24.7268  -21.1650  -13.3666 C   0  0  1  0  0  0  0  0  0  0  0  0
   23.2894  -21.6088  -13.4965 C   0  0  0  0  0  0  0  0  0  0  0  0
   22.4288  -21.0432  -12.4341 C   0  0  0  0  0  0  0  0  0  0  0  0
   22.8534  -20.0909  -11.5318 C   0  0  0  0  0  0  0  0  0  0  0  0
   21.8259  -19.8134  -10.7139 N   0  0  0  0  0  0  0  0  0  0  0  0
   20.7598  -20.5632  -11.0713 C   0  0  0  0  0  0  0  0  0  0  0  0
   21.1520  -21.2979  -12.1145 N   0  0  0  0  0  0  0  0  0  0  0  0
   25.3174  -21.4363  -12.0491 C   0  0  0  0  0  0  0  0  0  0  0  0
   25.4754  -22.6281  -11.6781 O   0  0  0  0  0  0  0  0  0  0  0  0
   29.2516  -20.1012   -4.1737 O   0  0  0  0  0  0  0  0  0  0  0  0
   28.8133  -20.0381   -5.4793 C   0  0  0  0  0  0  0  0  0  0  0  0
   27.8319  -19.1138   -5.8087 C   0  0  0  0  0  0  0  0  0  0  0  0
   27.3714  -19.0260   -7.1085 C   0  0  0  0  0  0  0  0  0  0  0  0
   27.8587  -19.8368   -8.1102 C   0  0  0  0  0  0  0  0  0  0  0  0
   27.3606  -19.7556   -9.4701 C   0  0  0  0  0  0  0  0  0  0  0  0
   26.2672  -20.7396   -9.8025 C   0  0  2  0  0  0  0  0  0  0  0  0
   25.7376  -20.4381  -11.1330 N   0  0  0  0  0  0  0  0  0  0  0  0
   25.2310  -20.6999   -8.7822 C   0  0  0  0  0  0  0  0  0  0  0  0
   25.2666  -21.5081   -7.6623 O   0  0  0  0  0  0  0  0  0  0  0  0
   28.8312  -20.7506   -7.7758 C   0  0  0  0  0  0  0  0  0  0  0  0
   29.3095  -20.8559   -6.4724 C   0  0  0  0  0  0  0  0  0  0  0  0
   24.2520  -19.9058   -8.9048 O   0  0  0  0  0  0  0  0  0  0  0  0
  2  1  1  6
  2  3  1  0
  3  4  1  0
  5  4  1  0
  5  9  1  0
  6  5  2  0
  7  2  1  0
  8  7  2  0
 10  7  1  0
 11 10  1  0
 11 12  1  1
 13 12  1  0
 13 14  2  0
 15 14  1  0
 16 15  1  0
 17 16  2  0
 17 13  1  0
 18 11  1  0
 18 19  2  0
 21 22  2  0
 21 20  1  0
 23 22  1  0
 24 23  2  0
 25 24  1  0
 26 25  1  1
 26 27  1  0
 27 18  1  0
 28 26  1  0
 29 28  1  0
 30 24  1  0
 30 31  2  0
 31 21  1  0
 32 28  2  0
M  END
$$$$
