EHY.pdb
     RDKit          3D

 32 33  0  0  1  0  0  0  0  0999 V2000
   40.7614   -8.7081   -7.6241 N   0  0  0  0  0  0  0  0  0  0  0  0
   39.8732   -7.6459   -7.9333 C   0  0  1  0  0  0  0  0  0  0  0  0
   38.4286   -7.9326   -7.7053 C   0  0  0  0  0  0  0  0  0  0  0  0
   37.7828   -8.9488   -8.5802 C   0  0  0  0  0  0  0  0  0  0  0  0
   37.7138   -8.6783  -10.0107 C   0  0  0  0  0  0  0  0  0  0  0  0
   37.0411   -7.7341  -10.4638 O   0  0  0  0  0  0  0  0  0  0  0  0
   40.1718   -6.3794   -7.1685 C   0  0  0  0  0  0  0  0  0  0  0  0
   40.5459   -6.5411   -5.9774 O   0  0  0  0  0  0  0  0  0  0  0  0
   38.4242   -9.5026  -10.9119 O   0  0  0  0  0  0  0  0  0  0  0  0
   40.0542   -5.0826   -7.7078 N   0  0  0  0  0  0  0  0  0  0  0  0
   40.4283   -3.8795   -6.9776 C   0  0  1  0  0  0  0  0  0  0  0  0
   41.0251   -2.9382   -7.9962 C   0  0  0  0  0  0  0  0  0  0  0  0
   42.3091   -3.4365   -8.5368 C   0  0  0  0  0  0  0  0  0  0  0  0
   42.4559   -3.9509   -9.8078 C   0  0  0  0  0  0  0  0  0  0  0  0
   43.7405   -4.3093   -9.9597 N   0  0  0  0  0  0  0  0  0  0  0  0
   44.4144   -4.0371   -8.8202 C   0  0  0  0  0  0  0  0  0  0  0  0
   43.5247   -3.5099   -7.9762 N   0  0  0  0  0  0  0  0  0  0  0  0
   39.3010   -3.3092   -6.2278 C   0  0  0  0  0  0  0  0  0  0  0  0
   38.1560   -3.2993   -6.7492 O   0  0  0  0  0  0  0  0  0  0  0  0
   34.0483   -0.8158    0.4488 O   0  0  0  0  0  0  0  0  0  0  0  0
   35.0687   -1.2850   -0.3507 C   0  0  0  0  0  0  0  0  0  0  0  0
   34.7991   -2.3179   -1.2375 C   0  0  0  0  0  0  0  0  0  0  0  0
   35.8005   -2.8104   -2.0523 C   0  0  0  0  0  0  0  0  0  0  0  0
   37.0820   -2.3054   -2.0178 C   0  0  0  0  0  0  0  0  0  0  0  0
   38.1361   -2.8364   -2.8608 C   0  0  0  0  0  0  0  0  0  0  0  0
   38.2574   -2.1772   -4.2118 C   0  0  2  0  0  0  0  0  0  0  0  0
   39.3974   -2.7527   -4.9265 N   0  0  0  0  0  0  0  0  0  0  0  0
   38.3834   -0.7364   -4.0561 C   0  0  0  0  0  0  0  0  0  0  0  0
   37.2848    0.1000   -4.0113 O   0  0  0  0  0  0  0  0  0  0  0  0
   37.3414   -1.2818   -1.1360 C   0  0  0  0  0  0  0  0  0  0  0  0
   36.3472   -0.7706   -0.3060 C   0  0  0  0  0  0  0  0  0  0  0  0
   39.5303   -0.2081   -3.9579 O   0  0  0  0  0  0  0  0  0  0  0  0
  2  1  1  1
  2  3  1  0
  3  4  1  0
  5  4  1  0
  5  9  1  0
  6  5  2  0
  7  2  1  0
  8  7  2  0
 10  7  1  0
 11 10  1  0
 11 12  1  6
 13 12  1  0
 13 14  2  0
 15 14  1  0
 16 15  1  0
 17 16  2  0
 17 13  1  0
 18 11  1  0
 18 19  2  0
 21 22  2  0
 21 20  1  0
 23 22  1  0
 24 23  2  0
 25 24  1  0
 26 25  1  1
 26 27  1  0
 27 18  1  0
 28 26  1  0
 29 28  1  0
 30 24  1  0
 30 31  2  0
 31 21  1  0
 32 28  2  0
M  END
$$$$
