EHY.pdb
     RDKit          3D

 32 33  0  0  1  0  0  0  0  0999 V2000
   39.7074  -10.2229  -13.6333 N   0  0  0  0  0  0  0  0  0  0  0  0
   40.9797  -10.5779  -13.1157 C   0  0  1  0  0  0  0  0  0  0  0  0
   42.1269  -10.3819  -14.0466 C   0  0  0  0  0  0  0  0  0  0  0  0
   42.0801  -11.0909  -15.3544 C   0  0  0  0  0  0  0  0  0  0  0  0
   43.2714  -11.0618  -16.1936 C   0  0  0  0  0  0  0  0  0  0  0  0
   43.6363  -10.0217  -16.7717 O   0  0  0  0  0  0  0  0  0  0  0  0
   41.3368   -9.8327  -11.8526 C   0  0  0  0  0  0  0  0  0  0  0  0
   40.8787   -8.6634  -11.7655 O   0  0  0  0  0  0  0  0  0  0  0  0
   44.0363  -12.2380  -16.3606 O   0  0  0  0  0  0  0  0  0  0  0  0
   42.1260  -10.3671  -10.8145 N   0  0  0  0  0  0  0  0  0  0  0  0
   42.4331   -9.6385   -9.5916 C   0  0  1  0  0  0  0  0  0  0  0  0
   42.6667  -10.6835   -8.5271 C   0  0  0  0  0  0  0  0  0  0  0  0
   43.0656  -10.0875   -7.2329 C   0  0  0  0  0  0  0  0  0  0  0  0
   43.1357   -8.7293   -7.0055 C   0  0  0  0  0  0  0  0  0  0  0  0
   43.5336   -8.5456   -5.7368 N   0  0  0  0  0  0  0  0  0  0  0  0
   43.7186   -9.7497   -5.1514 C   0  0  0  0  0  0  0  0  0  0  0  0
   43.4285  -10.6650   -6.0788 N   0  0  0  0  0  0  0  0  0  0  0  0
   43.5534   -8.7043   -9.7656 C   0  0  0  0  0  0  0  0  0  0  0  0
   44.5550   -9.0615  -10.4382 O   0  0  0  0  0  0  0  0  0  0  0  0
   40.5115   -2.1257   -7.3245 O   0  0  0  0  0  0  0  0  0  0  0  0
   41.4086   -2.9051   -8.0232 C   0  0  0  0  0  0  0  0  0  0  0  0
   42.7510   -2.8506   -7.6752 C   0  0  0  0  0  0  0  0  0  0  0  0
   43.6750   -3.6195   -8.3564 C   0  0  0  0  0  0  0  0  0  0  0  0
   43.3079   -4.4551   -9.3885 C   0  0  0  0  0  0  0  0  0  0  0  0
   44.2821   -5.2474  -10.1144 C   0  0  0  0  0  0  0  0  0  0  0  0
   44.7421   -6.4934   -9.4000 C   0  0  2  0  0  0  0  0  0  0  0  0
   43.6026   -7.3944   -9.2234 N   0  0  0  0  0  0  0  0  0  0  0  0
   45.3610   -6.1431   -8.1310 C   0  0  0  0  0  0  0  0  0  0  0  0
   44.8332   -6.5405   -6.9178 O   0  0  0  0  0  0  0  0  0  0  0  0
   41.9755   -4.5036   -9.7277 C   0  0  0  0  0  0  0  0  0  0  0  0
   41.0277   -3.7372   -9.0546 C   0  0  0  0  0  0  0  0  0  0  0  0
   46.4202   -5.4488   -8.1136 O   0  0  0  0  0  0  0  0  0  0  0  0
  2  1  1  6
  2  3  1  0
  3  4  1  0
  5  4  1  0
  5  9  1  0
  6  5  2  0
  7  2  1  0
  8  7  2  0
 10  7  1  0
 11 10  1  0
 11 12  1  1
 13 12  1  0
 13 14  2  0
 15 14  1  0
 16 15  1  0
 17 16  2  0
 17 13  1  0
 18 11  1  0
 18 19  2  0
 21 22  2  0
 21 20  1  0
 23 22  1  0
 24 23  2  0
 25 24  1  0
 26 25  1  1
 26 27  1  0
 27 18  1  0
 28 26  1  0
 29 28  1  0
 30 24  1  0
 30 31  2  0
 31 21  1  0
 32 28  2  0
M  END
$$$$
