EHY.pdb
     RDKit          3D

 32 33  0  0  1  0  0  0  0  0999 V2000
   21.4320  -14.0928  -16.4592 N   0  0  0  0  0  0  0  0  0  0  0  0
   20.9839  -12.7853  -16.7796 C   0  0  1  0  0  0  0  0  0  0  0  0
   19.5964  -12.4596  -16.3438 C   0  0  0  0  0  0  0  0  0  0  0  0
   18.5078  -13.3809  -16.7694 C   0  0  0  0  0  0  0  0  0  0  0  0
   17.6221  -13.9168  -15.7434 C   0  0  0  0  0  0  0  0  0  0  0  0
   16.4857  -13.4461  -15.5526 O   0  0  0  0  0  0  0  0  0  0  0  0
   21.8644  -11.6991  -16.2114 C   0  0  0  0  0  0  0  0  0  0  0  0
   22.0261  -11.7301  -14.9633 O   0  0  0  0  0  0  0  0  0  0  0  0
   18.0557  -14.9960  -14.9413 O   0  0  0  0  0  0  0  0  0  0  0  0
   22.4842  -10.6971  -16.9848 N   0  0  0  0  0  0  0  0  0  0  0  0
   23.3063   -9.6416  -16.4097 C   0  0  1  0  0  0  0  0  0  0  0  0
   24.6376   -9.7126  -17.1186 C   0  0  0  0  0  0  0  0  0  0  0  0
   25.5413  -10.7180  -16.5170 C   0  0  0  0  0  0  0  0  0  0  0  0
   25.2375  -11.4364  -15.3800 C   0  0  0  0  0  0  0  0  0  0  0  0
   26.2757  -12.2453  -15.1160 N   0  0  0  0  0  0  0  0  0  0  0  0
   27.2311  -12.0608  -16.0540 C   0  0  0  0  0  0  0  0  0  0  0  0
   26.7610  -11.1316  -16.8891 N   0  0  0  0  0  0  0  0  0  0  0  0
   22.6589   -8.3253  -16.4881 C   0  0  0  0  0  0  0  0  0  0  0  0
   22.0737   -7.9885  -17.5498 O   0  0  0  0  0  0  0  0  0  0  0  0
   19.6682   -0.2394  -14.1864 O   0  0  0  0  0  0  0  0  0  0  0  0
   20.2384   -1.4944  -14.1995 C   0  0  0  0  0  0  0  0  0  0  0  0
   19.4059   -2.6047  -14.1867 C   0  0  0  0  0  0  0  0  0  0  0  0
   19.9467   -3.8762  -14.1992 C   0  0  0  0  0  0  0  0  0  0  0  0
   21.3078   -4.0886  -14.2246 C   0  0  0  0  0  0  0  0  0  0  0  0
   21.8736   -5.4241  -14.2190 C   0  0  0  0  0  0  0  0  0  0  0  0
   22.0942   -6.0228  -15.5855 C   0  0  2  0  0  0  0  0  0  0  0  0
   22.6367   -7.3738  -15.4362 N   0  0  0  0  0  0  0  0  0  0  0  0
   22.9706   -5.1678  -16.3709 C   0  0  0  0  0  0  0  0  0  0  0  0
   24.3417   -5.1622  -16.2019 O   0  0  0  0  0  0  0  0  0  0  0  0
   22.1264   -2.9830  -14.2371 C   0  0  0  0  0  0  0  0  0  0  0  0
   21.6027   -1.6930  -14.2248 C   0  0  0  0  0  0  0  0  0  0  0  0
   22.4816   -4.3923  -17.2447 O   0  0  0  0  0  0  0  0  0  0  0  0
  2  1  1  1
  2  3  1  0
  3  4  1  0
  5  4  1  0
  5  9  1  0
  6  5  2  0
  7  2  1  0
  8  7  2  0
 10  7  1  0
 11 10  1  0
 11 12  1  6
 13 12  1  0
 13 14  2  0
 15 14  1  0
 16 15  1  0
 17 16  2  0
 17 13  1  0
 18 11  1  0
 18 19  2  0
 21 22  2  0
 21 20  1  0
 23 22  1  0
 24 23  2  0
 25 24  1  0
 26 25  1  1
 26 27  1  0
 27 18  1  0
 28 26  1  0
 29 28  1  0
 30 24  1  0
 30 31  2  0
 31 21  1  0
 32 28  2  0
M  END
$$$$
