EHY.pdb
     RDKit          3D

 32 33  0  0  1  0  0  0  0  0999 V2000
   13.0671  -19.3073    3.4524 N   0  0  0  0  0  0  0  0  0  0  0  0
   14.3681  -19.4649    2.9091 C   0  0  1  0  0  0  0  0  0  0  0  0
   15.2255  -18.2463    2.9374 C   0  0  0  0  0  0  0  0  0  0  0  0
   15.3543  -17.5260    4.2336 C   0  0  0  0  0  0  0  0  0  0  0  0
   16.6661  -17.4832    4.8673 C   0  0  0  0  0  0  0  0  0  0  0  0
   16.7993  -17.1959    6.0711 O   0  0  0  0  0  0  0  0  0  0  0  0
   15.1674  -20.5518    3.5860 C   0  0  0  0  0  0  0  0  0  0  0  0
   15.1496  -20.5336    4.8446 O   0  0  0  0  0  0  0  0  0  0  0  0
   17.8195  -17.7733    4.1046 O   0  0  0  0  0  0  0  0  0  0  0  0
   15.8996  -21.5407    2.8986 N   0  0  0  0  0  0  0  0  0  0  0  0
   16.7023  -22.5506    3.5739 C   0  0  1  0  0  0  0  0  0  0  0  0
   17.0856  -23.5586    2.5170 C   0  0  0  0  0  0  0  0  0  0  0  0
   17.9004  -24.6652    3.0654 C   0  0  0  0  0  0  0  0  0  0  0  0
   18.2766  -24.7550    4.3890 C   0  0  0  0  0  0  0  0  0  0  0  0
   19.0074  -25.8716    4.5331 N   0  0  0  0  0  0  0  0  0  0  0  0
   19.1063  -26.4941    3.3375 C   0  0  0  0  0  0  0  0  0  0  0  0
   18.4276  -25.7430    2.4674 N   0  0  0  0  0  0  0  0  0  0  0  0
   17.8482  -21.9682    4.2852 C   0  0  0  0  0  0  0  0  0  0  0  0
   18.4870  -21.0228    3.7550 O   0  0  0  0  0  0  0  0  0  0  0  0
   23.1844  -17.9275    9.7166 O   0  0  0  0  0  0  0  0  0  0  0  0
   22.1748  -18.5722    9.0343 C   0  0  0  0  0  0  0  0  0  0  0  0
   21.2208  -19.2713    9.7603 C   0  0  0  0  0  0  0  0  0  0  0  0
   20.1963  -19.9280    9.1059 C   0  0  0  0  0  0  0  0  0  0  0  0
   20.0830  -19.9153    7.7328 C   0  0  0  0  0  0  0  0  0  0  0  0
   19.0173  -20.6209    7.0469 C   0  0  0  0  0  0  0  0  0  0  0  0
   19.4673  -21.8070    6.2313 C   0  0  2  0  0  0  0  0  0  0  0  0
   18.3085  -22.3942    5.5576 N   0  0  0  0  0  0  0  0  0  0  0  0
   20.1483  -22.7702    7.0825 C   0  0  0  0  0  0  0  0  0  0  0  0
   21.4721  -22.6247    7.4495 O   0  0  0  0  0  0  0  0  0  0  0  0
   21.0325  -19.2203    7.0201 C   0  0  0  0  0  0  0  0  0  0  0  0
   22.0731  -18.5515    7.6594 C   0  0  0  0  0  0  0  0  0  0  0  0
   19.5261  -23.7862    7.5124 O   0  0  0  0  0  0  0  0  0  0  0  0
  2  1  1  1
  2  3  1  0
  3  4  1  0
  5  4  1  0
  5  9  1  0
  6  5  2  0
  7  2  1  0
  8  7  2  0
 10  7  1  0
 11 10  1  0
 11 12  1  6
 13 12  1  0
 13 14  2  0
 15 14  1  0
 16 15  1  0
 17 16  2  0
 17 13  1  0
 18 11  1  0
 18 19  2  0
 21 22  2  0
 21 20  1  0
 23 22  1  0
 24 23  2  0
 25 24  1  0
 26 25  1  1
 26 27  1  0
 27 18  1  0
 28 26  1  0
 29 28  1  0
 30 24  1  0
 30 31  2  0
 31 21  1  0
 32 28  2  0
M  END
$$$$
