EHY.pdb
     RDKit          3D

 32 33  0  0  1  0  0  0  0  0999 V2000
   16.7075  -15.2099  -15.7454 N   0  0  0  0  0  0  0  0  0  0  0  0
   16.6526  -14.1502  -16.6871 C   0  0  1  0  0  0  0  0  0  0  0  0
   15.5473  -13.1712  -16.4851 C   0  0  0  0  0  0  0  0  0  0  0  0
   15.4412  -12.5194  -15.1512 C   0  0  0  0  0  0  0  0  0  0  0  0
   15.9656  -11.1674  -15.0045 C   0  0  0  0  0  0  0  0  0  0  0  0
   16.8628  -10.9019  -14.1837 O   0  0  0  0  0  0  0  0  0  0  0  0
   17.9233  -13.3375  -16.7424 C   0  0  0  0  0  0  0  0  0  0  0  0
   18.6451  -13.3896  -15.7123 O   0  0  0  0  0  0  0  0  0  0  0  0
   15.4489  -10.1273  -15.8091 O   0  0  0  0  0  0  0  0  0  0  0  0
   18.3169  -12.5581  -17.8487 N   0  0  0  0  0  0  0  0  0  0  0  0
   19.6287  -11.9352  -17.9576 C   0  0  1  0  0  0  0  0  0  0  0  0
   19.9491  -11.8855  -19.4323 C   0  0  0  0  0  0  0  0  0  0  0  0
   21.3249  -11.4071  -19.6923 C   0  0  0  0  0  0  0  0  0  0  0  0
   22.4548  -12.0196  -19.1929 C   0  0  0  0  0  0  0  0  0  0  0  0
   23.5209  -11.3231  -19.6175 N   0  0  0  0  0  0  0  0  0  0  0  0
   23.0997  -10.2846  -20.3729 C   0  0  0  0  0  0  0  0  0  0  0  0
   21.7672  -10.3591  -20.4018 N   0  0  0  0  0  0  0  0  0  0  0  0
   19.6817  -10.6268  -17.2918 C   0  0  0  0  0  0  0  0  0  0  0  0
   18.6369   -9.9294  -17.2193 O   0  0  0  0  0  0  0  0  0  0  0  0
   23.0865   -3.2358  -13.6637 O   0  0  0  0  0  0  0  0  0  0  0  0
   22.8663   -4.5304  -14.0834 C   0  0  0  0  0  0  0  0  0  0  0  0
   23.3727   -4.9274  -15.3130 C   0  0  0  0  0  0  0  0  0  0  0  0
   23.1690   -6.2182  -15.7620 C   0  0  0  0  0  0  0  0  0  0  0  0
   22.4685   -7.1450  -15.0212 C   0  0  0  0  0  0  0  0  0  0  0  0
   22.2400   -8.4940  -15.5027 C   0  0  0  0  0  0  0  0  0  0  0  0
   20.8932   -8.7165  -16.1439 C   0  0  2  0  0  0  0  0  0  0  0  0
   20.8459  -10.0668  -16.7060 N   0  0  0  0  0  0  0  0  0  0  0  0
   20.6446   -7.6979  -17.1523 C   0  0  0  0  0  0  0  0  0  0  0  0
   19.8193   -6.6148  -16.9194 O   0  0  0  0  0  0  0  0  0  0  0  0
   21.9696   -6.7439  -13.8035 C   0  0  0  0  0  0  0  0  0  0  0  0
   22.1632   -5.4481  -13.3320 C   0  0  0  0  0  0  0  0  0  0  0  0
   21.1917   -7.7876  -18.2910 O   0  0  0  0  0  0  0  0  0  0  0  0
  2  1  1  1
  2  3  1  0
  3  4  1  0
  5  4  1  0
  5  9  1  0
  6  5  2  0
  7  2  1  0
  8  7  2  0
 10  7  1  0
 11 10  1  0
 11 12  1  6
 13 12  1  0
 13 14  2  0
 15 14  1  0
 16 15  1  0
 17 16  2  0
 17 13  1  0
 18 11  1  0
 18 19  2  0
 21 22  2  0
 21 20  1  0
 23 22  1  0
 24 23  2  0
 25 24  1  0
 26 25  1  6
 26 27  1  0
 27 18  1  0
 28 26  1  0
 29 28  1  0
 30 24  1  0
 30 31  2  0
 31 21  1  0
 32 28  2  0
M  END
$$$$
