EHY.pdb
     RDKit          3D

 32 33  0  0  1  0  0  0  0  0999 V2000
   23.7295  -13.7170  -17.1247 N   0  0  0  0  0  0  0  0  0  0  0  0
   23.6281  -12.9478  -15.9369 C   0  0  1  0  0  0  0  0  0  0  0  0
   24.9207  -12.4613  -15.3772 C   0  0  0  0  0  0  0  0  0  0  0  0
   26.1612  -12.7768  -16.1368 C   0  0  0  0  0  0  0  0  0  0  0  0
   27.1012  -11.6934  -16.3959 C   0  0  0  0  0  0  0  0  0  0  0  0
   26.8984  -10.5398  -15.9748 O   0  0  0  0  0  0  0  0  0  0  0  0
   22.7558  -11.7259  -16.0924 C   0  0  0  0  0  0  0  0  0  0  0  0
   22.7955  -11.1721  -17.2223 O   0  0  0  0  0  0  0  0  0  0  0  0
   28.2731  -11.9499  -17.1423 O   0  0  0  0  0  0  0  0  0  0  0  0
   21.9366  -11.2029  -15.0718 N   0  0  0  0  0  0  0  0  0  0  0  0
   21.0543  -10.0609  -15.2655 C   0  0  1  0  0  0  0  0  0  0  0  0
   19.8809  -10.2746  -14.3396 C   0  0  0  0  0  0  0  0  0  0  0  0
   18.8044  -11.0692  -14.9713 C   0  0  0  0  0  0  0  0  0  0  0  0
   18.8635  -11.5459  -16.2639 C   0  0  0  0  0  0  0  0  0  0  0  0
   17.7243  -12.2126  -16.5079 N   0  0  0  0  0  0  0  0  0  0  0  0
   16.9426  -12.1727  -15.4061 C   0  0  0  0  0  0  0  0  0  0  0  0
   17.6201  -11.4749  -14.4918 N   0  0  0  0  0  0  0  0  0  0  0  0
   21.7466   -8.7809  -15.0644 C   0  0  0  0  0  0  0  0  0  0  0  0
   22.4783   -8.6283  -14.0522 O   0  0  0  0  0  0  0  0  0  0  0  0
   24.9895   -0.6348  -16.5443 O   0  0  0  0  0  0  0  0  0  0  0  0
   24.4853   -1.9133  -16.6527 C   0  0  0  0  0  0  0  0  0  0  0  0
   23.1238   -2.0767  -16.8661 C   0  0  0  0  0  0  0  0  0  0  0  0
   22.5876   -3.3451  -16.9791 C   0  0  0  0  0  0  0  0  0  0  0  0
   23.3682   -4.4767  -16.8863 C   0  0  0  0  0  0  0  0  0  0  0  0
   22.8004   -5.8077  -16.9867 C   0  0  0  0  0  0  0  0  0  0  0  0
   22.3121   -6.3865  -15.6825 C   0  0  2  0  0  0  0  0  0  0  0  0
   21.6576   -7.6696  -15.9414 N   0  0  0  0  0  0  0  0  0  0  0  0
   21.4228   -5.4457  -15.0192 C   0  0  0  0  0  0  0  0  0  0  0  0
   21.8828   -4.5050  -14.1181 O   0  0  0  0  0  0  0  0  0  0  0  0
   24.7168   -4.3066  -16.6746 C   0  0  0  0  0  0  0  0  0  0  0  0
   25.2778   -3.0376  -16.5577 C   0  0  0  0  0  0  0  0  0  0  0  0
   20.1796   -5.4726  -15.2594 O   0  0  0  0  0  0  0  0  0  0  0  0
  2  1  1  6
  2  3  1  0
  3  4  1  0
  5  4  1  0
  5  9  1  0
  6  5  2  0
  7  2  1  0
  8  7  2  0
 10  7  1  0
 11 10  1  0
 11 12  1  1
 13 12  1  0
 13 14  2  0
 15 14  1  0
 16 15  1  0
 17 16  2  0
 17 13  1  0
 18 11  1  0
 18 19  2  0
 21 22  2  0
 21 20  1  0
 23 22  1  0
 24 23  2  0
 25 24  1  0
 26 25  1  6
 26 27  1  0
 27 18  1  0
 28 26  1  0
 29 28  1  0
 30 24  1  0
 30 31  2  0
 31 21  1  0
 32 28  2  0
M  END
$$$$
