EHY.pdb
     RDKit          3D

 32 33  0  0  1  0  0  0  0  0999 V2000
   15.9146  -13.0391  -16.9200 N   0  0  0  0  0  0  0  0  0  0  0  0
   17.0801  -12.8852  -16.1257 C   0  0  1  0  0  0  0  0  0  0  0  0
   18.0402  -14.0241  -16.1706 C   0  0  0  0  0  0  0  0  0  0  0  0
   17.5580  -15.3492  -15.6943 C   0  0  0  0  0  0  0  0  0  0  0  0
   18.5243  -16.4359  -15.5952 C   0  0  0  0  0  0  0  0  0  0  0  0
   19.3801  -16.4667  -14.6920 O   0  0  0  0  0  0  0  0  0  0  0  0
   17.8793  -11.6533  -16.4751 C   0  0  0  0  0  0  0  0  0  0  0  0
   17.9953  -11.4136  -17.7055 O   0  0  0  0  0  0  0  0  0  0  0  0
   18.4962  -17.4833  -16.5431 O   0  0  0  0  0  0  0  0  0  0  0  0
   18.4741  -10.7997  -15.5244 N   0  0  0  0  0  0  0  0  0  0  0  0
   19.1719   -9.5726  -15.8822 C   0  0  1  0  0  0  0  0  0  0  0  0
   18.4318   -8.4519  -15.1922 C   0  0  0  0  0  0  0  0  0  0  0  0
   19.0934   -7.1419  -15.3813 C   0  0  0  0  0  0  0  0  0  0  0  0
   20.1034   -6.6708  -14.5693 C   0  0  0  0  0  0  0  0  0  0  0  0
   20.4623   -5.4591  -15.0218 N   0  0  0  0  0  0  0  0  0  0  0  0
   19.7081   -5.1469  -16.0990 C   0  0  0  0  0  0  0  0  0  0  0  0
   18.8885   -6.1822  -16.2946 N   0  0  0  0  0  0  0  0  0  0  0  0
   20.6034   -9.6302  -15.5573 C   0  0  0  0  0  0  0  0  0  0  0  0
   21.0094  -10.4641  -14.7071 O   0  0  0  0  0  0  0  0  0  0  0  0
   29.0774  -10.9989  -16.4646 O   0  0  0  0  0  0  0  0  0  0  0  0
   27.7116  -10.8130  -16.4443 C   0  0  0  0  0  0  0  0  0  0  0  0
   27.0093  -11.1572  -15.2979 C   0  0  0  0  0  0  0  0  0  0  0  0
   25.6395  -10.9829  -15.2461 C   0  0  0  0  0  0  0  0  0  0  0  0
   24.9298  -10.4703  -16.3100 C   0  0  0  0  0  0  0  0  0  0  0  0
   23.4896  -10.3056  -16.2602 C   0  0  0  0  0  0  0  0  0  0  0  0
   23.0245   -8.9313  -15.8484 C   0  0  2  0  0  0  0  0  0  0  0  0
   21.5961   -8.8005  -16.1388 N   0  0  0  0  0  0  0  0  0  0  0  0
   23.8131   -7.9127  -16.5241 C   0  0  0  0  0  0  0  0  0  0  0  0
   25.0142   -7.4536  -16.0191 O   0  0  0  0  0  0  0  0  0  0  0  0
   25.6330  -10.1316  -17.4428 C   0  0  0  0  0  0  0  0  0  0  0  0
   27.0133  -10.2989  -17.5164 C   0  0  0  0  0  0  0  0  0  0  0  0
   23.4031   -7.4140  -17.6137 O   0  0  0  0  0  0  0  0  0  0  0  0
  2  1  1  6
  2  3  1  0
  3  4  1  0
  5  4  1  0
  5  9  1  0
  6  5  2  0
  7  2  1  0
  8  7  2  0
 10  7  1  0
 11 10  1  0
 11 12  1  1
 13 12  1  0
 13 14  2  0
 15 14  1  0
 16 15  1  0
 17 16  2  0
 17 13  1  0
 18 11  1  0
 18 19  2  0
 21 22  2  0
 21 20  1  0
 23 22  1  0
 24 23  2  0
 25 24  1  0
 26 25  1  6
 26 27  1  0
 27 18  1  0
 28 26  1  0
 29 28  1  0
 30 24  1  0
 30 31  2  0
 31 21  1  0
 32 28  2  0
M  END
$$$$
