EHY.pdb
     RDKit          3D

 32 33  0  0  1  0  0  0  0  0999 V2000
   22.9078  -33.7985  -20.6004 N   0  0  0  0  0  0  0  0  0  0  0  0
   23.2499  -32.8684  -19.5851 C   0  0  1  0  0  0  0  0  0  0  0  0
   22.1633  -32.5502  -18.6162 C   0  0  0  0  0  0  0  0  0  0  0  0
   21.1041  -31.6021  -19.0576 C   0  0  0  0  0  0  0  0  0  0  0  0
   21.4314  -30.1827  -19.1077 C   0  0  0  0  0  0  0  0  0  0  0  0
   21.5209  -29.4975  -18.0725 O   0  0  0  0  0  0  0  0  0  0  0  0
   24.4334  -33.3028  -18.7552 C   0  0  0  0  0  0  0  0  0  0  0  0
   24.4901  -34.5330  -18.4945 O   0  0  0  0  0  0  0  0  0  0  0  0
   21.6538  -29.5615  -20.3571 O   0  0  0  0  0  0  0  0  0  0  0  0
   25.4317  -32.4280  -18.2814 N   0  0  0  0  0  0  0  0  0  0  0  0
   26.5509  -32.8672  -17.4598 C   0  0  1  0  0  0  0  0  0  0  0  0
   27.7929  -32.2979  -18.1027 C   0  0  0  0  0  0  0  0  0  0  0  0
   29.0233  -32.6586  -17.3640 C   0  0  0  0  0  0  0  0  0  0  0  0
   29.6919  -31.7941  -16.5233 C   0  0  0  0  0  0  0  0  0  0  0  0
   30.7585  -32.4433  -16.0308 N   0  0  0  0  0  0  0  0  0  0  0  0
   30.7864  -33.6968  -16.5355 C   0  0  0  0  0  0  0  0  0  0  0  0
   29.7254  -33.8004  -17.3389 N   0  0  0  0  0  0  0  0  0  0  0  0
   26.3863  -32.4947  -16.0483 C   0  0  0  0  0  0  0  0  0  0  0  0
   26.1257  -31.2999  -15.7525 O   0  0  0  0  0  0  0  0  0  0  0  0
   24.7071  -32.5618   -7.4058 O   0  0  0  0  0  0  0  0  0  0  0  0
   24.7888  -32.7775   -8.7650 C   0  0  0  0  0  0  0  0  0  0  0  0
   25.8138  -33.5761   -9.2525 C   0  0  0  0  0  0  0  0  0  0  0  0
   25.9229  -33.8114  -10.6097 C   0  0  0  0  0  0  0  0  0  0  0  0
   25.0355  -33.2731  -11.5159 C   0  0  0  0  0  0  0  0  0  0  0  0
   25.1629  -33.5063  -12.9418 C   0  0  0  0  0  0  0  0  0  0  0  0
   26.4329  -32.9755  -13.5580 C   0  0  2  0  0  0  0  0  0  0  0  0
   26.4995  -33.3955  -14.9583 N   0  0  0  0  0  0  0  0  0  0  0  0
   27.5864  -33.4307  -12.7976 C   0  0  0  0  0  0  0  0  0  0  0  0
   28.2306  -32.6238  -11.8798 O   0  0  0  0  0  0  0  0  0  0  0  0
   24.0223  -32.4825  -11.0249 C   0  0  0  0  0  0  0  0  0  0  0  0
   23.8939  -32.2324   -9.6613 C   0  0  0  0  0  0  0  0  0  0  0  0
   28.0342  -34.6032  -12.9677 O   0  0  0  0  0  0  0  0  0  0  0  0
  2  1  1  6
  2  3  1  0
  3  4  1  0
  5  4  1  0
  5  9  1  0
  6  5  2  0
  7  2  1  0
  8  7  2  0
 10  7  1  0
 11 10  1  0
 11 12  1  6
 13 12  1  0
 13 14  2  0
 15 14  1  0
 16 15  1  0
 17 16  2  0
 17 13  1  0
 18 11  1  0
 18 19  2  0
 21 22  2  0
 21 20  1  0
 23 22  1  0
 24 23  2  0
 25 24  1  0
 26 25  1  1
 26 27  1  0
 27 18  1  0
 28 26  1  0
 29 28  1  0
 30 24  1  0
 30 31  2  0
 31 21  1  0
 32 28  2  0
M  END
$$$$
