MVD.pdb
     RDKit          3D

 24 23  0  0  1  0  0  0  0  0999 V2000
    9.9355  -14.9857   30.8379 C   0  0  0  0  0  0  0  0  0  0  0  0
   10.2238  -14.7478   29.0596 S   0  0  0  0  0  0  0  0  0  0  0  0
   11.3102  -16.0782   28.4919 C   0  0  0  0  0  0  0  0  0  0  0  0
   10.5270  -17.2803   28.0107 C   0  0  0  0  0  0  0  0  0  0  0  0
    9.0626  -16.9179   28.0285 C   0  0  2  0  0  0  0  0  0  0  0  0
    8.3519  -18.0752   28.5663 N   0  0  0  0  0  0  0  0  0  0  0  0
    8.5689  -16.6228   26.6502 C   0  0  0  0  0  0  0  0  0  0  0  0
    8.4005  -17.5774   25.8567 O   0  0  0  0  0  0  0  0  0  0  0  0
    6.3306  -13.2971   25.6075 C   0  0  0  0  0  0  0  0  0  0  0  0
    7.5916  -13.5510   24.8116 C   0  0  2  0  0  0  0  0  0  0  0  0
    7.5143  -12.9383   23.4316 C   0  0  0  0  0  0  0  0  0  0  0  0
    8.0681  -14.9538   24.8085 C   0  0  2  0  0  0  0  0  0  0  0  0
    8.2876  -15.3214   26.2123 N   0  0  0  0  0  0  0  0  0  0  0  0
    9.1991  -15.2957   23.9664 C   0  0  0  0  0  0  0  0  0  0  0  0
   10.2868  -14.6484   24.1657 O   0  0  0  0  0  0  0  0  0  0  0  0
    9.2572  -16.2580   22.9472 N   0  0  0  0  0  0  0  0  0  0  0  0
   10.3886  -16.3719   22.0001 C   0  0  1  0  0  0  0  0  0  0  0  0
   10.9096  -17.7660   22.2089 C   0  0  0  0  0  0  0  0  0  0  0  0
   11.7022  -17.9653   23.4149 C   0  0  0  0  0  0  0  0  0  0  0  0
   12.5199  -17.0290   23.7064 O   0  0  0  0  0  0  0  0  0  0  0  0
    9.8301  -16.3123   20.6005 C   0  0  0  0  0  0  0  0  0  0  0  0
    8.4613  -16.2341   20.3840 O   0  0  0  0  0  0  0  0  0  0  0  0
   11.6783  -19.0369   24.2757 O   0  0  0  0  0  0  0  0  0  0  0  0
   10.5767  -16.3312   19.5998 O   0  0  0  0  0  0  0  0  0  0  0  0
  2  1  1  0
  3  2  1  0
  4  3  1  0
  5  4  1  0
  5  7  1  0
  5  6  1  6
  7 13  1  0
  8  7  2  0
 10  9  1  6
 10 12  1  0
 10 11  1  0
 12 14  1  0
 12 13  1  1
 14 15  2  0
 16 14  1  0
 16 17  1  0
 17 21  1  0
 17 18  1  6
 19 18  1  0
 20 19  2  0
 21 24  2  0
 21 22  1  0
 23 19  1  0
M  END
$$$$
