MVD.pdb
     RDKit          3D

 24 23  0  0  1  0  0  0  0  0999 V2000
    7.1683  -11.3130   27.0095 C   0  0  0  0  0  0  0  0  0  0  0  0
    5.9533  -12.6553   26.8545 S   0  0  0  0  0  0  0  0  0  0  0  0
    6.6886  -14.1517   27.5562 C   0  0  0  0  0  0  0  0  0  0  0  0
    7.6290  -14.8286   26.5828 C   0  0  0  0  0  0  0  0  0  0  0  0
    6.7936  -15.5837   25.5789 C   0  0  2  0  0  0  0  0  0  0  0  0
    6.2629  -16.7546   26.2727 N   0  0  0  0  0  0  0  0  0  0  0  0
    7.6227  -16.0230   24.4170 C   0  0  0  0  0  0  0  0  0  0  0  0
    8.2515  -17.1030   24.5036 O   0  0  0  0  0  0  0  0  0  0  0  0
    8.3081  -13.4418   20.8706 C   0  0  0  0  0  0  0  0  0  0  0  0
    8.0383  -14.9294   20.9207 C   0  0  2  0  0  0  0  0  0  0  0  0
    6.5838  -15.2428   20.6522 C   0  0  0  0  0  0  0  0  0  0  0  0
    8.5850  -15.6337   22.1038 C   0  0  2  0  0  0  0  0  0  0  0  0
    7.7236  -15.2742   23.2364 N   0  0  0  0  0  0  0  0  0  0  0  0
    9.9940  -15.4738   22.4110 C   0  0  0  0  0  0  0  0  0  0  0  0
   10.2903  -14.6934   23.3831 O   0  0  0  0  0  0  0  0  0  0  0  0
   11.0904  -16.0722   21.7724 N   0  0  0  0  0  0  0  0  0  0  0  0
   12.4023  -16.2732   22.4271 C   0  0  1  0  0  0  0  0  0  0  0  0
   12.1516  -17.3572   23.4375 C   0  0  0  0  0  0  0  0  0  0  0  0
   13.3156  -17.7811   24.2043 C   0  0  0  0  0  0  0  0  0  0  0  0
   14.4115  -17.1866   23.9296 O   0  0  0  0  0  0  0  0  0  0  0  0
   13.3523  -16.8358   21.3998 C   0  0  0  0  0  0  0  0  0  0  0  0
   13.0955  -18.0537   20.7856 O   0  0  0  0  0  0  0  0  0  0  0  0
   13.3784  -18.7424   25.1851 O   0  0  0  0  0  0  0  0  0  0  0  0
   14.3923  -16.2273   21.0721 O   0  0  0  0  0  0  0  0  0  0  0  0
  2  1  1  0
  3  2  1  0
  4  3  1  0
  5  4  1  0
  5  7  1  0
  5  6  1  1
  7 13  1  0
  8  7  2  0
 10  9  1  1
 10 12  1  0
 10 11  1  0
 12 14  1  0
 12 13  1  1
 14 15  2  0
 16 14  1  0
 16 17  1  0
 17 21  1  0
 17 18  1  1
 19 18  1  0
 20 19  2  0
 21 24  2  0
 21 22  1  0
 23 19  1  0
M  END
$$$$
