MVD.pdb
     RDKit          3D

 24 23  0  0  1  0  0  0  0  0999 V2000
    6.0234  -20.4570   24.9046 C   0  0  0  0  0  0  0  0  0  0  0  0
    5.2242  -20.4991   23.2732 S   0  0  0  0  0  0  0  0  0  0  0  0
    5.2393  -18.8178   22.6057 C   0  0  0  0  0  0  0  0  0  0  0  0
    6.2385  -17.9350   23.3214 C   0  0  0  0  0  0  0  0  0  0  0  0
    5.9911  -16.5104   22.8913 C   0  0  2  0  0  0  0  0  0  0  0  0
    6.2249  -16.4619   21.4501 N   0  0  0  0  0  0  0  0  0  0  0  0
    6.9269  -15.5739   23.5823 C   0  0  0  0  0  0  0  0  0  0  0  0
    8.0795  -15.4248   23.1148 O   0  0  0  0  0  0  0  0  0  0  0  0
    5.8044  -12.3406   25.8668 C   0  0  0  0  0  0  0  0  0  0  0  0
    6.7203  -13.3412   26.5362 C   0  0  2  0  0  0  0  0  0  0  0  0
    7.5391  -12.7016   27.6346 C   0  0  0  0  0  0  0  0  0  0  0  0
    7.5214  -14.1823   25.6166 C   0  0  2  0  0  0  0  0  0  0  0  0
    6.5651  -14.8574   24.7314 N   0  0  0  0  0  0  0  0  0  0  0  0
    8.4867  -15.1022   26.1885 C   0  0  0  0  0  0  0  0  0  0  0  0
    8.0227  -16.1676   26.7284 O   0  0  0  0  0  0  0  0  0  0  0  0
    9.8833  -14.9748   26.2270 N   0  0  0  0  0  0  0  0  0  0  0  0
   10.7877  -16.0662   26.6522 C   0  0  1  0  0  0  0  0  0  0  0  0
   12.1088  -15.7204   26.0248 C   0  0  0  0  0  0  0  0  0  0  0  0
   13.1951  -16.6525   26.2960 C   0  0  0  0  0  0  0  0  0  0  0  0
   13.3480  -16.9912   27.5175 O   0  0  0  0  0  0  0  0  0  0  0  0
   10.9666  -15.9652   28.1463 C   0  0  0  0  0  0  0  0  0  0  0  0
   10.4110  -14.9118   28.8591 O   0  0  0  0  0  0  0  0  0  0  0  0
   14.0751  -17.2104   25.3991 O   0  0  0  0  0  0  0  0  0  0  0  0
   11.6155  -16.8204   28.7840 O   0  0  0  0  0  0  0  0  0  0  0  0
  2  1  1  0
  3  2  1  0
  4  3  1  0
  5  4  1  0
  5  7  1  0
  5  6  1  6
  7 13  1  0
  8  7  2  0
 10  9  1  6
 10 12  1  0
 10 11  1  0
 12 14  1  0
 12 13  1  1
 14 15  2  0
 16 14  1  0
 16 17  1  0
 17 21  1  0
 17 18  1  6
 19 18  1  0
 20 19  2  0
 21 24  2  0
 21 22  1  0
 23 19  1  0
M  END
$$$$
