MVD.pdb
     RDKit          3D

 24 23  0  0  1  0  0  0  0  0999 V2000
    6.5100  -11.2118   26.7914 C   0  0  0  0  0  0  0  0  0  0  0  0
    6.9121  -12.4695   28.0397 S   0  0  0  0  0  0  0  0  0  0  0  0
    6.3955  -14.0776   27.3921 C   0  0  0  0  0  0  0  0  0  0  0  0
    7.3802  -14.6214   26.3798 C   0  0  0  0  0  0  0  0  0  0  0  0
    6.6410  -15.5842   25.4840 C   0  0  2  0  0  0  0  0  0  0  0  0
    6.3292  -16.7569   26.2973 N   0  0  0  0  0  0  0  0  0  0  0  0
    7.4878  -15.9906   24.3229 C   0  0  0  0  0  0  0  0  0  0  0  0
    8.0666  -17.1010   24.3627 O   0  0  0  0  0  0  0  0  0  0  0  0
    6.6829  -14.4349   20.6355 C   0  0  0  0  0  0  0  0  0  0  0  0
    8.1531  -14.5692   20.9651 C   0  0  2  0  0  0  0  0  0  0  0  0
    8.9920  -14.7383   19.7187 C   0  0  0  0  0  0  0  0  0  0  0  0
    8.4776  -15.5450   22.0316 C   0  0  2  0  0  0  0  0  0  0  0  0
    7.6589  -15.1787   23.1933 N   0  0  0  0  0  0  0  0  0  0  0  0
    9.8714  -15.7457   22.3813 C   0  0  0  0  0  0  0  0  0  0  0  0
   10.4689  -14.7729   22.9630 O   0  0  0  0  0  0  0  0  0  0  0  0
   10.6613  -16.8842   22.1624 N   0  0  0  0  0  0  0  0  0  0  0  0
   12.0863  -16.9722   22.5518 C   0  0  1  0  0  0  0  0  0  0  0  0
   12.3510  -18.4472   22.6641 C   0  0  0  0  0  0  0  0  0  0  0  0
   11.9195  -19.0689   23.9090 C   0  0  0  0  0  0  0  0  0  0  0  0
   11.8279  -18.2921   24.9182 O   0  0  0  0  0  0  0  0  0  0  0  0
   12.9146  -16.4595   21.4005 C   0  0  0  0  0  0  0  0  0  0  0  0
   12.4882  -16.6230   20.0898 O   0  0  0  0  0  0  0  0  0  0  0  0
   11.6005  -20.3877   24.1301 O   0  0  0  0  0  0  0  0  0  0  0  0
   14.0021  -15.8759   21.5894 O   0  0  0  0  0  0  0  0  0  0  0  0
  2  1  1  0
  3  2  1  0
  4  3  1  0
  5  4  1  0
  5  7  1  0
  5  6  1  1
  7 13  1  0
  8  7  2  0
 10  9  1  6
 10 12  1  0
 10 11  1  0
 12 14  1  0
 12 13  1  1
 14 15  2  0
 16 14  1  0
 16 17  1  0
 17 21  1  0
 17 18  1  6
 19 18  1  0
 20 19  2  0
 21 24  2  0
 21 22  1  0
 23 19  1  0
M  END
$$$$
