MVD.pdb
     RDKit          3D

 24 23  0  0  1  0  0  0  0  0999 V2000
    5.4156  -12.1013   27.3862 C   0  0  0  0  0  0  0  0  0  0  0  0
    6.5018  -12.6352   26.0307 S   0  0  0  0  0  0  0  0  0  0  0  0
    7.9158  -13.4958   26.7604 C   0  0  0  0  0  0  0  0  0  0  0  0
    7.6651  -14.9822   26.8932 C   0  0  0  0  0  0  0  0  0  0  0  0
    6.7530  -15.4017   25.7671 C   0  0  2  0  0  0  0  0  0  0  0  0
    5.9171  -16.4815   26.2860 N   0  0  0  0  0  0  0  0  0  0  0  0
    7.5403  -15.8953   24.5980 C   0  0  0  0  0  0  0  0  0  0  0  0
    8.0926  -17.0169   24.6779 O   0  0  0  0  0  0  0  0  0  0  0  0
    8.2581  -13.3664   21.0856 C   0  0  0  0  0  0  0  0  0  0  0  0
    7.9223  -14.8413   21.0884 C   0  0  2  0  0  0  0  0  0  0  0  0
    6.4544  -15.0807   20.8164 C   0  0  0  0  0  0  0  0  0  0  0  0
    8.4407  -15.6078   22.2453 C   0  0  2  0  0  0  0  0  0  0  0  0
    7.6843  -15.1529   23.4179 N   0  0  0  0  0  0  0  0  0  0  0  0
    9.8721  -15.6147   22.4820 C   0  0  0  0  0  0  0  0  0  0  0  0
   10.2907  -14.9937   23.5217 O   0  0  0  0  0  0  0  0  0  0  0  0
   10.8723  -16.2227   21.7087 N   0  0  0  0  0  0  0  0  0  0  0  0
   12.1548  -16.7026   22.2699 C   0  0  1  0  0  0  0  0  0  0  0  0
   11.7824  -17.9309   23.0517 C   0  0  0  0  0  0  0  0  0  0  0  0
   12.2338  -17.9535   24.4367 C   0  0  0  0  0  0  0  0  0  0  0  0
   12.9195  -16.9458   24.8167 O   0  0  0  0  0  0  0  0  0  0  0  0
   13.0236  -17.1537   21.1227 C   0  0  0  0  0  0  0  0  0  0  0  0
   14.3963  -16.9497   21.1475 O   0  0  0  0  0  0  0  0  0  0  0  0
   12.0128  -18.9261   25.3829 O   0  0  0  0  0  0  0  0  0  0  0  0
   12.5382  -17.7209   20.1219 O   0  0  0  0  0  0  0  0  0  0  0  0
  2  1  1  0
  3  2  1  0
  4  3  1  0
  5  4  1  0
  5  7  1  0
  5  6  1  1
  7 13  1  0
  8  7  2  0
 10  9  1  1
 10 12  1  0
 10 11  1  0
 12 14  1  0
 12 13  1  1
 14 15  2  0
 16 14  1  0
 16 17  1  0
 17 21  1  0
 17 18  1  1
 19 18  1  0
 20 19  2  0
 21 24  2  0
 21 22  1  0
 23 19  1  0
M  END
$$$$
