MVD.pdb
     RDKit          3D

 24 23  0  0  1  0  0  0  0  0999 V2000
    7.7756  -11.6253   19.2387 C   0  0  0  0  0  0  0  0  0  0  0  0
    7.2628  -13.1623   18.4159 S   0  0  0  0  0  0  0  0  0  0  0  0
    7.2474  -14.4770   19.6584 C   0  0  0  0  0  0  0  0  0  0  0  0
    7.9812  -14.0719   20.9183 C   0  0  0  0  0  0  0  0  0  0  0  0
    7.9377  -15.2369   21.8759 C   0  0  2  0  0  0  0  0  0  0  0  0
    6.5285  -15.5744   22.0601 N   0  0  0  0  0  0  0  0  0  0  0  0
    8.5410  -14.8692   23.1916 C   0  0  0  0  0  0  0  0  0  0  0  0
    9.7672  -14.6172   23.2393 O   0  0  0  0  0  0  0  0  0  0  0  0
    6.7134  -12.4989   25.5619 C   0  0  0  0  0  0  0  0  0  0  0  0
    7.3018  -13.6340   26.3705 C   0  0  2  0  0  0  0  0  0  0  0  0
    7.7075  -13.1821   27.7550 C   0  0  0  0  0  0  0  0  0  0  0  0
    8.3433  -14.4307   25.6810 C   0  0  2  0  0  0  0  0  0  0  0  0
    7.7888  -14.7957   24.3721 N   0  0  0  0  0  0  0  0  0  0  0  0
    8.9116  -15.5706   26.3757 C   0  0  0  0  0  0  0  0  0  0  0  0
    8.1043  -16.5087   26.7075 O   0  0  0  0  0  0  0  0  0  0  0  0
   10.2508  -15.7824   26.7362 N   0  0  0  0  0  0  0  0  0  0  0  0
   10.7269  -17.0111   27.4098 C   0  0  1  0  0  0  0  0  0  0  0  0
   12.1959  -17.0617   27.0967 C   0  0  0  0  0  0  0  0  0  0  0  0
   12.5388  -16.9831   25.6829 C   0  0  0  0  0  0  0  0  0  0  0  0
   11.8916  -17.7640   24.9074 O   0  0  0  0  0  0  0  0  0  0  0  0
   10.5976  -16.8043   28.8980 C   0  0  0  0  0  0  0  0  0  0  0  0
   10.7251  -17.8703   29.7776 O   0  0  0  0  0  0  0  0  0  0  0  0
   13.4735  -16.1730   25.0827 O   0  0  0  0  0  0  0  0  0  0  0  0
   10.3736  -15.6751   29.3818 O   0  0  0  0  0  0  0  0  0  0  0  0
  2  1  1  0
  3  2  1  0
  4  3  1  0
  5  4  1  0
  5  7  1  0
  5  6  1  1
  7 13  1  0
  8  7  2  0
 10  9  1  6
 10 12  1  0
 10 11  1  0
 12 14  1  0
 12 13  1  6
 14 15  2  0
 16 14  1  0
 16 17  1  0
 17 21  1  0
 17 18  1  1
 19 18  1  0
 20 19  2  0
 21 24  2  0
 21 22  1  0
 23 19  1  0
M  END
$$$$
