MVD.pdb
     RDKit          3D

 24 23  0  0  1  0  0  0  0  0999 V2000
    8.4863  -11.8468   19.1726 C   0  0  0  0  0  0  0  0  0  0  0  0
    6.9584  -12.7865   18.8822 S   0  0  0  0  0  0  0  0  0  0  0  0
    7.2631  -14.5026   19.3665 C   0  0  0  0  0  0  0  0  0  0  0  0
    8.3193  -14.6058   20.4453 C   0  0  0  0  0  0  0  0  0  0  0  0
    7.6895  -15.2589   21.6507 C   0  0  2  0  0  0  0  0  0  0  0  0
    6.2536  -15.0062   21.5608 N   0  0  0  0  0  0  0  0  0  0  0  0
    8.2233  -14.6718   22.9159 C   0  0  0  0  0  0  0  0  0  0  0  0
    9.2692  -13.9842   22.8631 O   0  0  0  0  0  0  0  0  0  0  0  0
    6.7554  -12.5605   25.4874 C   0  0  0  0  0  0  0  0  0  0  0  0
    7.3091  -13.7588   26.2262 C   0  0  2  0  0  0  0  0  0  0  0  0
    7.8322  -13.3797   27.5931 C   0  0  0  0  0  0  0  0  0  0  0  0
    8.2448  -14.6057   25.4504 C   0  0  2  0  0  0  0  0  0  0  0  0
    7.5998  -14.8605   24.1569 N   0  0  0  0  0  0  0  0  0  0  0  0
    8.7458  -15.8208   26.0648 C   0  0  0  0  0  0  0  0  0  0  0  0
    7.8747  -16.6819   26.4410 O   0  0  0  0  0  0  0  0  0  0  0  0
   10.0806  -16.1808   26.3036 N   0  0  0  0  0  0  0  0  0  0  0  0
   10.4777  -17.4624   26.9280 C   0  0  1  0  0  0  0  0  0  0  0  0
   11.8993  -17.6671   26.4856 C   0  0  0  0  0  0  0  0  0  0  0  0
   12.5845  -18.8052   27.0837 C   0  0  0  0  0  0  0  0  0  0  0  0
   13.7628  -18.5805   27.5207 O   0  0  0  0  0  0  0  0  0  0  0  0
   10.5030  -17.2623   28.4226 C   0  0  0  0  0  0  0  0  0  0  0  0
   10.4765  -15.9870   28.9696 O   0  0  0  0  0  0  0  0  0  0  0  0
   12.1187  -20.0900   27.2337 O   0  0  0  0  0  0  0  0  0  0  0  0
   10.5481  -18.2313   29.2089 O   0  0  0  0  0  0  0  0  0  0  0  0
  2  1  1  0
  3  2  1  0
  4  3  1  0
  5  4  1  0
  5  7  1  0
  5  6  1  6
  7 13  1  0
  8  7  2  0
 10  9  1  6
 10 12  1  0
 10 11  1  0
 12 14  1  0
 12 13  1  6
 14 15  2  0
 16 14  1  0
 16 17  1  0
 17 21  1  0
 17 18  1  6
 19 18  1  0
 20 19  2  0
 21 24  2  0
 21 22  1  0
 23 19  1  0
M  END
$$$$
