MVD.pdb
     RDKit          3D

 24 23  0  0  1  0  0  0  0  0999 V2000
    7.9361  -11.6341   19.3455 C   0  0  0  0  0  0  0  0  0  0  0  0
    7.3250  -13.1090   18.4777 S   0  0  0  0  0  0  0  0  0  0  0  0
    7.2421  -14.4618   19.6757 C   0  0  0  0  0  0  0  0  0  0  0  0
    8.1295  -14.2091   20.8751 C   0  0  0  0  0  0  0  0  0  0  0  0
    8.0002  -15.3897   21.8054 C   0  0  2  0  0  0  0  0  0  0  0  0
    6.5722  -15.6722   21.9266 N   0  0  0  0  0  0  0  0  0  0  0  0
    8.5643  -15.0731   23.1514 C   0  0  0  0  0  0  0  0  0  0  0  0
    9.7975  -14.8775   23.2536 O   0  0  0  0  0  0  0  0  0  0  0  0
    6.6660  -12.6764   25.4093 C   0  0  0  0  0  0  0  0  0  0  0  0
    7.2209  -13.7932   26.2655 C   0  0  2  0  0  0  0  0  0  0  0  0
    7.5907  -13.3064   27.6482 C   0  0  0  0  0  0  0  0  0  0  0  0
    8.2746  -14.6172   25.6287 C   0  0  2  0  0  0  0  0  0  0  0  0
    7.7680  -14.9868   24.3017 N   0  0  0  0  0  0  0  0  0  0  0  0
    8.7915  -15.7596   26.3586 C   0  0  0  0  0  0  0  0  0  0  0  0
    7.9758  -16.7222   26.5820 O   0  0  0  0  0  0  0  0  0  0  0  0
   10.0884  -15.9500   26.8586 N   0  0  0  0  0  0  0  0  0  0  0  0
   10.5210  -17.1868   27.5465 C   0  0  1  0  0  0  0  0  0  0  0  0
   11.9305  -17.4030   27.0718 C   0  0  0  0  0  0  0  0  0  0  0  0
   12.2160  -18.7279   26.5374 C   0  0  0  0  0  0  0  0  0  0  0  0
   13.2568  -19.3042   27.0008 O   0  0  0  0  0  0  0  0  0  0  0  0
   10.5908  -16.8957   29.0246 C   0  0  0  0  0  0  0  0  0  0  0  0
   10.5356  -15.5913   29.4956 O   0  0  0  0  0  0  0  0  0  0  0  0
   11.5036  -19.4321   25.5959 O   0  0  0  0  0  0  0  0  0  0  0  0
   10.6996  -17.8130   29.8647 O   0  0  0  0  0  0  0  0  0  0  0  0
  2  1  1  0
  3  2  1  0
  4  3  1  0
  5  4  1  0
  5  7  1  0
  5  6  1  1
  7 13  1  0
  8  7  2  0
 10  9  1  6
 10 12  1  0
 10 11  1  0
 12 14  1  0
 12 13  1  6
 14 15  2  0
 16 14  1  0
 16 17  1  0
 17 21  1  0
 17 18  1  6
 19 18  1  0
 20 19  2  0
 21 24  2  0
 21 22  1  0
 23 19  1  0
M  END
$$$$
