MVD.pdb
     RDKit          3D

 24 23  0  0  1  0  0  0  0  0999 V2000
    6.9041  -19.6364   27.9871 C   0  0  0  0  0  0  0  0  0  0  0  0
    7.2799  -20.5165   26.4423 S   0  0  0  0  0  0  0  0  0  0  0  0
    7.2482  -19.3092   25.0955 C   0  0  0  0  0  0  0  0  0  0  0  0
    5.9630  -18.5105   25.0832 C   0  0  0  0  0  0  0  0  0  0  0  0
    6.0238  -17.5509   23.9207 C   0  0  2  0  0  0  0  0  0  0  0  0
    6.4438  -18.3288   22.7578 N   0  0  0  0  0  0  0  0  0  0  0  0
    7.0126  -16.4618   24.1785 C   0  0  0  0  0  0  0  0  0  0  0  0
    8.1788  -16.5951   23.7409 O   0  0  0  0  0  0  0  0  0  0  0  0
    7.7560  -12.0014   26.3428 C   0  0  0  0  0  0  0  0  0  0  0  0
    6.9152  -13.1858   25.9202 C   0  0  2  0  0  0  0  0  0  0  0  0
    5.8703  -13.5280   26.9578 C   0  0  0  0  0  0  0  0  0  0  0  0
    7.6745  -14.3626   25.4369 C   0  0  2  0  0  0  0  0  0  0  0  0
    6.6857  -15.2991   24.8898 N   0  0  0  0  0  0  0  0  0  0  0  0
    8.5989  -15.0087   26.3496 C   0  0  0  0  0  0  0  0  0  0  0  0
    8.1037  -15.8577   27.1717 O   0  0  0  0  0  0  0  0  0  0  0  0
    9.9857  -14.8219   26.4499 N   0  0  0  0  0  0  0  0  0  0  0  0
   10.8426  -15.5815   27.3874 C   0  0  1  0  0  0  0  0  0  0  0  0
   12.2409  -15.3393   26.8929 C   0  0  0  0  0  0  0  0  0  0  0  0
   12.5637  -15.9402   25.6055 C   0  0  0  0  0  0  0  0  0  0  0  0
   11.8072  -16.8982   25.2314 O   0  0  0  0  0  0  0  0  0  0  0  0
   10.7339  -14.9331   28.7447 C   0  0  0  0  0  0  0  0  0  0  0  0
   11.2586  -15.5505   29.8716 O   0  0  0  0  0  0  0  0  0  0  0  0
   13.5824  -15.6031   24.7461 O   0  0  0  0  0  0  0  0  0  0  0  0
   10.1723  -13.8281   28.8957 O   0  0  0  0  0  0  0  0  0  0  0  0
  2  1  1  0
  3  2  1  0
  4  3  1  0
  5  4  1  0
  5  7  1  0
  5  6  1  6
  7 13  1  0
  8  7  2  0
 10  9  1  1
 10 12  1  0
 10 11  1  0
 12 14  1  0
 12 13  1  1
 14 15  2  0
 16 14  1  0
 16 17  1  0
 17 21  1  0
 17 18  1  6
 19 18  1  0
 20 19  2  0
 21 24  2  0
 21 22  1  0
 23 19  1  0
M  END
$$$$
