MVD.pdb
     RDKit          3D

 24 23  0  0  1  0  0  0  0  0999 V2000
    7.5078  -11.4097   19.7304 C   0  0  0  0  0  0  0  0  0  0  0  0
    8.2162  -12.8457   18.8714 S   0  0  0  0  0  0  0  0  0  0  0  0
    8.4016  -14.1783   20.0806 C   0  0  0  0  0  0  0  0  0  0  0  0
    7.1040  -14.4708   20.8021 C   0  0  0  0  0  0  0  0  0  0  0  0
    7.3759  -15.5390   21.8320 C   0  0  2  0  0  0  0  0  0  0  0  0
    6.0787  -16.0914   22.2142 N   0  0  0  0  0  0  0  0  0  0  0  0
    8.0487  -14.9627   23.0343 C   0  0  0  0  0  0  0  0  0  0  0  0
    9.2262  -14.5499   22.9219 O   0  0  0  0  0  0  0  0  0  0  0  0
    6.5028  -12.4235   25.3936 C   0  0  0  0  0  0  0  0  0  0  0  0
    7.0917  -13.5493   26.2146 C   0  0  2  0  0  0  0  0  0  0  0  0
    7.5763  -13.0639   27.5620 C   0  0  0  0  0  0  0  0  0  0  0  0
    8.0735  -14.4040   25.5073 C   0  0  2  0  0  0  0  0  0  0  0  0
    7.4141  -14.8664   24.2803 N   0  0  0  0  0  0  0  0  0  0  0  0
    8.6964  -15.4900   26.2405 C   0  0  0  0  0  0  0  0  0  0  0  0
    7.9141  -16.3571   26.7678 O   0  0  0  0  0  0  0  0  0  0  0  0
   10.0648  -15.7174   26.4498 N   0  0  0  0  0  0  0  0  0  0  0  0
   10.5905  -16.8818   27.1968 C   0  0  1  0  0  0  0  0  0  0  0  0
   12.0035  -17.0308   26.7073 C   0  0  0  0  0  0  0  0  0  0  0  0
   12.1646  -17.0739   25.2600 C   0  0  0  0  0  0  0  0  0  0  0  0
   11.6009  -18.0526   24.6646 O   0  0  0  0  0  0  0  0  0  0  0  0
   10.6640  -16.5032   28.6548 C   0  0  0  0  0  0  0  0  0  0  0  0
   10.4039  -15.2032   29.0656 O   0  0  0  0  0  0  0  0  0  0  0  0
   12.8491  -16.1915   24.4581 O   0  0  0  0  0  0  0  0  0  0  0  0
   10.9591  -17.3418   29.5315 O   0  0  0  0  0  0  0  0  0  0  0  0
  2  1  1  0
  3  2  1  0
  4  3  1  0
  5  4  1  0
  5  7  1  0
  5  6  1  1
  7 13  1  0
  8  7  2  0
 10  9  1  6
 10 12  1  0
 10 11  1  0
 12 14  1  0
 12 13  1  6
 14 15  2  0
 16 14  1  0
 16 17  1  0
 17 21  1  0
 17 18  1  6
 19 18  1  0
 20 19  2  0
 21 24  2  0
 21 22  1  0
 23 19  1  0
M  END
$$$$
