MVD.pdb
     RDKit          3D

 24 23  0  0  1  0  0  0  0  0999 V2000
    7.2587  -11.7010   26.7938 C   0  0  0  0  0  0  0  0  0  0  0  0
    5.7964  -12.7642   26.9770 S   0  0  0  0  0  0  0  0  0  0  0  0
    6.3413  -14.3387   27.6813 C   0  0  0  0  0  0  0  0  0  0  0  0
    7.3175  -15.0556   26.7740 C   0  0  0  0  0  0  0  0  0  0  0  0
    6.5229  -15.7688   25.7082 C   0  0  2  0  0  0  0  0  0  0  0  0
    6.0095  -16.9928   26.3182 N   0  0  0  0  0  0  0  0  0  0  0  0
    7.3868  -16.1153   24.5403 C   0  0  0  0  0  0  0  0  0  0  0  0
    7.9004  -17.2569   24.4925 O   0  0  0  0  0  0  0  0  0  0  0  0
    6.6477  -14.3442   20.9919 C   0  0  0  0  0  0  0  0  0  0  0  0
    8.1207  -14.5068   21.2954 C   0  0  2  0  0  0  0  0  0  0  0  0
    8.9415  -14.6286   20.0316 C   0  0  0  0  0  0  0  0  0  0  0  0
    8.4492  -15.5317   22.3134 C   0  0  2  0  0  0  0  0  0  0  0  0
    7.6439  -15.2136   23.4985 N   0  0  0  0  0  0  0  0  0  0  0  0
    9.8449  -15.7561   22.6401 C   0  0  0  0  0  0  0  0  0  0  0  0
   10.4065  -14.8960   23.4061 O   0  0  0  0  0  0  0  0  0  0  0  0
   10.6717  -16.8089   22.2202 N   0  0  0  0  0  0  0  0  0  0  0  0
   12.0717  -16.9725   22.6708 C   0  0  1  0  0  0  0  0  0  0  0  0
   12.1968  -18.4397   22.9714 C   0  0  0  0  0  0  0  0  0  0  0  0
   12.3067  -18.7835   24.3829 C   0  0  0  0  0  0  0  0  0  0  0  0
   12.4187  -17.8003   25.1896 O   0  0  0  0  0  0  0  0  0  0  0  0
   12.9738  -16.6819   21.4977 C   0  0  0  0  0  0  0  0  0  0  0  0
   14.2910  -16.2906   21.6936 O   0  0  0  0  0  0  0  0  0  0  0  0
   12.3057  -20.0352   24.9514 O   0  0  0  0  0  0  0  0  0  0  0  0
   12.5664  -16.7838   20.3217 O   0  0  0  0  0  0  0  0  0  0  0  0
  2  1  1  0
  3  2  1  0
  4  3  1  0
  5  4  1  0
  5  7  1  0
  5  6  1  1
  7 13  1  0
  8  7  2  0
 10  9  1  6
 10 12  1  0
 10 11  1  0
 12 14  1  0
 12 13  1  1
 14 15  2  0
 16 14  1  0
 16 17  1  0
 17 21  1  0
 17 18  1  6
 19 18  1  0
 20 19  2  0
 21 24  2  0
 21 22  1  0
 23 19  1  0
M  END
$$$$
