MVD.pdb
     RDKit          3D

 24 23  0  0  1  0  0  0  0  0999 V2000
    5.3756  -11.7370   26.2679 C   0  0  0  0  0  0  0  0  0  0  0  0
    7.0042  -11.9326   27.0498 S   0  0  0  0  0  0  0  0  0  0  0  0
    7.1132  -13.6220   27.6873 C   0  0  0  0  0  0  0  0  0  0  0  0
    7.7987  -14.5514   26.7094 C   0  0  0  0  0  0  0  0  0  0  0  0
    6.7472  -15.1050   25.7800 C   0  0  2  0  0  0  0  0  0  0  0  0
    5.9549  -16.0515   26.5612 N   0  0  0  0  0  0  0  0  0  0  0  0
    7.3752  -15.8117   24.6239 C   0  0  0  0  0  0  0  0  0  0  0  0
    7.7145  -17.0093   24.7660 O   0  0  0  0  0  0  0  0  0  0  0  0
    8.5823  -13.6158   20.9929 C   0  0  0  0  0  0  0  0  0  0  0  0
    8.0344  -15.0235   21.0732 C   0  0  2  0  0  0  0  0  0  0  0  0
    6.5591  -15.0684   20.7456 C   0  0  0  0  0  0  0  0  0  0  0  0
    8.3894  -15.7734   22.3005 C   0  0  2  0  0  0  0  0  0  0  0  0
    7.5987  -15.1872   23.3892 N   0  0  0  0  0  0  0  0  0  0  0  0
    9.7923  -15.9036   22.6471 C   0  0  0  0  0  0  0  0  0  0  0  0
   10.3367  -14.9089   23.2438 O   0  0  0  0  0  0  0  0  0  0  0  0
   10.6426  -16.9941   22.4106 N   0  0  0  0  0  0  0  0  0  0  0  0
   12.0474  -17.0450   22.8734 C   0  0  1  0  0  0  0  0  0  0  0  0
   12.2213  -18.4488   23.3809 C   0  0  0  0  0  0  0  0  0  0  0  0
   11.5897  -18.7352   24.6621 C   0  0  0  0  0  0  0  0  0  0  0  0
   11.5461  -17.7659   25.4919 O   0  0  0  0  0  0  0  0  0  0  0  0
   12.9393  -16.8962   21.6664 C   0  0  0  0  0  0  0  0  0  0  0  0
   12.3991  -16.7821   20.3930 O   0  0  0  0  0  0  0  0  0  0  0  0
   11.0366  -19.9201   25.0868 O   0  0  0  0  0  0  0  0  0  0  0  0
   14.1830  -16.8712   21.7746 O   0  0  0  0  0  0  0  0  0  0  0  0
  2  1  1  0
  3  2  1  0
  4  3  1  0
  5  4  1  0
  5  7  1  0
  5  6  1  1
  7 13  1  0
  8  7  2  0
 10  9  1  1
 10 12  1  0
 10 11  1  0
 12 14  1  0
 12 13  1  1
 14 15  2  0
 16 14  1  0
 16 17  1  0
 17 21  1  0
 17 18  1  6
 19 18  1  0
 20 19  2  0
 21 24  2  0
 21 22  1  0
 23 19  1  0
M  END
$$$$
