MVD.pdb
     RDKit          3D

 24 23  0  0  1  0  0  0  0  0999 V2000
    5.7521  -12.6517   27.1732 C   0  0  0  0  0  0  0  0  0  0  0  0
    7.5250  -12.3441   26.9198 S   0  0  0  0  0  0  0  0  0  0  0  0
    8.2216  -13.7841   26.0751 C   0  0  0  0  0  0  0  0  0  0  0  0
    7.5220  -15.0655   26.4733 C   0  0  0  0  0  0  0  0  0  0  0  0
    6.6515  -15.4972   25.3192 C   0  0  2  0  0  0  0  0  0  0  0  0
    5.8936  -16.6584   25.7786 N   0  0  0  0  0  0  0  0  0  0  0  0
    7.4815  -15.8764   24.1370 C   0  0  0  0  0  0  0  0  0  0  0  0
    8.0744  -16.9799   24.1501 O   0  0  0  0  0  0  0  0  0  0  0  0
    8.9282  -13.1848   21.0121 C   0  0  0  0  0  0  0  0  0  0  0  0
    7.9944  -14.3538   20.7888 C   0  0  2  0  0  0  0  0  0  0  0  0
    6.5590  -13.9023   20.6425 C   0  0  0  0  0  0  0  0  0  0  0  0
    8.1634  -15.4886   21.7260 C   0  0  2  0  0  0  0  0  0  0  0  0
    7.6218  -15.0463   23.0164 N   0  0  0  0  0  0  0  0  0  0  0  0
    9.4797  -16.0847   21.8564 C   0  0  0  0  0  0  0  0  0  0  0  0
    9.8519  -16.8782   20.9217 O   0  0  0  0  0  0  0  0  0  0  0  0
   10.4122  -15.9018   22.8885 N   0  0  0  0  0  0  0  0  0  0  0  0
   11.6157  -16.7464   23.0560 C   0  0  1  0  0  0  0  0  0  0  0  0
   12.7641  -15.7829   22.9501 C   0  0  0  0  0  0  0  0  0  0  0  0
   13.4973  -15.8169   21.6916 C   0  0  0  0  0  0  0  0  0  0  0  0
   13.5954  -16.9611   21.1336 O   0  0  0  0  0  0  0  0  0  0  0  0
   11.6146  -17.2816   24.4660 C   0  0  0  0  0  0  0  0  0  0  0  0
   12.5486  -18.2260   24.8686 O   0  0  0  0  0  0  0  0  0  0  0  0
   14.0965  -14.7695   21.0328 O   0  0  0  0  0  0  0  0  0  0  0  0
   10.7791  -16.8942   25.3091 O   0  0  0  0  0  0  0  0  0  0  0  0
  2  1  1  0
  3  2  1  0
  4  3  1  0
  5  4  1  0
  5  7  1  0
  5  6  1  1
  7 13  1  0
  8  7  2  0
 10  9  1  1
 10 12  1  0
 10 11  1  0
 12 14  1  0
 12 13  1  1
 14 15  2  0
 16 14  1  0
 16 17  1  0
 17 21  1  0
 17 18  1  1
 19 18  1  0
 20 19  2  0
 21 24  2  0
 21 22  1  0
 23 19  1  0
M  END
$$$$
