MVD.pdb
     RDKit          3D

 24 23  0  0  1  0  0  0  0  0999 V2000
    9.5580  -13.0297   28.9197 C   0  0  0  0  0  0  0  0  0  0  0  0
   10.2474  -14.6689   29.2936 S   0  0  0  0  0  0  0  0  0  0  0  0
    9.0909  -15.9116   28.6688 C   0  0  0  0  0  0  0  0  0  0  0  0
    9.2605  -16.1446   27.1832 C   0  0  0  0  0  0  0  0  0  0  0  0
    7.9521  -16.6656   26.6425 C   0  0  2  0  0  0  0  0  0  0  0  0
    7.7427  -17.9786   27.2475 N   0  0  0  0  0  0  0  0  0  0  0  0
    8.0048  -16.8015   25.1562 C   0  0  0  0  0  0  0  0  0  0  0  0
    8.3503  -17.9017   24.6669 O   0  0  0  0  0  0  0  0  0  0  0  0
    7.1300  -14.5613   20.7732 C   0  0  0  0  0  0  0  0  0  0  0  0
    7.2372  -14.5866   22.2819 C   0  0  2  0  0  0  0  0  0  0  0  0
    7.7192  -13.2626   22.8301 C   0  0  0  0  0  0  0  0  0  0  0  0
    7.9514  -15.7547   22.8476 C   0  0  2  0  0  0  0  0  0  0  0  0
    7.6831  -15.7472   24.2905 N   0  0  0  0  0  0  0  0  0  0  0  0
    9.3632  -15.9094   22.5508 C   0  0  0  0  0  0  0  0  0  0  0  0
   10.1838  -15.7035   23.5131 O   0  0  0  0  0  0  0  0  0  0  0  0
    9.9551  -16.2610   21.3284 N   0  0  0  0  0  0  0  0  0  0  0  0
   11.4055  -16.5081   21.1688 C   0  0  1  0  0  0  0  0  0  0  0  0
   12.0393  -15.7454   22.2980 C   0  0  0  0  0  0  0  0  0  0  0  0
   13.4946  -15.7931   22.3481 C   0  0  0  0  0  0  0  0  0  0  0  0
   14.0972  -15.6213   21.2357 O   0  0  0  0  0  0  0  0  0  0  0  0
   11.6579  -17.9725   21.4262 C   0  0  0  0  0  0  0  0  0  0  0  0
   11.9451  -18.8389   20.3806 O   0  0  0  0  0  0  0  0  0  0  0  0
   14.2970  -16.0014   23.4447 O   0  0  0  0  0  0  0  0  0  0  0  0
   11.6168  -18.4476   22.5802 O   0  0  0  0  0  0  0  0  0  0  0  0
  2  1  1  0
  3  2  1  0
  4  3  1  0
  5  4  1  0
  5  7  1  0
  5  6  1  1
  7 13  1  0
  8  7  2  0
 10  9  1  6
 10 12  1  0
 10 11  1  0
 12 14  1  0
 12 13  1  1
 14 15  2  0
 16 14  1  0
 16 17  1  0
 17 21  1  0
 17 18  1  1
 19 18  1  0
 20 19  2  0
 21 24  2  0
 21 22  1  0
 23 19  1  0
M  END
$$$$
