QRN.pdb
     RDKit          3D

 29 28  0  0  1  0  0  0  0  0999 V2000
    7.5355  -12.2525   17.5373 N   0  0  0  0  0  0  0  0  0  0  0  0
    6.9833  -13.5624   17.5840 C   0  0  0  0  0  0  0  0  0  0  0  0
    5.8086  -13.7110   17.1845 O   0  0  0  0  0  0  0  0  0  0  0  0
    7.7940  -14.6696   18.0882 C   0  0  0  0  0  0  0  0  0  0  0  0
    9.1688  -14.3099   18.5416 C   0  0  0  0  0  0  0  0  0  0  0  0
    9.9341  -15.4691   19.1509 C   0  0  2  0  0  0  0  0  0  0  0  0
    8.9457  -16.4990   19.4512 N   0  0  0  0  0  0  0  0  0  0  0  0
   10.5806  -15.0811   20.4228 C   0  0  0  0  0  0  0  0  0  0  0  0
   11.3029  -14.0511   20.4878 O   0  0  0  0  0  0  0  0  0  0  0  0
    9.3376  -16.0960   28.9507 N   0  0  0  0  0  0  0  0  0  0  0  0
   10.2782  -15.0634   28.6766 C   0  0  0  0  0  0  0  0  0  0  0  0
   10.4745  -14.1420   29.5722 N   0  0  0  0  0  0  0  0  0  0  0  0
   10.9800  -15.0493   27.4543 N   0  0  0  0  0  0  0  0  0  0  0  0
   10.2484  -15.1693   26.2115 C   0  0  0  0  0  0  0  0  0  0  0  0
   10.9798  -16.1365   25.2941 C   0  0  0  0  0  0  0  0  0  0  0  0
   10.2672  -16.2860   23.9851 C   0  0  0  0  0  0  0  0  0  0  0  0
   11.0207  -15.6430   22.8392 C   0  0  2  0  0  0  0  0  0  0  0  0
   10.3791  -15.8801   21.5721 N   0  0  0  0  0  0  0  0  0  0  0  0
   12.3816  -16.2452   22.7864 C   0  0  0  0  0  0  0  0  0  0  0  0
   12.4756  -17.4988   22.7266 O   0  0  0  0  0  0  0  0  0  0  0  0
   11.1543  -13.3694   29.4020 N   0  0  0  0  0  0  0  0  0  0  0  0
   15.0855  -13.9890   19.9725 C   0  0  0  0  0  0  0  0  0  0  0  0
   15.3001  -15.2544   20.5685 O   0  0  0  0  0  0  0  0  0  0  0  0
   15.0231  -16.2695   19.9103 C   0  0  0  0  0  0  0  0  0  0  0  0
   15.8388  -15.3648   21.9349 C   0  0  2  0  0  0  0  0  0  0  0  0
   14.8413  -16.1126   22.7944 N   0  0  0  0  0  0  0  0  0  0  0  0
   13.5575  -15.4546   22.8017 C   0  0  0  0  0  0  0  0  0  0  0  0
   15.3119  -16.3352   24.1761 O   0  0  0  0  0  0  0  0  0  0  0  0
   14.6365  -16.0204   25.1739 O   0  0  0  0  0  0  0  0  0  0  0  0
  1  2  1  0
  2  3  2  0
  4  2  1  0
  4  5  1  0
  6  8  1  0
  6  5  1  0
  6  7  1  1
  8  9  2  0
 10 11  1  0
 11 12  2  0
 11 13  1  0
 13 14  1  0
 14 15  1  0
 15 16  1  0
 17 16  1  1
 17 19  1  0
 18 17  1  0
 18  8  1  0
 19 20  2  0
 21 22  1  0
 22 24  1  0
 23 22  2  0
 25 24  1  6
 25 27  1  0
 26 19  1  0
 26 25  1  0
 27 28  2  0
 27 29  1  0
M  END
$$$$
