QRN.pdb
     RDKit          3D

 29 28  0  0  1  0  0  0  0  0999 V2000
    9.7211  -13.0954   18.2633 N   0  0  0  0  0  0  0  0  0  0  0  0
    8.6076  -13.5437   17.5003 C   0  0  0  0  0  0  0  0  0  0  0  0
    8.7913  -13.7721   16.2856 O   0  0  0  0  0  0  0  0  0  0  0  0
    7.3104  -13.7189   18.1515 C   0  0  0  0  0  0  0  0  0  0  0  0
    7.2748  -13.4189   19.6123 C   0  0  0  0  0  0  0  0  0  0  0  0
    8.1563  -14.3301   20.4449 C   0  0  2  0  0  0  0  0  0  0  0  0
    8.3562  -15.5397   19.6545 N   0  0  0  0  0  0  0  0  0  0  0  0
    7.4909  -14.7212   21.7061 C   0  0  0  0  0  0  0  0  0  0  0  0
    6.9478  -13.8543   22.4411 O   0  0  0  0  0  0  0  0  0  0  0  0
    8.8409  -19.8980   27.0409 N   0  0  0  0  0  0  0  0  0  0  0  0
    7.5427  -20.4133   27.3154 C   0  0  0  0  0  0  0  0  0  0  0  0
    7.2667  -20.8022   28.5246 N   0  0  0  0  0  0  0  0  0  0  0  0
    6.5803  -20.4953   26.2887 N   0  0  0  0  0  0  0  0  0  0  0  0
    6.9286  -20.0689   24.9504 C   0  0  0  0  0  0  0  0  0  0  0  0
    6.8560  -18.5520   24.8760 C   0  0  0  0  0  0  0  0  0  0  0  0
    7.1566  -18.0620   23.4928 C   0  0  0  0  0  0  0  0  0  0  0  0
    7.0526  -16.5553   23.3771 C   0  0  2  0  0  0  0  0  0  0  0  0
    7.4687  -16.0845   22.0816 N   0  0  0  0  0  0  0  0  0  0  0  0
    7.9527  -15.9510   24.3979 C   0  0  0  0  0  0  0  0  0  0  0  0
    9.1947  -16.0027   24.2013 O   0  0  0  0  0  0  0  0  0  0  0  0
    6.2878  -21.0354   28.7992 N   0  0  0  0  0  0  0  0  0  0  0  0
    5.8879  -12.0391   26.8426 C   0  0  0  0  0  0  0  0  0  0  0  0
    7.1811  -12.5695   26.6217 O   0  0  0  0  0  0  0  0  0  0  0  0
    7.8957  -12.0377   25.7576 C   0  0  0  0  0  0  0  0  0  0  0  0
    7.6675  -13.7233   27.3974 C   0  0  2  0  0  0  0  0  0  0  0  0
    8.3814  -14.6755   26.4612 N   0  0  0  0  0  0  0  0  0  0  0  0
    7.4542  -15.3280   25.5690 C   0  0  0  0  0  0  0  0  0  0  0  0
    9.2077  -15.6767   27.1648 O   0  0  0  0  0  0  0  0  0  0  0  0
   10.4025  -15.4772   27.4539 O   0  0  0  0  0  0  0  0  0  0  0  0
  1  2  1  0
  2  3  2  0
  4  2  1  0
  4  5  1  0
  6  8  1  0
  6  5  1  0
  6  7  1  6
  8  9  2  0
 10 11  1  0
 11 12  2  0
 11 13  1  0
 13 14  1  0
 14 15  1  0
 15 16  1  0
 17 16  1  6
 17 19  1  0
 18 17  1  0
 18  8  1  0
 19 20  2  0
 21 22  1  0
 22 24  1  0
 23 22  2  0
 25 24  1  6
 25 27  1  0
 26 19  1  0
 26 25  1  0
 27 28  2  0
 27 29  1  0
M  END
$$$$
