QRN.pdb
     RDKit          3D

 29 28  0  0  1  0  0  0  0  0999 V2000
   17.4728  -14.6578   14.7030 N   0  0  0  0  0  0  0  0  0  0  0  0
   17.7842  -15.5851   15.7355 C   0  0  0  0  0  0  0  0  0  0  0  0
   18.3814  -16.6340   15.4121 O   0  0  0  0  0  0  0  0  0  0  0  0
   17.4022  -15.2846   17.1144 C   0  0  0  0  0  0  0  0  0  0  0  0
   16.0649  -15.7906   17.5395 C   0  0  0  0  0  0  0  0  0  0  0  0
   14.9478  -14.7779   17.3749 C   0  0  2  0  0  0  0  0  0  0  0  0
   15.5853  -13.5260   16.9820 N   0  0  0  0  0  0  0  0  0  0  0  0
   14.2401  -14.5414   18.6514 C   0  0  0  0  0  0  0  0  0  0  0  0
   14.7895  -13.8896   19.5788 O   0  0  0  0  0  0  0  0  0  0  0  0
    6.8701  -12.5564   20.7732 N   0  0  0  0  0  0  0  0  0  0  0  0
    7.4181  -13.0067   19.5391 C   0  0  0  0  0  0  0  0  0  0  0  0
    7.2883  -12.2561   18.4859 N   0  0  0  0  0  0  0  0  0  0  0  0
    8.0887  -14.2446   19.4704 N   0  0  0  0  0  0  0  0  0  0  0  0
    8.3611  -14.9757   20.6892 C   0  0  0  0  0  0  0  0  0  0  0  0
    9.8473  -14.8915   20.9992 C   0  0  0  0  0  0  0  0  0  0  0  0
   10.6700  -15.0532   19.7579 C   0  0  0  0  0  0  0  0  0  0  0  0
   12.1522  -14.8832   20.0196 C   0  0  2  0  0  0  0  0  0  0  0  0
   12.9338  -15.0554   18.8227 N   0  0  0  0  0  0  0  0  0  0  0  0
   12.5706  -15.9255   20.9972 C   0  0  0  0  0  0  0  0  0  0  0  0
   12.4734  -17.1333   20.6572 O   0  0  0  0  0  0  0  0  0  0  0  0
    7.6769  -12.5568   17.5658 N   0  0  0  0  0  0  0  0  0  0  0  0
   16.6128  -14.9932   22.4867 C   0  0  0  0  0  0  0  0  0  0  0  0
   15.8267  -16.1666   22.5736 O   0  0  0  0  0  0  0  0  0  0  0  0
   15.9381  -17.0175   21.6771 C   0  0  0  0  0  0  0  0  0  0  0  0
   14.8998  -16.3738   23.6995 C   0  0  2  0  0  0  0  0  0  0  0  0
   13.5186  -16.6600   23.1489 N   0  0  0  0  0  0  0  0  0  0  0  0
   13.0683  -15.5976   22.2829 C   0  0  0  0  0  0  0  0  0  0  0  0
   12.5150  -16.9266   24.1986 O   0  0  0  0  0  0  0  0  0  0  0  0
   12.6930  -17.7684   25.0990 O   0  0  0  0  0  0  0  0  0  0  0  0
  1  2  1  0
  2  3  2  0
  4  2  1  0
  4  5  1  0
  6  8  1  0
  6  5  1  0
  6  7  1  1
  8  9  2  0
 10 11  1  0
 11 12  2  0
 11 13  1  0
 13 14  1  0
 14 15  1  0
 15 16  1  0
 17 16  1  6
 17 19  1  0
 18 17  1  0
 18  8  1  0
 19 20  2  0
 21 22  1  0
 22 24  1  0
 23 22  2  0
 25 24  1  6
 25 27  1  0
 26 19  1  0
 26 25  1  0
 27 28  2  0
 27 29  1  0
M  END
$$$$
