QRN.pdb
     RDKit          3D

 29 28  0  0  1  0  0  0  0  0999 V2000
   18.9504  -15.6876   16.5373 N   0  0  0  0  0  0  0  0  0  0  0  0
   18.3341  -14.6865   15.7367 C   0  0  0  0  0  0  0  0  0  0  0  0
   18.2892  -14.8773   14.5025 O   0  0  0  0  0  0  0  0  0  0  0  0
   17.7841  -13.4908   16.3734 C   0  0  0  0  0  0  0  0  0  0  0  0
   16.8992  -13.7339   17.5494 C   0  0  0  0  0  0  0  0  0  0  0  0
   15.4239  -13.7934   17.2020 C   0  0  2  0  0  0  0  0  0  0  0  0
   15.0651  -12.4668   16.7128 N   0  0  0  0  0  0  0  0  0  0  0  0
   14.5981  -14.0712   18.3965 C   0  0  0  0  0  0  0  0  0  0  0  0
   14.5275  -13.2359   19.3367 O   0  0  0  0  0  0  0  0  0  0  0  0
   10.0236  -19.9576   23.1823 N   0  0  0  0  0  0  0  0  0  0  0  0
    9.7495  -19.9087   21.7863 C   0  0  0  0  0  0  0  0  0  0  0  0
    9.7416  -21.0193   21.1110 N   0  0  0  0  0  0  0  0  0  0  0  0
    9.4912  -18.6742   21.1570 N   0  0  0  0  0  0  0  0  0  0  0  0
   10.2666  -18.2900   19.9972 C   0  0  0  0  0  0  0  0  0  0  0  0
   11.3017  -17.2556   20.4102 C   0  0  0  0  0  0  0  0  0  0  0  0
   12.0986  -16.7856   19.2322 C   0  0  0  0  0  0  0  0  0  0  0  0
   13.0525  -15.6645   19.5888 C   0  0  2  0  0  0  0  0  0  0  0  0
   13.8835  -15.2891   18.4743 N   0  0  0  0  0  0  0  0  0  0  0  0
   13.9398  -16.1445   20.6840 C   0  0  0  0  0  0  0  0  0  0  0  0
   14.4416  -17.2942   20.5825 O   0  0  0  0  0  0  0  0  0  0  0  0
    9.6474  -21.0109   20.0721 N   0  0  0  0  0  0  0  0  0  0  0  0
   15.5305  -17.0635   25.3523 C   0  0  0  0  0  0  0  0  0  0  0  0
   14.4743  -17.7182   24.6752 O   0  0  0  0  0  0  0  0  0  0  0  0
   13.9969  -18.7452   25.1828 C   0  0  0  0  0  0  0  0  0  0  0  0
   13.9541  -17.1946   23.4006 C   0  0  2  0  0  0  0  0  0  0  0  0
   14.7756  -15.9887   22.9960 N   0  0  0  0  0  0  0  0  0  0  0  0
   14.2299  -15.3517   21.8222 C   0  0  0  0  0  0  0  0  0  0  0  0
   16.2056  -16.2968   22.7948 O   0  0  0  0  0  0  0  0  0  0  0  0
   17.0647  -16.0997   23.6746 O   0  0  0  0  0  0  0  0  0  0  0  0
  1  2  1  0
  2  3  2  0
  4  2  1  0
  4  5  1  0
  6  8  1  0
  6  5  1  0
  6  7  1  1
  8  9  2  0
 10 11  1  0
 11 12  2  0
 11 13  1  0
 13 14  1  0
 14 15  1  0
 15 16  1  0
 17 16  1  6
 17 19  1  0
 18 17  1  0
 18  8  1  0
 19 20  2  0
 21 22  1  0
 22 24  1  0
 23 22  2  0
 25 24  1  1
 25 27  1  0
 26 19  1  0
 26 25  1  0
 27 28  2  0
 27 29  1  0
M  END
$$$$
