QRN.pdb
     RDKit          3D

 29 28  0  0  1  0  0  0  0  0999 V2000
   12.3807  -16.6963   14.8393 N   0  0  0  0  0  0  0  0  0  0  0  0
   10.9873  -16.8912   15.0476 C   0  0  0  0  0  0  0  0  0  0  0  0
   10.2284  -16.7468   14.0653 O   0  0  0  0  0  0  0  0  0  0  0  0
   10.4997  -17.2474   16.3791 C   0  0  0  0  0  0  0  0  0  0  0  0
   11.5308  -17.2846   17.4564 C   0  0  0  0  0  0  0  0  0  0  0  0
   11.2338  -18.2907   18.5519 C   0  0  2  0  0  0  0  0  0  0  0  0
    9.9482  -18.8929   18.2166 N   0  0  0  0  0  0  0  0  0  0  0  0
   11.0925  -17.6312   19.8677 C   0  0  0  0  0  0  0  0  0  0  0  0
   12.0538  -16.9922   20.3721 O   0  0  0  0  0  0  0  0  0  0  0  0
    8.5951  -13.2086   18.3043 N   0  0  0  0  0  0  0  0  0  0  0  0
    8.6234  -12.6431   19.6103 C   0  0  0  0  0  0  0  0  0  0  0  0
    9.0395  -11.4200   19.7535 N   0  0  0  0  0  0  0  0  0  0  0  0
    8.2049  -13.4026   20.7215 N   0  0  0  0  0  0  0  0  0  0  0  0
    8.5108  -14.8160   20.7741 C   0  0  0  0  0  0  0  0  0  0  0  0
    7.9161  -15.4076   22.0423 C   0  0  0  0  0  0  0  0  0  0  0  0
    8.1885  -16.8777   22.1342 C   0  0  0  0  0  0  0  0  0  0  0  0
    9.6447  -17.2130   21.8870 C   0  0  2  0  0  0  0  0  0  0  0  0
    9.8619  -17.7237   20.5583 N   0  0  0  0  0  0  0  0  0  0  0  0
   10.0464  -18.2684   22.8576 C   0  0  0  0  0  0  0  0  0  0  0  0
    9.3279  -19.2976   22.9486 O   0  0  0  0  0  0  0  0  0  0  0  0
    9.0805  -10.9779   20.6974 N   0  0  0  0  0  0  0  0  0  0  0  0
   14.6432  -18.3225   25.1996 C   0  0  0  0  0  0  0  0  0  0  0  0
   13.8786  -18.7340   24.0822 O   0  0  0  0  0  0  0  0  0  0  0  0
   14.0585  -18.1537   23.0000 C   0  0  0  0  0  0  0  0  0  0  0  0
   12.8944  -19.8236   24.1995 C   0  0  1  0  0  0  0  0  0  0  0  0
   11.5483  -19.2296   24.5572 N   0  0  0  0  0  0  0  0  0  0  0  0
   11.2006  -18.1458   23.6706 C   0  0  0  0  0  0  0  0  0  0  0  0
   11.4586  -18.7907   25.9641 O   0  0  0  0  0  0  0  0  0  0  0  0
   11.7446  -19.5367   26.9193 O   0  0  0  0  0  0  0  0  0  0  0  0
  1  2  1  0
  2  3  2  0
  4  2  1  0
  4  5  1  0
  6  8  1  0
  6  5  1  0
  6  7  1  6
  8  9  2  0
 10 11  1  0
 11 12  2  0
 11 13  1  0
 13 14  1  0
 14 15  1  0
 15 16  1  0
 17 16  1  6
 17 19  1  0
 18 17  1  0
 18  8  1  0
 19 20  2  0
 21 22  1  0
 22 24  1  0
 23 22  2  0
 25 24  1  6
 25 27  1  0
 26 19  1  0
 26 25  1  0
 27 28  2  0
 27 29  1  0
M  END
$$$$
