QRN.pdb
     RDKit          3D

 29 28  0  0  1  0  0  0  0  0999 V2000
   16.5662  -12.6110   16.9299 N   0  0  0  0  0  0  0  0  0  0  0  0
   16.7691  -13.4882   18.0310 C   0  0  0  0  0  0  0  0  0  0  0  0
   17.9028  -13.5067   18.5564 O   0  0  0  0  0  0  0  0  0  0  0  0
   15.6646  -14.3223   18.5020 C   0  0  0  0  0  0  0  0  0  0  0  0
   14.4511  -14.3380   17.6347 C   0  0  0  0  0  0  0  0  0  0  0  0
   13.3105  -15.1665   18.1945 C   0  0  2  0  0  0  0  0  0  0  0  0
   12.2621  -15.1573   17.1803 N   0  0  0  0  0  0  0  0  0  0  0  0
   12.7540  -14.5600   19.4228 C   0  0  0  0  0  0  0  0  0  0  0  0
   13.4883  -14.3492   20.4243 O   0  0  0  0  0  0  0  0  0  0  0  0
    9.1341  -15.7163   17.1570 N   0  0  0  0  0  0  0  0  0  0  0  0
    7.8726  -15.2308   16.7109 C   0  0  0  0  0  0  0  0  0  0  0  0
    7.3387  -15.7587   15.6498 N   0  0  0  0  0  0  0  0  0  0  0  0
    7.2212  -14.1974   17.4141 N   0  0  0  0  0  0  0  0  0  0  0  0
    8.0008  -13.2844   18.2221 C   0  0  0  0  0  0  0  0  0  0  0  0
    8.5386  -14.0271   19.4350 C   0  0  0  0  0  0  0  0  0  0  0  0
    9.3582  -13.1238   20.3044 C   0  0  0  0  0  0  0  0  0  0  0  0
   10.7142  -13.7123   20.6349 C   0  0  2  0  0  0  0  0  0  0  0  0
   11.3829  -14.2159   19.4633 N   0  0  0  0  0  0  0  0  0  0  0  0
   10.5070  -14.8506   21.5722 C   0  0  0  0  0  0  0  0  0  0  0  0
    9.7730  -15.8025   21.1993 O   0  0  0  0  0  0  0  0  0  0  0  0
    6.4348  -15.3995   15.2729 N   0  0  0  0  0  0  0  0  0  0  0  0
    8.7345  -18.1979   25.2781 C   0  0  0  0  0  0  0  0  0  0  0  0
    9.5978  -18.0196   24.1711 O   0  0  0  0  0  0  0  0  0  0  0  0
   10.3295  -18.9647   23.8370 C   0  0  0  0  0  0  0  0  0  0  0  0
    9.6274  -16.7451   23.4332 C   0  0  1  0  0  0  0  0  0  0  0  0
   10.9721  -16.0845   23.6529 N   0  0  0  0  0  0  0  0  0  0  0  0
   11.1063  -14.8896   22.8558 C   0  0  0  0  0  0  0  0  0  0  0  0
   12.1138  -16.9904   23.4159 O   0  0  0  0  0  0  0  0  0  0  0  0
   12.3603  -17.4811   22.2982 O   0  0  0  0  0  0  0  0  0  0  0  0
  1  2  1  0
  2  3  2  0
  4  2  1  0
  4  5  1  0
  6  8  1  0
  6  5  1  0
  6  7  1  6
  8  9  2  0
 10 11  1  0
 11 12  2  0
 11 13  1  0
 13 14  1  0
 14 15  1  0
 15 16  1  0
 17 16  1  6
 17 19  1  0
 18 17  1  0
 18  8  1  0
 19 20  2  0
 21 22  1  0
 22 24  1  0
 23 22  2  0
 25 24  1  1
 25 27  1  0
 26 19  1  0
 26 25  1  0
 27 28  2  0
 27 29  1  0
M  END
$$$$
