QRN.pdb
     RDKit          3D

 29 28  0  0  1  0  0  0  0  0999 V2000
   10.5524  -18.2282   15.2945 N   0  0  0  0  0  0  0  0  0  0  0  0
   10.4690  -17.4713   14.0932 C   0  0  0  0  0  0  0  0  0  0  0  0
   10.5056  -18.0952   13.0110 O   0  0  0  0  0  0  0  0  0  0  0  0
   10.3450  -16.0163   14.1643 C   0  0  0  0  0  0  0  0  0  0  0  0
   10.3024  -15.4377   15.5385 C   0  0  0  0  0  0  0  0  0  0  0  0
    8.9381  -15.5235   16.1956 C   0  0  2  0  0  0  0  0  0  0  0  0
    8.1791  -14.3748   15.7137 N   0  0  0  0  0  0  0  0  0  0  0  0
    9.0386  -15.4117   17.6665 C   0  0  0  0  0  0  0  0  0  0  0  0
    8.9973  -14.2853   18.2291 O   0  0  0  0  0  0  0  0  0  0  0  0
    4.3541  -21.1582   20.7499 N   0  0  0  0  0  0  0  0  0  0  0  0
    3.9879  -20.1221   19.8451 C   0  0  0  0  0  0  0  0  0  0  0  0
    2.8096  -20.1574   19.2974 N   0  0  0  0  0  0  0  0  0  0  0  0
    4.8924  -19.0806   19.5555 N   0  0  0  0  0  0  0  0  0  0  0  0
    6.2066  -19.0896   20.1614 C   0  0  0  0  0  0  0  0  0  0  0  0
    6.9446  -17.8193   19.7696 C   0  0  0  0  0  0  0  0  0  0  0  0
    8.3023  -17.7647   20.4000 C   0  0  0  0  0  0  0  0  0  0  0  0
    9.1361  -16.6122   19.8796 C   0  0  2  0  0  0  0  0  0  0  0  0
    9.1813  -16.5866   18.4406 N   0  0  0  0  0  0  0  0  0  0  0  0
   10.5273  -16.7859   20.3812 C   0  0  0  0  0  0  0  0  0  0  0  0
   11.1884  -17.7753   19.9714 O   0  0  0  0  0  0  0  0  0  0  0  0
    2.1294  -20.9087   19.5441 N   0  0  0  0  0  0  0  0  0  0  0  0
   12.9759  -13.7248   19.3988 C   0  0  0  0  0  0  0  0  0  0  0  0
   13.5381  -14.8363   20.0704 O   0  0  0  0  0  0  0  0  0  0  0  0
   14.1652  -15.6727   19.4015 C   0  0  0  0  0  0  0  0  0  0  0  0
   13.3838  -14.9970   21.5264 C   0  0  2  0  0  0  0  0  0  0  0  0
   12.4442  -16.1539   21.7934 N   0  0  0  0  0  0  0  0  0  0  0  0
   11.1183  -15.8789   21.2957 C   0  0  0  0  0  0  0  0  0  0  0  0
   12.3875  -16.5441   23.2163 O   0  0  0  0  0  0  0  0  0  0  0  0
   11.3319  -16.5218   23.8768 O   0  0  0  0  0  0  0  0  0  0  0  0
  1  2  1  0
  2  3  2  0
  4  2  1  0
  4  5  1  0
  6  8  1  0
  6  5  1  0
  6  7  1  6
  8  9  2  0
 10 11  1  0
 11 12  2  0
 11 13  1  0
 13 14  1  0
 14 15  1  0
 15 16  1  0
 17 16  1  6
 17 19  1  0
 18 17  1  0
 18  8  1  0
 19 20  2  0
 21 22  1  0
 22 24  1  0
 23 22  2  0
 25 24  1  6
 25 27  1  0
 26 19  1  0
 26 25  1  0
 27 28  2  0
 27 29  1  0
M  END
$$$$
