QRN.pdb
     RDKit          3D

 29 28  0  0  1  0  0  0  0  0999 V2000
   17.0645  -14.0364   14.9473 N   0  0  0  0  0  0  0  0  0  0  0  0
   16.3240  -13.7686   16.1317 C   0  0  0  0  0  0  0  0  0  0  0  0
   16.6755  -12.7916   16.8270 O   0  0  0  0  0  0  0  0  0  0  0  0
   15.1974  -14.6295   16.4884 C   0  0  0  0  0  0  0  0  0  0  0  0
   15.5396  -16.0495   16.7912 C   0  0  0  0  0  0  0  0  0  0  0  0
   14.3540  -16.8808   17.2429 C   0  0  2  0  0  0  0  0  0  0  0  0
   13.3059  -16.6716   16.2501 N   0  0  0  0  0  0  0  0  0  0  0  0
   13.8360  -16.4189   18.5485 C   0  0  0  0  0  0  0  0  0  0  0  0
   14.6235  -16.1654   19.4984 O   0  0  0  0  0  0  0  0  0  0  0  0
    7.3231  -12.0159   21.0838 N   0  0  0  0  0  0  0  0  0  0  0  0
    7.9927  -12.6035   19.9736 C   0  0  0  0  0  0  0  0  0  0  0  0
    8.7008  -11.8407   19.1949 N   0  0  0  0  0  0  0  0  0  0  0  0
    7.8852  -13.9879   19.7320 N   0  0  0  0  0  0  0  0  0  0  0  0
    8.4416  -14.5443   18.5174 C   0  0  0  0  0  0  0  0  0  0  0  0
    9.9523  -14.6412   18.6602 C   0  0  0  0  0  0  0  0  0  0  0  0
   10.3334  -15.5778   19.7653 C   0  0  0  0  0  0  0  0  0  0  0  0
   11.8343  -15.7214   19.9105 C   0  0  2  0  0  0  0  0  0  0  0  0
   12.4412  -16.2625   18.7222 N   0  0  0  0  0  0  0  0  0  0  0  0
   12.1012  -16.6620   21.0336 C   0  0  0  0  0  0  0  0  0  0  0  0
   11.9097  -17.8905   20.8390 O   0  0  0  0  0  0  0  0  0  0  0  0
    9.2105  -12.2403   18.3772 N   0  0  0  0  0  0  0  0  0  0  0  0
   15.1218  -17.6942   26.1073 C   0  0  0  0  0  0  0  0  0  0  0  0
   14.6224  -18.0042   24.8201 O   0  0  0  0  0  0  0  0  0  0  0  0
   14.4688  -19.1987   24.5203 C   0  0  0  0  0  0  0  0  0  0  0  0
   14.2926  -16.9370   23.8600 C   0  0  2  0  0  0  0  0  0  0  0  0
   12.9103  -17.1950   23.2984 N   0  0  0  0  0  0  0  0  0  0  0  0
   12.5590  -16.2162   22.2984 C   0  0  0  0  0  0  0  0  0  0  0  0
   11.8623  -17.2676   24.3360 O   0  0  0  0  0  0  0  0  0  0  0  0
   11.9270  -18.0518   25.3013 O   0  0  0  0  0  0  0  0  0  0  0  0
  1  2  1  0
  2  3  2  0
  4  2  1  0
  4  5  1  0
  6  8  1  0
  6  5  1  0
  6  7  1  6
  8  9  2  0
 10 11  1  0
 11 12  2  0
 11 13  1  0
 13 14  1  0
 14 15  1  0
 15 16  1  0
 17 16  1  6
 17 19  1  0
 18 17  1  0
 18  8  1  0
 19 20  2  0
 21 22  1  0
 22 24  1  0
 23 22  2  0
 25 24  1  6
 25 27  1  0
 26 19  1  0
 26 25  1  0
 27 28  2  0
 27 29  1  0
M  END
$$$$
