QRN.pdb
     RDKit          3D

 29 28  0  0  1  0  0  0  0  0999 V2000
   14.8917  -18.8001   18.3022 N   0  0  0  0  0  0  0  0  0  0  0  0
   13.6981  -18.6448   17.5445 C   0  0  0  0  0  0  0  0  0  0  0  0
   13.8132  -18.3672   16.3316 O   0  0  0  0  0  0  0  0  0  0  0  0
   12.4013  -18.8127   18.1986 C   0  0  0  0  0  0  0  0  0  0  0  0
   11.5220  -17.6077   18.2090 C   0  0  0  0  0  0  0  0  0  0  0  0
   10.3405  -17.7218   19.1533 C   0  0  2  0  0  0  0  0  0  0  0  0
    9.1893  -17.1873   18.4342 N   0  0  0  0  0  0  0  0  0  0  0  0
   10.5359  -16.8983   20.3657 C   0  0  0  0  0  0  0  0  0  0  0  0
   11.3310  -15.9213   20.3569 O   0  0  0  0  0  0  0  0  0  0  0  0
    6.8281  -20.1066   24.9701 N   0  0  0  0  0  0  0  0  0  0  0  0
    5.8737  -19.8496   23.9457 C   0  0  0  0  0  0  0  0  0  0  0  0
    5.3118  -20.8572   23.3470 N   0  0  0  0  0  0  0  0  0  0  0  0
    5.5495  -18.5235   23.5948 N   0  0  0  0  0  0  0  0  0  0  0  0
    6.4306  -17.4461   23.9911 C   0  0  0  0  0  0  0  0  0  0  0  0
    7.7527  -17.5868   23.2535 C   0  0  0  0  0  0  0  0  0  0  0  0
    8.6697  -16.4430   23.5612 C   0  0  0  0  0  0  0  0  0  0  0  0
    9.9724  -16.5226   22.7926 C   0  0  2  0  0  0  0  0  0  0  0  0
    9.8180  -17.2182   21.5413 N   0  0  0  0  0  0  0  0  0  0  0  0
   10.9520  -17.2776   23.6217 C   0  0  0  0  0  0  0  0  0  0  0  0
   10.8884  -18.5345   23.6208 O   0  0  0  0  0  0  0  0  0  0  0  0
    4.6359  -20.7047   22.5673 N   0  0  0  0  0  0  0  0  0  0  0  0
   14.9255  -15.1022   23.6760 C   0  0  0  0  0  0  0  0  0  0  0  0
   14.6955  -16.4458   24.0558 O   0  0  0  0  0  0  0  0  0  0  0  0
   14.9499  -17.3413   23.2351 C   0  0  0  0  0  0  0  0  0  0  0  0
   14.1679  -16.7740   25.3913 C   0  0  2  0  0  0  0  0  0  0  0  0
   12.8089  -17.4231   25.2338 N   0  0  0  0  0  0  0  0  0  0  0  0
   11.9403  -16.6268   24.4013 C   0  0  0  0  0  0  0  0  0  0  0  0
   12.1521  -17.7233   26.5216 O   0  0  0  0  0  0  0  0  0  0  0  0
   11.0294  -17.2761   26.8226 O   0  0  0  0  0  0  0  0  0  0  0  0
  1  2  1  0
  2  3  2  0
  4  2  1  0
  4  5  1  0
  6  8  1  0
  6  5  1  0
  6  7  1  6
  8  9  2  0
 10 11  1  0
 11 12  2  0
 11 13  1  0
 13 14  1  0
 14 15  1  0
 15 16  1  0
 17 16  1  1
 17 19  1  0
 18 17  1  0
 18  8  1  0
 19 20  2  0
 21 22  1  0
 22 24  1  0
 23 22  2  0
 25 24  1  6
 25 27  1  0
 26 19  1  0
 26 25  1  0
 27 28  2  0
 27 29  1  0
M  END
$$$$
