QRN.pdb
     RDKit          3D

 29 28  0  0  1  0  0  0  0  0999 V2000
    7.7215  -12.0653   18.5854 N   0  0  0  0  0  0  0  0  0  0  0  0
    7.6974  -13.3536   17.9834 C   0  0  0  0  0  0  0  0  0  0  0  0
    7.2014  -13.4504   16.8405 O   0  0  0  0  0  0  0  0  0  0  0  0
    8.2441  -14.4993   18.7087 C   0  0  0  0  0  0  0  0  0  0  0  0
    8.7775  -14.2072   20.0708 C   0  0  0  0  0  0  0  0  0  0  0  0
    9.3965  -15.4107   20.7557 C   0  0  2  0  0  0  0  0  0  0  0  0
    9.2617  -16.5254   19.8244 N   0  0  0  0  0  0  0  0  0  0  0  0
    8.6651  -15.7652   21.9909 C   0  0  0  0  0  0  0  0  0  0  0  0
    7.4243  -15.9803   21.9630 O   0  0  0  0  0  0  0  0  0  0  0  0
   11.8688  -20.5970   24.6224 N   0  0  0  0  0  0  0  0  0  0  0  0
   11.5444  -20.9390   23.2793 C   0  0  0  0  0  0  0  0  0  0  0  0
   12.4790  -21.4153   22.5118 N   0  0  0  0  0  0  0  0  0  0  0  0
   10.2308  -20.7622   22.7998 N   0  0  0  0  0  0  0  0  0  0  0  0
    9.2554  -20.0857   23.6275 C   0  0  0  0  0  0  0  0  0  0  0  0
    9.5679  -18.5978   23.6507 C   0  0  0  0  0  0  0  0  0  0  0  0
    8.5057  -17.8320   24.3779 C   0  0  0  0  0  0  0  0  0  0  0  0
    8.8012  -16.3476   24.4385 C   0  0  2  0  0  0  0  0  0  0  0  0
    9.3748  -15.8619   23.2103 N   0  0  0  0  0  0  0  0  0  0  0  0
    9.7873  -16.1177   25.5302 C   0  0  0  0  0  0  0  0  0  0  0  0
   10.4339  -17.1057   25.9657 O   0  0  0  0  0  0  0  0  0  0  0  0
   12.2896  -21.6233   21.5073 N   0  0  0  0  0  0  0  0  0  0  0  0
    6.3613  -12.1595   27.2098 C   0  0  0  0  0  0  0  0  0  0  0  0
    7.6642  -12.7109   27.2401 O   0  0  0  0  0  0  0  0  0  0  0  0
    8.6231  -11.9455   27.4266 C   0  0  0  0  0  0  0  0  0  0  0  0
    7.8776  -14.1566   27.0554 C   0  0  2  0  0  0  0  0  0  0  0  0
    9.3374  -14.4709   27.3061 N   0  0  0  0  0  0  0  0  0  0  0  0
   10.0136  -14.8332   26.0842 C   0  0  0  0  0  0  0  0  0  0  0  0
    9.5430  -15.5105   28.3342 O   0  0  0  0  0  0  0  0  0  0  0  0
    9.3819  -16.7237   28.1034 O   0  0  0  0  0  0  0  0  0  0  0  0
  1  2  1  0
  2  3  2  0
  4  2  1  0
  4  5  1  0
  6  8  1  0
  6  5  1  0
  6  7  1  6
  8  9  2  0
 10 11  1  0
 11 12  2  0
 11 13  1  0
 13 14  1  0
 14 15  1  0
 15 16  1  0
 17 16  1  6
 17 19  1  0
 18 17  1  0
 18  8  1  0
 19 20  2  0
 21 22  1  0
 22 24  1  0
 23 22  2  0
 25 24  1  6
 25 27  1  0
 26 19  1  0
 26 25  1  0
 27 28  2  0
 27 29  1  0
M  END
$$$$
