QRN.pdb
     RDKit          3D

 29 28  0  0  1  0  0  0  0  0999 V2000
    8.3889  -13.6443   13.4179 N   0  0  0  0  0  0  0  0  0  0  0  0
    7.3383  -14.5504   13.7313 C   0  0  0  0  0  0  0  0  0  0  0  0
    6.3384  -14.5605   12.9820 O   0  0  0  0  0  0  0  0  0  0  0  0
    7.4623  -15.4232   14.8977 C   0  0  0  0  0  0  0  0  0  0  0  0
    8.7784  -15.3823   15.5986 C   0  0  0  0  0  0  0  0  0  0  0  0
    8.8750  -16.3368   16.7734 C   0  0  2  0  0  0  0  0  0  0  0  0
    7.8138  -15.9553   17.6987 N   0  0  0  0  0  0  0  0  0  0  0  0
   10.1642  -16.1923   17.4828 C   0  0  0  0  0  0  0  0  0  0  0  0
   11.2370  -16.5841   16.9513 O   0  0  0  0  0  0  0  0  0  0  0  0
   16.6026  -12.8805   19.9194 N   0  0  0  0  0  0  0  0  0  0  0  0
   16.6012  -14.2289   19.4634 C   0  0  0  0  0  0  0  0  0  0  0  0
   17.6586  -14.9580   19.6630 N   0  0  0  0  0  0  0  0  0  0  0  0
   15.4689  -14.7555   18.8096 N   0  0  0  0  0  0  0  0  0  0  0  0
   14.2968  -13.9248   18.6349 C   0  0  0  0  0  0  0  0  0  0  0  0
   13.4098  -14.0500   19.8635 C   0  0  0  0  0  0  0  0  0  0  0  0
   11.9608  -14.0809   19.4850 C   0  0  0  0  0  0  0  0  0  0  0  0
   11.3686  -15.4721   19.5755 C   0  0  2  0  0  0  0  0  0  0  0  0
   10.1828  -15.6063   18.7697 N   0  0  0  0  0  0  0  0  0  0  0  0
   10.9922  -15.7219   20.9944 C   0  0  0  0  0  0  0  0  0  0  0  0
    9.9351  -15.1967   21.4309 O   0  0  0  0  0  0  0  0  0  0  0  0
   17.6739  -15.9628   19.3833 N   0  0  0  0  0  0  0  0  0  0  0  0
   10.1946  -20.7042   23.6804 C   0  0  0  0  0  0  0  0  0  0  0  0
    9.9966  -19.3093   23.5477 O   0  0  0  0  0  0  0  0  0  0  0  0
    9.3286  -18.7244   24.4149 C   0  0  0  0  0  0  0  0  0  0  0  0
   10.5688  -18.5695   22.4098 C   0  0  2  0  0  0  0  0  0  0  0  0
   11.1351  -17.2589   22.9141 N   0  0  0  0  0  0  0  0  0  0  0  0
   11.7824  -16.5244   21.8544 C   0  0  0  0  0  0  0  0  0  0  0  0
   12.0516  -17.4210   24.0603 O   0  0  0  0  0  0  0  0  0  0  0  0
   11.7131  -17.9904   25.1149 O   0  0  0  0  0  0  0  0  0  0  0  0
  1  2  1  0
  2  3  2  0
  4  2  1  0
  4  5  1  0
  6  8  1  0
  6  5  1  0
  6  7  1  1
  8  9  2  0
 10 11  1  0
 11 12  2  0
 11 13  1  0
 13 14  1  0
 14 15  1  0
 15 16  1  0
 17 16  1  1
 17 19  1  0
 18 17  1  0
 18  8  1  0
 19 20  2  0
 21 22  1  0
 22 24  1  0
 23 22  2  0
 25 24  1  6
 25 27  1  0
 26 19  1  0
 26 25  1  0
 27 28  2  0
 27 29  1  0
M  END
$$$$
