QRN.pdb
     RDKit          3D

 29 28  0  0  1  0  0  0  0  0999 V2000
   15.4775  -16.5744   15.5636 N   0  0  0  0  0  0  0  0  0  0  0  0
   14.3575  -17.0641   14.8363 C   0  0  0  0  0  0  0  0  0  0  0  0
   14.5705  -17.5650   13.7115 O   0  0  0  0  0  0  0  0  0  0  0  0
   13.0202  -16.9667   15.4192 C   0  0  0  0  0  0  0  0  0  0  0  0
   12.9634  -16.4833   16.8292 C   0  0  0  0  0  0  0  0  0  0  0  0
   12.4121  -17.5062   17.8041 C   0  0  2  0  0  0  0  0  0  0  0  0
   11.0776  -17.8495   17.3254 N   0  0  0  0  0  0  0  0  0  0  0  0
   12.2709  -16.9377   19.1617 C   0  0  0  0  0  0  0  0  0  0  0  0
   13.2668  -16.4522   19.7612 O   0  0  0  0  0  0  0  0  0  0  0  0
    7.6775  -13.8532   17.8232 N   0  0  0  0  0  0  0  0  0  0  0  0
    7.4620  -12.8723   18.8320 C   0  0  0  0  0  0  0  0  0  0  0  0
    7.5498  -11.6156   18.5116 N   0  0  0  0  0  0  0  0  0  0  0  0
    7.1584  -13.2660   20.1509 N   0  0  0  0  0  0  0  0  0  0  0  0
    7.4027  -14.6322   20.5606 C   0  0  0  0  0  0  0  0  0  0  0  0
    8.8822  -14.9438   20.3991 C   0  0  0  0  0  0  0  0  0  0  0  0
    9.3052  -16.0538   21.3116 C   0  0  0  0  0  0  0  0  0  0  0  0
   10.7547  -16.4457   21.1130 C   0  0  2  0  0  0  0  0  0  0  0  0
   11.0012  -16.9430   19.7844 N   0  0  0  0  0  0  0  0  0  0  0  0
   11.0752  -17.5329   22.0788 C   0  0  0  0  0  0  0  0  0  0  0  0
   11.2506  -18.6953   21.6294 O   0  0  0  0  0  0  0  0  0  0  0  0
    7.4138  -10.8716   19.2299 N   0  0  0  0  0  0  0  0  0  0  0  0
   15.7588  -16.9423   24.7923 C   0  0  0  0  0  0  0  0  0  0  0  0
   14.7770  -17.8214   24.2768 O   0  0  0  0  0  0  0  0  0  0  0  0
   14.9084  -19.0378   24.4851 C   0  0  0  0  0  0  0  0  0  0  0  0
   13.6278  -17.3067   23.5126 C   0  0  2  0  0  0  0  0  0  0  0  0
   12.3502  -17.7822   24.1716 N   0  0  0  0  0  0  0  0  0  0  0  0
   11.1861  -17.2963   23.4715 C   0  0  0  0  0  0  0  0  0  0  0  0
   12.2686  -17.4368   25.6049 O   0  0  0  0  0  0  0  0  0  0  0  0
   12.6948  -18.1885   26.5017 O   0  0  0  0  0  0  0  0  0  0  0  0
  1  2  1  0
  2  3  2  0
  4  2  1  0
  4  5  1  0
  6  8  1  0
  6  5  1  0
  6  7  1  6
  8  9  2  0
 10 11  1  0
 11 12  2  0
 11 13  1  0
 13 14  1  0
 14 15  1  0
 15 16  1  0
 17 16  1  6
 17 19  1  0
 18 17  1  0
 18  8  1  0
 19 20  2  0
 21 22  1  0
 22 24  1  0
 23 22  2  0
 25 24  1  6
 25 27  1  0
 26 19  1  0
 26 25  1  0
 27 28  2  0
 27 29  1  0
M  END
$$$$
