QRN.pdb
     RDKit          3D

 29 28  0  0  1  0  0  0  0  0999 V2000
    7.4119  -20.7965   17.8726 N   0  0  0  0  0  0  0  0  0  0  0  0
    7.8317  -21.6037   16.7793 C   0  0  0  0  0  0  0  0  0  0  0  0
    7.0092  -22.4201   16.3119 O   0  0  0  0  0  0  0  0  0  0  0  0
    9.1860  -21.4531   16.2495 C   0  0  0  0  0  0  0  0  0  0  0  0
   10.0174  -20.3944   16.8922 C   0  0  0  0  0  0  0  0  0  0  0  0
   10.0138  -19.0757   16.1426 C   0  0  2  0  0  0  0  0  0  0  0  0
   10.9371  -19.2380   15.0250 N   0  0  0  0  0  0  0  0  0  0  0  0
   10.5191  -17.9724   16.9874 C   0  0  0  0  0  0  0  0  0  0  0  0
   11.7407  -17.6651   16.9791 O   0  0  0  0  0  0  0  0  0  0  0  0
    6.2891  -13.9507   22.6545 N   0  0  0  0  0  0  0  0  0  0  0  0
    7.3359  -12.9935   22.7734 C   0  0  0  0  0  0  0  0  0  0  0  0
    7.4686  -12.3472   23.8934 N   0  0  0  0  0  0  0  0  0  0  0  0
    8.2084  -12.7584   21.6916 N   0  0  0  0  0  0  0  0  0  0  0  0
    7.9609  -13.4086   20.4227 C   0  0  0  0  0  0  0  0  0  0  0  0
    9.1724  -14.2476   20.0480 C   0  0  0  0  0  0  0  0  0  0  0  0
    8.7946  -15.3617   19.1208 C   0  0  0  0  0  0  0  0  0  0  0  0
    9.9937  -16.1665   18.6641 C   0  0  2  0  0  0  0  0  0  0  0  0
    9.6140  -17.2607   17.8085 N   0  0  0  0  0  0  0  0  0  0  0  0
   10.6556  -16.7337   19.8713 C   0  0  0  0  0  0  0  0  0  0  0  0
   10.2039  -17.8071   20.3485 O   0  0  0  0  0  0  0  0  0  0  0  0
    8.2238  -11.6377   24.0132 N   0  0  0  0  0  0  0  0  0  0  0  0
   15.2255  -17.6778   23.2128 C   0  0  0  0  0  0  0  0  0  0  0  0
   14.2178  -16.6843   23.2175 O   0  0  0  0  0  0  0  0  0  0  0  0
   13.7667  -16.3087   24.3110 C   0  0  0  0  0  0  0  0  0  0  0  0
   13.7166  -16.1100   21.9571 C   0  0  1  0  0  0  0  0  0  0  0  0
   12.3748  -16.7335   21.6355 N   0  0  0  0  0  0  0  0  0  0  0  0
   11.7653  -16.1050   20.4888 C   0  0  0  0  0  0  0  0  0  0  0  0
   11.4405  -16.7314   22.7789 O   0  0  0  0  0  0  0  0  0  0  0  0
   10.6579  -15.7893   23.0044 O   0  0  0  0  0  0  0  0  0  0  0  0
  1  2  1  0
  2  3  2  0
  4  2  1  0
  4  5  1  0
  6  8  1  0
  6  5  1  0
  6  7  1  6
  8  9  2  0
 10 11  1  0
 11 12  2  0
 11 13  1  0
 13 14  1  0
 14 15  1  0
 15 16  1  0
 17 16  1  1
 17 19  1  0
 18 17  1  0
 18  8  1  0
 19 20  2  0
 21 22  1  0
 22 24  1  0
 23 22  2  0
 25 24  1  6
 25 27  1  0
 26 19  1  0
 26 25  1  0
 27 28  2  0
 27 29  1  0
M  END
$$$$
