QRN.pdb
     RDKit          3D

 29 28  0  0  1  0  0  0  0  0999 V2000
    8.6235  -12.2552   17.7677 N   0  0  0  0  0  0  0  0  0  0  0  0
    7.7006  -13.2967   18.0614 C   0  0  0  0  0  0  0  0  0  0  0  0
    7.4341  -14.1093   17.1503 O   0  0  0  0  0  0  0  0  0  0  0  0
    7.1065  -13.3796   19.3947 C   0  0  0  0  0  0  0  0  0  0  0  0
    8.0664  -13.5815   20.5185 C   0  0  0  0  0  0  0  0  0  0  0  0
    8.2898  -15.0383   20.8770 C   0  0  2  0  0  0  0  0  0  0  0  0
    7.6493  -15.8210   19.8258 N   0  0  0  0  0  0  0  0  0  0  0  0
    7.6378  -15.3859   22.1578 C   0  0  0  0  0  0  0  0  0  0  0  0
    6.5519  -14.8428   22.4935 O   0  0  0  0  0  0  0  0  0  0  0  0
    3.7372  -21.2547   21.7953 N   0  0  0  0  0  0  0  0  0  0  0  0
    3.7951  -19.8401   21.9431 C   0  0  0  0  0  0  0  0  0  0  0  0
    2.7358  -19.1385   21.6691 N   0  0  0  0  0  0  0  0  0  0  0  0
    4.9833  -19.2207   22.3805 N   0  0  0  0  0  0  0  0  0  0  0  0
    5.7220  -19.7959   23.4839 C   0  0  0  0  0  0  0  0  0  0  0  0
    6.0879  -18.6947   24.4665 C   0  0  0  0  0  0  0  0  0  0  0  0
    7.5191  -18.2816   24.3095 C   0  0  0  0  0  0  0  0  0  0  0  0
    7.6848  -16.7769   24.2581 C   0  0  2  0  0  0  0  0  0  0  0  0
    8.2466  -16.3392   23.0066 N   0  0  0  0  0  0  0  0  0  0  0  0
    8.6190  -16.3782   25.3471 C   0  0  0  0  0  0  0  0  0  0  0  0
    9.8475  -16.3110   25.0822 O   0  0  0  0  0  0  0  0  0  0  0  0
    2.7656  -18.0961   21.6941 N   0  0  0  0  0  0  0  0  0  0  0  0
    7.8438  -12.4759   27.4650 C   0  0  0  0  0  0  0  0  0  0  0  0
    8.9117  -13.3917   27.6181 O   0  0  0  0  0  0  0  0  0  0  0  0
    9.9678  -13.1722   27.0044 C   0  0  0  0  0  0  0  0  0  0  0  0
    8.7741  -14.5754   28.4838 C   0  0  2  0  0  0  0  0  0  0  0  0
    9.1409  -15.8092   27.6863 N   0  0  0  0  0  0  0  0  0  0  0  0
    8.1671  -16.0768   26.6559 C   0  0  0  0  0  0  0  0  0  0  0  0
    9.3437  -17.0077   28.5245 O   0  0  0  0  0  0  0  0  0  0  0  0
    8.7082  -18.0644   28.3495 O   0  0  0  0  0  0  0  0  0  0  0  0
  1  2  1  0
  2  3  2  0
  4  2  1  0
  4  5  1  0
  6  8  1  0
  6  5  1  0
  6  7  1  6
  8  9  2  0
 10 11  1  0
 11 12  2  0
 11 13  1  0
 13 14  1  0
 14 15  1  0
 15 16  1  0
 17 16  1  6
 17 19  1  0
 18 17  1  0
 18  8  1  0
 19 20  2  0
 21 22  1  0
 22 24  1  0
 23 22  2  0
 25 24  1  6
 25 27  1  0
 26 19  1  0
 26 25  1  0
 27 28  2  0
 27 29  1  0
M  END
$$$$
