QRN.pdb
     RDKit          3D

 29 28  0  0  1  0  0  0  0  0999 V2000
   12.7279  -13.8903   20.3333 N   0  0  0  0  0  0  0  0  0  0  0  0
   12.9019  -13.7915   18.9252 C   0  0  0  0  0  0  0  0  0  0  0  0
   14.0213  -14.0902   18.4569 O   0  0  0  0  0  0  0  0  0  0  0  0
   11.7856  -13.3525   18.0892 C   0  0  0  0  0  0  0  0  0  0  0  0
   10.4986  -13.1119   18.8039 C   0  0  0  0  0  0  0  0  0  0  0  0
    9.3725  -14.0255   18.3589 C   0  0  2  0  0  0  0  0  0  0  0  0
    8.2422  -13.1585   18.0451 N   0  0  0  0  0  0  0  0  0  0  0  0
    8.9534  -14.9358   19.4461 C   0  0  0  0  0  0  0  0  0  0  0  0
    8.3116  -14.4986   20.4379 O   0  0  0  0  0  0  0  0  0  0  0  0
    9.8047  -22.5699   20.0852 N   0  0  0  0  0  0  0  0  0  0  0  0
    8.8838  -22.7875   21.1487 C   0  0  0  0  0  0  0  0  0  0  0  0
    9.0768  -23.7949   21.9471 N   0  0  0  0  0  0  0  0  0  0  0  0
    7.7867  -21.9204   21.3256 N   0  0  0  0  0  0  0  0  0  0  0  0
    7.5853  -20.8282   20.3979 C   0  0  0  0  0  0  0  0  0  0  0  0
    8.2352  -19.5727   20.9577 C   0  0  0  0  0  0  0  0  0  0  0  0
    8.5310  -18.5848   19.8713 C   0  0  0  0  0  0  0  0  0  0  0  0
    9.0306  -17.2614   20.4127 C   0  0  2  0  0  0  0  0  0  0  0  0
    9.2803  -16.3091   19.3619 N   0  0  0  0  0  0  0  0  0  0  0  0
   10.3148  -17.5093   21.1245 C   0  0  0  0  0  0  0  0  0  0  0  0
   11.2265  -18.1225   20.5108 O   0  0  0  0  0  0  0  0  0  0  0  0
    8.4047  -24.0005   22.7179 N   0  0  0  0  0  0  0  0  0  0  0  0
   13.5012  -17.1008   21.1557 C   0  0  0  0  0  0  0  0  0  0  0  0
   13.5777  -16.2148   22.2565 O   0  0  0  0  0  0  0  0  0  0  0  0
   14.4333  -15.3162   22.2304 C   0  0  0  0  0  0  0  0  0  0  0  0
   12.6651  -16.3547   23.4042 C   0  0  2  0  0  0  0  0  0  0  0  0
   11.7262  -17.5136   23.1434 N   0  0  0  0  0  0  0  0  0  0  0  0
   10.5341  -17.0790   22.4568 C   0  0  0  0  0  0  0  0  0  0  0  0
   11.3705  -18.2635   24.3646 O   0  0  0  0  0  0  0  0  0  0  0  0
   10.2121  -18.2922   24.8210 O   0  0  0  0  0  0  0  0  0  0  0  0
  1  2  1  0
  2  3  2  0
  4  2  1  0
  4  5  1  0
  6  8  1  0
  6  5  1  0
  6  7  1  1
  8  9  2  0
 10 11  1  0
 11 12  2  0
 11 13  1  0
 13 14  1  0
 14 15  1  0
 15 16  1  0
 17 16  1  6
 17 19  1  0
 18 17  1  0
 18  8  1  0
 19 20  2  0
 21 22  1  0
 22 24  1  0
 23 22  2  0
 25 24  1  6
 25 27  1  0
 26 19  1  0
 26 25  1  0
 27 28  2  0
 27 29  1  0
M  END
$$$$
