HFN.pdb
     RDKit          3D

 30 31  0  0  1  0  0  0  0  0999 V2000
   17.5308  -21.8760  -14.0589 N   0  0  0  0  0  0  0  0  0  0  0  0
   17.1575  -23.2749  -14.1042 C   0  0  1  0  0  0  0  0  0  0  0  0
   17.6413  -23.8160  -15.4513 C   0  0  0  0  0  0  0  0  0  0  0  0
   16.8307  -23.2340  -16.5559 C   0  0  0  0  0  0  0  0  0  0  0  0
   17.2121  -22.3615  -17.5522 C   0  0  0  0  0  0  0  0  0  0  0  0
   16.1742  -22.0768  -18.3578 N   0  0  0  0  0  0  0  0  0  0  0  0
   15.1215  -22.7714  -17.8743 C   0  0  0  0  0  0  0  0  0  0  0  0
   15.5137  -23.4693  -16.7891 N   0  0  0  0  0  0  0  0  0  0  0  0
   17.8709  -23.9746  -13.0281 C   0  0  0  0  0  0  0  0  0  0  0  0
   17.8771  -25.2196  -12.9271 O   0  0  0  0  0  0  0  0  0  0  0  0
   18.5835  -23.2320  -12.0598 N   0  0  0  0  0  0  0  0  0  0  0  0
   19.3241  -23.8489  -10.9757 C   0  0  1  0  0  0  0  0  0  0  0  0
   20.7303  -23.3525  -11.0535 C   0  0  0  0  0  0  0  0  0  0  0  0
   20.7265  -21.8923  -10.7836 C   0  0  0  0  0  0  0  0  0  0  0  0
   20.9147  -21.4911   -9.4793 C   0  0  0  0  0  0  0  0  0  0  0  0
   20.9309  -20.1517   -9.1035 C   0  0  0  0  0  0  0  0  0  0  0  0
   20.7548  -19.1960  -10.0547 C   0  0  0  0  0  0  0  0  0  0  0  0
   20.5647  -19.5905  -11.3701 C   0  0  0  0  0  0  0  0  0  0  0  0
   20.5492  -20.9255  -11.7408 C   0  0  0  0  0  0  0  0  0  0  0  0
   18.6730  -23.6345   -9.6730 C   0  0  0  0  0  0  0  0  0  0  0  0
   18.0358  -22.5617   -9.5094 O   0  0  0  0  0  0  0  0  0  0  0  0
   16.5148  -23.8143   -5.0372 N   0  0  0  0  0  0  0  0  0  0  0  0
   15.8955  -23.7716   -6.3162 C   0  0  0  0  0  0  0  0  0  0  0  0
   14.6718  -23.5638   -6.3586 O   0  0  0  0  0  0  0  0  0  0  0  0
   16.7145  -23.9704   -7.4901 C   0  0  0  0  0  0  0  0  0  0  0  0
   18.1801  -24.2453   -7.2565 C   0  0  2  0  0  0  0  0  0  0  0  0
   18.7111  -24.5416   -8.5973 N   0  0  0  0  0  0  0  0  0  0  0  0
   18.4192  -25.3979   -6.3633 C   0  0  0  0  0  0  0  0  0  0  0  0
   18.4851  -26.5419   -6.8623 O   0  0  0  0  0  0  0  0  0  0  0  0
   18.5683  -25.2311   -5.0180 O   0  0  0  0  0  0  0  0  0  0  0  0
  2  3  1  0
  2  1  1  6
  3  4  1  0
  4  8  1  0
  4  5  2  0
  5  6  1  0
  7  6  1  0
  8  7  2  0
  9 11  1  0
  9  2  1  0
 10  9  2  0
 12 13  1  1
 12 11  1  0
 13 14  1  0
 14 15  2  0
 14 19  1  0
 15 16  1  0
 16 17  2  0
 18 17  1  0
 19 18  2  0
 20 12  1  0
 20 21  2  0
 22 23  1  0
 23 24  2  0
 23 25  1  0
 26 25  1  6
 26 27  1  0
 27 20  1  0
 28 26  1  0
 28 30  1  0
 29 28  2  0
M  END
$$$$
