HFN.pdb
     RDKit          3D

 30 31  0  0  1  0  0  0  0  0999 V2000
   27.2941  -21.7890  -13.6654 N   0  0  0  0  0  0  0  0  0  0  0  0
   27.5240  -20.6238  -12.8361 C   0  0  1  0  0  0  0  0  0  0  0  0
   26.5701  -19.5351  -13.3326 C   0  0  0  0  0  0  0  0  0  0  0  0
   27.1116  -18.9071  -14.5688 C   0  0  0  0  0  0  0  0  0  0  0  0
   28.2772  -19.1845  -15.2501 C   0  0  0  0  0  0  0  0  0  0  0  0
   28.4001  -18.3877  -16.3259 N   0  0  0  0  0  0  0  0  0  0  0  0
   27.3064  -17.5952  -16.3337 C   0  0  0  0  0  0  0  0  0  0  0  0
   26.5285  -17.9056  -15.2768 N   0  0  0  0  0  0  0  0  0  0  0  0
   27.1711  -20.9689  -11.4531 C   0  0  0  0  0  0  0  0  0  0  0  0
   26.2999  -21.8200  -11.1761 O   0  0  0  0  0  0  0  0  0  0  0  0
   27.8286  -20.3266  -10.3797 N   0  0  0  0  0  0  0  0  0  0  0  0
   27.5139  -20.5874   -8.9879 C   0  0  1  0  0  0  0  0  0  0  0  0
   28.6626  -20.0982   -8.1688 C   0  0  0  0  0  0  0  0  0  0  0  0
   28.2503  -20.0910   -6.7422 C   0  0  0  0  0  0  0  0  0  0  0  0
   28.6980  -21.1256   -5.9507 C   0  0  0  0  0  0  0  0  0  0  0  0
   28.3782  -21.2270   -4.6004 C   0  0  0  0  0  0  0  0  0  0  0  0
   27.5940  -20.2718   -4.0332 C   0  0  0  0  0  0  0  0  0  0  0  0
   27.1389  -19.2267   -4.8222 C   0  0  0  0  0  0  0  0  0  0  0  0
   27.4593  -19.1289   -6.1668 C   0  0  0  0  0  0  0  0  0  0  0  0
   26.2085  -20.0254   -8.6044 C   0  0  0  0  0  0  0  0  0  0  0  0
   26.0059  -18.8065   -8.8429 O   0  0  0  0  0  0  0  0  0  0  0  0
   21.1346  -19.9983   -9.0814 N   0  0  0  0  0  0  0  0  0  0  0  0
   22.1281  -20.2876  -10.0564 C   0  0  0  0  0  0  0  0  0  0  0  0
   21.7735  -20.3355  -11.2457 O   0  0  0  0  0  0  0  0  0  0  0  0
   23.4869  -20.5090   -9.6171 C   0  0  0  0  0  0  0  0  0  0  0  0
   23.7433  -20.4197   -8.1323 C   0  0  2  0  0  0  0  0  0  0  0  0
   25.1705  -20.7518   -7.9907 N   0  0  0  0  0  0  0  0  0  0  0  0
   22.9328  -21.3720   -7.3452 C   0  0  0  0  0  0  0  0  0  0  0  0
   21.6869  -21.2863   -7.3954 O   0  0  0  0  0  0  0  0  0  0  0  0
   23.5198  -22.3324   -6.5752 O   0  0  0  0  0  0  0  0  0  0  0  0
  2  3  1  0
  2  1  1  6
  3  4  1  0
  4  8  1  0
  4  5  2  0
  5  6  1  0
  7  6  1  0
  8  7  2  0
  9 11  1  0
  9  2  1  0
 10  9  2  0
 12 13  1  1
 12 11  1  0
 13 14  1  0
 14 15  2  0
 14 19  1  0
 15 16  1  0
 16 17  2  0
 18 17  1  0
 19 18  2  0
 20 12  1  0
 20 21  2  0
 22 23  1  0
 23 24  2  0
 23 25  1  0
 26 25  1  6
 26 27  1  0
 27 20  1  0
 28 26  1  0
 28 30  1  0
 29 28  2  0
M  END
$$$$
