HFN.pdb
     RDKit          3D

 30 31  0  0  1  0  0  0  0  0999 V2000
   28.5840  -22.9644  -16.7734 N   0  0  0  0  0  0  0  0  0  0  0  0
   27.5545  -21.9456  -16.8002 C   0  0  1  0  0  0  0  0  0  0  0  0
   26.6429  -22.2723  -17.9850 C   0  0  0  0  0  0  0  0  0  0  0  0
   27.2812  -21.8335  -19.2562 C   0  0  0  0  0  0  0  0  0  0  0  0
   27.6676  -22.5863  -20.3441 C   0  0  0  0  0  0  0  0  0  0  0  0
   28.2090  -21.8050  -21.2947 N   0  0  0  0  0  0  0  0  0  0  0  0
   28.1692  -20.5439  -20.8125 C   0  0  0  0  0  0  0  0  0  0  0  0
   27.6110  -20.5578  -19.5851 N   0  0  0  0  0  0  0  0  0  0  0  0
   26.7754  -22.0488  -15.5597 C   0  0  0  0  0  0  0  0  0  0  0  0
   26.5499  -23.1419  -14.9989 O   0  0  0  0  0  0  0  0  0  0  0  0
   26.2516  -20.8811  -14.9607 N   0  0  0  0  0  0  0  0  0  0  0  0
   25.5257  -20.8923  -13.7048 C   0  0  1  0  0  0  0  0  0  0  0  0
   26.1214  -19.8365  -12.8328 C   0  0  0  0  0  0  0  0  0  0  0  0
   27.2722  -20.4270  -12.1032 C   0  0  0  0  0  0  0  0  0  0  0  0
   28.5266  -20.2277  -12.6362 C   0  0  0  0  0  0  0  0  0  0  0  0
   29.6800  -20.7316  -12.0434 C   0  0  0  0  0  0  0  0  0  0  0  0
   29.5729  -21.4495  -10.8935 C   0  0  0  0  0  0  0  0  0  0  0  0
   28.3142  -21.6551  -10.3498 C   0  0  0  0  0  0  0  0  0  0  0  0
   27.1675  -21.1517  -10.9430 C   0  0  0  0  0  0  0  0  0  0  0  0
   24.0731  -20.7674  -13.9079 C   0  0  0  0  0  0  0  0  0  0  0  0
   23.6755  -19.9769  -14.8027 O   0  0  0  0  0  0  0  0  0  0  0  0
   18.8612  -21.5744  -13.4947 N   0  0  0  0  0  0  0  0  0  0  0  0
   19.6265  -22.7619  -13.3353 C   0  0  0  0  0  0  0  0  0  0  0  0
   19.0151  -23.8423  -13.2975 O   0  0  0  0  0  0  0  0  0  0  0  0
   21.0633  -22.6514  -13.2263 C   0  0  0  0  0  0  0  0  0  0  0  0
   21.6476  -21.2641  -13.3370 C   0  0  2  0  0  0  0  0  0  0  0  0
   23.0966  -21.4676  -13.1745 N   0  0  0  0  0  0  0  0  0  0  0  0
   21.1566  -20.3426  -12.2916 C   0  0  0  0  0  0  0  0  0  0  0  0
   19.9625  -19.9751  -12.3263 O   0  0  0  0  0  0  0  0  0  0  0  0
   21.9794  -19.8944  -11.3006 O   0  0  0  0  0  0  0  0  0  0  0  0
  2  3  1  0
  2  1  1  1
  3  4  1  0
  4  8  1  0
  4  5  2  0
  5  6  1  0
  7  6  1  0
  8  7  2  0
  9 11  1  0
  9  2  1  0
 10  9  2  0
 12 13  1  1
 12 11  1  0
 13 14  1  0
 14 15  2  0
 14 19  1  0
 15 16  1  0
 16 17  2  0
 18 17  1  0
 19 18  2  0
 20 12  1  0
 20 21  2  0
 22 23  1  0
 23 24  2  0
 23 25  1  0
 26 25  1  1
 26 27  1  0
 27 20  1  0
 28 26  1  0
 28 30  1  0
 29 28  2  0
M  END
$$$$
