HFN.pdb
     RDKit          3D

 30 31  0  0  1  0  0  0  0  0999 V2000
   23.3108  -14.2373  -17.1057 N   0  0  0  0  0  0  0  0  0  0  0  0
   23.0316  -12.9247  -17.6512 C   0  0  1  0  0  0  0  0  0  0  0  0
   21.5175  -12.7228  -17.5588 C   0  0  0  0  0  0  0  0  0  0  0  0
   20.8198  -13.6696  -18.4712 C   0  0  0  0  0  0  0  0  0  0  0  0
   21.3520  -14.6149  -19.3213 C   0  0  0  0  0  0  0  0  0  0  0  0
   20.3766  -15.2688  -19.9757 N   0  0  0  0  0  0  0  0  0  0  0  0
   19.2124  -14.7389  -19.5419 C   0  0  0  0  0  0  0  0  0  0  0  0
   19.4758  -13.7756  -18.6358 N   0  0  0  0  0  0  0  0  0  0  0  0
   23.6959  -11.9258  -16.8044 C   0  0  0  0  0  0  0  0  0  0  0  0
   23.6508  -11.9681  -15.5569 O   0  0  0  0  0  0  0  0  0  0  0  0
   24.4186  -10.8684  -17.4015 N   0  0  0  0  0  0  0  0  0  0  0  0
   25.0130   -9.7860  -16.6403 C   0  0  1  0  0  0  0  0  0  0  0  0
   26.4767   -9.7809  -16.9354 C   0  0  0  0  0  0  0  0  0  0  0  0
   27.0601  -11.0495  -16.4297 C   0  0  0  0  0  0  0  0  0  0  0  0
   27.4712  -11.0752  -15.1152 C   0  0  0  0  0  0  0  0  0  0  0  0
   28.0324  -12.2052  -14.5289 C   0  0  0  0  0  0  0  0  0  0  0  0
   28.1842  -13.3313  -15.2757 C   0  0  0  0  0  0  0  0  0  0  0  0
   27.7733  -13.3147  -16.5996 C   0  0  0  0  0  0  0  0  0  0  0  0
   27.2147  -12.1874  -17.1804 C   0  0  0  0  0  0  0  0  0  0  0  0
   24.3364   -8.5025  -16.8888 C   0  0  0  0  0  0  0  0  0  0  0  0
   24.6816   -7.8493  -17.9076 O   0  0  0  0  0  0  0  0  0  0  0  0
   20.8142   -4.9032  -17.6213 N   0  0  0  0  0  0  0  0  0  0  0  0
   21.0679   -6.0996  -18.3461 C   0  0  0  0  0  0  0  0  0  0  0  0
   20.5098   -6.2373  -19.4471 O   0  0  0  0  0  0  0  0  0  0  0  0
   21.9539   -7.0850  -17.7695 C   0  0  0  0  0  0  0  0  0  0  0  0
   22.5516   -6.7551  -16.4233 C   0  0  2  0  0  0  0  0  0  0  0  0
   23.3318   -7.9526  -16.0703 N   0  0  0  0  0  0  0  0  0  0  0  0
   21.5336   -6.5026  -15.3825 C   0  0  0  0  0  0  0  0  0  0  0  0
   21.3870   -7.3423  -14.4685 O   0  0  0  0  0  0  0  0  0  0  0  0
   20.7623   -5.3781  -15.4056 O   0  0  0  0  0  0  0  0  0  0  0  0
  2  3  1  0
  2  1  1  1
  3  4  1  0
  4  8  1  0
  4  5  2  0
  5  6  1  0
  7  6  1  0
  8  7  2  0
  9 11  1  0
  9  2  1  0
 10  9  2  0
 12 13  1  6
 12 11  1  0
 13 14  1  0
 14 15  2  0
 14 19  1  0
 15 16  1  0
 16 17  2  0
 18 17  1  0
 19 18  2  0
 20 12  1  0
 20 21  2  0
 22 23  1  0
 23 24  2  0
 23 25  1  0
 26 25  1  6
 26 27  1  0
 27 20  1  0
 28 26  1  0
 28 30  1  0
 29 28  2  0
M  END
$$$$
