HFN.pdb
     RDKit          3D

 30 31  0  0  1  0  0  0  0  0999 V2000
   28.1395  -21.0249  -19.0155 N   0  0  0  0  0  0  0  0  0  0  0  0
   27.6292  -19.9534  -18.1849 C   0  0  1  0  0  0  0  0  0  0  0  0
   26.5042  -19.2816  -18.9753 C   0  0  0  0  0  0  0  0  0  0  0  0
   27.0060  -18.0373  -19.6199 C   0  0  0  0  0  0  0  0  0  0  0  0
   26.9008  -16.7304  -19.1949 C   0  0  0  0  0  0  0  0  0  0  0  0
   27.4910  -15.8971  -20.0692 N   0  0  0  0  0  0  0  0  0  0  0  0
   27.9772  -16.6751  -21.0605 C   0  0  0  0  0  0  0  0  0  0  0  0
   27.6868  -17.9645  -20.7928 N   0  0  0  0  0  0  0  0  0  0  0  0
   27.0639  -20.5475  -16.9668 C   0  0  0  0  0  0  0  0  0  0  0  0
   26.5800  -21.6988  -16.9449 O   0  0  0  0  0  0  0  0  0  0  0  0
   27.0563  -19.8072  -15.7631 N   0  0  0  0  0  0  0  0  0  0  0  0
   26.4935  -20.3130  -14.5255 C   0  0  1  0  0  0  0  0  0  0  0  0
   27.1866  -19.6179  -13.4002 C   0  0  0  0  0  0  0  0  0  0  0  0
   26.6736  -20.1718  -12.1215 C   0  0  0  0  0  0  0  0  0  0  0  0
   25.7163  -19.4389  -11.4551 C   0  0  0  0  0  0  0  0  0  0  0  0
   25.1607  -19.8548  -10.2494 C   0  0  0  0  0  0  0  0  0  0  0  0
   25.5734  -21.0288   -9.7012 C   0  0  0  0  0  0  0  0  0  0  0  0
   26.5365  -21.7732  -10.3649 C   0  0  0  0  0  0  0  0  0  0  0  0
   27.0878  -21.3559  -11.5658 C   0  0  0  0  0  0  0  0  0  0  0  0
   25.0261  -20.1988  -14.5014 C   0  0  0  0  0  0  0  0  0  0  0  0
   24.5242  -19.0775  -14.7744 O   0  0  0  0  0  0  0  0  0  0  0  0
   19.9253  -21.5126  -13.7728 N   0  0  0  0  0  0  0  0  0  0  0  0
   20.7378  -22.6760  -13.8602 C   0  0  0  0  0  0  0  0  0  0  0  0
   20.1732  -23.7806  -13.8018 O   0  0  0  0  0  0  0  0  0  0  0  0
   22.1660  -22.5144  -14.0111 C   0  0  0  0  0  0  0  0  0  0  0  0
   22.6811  -21.0999  -14.1213 C   0  0  2  0  0  0  0  0  0  0  0  0
   24.1435  -21.2519  -14.1954 N   0  0  0  0  0  0  0  0  0  0  0  0
   22.3287  -20.2616  -12.9567 C   0  0  0  0  0  0  0  0  0  0  0  0
   21.6769  -19.2122  -13.1462 O   0  0  0  0  0  0  0  0  0  0  0  0
   22.6999  -20.6148  -11.6928 O   0  0  0  0  0  0  0  0  0  0  0  0
  2  3  1  0
  2  1  1  6
  3  4  1  0
  4  8  1  0
  4  5  2  0
  5  6  1  0
  7  6  1  0
  8  7  2  0
  9 11  1  0
  9  2  1  0
 10  9  2  0
 12 13  1  1
 12 11  1  0
 13 14  1  0
 14 15  2  0
 14 19  1  0
 15 16  1  0
 16 17  2  0
 18 17  1  0
 19 18  2  0
 20 12  1  0
 20 21  2  0
 22 23  1  0
 23 24  2  0
 23 25  1  0
 26 25  1  1
 26 27  1  0
 27 20  1  0
 28 26  1  0
 28 30  1  0
 29 28  2  0
M  END
$$$$
