HFN.pdb
     RDKit          3D

 30 31  0  0  1  0  0  0  0  0999 V2000
   19.4201   -9.5495  -15.0742 N   0  0  0  0  0  0  0  0  0  0  0  0
   20.2918  -10.6811  -15.3148 C   0  0  1  0  0  0  0  0  0  0  0  0
   19.5968  -11.5577  -16.3590 C   0  0  0  0  0  0  0  0  0  0  0  0
   18.3966  -12.2064  -15.7635 C   0  0  0  0  0  0  0  0  0  0  0  0
   18.2812  -12.9167  -14.5881 C   0  0  0  0  0  0  0  0  0  0  0  0
   17.0174  -13.3393  -14.4101 N   0  0  0  0  0  0  0  0  0  0  0  0
   16.3192  -12.8968  -15.4783 C   0  0  0  0  0  0  0  0  0  0  0  0
   17.1469  -12.2141  -16.2952 N   0  0  0  0  0  0  0  0  0  0  0  0
   21.5504  -10.1781  -15.8798 C   0  0  0  0  0  0  0  0  0  0  0  0
   21.6000   -9.1657  -16.6097 O   0  0  0  0  0  0  0  0  0  0  0  0
   22.7626  -10.8485  -15.6006 N   0  0  0  0  0  0  0  0  0  0  0  0
   24.0411  -10.4339  -16.1465 C   0  0  1  0  0  0  0  0  0  0  0  0
   25.0293  -10.4374  -15.0270 C   0  0  0  0  0  0  0  0  0  0  0  0
   26.3832  -10.2219  -15.5977 C   0  0  0  0  0  0  0  0  0  0  0  0
   27.2865  -11.2560  -15.4873 C   0  0  0  0  0  0  0  0  0  0  0  0
   28.5838  -11.1722  -15.9830 C   0  0  0  0  0  0  0  0  0  0  0  0
   28.9827  -10.0289  -16.6015 C   0  0  0  0  0  0  0  0  0  0  0  0
   28.0802   -8.9828  -16.7172 C   0  0  0  0  0  0  0  0  0  0  0  0
   26.7889   -9.0696  -16.2223 C   0  0  0  0  0  0  0  0  0  0  0  0
   24.4331  -11.2482  -17.3084 C   0  0  0  0  0  0  0  0  0  0  0  0
   24.4414  -12.4987  -17.1677 O   0  0  0  0  0  0  0  0  0  0  0  0
   25.1908  -13.1068  -22.0501 N   0  0  0  0  0  0  0  0  0  0  0  0
   24.2858  -12.0122  -21.9860 C   0  0  0  0  0  0  0  0  0  0  0  0
   23.4930  -11.8622  -22.9301 O   0  0  0  0  0  0  0  0  0  0  0  0
   24.3348  -11.1386  -20.8358 C   0  0  0  0  0  0  0  0  0  0  0  0
   25.2332  -11.5625  -19.6994 C   0  0  2  0  0  0  0  0  0  0  0  0
   24.7993  -10.7303  -18.5651 N   0  0  0  0  0  0  0  0  0  0  0  0
   26.6655  -11.3215  -19.9710 C   0  0  0  0  0  0  0  0  0  0  0  0
   27.0669  -10.1429  -20.0801 O   0  0  0  0  0  0  0  0  0  0  0  0
   27.5444  -12.3561  -20.1014 O   0  0  0  0  0  0  0  0  0  0  0  0
  2  3  1  0
  2  1  1  6
  3  4  1  0
  4  8  1  0
  4  5  2  0
  5  6  1  0
  7  6  1  0
  8  7  2  0
  9 11  1  0
  9  2  1  0
 10  9  2  0
 12 13  1  1
 12 11  1  0
 13 14  1  0
 14 15  2  0
 14 19  1  0
 15 16  1  0
 16 17  2  0
 18 17  1  0
 19 18  2  0
 20 12  1  0
 20 21  2  0
 22 23  1  0
 23 24  2  0
 23 25  1  0
 26 25  1  6
 26 27  1  0
 27 20  1  0
 28 26  1  0
 28 30  1  0
 29 28  2  0
M  END
$$$$
