HFN.pdb
     RDKit          3D

 30 31  0  0  1  0  0  0  0  0999 V2000
   25.5288  -19.3197  -18.8151 N   0  0  0  0  0  0  0  0  0  0  0  0
   24.4952  -18.8058  -17.9398 C   0  0  1  0  0  0  0  0  0  0  0  0
   23.2175  -18.7103  -18.7764 C   0  0  0  0  0  0  0  0  0  0  0  0
   23.3104  -17.5635  -19.7209 C   0  0  0  0  0  0  0  0  0  0  0  0
   23.2670  -16.2111  -19.4587 C   0  0  0  0  0  0  0  0  0  0  0  0
   23.3860  -15.5025  -20.5949 N   0  0  0  0  0  0  0  0  0  0  0  0
   23.5065  -16.4067  -21.5910 C   0  0  0  0  0  0  0  0  0  0  0  0
   23.4613  -17.6488  -21.0679 N   0  0  0  0  0  0  0  0  0  0  0  0
   24.2837  -19.7785  -16.8602 C   0  0  0  0  0  0  0  0  0  0  0  0
   24.1963  -21.0063  -17.0719 O   0  0  0  0  0  0  0  0  0  0  0  0
   24.1718  -19.3312  -15.5244 N   0  0  0  0  0  0  0  0  0  0  0  0
   24.0210  -20.2319  -14.3974 C   0  0  1  0  0  0  0  0  0  0  0  0
   25.1542  -19.9718  -13.4603 C   0  0  0  0  0  0  0  0  0  0  0  0
   26.4270  -20.1686  -14.1997 C   0  0  0  0  0  0  0  0  0  0  0  0
   27.1139  -19.0387  -14.5854 C   0  0  0  0  0  0  0  0  0  0  0  0
   28.3165  -19.0959  -15.2826 C   0  0  0  0  0  0  0  0  0  0  0  0
   28.8402  -20.3102  -15.5991 C   0  0  0  0  0  0  0  0  0  0  0  0
   28.1557  -21.4529  -15.2148 C   0  0  0  0  0  0  0  0  0  0  0  0
   26.9581  -21.3923  -14.5205 C   0  0  0  0  0  0  0  0  0  0  0  0
   22.6867  -20.1275  -13.7845 C   0  0  0  0  0  0  0  0  0  0  0  0
   22.4022  -19.0575  -13.1861 O   0  0  0  0  0  0  0  0  0  0  0  0
   17.5886  -20.1260  -13.5705 N   0  0  0  0  0  0  0  0  0  0  0  0
   18.4624  -19.4700  -14.4801 C   0  0  0  0  0  0  0  0  0  0  0  0
   17.9778  -18.5972  -15.2189 O   0  0  0  0  0  0  0  0  0  0  0  0
   19.8567  -19.8493  -14.4978 C   0  0  0  0  0  0  0  0  0  0  0  0
   20.2845  -20.9087  -13.5114 C   0  0  2  0  0  0  0  0  0  0  0  0
   21.7060  -21.1368  -13.8188 N   0  0  0  0  0  0  0  0  0  0  0  0
   19.5366  -22.1745  -13.6586 C   0  0  0  0  0  0  0  0  0  0  0  0
   19.8500  -22.9540  -14.5840 O   0  0  0  0  0  0  0  0  0  0  0  0
   18.5221  -22.4997  -12.8072 O   0  0  0  0  0  0  0  0  0  0  0  0
  2  3  1  0
  2  1  1  6
  3  4  1  0
  4  8  1  0
  4  5  2  0
  5  6  1  0
  7  6  1  0
  8  7  2  0
  9 11  1  0
  9  2  1  0
 10  9  2  0
 12 13  1  1
 12 11  1  0
 13 14  1  0
 14 15  2  0
 14 19  1  0
 15 16  1  0
 16 17  2  0
 18 17  1  0
 19 18  2  0
 20 12  1  0
 20 21  2  0
 22 23  1  0
 23 24  2  0
 23 25  1  0
 26 25  1  6
 26 27  1  0
 27 20  1  0
 28 26  1  0
 28 30  1  0
 29 28  2  0
M  END
$$$$
