HFN.pdb
     RDKit          3D

 30 31  0  0  1  0  0  0  0  0999 V2000
   24.0528  -12.9311  -18.3541 N   0  0  0  0  0  0  0  0  0  0  0  0
   23.5672  -11.6612  -18.8539 C   0  0  1  0  0  0  0  0  0  0  0  0
   22.1917  -11.9275  -19.4695 C   0  0  0  0  0  0  0  0  0  0  0  0
   22.3416  -12.6642  -20.7542 C   0  0  0  0  0  0  0  0  0  0  0  0
   23.3417  -12.5775  -21.6985 C   0  0  0  0  0  0  0  0  0  0  0  0
   23.1037  -13.4166  -22.7215 N   0  0  0  0  0  0  0  0  0  0  0  0
   21.9439  -14.0447  -22.4305 C   0  0  0  0  0  0  0  0  0  0  0  0
   21.4824  -13.5938  -21.2464 N   0  0  0  0  0  0  0  0  0  0  0  0
   23.4079  -10.7503  -17.7132 C   0  0  0  0  0  0  0  0  0  0  0  0
   22.8478  -11.0969  -16.6519 O   0  0  0  0  0  0  0  0  0  0  0  0
   23.8988   -9.4279  -17.7970 N   0  0  0  0  0  0  0  0  0  0  0  0
   23.7851   -8.4704  -16.7131 C   0  0  1  0  0  0  0  0  0  0  0  0
   25.1428   -7.8948  -16.4786 C   0  0  0  0  0  0  0  0  0  0  0  0
   26.0619   -9.0007  -16.1075 C   0  0  0  0  0  0  0  0  0  0  0  0
   27.0248   -9.3561  -17.0261 C   0  0  0  0  0  0  0  0  0  0  0  0
   27.9419  -10.3758  -16.7920 C   0  0  0  0  0  0  0  0  0  0  0  0
   27.8919  -11.0522  -15.6135 C   0  0  0  0  0  0  0  0  0  0  0  0
   26.9260  -10.7013  -14.6830 C   0  0  0  0  0  0  0  0  0  0  0  0
   26.0142   -9.6851  -14.9194 C   0  0  0  0  0  0  0  0  0  0  0  0
   22.7351   -7.4711  -16.9699 C   0  0  0  0  0  0  0  0  0  0  0  0
   22.5390   -7.1253  -18.1640 O   0  0  0  0  0  0  0  0  0  0  0  0
   18.2218   -5.8827  -18.6112 N   0  0  0  0  0  0  0  0  0  0  0  0
   18.5191   -6.2716  -17.2764 C   0  0  0  0  0  0  0  0  0  0  0  0
   17.6439   -6.0914  -16.4139 O   0  0  0  0  0  0  0  0  0  0  0  0
   19.8126   -6.8512  -16.9949 C   0  0  0  0  0  0  0  0  0  0  0  0
   20.8044   -5.9765  -16.2671 C   0  0  2  0  0  0  0  0  0  0  0  0
   21.9347   -6.8742  -15.9776 N   0  0  0  0  0  0  0  0  0  0  0  0
   20.2736   -5.4250  -15.0032 C   0  0  0  0  0  0  0  0  0  0  0  0
   20.4288   -6.0791  -13.9496 O   0  0  0  0  0  0  0  0  0  0  0  0
   19.6258   -4.2253  -14.9720 O   0  0  0  0  0  0  0  0  0  0  0  0
  2  3  1  0
  2  1  1  1
  3  4  1  0
  4  8  1  0
  4  5  2  0
  5  6  1  0
  7  6  1  0
  8  7  2  0
  9 11  1  0
  9  2  1  0
 10  9  2  0
 12 13  1  6
 12 11  1  0
 13 14  1  0
 14 15  2  0
 14 19  1  0
 15 16  1  0
 16 17  2  0
 18 17  1  0
 19 18  2  0
 20 12  1  0
 20 21  2  0
 22 23  1  0
 23 24  2  0
 23 25  1  0
 26 25  1  1
 26 27  1  0
 27 20  1  0
 28 26  1  0
 28 30  1  0
 29 28  2  0
M  END
$$$$
