HFN.pdb
     RDKit          3D

 30 31  0  0  1  0  0  0  0  0999 V2000
   18.4269  -10.4400  -15.1288 N   0  0  0  0  0  0  0  0  0  0  0  0
   18.0565   -9.0462  -14.9925 C   0  0  1  0  0  0  0  0  0  0  0  0
   16.5879   -8.9385  -15.4088 C   0  0  0  0  0  0  0  0  0  0  0  0
   16.4707   -9.0145  -16.8908 C   0  0  0  0  0  0  0  0  0  0  0  0
   16.2779  -10.1166  -17.6957 C   0  0  0  0  0  0  0  0  0  0  0  0
   16.2272   -9.7569  -18.9901 N   0  0  0  0  0  0  0  0  0  0  0  0
   16.3886   -8.4161  -19.0143 C   0  0  0  0  0  0  0  0  0  0  0  0
   16.5354   -7.9660  -17.7516 N   0  0  0  0  0  0  0  0  0  0  0  0
   18.1764   -8.6765  -13.5764 C   0  0  0  0  0  0  0  0  0  0  0  0
   17.8637   -9.4556  -12.6516 O   0  0  0  0  0  0  0  0  0  0  0  0
   18.6611   -7.3969  -13.2237 N   0  0  0  0  0  0  0  0  0  0  0  0
   18.8644   -6.9777  -11.8499 C   0  0  1  0  0  0  0  0  0  0  0  0
   20.2588   -6.4545  -11.7420 C   0  0  0  0  0  0  0  0  0  0  0  0
   21.1877   -7.6107  -11.6672 C   0  0  0  0  0  0  0  0  0  0  0  0
   21.8075   -7.9988  -12.8344 C   0  0  0  0  0  0  0  0  0  0  0  0
   22.6976   -9.0667  -12.8895 C   0  0  0  0  0  0  0  0  0  0  0  0
   22.9711   -9.7588  -11.7514 C   0  0  0  0  0  0  0  0  0  0  0  0
   22.3519   -9.3752  -10.5718 C   0  0  0  0  0  0  0  0  0  0  0  0
   21.4659   -8.3110  -10.5206 C   0  0  0  0  0  0  0  0  0  0  0  0
   17.8239   -6.0377  -11.4019 C   0  0  0  0  0  0  0  0  0  0  0  0
   17.4449   -5.1564  -12.2164 O   0  0  0  0  0  0  0  0  0  0  0  0
   13.3331   -5.3841   -7.6450 N   0  0  0  0  0  0  0  0  0  0  0  0
   14.6729   -4.9112   -7.6955 C   0  0  0  0  0  0  0  0  0  0  0  0
   14.9300   -3.8417   -7.1188 O   0  0  0  0  0  0  0  0  0  0  0  0
   15.6575   -5.6923   -8.4088 C   0  0  0  0  0  0  0  0  0  0  0  0
   16.1537   -5.1273   -9.7175 C   0  0  2  0  0  0  0  0  0  0  0  0
   17.2222   -6.0526  -10.1294 N   0  0  0  0  0  0  0  0  0  0  0  0
   16.7035   -3.7618   -9.5888 C   0  0  0  0  0  0  0  0  0  0  0  0
   17.8651   -3.6201   -9.1498 O   0  0  0  0  0  0  0  0  0  0  0  0
   15.9690   -2.6677   -9.9399 O   0  0  0  0  0  0  0  0  0  0  0  0
  2  3  1  0
  2  1  1  1
  3  4  1  0
  4  8  1  0
  4  5  2  0
  5  6  1  0
  7  6  1  0
  8  7  2  0
  9 11  1  0
  9  2  1  0
 10  9  2  0
 12 13  1  6
 12 11  1  0
 13 14  1  0
 14 15  2  0
 14 19  1  0
 15 16  1  0
 16 17  2  0
 18 17  1  0
 19 18  2  0
 20 12  1  0
 20 21  2  0
 22 23  1  0
 23 24  2  0
 23 25  1  0
 26 25  1  1
 26 27  1  0
 27 20  1  0
 28 26  1  0
 28 30  1  0
 29 28  2  0
M  END
$$$$
