HFN.pdb
     RDKit          3D

 30 31  0  0  1  0  0  0  0  0999 V2000
   26.2581  -20.9112  -16.3370 N   0  0  0  0  0  0  0  0  0  0  0  0
   25.2080  -20.0483  -15.8360 C   0  0  1  0  0  0  0  0  0  0  0  0
   24.4283  -19.5507  -17.0551 C   0  0  0  0  0  0  0  0  0  0  0  0
   25.2934  -18.6738  -17.8909 C   0  0  0  0  0  0  0  0  0  0  0  0
   26.5875  -18.2558  -17.6673 C   0  0  0  0  0  0  0  0  0  0  0  0
   27.0121  -17.4667  -18.6695 N   0  0  0  0  0  0  0  0  0  0  0  0
   25.9833  -17.3788  -19.5403 C   0  0  0  0  0  0  0  0  0  0  0  0
   24.9468  -18.1047  -19.0743 N   0  0  0  0  0  0  0  0  0  0  0  0
   24.3125  -20.8556  -14.9976 C   0  0  0  0  0  0  0  0  0  0  0  0
   24.1030  -22.0677  -15.2145 O   0  0  0  0  0  0  0  0  0  0  0  0
   23.6527  -20.2598  -13.8992 N   0  0  0  0  0  0  0  0  0  0  0  0
   22.8008  -21.0017  -12.9892 C   0  0  1  0  0  0  0  0  0  0  0  0
   22.9445  -20.3853  -11.6368 C   0  0  0  0  0  0  0  0  0  0  0  0
   24.3093  -20.6798  -11.1312 C   0  0  0  0  0  0  0  0  0  0  0  0
   24.8152  -19.8466  -10.1579 C   0  0  0  0  0  0  0  0  0  0  0  0
   26.0808  -20.0215   -9.6072 C   0  0  0  0  0  0  0  0  0  0  0  0
   26.8541  -21.0524  -10.0413 C   0  0  0  0  0  0  0  0  0  0  0  0
   26.3530  -21.8962  -11.0206 C   0  0  0  0  0  0  0  0  0  0  0  0
   25.0920  -21.7190  -11.5669 C   0  0  0  0  0  0  0  0  0  0  0  0
   21.4146  -21.0844  -13.4776 C   0  0  0  0  0  0  0  0  0  0  0  0
   20.9488  -20.0836  -14.0817 O   0  0  0  0  0  0  0  0  0  0  0  0
   16.7612  -23.6500  -14.9675 N   0  0  0  0  0  0  0  0  0  0  0  0
   17.3317  -23.9557  -13.7016 C   0  0  0  0  0  0  0  0  0  0  0  0
   16.5947  -24.4718  -12.8455 O   0  0  0  0  0  0  0  0  0  0  0  0
   18.7270  -23.6528  -13.4785 C   0  0  0  0  0  0  0  0  0  0  0  0
   19.1654  -22.2343  -13.7504 C   0  0  2  0  0  0  0  0  0  0  0  0
   20.5723  -22.2010  -13.3181 N   0  0  0  0  0  0  0  0  0  0  0  0
   18.3901  -21.2316  -12.9908 C   0  0  0  0  0  0  0  0  0  0  0  0
   18.7355  -20.9656  -11.8195 O   0  0  0  0  0  0  0  0  0  0  0  0
   17.3164  -20.5995  -13.5453 O   0  0  0  0  0  0  0  0  0  0  0  0
  2  3  1  0
  2  1  1  6
  3  4  1  0
  4  8  1  0
  4  5  2  0
  5  6  1  0
  7  6  1  0
  8  7  2  0
  9 11  1  0
  9  2  1  0
 10  9  2  0
 12 13  1  1
 12 11  1  0
 13 14  1  0
 14 15  2  0
 14 19  1  0
 15 16  1  0
 16 17  2  0
 18 17  1  0
 19 18  2  0
 20 12  1  0
 20 21  2  0
 22 23  1  0
 23 24  2  0
 23 25  1  0
 26 25  1  1
 26 27  1  0
 27 20  1  0
 28 26  1  0
 28 30  1  0
 29 28  2  0
M  END
$$$$
