HFN.pdb
     RDKit          3D

 30 31  0  0  1  0  0  0  0  0999 V2000
   26.9074  -23.0741  -17.5712 N   0  0  0  0  0  0  0  0  0  0  0  0
   26.9434  -21.7811  -16.9191 C   0  0  1  0  0  0  0  0  0  0  0  0
   26.1869  -20.8091  -17.8271 C   0  0  0  0  0  0  0  0  0  0  0  0
   26.9917  -20.5168  -19.0448 C   0  0  0  0  0  0  0  0  0  0  0  0
   26.7745  -20.9064  -20.3488 C   0  0  0  0  0  0  0  0  0  0  0  0
   27.7401  -20.4307  -21.1542 N   0  0  0  0  0  0  0  0  0  0  0  0
   28.5810  -19.7321  -20.3609 C   0  0  0  0  0  0  0  0  0  0  0  0
   28.1330  -19.7821  -19.0900 N   0  0  0  0  0  0  0  0  0  0  0  0
   26.2273  -21.8920  -15.6419 C   0  0  0  0  0  0  0  0  0  0  0  0
   25.2140  -22.6086  -15.5016 O   0  0  0  0  0  0  0  0  0  0  0  0
   26.6838  -21.1699  -14.5163 N   0  0  0  0  0  0  0  0  0  0  0  0
   26.0120  -21.1985  -13.2309 C   0  0  1  0  0  0  0  0  0  0  0  0
   26.9990  -20.7617  -12.1989 C   0  0  0  0  0  0  0  0  0  0  0  0
   26.3162  -20.7351  -10.8805 C   0  0  0  0  0  0  0  0  0  0  0  0
   26.0908  -19.5012  -10.3112 C   0  0  0  0  0  0  0  0  0  0  0  0
   25.4606  -19.3490   -9.0802 C   0  0  0  0  0  0  0  0  0  0  0  0
   25.0483  -20.4563   -8.4072 C   0  0  0  0  0  0  0  0  0  0  0  0
   25.2709  -21.7025   -8.9725 C   0  0  0  0  0  0  0  0  0  0  0  0
   25.8990  -21.8503  -10.1988 C   0  0  0  0  0  0  0  0  0  0  0  0
   24.7617  -20.4216  -13.2463 C   0  0  0  0  0  0  0  0  0  0  0  0
   24.7759  -19.3059  -13.8283 O   0  0  0  0  0  0  0  0  0  0  0  0
   19.9355  -19.8091  -15.5682 N   0  0  0  0  0  0  0  0  0  0  0  0
   21.1383  -19.3326  -14.9788 C   0  0  0  0  0  0  0  0  0  0  0  0
   21.3527  -18.1097  -15.0119 O   0  0  0  0  0  0  0  0  0  0  0  0
   22.0412  -20.2871  -14.3771 C   0  0  0  0  0  0  0  0  0  0  0  0
   22.2590  -20.1701  -12.8881 C   0  0  2  0  0  0  0  0  0  0  0  0
   23.5518  -20.8355  -12.6578 N   0  0  0  0  0  0  0  0  0  0  0  0
   21.2086  -20.8401  -12.0936 C   0  0  0  0  0  0  0  0  0  0  0  0
   20.1176  -20.2546  -11.9236 O   0  0  0  0  0  0  0  0  0  0  0  0
   21.4117  -22.0748  -11.5512 O   0  0  0  0  0  0  0  0  0  0  0  0
  2  3  1  0
  2  1  1  6
  3  4  1  0
  4  8  1  0
  4  5  2  0
  5  6  1  0
  7  6  1  0
  8  7  2  0
  9 11  1  0
  9  2  1  0
 10  9  2  0
 12 13  1  1
 12 11  1  0
 13 14  1  0
 14 15  2  0
 14 19  1  0
 15 16  1  0
 16 17  2  0
 18 17  1  0
 19 18  2  0
 20 12  1  0
 20 21  2  0
 22 23  1  0
 23 24  2  0
 23 25  1  0
 26 25  1  6
 26 27  1  0
 27 20  1  0
 28 26  1  0
 28 30  1  0
 29 28  2  0
M  END
$$$$
