HFN.pdb
     RDKit          3D

 30 31  0  0  1  0  0  0  0  0999 V2000
   27.4361  -21.2112  -18.8551 N   0  0  0  0  0  0  0  0  0  0  0  0
   26.8731  -20.1561  -18.0377 C   0  0  1  0  0  0  0  0  0  0  0  0
   25.6401  -19.6353  -18.7793 C   0  0  0  0  0  0  0  0  0  0  0  0
   26.0446  -18.6257  -19.7956 C   0  0  0  0  0  0  0  0  0  0  0  0
   26.2265  -17.2671  -19.6520 C   0  0  0  0  0  0  0  0  0  0  0  0
   26.5951  -16.7107  -20.8190 N   0  0  0  0  0  0  0  0  0  0  0  0
   26.6495  -17.7194  -21.7156 C   0  0  0  0  0  0  0  0  0  0  0  0
   26.3186  -18.8739  -21.1024 N   0  0  0  0  0  0  0  0  0  0  0  0
   26.4459  -20.7438  -16.7615 C   0  0  0  0  0  0  0  0  0  0  0  0
   25.9423  -21.8842  -16.6840 O   0  0  0  0  0  0  0  0  0  0  0  0
   26.6007  -20.0097  -15.5640 N   0  0  0  0  0  0  0  0  0  0  0  0
   26.2207  -20.5268  -14.2630 C   0  0  1  0  0  0  0  0  0  0  0  0
   26.9967  -19.7707  -13.2355 C   0  0  0  0  0  0  0  0  0  0  0  0
   26.6048  -20.2696  -11.8928 C   0  0  0  0  0  0  0  0  0  0  0  0
   25.6921  -19.5208  -11.1830 C   0  0  0  0  0  0  0  0  0  0  0  0
   25.2488  -19.8861   -9.9158 C   0  0  0  0  0  0  0  0  0  0  0  0
   25.7303  -21.0249   -9.3497 C   0  0  0  0  0  0  0  0  0  0  0  0
   26.6492  -21.7848  -10.0569 C   0  0  0  0  0  0  0  0  0  0  0  0
   27.0886  -21.4180  -11.3188 C   0  0  0  0  0  0  0  0  0  0  0  0
   24.7621  -20.5020  -14.0659 C   0  0  0  0  0  0  0  0  0  0  0  0
   24.1423  -19.4688  -14.4294 O   0  0  0  0  0  0  0  0  0  0  0  0
   19.9596  -20.9668  -12.3751 N   0  0  0  0  0  0  0  0  0  0  0  0
   20.9588  -19.9990  -12.0811 C   0  0  0  0  0  0  0  0  0  0  0  0
   20.6109  -18.9786  -11.4646 O   0  0  0  0  0  0  0  0  0  0  0  0
   22.3154  -20.2505  -12.5112 C   0  0  0  0  0  0  0  0  0  0  0  0
   22.5500  -21.5040  -13.3186 C   0  0  2  0  0  0  0  0  0  0  0  0
   24.0102  -21.5493  -13.5007 N   0  0  0  0  0  0  0  0  0  0  0  0
   21.8870  -21.4764  -14.6388 C   0  0  0  0  0  0  0  0  0  0  0  0
   22.3146  -20.6892  -15.5103 O   0  0  0  0  0  0  0  0  0  0  0  0
   20.8281  -22.2902  -14.9155 O   0  0  0  0  0  0  0  0  0  0  0  0
  2  3  1  0
  2  1  1  6
  3  4  1  0
  4  8  1  0
  4  5  2  0
  5  6  1  0
  7  6  1  0
  8  7  2  0
  9 11  1  0
  9  2  1  0
 10  9  2  0
 12 13  1  1
 12 11  1  0
 13 14  1  0
 14 15  2  0
 14 19  1  0
 15 16  1  0
 16 17  2  0
 18 17  1  0
 19 18  2  0
 20 12  1  0
 20 21  2  0
 22 23  1  0
 23 24  2  0
 23 25  1  0
 26 25  1  1
 26 27  1  0
 27 20  1  0
 28 26  1  0
 28 30  1  0
 29 28  2  0
M  END
$$$$
