HFN.pdb
     RDKit          3D

 30 31  0  0  1  0  0  0  0  0999 V2000
   18.4078  -12.6146  -18.5348 N   0  0  0  0  0  0  0  0  0  0  0  0
   19.4431  -11.6402  -18.8125 C   0  0  1  0  0  0  0  0  0  0  0  0
   19.0615  -10.9552  -20.1266 C   0  0  0  0  0  0  0  0  0  0  0  0
   19.1765  -11.9179  -21.2561 C   0  0  0  0  0  0  0  0  0  0  0  0
   19.6448  -13.2141  -21.2539 C   0  0  0  0  0  0  0  0  0  0  0  0
   19.5821  -13.7444  -22.4876 N   0  0  0  0  0  0  0  0  0  0  0  0
   19.0705  -12.7817  -23.2850 C   0  0  0  0  0  0  0  0  0  0  0  0
   18.8252  -11.6805  -22.5463 N   0  0  0  0  0  0  0  0  0  0  0  0
   19.4326  -10.6411  -17.7364 C   0  0  0  0  0  0  0  0  0  0  0  0
   18.3947  -10.3431  -17.1086 O   0  0  0  0  0  0  0  0  0  0  0  0
   20.6297   -9.9796  -17.3811 N   0  0  0  0  0  0  0  0  0  0  0  0
   20.6889   -8.9329  -16.3784 C   0  0  1  0  0  0  0  0  0  0  0  0
   21.9915   -9.0713  -15.6617 C   0  0  0  0  0  0  0  0  0  0  0  0
   22.0487   -8.0423  -14.5925 C   0  0  0  0  0  0  0  0  0  0  0  0
   21.6101   -8.4092  -13.3394 C   0  0  0  0  0  0  0  0  0  0  0  0
   21.6152   -7.5330  -12.2587 C   0  0  0  0  0  0  0  0  0  0  0  0
   22.0691   -6.2639  -12.4386 C   0  0  0  0  0  0  0  0  0  0  0  0
   22.5126   -5.8858  -13.6966 C   0  0  0  0  0  0  0  0  0  0  0  0
   22.5061   -6.7611  -14.7707 C   0  0  0  0  0  0  0  0  0  0  0  0
   20.4506   -7.6012  -16.9587 C   0  0  0  0  0  0  0  0  0  0  0  0
   21.0180   -7.3304  -18.0489 O   0  0  0  0  0  0  0  0  0  0  0  0
   18.1601   -2.8729  -17.6767 N   0  0  0  0  0  0  0  0  0  0  0  0
   17.4323   -4.0722  -17.9072 C   0  0  0  0  0  0  0  0  0  0  0  0
   16.2943   -3.9725  -18.3945 O   0  0  0  0  0  0  0  0  0  0  0  0
   18.0487   -5.3338  -17.5656 C   0  0  0  0  0  0  0  0  0  0  0  0
   19.4336   -5.2729  -16.9682 C   0  0  2  0  0  0  0  0  0  0  0  0
   19.6346   -6.6088  -16.3833 N   0  0  0  0  0  0  0  0  0  0  0  0
   19.5662   -4.2458  -15.9143 C   0  0  0  0  0  0  0  0  0  0  0  0
   19.9551   -3.1020  -16.2347 O   0  0  0  0  0  0  0  0  0  0  0  0
   19.2719   -4.5262  -14.6125 O   0  0  0  0  0  0  0  0  0  0  0  0
  2  3  1  0
  2  1  1  1
  3  4  1  0
  4  8  1  0
  4  5  2  0
  5  6  1  0
  7  6  1  0
  8  7  2  0
  9 11  1  0
  9  2  1  0
 10  9  2  0
 12 13  1  6
 12 11  1  0
 13 14  1  0
 14 15  2  0
 14 19  1  0
 15 16  1  0
 16 17  2  0
 18 17  1  0
 19 18  2  0
 20 12  1  0
 20 21  2  0
 22 23  1  0
 23 24  2  0
 23 25  1  0
 26 25  1  1
 26 27  1  0
 27 20  1  0
 28 26  1  0
 28 30  1  0
 29 28  2  0
M  END
$$$$
