INL.pdb
     RDKit          3D

 25 24  0  0  1  0  0  0  0  0999 V2000
   28.0763  -20.6821   -7.8586 C   0  0  0  0  0  0  0  0  0  0  0  0
   26.5575  -20.6338   -8.0488 C   0  0  0  0  0  0  0  0  0  0  0  0
   26.2051  -20.4913   -9.4934 C   0  0  2  0  0  0  0  0  0  0  0  0
   27.0587  -19.4569  -10.1779 C   0  0  0  0  0  0  0  0  0  0  0  0
   24.7301  -20.3336   -9.7645 C   0  0  2  0  0  0  0  0  0  0  0  0
   24.0611  -21.4009   -9.0116 N   0  0  0  0  0  0  0  0  0  0  0  0
   24.3514  -20.4988  -11.1773 C   0  0  0  0  0  0  0  0  0  0  0  0
   24.6880  -19.6383  -12.0365 O   0  0  0  0  0  0  0  0  0  0  0  0
   24.7898  -24.7668  -14.4876 N   0  0  0  0  0  0  0  0  0  0  0  0
   24.5075  -23.6287  -13.7263 C   0  0  0  0  0  0  0  0  0  0  0  0
   25.4775  -22.9726  -13.2537 O   0  0  0  0  0  0  0  0  0  0  0  0
   23.1221  -23.1381  -13.4357 C   0  0  0  0  0  0  0  0  0  0  0  0
   23.1769  -21.6487  -13.0754 C   0  0  2  0  0  0  0  0  0  0  0  0
   23.5997  -21.6047  -11.6975 N   0  0  0  0  0  0  0  0  0  0  0  0
   21.8818  -21.0007  -13.3484 C   0  0  0  0  0  0  0  0  0  0  0  0
   21.3065  -20.4811  -12.3384 O   0  0  0  0  0  0  0  0  0  0  0  0
   20.5113  -16.1473  -15.0600 C   0  0  0  0  0  0  0  0  0  0  0  0
   19.8867  -17.4274  -14.6628 C   0  0  2  0  0  0  0  0  0  0  0  0
   19.2502  -17.2564  -13.2648 C   0  0  0  0  0  0  0  0  0  0  0  0
   20.7079  -18.6415  -14.5880 C   0  0  0  0  0  0  0  0  0  0  0  0
   20.1313  -19.9734  -14.8628 C   0  0  2  0  0  0  0  0  0  0  0  0
   21.2592  -20.9210  -14.6201 N   0  0  0  0  0  0  0  0  0  0  0  0
   19.6675  -20.2592  -16.2217 C   0  0  0  0  0  0  0  0  0  0  0  0
   18.2909  -20.1592  -16.5586 O   0  0  0  0  0  0  0  0  0  0  0  0
   20.3884  -20.6075  -17.1982 O   0  0  0  0  0  0  0  0  0  0  0  0
  2  1  1  0
  2  3  1  0
  3  4  1  1
  5  3  1  0
  5  6  1  1
  7  5  1  0
  7  8  2  0
 10 12  1  0
 10  9  1  0
 11 10  2  0
 13 12  1  1
 13 14  1  0
 14  7  1  0
 15 13  1  0
 16 15  2  0
 18 20  1  0
 18 17  1  1
 19 18  1  0
 21 20  1  6
 21 22  1  0
 21 23  1  0
 22 15  1  0
 23 24  1  0
 25 23  2  0
M  END
$$$$
