INL.pdb
     RDKit          3D

 25 24  0  0  1  0  0  0  0  0999 V2000
   33.2899  -22.8700  -11.7163 C   0  0  0  0  0  0  0  0  0  0  0  0
   31.7680  -23.0281  -11.7824 C   0  0  0  0  0  0  0  0  0  0  0  0
   31.0864  -21.9702  -10.9776 C   0  0  2  0  0  0  0  0  0  0  0  0
   31.7928  -21.7189   -9.6718 C   0  0  0  0  0  0  0  0  0  0  0  0
   29.5971  -22.1569  -10.8333 C   0  0  2  0  0  0  0  0  0  0  0  0
   29.0485  -22.1232  -12.1939 N   0  0  0  0  0  0  0  0  0  0  0  0
   28.9233  -21.0942  -10.0693 C   0  0  0  0  0  0  0  0  0  0  0  0
   29.4857  -20.5672   -9.0704 O   0  0  0  0  0  0  0  0  0  0  0  0
   24.7135  -21.8939  -10.0155 N   0  0  0  0  0  0  0  0  0  0  0  0
   25.0623  -20.7408  -10.7249 C   0  0  0  0  0  0  0  0  0  0  0  0
   24.9667  -20.7642  -11.9838 O   0  0  0  0  0  0  0  0  0  0  0  0
   25.5437  -19.4759  -10.0823 C   0  0  0  0  0  0  0  0  0  0  0  0
   26.9157  -19.7223   -9.4435 C   0  0  2  0  0  0  0  0  0  0  0  0
   27.6215  -20.5715  -10.3707 N   0  0  0  0  0  0  0  0  0  0  0  0
   26.7644  -20.2758   -8.0862 C   0  0  0  0  0  0  0  0  0  0  0  0
   25.8424  -21.1432   -7.9489 O   0  0  0  0  0  0  0  0  0  0  0  0
   30.2123  -21.3526   -4.7584 C   0  0  0  0  0  0  0  0  0  0  0  0
   29.6520  -19.9928   -4.9121 C   0  0  2  0  0  0  0  0  0  0  0  0
   30.3638  -19.0475   -3.9180 C   0  0  0  0  0  0  0  0  0  0  0  0
   28.2135  -19.7760   -4.7177 C   0  0  0  0  0  0  0  0  0  0  0  0
   27.2169  -20.4186   -5.5986 C   0  0  2  0  0  0  0  0  0  0  0  0
   27.5538  -19.9172   -6.9639 N   0  0  0  0  0  0  0  0  0  0  0  0
   25.8043  -20.0897   -5.3999 C   0  0  0  0  0  0  0  0  0  0  0  0
   24.9764  -20.8977   -4.5752 O   0  0  0  0  0  0  0  0  0  0  0  0
   25.1881  -19.1102   -5.9053 O   0  0  0  0  0  0  0  0  0  0  0  0
  2  1  1  0
  2  3  1  0
  3  4  1  1
  5  3  1  0
  5  6  1  6
  7  5  1  0
  7  8  2  0
 10 12  1  0
 10  9  1  0
 11 10  2  0
 13 12  1  6
 13 14  1  0
 14  7  1  0
 15 13  1  0
 16 15  2  0
 18 20  1  0
 18 17  1  1
 19 18  1  0
 21 20  1  1
 21 22  1  0
 21 23  1  0
 22 15  1  0
 23 24  1  0
 25 23  2  0
M  END
$$$$
