INL.pdb
     RDKit          3D

 25 24  0  0  1  0  0  0  0  0999 V2000
   24.4093  -13.5234  -18.9575 C   0  0  0  0  0  0  0  0  0  0  0  0
   24.3606  -14.0424  -17.5175 C   0  0  0  0  0  0  0  0  0  0  0  0
   24.4361  -15.5339  -17.4852 C   0  0  2  0  0  0  0  0  0  0  0  0
   23.4795  -16.1636  -18.4627 C   0  0  0  0  0  0  0  0  0  0  0  0
   24.3703  -16.1335  -16.1032 C   0  0  2  0  0  0  0  0  0  0  0  0
   25.4541  -15.5086  -15.3360 N   0  0  0  0  0  0  0  0  0  0  0  0
   24.5939  -17.5878  -16.0610 C   0  0  0  0  0  0  0  0  0  0  0  0
   23.7811  -18.3781  -16.6149 O   0  0  0  0  0  0  0  0  0  0  0  0
   26.5041  -22.3567  -15.0251 N   0  0  0  0  0  0  0  0  0  0  0  0
   27.4795  -21.4686  -15.4884 C   0  0  0  0  0  0  0  0  0  0  0  0
   28.6160  -21.9332  -15.7835 O   0  0  0  0  0  0  0  0  0  0  0  0
   27.2591  -19.9963  -15.6568 C   0  0  0  0  0  0  0  0  0  0  0  0
   25.8019  -19.6600  -15.3185 C   0  0  2  0  0  0  0  0  0  0  0  0
   25.7082  -18.2247  -15.4194 N   0  0  0  0  0  0  0  0  0  0  0  0
   25.4326  -20.2154  -14.0044 C   0  0  0  0  0  0  0  0  0  0  0  0
   26.0883  -19.7579  -13.0135 O   0  0  0  0  0  0  0  0  0  0  0  0
   24.3311  -20.7449   -9.3198 C   0  0  0  0  0  0  0  0  0  0  0  0
   25.2754  -21.5305  -10.1432 C   0  0  2  0  0  0  0  0  0  0  0  0
   26.7165  -21.2176   -9.6804 C   0  0  0  0  0  0  0  0  0  0  0  0
   25.2740  -21.3667  -11.6016 C   0  0  0  0  0  0  0  0  0  0  0  0
   24.0513  -21.6011  -12.3967 C   0  0  2  0  0  0  0  0  0  0  0  0
   24.4279  -21.1912  -13.7820 N   0  0  0  0  0  0  0  0  0  0  0  0
   22.8549  -20.8227  -12.0713 C   0  0  0  0  0  0  0  0  0  0  0  0
   22.6562  -19.5272  -12.6198 O   0  0  0  0  0  0  0  0  0  0  0  0
   21.9134  -21.1843  -11.3116 O   0  0  0  0  0  0  0  0  0  0  0  0
  2  1  1  0
  2  3  1  0
  3  4  1  6
  5  3  1  0
  5  6  1  1
  7  5  1  0
  7  8  2  0
 10 12  1  0
 10  9  1  0
 11 10  2  0
 13 12  1  1
 13 14  1  0
 14  7  1  0
 15 13  1  0
 16 15  2  0
 18 20  1  0
 18 17  1  1
 19 18  1  0
 21 20  1  1
 21 22  1  0
 21 23  1  0
 22 15  1  0
 23 24  1  0
 25 23  2  0
M  END
$$$$
