INL.pdb
     RDKit          3D

 25 24  0  0  1  0  0  0  0  0999 V2000
   16.8835  -15.3669  -15.6998 C   0  0  0  0  0  0  0  0  0  0  0  0
   17.1955  -14.9234  -17.1321 C   0  0  0  0  0  0  0  0  0  0  0  0
   17.8803  -13.5959  -17.1422 C   0  0  2  0  0  0  0  0  0  0  0  0
   17.1455  -12.5812  -16.3071 C   0  0  0  0  0  0  0  0  0  0  0  0
   18.2517  -13.0945  -18.5150 C   0  0  2  0  0  0  0  0  0  0  0  0
   19.1087  -14.1276  -19.1080 N   0  0  0  0  0  0  0  0  0  0  0  0
   19.0230  -11.8407  -18.5152 C   0  0  0  0  0  0  0  0  0  0  0  0
   20.2094  -11.8174  -18.0864 O   0  0  0  0  0  0  0  0  0  0  0  0
   20.6819   -6.9675  -19.3607 N   0  0  0  0  0  0  0  0  0  0  0  0
   19.3694   -7.0827  -19.8285 C   0  0  0  0  0  0  0  0  0  0  0  0
   18.8590   -6.0910  -20.4206 O   0  0  0  0  0  0  0  0  0  0  0  0
   18.5292   -8.3130  -19.6704 C   0  0  0  0  0  0  0  0  0  0  0  0
   19.3318   -9.3819  -18.9192 C   0  0  2  0  0  0  0  0  0  0  0  0
   18.5291  -10.5779  -18.9844 N   0  0  0  0  0  0  0  0  0  0  0  0
   19.6559   -8.9252  -17.5562 C   0  0  0  0  0  0  0  0  0  0  0  0
   18.6745   -8.8816  -16.7462 O   0  0  0  0  0  0  0  0  0  0  0  0
   21.9869   -9.5634  -12.8841 C   0  0  0  0  0  0  0  0  0  0  0  0
   22.4192  -10.0422  -14.2147 C   0  0  2  0  0  0  0  0  0  0  0  0
   23.8719  -10.5591  -14.1082 C   0  0  0  0  0  0  0  0  0  0  0  0
   22.3999   -9.1213  -15.3572 C   0  0  0  0  0  0  0  0  0  0  0  0
   21.2099   -8.2990  -15.6571 C   0  0  2  0  0  0  0  0  0  0  0  0
   20.9461   -8.5464  -17.1057 N   0  0  0  0  0  0  0  0  0  0  0  0
   21.3222   -6.8455  -15.5239 C   0  0  0  0  0  0  0  0  0  0  0  0
   21.5141   -6.0212  -16.6650 O   0  0  0  0  0  0  0  0  0  0  0  0
   21.2660   -6.1885  -14.4469 O   0  0  0  0  0  0  0  0  0  0  0  0
  2  1  1  0
  2  3  1  0
  3  4  1  6
  5  3  1  0
  5  6  1  1
  7  5  1  0
  7  8  2  0
 10 12  1  0
 10  9  1  0
 11 10  2  0
 13 12  1  1
 13 14  1  0
 14  7  1  0
 15 13  1  0
 16 15  2  0
 18 20  1  0
 18 17  1  1
 19 18  1  0
 21 20  1  6
 21 22  1  0
 21 23  1  0
 22 15  1  0
 23 24  1  0
 25 23  2  0
M  END
$$$$
