INL.pdb
     RDKit          3D

 25 24  0  0  1  0  0  0  0  0999 V2000
   12.4451  -12.4798  -16.0062 C   0  0  0  0  0  0  0  0  0  0  0  0
   13.9098  -12.8516  -16.2548 C   0  0  0  0  0  0  0  0  0  0  0  0
   14.8194  -11.7402  -15.8440 C   0  0  2  0  0  0  0  0  0  0  0  0
   14.4306  -10.4339  -16.4841 C   0  0  0  0  0  0  0  0  0  0  0  0
   16.2886  -12.0583  -15.9630 C   0  0  2  0  0  0  0  0  0  0  0  0
   16.5386  -13.1771  -15.0468 N   0  0  0  0  0  0  0  0  0  0  0  0
   17.1821  -10.9607  -15.5585 C   0  0  0  0  0  0  0  0  0  0  0  0
   17.1676  -10.5249  -14.3745 O   0  0  0  0  0  0  0  0  0  0  0  0
   21.6314  -11.3952  -16.7183 N   0  0  0  0  0  0  0  0  0  0  0  0
   21.0208  -10.3433  -16.0288 C   0  0  0  0  0  0  0  0  0  0  0  0
   21.1467  -10.3019  -14.7730 O   0  0  0  0  0  0  0  0  0  0  0  0
   20.2246   -9.2597  -16.6892 C   0  0  0  0  0  0  0  0  0  0  0  0
   18.8581   -9.1447  -16.0030 C   0  0  2  0  0  0  0  0  0  0  0  0
   18.1190  -10.3078  -16.4273 N   0  0  0  0  0  0  0  0  0  0  0  0
   18.2231   -7.8543  -16.3241 C   0  0  0  0  0  0  0  0  0  0  0  0
   17.7424   -7.7586  -17.4992 O   0  0  0  0  0  0  0  0  0  0  0  0
   14.2316   -4.0568  -14.2827 C   0  0  0  0  0  0  0  0  0  0  0  0
   15.3178   -4.2556  -15.2662 C   0  0  2  0  0  0  0  0  0  0  0  0
   14.6942   -4.3896  -16.6740 C   0  0  0  0  0  0  0  0  0  0  0  0
   16.2299   -5.3958  -15.1173 C   0  0  0  0  0  0  0  0  0  0  0  0
   17.4923   -5.4704  -15.8808 C   0  0  2  0  0  0  0  0  0  0  0  0
   18.1161   -6.7524  -15.4377 N   0  0  0  0  0  0  0  0  0  0  0  0
   18.5059   -4.4411  -15.6434 C   0  0  0  0  0  0  0  0  0  0  0  0
   18.4592   -3.1991  -16.3317 O   0  0  0  0  0  0  0  0  0  0  0  0
   19.4835   -4.5260  -14.8487 O   0  0  0  0  0  0  0  0  0  0  0  0
  2  1  1  0
  2  3  1  0
  3  4  1  6
  5  3  1  0
  5  6  1  1
  7  5  1  0
  7  8  2  0
 10 12  1  0
 10  9  1  0
 11 10  2  0
 13 12  1  6
 13 14  1  0
 14  7  1  0
 15 13  1  0
 16 15  2  0
 18 20  1  0
 18 17  1  1
 19 18  1  0
 21 20  1  1
 21 22  1  0
 21 23  1  0
 22 15  1  0
 23 24  1  0
 25 23  2  0
M  END
$$$$
