INL.pdb
     RDKit          3D

 25 24  0  0  1  0  0  0  0  0999 V2000
   21.2362  -18.2626  -14.7735 C   0  0  0  0  0  0  0  0  0  0  0  0
   20.1649  -17.6275  -15.6648 C   0  0  0  0  0  0  0  0  0  0  0  0
   20.5573  -16.2433  -16.0665 C   0  0  2  0  0  0  0  0  0  0  0  0
   20.9072  -15.3930  -14.8741 C   0  0  0  0  0  0  0  0  0  0  0  0
   19.6036  -15.5767  -17.0256 C   0  0  2  0  0  0  0  0  0  0  0  0
   19.6083  -16.3981  -18.2417 N   0  0  0  0  0  0  0  0  0  0  0  0
   19.9954  -14.2145  -17.4229 C   0  0  0  0  0  0  0  0  0  0  0  0
   20.8093  -14.0315  -18.3695 O   0  0  0  0  0  0  0  0  0  0  0  0
   19.7020   -9.3706  -19.5098 N   0  0  0  0  0  0  0  0  0  0  0  0
   19.0818   -9.6528  -18.2890 C   0  0  0  0  0  0  0  0  0  0  0  0
   18.8091   -8.6873  -17.5223 O   0  0  0  0  0  0  0  0  0  0  0  0
   18.7198  -11.0333  -17.8332 C   0  0  0  0  0  0  0  0  0  0  0  0
   19.9587  -11.7109  -17.2356 C   0  0  2  0  0  0  0  0  0  0  0  0
   19.5117  -13.0127  -16.8060 N   0  0  0  0  0  0  0  0  0  0  0  0
   20.5463  -10.8747  -16.1740 C   0  0  0  0  0  0  0  0  0  0  0  0
   19.9136  -10.8688  -15.0691 O   0  0  0  0  0  0  0  0  0  0  0  0
   24.2249  -11.2263  -13.4831 C   0  0  0  0  0  0  0  0  0  0  0  0
   24.4019  -10.7064  -14.8561 C   0  0  2  0  0  0  0  0  0  0  0  0
   25.9089  -10.4737  -15.1082 C   0  0  0  0  0  0  0  0  0  0  0  0
   23.7286   -9.4641  -15.2525 C   0  0  0  0  0  0  0  0  0  0  0  0
   22.2621   -9.3211  -15.1465 C   0  0  2  0  0  0  0  0  0  0  0  0
   21.7308  -10.1051  -16.3007 N   0  0  0  0  0  0  0  0  0  0  0  0
   21.6859   -7.9826  -15.2860 C   0  0  0  0  0  0  0  0  0  0  0  0
   21.4811   -7.1547  -14.1497 O   0  0  0  0  0  0  0  0  0  0  0  0
   21.3234   -7.4351  -16.3646 O   0  0  0  0  0  0  0  0  0  0  0  0
  2  1  1  0
  2  3  1  0
  3  4  1  1
  5  3  1  0
  5  6  1  6
  7  5  1  0
  7  8  2  0
 10 12  1  0
 10  9  1  0
 11 10  2  0
 13 12  1  1
 13 14  1  0
 14  7  1  0
 15 13  1  0
 16 15  2  0
 18 20  1  0
 18 17  1  1
 19 18  1  0
 21 20  1  6
 21 22  1  0
 21 23  1  0
 22 15  1  0
 23 24  1  0
 25 23  2  0
M  END
$$$$
