INL.pdb
     RDKit          3D

 25 24  0  0  1  0  0  0  0  0999 V2000
   17.7474  -12.6217  -20.5128 C   0  0  0  0  0  0  0  0  0  0  0  0
   18.8457  -12.5287  -19.4495 C   0  0  0  0  0  0  0  0  0  0  0  0
   18.6582  -11.3192  -18.5933 C   0  0  2  0  0  0  0  0  0  0  0  0
   18.4593  -10.0754  -19.4182 C   0  0  0  0  0  0  0  0  0  0  0  0
   19.6849  -11.1619  -17.5000 C   0  0  2  0  0  0  0  0  0  0  0  0
   19.6010  -12.3789  -16.6843 N   0  0  0  0  0  0  0  0  0  0  0  0
   19.4443  -10.0215  -16.6008 C   0  0  0  0  0  0  0  0  0  0  0  0
   19.5769   -8.8377  -17.0166 O   0  0  0  0  0  0  0  0  0  0  0  0
   18.2490   -7.0049  -12.4975 N   0  0  0  0  0  0  0  0  0  0  0  0
   17.9440   -8.3346  -12.1920 C   0  0  0  0  0  0  0  0  0  0  0  0
   17.3830   -8.5783  -11.0872 O   0  0  0  0  0  0  0  0  0  0  0  0
   18.2423   -9.4911  -13.0964 C   0  0  0  0  0  0  0  0  0  0  0  0
   18.8755   -8.9709  -14.3925 C   0  0  2  0  0  0  0  0  0  0  0  0
   19.0495  -10.1345  -15.2260 N   0  0  0  0  0  0  0  0  0  0  0  0
   20.1124   -8.2243  -14.1025 C   0  0  0  0  0  0  0  0  0  0  0  0
   21.1530   -8.9367  -13.9270 O   0  0  0  0  0  0  0  0  0  0  0  0
   23.6407   -4.6383  -16.0168 C   0  0  0  0  0  0  0  0  0  0  0  0
   23.3836   -6.0887  -15.8873 C   0  0  2  0  0  0  0  0  0  0  0  0
   23.6026   -6.7564  -17.2639 C   0  0  0  0  0  0  0  0  0  0  0  0
   22.0734   -6.5528  -15.4162 C   0  0  0  0  0  0  0  0  0  0  0  0
   21.5386   -6.1316  -14.1052 C   0  0  2  0  0  0  0  0  0  0  0  0
   20.2133   -6.8126  -14.0114 N   0  0  0  0  0  0  0  0  0  0  0  0
   21.2618   -4.7093  -13.8958 C   0  0  0  0  0  0  0  0  0  0  0  0
   22.2208   -3.8630  -13.2774 O   0  0  0  0  0  0  0  0  0  0  0  0
   20.2041   -4.0997  -14.2186 O   0  0  0  0  0  0  0  0  0  0  0  0
  2  1  1  0
  2  3  1  0
  3  4  1  6
  5  3  1  0
  5  6  1  1
  7  5  1  0
  7  8  2  0
 10 12  1  0
 10  9  1  0
 11 10  2  0
 13 12  1  1
 13 14  1  0
 14  7  1  0
 15 13  1  0
 16 15  2  0
 18 20  1  0
 18 17  1  6
 19 18  1  0
 21 20  1  6
 21 22  1  0
 21 23  1  0
 22 15  1  0
 23 24  1  0
 25 23  2  0
M  END
$$$$
