INL.pdb
     RDKit          3D

 25 24  0  0  1  0  0  0  0  0999 V2000
   29.4037  -16.7758  -17.0109 C   0  0  0  0  0  0  0  0  0  0  0  0
   27.9201  -17.0137  -16.7143 C   0  0  0  0  0  0  0  0  0  0  0  0
   27.5686  -18.4565  -16.8757 C   0  0  2  0  0  0  0  0  0  0  0  0
   26.1523  -18.6370  -17.3539 C   0  0  0  0  0  0  0  0  0  0  0  0
   27.9224  -19.3222  -15.6928 C   0  0  2  0  0  0  0  0  0  0  0  0
   27.9383  -20.7032  -16.1889 N   0  0  0  0  0  0  0  0  0  0  0  0
   26.9488  -19.2705  -14.5899 C   0  0  0  0  0  0  0  0  0  0  0  0
   26.8364  -18.2325  -13.8816 O   0  0  0  0  0  0  0  0  0  0  0  0
   22.8692  -19.9626  -11.4885 N   0  0  0  0  0  0  0  0  0  0  0  0
   22.7664  -20.7770  -12.6202 C   0  0  0  0  0  0  0  0  0  0  0  0
   21.6952  -21.4226  -12.7940 O   0  0  0  0  0  0  0  0  0  0  0  0
   23.8511  -20.9313  -13.6420 C   0  0  0  0  0  0  0  0  0  0  0  0
   25.1118  -20.2060  -13.1565 C   0  0  2  0  0  0  0  0  0  0  0  0
   26.0674  -20.3432  -14.2275 N   0  0  0  0  0  0  0  0  0  0  0  0
   25.5530  -20.7450  -11.8579 C   0  0  0  0  0  0  0  0  0  0  0  0
   26.0448  -21.9189  -11.8916 O   0  0  0  0  0  0  0  0  0  0  0  0
   27.7798  -18.8305   -6.5449 C   0  0  0  0  0  0  0  0  0  0  0  0
   27.4280  -19.9717   -7.4171 C   0  0  2  0  0  0  0  0  0  0  0  0
   28.7067  -20.7922   -7.7007 C   0  0  0  0  0  0  0  0  0  0  0  0
   26.8100  -19.7205   -8.7244 C   0  0  0  0  0  0  0  0  0  0  0  0
   25.9159  -20.7150   -9.3518 C   0  0  2  0  0  0  0  0  0  0  0  0
   25.4687  -20.0622  -10.6177 N   0  0  0  0  0  0  0  0  0  0  0  0
   24.6864  -21.0817   -8.6467 C   0  0  0  0  0  0  0  0  0  0  0  0
   24.6763  -22.1425   -7.7017 O   0  0  0  0  0  0  0  0  0  0  0  0
   23.5565  -20.5348   -8.7836 O   0  0  0  0  0  0  0  0  0  0  0  0
  2  1  1  0
  2  3  1  0
  3  4  1  1
  5  3  1  0
  5  6  1  6
  7  5  1  0
  7  8  2  0
 10 12  1  0
 10  9  1  0
 11 10  2  0
 13 12  1  6
 13 14  1  0
 14  7  1  0
 15 13  1  0
 16 15  2  0
 18 20  1  0
 18 17  1  6
 19 18  1  0
 21 20  1  1
 21 22  1  0
 21 23  1  0
 22 15  1  0
 23 24  1  0
 25 23  2  0
M  END
$$$$
