INL.pdb
     RDKit          3D

 25 24  0  0  1  0  0  0  0  0999 V2000
   18.8980  -28.3486   -1.8486 C   0  0  0  0  0  0  0  0  0  0  0  0
   17.9637  -27.7049   -2.8773 C   0  0  0  0  0  0  0  0  0  0  0  0
   17.3086  -26.4864   -2.3139 C   0  0  2  0  0  0  0  0  0  0  0  0
   16.6525  -26.7667   -0.9880 C   0  0  0  0  0  0  0  0  0  0  0  0
   16.4205  -25.7489   -3.2841 C   0  0  2  0  0  0  0  0  0  0  0  0
   17.2805  -25.3573   -4.4068 N   0  0  0  0  0  0  0  0  0  0  0  0
   15.8251  -24.5153   -2.7450 C   0  0  0  0  0  0  0  0  0  0  0  0
   16.4669  -23.4293   -2.7700 O   0  0  0  0  0  0  0  0  0  0  0  0
   12.6242  -20.8257   -1.0260 N   0  0  0  0  0  0  0  0  0  0  0  0
   11.8902  -21.9130   -1.5092 C   0  0  0  0  0  0  0  0  0  0  0  0
   10.6464  -21.7673   -1.6710 O   0  0  0  0  0  0  0  0  0  0  0  0
   12.4896  -23.2437   -1.8477 C   0  0  0  0  0  0  0  0  0  0  0  0
   14.0072  -23.1845   -1.6368 C   0  0  2  0  0  0  0  0  0  0  0  0
   14.5150  -24.4255   -2.1670 N   0  0  0  0  0  0  0  0  0  0  0  0
   14.3249  -22.9390   -0.2189 C   0  0  0  0  0  0  0  0  0  0  0  0
   14.8046  -23.9340    0.4144 O   0  0  0  0  0  0  0  0  0  0  0  0
   17.3960  -22.4230    3.2534 C   0  0  0  0  0  0  0  0  0  0  0  0
   17.2075  -21.8404    1.9074 C   0  0  2  0  0  0  0  0  0  0  0  0
   18.4418  -20.9760    1.5635 C   0  0  0  0  0  0  0  0  0  0  0  0
   16.0360  -20.9975    1.6406 C   0  0  0  0  0  0  0  0  0  0  0  0
   14.6645  -21.5077    1.8425 C   0  0  2  0  0  0  0  0  0  0  0  0
   14.1381  -21.7078    0.4598 N   0  0  0  0  0  0  0  0  0  0  0  0
   13.6935  -20.6366    2.5071 C   0  0  0  0  0  0  0  0  0  0  0  0
   13.6151  -20.5796    3.9245 O   0  0  0  0  0  0  0  0  0  0  0  0
   12.8599  -19.8778    1.9379 O   0  0  0  0  0  0  0  0  0  0  0  0
  2  1  1  0
  2  3  1  0
  3  4  1  1
  5  3  1  0
  5  6  1  6
  7  5  1  0
  7  8  2  0
 10 12  1  0
 10  9  1  0
 11 10  2  0
 13 12  1  1
 13 14  1  0
 14  7  1  0
 15 13  1  0
 16 15  2  0
 18 20  1  0
 18 17  1  1
 19 18  1  0
 21 20  1  6
 21 22  1  0
 21 23  1  0
 22 15  1  0
 23 24  1  0
 25 23  2  0
M  END
$$$$
