INL.pdb
     RDKit          3D

 25 24  0  0  1  0  0  0  0  0999 V2000
    8.6424  -25.7446   -6.5331 C   0  0  0  0  0  0  0  0  0  0  0  0
   10.1702  -25.6674   -6.6057 C   0  0  0  0  0  0  0  0  0  0  0  0
   10.7610  -25.4971   -5.2444 C   0  0  2  0  0  0  0  0  0  0  0  0
   10.1428  -24.3387   -4.5074 C   0  0  0  0  0  0  0  0  0  0  0  0
   12.2686  -25.4988   -5.2125 C   0  0  2  0  0  0  0  0  0  0  0  0
   12.6839  -26.8353   -5.6537 N   0  0  0  0  0  0  0  0  0  0  0  0
   12.8478  -25.2856   -3.8761 C   0  0  0  0  0  0  0  0  0  0  0  0
   12.8750  -24.1322   -3.3653 O   0  0  0  0  0  0  0  0  0  0  0  0
   11.5015  -26.0993   -0.3858 N   0  0  0  0  0  0  0  0  0  0  0  0
   12.3492  -27.2048   -0.2679 C   0  0  0  0  0  0  0  0  0  0  0  0
   11.9601  -28.1818    0.4312 O   0  0  0  0  0  0  0  0  0  0  0  0
   13.6939  -27.3022   -0.9212 C   0  0  0  0  0  0  0  0  0  0  0  0
   13.9487  -26.0362   -1.7479 C   0  0  2  0  0  0  0  0  0  0  0  0
   13.4104  -26.3193   -3.0552 N   0  0  0  0  0  0  0  0  0  0  0  0
   15.3792  -25.6829   -1.7287 C   0  0  0  0  0  0  0  0  0  0  0  0
   15.9049  -25.5930   -0.5725 O   0  0  0  0  0  0  0  0  0  0  0  0
   20.1082  -27.1841   -1.8698 C   0  0  0  0  0  0  0  0  0  0  0  0
   18.7723  -27.6244   -1.4134 C   0  0  2  0  0  0  0  0  0  0  0  0
   18.7285  -29.1693   -1.4242 C   0  0  0  0  0  0  0  0  0  0  0  0
   17.5764  -27.1804   -2.1391 C   0  0  0  0  0  0  0  0  0  0  0  0
   17.5857  -25.9419   -2.9442 C   0  0  2  0  0  0  0  0  0  0  0  0
   16.1789  -25.4470   -2.8759 N   0  0  0  0  0  0  0  0  0  0  0  0
   17.8931  -26.0474   -4.3717 C   0  0  0  0  0  0  0  0  0  0  0  0
   16.9748  -26.6498   -5.2729 O   0  0  0  0  0  0  0  0  0  0  0  0
   18.9452  -25.6418   -4.9401 O   0  0  0  0  0  0  0  0  0  0  0  0
  2  1  1  0
  2  3  1  0
  3  4  1  6
  5  3  1  0
  5  6  1  1
  7  5  1  0
  7  8  2  0
 10 12  1  0
 10  9  1  0
 11 10  2  0
 13 12  1  1
 13 14  1  0
 14  7  1  0
 15 13  1  0
 16 15  2  0
 18 20  1  0
 18 17  1  6
 19 18  1  0
 21 20  1  6
 21 22  1  0
 21 23  1  0
 22 15  1  0
 23 24  1  0
 25 23  2  0
M  END
$$$$
