INL.pdb
     RDKit          3D

 25 24  0  0  1  0  0  0  0  0999 V2000
   18.7758  -15.4030  -17.1426 C   0  0  0  0  0  0  0  0  0  0  0  0
   18.6590  -13.9337  -17.5585 C   0  0  0  0  0  0  0  0  0  0  0  0
   19.4669  -13.0583  -16.6572 C   0  0  2  0  0  0  0  0  0  0  0  0
   19.2217  -13.3728  -15.2052 C   0  0  0  0  0  0  0  0  0  0  0  0
   19.3878  -11.5872  -16.9790 C   0  0  2  0  0  0  0  0  0  0  0  0
   19.9370  -11.4360  -18.3314 N   0  0  0  0  0  0  0  0  0  0  0  0
   20.1862  -10.7276  -16.0899 C   0  0  0  0  0  0  0  0  0  0  0  0
   19.7977  -10.4842  -14.9143 O   0  0  0  0  0  0  0  0  0  0  0  0
   23.1352  -11.5333  -14.4049 N   0  0  0  0  0  0  0  0  0  0  0  0
   24.0191  -10.6893  -15.0839 C   0  0  0  0  0  0  0  0  0  0  0  0
   25.2434  -10.9981  -15.1002 O   0  0  0  0  0  0  0  0  0  0  0  0
   23.6025   -9.4382  -15.7951 C   0  0  0  0  0  0  0  0  0  0  0  0
   22.1060   -9.1976  -15.5630 C   0  0  2  0  0  0  0  0  0  0  0  0
   21.4304  -10.1110  -16.4509 N   0  0  0  0  0  0  0  0  0  0  0  0
   21.7719   -7.7763  -15.7626 C   0  0  0  0  0  0  0  0  0  0  0  0
   22.3919   -6.9577  -15.0099 O   0  0  0  0  0  0  0  0  0  0  0  0
   18.9992   -4.1322  -19.9275 C   0  0  0  0  0  0  0  0  0  0  0  0
   19.7659   -4.2651  -18.6701 C   0  0  2  0  0  0  0  0  0  0  0  0
   21.0894   -3.4792  -18.8104 C   0  0  0  0  0  0  0  0  0  0  0  0
   20.1372   -5.5999  -18.1859 C   0  0  0  0  0  0  0  0  0  0  0  0
   20.5165   -5.8242  -16.7760 C   0  0  2  0  0  0  0  0  0  0  0  0
   20.8378   -7.2806  -16.7076 N   0  0  0  0  0  0  0  0  0  0  0  0
   19.5036   -5.5995  -15.7431 C   0  0  0  0  0  0  0  0  0  0  0  0
   18.5218   -6.5858  -15.4577 O   0  0  0  0  0  0  0  0  0  0  0  0
   19.3862   -4.5671  -15.0255 O   0  0  0  0  0  0  0  0  0  0  0  0
  2  1  1  0
  2  3  1  0
  3  4  1  1
  5  3  1  0
  5  6  1  6
  7  5  1  0
  7  8  2  0
 10 12  1  0
 10  9  1  0
 11 10  2  0
 13 12  1  6
 13 14  1  0
 14  7  1  0
 15 13  1  0
 16 15  2  0
 18 20  1  0
 18 17  1  6
 19 18  1  0
 21 20  1  6
 21 22  1  0
 21 23  1  0
 22 15  1  0
 23 24  1  0
 25 23  2  0
M  END
$$$$
