INL.pdb
     RDKit          3D

 25 24  0  0  1  0  0  0  0  0999 V2000
   25.2183  -15.2360  -20.1542 C   0  0  0  0  0  0  0  0  0  0  0  0
   24.9764  -16.1569  -18.9547 C   0  0  0  0  0  0  0  0  0  0  0  0
   23.7546  -16.9913  -19.1606 C   0  0  2  0  0  0  0  0  0  0  0  0
   22.5671  -16.1553  -19.5583 C   0  0  0  0  0  0  0  0  0  0  0  0
   23.4643  -17.9612  -18.0431 C   0  0  2  0  0  0  0  0  0  0  0  0
   23.2370  -17.1456  -16.8445 N   0  0  0  0  0  0  0  0  0  0  0  0
   24.5709  -18.8820  -17.7357 C   0  0  0  0  0  0  0  0  0  0  0  0
   24.8340  -19.8478  -18.5038 O   0  0  0  0  0  0  0  0  0  0  0  0
   28.3086  -16.8877  -16.8301 N   0  0  0  0  0  0  0  0  0  0  0  0
   28.2350  -18.2838  -16.8140 C   0  0  0  0  0  0  0  0  0  0  0  0
   28.7306  -18.9176  -17.7872 O   0  0  0  0  0  0  0  0  0  0  0  0
   27.6029  -19.0762  -15.7107 C   0  0  0  0  0  0  0  0  0  0  0  0
   26.3732  -19.8124  -16.2557 C   0  0  2  0  0  0  0  0  0  0  0  0
   25.4251  -18.7779  -16.5875 N   0  0  0  0  0  0  0  0  0  0  0  0
   25.8906  -20.8078  -15.2822 C   0  0  0  0  0  0  0  0  0  0  0  0
   26.7317  -21.7062  -14.9559 O   0  0  0  0  0  0  0  0  0  0  0  0
   25.6678  -20.0842  -10.0449 C   0  0  0  0  0  0  0  0  0  0  0  0
   25.2481  -21.1131  -11.0206 C   0  0  2  0  0  0  0  0  0  0  0  0
   26.1570  -22.3525  -10.8567 C   0  0  0  0  0  0  0  0  0  0  0  0
   25.2504  -20.7961  -12.4535 C   0  0  0  0  0  0  0  0  0  0  0  0
   24.3502  -21.4953  -13.3933 C   0  0  2  0  0  0  0  0  0  0  0  0
   24.5951  -20.8264  -14.7053 N   0  0  0  0  0  0  0  0  0  0  0  0
   22.9067  -21.3984  -13.1696 C   0  0  0  0  0  0  0  0  0  0  0  0
   22.1662  -22.5131  -12.6926 O   0  0  0  0  0  0  0  0  0  0  0  0
   22.1889  -20.3773  -13.3614 O   0  0  0  0  0  0  0  0  0  0  0  0
  2  1  1  0
  2  3  1  0
  3  4  1  1
  5  3  1  0
  5  6  1  1
  7  5  1  0
  7  8  2  0
 10 12  1  0
 10  9  1  0
 11 10  2  0
 13 12  1  1
 13 14  1  0
 14  7  1  0
 15 13  1  0
 16 15  2  0
 18 20  1  0
 18 17  1  1
 19 18  1  0
 21 20  1  1
 21 22  1  0
 21 23  1  0
 22 15  1  0
 23 24  1  0
 25 23  2  0
M  END
$$$$
