INL.pdb
     RDKit          3D

 25 24  0  0  1  0  0  0  0  0999 V2000
   15.9110  -13.2705  -13.1794 C   0  0  0  0  0  0  0  0  0  0  0  0
   15.2843  -12.9239  -11.8256 C   0  0  0  0  0  0  0  0  0  0  0  0
   15.1545  -11.4450  -11.6609 C   0  0  2  0  0  0  0  0  0  0  0  0
   16.4544  -10.7357  -11.9339 C   0  0  0  0  0  0  0  0  0  0  0  0
   14.4889  -11.0149  -10.3779 C   0  0  2  0  0  0  0  0  0  0  0  0
   13.1607  -11.6390  -10.3791 N   0  0  0  0  0  0  0  0  0  0  0  0
   14.2836   -9.5622  -10.2579 C   0  0  0  0  0  0  0  0  0  0  0  0
   13.4209   -8.9755  -10.9675 O   0  0  0  0  0  0  0  0  0  0  0  0
   14.5698   -4.5108   -9.0339 N   0  0  0  0  0  0  0  0  0  0  0  0
   14.8526   -5.3087   -7.9213 C   0  0  0  0  0  0  0  0  0  0  0  0
   14.8735   -4.7596   -6.7844 O   0  0  0  0  0  0  0  0  0  0  0  0
   15.1331   -6.7786   -7.9947 C   0  0  0  0  0  0  0  0  0  0  0  0
   14.8853   -7.2711   -9.4255 C   0  0  2  0  0  0  0  0  0  0  0  0
   15.0067   -8.7064   -9.3615 N   0  0  0  0  0  0  0  0  0  0  0  0
   15.8061   -6.6115  -10.3682 C   0  0  0  0  0  0  0  0  0  0  0  0
   17.0442   -6.8293  -10.1662 O   0  0  0  0  0  0  0  0  0  0  0  0
   17.3947   -4.3014  -15.2978 C   0  0  0  0  0  0  0  0  0  0  0  0
   17.2557   -5.6523  -14.7126 C   0  0  2  0  0  0  0  0  0  0  0  0
   16.8509   -6.6386  -15.8316 C   0  0  0  0  0  0  0  0  0  0  0  0
   16.3055   -5.8722  -13.6159 C   0  0  0  0  0  0  0  0  0  0  0  0
   16.4329   -5.1458  -12.3360 C   0  0  2  0  0  0  0  0  0  0  0  0
   15.4139   -5.7806  -11.4485 N   0  0  0  0  0  0  0  0  0  0  0  0
   16.1265   -3.7143  -12.3198 C   0  0  0  0  0  0  0  0  0  0  0  0
   17.1475   -2.7476  -12.5232 O   0  0  0  0  0  0  0  0  0  0  0  0
   14.9897   -3.1968  -12.1346 O   0  0  0  0  0  0  0  0  0  0  0  0
  2  1  1  0
  2  3  1  0
  3  4  1  1
  5  3  1  0
  5  6  1  6
  7  5  1  0
  7  8  2  0
 10 12  1  0
 10  9  1  0
 11 10  2  0
 13 12  1  1
 13 14  1  0
 14  7  1  0
 15 13  1  0
 16 15  2  0
 18 20  1  0
 18 17  1  6
 19 18  1  0
 21 20  1  6
 21 22  1  0
 21 23  1  0
 22 15  1  0
 23 24  1  0
 25 23  2  0
M  END
$$$$
