LTI.pdb
     RDKit          3D

 24 23  0  0  1  0  0  0  0  0999 V2000
   13.0298  -17.4181   21.9799 C   0  0  0  0  0  0  0  0  0  0  0  0
   13.4091  -16.8134   20.6683 C   0  0  1  0  0  0  0  0  0  0  0  0
   14.3249  -17.7455   19.9018 C   0  0  0  0  0  0  0  0  0  0  0  0
   12.2509  -16.3663   19.8423 C   0  0  0  0  0  0  0  0  0  0  0  0
   11.0642  -17.2871   20.0131 C   0  0  2  0  0  0  0  0  0  0  0  0
   10.6975  -17.8115   18.7019 N   0  0  0  0  0  0  0  0  0  0  0  0
    9.8974  -16.5942   20.5951 C   0  0  0  0  0  0  0  0  0  0  0  0
    9.2575  -15.7366   19.9339 O   0  0  0  0  0  0  0  0  0  0  0  0
    6.8216  -18.0024   21.3852 C   0  0  0  0  0  0  0  0  0  0  0  0
    7.3154  -17.4940   22.6952 C   0  0  1  0  0  0  0  0  0  0  0  0
    8.1113  -18.5117   23.2715 O   0  0  0  0  0  0  0  0  0  0  0  0
    8.2755  -16.3101   22.5099 C   0  0  2  0  0  0  0  0  0  0  0  0
    9.4831  -16.8915   21.9169 N   0  0  0  0  0  0  0  0  0  0  0  0
    8.6721  -15.7566   23.8288 C   0  0  0  0  0  0  0  0  0  0  0  0
    9.7830  -16.0621   24.3831 O   0  0  0  0  0  0  0  0  0  0  0  0
    5.4015  -12.0697   27.1155 C   0  0  0  0  0  0  0  0  0  0  0  0
    6.0001  -13.2955   26.4804 C   0  0  0  0  0  0  0  0  0  0  0  0
    7.4644  -13.1827   26.3201 C   0  0  2  0  0  0  0  0  0  0  0  0
    7.8664  -12.0169   25.4236 C   0  0  0  0  0  0  0  0  0  0  0  0
    8.2302  -14.3679   25.9001 C   0  0  2  0  0  0  0  0  0  0  0  0
    7.8629  -14.8576   24.5700 N   0  0  0  0  0  0  0  0  0  0  0  0
    8.2125  -15.5042   26.8309 C   0  0  0  0  0  0  0  0  0  0  0  0
    7.4940  -16.5325   26.6850 O   0  0  0  0  0  0  0  0  0  0  0  0
    9.0315  -15.4689   27.9498 O   0  0  0  0  0  0  0  0  0  0  0  0
  2  1  1  1
  3  2  1  0
  4  2  1  0
  4  5  1  0
  5  6  1  6
  7  5  1  0
  7  8  2  0
 10  9  1  6
 10 12  1  0
 11 10  1  0
 12 13  1  1
 13  7  1  0
 14 12  1  0
 15 14  2  0
 17 16  1  0
 17 18  1  0
 18 20  1  0
 18 19  1  6
 20 21  1  6
 20 22  1  0
 21 14  1  0
 22 24  1  0
 23 22  2  0
M  END
$$$$
