LTI.pdb
     RDKit          3D

 24 23  0  0  1  0  0  0  0  0999 V2000
    8.0054  -11.9397   18.5090 C   0  0  0  0  0  0  0  0  0  0  0  0
    8.6294  -13.2800   18.7182 C   0  0  1  0  0  0  0  0  0  0  0  0
   10.0307  -13.1296   19.2740 C   0  0  0  0  0  0  0  0  0  0  0  0
    7.8051  -14.2190   19.5320 C   0  0  0  0  0  0  0  0  0  0  0  0
    8.5595  -15.4933   19.8357 C   0  0  2  0  0  0  0  0  0  0  0  0
    8.3078  -16.4440   18.7580 N   0  0  0  0  0  0  0  0  0  0  0  0
    8.1421  -16.0992   21.1159 C   0  0  0  0  0  0  0  0  0  0  0  0
    7.0024  -16.6150   21.2470 O   0  0  0  0  0  0  0  0  0  0  0  0
    8.7984  -18.9695   22.4521 C   0  0  0  0  0  0  0  0  0  0  0  0
    9.3633  -18.0812   23.5058 C   0  0  1  0  0  0  0  0  0  0  0  0
   10.7056  -17.8070   23.1533 O   0  0  0  0  0  0  0  0  0  0  0  0
    8.6755  -16.7083   23.5080 C   0  0  2  0  0  0  0  0  0  0  0  0
    9.0299  -16.1056   22.2200 N   0  0  0  0  0  0  0  0  0  0  0  0
    9.2605  -15.8404   24.5604 C   0  0  0  0  0  0  0  0  0  0  0  0
   10.2769  -15.0980   24.3358 O   0  0  0  0  0  0  0  0  0  0  0  0
    6.2421  -12.4723   27.1807 C   0  0  0  0  0  0  0  0  0  0  0  0
    7.3896  -13.1541   26.4861 C   0  0  0  0  0  0  0  0  0  0  0  0
    8.2298  -13.9273   27.4237 C   0  0  2  0  0  0  0  0  0  0  0  0
    8.8800  -13.0490   28.4868 C   0  0  0  0  0  0  0  0  0  0  0  0
    9.2602  -14.8287   26.8822 C   0  0  2  0  0  0  0  0  0  0  0  0
    8.7470  -15.7655   25.8807 N   0  0  0  0  0  0  0  0  0  0  0  0
   10.0298  -15.5906   27.8748 C   0  0  0  0  0  0  0  0  0  0  0  0
   10.9497  -15.1027   28.5893 O   0  0  0  0  0  0  0  0  0  0  0  0
    9.7441  -16.9355   28.0581 O   0  0  0  0  0  0  0  0  0  0  0  0
  2  1  1  1
  3  2  1  0
  4  2  1  0
  4  5  1  0
  5  6  1  6
  7  5  1  0
  7  8  2  0
 10  9  1  6
 10 12  1  0
 11 10  1  0
 12 13  1  6
 13  7  1  0
 14 12  1  0
 15 14  2  0
 17 16  1  0
 17 18  1  0
 18 20  1  0
 18 19  1  1
 20 21  1  6
 20 22  1  0
 21 14  1  0
 22 24  1  0
 23 22  2  0
M  END
$$$$
