LTI.pdb
     RDKit          3D

 24 23  0  0  1  0  0  0  0  0999 V2000
    7.6589  -12.2236   18.4412 C   0  0  0  0  0  0  0  0  0  0  0  0
    8.5691  -13.3868   18.6610 C   0  0  1  0  0  0  0  0  0  0  0  0
   10.0017  -12.9165   18.8076 C   0  0  0  0  0  0  0  0  0  0  0  0
    8.1592  -14.2821   19.7808 C   0  0  0  0  0  0  0  0  0  0  0  0
    9.0581  -15.4938   19.8750 C   0  0  2  0  0  0  0  0  0  0  0  0
    8.8300  -16.3273   18.6995 N   0  0  0  0  0  0  0  0  0  0  0  0
    8.7939  -16.2937   21.0877 C   0  0  0  0  0  0  0  0  0  0  0  0
    8.0607  -17.3148   21.0428 O   0  0  0  0  0  0  0  0  0  0  0  0
    9.2951  -18.7687   22.2804 C   0  0  0  0  0  0  0  0  0  0  0  0
    9.8337  -17.9773   23.4215 C   0  0  1  0  0  0  0  0  0  0  0  0
   11.1631  -17.6181   23.0974 O   0  0  0  0  0  0  0  0  0  0  0  0
    9.0966  -16.6385   23.5711 C   0  0  2  0  0  0  0  0  0  0  0  0
    9.3692  -15.9153   22.3259 N   0  0  0  0  0  0  0  0  0  0  0  0
    9.6968  -15.8395   24.6685 C   0  0  0  0  0  0  0  0  0  0  0  0
   10.7969  -15.2053   24.5187 O   0  0  0  0  0  0  0  0  0  0  0  0
    6.6026  -12.3719   26.8751 C   0  0  0  0  0  0  0  0  0  0  0  0
    7.8284  -13.0505   26.3263 C   0  0  0  0  0  0  0  0  0  0  0  0
    8.5750  -13.7834   27.3695 C   0  0  2  0  0  0  0  0  0  0  0  0
    9.2070  -12.8532   28.3989 C   0  0  0  0  0  0  0  0  0  0  0  0
    9.5883  -14.7706   26.9620 C   0  0  2  0  0  0  0  0  0  0  0  0
    9.1075  -15.7166   25.9531 N   0  0  0  0  0  0  0  0  0  0  0  0
   10.2116  -15.5348   28.0508 C   0  0  0  0  0  0  0  0  0  0  0  0
   11.1098  -15.0823   28.8144 O   0  0  0  0  0  0  0  0  0  0  0  0
    9.8016  -16.8408   28.2751 O   0  0  0  0  0  0  0  0  0  0  0  0
  2  1  1  1
  3  2  1  0
  4  2  1  0
  4  5  1  0
  5  6  1  6
  7  5  1  0
  7  8  2  0
 10  9  1  6
 10 12  1  0
 11 10  1  0
 12 13  1  6
 13  7  1  0
 14 12  1  0
 15 14  2  0
 17 16  1  0
 17 18  1  0
 18 20  1  0
 18 19  1  1
 20 21  1  6
 20 22  1  0
 21 14  1  0
 22 24  1  0
 23 22  2  0
M  END
$$$$
