LTI.pdb
     RDKit          3D

 24 23  0  0  1  0  0  0  0  0999 V2000
    6.9691  -12.7390   17.9567 C   0  0  0  0  0  0  0  0  0  0  0  0
    7.9378  -13.4595   18.8355 C   0  0  1  0  0  0  0  0  0  0  0  0
    9.1880  -12.6280   19.0370 C   0  0  0  0  0  0  0  0  0  0  0  0
    7.3621  -13.9229   20.1306 C   0  0  0  0  0  0  0  0  0  0  0  0
    8.4177  -14.5570   21.0074 C   0  0  2  0  0  0  0  0  0  0  0  0
    8.9333  -15.7385   20.3241 N   0  0  0  0  0  0  0  0  0  0  0  0
    7.8836  -14.9602   22.3237 C   0  0  0  0  0  0  0  0  0  0  0  0
    7.2150  -14.1578   23.0246 O   0  0  0  0  0  0  0  0  0  0  0  0
    6.6102  -18.6976   23.0814 C   0  0  0  0  0  0  0  0  0  0  0  0
    7.6287  -18.2335   24.0641 C   0  0  1  0  0  0  0  0  0  0  0  0
    8.8993  -18.6026   23.5632 O   0  0  0  0  0  0  0  0  0  0  0  0
    7.6737  -16.7006   24.1416 C   0  0  2  0  0  0  0  0  0  0  0  0
    8.1214  -16.2677   22.8149 N   0  0  0  0  0  0  0  0  0  0  0  0
    8.7136  -16.2635   25.1063 C   0  0  0  0  0  0  0  0  0  0  0  0
    9.9056  -15.9873   24.7354 O   0  0  0  0  0  0  0  0  0  0  0  0
    7.3590  -12.4301   28.0075 C   0  0  0  0  0  0  0  0  0  0  0  0
    8.4269  -13.2053   27.2842 C   0  0  0  0  0  0  0  0  0  0  0  0
    8.9546  -14.3204   28.0969 C   0  0  2  0  0  0  0  0  0  0  0  0
   10.0197  -13.8678   29.0894 C   0  0  0  0  0  0  0  0  0  0  0  0
    9.4479  -15.5291   27.4162 C   0  0  2  0  0  0  0  0  0  0  0  0
    8.4728  -16.1190   26.4968 N   0  0  0  0  0  0  0  0  0  0  0  0
    9.9591  -16.5928   28.2910 C   0  0  0  0  0  0  0  0  0  0  0  0
   11.0434  -16.5250   28.9348 O   0  0  0  0  0  0  0  0  0  0  0  0
    9.2187  -17.7567   28.4364 O   0  0  0  0  0  0  0  0  0  0  0  0
  2  1  1  1
  3  2  1  0
  4  2  1  0
  4  5  1  0
  5  6  1  6
  7  5  1  0
  7  8  2  0
 10  9  1  6
 10 12  1  0
 11 10  1  0
 12 13  1  6
 13  7  1  0
 14 12  1  0
 15 14  2  0
 17 16  1  0
 17 18  1  0
 18 20  1  0
 18 19  1  6
 20 21  1  1
 20 22  1  0
 21 14  1  0
 22 24  1  0
 23 22  2  0
M  END
$$$$
