LTI.pdb
     RDKit          3D

 24 23  0  0  1  0  0  0  0  0999 V2000
    8.4693  -11.6807   18.2653 C   0  0  0  0  0  0  0  0  0  0  0  0
    9.0715  -13.0434   18.3657 C   0  0  1  0  0  0  0  0  0  0  0  0
   10.2785  -13.0216   19.2811 C   0  0  0  0  0  0  0  0  0  0  0  0
    8.1047  -14.1138   18.7438 C   0  0  0  0  0  0  0  0  0  0  0  0
    8.8158  -15.4040   19.0827 C   0  0  2  0  0  0  0  0  0  0  0  0
    8.7699  -16.2747   17.9129 N   0  0  0  0  0  0  0  0  0  0  0  0
    8.1929  -16.1031   20.2245 C   0  0  0  0  0  0  0  0  0  0  0  0
    7.3031  -16.9734   20.0436 O   0  0  0  0  0  0  0  0  0  0  0  0
    7.9899  -18.5515   21.3368 C   0  0  0  0  0  0  0  0  0  0  0  0
    8.4791  -17.9303   22.5990 C   0  0  1  0  0  0  0  0  0  0  0  0
    9.8894  -17.8569   22.5157 O   0  0  0  0  0  0  0  0  0  0  0  0
    8.0218  -16.4692   22.7174 C   0  0  2  0  0  0  0  0  0  0  0  0
    8.5955  -15.7973   21.5481 N   0  0  0  0  0  0  0  0  0  0  0  0
    8.6284  -15.8346   23.9142 C   0  0  0  0  0  0  0  0  0  0  0  0
    9.8237  -15.3807   23.9054 O   0  0  0  0  0  0  0  0  0  0  0  0
    6.9683  -11.2409   26.8799 C   0  0  0  0  0  0  0  0  0  0  0  0
    7.5829  -12.5468   27.3055 C   0  0  0  0  0  0  0  0  0  0  0  0
    7.3120  -13.6321   26.3405 C   0  0  2  0  0  0  0  0  0  0  0  0
    5.9637  -14.3030   26.5783 C   0  0  0  0  0  0  0  0  0  0  0  0
    8.3209  -14.6875   26.1511 C   0  0  2  0  0  0  0  0  0  0  0  0
    7.9416  -15.6825   25.1461 N   0  0  0  0  0  0  0  0  0  0  0  0
    8.7409  -15.3971   27.3669 C   0  0  0  0  0  0  0  0  0  0  0  0
    8.4199  -16.5868   27.6433 O   0  0  0  0  0  0  0  0  0  0  0  0
    9.5445  -14.7380   28.2856 O   0  0  0  0  0  0  0  0  0  0  0  0
  2  1  1  1
  3  2  1  0
  4  2  1  0
  4  5  1  0
  5  6  1  6
  7  5  1  0
  7  8  2  0
 10  9  1  6
 10 12  1  0
 11 10  1  0
 12 13  1  6
 13  7  1  0
 14 12  1  0
 15 14  2  0
 17 16  1  0
 17 18  1  0
 18 20  1  0
 18 19  1  1
 20 21  1  6
 20 22  1  0
 21 14  1  0
 22 24  1  0
 23 22  2  0
M  END
$$$$
