LTI.pdb
     RDKit          3D

 24 23  0  0  1  0  0  0  0  0999 V2000
    8.3036  -12.0006   18.6494 C   0  0  0  0  0  0  0  0  0  0  0  0
    8.8944  -13.3720   18.6525 C   0  0  1  0  0  0  0  0  0  0  0  0
    9.9276  -13.4998   19.7531 C   0  0  0  0  0  0  0  0  0  0  0  0
    7.8888  -14.4719   18.7018 C   0  0  0  0  0  0  0  0  0  0  0  0
    8.4894  -15.7432   19.2568 C   0  0  2  0  0  0  0  0  0  0  0  0
    8.3220  -16.8010   18.2659 N   0  0  0  0  0  0  0  0  0  0  0  0
    7.8456  -16.1623   20.5178 C   0  0  0  0  0  0  0  0  0  0  0  0
    6.6469  -16.5428   20.5376 O   0  0  0  0  0  0  0  0  0  0  0  0
    7.8228  -18.8865   22.0409 C   0  0  0  0  0  0  0  0  0  0  0  0
    8.4201  -18.0607   23.1270 C   0  0  1  0  0  0  0  0  0  0  0  0
    9.8213  -18.0546   22.9322 O   0  0  0  0  0  0  0  0  0  0  0  0
    8.0056  -16.5875   23.0020 C   0  0  2  0  0  0  0  0  0  0  0  0
    8.5790  -16.1397   21.7299 N   0  0  0  0  0  0  0  0  0  0  0  0
    8.6487  -15.7789   24.0678 C   0  0  0  0  0  0  0  0  0  0  0  0
    9.7575  -15.1713   23.8784 O   0  0  0  0  0  0  0  0  0  0  0  0
    5.9791  -12.0316   26.5364 C   0  0  0  0  0  0  0  0  0  0  0  0
    7.0540  -12.8643   25.8917 C   0  0  0  0  0  0  0  0  0  0  0  0
    7.7700  -13.7072   26.8713 C   0  0  2  0  0  0  0  0  0  0  0  0
    8.5053  -12.8848   27.9235 C   0  0  0  0  0  0  0  0  0  0  0  0
    8.6880  -14.7487   26.3811 C   0  0  2  0  0  0  0  0  0  0  0  0
    8.0935  -15.6173   25.3632 N   0  0  0  0  0  0  0  0  0  0  0  0
    9.3010  -15.5979   27.4111 C   0  0  0  0  0  0  0  0  0  0  0  0
    8.8643  -16.7334   27.7497 O   0  0  0  0  0  0  0  0  0  0  0  0
   10.4359  -15.1447   28.0674 O   0  0  0  0  0  0  0  0  0  0  0  0
  2  1  1  1
  3  2  1  0
  4  2  1  0
  4  5  1  0
  5  6  1  6
  7  5  1  0
  7  8  2  0
 10  9  1  6
 10 12  1  0
 11 10  1  0
 12 13  1  6
 13  7  1  0
 14 12  1  0
 15 14  2  0
 17 16  1  0
 17 18  1  0
 18 20  1  0
 18 19  1  1
 20 21  1  6
 20 22  1  0
 21 14  1  0
 22 24  1  0
 23 22  2  0
M  END
$$$$
