LTI.pdb
     RDKit          3D

 24 23  0  0  1  0  0  0  0  0999 V2000
    7.6062  -12.0109   18.5192 C   0  0  0  0  0  0  0  0  0  0  0  0
    8.2748  -13.3139   18.8108 C   0  0  1  0  0  0  0  0  0  0  0  0
    9.6493  -13.0815   19.4040 C   0  0  0  0  0  0  0  0  0  0  0  0
    7.4605  -14.2478   19.6405 C   0  0  0  0  0  0  0  0  0  0  0  0
    8.2125  -15.5271   19.9289 C   0  0  2  0  0  0  0  0  0  0  0  0
    7.9747  -16.4572   18.8301 N   0  0  0  0  0  0  0  0  0  0  0  0
    7.7801  -16.1578   21.1920 C   0  0  0  0  0  0  0  0  0  0  0  0
    6.7962  -16.9409   21.2212 O   0  0  0  0  0  0  0  0  0  0  0  0
    7.5629  -18.5747   22.4395 C   0  0  0  0  0  0  0  0  0  0  0  0
    8.3678  -17.9704   23.5374 C   0  0  1  0  0  0  0  0  0  0  0  0
    9.7274  -18.0388   23.1524 O   0  0  0  0  0  0  0  0  0  0  0  0
    8.0810  -16.4687   23.6801 C   0  0  2  0  0  0  0  0  0  0  0  0
    8.4760  -15.8843   22.3955 N   0  0  0  0  0  0  0  0  0  0  0  0
    8.9660  -15.8706   24.7108 C   0  0  0  0  0  0  0  0  0  0  0  0
   10.1536  -15.4829   24.4389 O   0  0  0  0  0  0  0  0  0  0  0  0
    6.7596  -11.8524   27.0537 C   0  0  0  0  0  0  0  0  0  0  0  0
    7.6936  -12.8473   26.4196 C   0  0  0  0  0  0  0  0  0  0  0  0
    8.4227  -13.6478   27.4247 C   0  0  2  0  0  0  0  0  0  0  0  0
    9.2530  -12.7854   28.3688 C   0  0  0  0  0  0  0  0  0  0  0  0
    9.2625  -14.7692   26.9720 C   0  0  2  0  0  0  0  0  0  0  0  0
    8.5717  -15.6836   26.0606 N   0  0  0  0  0  0  0  0  0  0  0  0
    9.8936  -15.5652   28.0331 C   0  0  0  0  0  0  0  0  0  0  0  0
   10.8710  -15.1740   28.7305 O   0  0  0  0  0  0  0  0  0  0  0  0
    9.3998  -16.8323   28.3062 O   0  0  0  0  0  0  0  0  0  0  0  0
  2  1  1  1
  3  2  1  0
  4  2  1  0
  4  5  1  0
  5  6  1  6
  7  5  1  0
  7  8  2  0
 10  9  1  6
 10 12  1  0
 11 10  1  0
 12 13  1  6
 13  7  1  0
 14 12  1  0
 15 14  2  0
 17 16  1  0
 17 18  1  0
 18 20  1  0
 18 19  1  6
 20 21  1  1
 20 22  1  0
 21 14  1  0
 22 24  1  0
 23 22  2  0
M  END
$$$$
