LTI.pdb
     RDKit          3D

 24 23  0  0  1  0  0  0  0  0999 V2000
    9.4045  -12.7246   20.3025 C   0  0  0  0  0  0  0  0  0  0  0  0
    8.1818  -13.5130   19.9662 C   0  0  1  0  0  0  0  0  0  0  0  0
    7.0577  -12.5899   19.5426 C   0  0  0  0  0  0  0  0  0  0  0  0
    8.4099  -14.6041   18.9758 C   0  0  0  0  0  0  0  0  0  0  0  0
    9.2342  -15.7236   19.5693 C   0  0  2  0  0  0  0  0  0  0  0  0
    9.3306  -16.7952   18.5838 N   0  0  0  0  0  0  0  0  0  0  0  0
    8.6363  -16.2635   20.8067 C   0  0  0  0  0  0  0  0  0  0  0  0
    7.4489  -16.6781   20.8247 O   0  0  0  0  0  0  0  0  0  0  0  0
    8.8644  -19.1030   22.3651 C   0  0  0  0  0  0  0  0  0  0  0  0
    9.3597  -18.2081   23.4478 C   0  0  1  0  0  0  0  0  0  0  0  0
   10.7621  -18.0978   23.2973 O   0  0  0  0  0  0  0  0  0  0  0  0
    8.8376  -16.7748   23.2716 C   0  0  2  0  0  0  0  0  0  0  0  0
    9.4018  -16.3206   21.9976 N   0  0  0  0  0  0  0  0  0  0  0  0
    9.3954  -15.8900   24.3247 C   0  0  0  0  0  0  0  0  0  0  0  0
   10.5506  -15.3534   24.2140 O   0  0  0  0  0  0  0  0  0  0  0  0
    6.6124  -11.8380   26.1082 C   0  0  0  0  0  0  0  0  0  0  0  0
    7.7505  -12.7246   25.6804 C   0  0  0  0  0  0  0  0  0  0  0  0
    8.2913  -13.5192   26.8024 C   0  0  2  0  0  0  0  0  0  0  0  0
    8.9174  -12.6494   27.8867 C   0  0  0  0  0  0  0  0  0  0  0  0
    9.2178  -14.6260   26.5122 C   0  0  2  0  0  0  0  0  0  0  0  0
    8.7024  -15.5727   25.5212 N   0  0  0  0  0  0  0  0  0  0  0  0
    9.6893  -15.3880   27.6763 C   0  0  0  0  0  0  0  0  0  0  0  0
   10.6144  -15.0088   28.4478 O   0  0  0  0  0  0  0  0  0  0  0  0
    9.0932  -16.6060   27.9681 O   0  0  0  0  0  0  0  0  0  0  0  0
  2  1  1  6
  3  2  1  0
  4  2  1  0
  4  5  1  0
  5  6  1  6
  7  5  1  0
  7  8  2  0
 10  9  1  6
 10 12  1  0
 11 10  1  0
 12 13  1  6
 13  7  1  0
 14 12  1  0
 15 14  2  0
 17 16  1  0
 17 18  1  0
 18 20  1  0
 18 19  1  1
 20 21  1  6
 20 22  1  0
 21 14  1  0
 22 24  1  0
 23 22  2  0
M  END
$$$$
