LTI.pdb
     RDKit          3D

 24 23  0  0  1  0  0  0  0  0999 V2000
    7.4290  -12.3767   18.9370 C   0  0  0  0  0  0  0  0  0  0  0  0
    8.1887  -13.5468   19.4695 C   0  0  1  0  0  0  0  0  0  0  0  0
    8.0827  -13.6028   20.9797 C   0  0  0  0  0  0  0  0  0  0  0  0
    7.8303  -14.8487   18.8371 C   0  0  0  0  0  0  0  0  0  0  0  0
    8.4536  -16.0106   19.5765 C   0  0  2  0  0  0  0  0  0  0  0  0
    8.3608  -17.1960   18.7309 N   0  0  0  0  0  0  0  0  0  0  0  0
    7.7776  -16.2843   20.8604 C   0  0  0  0  0  0  0  0  0  0  0  0
    6.5230  -16.3383   20.9330 O   0  0  0  0  0  0  0  0  0  0  0  0
    7.5180  -19.0674   22.6383 C   0  0  0  0  0  0  0  0  0  0  0  0
    8.1610  -18.1911   23.6567 C   0  0  1  0  0  0  0  0  0  0  0  0
    9.5604  -18.3620   23.5393 O   0  0  0  0  0  0  0  0  0  0  0  0
    7.9250  -16.7060   23.3460 C   0  0  2  0  0  0  0  0  0  0  0  0
    8.5430  -16.4909   22.0347 N   0  0  0  0  0  0  0  0  0  0  0  0
    8.6641  -15.8538   24.3107 C   0  0  0  0  0  0  0  0  0  0  0  0
    9.7796  -15.3055   24.0109 O   0  0  0  0  0  0  0  0  0  0  0  0
    6.3935  -11.6383   26.2301 C   0  0  0  0  0  0  0  0  0  0  0  0
    7.3907  -12.6504   25.7345 C   0  0  0  0  0  0  0  0  0  0  0  0
    7.9571  -13.4601   26.8328 C   0  0  2  0  0  0  0  0  0  0  0  0
    8.6622  -12.6092   27.8831 C   0  0  0  0  0  0  0  0  0  0  0  0
    8.8317  -14.5978   26.5035 C   0  0  2  0  0  0  0  0  0  0  0  0
    8.1998  -15.5828   25.6235 N   0  0  0  0  0  0  0  0  0  0  0  0
    9.4146  -15.3094   27.6488 C   0  0  0  0  0  0  0  0  0  0  0  0
   10.5161  -15.0084   28.1880 O   0  0  0  0  0  0  0  0  0  0  0  0
    8.7274  -16.3851   28.1918 O   0  0  0  0  0  0  0  0  0  0  0  0
  2  1  1  6
  3  2  1  0
  4  2  1  0
  4  5  1  0
  5  6  1  6
  7  5  1  0
  7  8  2  0
 10  9  1  6
 10 12  1  0
 11 10  1  0
 12 13  1  6
 13  7  1  0
 14 12  1  0
 15 14  2  0
 17 16  1  0
 17 18  1  0
 18 20  1  0
 18 19  1  1
 20 21  1  1
 20 22  1  0
 21 14  1  0
 22 24  1  0
 23 22  2  0
M  END
$$$$
