LTI.pdb
     RDKit          3D

 24 23  0  0  1  0  0  0  0  0999 V2000
    7.7720  -11.8907   18.5647 C   0  0  0  0  0  0  0  0  0  0  0  0
    8.2643  -13.2939   18.7002 C   0  0  1  0  0  0  0  0  0  0  0  0
    9.7735  -13.3141   18.8311 C   0  0  0  0  0  0  0  0  0  0  0  0
    7.6006  -14.0738   19.7840 C   0  0  0  0  0  0  0  0  0  0  0  0
    8.1835  -15.4639   19.8990 C   0  0  2  0  0  0  0  0  0  0  0  0
    7.6642  -16.2718   18.8007 N   0  0  0  0  0  0  0  0  0  0  0  0
    7.8338  -16.1133   21.1781 C   0  0  0  0  0  0  0  0  0  0  0  0
    6.6466  -16.4399   21.4352 O   0  0  0  0  0  0  0  0  0  0  0  0
    9.1406  -18.8399   24.9192 C   0  0  0  0  0  0  0  0  0  0  0  0
    9.3078  -18.2159   23.5771 C   0  0  1  0  0  0  0  0  0  0  0  0
    8.6836  -19.0661   22.6343 O   0  0  0  0  0  0  0  0  0  0  0  0
    8.5359  -16.8924   23.4754 C   0  0  2  0  0  0  0  0  0  0  0  0
    8.8419  -16.3777   22.1378 N   0  0  0  0  0  0  0  0  0  0  0  0
    9.0739  -15.9060   24.4454 C   0  0  0  0  0  0  0  0  0  0  0  0
   10.2255  -15.3709   24.2960 O   0  0  0  0  0  0  0  0  0  0  0  0
    5.8995  -12.0482   26.3704 C   0  0  0  0  0  0  0  0  0  0  0  0
    7.0987  -12.7785   25.8292 C   0  0  0  0  0  0  0  0  0  0  0  0
    7.8656  -13.4581   26.8934 C   0  0  2  0  0  0  0  0  0  0  0  0
    8.5136  -12.4775   27.8645 C   0  0  0  0  0  0  0  0  0  0  0  0
    8.8741  -14.4624   26.5166 C   0  0  2  0  0  0  0  0  0  0  0  0
    8.3648  -15.4836   25.5991 N   0  0  0  0  0  0  0  0  0  0  0  0
    9.5504  -15.1396   27.6310 C   0  0  0  0  0  0  0  0  0  0  0  0
   10.5841  -14.7007   28.2085 O   0  0  0  0  0  0  0  0  0  0  0  0
    9.0373  -16.3408   28.0979 O   0  0  0  0  0  0  0  0  0  0  0  0
  2  1  1  1
  3  2  1  0
  4  2  1  0
  4  5  1  0
  5  6  1  6
  7  5  1  0
  7  8  2  0
 10  9  1  1
 10 12  1  0
 11 10  1  0
 12 13  1  6
 13  7  1  0
 14 12  1  0
 15 14  2  0
 17 16  1  0
 17 18  1  0
 18 20  1  0
 18 19  1  6
 20 21  1  6
 20 22  1  0
 21 14  1  0
 22 24  1  0
 23 22  2  0
M  END
$$$$
