LTI.pdb
     RDKit          3D

 24 23  0  0  1  0  0  0  0  0999 V2000
    7.6353  -11.9247   18.5709 C   0  0  0  0  0  0  0  0  0  0  0  0
    8.2867  -13.2451   18.8200 C   0  0  1  0  0  0  0  0  0  0  0  0
    9.7480  -13.0553   19.1721 C   0  0  0  0  0  0  0  0  0  0  0  0
    7.5795  -14.0983   19.8177 C   0  0  0  0  0  0  0  0  0  0  0  0
    8.3276  -15.3876   20.0690 C   0  0  2  0  0  0  0  0  0  0  0  0
    8.0631  -16.2960   18.9584 N   0  0  0  0  0  0  0  0  0  0  0  0
    7.9142  -16.0381   21.3285 C   0  0  0  0  0  0  0  0  0  0  0  0
    6.7274  -16.4167   21.5026 O   0  0  0  0  0  0  0  0  0  0  0  0
    8.4980  -19.0818   22.7553 C   0  0  0  0  0  0  0  0  0  0  0  0
    9.1078  -18.1605   23.7542 C   0  0  1  0  0  0  0  0  0  0  0  0
   10.4583  -17.9652   23.3808 O   0  0  0  0  0  0  0  0  0  0  0  0
    8.4798  -16.7611   23.6812 C   0  0  2  0  0  0  0  0  0  0  0  0
    8.8596  -16.2443   22.3635 N   0  0  0  0  0  0  0  0  0  0  0  0
    9.1019  -15.8639   24.6867 C   0  0  0  0  0  0  0  0  0  0  0  0
   10.1957  -15.2442   24.4541 O   0  0  0  0  0  0  0  0  0  0  0  0
    6.6041  -11.8738   26.9067 C   0  0  0  0  0  0  0  0  0  0  0  0
    7.6414  -12.7990   26.3303 C   0  0  0  0  0  0  0  0  0  0  0  0
    8.2923  -13.6241   27.3686 C   0  0  2  0  0  0  0  0  0  0  0  0
    9.0515  -12.7858   28.3909 C   0  0  0  0  0  0  0  0  0  0  0  0
    9.1613  -14.7381   26.9546 C   0  0  2  0  0  0  0  0  0  0  0  0
    8.5416  -15.6249   25.9679 N   0  0  0  0  0  0  0  0  0  0  0  0
    9.7037  -15.5647   28.0412 C   0  0  0  0  0  0  0  0  0  0  0  0
    9.2535  -16.6994   28.3647 O   0  0  0  0  0  0  0  0  0  0  0  0
   10.7820  -15.0894   28.7728 O   0  0  0  0  0  0  0  0  0  0  0  0
  2  1  1  1
  3  2  1  0
  4  2  1  0
  4  5  1  0
  5  6  1  6
  7  5  1  0
  7  8  2  0
 10  9  1  6
 10 12  1  0
 11 10  1  0
 12 13  1  6
 13  7  1  0
 14 12  1  0
 15 14  2  0
 17 16  1  0
 17 18  1  0
 18 20  1  0
 18 19  1  6
 20 21  1  6
 20 22  1  0
 21 14  1  0
 22 24  1  0
 23 22  2  0
M  END
$$$$
