LTI.pdb
     RDKit          3D

 24 23  0  0  1  0  0  0  0  0999 V2000
    0.6377  -19.2617   20.8190 C   0  0  0  0  0  0  0  0  0  0  0  0
    2.1044  -19.5421   20.8260 C   0  0  1  0  0  0  0  0  0  0  0  0
    2.7943  -18.7752   19.7165 C   0  0  0  0  0  0  0  0  0  0  0  0
    2.7629  -19.3253   22.1462 C   0  0  0  0  0  0  0  0  0  0  0  0
    4.2477  -19.5995   22.0730 C   0  0  2  0  0  0  0  0  0  0  0  0
    4.4394  -20.9685   21.6063 N   0  0  0  0  0  0  0  0  0  0  0  0
    4.9110  -19.4430   23.3828 C   0  0  0  0  0  0  0  0  0  0  0  0
    4.7813  -20.3126   24.2824 O   0  0  0  0  0  0  0  0  0  0  0  0
    6.8493  -20.5864   24.8632 C   0  0  0  0  0  0  0  0  0  0  0  0
    7.4885  -19.2420   24.9110 C   0  0  1  0  0  0  0  0  0  0  0  0
    8.2047  -19.0706   23.7031 O   0  0  0  0  0  0  0  0  0  0  0  0
    6.4378  -18.1223   24.9002 C   0  0  2  0  0  0  0  0  0  0  0  0
    5.7079  -18.3005   23.6420 N   0  0  0  0  0  0  0  0  0  0  0  0
    7.0991  -16.7956   24.8254 C   0  0  0  0  0  0  0  0  0  0  0  0
    7.4048  -16.2553   23.7076 O   0  0  0  0  0  0  0  0  0  0  0  0
    5.3299  -12.3299   26.9810 C   0  0  0  0  0  0  0  0  0  0  0  0
    6.0254  -13.3064   26.0716 C   0  0  0  0  0  0  0  0  0  0  0  0
    7.3814  -13.6460   26.5496 C   0  0  2  0  0  0  0  0  0  0  0  0
    8.2979  -12.4297   26.6213 C   0  0  0  0  0  0  0  0  0  0  0  0
    8.1189  -14.7361   25.8898 C   0  0  2  0  0  0  0  0  0  0  0  0
    7.4404  -16.0311   25.9707 N   0  0  0  0  0  0  0  0  0  0  0  0
    9.5120  -14.9179   26.3191 C   0  0  0  0  0  0  0  0  0  0  0  0
    9.8823  -15.7378   27.2053 O   0  0  0  0  0  0  0  0  0  0  0  0
   10.5034  -14.1508   25.7252 O   0  0  0  0  0  0  0  0  0  0  0  0
  2  1  1  1
  3  2  1  0
  4  2  1  0
  4  5  1  0
  5  6  1  1
  7  5  1  0
  7  8  2  0
 10  9  1  6
 10 12  1  0
 11 10  1  0
 12 13  1  6
 13  7  1  0
 14 12  1  0
 15 14  2  0
 17 16  1  0
 17 18  1  0
 18 20  1  0
 18 19  1  6
 20 21  1  1
 20 22  1  0
 21 14  1  0
 22 24  1  0
 23 22  2  0
M  END
$$$$
