LTI.pdb
     RDKit          3D

 24 23  0  0  1  0  0  0  0  0999 V2000
    6.8917  -13.1442   17.2878 C   0  0  0  0  0  0  0  0  0  0  0  0
    7.9613  -13.4942   18.2693 C   0  0  1  0  0  0  0  0  0  0  0  0
    8.8718  -12.3064   18.5046 C   0  0  0  0  0  0  0  0  0  0  0  0
    7.4543  -14.0696   19.5481 C   0  0  0  0  0  0  0  0  0  0  0  0
    8.5831  -14.3388   20.5169 C   0  0  2  0  0  0  0  0  0  0  0  0
    9.5266  -15.2518   19.8806 N   0  0  0  0  0  0  0  0  0  0  0  0
    8.1068  -14.9440   21.7768 C   0  0  0  0  0  0  0  0  0  0  0  0
    7.0836  -14.5033   22.3606 O   0  0  0  0  0  0  0  0  0  0  0  0
    8.2012  -18.8509   22.4760 C   0  0  0  0  0  0  0  0  0  0  0  0
    8.9073  -18.0918   23.5453 C   0  0  1  0  0  0  0  0  0  0  0  0
   10.2649  -17.9843   23.1621 O   0  0  0  0  0  0  0  0  0  0  0  0
    8.4109  -16.6408   23.6224 C   0  0  2  0  0  0  0  0  0  0  0  0
    8.8046  -16.0379   22.3460 N   0  0  0  0  0  0  0  0  0  0  0  0
    9.1384  -15.9028   24.6851 C   0  0  0  0  0  0  0  0  0  0  0  0
   10.2039  -15.2404   24.4390 O   0  0  0  0  0  0  0  0  0  0  0  0
    6.6687  -12.3226   27.3554 C   0  0  0  0  0  0  0  0  0  0  0  0
    7.7533  -13.1073   26.6683 C   0  0  0  0  0  0  0  0  0  0  0  0
    8.4771  -13.9947   27.6017 C   0  0  2  0  0  0  0  0  0  0  0  0
    9.2562  -13.2206   28.6591 C   0  0  0  0  0  0  0  0  0  0  0  0
    9.3606  -15.0378   27.0550 C   0  0  2  0  0  0  0  0  0  0  0  0
    8.7168  -15.8732   26.0393 N   0  0  0  0  0  0  0  0  0  0  0  0
    9.9963  -15.9203   28.0425 C   0  0  0  0  0  0  0  0  0  0  0  0
   10.8885  -15.5513   28.8565 O   0  0  0  0  0  0  0  0  0  0  0  0
    9.6060  -17.2499   28.1049 O   0  0  0  0  0  0  0  0  0  0  0  0
  2  1  1  6
  3  2  1  0
  4  2  1  0
  4  5  1  0
  5  6  1  6
  7  5  1  0
  7  8  2  0
 10  9  1  6
 10 12  1  0
 11 10  1  0
 12 13  1  6
 13  7  1  0
 14 12  1  0
 15 14  2  0
 17 16  1  0
 17 18  1  0
 18 20  1  0
 18 19  1  1
 20 21  1  6
 20 22  1  0
 21 14  1  0
 22 24  1  0
 23 22  2  0
M  END
$$$$
