LTI.pdb
     RDKit          3D

 24 23  0  0  1  0  0  0  0  0999 V2000
    7.5068  -12.1732   18.4834 C   0  0  0  0  0  0  0  0  0  0  0  0
    8.3806  -13.3464   18.7830 C   0  0  1  0  0  0  0  0  0  0  0  0
    9.3976  -12.9896   19.8477 C   0  0  0  0  0  0  0  0  0  0  0  0
    7.6364  -14.5941   19.1192 C   0  0  0  0  0  0  0  0  0  0  0  0
    8.5488  -15.6315   19.7330 C   0  0  2  0  0  0  0  0  0  0  0  0
    8.7475  -16.7011   18.7607 N   0  0  0  0  0  0  0  0  0  0  0  0
    7.9876  -16.2082   20.9710 C   0  0  0  0  0  0  0  0  0  0  0  0
    7.0197  -17.0105   20.9308 O   0  0  0  0  0  0  0  0  0  0  0  0
    7.5348  -18.5223   22.1952 C   0  0  0  0  0  0  0  0  0  0  0  0
    8.3099  -17.9561   23.3340 C   0  0  1  0  0  0  0  0  0  0  0  0
    9.6821  -18.0619   23.0062 O   0  0  0  0  0  0  0  0  0  0  0  0
    8.0630  -16.4479   23.4839 C   0  0  2  0  0  0  0  0  0  0  0  0
    8.5392  -15.8600   22.2287 N   0  0  0  0  0  0  0  0  0  0  0  0
    8.9138  -15.8913   24.5653 C   0  0  0  0  0  0  0  0  0  0  0  0
   10.1270  -15.5441   24.3593 O   0  0  0  0  0  0  0  0  0  0  0  0
    6.5801  -12.1225   27.0553 C   0  0  0  0  0  0  0  0  0  0  0  0
    7.7248  -12.8690   26.4254 C   0  0  0  0  0  0  0  0  0  0  0  0
    8.4113  -13.7544   27.3884 C   0  0  2  0  0  0  0  0  0  0  0  0
    9.2928  -12.9842   28.3652 C   0  0  0  0  0  0  0  0  0  0  0  0
    9.1843  -14.8996   26.8800 C   0  0  2  0  0  0  0  0  0  0  0  0
    8.4568  -15.7024   25.8950 N   0  0  0  0  0  0  0  0  0  0  0  0
    9.7321  -15.8051   27.8988 C   0  0  0  0  0  0  0  0  0  0  0  0
    9.2285  -16.9227   28.2024 O   0  0  0  0  0  0  0  0  0  0  0  0
   10.8780  -15.4301   28.5845 O   0  0  0  0  0  0  0  0  0  0  0  0
  2  1  1  1
  3  2  1  0
  4  2  1  0
  4  5  1  0
  5  6  1  6
  7  5  1  0
  7  8  2  0
 10  9  1  6
 10 12  1  0
 11 10  1  0
 12 13  1  6
 13  7  1  0
 14 12  1  0
 15 14  2  0
 17 16  1  0
 17 18  1  0
 18 20  1  0
 18 19  1  6
 20 21  1  6
 20 22  1  0
 21 14  1  0
 22 24  1  0
 23 22  2  0
M  END
$$$$
