VTS.pdb
     RDKit          3D

 21 20  0  0  1  0  0  0  0  0999 V2000
    7.7541  -12.2144   19.3182 C   0  0  0  0  0  0  0  0  0  0  0  0
    7.8949  -13.4739   20.1161 C   0  0  2  0  0  0  0  0  0  0  0  0
    8.5316  -13.2062   21.4800 C   0  0  0  0  0  0  0  0  0  0  0  0
    8.7551  -14.5157   19.4457 C   0  0  2  0  0  0  0  0  0  0  0  0
    8.1566  -14.8329   18.1754 N   0  0  0  0  0  0  0  0  0  0  0  0
    8.8517  -15.7658   20.2375 C   0  0  0  0  0  0  0  0  0  0  0  0
    7.8926  -16.5765   20.3004 O   0  0  0  0  0  0  0  0  0  0  0  0
   10.3594  -18.6216   19.6449 C   0  0  0  0  0  0  0  0  0  0  0  0
   11.0371  -18.2566   20.9330 C   0  0  1  0  0  0  0  0  0  0  0  0
   12.2537  -17.6311   20.5999 O   0  0  0  0  0  0  0  0  0  0  0  0
   10.1711  -17.2917   21.7551 C   0  0  2  0  0  0  0  0  0  0  0  0
   10.0457  -16.0929   20.9600 N   0  0  0  0  0  0  0  0  0  0  0  0
   10.7937  -17.0084   23.0628 C   0  0  0  0  0  0  0  0  0  0  0  0
   11.6018  -16.0487   23.1344 O   0  0  0  0  0  0  0  0  0  0  0  0
    9.3691  -18.6548   26.4760 O   0  0  0  0  0  0  0  0  0  0  0  0
   10.1349  -17.5042   26.5796 C   0  0  0  0  0  0  0  0  0  0  0  0
   11.1554  -17.4469   25.4657 C   0  0  2  0  0  0  0  0  0  0  0  0
   10.5029  -17.7831   24.2171 N   0  0  0  0  0  0  0  0  0  0  0  0
   12.2626  -18.4112   25.6894 C   0  0  0  0  0  0  0  0  0  0  0  0
   13.1514  -18.2797   26.7357 O   0  0  0  0  0  0  0  0  0  0  0  0
   12.3845  -19.3811   24.8872 O   0  0  0  0  0  0  0  0  0  0  0  0
  2  1  1  6
  2  3  1  0
  4  6  1  0
  4  2  1  0
  4  5  1  6
  6 12  1  0
  7  6  2  0
  9  8  1  6
  9 11  1  0
 10  9  1  0
 11 13  1  0
 11 12  1  6
 13 14  2  0
 13 18  1  0
 16 15  1  0
 17 19  1  0
 17 16  1  1
 18 17  1  0
 19 20  1  0
 21 19  2  0
M  END
$$$$
