VTS.pdb
     RDKit          3D

 21 20  0  0  1  0  0  0  0  0999 V2000
   10.5786  -21.5202   12.6171 C   0  0  0  0  0  0  0  0  0  0  0  0
   10.5653  -20.7943   13.9270 C   0  0  2  0  0  0  0  0  0  0  0  0
   11.3483  -21.5540   14.9979 C   0  0  0  0  0  0  0  0  0  0  0  0
    9.1790  -20.5878   14.4843 C   0  0  2  0  0  0  0  0  0  0  0  0
    8.4328  -19.8039   13.5350 N   0  0  0  0  0  0  0  0  0  0  0  0
    9.1904  -19.8619   15.7773 C   0  0  0  0  0  0  0  0  0  0  0  0
    9.5238  -18.6514   15.8455 O   0  0  0  0  0  0  0  0  0  0  0  0
    6.4090  -19.3276   18.0977 C   0  0  0  0  0  0  0  0  0  0  0  0
    7.4547  -20.0557   18.8904 C   0  0  1  0  0  0  0  0  0  0  0  0
    7.1211  -21.4233   18.8612 O   0  0  0  0  0  0  0  0  0  0  0  0
    8.8479  -19.8532   18.2784 C   0  0  2  0  0  0  0  0  0  0  0  0
    8.8206  -20.5182   16.9969 N   0  0  0  0  0  0  0  0  0  0  0  0
    9.8950  -20.4139   19.1542 C   0  0  0  0  0  0  0  0  0  0  0  0
   10.1690  -21.6347   19.0369 O   0  0  0  0  0  0  0  0  0  0  0  0
   13.7706  -19.1601   20.7419 O   0  0  0  0  0  0  0  0  0  0  0  0
   12.5529  -19.1301   21.4033 C   0  0  0  0  0  0  0  0  0  0  0  0
   11.6441  -20.2221   20.8866 C   0  0  2  0  0  0  0  0  0  0  0  0
   10.5841  -19.6170   20.1066 N   0  0  0  0  0  0  0  0  0  0  0  0
   11.0271  -20.9904   21.9978 C   0  0  0  0  0  0  0  0  0  0  0  0
   11.7000  -21.9976   22.6571 O   0  0  0  0  0  0  0  0  0  0  0  0
    9.8449  -20.7024   22.3421 O   0  0  0  0  0  0  0  0  0  0  0  0
  2  1  1  6
  2  3  1  0
  4  6  1  0
  4  2  1  0
  4  5  1  6
  6 12  1  0
  7  6  2  0
  9  8  1  6
  9 11  1  0
 10  9  1  0
 11 13  1  0
 11 12  1  6
 13 14  2  0
 13 18  1  0
 16 15  1  0
 17 19  1  0
 17 16  1  1
 18 17  1  0
 19 20  1  0
 21 19  2  0
M  END
$$$$
