VTS.pdb
     RDKit          3D

 21 20  0  0  1  0  0  0  0  0999 V2000
   10.2117  -17.6980   15.0992 C   0  0  0  0  0  0  0  0  0  0  0  0
    8.7914  -17.3318   15.4017 C   0  0  2  0  0  0  0  0  0  0  0  0
    7.8266  -17.9343   14.3802 C   0  0  0  0  0  0  0  0  0  0  0  0
    8.5406  -15.8445   15.3934 C   0  0  2  0  0  0  0  0  0  0  0  0
    8.8425  -15.3523   14.0747 N   0  0  0  0  0  0  0  0  0  0  0  0
    9.3952  -15.1205   16.3652 C   0  0  0  0  0  0  0  0  0  0  0  0
   10.5254  -14.6762   16.0391 O   0  0  0  0  0  0  0  0  0  0  0  0
    7.8794  -12.6413   19.0650 C   0  0  0  0  0  0  0  0  0  0  0  0
    8.8011  -13.6290   19.7182 C   0  0  1  0  0  0  0  0  0  0  0  0
    7.9985  -14.6509   20.2605 O   0  0  0  0  0  0  0  0  0  0  0  0
    9.7766  -14.2293   18.6961 C   0  0  2  0  0  0  0  0  0  0  0  0
    8.9599  -14.9020   17.7134 N   0  0  0  0  0  0  0  0  0  0  0  0
   10.7145  -15.1638   19.3481 C   0  0  0  0  0  0  0  0  0  0  0  0
   10.3729  -16.3693   19.4440 O   0  0  0  0  0  0  0  0  0  0  0  0
   14.5872  -14.0776   20.3985 O   0  0  0  0  0  0  0  0  0  0  0  0
   14.2825  -15.3780   20.0282 C   0  0  0  0  0  0  0  0  0  0  0  0
   12.8649  -15.7219   20.4255 C   0  0  2  0  0  0  0  0  0  0  0  0
   11.9688  -14.7355   19.8582 N   0  0  0  0  0  0  0  0  0  0  0  0
   12.6945  -15.7151   21.9009 C   0  0  0  0  0  0  0  0  0  0  0  0
   11.7898  -14.8877   22.5324 O   0  0  0  0  0  0  0  0  0  0  0  0
   13.4083  -16.4986   22.5907 O   0  0  0  0  0  0  0  0  0  0  0  0
  2  1  1  6
  2  3  1  0
  4  6  1  0
  4  2  1  0
  4  5  1  6
  6 12  1  0
  7  6  2  0
  9  8  1  6
  9 11  1  0
 10  9  1  0
 11 13  1  0
 11 12  1  6
 13 14  2  0
 13 18  1  0
 16 15  1  0
 17 19  1  0
 17 16  1  1
 18 17  1  0
 19 20  1  0
 21 19  2  0
M  END
$$$$
