VTS.pdb
     RDKit          3D

 21 20  0  0  1  0  0  0  0  0999 V2000
    7.4681  -12.2648   18.0853 C   0  0  0  0  0  0  0  0  0  0  0  0
    7.8905  -13.3818   18.9891 C   0  0  2  0  0  0  0  0  0  0  0  0
    8.8252  -12.8875   20.0933 C   0  0  0  0  0  0  0  0  0  0  0  0
    8.6286  -14.4857   18.2739 C   0  0  2  0  0  0  0  0  0  0  0  0
    7.7704  -14.9901   17.2339 N   0  0  0  0  0  0  0  0  0  0  0  0
    8.9760  -15.6113   19.1746 C   0  0  0  0  0  0  0  0  0  0  0  0
    8.0913  -16.3737   19.6406 O   0  0  0  0  0  0  0  0  0  0  0  0
   11.0169  -18.3896   18.3856 C   0  0  0  0  0  0  0  0  0  0  0  0
   11.6864  -17.8280   19.6055 C   0  0  1  0  0  0  0  0  0  0  0  0
   12.7659  -17.0404   19.1618 O   0  0  0  0  0  0  0  0  0  0  0  0
   10.7140  -16.9582   20.4145 C   0  0  2  0  0  0  0  0  0  0  0  0
   10.3365  -15.8686   19.5454 N   0  0  0  0  0  0  0  0  0  0  0  0
   11.3512  -16.4653   21.6510 C   0  0  0  0  0  0  0  0  0  0  0  0
   12.0785  -15.4437   21.5714 O   0  0  0  0  0  0  0  0  0  0  0  0
    9.8887  -17.4792   25.2194 O   0  0  0  0  0  0  0  0  0  0  0  0
   10.6718  -16.3391   25.1294 C   0  0  0  0  0  0  0  0  0  0  0  0
   11.7515  -16.5208   24.0870 C   0  0  2  0  0  0  0  0  0  0  0  0
   11.1620  -17.1100   22.9023 N   0  0  0  0  0  0  0  0  0  0  0  0
   12.8305  -17.4202   24.5694 C   0  0  0  0  0  0  0  0  0  0  0  0
   13.1064  -18.6278   23.9632 O   0  0  0  0  0  0  0  0  0  0  0  0
   13.5122  -17.0559   25.5702 O   0  0  0  0  0  0  0  0  0  0  0  0
  2  1  1  6
  2  3  1  0
  4  6  1  0
  4  2  1  0
  4  5  1  6
  6 12  1  0
  7  6  2  0
  9  8  1  6
  9 11  1  0
 10  9  1  0
 11 13  1  0
 11 12  1  6
 13 14  2  0
 13 18  1  0
 16 15  1  0
 17 19  1  0
 17 16  1  1
 18 17  1  0
 19 20  1  0
 21 19  2  0
M  END
$$$$
