VTS.pdb
     RDKit          3D

 21 20  0  0  1  0  0  0  0  0999 V2000
    7.5733  -12.2231   18.3752 C   0  0  0  0  0  0  0  0  0  0  0  0
    7.9808  -13.3527   19.2701 C   0  0  2  0  0  0  0  0  0  0  0  0
    8.9186  -12.8789   20.3806 C   0  0  0  0  0  0  0  0  0  0  0  0
    8.7077  -14.4588   18.5469 C   0  0  2  0  0  0  0  0  0  0  0  0
    7.8578  -14.9244   17.4823 N   0  0  0  0  0  0  0  0  0  0  0  0
    9.0142  -15.6086   19.4317 C   0  0  0  0  0  0  0  0  0  0  0  0
    8.1043  -16.3564   19.8722 O   0  0  0  0  0  0  0  0  0  0  0  0
   11.0455  -18.4283   18.6913 C   0  0  0  0  0  0  0  0  0  0  0  0
   11.6777  -17.8869   19.9399 C   0  0  1  0  0  0  0  0  0  0  0  0
   12.7964  -17.1289   19.5444 O   0  0  0  0  0  0  0  0  0  0  0  0
   10.6960  -16.9916   20.7089 C   0  0  2  0  0  0  0  0  0  0  0  0
   10.3626  -15.9070   19.8159 N   0  0  0  0  0  0  0  0  0  0  0  0
   11.3041  -16.4937   21.9580 C   0  0  0  0  0  0  0  0  0  0  0  0
   11.9859  -15.4396   21.9013 O   0  0  0  0  0  0  0  0  0  0  0  0
    9.8567  -17.1720   25.6882 O   0  0  0  0  0  0  0  0  0  0  0  0
   10.6945  -16.1303   25.3224 C   0  0  0  0  0  0  0  0  0  0  0  0
   11.7689  -16.6226   24.3796 C   0  0  2  0  0  0  0  0  0  0  0  0
   11.1370  -17.1688   23.1963 N   0  0  0  0  0  0  0  0  0  0  0  0
   12.5956  -17.6877   25.0024 C   0  0  0  0  0  0  0  0  0  0  0  0
   13.4520  -17.4334   26.0530 O   0  0  0  0  0  0  0  0  0  0  0  0
   12.5026  -18.8633   24.5457 O   0  0  0  0  0  0  0  0  0  0  0  0
  2  1  1  6
  2  3  1  0
  4  6  1  0
  4  2  1  0
  4  5  1  6
  6 12  1  0
  7  6  2  0
  9  8  1  6
  9 11  1  0
 10  9  1  0
 11 13  1  0
 11 12  1  6
 13 14  2  0
 13 18  1  0
 16 15  1  0
 17 19  1  0
 17 16  1  1
 18 17  1  0
 19 20  1  0
 21 19  2  0
M  END
$$$$
