VTS.pdb
     RDKit          3D

 21 20  0  0  1  0  0  0  0  0999 V2000
    9.0572  -15.4668   19.0321 C   0  0  0  0  0  0  0  0  0  0  0  0
    7.6626  -15.0007   19.3161 C   0  0  2  0  0  0  0  0  0  0  0  0
    6.8799  -14.7528   18.0266 C   0  0  0  0  0  0  0  0  0  0  0  0
    7.6084  -13.7117   20.0975 C   0  0  2  0  0  0  0  0  0  0  0  0
    8.1994  -12.6785   19.2879 N   0  0  0  0  0  0  0  0  0  0  0  0
    8.3622  -13.7898   21.3721 C   0  0  0  0  0  0  0  0  0  0  0  0
    9.5595  -13.4134   21.4486 O   0  0  0  0  0  0  0  0  0  0  0  0
    6.9770  -12.6891   24.8029 C   0  0  0  0  0  0  0  0  0  0  0  0
    7.4554  -14.1067   24.9179 C   0  0  1  0  0  0  0  0  0  0  0  0
    6.3263  -14.9382   24.7902 O   0  0  0  0  0  0  0  0  0  0  0  0
    8.4652  -14.4373   23.8099 C   0  0  2  0  0  0  0  0  0  0  0  0
    7.7490  -14.2985   22.5637 N   0  0  0  0  0  0  0  0  0  0  0  0
    9.0004  -15.8027   23.9746 C   0  0  0  0  0  0  0  0  0  0  0  0
    8.4511  -16.7318   23.3311 O   0  0  0  0  0  0  0  0  0  0  0  0
   12.7043  -16.7810   24.4251 O   0  0  0  0  0  0  0  0  0  0  0  0
   11.7273  -17.7340   24.1837 C   0  0  0  0  0  0  0  0  0  0  0  0
   10.5015  -17.4585   25.0244 C   0  0  2  0  0  0  0  0  0  0  0  0
   10.1010  -16.0805   24.8282 N   0  0  0  0  0  0  0  0  0  0  0  0
   10.7729  -17.6656   26.4699 C   0  0  0  0  0  0  0  0  0  0  0  0
   11.2059  -18.8755   26.9703 O   0  0  0  0  0  0  0  0  0  0  0  0
   10.5975  -16.6926   27.2584 O   0  0  0  0  0  0  0  0  0  0  0  0
  2  1  1  6
  2  3  1  0
  4  6  1  0
  4  2  1  0
  4  5  1  6
  6 12  1  0
  7  6  2  0
  9  8  1  6
  9 11  1  0
 10  9  1  0
 11 13  1  0
 11 12  1  6
 13 14  2  0
 13 18  1  0
 16 15  1  0
 17 19  1  0
 17 16  1  6
 18 17  1  0
 19 20  1  0
 21 19  2  0
M  END
$$$$
