VTS.pdb
     RDKit          3D

 21 20  0  0  1  0  0  0  0  0999 V2000
    7.8995  -12.4836   27.2511 C   0  0  0  0  0  0  0  0  0  0  0  0
    7.1344  -12.0340   26.0447 C   0  0  2  0  0  0  0  0  0  0  0  0
    6.2084  -10.8624   26.3717 C   0  0  0  0  0  0  0  0  0  0  0  0
    6.2598  -13.1112   25.4534 C   0  0  2  0  0  0  0  0  0  0  0  0
    5.3513  -13.5554   26.4779 N   0  0  0  0  0  0  0  0  0  0  0  0
    7.0406  -14.2824   24.9868 C   0  0  0  0  0  0  0  0  0  0  0  0
    7.3336  -15.2257   25.7649 O   0  0  0  0  0  0  0  0  0  0  0  0
    6.9065  -14.8827   21.0934 C   0  0  0  0  0  0  0  0  0  0  0  0
    8.2301  -15.3769   21.5991 C   0  0  1  0  0  0  0  0  0  0  0  0
    9.1991  -14.4263   21.2254 O   0  0  0  0  0  0  0  0  0  0  0  0
    8.2148  -15.5218   23.1273 C   0  0  2  0  0  0  0  0  0  0  0  0
    7.4889  -14.3786   23.6287 N   0  0  0  0  0  0  0  0  0  0  0  0
    9.5878  -15.5670   23.6664 C   0  0  0  0  0  0  0  0  0  0  0  0
    9.9644  -14.6175   24.3983 O   0  0  0  0  0  0  0  0  0  0  0  0
   11.3471  -18.1108   26.5811 O   0  0  0  0  0  0  0  0  0  0  0  0
   10.5383  -17.5369   25.6129 C   0  0  0  0  0  0  0  0  0  0  0  0
   11.3640  -17.1071   24.4217 C   0  0  2  0  0  0  0  0  0  0  0  0
   10.4726  -16.6405   23.3798 N   0  0  0  0  0  0  0  0  0  0  0  0
   12.1681  -18.2322   23.8802 C   0  0  0  0  0  0  0  0  0  0  0  0
   13.4331  -18.5226   24.3465 O   0  0  0  0  0  0  0  0  0  0  0  0
   11.6657  -18.9407   22.9611 O   0  0  0  0  0  0  0  0  0  0  0  0
  2  1  1  1
  2  3  1  0
  4  6  1  0
  4  2  1  0
  4  5  1  1
  6 12  1  0
  7  6  2  0
  9  8  1  1
  9 11  1  0
 10  9  1  0
 11 13  1  0
 11 12  1  1
 13 14  2  0
 13 18  1  0
 16 15  1  0
 17 19  1  0
 17 16  1  1
 18 17  1  0
 19 20  1  0
 21 19  2  0
M  END
$$$$
