VTS.pdb
     RDKit          3D

 21 20  0  0  1  0  0  0  0  0999 V2000
    7.7665  -12.1741   18.4522 C   0  0  0  0  0  0  0  0  0  0  0  0
    7.7994  -13.3276   19.4068 C   0  0  2  0  0  0  0  0  0  0  0  0
    8.3122  -12.9030   20.7830 C   0  0  0  0  0  0  0  0  0  0  0  0
    8.6915  -14.4562   18.9534 C   0  0  2  0  0  0  0  0  0  0  0  0
    8.2109  -14.9141   17.6760 N   0  0  0  0  0  0  0  0  0  0  0  0
    8.6756  -15.6034   19.8929 C   0  0  0  0  0  0  0  0  0  0  0  0
    7.7228  -16.4238   19.9082 O   0  0  0  0  0  0  0  0  0  0  0  0
   12.2335  -16.9416   21.3966 C   0  0  0  0  0  0  0  0  0  0  0  0
   10.9805  -17.7672   21.4041 C   0  0  1  0  0  0  0  0  0  0  0  0
   11.1510  -18.7726   22.3750 O   0  0  0  0  0  0  0  0  0  0  0  0
    9.7592  -16.9088   21.7622 C   0  0  2  0  0  0  0  0  0  0  0  0
    9.7496  -15.8162   20.8181 N   0  0  0  0  0  0  0  0  0  0  0  0
    9.8478  -16.4195   23.1517 C   0  0  0  0  0  0  0  0  0  0  0  0
   10.6109  -15.4492   23.3866 O   0  0  0  0  0  0  0  0  0  0  0  0
    6.9605  -17.1131   25.8420 O   0  0  0  0  0  0  0  0  0  0  0  0
    7.8631  -16.0815   26.0476 C   0  0  0  0  0  0  0  0  0  0  0  0
    9.2340  -16.4707   25.5429 C   0  0  2  0  0  0  0  0  0  0  0  0
    9.1027  -17.0119   24.2058 N   0  0  0  0  0  0  0  0  0  0  0  0
    9.8607  -17.5039   26.4063 C   0  0  0  0  0  0  0  0  0  0  0  0
   10.1931  -17.2589   27.7222 O   0  0  0  0  0  0  0  0  0  0  0  0
   10.0925  -18.6425   25.9073 O   0  0  0  0  0  0  0  0  0  0  0  0
  2  1  1  6
  2  3  1  0
  4  6  1  0
  4  2  1  0
  4  5  1  6
  6 12  1  0
  7  6  2  0
  9  8  1  1
  9 11  1  0
 10  9  1  0
 11 13  1  0
 11 12  1  6
 13 14  2  0
 13 18  1  0
 16 15  1  0
 17 19  1  0
 17 16  1  1
 18 17  1  0
 19 20  1  0
 21 19  2  0
M  END
$$$$
