VTS.pdb
     RDKit          3D

 21 20  0  0  1  0  0  0  0  0999 V2000
    7.8783  -12.9936   27.5058 C   0  0  0  0  0  0  0  0  0  0  0  0
    7.4634  -12.3859   26.2014 C   0  0  2  0  0  0  0  0  0  0  0  0
    6.8055  -11.0206   26.4022 C   0  0  0  0  0  0  0  0  0  0  0  0
    6.4699  -13.2253   25.4377 C   0  0  2  0  0  0  0  0  0  0  0  0
    5.3148  -13.4152   26.2755 N   0  0  0  0  0  0  0  0  0  0  0  0
    7.0099  -14.5601   25.0834 C   0  0  0  0  0  0  0  0  0  0  0  0
    6.7868  -15.5681   25.8012 O   0  0  0  0  0  0  0  0  0  0  0  0
    7.4253  -15.4850   21.2908 C   0  0  0  0  0  0  0  0  0  0  0  0
    8.6420  -15.9543   22.0333 C   0  0  1  0  0  0  0  0  0  0  0  0
    9.6675  -15.0228   21.7817 O   0  0  0  0  0  0  0  0  0  0  0  0
    8.3710  -16.0251   23.5427 C   0  0  2  0  0  0  0  0  0  0  0  0
    7.8071  -14.7466   23.9067 N   0  0  0  0  0  0  0  0  0  0  0  0
    9.6144  -16.2979   24.2893 C   0  0  0  0  0  0  0  0  0  0  0  0
   10.3415  -15.3209   24.5989 O   0  0  0  0  0  0  0  0  0  0  0  0
   10.1024  -19.7397   26.0753 O   0  0  0  0  0  0  0  0  0  0  0  0
   11.1111  -18.8461   26.3997 C   0  0  0  0  0  0  0  0  0  0  0  0
   11.2758  -17.8156   25.3060 C   0  0  2  0  0  0  0  0  0  0  0  0
    9.9965  -17.6155   24.6568 N   0  0  0  0  0  0  0  0  0  0  0  0
   12.2560  -18.2583   24.2817 C   0  0  0  0  0  0  0  0  0  0  0  0
   13.5819  -18.4875   24.5842 O   0  0  0  0  0  0  0  0  0  0  0  0
   11.8497  -18.4273   23.0962 O   0  0  0  0  0  0  0  0  0  0  0  0
  2  1  1  1
  2  3  1  0
  4  6  1  0
  4  2  1  0
  4  5  1  1
  6 12  1  0
  7  6  2  0
  9  8  1  6
  9 11  1  0
 10  9  1  0
 11 13  1  0
 11 12  1  1
 13 14  2  0
 13 18  1  0
 16 15  1  0
 17 19  1  0
 17 16  1  1
 18 17  1  0
 19 20  1  0
 21 19  2  0
M  END
$$$$
