VTS.pdb
     RDKit          3D

 21 20  0  0  1  0  0  0  0  0999 V2000
    8.7427  -20.3623   18.0116 C   0  0  0  0  0  0  0  0  0  0  0  0
    9.2376  -19.3734   19.0216 C   0  0  2  0  0  0  0  0  0  0  0  0
    9.0797  -19.9008   20.4478 C   0  0  0  0  0  0  0  0  0  0  0  0
    8.5086  -18.0538   18.9762 C   0  0  2  0  0  0  0  0  0  0  0  0
    8.6614  -17.5092   17.6524 N   0  0  0  0  0  0  0  0  0  0  0  0
    9.0520  -17.0726   19.9464 C   0  0  0  0  0  0  0  0  0  0  0  0
   10.2074  -16.5941   19.8157 O   0  0  0  0  0  0  0  0  0  0  0  0
    7.5853  -13.8173   21.0212 C   0  0  0  0  0  0  0  0  0  0  0  0
    7.7286  -14.6495   22.2616 C   0  0  1  0  0  0  0  0  0  0  0  0
    6.4793  -15.2517   22.5048 O   0  0  0  0  0  0  0  0  0  0  0  0
    8.7954  -15.7372   22.0731 C   0  0  2  0  0  0  0  0  0  0  0  0
    8.2756  -16.6355   21.0692 N   0  0  0  0  0  0  0  0  0  0  0  0
    9.0595  -16.4422   23.3424 C   0  0  0  0  0  0  0  0  0  0  0  0
    8.2803  -17.3711   23.6729 O   0  0  0  0  0  0  0  0  0  0  0  0
   12.7063  -16.2996   25.3576 O   0  0  0  0  0  0  0  0  0  0  0  0
   11.8307  -17.3739   25.3440 C   0  0  0  0  0  0  0  0  0  0  0  0
   10.3990  -16.8890   25.3680 C   0  0  2  0  0  0  0  0  0  0  0  0
   10.1541  -16.0982   24.1795 N   0  0  0  0  0  0  0  0  0  0  0  0
   10.1296  -16.0414   26.5575 C   0  0  0  0  0  0  0  0  0  0  0  0
   10.3037  -16.5048   27.8447 O   0  0  0  0  0  0  0  0  0  0  0  0
    9.7274  -14.8570   26.3714 O   0  0  0  0  0  0  0  0  0  0  0  0
  2  1  1  6
  2  3  1  0
  4  6  1  0
  4  2  1  0
  4  5  1  6
  6 12  1  0
  7  6  2  0
  9  8  1  6
  9 11  1  0
 10  9  1  0
 11 13  1  0
 11 12  1  6
 13 14  2  0
 13 18  1  0
 16 15  1  0
 17 19  1  0
 17 16  1  1
 18 17  1  0
 19 20  1  0
 21 19  2  0
M  END
$$$$
