VTS.pdb
     RDKit          3D

 21 20  0  0  1  0  0  0  0  0999 V2000
    6.5030  -19.9919   16.1887 C   0  0  0  0  0  0  0  0  0  0  0  0
    7.3786  -19.1513   17.0659 C   0  0  2  0  0  0  0  0  0  0  0  0
    6.9022  -19.1705   18.5184 C   0  0  0  0  0  0  0  0  0  0  0  0
    7.4232  -17.7006   16.6552 C   0  0  2  0  0  0  0  0  0  0  0  0
    8.0033  -17.6310   15.3395 N   0  0  0  0  0  0  0  0  0  0  0  0
    8.2504  -16.8778   17.5705 C   0  0  0  0  0  0  0  0  0  0  0  0
    9.4999  -17.0100   17.6205 O   0  0  0  0  0  0  0  0  0  0  0  0
    8.1248  -13.1023   20.8374 C   0  0  0  0  0  0  0  0  0  0  0  0
    7.4985  -13.9254   19.7502 C   0  0  1  0  0  0  0  0  0  0  0  0
    7.2810  -13.0693   18.6536 O   0  0  0  0  0  0  0  0  0  0  0  0
    8.4244  -15.0750   19.3289 C   0  0  2  0  0  0  0  0  0  0  0  0
    7.6513  -15.9010   18.4316 N   0  0  0  0  0  0  0  0  0  0  0  0
    8.8837  -15.8399   20.5045 C   0  0  0  0  0  0  0  0  0  0  0  0
    8.0570  -16.5949   21.0751 O   0  0  0  0  0  0  0  0  0  0  0  0
   12.4938  -17.8360   22.8873 O   0  0  0  0  0  0  0  0  0  0  0  0
   12.0217  -17.1046   21.8087 C   0  0  0  0  0  0  0  0  0  0  0  0
   10.6227  -16.6019   22.0832 C   0  0  2  0  0  0  0  0  0  0  0  0
   10.2138  -15.7409   20.9926 N   0  0  0  0  0  0  0  0  0  0  0  0
   10.5610  -15.8203   23.3446 C   0  0  0  0  0  0  0  0  0  0  0  0
   10.6825  -16.4138   24.5835 O   0  0  0  0  0  0  0  0  0  0  0  0
   10.3911  -14.5696   23.2676 O   0  0  0  0  0  0  0  0  0  0  0  0
  2  1  1  6
  2  3  1  0
  4  6  1  0
  4  2  1  0
  4  5  1  6
  6 12  1  0
  7  6  2  0
  9  8  1  1
  9 11  1  0
 10  9  1  0
 11 13  1  0
 11 12  1  6
 13 14  2  0
 13 18  1  0
 16 15  1  0
 17 19  1  0
 17 16  1  6
 18 17  1  0
 19 20  1  0
 21 19  2  0
M  END
$$$$
