VTS.pdb
     RDKit          3D

 21 20  0  0  1  0  0  0  0  0999 V2000
    8.0473  -12.9025   18.6594 C   0  0  0  0  0  0  0  0  0  0  0  0
    7.8133  -13.4915   20.0163 C   0  0  2  0  0  0  0  0  0  0  0  0
    8.2837  -12.5506   21.1256 C   0  0  0  0  0  0  0  0  0  0  0  0
    8.5352  -14.7975   20.2359 C   0  0  2  0  0  0  0  0  0  0  0  0
    8.0586  -15.7369   19.2546 N   0  0  0  0  0  0  0  0  0  0  0  0
    8.2823  -15.3654   21.5822 C   0  0  0  0  0  0  0  0  0  0  0  0
    7.1396  -15.7684   21.9185 O   0  0  0  0  0  0  0  0  0  0  0  0
    9.1168  -18.2843   22.8610 C   0  0  0  0  0  0  0  0  0  0  0  0
    9.7569  -17.3963   23.8874 C   0  0  1  0  0  0  0  0  0  0  0  0
   11.1222  -17.2968   23.5577 O   0  0  0  0  0  0  0  0  0  0  0  0
    9.1224  -15.9985   23.8769 C   0  0  2  0  0  0  0  0  0  0  0  0
    9.3354  -15.4742   22.5485 N   0  0  0  0  0  0  0  0  0  0  0  0
    9.7363  -15.1331   24.9027 C   0  0  0  0  0  0  0  0  0  0  0  0
   10.8996  -14.7067   24.6935 O   0  0  0  0  0  0  0  0  0  0  0  0
    7.5496  -13.5869   27.8822 O   0  0  0  0  0  0  0  0  0  0  0  0
    8.8064  -13.0245   27.7240 C   0  0  0  0  0  0  0  0  0  0  0  0
    9.7590  -14.0244   27.1089 C   0  0  2  0  0  0  0  0  0  0  0  0
    9.0517  -14.7808   26.0962 N   0  0  0  0  0  0  0  0  0  0  0  0
   10.2822  -14.9753   28.1228 C   0  0  0  0  0  0  0  0  0  0  0  0
   10.0999  -16.3380   28.0153 O   0  0  0  0  0  0  0  0  0  0  0  0
   10.9144  -14.5080   29.1133 O   0  0  0  0  0  0  0  0  0  0  0  0
  2  1  1  6
  2  3  1  0
  4  6  1  0
  4  2  1  0
  4  5  1  6
  6 12  1  0
  7  6  2  0
  9  8  1  6
  9 11  1  0
 10  9  1  0
 11 13  1  0
 11 12  1  6
 13 14  2  0
 13 18  1  0
 16 15  1  0
 17 19  1  0
 17 16  1  1
 18 17  1  0
 19 20  1  0
 21 19  2  0
M  END
$$$$
