VTS.pdb
     RDKit          3D

 21 20  0  0  1  0  0  0  0  0999 V2000
    7.7009  -13.3173   20.8252 C   0  0  0  0  0  0  0  0  0  0  0  0
    8.8811  -12.9777   19.9680 C   0  0  2  0  0  0  0  0  0  0  0  0
    8.6055  -11.7558   19.0917 C   0  0  0  0  0  0  0  0  0  0  0  0
    9.2805  -14.0890   19.0296 C   0  0  2  0  0  0  0  0  0  0  0  0
    8.1633  -14.3587   18.1626 N   0  0  0  0  0  0  0  0  0  0  0  0
    9.6231  -15.3407   19.7470 C   0  0  0  0  0  0  0  0  0  0  0  0
    8.7412  -16.1848   20.0484 O   0  0  0  0  0  0  0  0  0  0  0  0
   11.9518  -17.7051   18.4577 C   0  0  0  0  0  0  0  0  0  0  0  0
   12.4593  -17.4726   19.8506 C   0  0  1  0  0  0  0  0  0  0  0  0
   13.5331  -16.5668   19.7559 O   0  0  0  0  0  0  0  0  0  0  0  0
   11.3613  -16.8767   20.7429 C   0  0  2  0  0  0  0  0  0  0  0  0
   10.9757  -15.6313   20.1222 N   0  0  0  0  0  0  0  0  0  0  0  0
   11.8564  -16.6636   22.1167 C   0  0  0  0  0  0  0  0  0  0  0  0
   12.4434  -15.5816   22.3696 O   0  0  0  0  0  0  0  0  0  0  0  0
   10.5399  -18.9907   25.1130 O   0  0  0  0  0  0  0  0  0  0  0  0
   11.0343  -17.7410   25.4516 C   0  0  0  0  0  0  0  0  0  0  0  0
   12.1160  -17.3206   24.4827 C   0  0  2  0  0  0  0  0  0  0  0  0
   11.6856  -17.6373   23.1365 N   0  0  0  0  0  0  0  0  0  0  0  0
   13.3920  -18.0338   24.7459 C   0  0  0  0  0  0  0  0  0  0  0  0
   14.1207  -17.8347   25.8996 O   0  0  0  0  0  0  0  0  0  0  0  0
   13.8143  -18.8484   23.8756 O   0  0  0  0  0  0  0  0  0  0  0  0
  2  1  1  6
  2  3  1  0
  4  6  1  0
  4  2  1  0
  4  5  1  6
  6 12  1  0
  7  6  2  0
  9  8  1  6
  9 11  1  0
 10  9  1  0
 11 13  1  0
 11 12  1  6
 13 14  2  0
 13 18  1  0
 16 15  1  0
 17 19  1  0
 17 16  1  1
 18 17  1  0
 19 20  1  0
 21 19  2  0
M  END
$$$$
