VTS.pdb
     RDKit          3D

 21 20  0  0  1  0  0  0  0  0999 V2000
    7.8242  -12.0816   18.4840 C   0  0  0  0  0  0  0  0  0  0  0  0
    8.1237  -13.2444   19.3792 C   0  0  2  0  0  0  0  0  0  0  0  0
    9.0989  -12.8597   20.4919 C   0  0  0  0  0  0  0  0  0  0  0  0
    8.7468  -14.4126   18.6567 C   0  0  2  0  0  0  0  0  0  0  0  0
    7.8558  -14.8027   17.5954 N   0  0  0  0  0  0  0  0  0  0  0  0
    8.9516  -15.5833   19.5436 C   0  0  0  0  0  0  0  0  0  0  0  0
    7.9841  -16.2832   19.9376 O   0  0  0  0  0  0  0  0  0  0  0  0
   10.5597  -18.4885   18.6163 C   0  0  0  0  0  0  0  0  0  0  0  0
   11.3520  -18.0681   19.8193 C   0  0  1  0  0  0  0  0  0  0  0  0
   12.4748  -17.3594   19.3508 O   0  0  0  0  0  0  0  0  0  0  0  0
   10.5186  -17.1623   20.7368 C   0  0  2  0  0  0  0  0  0  0  0  0
   10.2638  -15.9576   19.9827 N   0  0  0  0  0  0  0  0  0  0  0  0
   11.2428  -16.8711   21.9893 C   0  0  0  0  0  0  0  0  0  0  0  0
   12.0137  -15.8789   22.0064 O   0  0  0  0  0  0  0  0  0  0  0  0
    9.6788  -17.8027   25.2775 O   0  0  0  0  0  0  0  0  0  0  0  0
   11.0367  -17.7885   25.5546 C   0  0  0  0  0  0  0  0  0  0  0  0
   11.8168  -17.3139   24.3497 C   0  0  2  0  0  0  0  0  0  0  0  0
   11.0882  -17.6739   23.1507 N   0  0  0  0  0  0  0  0  0  0  0  0
   13.1608  -17.9428   24.2870 C   0  0  0  0  0  0  0  0  0  0  0  0
   14.1370  -17.6856   25.2266 O   0  0  0  0  0  0  0  0  0  0  0  0
   13.4067  -18.7390   23.3358 O   0  0  0  0  0  0  0  0  0  0  0  0
  2  1  1  6
  2  3  1  0
  4  6  1  0
  4  2  1  0
  4  5  1  6
  6 12  1  0
  7  6  2  0
  9  8  1  6
  9 11  1  0
 10  9  1  0
 11 13  1  0
 11 12  1  6
 13 14  2  0
 13 18  1  0
 16 15  1  0
 17 19  1  0
 17 16  1  1
 18 17  1  0
 19 20  1  0
 21 19  2  0
M  END
$$$$
