FMM.pdb
     RDKit          3D

 28 28  0  0  1  0  0  0  0  0999 V2000
   27.9829  -19.8545  -15.8820 N   0  0  0  0  0  0  0  0  0  0  0  0
   27.3332  -19.2060  -14.7784 C   0  0  1  0  0  0  0  0  0  0  0  0
   26.2405  -18.2493  -15.2533 C   0  0  0  0  0  0  0  0  0  0  0  0
   26.8762  -17.0666  -15.8443 C   0  0  0  0  0  0  0  0  0  0  0  0
   27.0669  -17.0079  -17.2104 C   0  0  0  0  0  0  0  0  0  0  0  0
   27.6621  -15.8970  -17.7557 C   0  0  0  0  0  0  0  0  0  0  0  0
   28.0588  -14.8574  -16.9188 C   0  0  0  0  0  0  0  0  0  0  0  0
   27.8609  -14.9313  -15.5521 C   0  0  0  0  0  0  0  0  0  0  0  0
   27.2672  -16.0417  -15.0182 C   0  0  0  0  0  0  0  0  0  0  0  0
   26.6084  -20.2621  -13.9881 C   0  0  0  0  0  0  0  0  0  0  0  0
   26.0787  -21.2601  -14.5192 O   0  0  0  0  0  0  0  0  0  0  0  0
   26.6310  -19.5919   -7.8873 C   0  0  0  0  0  0  0  0  0  0  0  0
   25.6194  -21.0919   -7.7800 S   0  0  0  0  0  0  0  0  0  0  0  0
   24.9107  -21.3880   -9.4579 C   0  0  0  0  0  0  0  0  0  0  0  0
   25.8368  -20.7433  -10.4157 C   0  0  0  0  0  0  0  0  0  0  0  0
   25.5062  -20.8989  -11.8782 C   0  0  2  0  0  0  0  0  0  0  0  0
   26.5402  -20.0915  -12.5922 N   0  0  0  0  0  0  0  0  0  0  0  0
   24.1780  -20.3326  -12.1593 C   0  0  0  0  0  0  0  0  0  0  0  0
   24.0982  -19.1950  -12.7202 O   0  0  0  0  0  0  0  0  0  0  0  0
   23.4980  -22.4687  -16.3842 C   0  0  0  0  0  0  0  0  0  0  0  0
   21.8764  -21.7316  -16.6557 S   0  0  0  0  0  0  0  0  0  0  0  0
   21.1513  -21.3153  -15.0620 C   0  0  0  0  0  0  0  0  0  0  0  0
   22.1780  -21.1519  -14.0229 C   0  0  0  0  0  0  0  0  0  0  0  0
   21.7499  -20.7726  -12.6325 C   0  0  2  0  0  0  0  0  0  0  0  0
   23.0033  -21.0022  -11.8387 N   0  0  0  0  0  0  0  0  0  0  0  0
   20.7136  -21.5917  -12.0133 C   0  0  0  0  0  0  0  0  0  0  0  0
   20.9751  -22.8576  -11.5132 O   0  0  0  0  0  0  0  0  0  0  0  0
   19.4932  -21.2272  -11.8830 O   0  0  0  0  0  0  0  0  0  0  0  0
  2  1  1  6
  2  3  1  0
  4  3  1  0
  4  5  2  0
  6  5  1  0
  7  6  2  0
  8  9  2  0
  8  7  1  0
  9  4  1  0
 10  2  1  0
 11 10  2  0
 13 12  1  0
 14 15  1  0
 14 13  1  0
 16 15  1  1
 16 17  1  0
 17 10  1  0
 18 16  1  0
 18 19  2  0
 20 21  1  0
 22 21  1  0
 24 23  1  6
 23 22  1  0
 24 25  1  0
 25 18  1  0
 26 24  1  0
 27 26  1  0
 28 26  2  0
M  END
$$$$
