FMM.pdb
     RDKit          3D

 28 28  0  0  1  0  0  0  0  0999 V2000
   26.2697  -27.9107  -21.8728 N   0  0  0  0  0  0  0  0  0  0  0  0
   26.3522  -27.7646  -20.4471 C   0  0  1  0  0  0  0  0  0  0  0  0
   25.0946  -27.1112  -19.8759 C   0  0  0  0  0  0  0  0  0  0  0  0
   25.0551  -25.7103  -20.3094 C   0  0  0  0  0  0  0  0  0  0  0  0
   25.7939  -24.7655  -19.6255 C   0  0  0  0  0  0  0  0  0  0  0  0
   25.7519  -23.4565  -20.0382 C   0  0  0  0  0  0  0  0  0  0  0  0
   24.9661  -23.1133  -21.1351 C   0  0  0  0  0  0  0  0  0  0  0  0
   24.2316  -24.0715  -21.8096 C   0  0  0  0  0  0  0  0  0  0  0  0
   24.2798  -25.3727  -21.3913 C   0  0  0  0  0  0  0  0  0  0  0  0
   26.3807  -29.1441  -19.8457 C   0  0  0  0  0  0  0  0  0  0  0  0
   25.8855  -30.1398  -20.4131 O   0  0  0  0  0  0  0  0  0  0  0  0
   31.4936  -31.3273  -17.3950 C   0  0  0  0  0  0  0  0  0  0  0  0
   30.4370  -31.8532  -16.0196 S   0  0  0  0  0  0  0  0  0  0  0  0
   28.7280  -32.0398  -16.6906 C   0  0  0  0  0  0  0  0  0  0  0  0
   28.4065  -30.7597  -17.3603 C   0  0  0  0  0  0  0  0  0  0  0  0
   27.0641  -30.6762  -18.0408 C   0  0  2  0  0  0  0  0  0  0  0  0
   26.9986  -29.2883  -18.5888 N   0  0  0  0  0  0  0  0  0  0  0  0
   25.9861  -30.8535  -17.0558 C   0  0  0  0  0  0  0  0  0  0  0  0
   25.6338  -29.8632  -16.3413 O   0  0  0  0  0  0  0  0  0  0  0  0
   18.7703  -32.4217  -16.8062 C   0  0  0  0  0  0  0  0  0  0  0  0
   20.3809  -32.1116  -17.5523 S   0  0  0  0  0  0  0  0  0  0  0  0
   21.6541  -32.3181  -16.2972 C   0  0  0  0  0  0  0  0  0  0  0  0
   22.9933  -32.0246  -16.8270 C   0  0  0  0  0  0  0  0  0  0  0  0
   24.1836  -32.1883  -15.9232 C   0  0  2  0  0  0  0  0  0  0  0  0
   25.3320  -32.0673  -16.8825 N   0  0  0  0  0  0  0  0  0  0  0  0
   24.3360  -33.4775  -15.2577 C   0  0  0  0  0  0  0  0  0  0  0  0
   25.1498  -34.4778  -15.7659 O   0  0  0  0  0  0  0  0  0  0  0  0
   23.7409  -33.7988  -14.1706 O   0  0  0  0  0  0  0  0  0  0  0  0
  2  1  1  6
  2  3  1  0
  4  3  1  0
  4  5  2  0
  6  5  1  0
  7  6  2  0
  8  9  2  0
  8  7  1  0
  9  4  1  0
 10  2  1  0
 11 10  2  0
 13 12  1  0
 14 15  1  0
 14 13  1  0
 16 15  1  1
 16 17  1  0
 17 10  1  0
 18 16  1  0
 18 19  2  0
 20 21  1  0
 22 21  1  0
 24 23  1  6
 23 22  1  0
 24 25  1  0
 25 18  1  0
 26 24  1  0
 27 26  1  0
 28 26  2  0
M  END
$$$$
