FMM.pdb
     RDKit          3D

 28 28  0  0  1  0  0  0  0  0999 V2000
   28.2903  -20.3828  -15.5169 N   0  0  0  0  0  0  0  0  0  0  0  0
   27.4767  -19.5614  -14.6660 C   0  0  1  0  0  0  0  0  0  0  0  0
   26.5832  -18.6243  -15.4774 C   0  0  0  0  0  0  0  0  0  0  0  0
   27.3898  -17.4892  -15.9390 C   0  0  0  0  0  0  0  0  0  0  0  0
   27.8523  -17.4677  -17.2397 C   0  0  0  0  0  0  0  0  0  0  0  0
   28.6061  -16.4013  -17.6641 C   0  0  0  0  0  0  0  0  0  0  0  0
   28.8860  -15.3682  -16.7735 C   0  0  0  0  0  0  0  0  0  0  0  0
   28.4155  -15.4046  -15.4737 C   0  0  0  0  0  0  0  0  0  0  0  0
   27.6654  -16.4708  -15.0601 C   0  0  0  0  0  0  0  0  0  0  0  0
   26.5247  -20.4654  -13.9300 C   0  0  0  0  0  0  0  0  0  0  0  0
   26.1102  -21.5427  -14.4060 O   0  0  0  0  0  0  0  0  0  0  0  0
   24.9574  -20.8144   -7.4150 C   0  0  0  0  0  0  0  0  0  0  0  0
   26.5504  -20.2951   -8.1058 S   0  0  0  0  0  0  0  0  0  0  0  0
   26.6394  -20.9642   -9.8234 C   0  0  0  0  0  0  0  0  0  0  0  0
   25.3518  -20.6196  -10.4668 C   0  0  0  0  0  0  0  0  0  0  0  0
   25.2042  -20.9973  -11.9187 C   0  0  2  0  0  0  0  0  0  0  0  0
   26.0998  -20.0537  -12.6524 N   0  0  0  0  0  0  0  0  0  0  0  0
   23.8173  -20.7811  -12.3587 C   0  0  0  0  0  0  0  0  0  0  0  0
   23.4162  -19.5947  -12.5752 O   0  0  0  0  0  0  0  0  0  0  0  0
   20.8322  -25.6645  -15.0775 C   0  0  0  0  0  0  0  0  0  0  0  0
   20.0368  -24.2444  -15.8503 S   0  0  0  0  0  0  0  0  0  0  0  0
   20.0384  -22.8711  -14.6871 C   0  0  0  0  0  0  0  0  0  0  0  0
   21.3459  -22.7119  -14.0347 C   0  0  0  0  0  0  0  0  0  0  0  0
   21.5422  -21.5762  -13.0693 C   0  0  2  0  0  0  0  0  0  0  0  0
   22.9287  -21.8316  -12.5535 N   0  0  0  0  0  0  0  0  0  0  0  0
   20.6676  -21.5422  -11.9021 C   0  0  0  0  0  0  0  0  0  0  0  0
   19.4578  -20.8659  -11.9069 O   0  0  0  0  0  0  0  0  0  0  0  0
   20.9338  -22.1160  -10.7890 O   0  0  0  0  0  0  0  0  0  0  0  0
  2  1  1  6
  2  3  1  0
  4  3  1  0
  4  5  2  0
  6  5  1  0
  7  6  2  0
  8  9  2  0
  8  7  1  0
  9  4  1  0
 10  2  1  0
 11 10  2  0
 13 12  1  0
 14 15  1  0
 14 13  1  0
 16 15  1  1
 16 17  1  0
 17 10  1  0
 18 16  1  0
 18 19  2  0
 20 21  1  0
 22 21  1  0
 24 23  1  6
 23 22  1  0
 24 25  1  0
 25 18  1  0
 26 24  1  0
 27 26  1  0
 28 26  2  0
M  END
$$$$
