FMM.pdb
     RDKit          3D

 28 28  0  0  1  0  0  0  0  0999 V2000
   28.2631  -20.6601  -15.1538 N   0  0  0  0  0  0  0  0  0  0  0  0
   27.6259  -19.7857  -14.2104 C   0  0  1  0  0  0  0  0  0  0  0  0
   26.6032  -18.8761  -14.8897 C   0  0  0  0  0  0  0  0  0  0  0  0
   27.3196  -17.8014  -15.5854 C   0  0  0  0  0  0  0  0  0  0  0  0
   27.7624  -18.0043  -16.8773 C   0  0  0  0  0  0  0  0  0  0  0  0
   28.4315  -16.9930  -17.5216 C   0  0  0  0  0  0  0  0  0  0  0  0
   28.6475  -15.7885  -16.8576 C   0  0  0  0  0  0  0  0  0  0  0  0
   28.1978  -15.6008  -15.5634 C   0  0  0  0  0  0  0  0  0  0  0  0
   27.5322  -16.6137  -14.9298 C   0  0  0  0  0  0  0  0  0  0  0  0
   26.8212  -20.6380  -13.2663 C   0  0  0  0  0  0  0  0  0  0  0  0
   26.2709  -21.7022  -13.6176 O   0  0  0  0  0  0  0  0  0  0  0  0
   27.2987  -19.4642   -7.4076 C   0  0  0  0  0  0  0  0  0  0  0  0
   25.7579  -20.3396   -7.0276 S   0  0  0  0  0  0  0  0  0  0  0  0
   25.0694  -20.9437   -8.6296 C   0  0  0  0  0  0  0  0  0  0  0  0
   25.9793  -20.4428   -9.6839 C   0  0  0  0  0  0  0  0  0  0  0  0
   25.6926  -20.8999  -11.0915 C   0  0  2  0  0  0  0  0  0  0  0  0
   26.7004  -20.1919  -11.9364 N   0  0  0  0  0  0  0  0  0  0  0  0
   24.3441  -20.4739  -11.4965 C   0  0  0  0  0  0  0  0  0  0  0  0
   24.2091  -19.3949  -12.1543 O   0  0  0  0  0  0  0  0  0  0  0  0
   22.7889  -21.1166  -16.1790 C   0  0  0  0  0  0  0  0  0  0  0  0
   21.1983  -21.8374  -15.7348 S   0  0  0  0  0  0  0  0  0  0  0  0
   20.8010  -21.3742  -14.0417 C   0  0  0  0  0  0  0  0  0  0  0  0
   21.9953  -21.3667  -13.1850 C   0  0  0  0  0  0  0  0  0  0  0  0
   21.8760  -20.8517  -11.7775 C   0  0  2  0  0  0  0  0  0  0  0  0
   23.2091  -21.2151  -11.1905 N   0  0  0  0  0  0  0  0  0  0  0  0
   20.8674  -21.4761  -10.9284 C   0  0  0  0  0  0  0  0  0  0  0  0
   19.5956  -20.9449  -10.7818 O   0  0  0  0  0  0  0  0  0  0  0  0
   21.0614  -22.5451  -10.2510 O   0  0  0  0  0  0  0  0  0  0  0  0
  2  1  1  6
  2  3  1  0
  4  3  1  0
  4  5  2  0
  6  5  1  0
  7  6  2  0
  8  9  2  0
  8  7  1  0
  9  4  1  0
 10  2  1  0
 11 10  2  0
 13 12  1  0
 14 15  1  0
 14 13  1  0
 16 15  1  1
 16 17  1  0
 17 10  1  0
 18 16  1  0
 18 19  2  0
 20 21  1  0
 22 21  1  0
 24 23  1  6
 23 22  1  0
 24 25  1  0
 25 18  1  0
 26 24  1  0
 27 26  1  0
 28 26  2  0
M  END
$$$$
