FMM.pdb
     RDKit          3D

 28 28  0  0  1  0  0  0  0  0999 V2000
   21.9859  -10.1613  -21.6797 N   0  0  0  0  0  0  0  0  0  0  0  0
   20.8462   -9.9286  -20.8385 C   0  0  1  0  0  0  0  0  0  0  0  0
   20.8004  -10.9123  -19.6701 C   0  0  0  0  0  0  0  0  0  0  0  0
   20.3930  -12.2266  -20.1787 C   0  0  0  0  0  0  0  0  0  0  0  0
   21.3374  -13.2237  -20.3207 C   0  0  0  0  0  0  0  0  0  0  0  0
   20.9476  -14.4513  -20.7967 C   0  0  0  0  0  0  0  0  0  0  0  0
   19.6109  -14.6612  -21.1246 C   0  0  0  0  0  0  0  0  0  0  0  0
   18.6768  -13.6522  -20.9766 C   0  0  0  0  0  0  0  0  0  0  0  0
   19.0744  -12.4329  -20.5017 C   0  0  0  0  0  0  0  0  0  0  0  0
   21.0155   -8.5757  -20.2010 C   0  0  0  0  0  0  0  0  0  0  0  0
   22.1194   -7.9976  -20.1239 O   0  0  0  0  0  0  0  0  0  0  0  0
   16.6856   -2.2331  -19.0134 C   0  0  0  0  0  0  0  0  0  0  0  0
   16.9490   -3.8961  -19.6838 S   0  0  0  0  0  0  0  0  0  0  0  0
   18.6054   -4.4601  -19.0973 C   0  0  0  0  0  0  0  0  0  0  0  0
   18.7360   -5.8705  -19.5268 C   0  0  0  0  0  0  0  0  0  0  0  0
   20.0303   -6.5610  -19.1800 C   0  0  2  0  0  0  0  0  0  0  0  0
   19.8630   -7.9594  -19.6775 N   0  0  0  0  0  0  0  0  0  0  0  0
   20.2124   -6.5904  -17.7207 C   0  0  0  0  0  0  0  0  0  0  0  0
   19.7380   -7.5663  -17.0589 O   0  0  0  0  0  0  0  0  0  0  0  0
   23.7180  -10.5797  -14.1502 C   0  0  0  0  0  0  0  0  0  0  0  0
   23.7365   -9.2420  -15.3573 S   0  0  0  0  0  0  0  0  0  0  0  0
   22.5039   -8.0171  -14.8888 C   0  0  0  0  0  0  0  0  0  0  0  0
   22.4170   -6.9286  -15.8725 C   0  0  0  0  0  0  0  0  0  0  0  0
   21.4166   -5.8282  -15.6514 C   0  0  2  0  0  0  0  0  0  0  0  0
   20.8928   -5.5895  -17.0379 N   0  0  0  0  0  0  0  0  0  0  0  0
   21.9350   -4.5485  -15.1802 C   0  0  0  0  0  0  0  0  0  0  0  0
   22.2432   -3.5131  -16.0486 O   0  0  0  0  0  0  0  0  0  0  0  0
   22.1536   -4.2722  -13.9493 O   0  0  0  0  0  0  0  0  0  0  0  0
  2  1  1  6
  2  3  1  0
  4  3  1  0
  4  5  2  0
  6  5  1  0
  7  6  2  0
  8  9  2  0
  8  7  1  0
  9  4  1  0
 10  2  1  0
 11 10  2  0
 13 12  1  0
 14 15  1  0
 14 13  1  0
 16 15  1  1
 16 17  1  0
 17 10  1  0
 18 16  1  0
 18 19  2  0
 20 21  1  0
 22 21  1  0
 24 23  1  6
 23 22  1  0
 24 25  1  0
 25 18  1  0
 26 24  1  0
 27 26  1  0
 28 26  2  0
M  END
$$$$
