FMM.pdb
     RDKit          3D

 28 28  0  0  1  0  0  0  0  0999 V2000
   24.8226  -20.9384  -16.5300 N   0  0  0  0  0  0  0  0  0  0  0  0
   24.9748  -20.2320  -15.2896 C   0  0  1  0  0  0  0  0  0  0  0  0
   23.6224  -19.8319  -14.7016 C   0  0  0  0  0  0  0  0  0  0  0  0
   23.0026  -18.8371  -15.5838 C   0  0  0  0  0  0  0  0  0  0  0  0
   23.4502  -17.5313  -15.5570 C   0  0  0  0  0  0  0  0  0  0  0  0
   22.8651  -16.6065  -16.3865 C   0  0  0  0  0  0  0  0  0  0  0  0
   21.8355  -17.0070  -17.2338 C   0  0  0  0  0  0  0  0  0  0  0  0
   21.3984  -18.3190  -17.2488 C   0  0  0  0  0  0  0  0  0  0  0  0
   21.9872  -19.2330  -16.4192 C   0  0  0  0  0  0  0  0  0  0  0  0
   25.5669  -21.1866  -14.2879 C   0  0  0  0  0  0  0  0  0  0  0  0
   25.1692  -22.3628  -14.1572 O   0  0  0  0  0  0  0  0  0  0  0  0
   31.2636  -21.8347  -11.4607 C   0  0  0  0  0  0  0  0  0  0  0  0
   30.9010  -20.1990  -12.1515 S   0  0  0  0  0  0  0  0  0  0  0  0
   29.0650  -20.0580  -12.2738 C   0  0  0  0  0  0  0  0  0  0  0  0
   28.5468  -21.4440  -12.3066 C   0  0  0  0  0  0  0  0  0  0  0  0
   27.0486  -21.5999  -12.3628 C   0  0  2  0  0  0  0  0  0  0  0  0
   26.6125  -20.7057  -13.4768 N   0  0  0  0  0  0  0  0  0  0  0  0
   26.4440  -21.1301  -11.1068 C   0  0  0  0  0  0  0  0  0  0  0  0
   26.1186  -19.9063  -10.9983 O   0  0  0  0  0  0  0  0  0  0  0  0
   28.3007  -19.5389   -5.7403 C   0  0  0  0  0  0  0  0  0  0  0  0
   27.1700  -18.4410   -6.6138 S   0  0  0  0  0  0  0  0  0  0  0  0
   25.8492  -19.4235   -7.3411 C   0  0  0  0  0  0  0  0  0  0  0  0
   26.3577  -20.3441   -8.3679 C   0  0  0  0  0  0  0  0  0  0  0  0
   25.4899  -21.4894   -8.8103 C   0  0  2  0  0  0  0  0  0  0  0  0
   26.2086  -21.9806  -10.0334 N   0  0  0  0  0  0  0  0  0  0  0  0
   24.1317  -21.1649   -9.2324 C   0  0  0  0  0  0  0  0  0  0  0  0
   23.0679  -21.1473   -8.3439 O   0  0  0  0  0  0  0  0  0  0  0  0
   23.8034  -20.8786  -10.4363 O   0  0  0  0  0  0  0  0  0  0  0  0
  2  1  1  6
  2  3  1  0
  4  3  1  0
  4  5  2  0
  6  5  1  0
  7  6  2  0
  8  9  2  0
  8  7  1  0
  9  4  1  0
 10  2  1  0
 11 10  2  0
 13 12  1  0
 14 15  1  0
 14 13  1  0
 16 15  1  1
 16 17  1  0
 17 10  1  0
 18 16  1  0
 18 19  2  0
 20 21  1  0
 22 21  1  0
 24 23  1  6
 23 22  1  0
 24 25  1  0
 25 18  1  0
 26 24  1  0
 27 26  1  0
 28 26  2  0
M  END
$$$$
