FMM.pdb
     RDKit          3D

 28 28  0  0  1  0  0  0  0  0999 V2000
   28.3994  -20.0098  -15.3967 N   0  0  0  0  0  0  0  0  0  0  0  0
   27.4777  -19.2627  -14.5885 C   0  0  1  0  0  0  0  0  0  0  0  0
   26.4592  -18.5128  -15.4458 C   0  0  0  0  0  0  0  0  0  0  0  0
   27.0974  -17.3078  -15.9869 C   0  0  0  0  0  0  0  0  0  0  0  0
   27.6033  -17.3245  -17.2715 C   0  0  0  0  0  0  0  0  0  0  0  0
   28.1986  -16.1922  -17.7707 C   0  0  0  0  0  0  0  0  0  0  0  0
   28.2779  -15.0555  -16.9706 C   0  0  0  0  0  0  0  0  0  0  0  0
   27.7664  -15.0548  -15.6857 C   0  0  0  0  0  0  0  0  0  0  0  0
   27.1752  -16.1872  -15.1972 C   0  0  0  0  0  0  0  0  0  0  0  0
   26.6648  -20.2470  -13.7912 C   0  0  0  0  0  0  0  0  0  0  0  0
   26.4290  -21.4073  -14.1871 O   0  0  0  0  0  0  0  0  0  0  0  0
   28.0794  -20.3559   -7.0389 C   0  0  0  0  0  0  0  0  0  0  0  0
   26.5339  -20.0105   -7.9202 S   0  0  0  0  0  0  0  0  0  0  0  0
   26.7352  -20.6537   -9.6382 C   0  0  0  0  0  0  0  0  0  0  0  0
   25.4670  -20.3556  -10.3407 C   0  0  0  0  0  0  0  0  0  0  0  0
   25.3690  -20.8137  -11.7734 C   0  0  2  0  0  0  0  0  0  0  0  0
   26.1613  -19.8137  -12.5499 N   0  0  0  0  0  0  0  0  0  0  0  0
   23.9693  -20.7697  -12.2236 C   0  0  0  0  0  0  0  0  0  0  0  0
   23.4479  -19.6464  -12.5095 O   0  0  0  0  0  0  0  0  0  0  0  0
   21.8659  -26.0072  -14.4523 C   0  0  0  0  0  0  0  0  0  0  0  0
   20.3970  -25.1167  -14.9965 S   0  0  0  0  0  0  0  0  0  0  0  0
   20.3458  -23.5179  -14.1718 C   0  0  0  0  0  0  0  0  0  0  0  0
   21.6461  -23.1673  -13.5830 C   0  0  0  0  0  0  0  0  0  0  0  0
   21.7969  -21.8397  -12.8936 C   0  0  2  0  0  0  0  0  0  0  0  0
   23.1959  -21.9168  -12.3547 N   0  0  0  0  0  0  0  0  0  0  0  0
   20.9275  -21.5864  -11.7498 C   0  0  0  0  0  0  0  0  0  0  0  0
   19.6463  -21.0780  -11.8958 O   0  0  0  0  0  0  0  0  0  0  0  0
   21.2624  -21.7999  -10.5327 O   0  0  0  0  0  0  0  0  0  0  0  0
  2  1  1  6
  2  3  1  0
  4  3  1  0
  4  5  2  0
  6  5  1  0
  7  6  2  0
  8  9  2  0
  8  7  1  0
  9  4  1  0
 10  2  1  0
 11 10  2  0
 13 12  1  0
 14 15  1  0
 14 13  1  0
 16 15  1  1
 16 17  1  0
 17 10  1  0
 18 16  1  0
 18 19  2  0
 20 21  1  0
 22 21  1  0
 24 23  1  1
 23 22  1  0
 24 25  1  0
 25 18  1  0
 26 24  1  0
 27 26  1  0
 28 26  2  0
M  END
$$$$
