FMM.pdb
     RDKit          3D

 28 28  0  0  1  0  0  0  0  0999 V2000
   29.7353  -20.6261  -14.6459 N   0  0  0  0  0  0  0  0  0  0  0  0
   29.5250  -20.9362  -13.2602 C   0  0  1  0  0  0  0  0  0  0  0  0
   30.5835  -20.2841  -12.3718 C   0  0  0  0  0  0  0  0  0  0  0  0
   31.0970  -21.2912  -11.4367 C   0  0  0  0  0  0  0  0  0  0  0  0
   32.4602  -21.4680  -11.3086 C   0  0  0  0  0  0  0  0  0  0  0  0
   32.9327  -22.4122  -10.4307 C   0  0  0  0  0  0  0  0  0  0  0  0
   32.0268  -23.1681   -9.6915 C   0  0  0  0  0  0  0  0  0  0  0  0
   30.6640  -22.9791   -9.8312 C   0  0  0  0  0  0  0  0  0  0  0  0
   30.2029  -22.0362  -10.7080 C   0  0  0  0  0  0  0  0  0  0  0  0
   28.2241  -20.3055  -12.8415 C   0  0  0  0  0  0  0  0  0  0  0  0
   27.9814  -19.0904  -12.9943 O   0  0  0  0  0  0  0  0  0  0  0  0
   22.5455  -20.2972  -14.2259 C   0  0  0  0  0  0  0  0  0  0  0  0
   22.2739  -20.9635  -12.5625 S   0  0  0  0  0  0  0  0  0  0  0  0
   23.6578  -20.3561  -11.5036 C   0  0  0  0  0  0  0  0  0  0  0  0
   24.9061  -20.8058  -12.1594 C   0  0  0  0  0  0  0  0  0  0  0  0
   26.1947  -20.4692  -11.4534 C   0  0  2  0  0  0  0  0  0  0  0  0
   27.2581  -21.1454  -12.2552 N   0  0  0  0  0  0  0  0  0  0  0  0
   26.1887  -21.0322  -10.0945 C   0  0  0  0  0  0  0  0  0  0  0  0
   26.4101  -22.2741   -9.9398 O   0  0  0  0  0  0  0  0  0  0  0  0
   29.4393  -18.9625   -5.5939 C   0  0  0  0  0  0  0  0  0  0  0  0
   27.9745  -19.0592   -4.5488 S   0  0  0  0  0  0  0  0  0  0  0  0
   26.7739  -20.1503   -5.3278 C   0  0  0  0  0  0  0  0  0  0  0  0
   26.7687  -19.9986   -6.7898 C   0  0  0  0  0  0  0  0  0  0  0  0
   25.8635  -20.8772   -7.6078 C   0  0  2  0  0  0  0  0  0  0  0  0
   25.9555  -20.2510   -8.9691 N   0  0  0  0  0  0  0  0  0  0  0  0
   24.4489  -20.8830   -7.2511 C   0  0  0  0  0  0  0  0  0  0  0  0
   23.4907  -20.2482   -8.0257 O   0  0  0  0  0  0  0  0  0  0  0  0
   23.9737  -21.4569   -6.2100 O   0  0  0  0  0  0  0  0  0  0  0  0
  2  1  1  6
  2  3  1  0
  4  3  1  0
  4  5  2  0
  6  5  1  0
  7  6  2  0
  8  9  2  0
  8  7  1  0
  9  4  1  0
 10  2  1  0
 11 10  2  0
 13 12  1  0
 14 15  1  0
 14 13  1  0
 16 15  1  6
 16 17  1  0
 17 10  1  0
 18 16  1  0
 18 19  2  0
 20 21  1  0
 22 21  1  0
 24 23  1  1
 23 22  1  0
 24 25  1  0
 25 18  1  0
 26 24  1  0
 27 26  1  0
 28 26  2  0
M  END
$$$$
