FMM.pdb
     RDKit          3D

 28 28  0  0  1  0  0  0  0  0999 V2000
   28.1398  -20.2504  -15.2883 N   0  0  0  0  0  0  0  0  0  0  0  0
   27.4375  -19.4162  -14.3547 C   0  0  1  0  0  0  0  0  0  0  0  0
   26.3994  -18.5404  -15.0548 C   0  0  0  0  0  0  0  0  0  0  0  0
   27.0948  -17.4487  -15.7452 C   0  0  0  0  0  0  0  0  0  0  0  0
   27.6474  -16.4203  -15.0081 C   0  0  0  0  0  0  0  0  0  0  0  0
   28.2972  -15.4027  -15.6620 C   0  0  0  0  0  0  0  0  0  0  0  0
   28.3834  -15.4319  -17.0513 C   0  0  0  0  0  0  0  0  0  0  0  0
   27.8246  -16.4691  -17.7755 C   0  0  0  0  0  0  0  0  0  0  0  0
   27.1794  -17.4783  -17.1154 C   0  0  0  0  0  0  0  0  0  0  0  0
   26.6401  -20.3139  -13.4473 C   0  0  0  0  0  0  0  0  0  0  0  0
   26.1450  -21.3945  -13.8293 O   0  0  0  0  0  0  0  0  0  0  0  0
   27.4466  -20.9514   -6.9669 C   0  0  0  0  0  0  0  0  0  0  0  0
   25.7604  -20.3236   -7.1841 S   0  0  0  0  0  0  0  0  0  0  0  0
   25.1290  -21.0081   -8.7773 C   0  0  0  0  0  0  0  0  0  0  0  0
   25.8860  -20.3226   -9.8487 C   0  0  0  0  0  0  0  0  0  0  0  0
   25.5893  -20.7539  -11.2623 C   0  0  2  0  0  0  0  0  0  0  0  0
   26.4606  -19.8921  -12.1160 N   0  0  0  0  0  0  0  0  0  0  0  0
   24.1807  -20.4830  -11.5884 C   0  0  0  0  0  0  0  0  0  0  0  0
   23.8087  -19.2810  -11.7672 O   0  0  0  0  0  0  0  0  0  0  0  0
   22.6868  -24.8425  -14.3639 C   0  0  0  0  0  0  0  0  0  0  0  0
   22.0685  -23.5395  -15.4441 S   0  0  0  0  0  0  0  0  0  0  0  0
   21.9795  -22.0028  -14.5115 C   0  0  0  0  0  0  0  0  0  0  0  0
   21.5273  -22.2292  -13.1314 C   0  0  0  0  0  0  0  0  0  0  0  0
   21.8209  -21.1847  -12.0905 C   0  0  2  0  0  0  0  0  0  0  0  0
   23.2403  -21.4982  -11.7152 N   0  0  0  0  0  0  0  0  0  0  0  0
   21.0450  -21.2447  -10.8566 C   0  0  0  0  0  0  0  0  0  0  0  0
   19.8670  -20.5333  -10.6911 O   0  0  0  0  0  0  0  0  0  0  0  0
   21.3763  -21.9398   -9.8337 O   0  0  0  0  0  0  0  0  0  0  0  0
  2  1  1  6
  2  3  1  0
  4  3  1  0
  4  5  2  0
  6  5  1  0
  7  6  2  0
  8  9  2  0
  8  7  1  0
  9  4  1  0
 10  2  1  0
 11 10  2  0
 13 12  1  0
 14 15  1  0
 14 13  1  0
 16 15  1  1
 16 17  1  0
 17 10  1  0
 18 16  1  0
 18 19  2  0
 20 21  1  0
 22 21  1  0
 24 23  1  6
 23 22  1  0
 24 25  1  0
 25 18  1  0
 26 24  1  0
 27 26  1  0
 28 26  2  0
M  END
$$$$
