FMM.pdb
     RDKit          3D

 28 28  0  0  1  0  0  0  0  0999 V2000
   27.4557  -17.2762  -20.8985 N   0  0  0  0  0  0  0  0  0  0  0  0
   27.3088  -18.3908  -20.0058 C   0  0  1  0  0  0  0  0  0  0  0  0
   27.4883  -17.9701  -18.5479 C   0  0  0  0  0  0  0  0  0  0  0  0
   28.8623  -17.4903  -18.3633 C   0  0  0  0  0  0  0  0  0  0  0  0
   29.0979  -16.1364  -18.2298 C   0  0  0  0  0  0  0  0  0  0  0  0
   30.3868  -15.6956  -18.0567 C   0  0  0  0  0  0  0  0  0  0  0  0
   31.4244  -16.6233  -18.0202 C   0  0  0  0  0  0  0  0  0  0  0  0
   31.1720  -17.9762  -18.1556 C   0  0  0  0  0  0  0  0  0  0  0  0
   29.8850  -18.4058  -18.3274 C   0  0  0  0  0  0  0  0  0  0  0  0
   25.8848  -18.8690  -20.0998 C   0  0  0  0  0  0  0  0  0  0  0  0
   24.9146  -18.0895  -20.1981 O   0  0  0  0  0  0  0  0  0  0  0  0
   25.0665  -23.3471  -23.4997 C   0  0  0  0  0  0  0  0  0  0  0  0
   23.3898  -23.6935  -22.9054 S   0  0  0  0  0  0  0  0  0  0  0  0
   23.0119  -22.4494  -21.5958 C   0  0  0  0  0  0  0  0  0  0  0  0
   24.2953  -21.7846  -21.2768 C   0  0  0  0  0  0  0  0  0  0  0  0
   24.2506  -20.7092  -20.2215 C   0  0  2  0  0  0  0  0  0  0  0  0
   25.6671  -20.2598  -20.0730 N   0  0  0  0  0  0  0  0  0  0  0  0
   23.7909  -21.2740  -18.9434 C   0  0  0  0  0  0  0  0  0  0  0  0
   24.6020  -21.9576  -18.2433 O   0  0  0  0  0  0  0  0  0  0  0  0
   21.3205  -18.1105  -14.3783 C   0  0  0  0  0  0  0  0  0  0  0  0
   19.9527  -18.3959  -15.5160 S   0  0  0  0  0  0  0  0  0  0  0  0
   20.2540  -19.9239  -16.4179 C   0  0  0  0  0  0  0  0  0  0  0  0
   21.6809  -20.2766  -16.4297 C   0  0  0  0  0  0  0  0  0  0  0  0
   22.1077  -21.5535  -17.0989 C   0  0  2  0  0  0  0  0  0  0  0  0
   22.4991  -21.0806  -18.4689 N   0  0  0  0  0  0  0  0  0  0  0  0
   21.0826  -22.5733  -17.2918 C   0  0  0  0  0  0  0  0  0  0  0  0
   20.6785  -23.4155  -16.2677 O   0  0  0  0  0  0  0  0  0  0  0  0
   20.4793  -22.7836  -18.4013 O   0  0  0  0  0  0  0  0  0  0  0  0
  2  1  1  6
  2  3  1  0
  4  3  1  0
  4  5  2  0
  6  5  1  0
  7  6  2  0
  8  9  2  0
  8  7  1  0
  9  4  1  0
 10  2  1  0
 11 10  2  0
 13 12  1  0
 14 15  1  0
 14 13  1  0
 16 15  1  6
 16 17  1  0
 17 10  1  0
 18 16  1  0
 18 19  2  0
 20 21  1  0
 22 21  1  0
 24 23  1  1
 23 22  1  0
 24 25  1  0
 25 18  1  0
 26 24  1  0
 27 26  1  0
 28 26  2  0
M  END
$$$$
