FMM.pdb
     RDKit          3D

 28 28  0  0  1  0  0  0  0  0999 V2000
   10.6546  -33.3325 -122.2648 N   0  0  0  0  0  0  0  0  0  0  0  0
   11.9093  -32.7325 -122.6207 C   0  0  1  0  0  0  0  0  0  0  0  0
   12.7461  -33.6604 -123.5002 C   0  0  0  0  0  0  0  0  0  0  0  0
   14.1386  -33.6129 -123.0411 C   0  0  0  0  0  0  0  0  0  0  0  0
   14.7723  -32.3927 -122.9158 C   0  0  0  0  0  0  0  0  0  0  0  0
   16.0756  -32.3570 -122.4849 C   0  0  0  0  0  0  0  0  0  0  0  0
   16.7265  -33.5507 -122.1850 C   0  0  0  0  0  0  0  0  0  0  0  0
   16.0778  -34.7651 -122.3157 C   0  0  0  0  0  0  0  0  0  0  0  0
   14.7797  -34.7907 -122.7455 C   0  0  0  0  0  0  0  0  0  0  0  0
   11.6164  -31.5365 -123.4861 C   0  0  0  0  0  0  0  0  0  0  0  0
   11.0285  -31.6236 -124.5840 O   0  0  0  0  0  0  0  0  0  0  0  0
    8.9612  -33.1998 -119.8496 C   0  0  0  0  0  0  0  0  0  0  0  0
   10.1760  -32.2392 -118.9084 S   0  0  0  0  0  0  0  0  0  0  0  0
   10.2948  -30.5818 -119.7112 C   0  0  0  0  0  0  0  0  0  0  0  0
   11.2904  -30.7208 -120.7976 C   0  0  0  0  0  0  0  0  0  0  0  0
   11.2320  -29.6921 -121.8978 C   0  0  2  0  0  0  0  0  0  0  0  0
   12.0349  -30.2783 -123.0125 N   0  0  0  0  0  0  0  0  0  0  0  0
   11.8684  -28.4419 -121.4553 C   0  0  0  0  0  0  0  0  0  0  0  0
   12.8949  -28.5025 -120.7084 O   0  0  0  0  0  0  0  0  0  0  0  0
    7.4206  -23.7176 -125.1276 C   0  0  0  0  0  0  0  0  0  0  0  0
    8.1750  -23.7435 -123.4914 S   0  0  0  0  0  0  0  0  0  0  0  0
    8.5833  -25.4436 -123.0648 C   0  0  0  0  0  0  0  0  0  0  0  0
   10.0345  -25.6394 -122.9381 C   0  0  0  0  0  0  0  0  0  0  0  0
   10.5967  -27.0250 -123.0950 C   0  0  2  0  0  0  0  0  0  0  0  0
   11.3899  -27.1926 -121.8314 N   0  0  0  0  0  0  0  0  0  0  0  0
   11.5272  -27.2399 -124.1978 C   0  0  0  0  0  0  0  0  0  0  0  0
   12.2049  -28.4369 -124.3679 O   0  0  0  0  0  0  0  0  0  0  0  0
   11.8018  -26.3603 -125.0867 O   0  0  0  0  0  0  0  0  0  0  0  0
  2  1  1  6
  2  3  1  0
  4  3  1  0
  4  5  2  0
  6  5  1  0
  7  6  2  0
  8  9  2  0
  8  7  1  0
  9  4  1  0
 10  2  1  0
 11 10  2  0
 13 12  1  0
 14 15  1  0
 14 13  1  0
 16 15  1  1
 16 17  1  0
 17 10  1  0
 18 16  1  0
 18 19  2  0
 20 21  1  0
 22 21  1  0
 24 23  1  6
 23 22  1  0
 24 25  1  0
 25 18  1  0
 26 24  1  0
 27 26  1  0
 28 26  2  0
M  END
$$$$
