FMM.pdb
     RDKit          3D

 28 28  0  0  1  0  0  0  0  0999 V2000
   27.9275  -20.9523  -15.2808 N   0  0  0  0  0  0  0  0  0  0  0  0
   27.4276  -20.0475  -14.2847 C   0  0  1  0  0  0  0  0  0  0  0  0
   26.6525  -18.8912  -14.9147 C   0  0  0  0  0  0  0  0  0  0  0  0
   27.5906  -18.0531  -15.6694 C   0  0  0  0  0  0  0  0  0  0  0  0
   27.1138  -16.9717  -16.3833 C   0  0  0  0  0  0  0  0  0  0  0  0
   27.9986  -16.1918  -17.0865 C   0  0  0  0  0  0  0  0  0  0  0  0
   29.3539  -16.5098  -17.0632 C   0  0  0  0  0  0  0  0  0  0  0  0
   29.8158  -17.5964  -16.3433 C   0  0  0  0  0  0  0  0  0  0  0  0
   28.9271  -18.3673  -15.6459 C   0  0  0  0  0  0  0  0  0  0  0  0
   26.4130  -20.7908  -13.4580 C   0  0  0  0  0  0  0  0  0  0  0  0
   25.7603  -21.7596  -13.8985 O   0  0  0  0  0  0  0  0  0  0  0  0
   26.8862  -18.8197   -7.4523 C   0  0  0  0  0  0  0  0  0  0  0  0
   26.3960  -20.5639   -7.4953 S   0  0  0  0  0  0  0  0  0  0  0  0
   26.5316  -21.1212   -9.2494 C   0  0  0  0  0  0  0  0  0  0  0  0
   25.3300  -20.6023   -9.9404 C   0  0  0  0  0  0  0  0  0  0  0  0
   25.1327  -21.0443  -11.3679 C   0  0  2  0  0  0  0  0  0  0  0  0
   26.2118  -20.3531  -12.1350 N   0  0  0  0  0  0  0  0  0  0  0  0
   23.8251  -20.5867  -11.8627 C   0  0  0  0  0  0  0  0  0  0  0  0
   23.6869  -19.3717  -12.2089 O   0  0  0  0  0  0  0  0  0  0  0  0
   21.9772  -19.4023  -16.2756 C   0  0  0  0  0  0  0  0  0  0  0  0
   20.5482  -20.4978  -16.3425 S   0  0  0  0  0  0  0  0  0  0  0  0
   20.1821  -21.0802  -14.6794 C   0  0  0  0  0  0  0  0  0  0  0  0
   21.4066  -21.2857  -13.8928 C   0  0  0  0  0  0  0  0  0  0  0  0
   21.4016  -20.9238  -12.4335 C   0  0  2  0  0  0  0  0  0  0  0  0
   22.7336  -21.4398  -11.9720 N   0  0  0  0  0  0  0  0  0  0  0  0
   20.3964  -21.5692  -11.5960 C   0  0  0  0  0  0  0  0  0  0  0  0
   19.1258  -21.0409  -11.4297 O   0  0  0  0  0  0  0  0  0  0  0  0
   20.5928  -22.6554  -10.9473 O   0  0  0  0  0  0  0  0  0  0  0  0
  2  1  1  6
  2  3  1  0
  4  3  1  0
  4  5  2  0
  6  5  1  0
  7  6  2  0
  8  9  2  0
  8  7  1  0
  9  4  1  0
 10  2  1  0
 11 10  2  0
 13 12  1  0
 14 15  1  0
 14 13  1  0
 16 15  1  1
 16 17  1  0
 17 10  1  0
 18 16  1  0
 18 19  2  0
 20 21  1  0
 22 21  1  0
 24 23  1  6
 23 22  1  0
 24 25  1  0
 25 18  1  0
 26 24  1  0
 27 26  1  0
 28 26  2  0
M  END
$$$$
