IVI.pdb
     RDKit          3D

 24 23  0  0  1  0  0  0  0  0999 V2000
   28.0178  -16.8509  -18.0038 C   0  0  0  0  0  0  0  0  0  0  0  0
   28.5216  -17.9803  -17.1107 C   0  0  0  0  0  0  0  0  0  0  0  0
   27.4139  -18.6740  -16.4032 C   0  0  2  0  0  0  0  0  0  0  0  0
   26.6025  -17.7505  -15.5200 C   0  0  0  0  0  0  0  0  0  0  0  0
   27.9358  -19.8172  -15.5823 C   0  0  2  0  0  0  0  0  0  0  0  0
   28.6561  -20.7724  -16.4285 N   0  0  0  0  0  0  0  0  0  0  0  0
   26.9565  -20.4726  -14.7293 C   0  0  0  0  0  0  0  0  0  0  0  0
   26.1070  -21.2487  -15.2187 O   0  0  0  0  0  0  0  0  0  0  0  0
   26.6794  -19.6694  -10.5266 C   0  0  0  0  0  0  0  0  0  0  0  0
   26.2352  -20.9944  -11.0492 C   0  0  1  0  0  0  0  0  0  0  0  0
   25.1439  -21.6257  -10.2324 C   0  0  0  0  0  0  0  0  0  0  0  0
   25.8492  -20.9211  -12.5303 C   0  0  2  0  0  0  0  0  0  0  0  0
   26.8820  -20.2936  -13.3102 N   0  0  0  0  0  0  0  0  0  0  0  0
   24.5720  -20.1793  -12.6984 C   0  0  0  0  0  0  0  0  0  0  0  0
   24.5421  -18.9047  -12.6958 O   0  0  0  0  0  0  0  0  0  0  0  0
   20.5169  -18.8514  -16.3346 C   0  0  0  0  0  0  0  0  0  0  0  0
   20.6318  -19.2494  -14.8968 C   0  0  0  0  0  0  0  0  0  0  0  0
   21.9029  -20.0140  -14.5950 C   0  0  2  0  0  0  0  0  0  0  0  0
   21.8519  -21.3719  -15.2557 C   0  0  0  0  0  0  0  0  0  0  0  0
   22.0773  -20.1597  -13.0771 C   0  0  2  0  0  0  0  0  0  0  0  0
   23.3412  -20.8387  -12.8674 N   0  0  0  0  0  0  0  0  0  0  0  0
   20.9305  -20.9969  -12.6193 C   0  0  0  0  0  0  0  0  0  0  0  0
   21.0856  -22.3441  -12.4259 O   0  0  0  0  0  0  0  0  0  0  0  0
   19.8035  -20.4791  -12.4036 O   0  0  0  0  0  0  0  0  0  0  0  0
  2  3  1  0
  2  1  1  0
  3  4  1  1
  5  3  1  0
  5  6  1  6
  5  7  1  0
  7  8  2  0
 10 11  1  1
 10 12  1  0
 10  9  1  0
 13  7  1  0
 12 13  1  6
 14 12  1  0
 14 15  2  0
 17 18  1  0
 17 16  1  0
 18 20  1  0
 18 19  1  6
 20 22  1  0
 20 21  1  6
 21 14  1  0
 22 23  1  0
 24 22  2  0
M  END
$$$$
