IVI.pdb
     RDKit          3D

 24 23  0  0  1  0  0  0  0  0999 V2000
   20.3608  -20.1821  -12.2655 C   0  0  0  0  0  0  0  0  0  0  0  0
   21.7733  -20.3105  -12.8270 C   0  0  0  0  0  0  0  0  0  0  0  0
   22.7203  -20.8902  -11.8390 C   0  0  2  0  0  0  0  0  0  0  0  0
   22.7556  -20.1278  -10.5318 C   0  0  0  0  0  0  0  0  0  0  0  0
   24.1071  -20.9676  -12.4082 C   0  0  2  0  0  0  0  0  0  0  0  0
   24.1269  -21.8159  -13.6030 N   0  0  0  0  0  0  0  0  0  0  0  0
   25.1515  -21.3304  -11.4628 C   0  0  0  0  0  0  0  0  0  0  0  0
   25.2268  -22.4961  -11.0168 O   0  0  0  0  0  0  0  0  0  0  0  0
   29.6208  -21.1819   -9.7219 C   0  0  0  0  0  0  0  0  0  0  0  0
   28.5549  -20.7872  -10.6884 C   0  0  1  0  0  0  0  0  0  0  0  0
   28.5987  -21.5582  -11.9770 C   0  0  0  0  0  0  0  0  0  0  0  0
   27.1616  -20.8451  -10.0533 C   0  0  2  0  0  0  0  0  0  0  0  0
   26.1460  -20.4204  -10.9789 N   0  0  0  0  0  0  0  0  0  0  0  0
   27.1122  -20.0005   -8.8309 C   0  0  0  0  0  0  0  0  0  0  0  0
   26.7089  -18.7919   -8.8779 O   0  0  0  0  0  0  0  0  0  0  0  0
   27.3504  -22.4010   -3.6365 C   0  0  0  0  0  0  0  0  0  0  0  0
   26.9270  -21.5014   -4.7547 C   0  0  0  0  0  0  0  0  0  0  0  0
   28.0399  -20.5970   -5.2394 C   0  0  2  0  0  0  0  0  0  0  0  0
   28.5672  -19.7729   -4.0880 C   0  0  0  0  0  0  0  0  0  0  0  0
   27.5223  -19.6864   -6.3611 C   0  0  2  0  0  0  0  0  0  0  0  0
   27.5043  -20.4860   -7.5705 N   0  0  0  0  0  0  0  0  0  0  0  0
   28.5101  -18.5730   -6.4629 C   0  0  0  0  0  0  0  0  0  0  0  0
   28.2264  -17.3403   -5.9371 O   0  0  0  0  0  0  0  0  0  0  0  0
   29.6187  -18.7485   -7.0329 O   0  0  0  0  0  0  0  0  0  0  0  0
  2  3  1  0
  2  1  1  0
  3  4  1  1
  5  3  1  0
  5  6  1  6
  5  7  1  0
  7  8  2  0
 10 11  1  6
 10 12  1  0
 10  9  1  0
 13  7  1  0
 12 13  1  6
 14 12  1  0
 14 15  2  0
 17 18  1  0
 17 16  1  0
 18 20  1  0
 18 19  1  1
 20 22  1  0
 20 21  1  6
 21 14  1  0
 22 23  1  0
 24 22  2  0
M  END
$$$$
