IVI.pdb
     RDKit          3D

 24 23  0  0  1  0  0  0  0  0999 V2000
   24.3410  -12.6516  -15.5022 C   0  0  0  0  0  0  0  0  0  0  0  0
   24.6074  -13.8628  -16.3904 C   0  0  0  0  0  0  0  0  0  0  0  0
   24.7090  -15.1221  -15.6077 C   0  0  2  0  0  0  0  0  0  0  0  0
   25.8498  -15.1129  -14.6128 C   0  0  0  0  0  0  0  0  0  0  0  0
   24.8506  -16.3079  -16.5172 C   0  0  2  0  0  0  0  0  0  0  0  0
   23.8166  -16.2872  -17.5554 N   0  0  0  0  0  0  0  0  0  0  0  0
   24.9322  -17.5993  -15.8525 C   0  0  0  0  0  0  0  0  0  0  0  0
   23.8949  -18.1804  -15.4653 O   0  0  0  0  0  0  0  0  0  0  0  0
   27.1521  -21.9104  -15.3026 C   0  0  0  0  0  0  0  0  0  0  0  0
   26.9082  -20.5979  -15.9687 C   0  0  1  0  0  0  0  0  0  0  0  0
   26.2227  -20.7194  -17.2999 C   0  0  0  0  0  0  0  0  0  0  0  0
   26.1664  -19.6225  -15.0487 C   0  0  2  0  0  0  0  0  0  0  0  0
   26.1590  -18.2914  -15.5935 N   0  0  0  0  0  0  0  0  0  0  0  0
   26.7866  -19.6089  -13.6977 C   0  0  0  0  0  0  0  0  0  0  0  0
   27.9232  -19.0671  -13.4970 O   0  0  0  0  0  0  0  0  0  0  0  0
   25.7234  -19.1769   -7.8063 C   0  0  0  0  0  0  0  0  0  0  0  0
   26.5639  -19.7748   -8.8903 C   0  0  0  0  0  0  0  0  0  0  0  0
   25.8759  -19.7765  -10.2386 C   0  0  2  0  0  0  0  0  0  0  0  0
   24.5835  -20.5543  -10.1523 C   0  0  0  0  0  0  0  0  0  0  0  0
   26.8030  -20.3882  -11.2978 C   0  0  2  0  0  0  0  0  0  0  0  0
   26.1577  -20.1876  -12.5807 N   0  0  0  0  0  0  0  0  0  0  0  0
   26.8974  -21.8383  -10.9601 C   0  0  0  0  0  0  0  0  0  0  0  0
   27.9340  -22.3097  -10.1988 O   0  0  0  0  0  0  0  0  0  0  0  0
   26.0269  -22.6506  -11.3689 O   0  0  0  0  0  0  0  0  0  0  0  0
  2  3  1  0
  2  1  1  0
  3  4  1  1
  5  3  1  0
  5  6  1  6
  5  7  1  0
  7  8  2  0
 10 11  1  6
 10 12  1  0
 10  9  1  0
 13  7  1  0
 12 13  1  6
 14 12  1  0
 14 15  2  0
 17 18  1  0
 17 16  1  0
 18 20  1  0
 18 19  1  1
 20 22  1  0
 20 21  1  6
 21 14  1  0
 22 23  1  0
 24 22  2  0
M  END
$$$$
