IVI.pdb
     RDKit          3D

 24 23  0  0  1  0  0  0  0  0999 V2000
   29.5839  -22.2995  -10.0978 C   0  0  0  0  0  0  0  0  0  0  0  0
   28.1135  -21.9776  -10.3453 C   0  0  0  0  0  0  0  0  0  0  0  0
   27.7633  -20.5943   -9.9297 C   0  0  2  0  0  0  0  0  0  0  0  0
   27.9718  -20.3474   -8.4509 C   0  0  0  0  0  0  0  0  0  0  0  0
   26.3439  -20.2689  -10.2940 C   0  0  2  0  0  0  0  0  0  0  0  0
   25.4121  -21.1081   -9.5358 N   0  0  0  0  0  0  0  0  0  0  0  0
   26.0476  -20.2720  -11.7183 C   0  0  0  0  0  0  0  0  0  0  0  0
   26.8771  -19.8245  -12.5399 O   0  0  0  0  0  0  0  0  0  0  0  0
   23.4567  -21.9112  -15.6050 C   0  0  0  0  0  0  0  0  0  0  0  0
   23.7782  -21.9659  -14.1490 C   0  0  1  0  0  0  0  0  0  0  0  0
   24.4315  -23.2511  -13.7272 C   0  0  0  0  0  0  0  0  0  0  0  0
   24.5997  -20.7520  -13.7021 C   0  0  2  0  0  0  0  0  0  0  0  0
   24.8283  -20.7683  -12.2822 N   0  0  0  0  0  0  0  0  0  0  0  0
   23.9137  -19.4903  -14.0861 C   0  0  0  0  0  0  0  0  0  0  0  0
   22.9295  -19.0408  -13.4115 O   0  0  0  0  0  0  0  0  0  0  0  0
   26.9713  -15.5202  -15.7629 C   0  0  0  0  0  0  0  0  0  0  0  0
   25.8509  -16.3490  -15.2183 C   0  0  0  0  0  0  0  0  0  0  0  0
   24.7687  -16.6246  -16.2402 C   0  0  2  0  0  0  0  0  0  0  0  0
   24.1889  -15.3201  -16.7354 C   0  0  0  0  0  0  0  0  0  0  0  0
   23.6722  -17.4994  -15.6174 C   0  0  2  0  0  0  0  0  0  0  0  0
   24.3107  -18.7337  -15.2032 N   0  0  0  0  0  0  0  0  0  0  0  0
   22.6831  -17.7411  -16.7079 C   0  0  0  0  0  0  0  0  0  0  0  0
   21.4684  -17.1080  -16.6987 O   0  0  0  0  0  0  0  0  0  0  0  0
   22.9489  -18.5295  -17.6525 O   0  0  0  0  0  0  0  0  0  0  0  0
  2  3  1  0
  2  1  1  0
  3  4  1  1
  5  3  1  0
  5  6  1  1
  5  7  1  0
  7  8  2  0
 10 11  1  6
 10 12  1  0
 10  9  1  0
 13  7  1  0
 12 13  1  1
 14 12  1  0
 14 15  2  0
 17 18  1  0
 17 16  1  0
 18 20  1  0
 18 19  1  1
 20 22  1  0
 20 21  1  6
 21 14  1  0
 22 23  1  0
 24 22  2  0
M  END
$$$$
