IVI.pdb
     RDKit          3D

 24 23  0  0  1  0  0  0  0  0999 V2000
   25.0241  -17.5125  -19.3587 C   0  0  0  0  0  0  0  0  0  0  0  0
   26.0123  -18.1599  -18.3937 C   0  0  0  0  0  0  0  0  0  0  0  0
   25.3366  -19.0351  -17.4006 C   0  0  2  0  0  0  0  0  0  0  0  0
   24.2144  -18.3386  -16.6612 C   0  0  0  0  0  0  0  0  0  0  0  0
   26.3229  -19.5811  -16.4094 C   0  0  2  0  0  0  0  0  0  0  0  0
   27.4061  -20.2891  -17.0971 N   0  0  0  0  0  0  0  0  0  0  0  0
   25.7518  -20.3716  -15.3299 C   0  0  0  0  0  0  0  0  0  0  0  0
   25.3632  -21.5419  -15.5374 O   0  0  0  0  0  0  0  0  0  0  0  0
   24.9973  -21.3914  -10.5774 C   0  0  0  0  0  0  0  0  0  0  0  0
   25.7311  -20.6859  -11.6682 C   0  0  1  0  0  0  0  0  0  0  0  0
   27.1345  -21.1841  -11.8662 C   0  0  0  0  0  0  0  0  0  0  0  0
   24.9456  -20.7003  -12.9838 C   0  0  2  0  0  0  0  0  0  0  0  0
   25.5909  -19.8979  -13.9879 N   0  0  0  0  0  0  0  0  0  0  0  0
   23.5583  -20.2124  -12.7660 C   0  0  0  0  0  0  0  0  0  0  0  0
   23.3314  -19.0322  -12.3404 O   0  0  0  0  0  0  0  0  0  0  0  0
   18.2940  -19.8530  -15.3553 C   0  0  0  0  0  0  0  0  0  0  0  0
   18.9519  -20.1145  -14.0371 C   0  0  0  0  0  0  0  0  0  0  0  0
   20.3847  -20.5832  -14.1743 C   0  0  2  0  0  0  0  0  0  0  0  0
   20.4149  -21.9611  -14.7937 C   0  0  0  0  0  0  0  0  0  0  0  0
   21.0645  -20.5961  -12.7985 C   0  0  2  0  0  0  0  0  0  0  0  0
   22.4341  -21.0199  -13.0156 N   0  0  0  0  0  0  0  0  0  0  0  0
   20.3107  -21.5956  -11.9870 C   0  0  0  0  0  0  0  0  0  0  0  0
   20.7544  -22.8877  -11.8867 O   0  0  0  0  0  0  0  0  0  0  0  0
   19.2563  -21.2679  -11.3825 O   0  0  0  0  0  0  0  0  0  0  0  0
  2  3  1  0
  2  1  1  0
  3  4  1  1
  5  3  1  0
  5  6  1  6
  5  7  1  0
  7  8  2  0
 10 11  1  6
 10 12  1  0
 10  9  1  0
 13  7  1  0
 12 13  1  6
 14 12  1  0
 14 15  2  0
 17 18  1  0
 17 16  1  0
 18 20  1  0
 18 19  1  1
 20 22  1  0
 20 21  1  6
 21 14  1  0
 22 23  1  0
 24 22  2  0
M  END
$$$$
