IVI.pdb
     RDKit          3D

 24 23  0  0  1  0  0  0  0  0999 V2000
   15.7852  -13.0254  -19.9261 C   0  0  0  0  0  0  0  0  0  0  0  0
   17.0401  -13.6486  -19.3230 C   0  0  0  0  0  0  0  0  0  0  0  0
   17.6070  -12.8212  -18.2262 C   0  0  2  0  0  0  0  0  0  0  0  0
   17.9846  -11.4242  -18.6702 C   0  0  0  0  0  0  0  0  0  0  0  0
   18.8036  -13.4900  -17.6145 C   0  0  2  0  0  0  0  0  0  0  0  0
   18.4713  -14.8529  -17.1908 N   0  0  0  0  0  0  0  0  0  0  0  0
   19.4707  -12.7379  -16.5631 C   0  0  0  0  0  0  0  0  0  0  0  0
   19.0027  -12.7162  -15.4037 O   0  0  0  0  0  0  0  0  0  0  0  0
   23.2901  -10.4102  -14.5491 C   0  0  0  0  0  0  0  0  0  0  0  0
   22.6839  -11.4186  -15.4665 C   0  0  1  0  0  0  0  0  0  0  0  0
   22.9008  -12.8379  -15.0247 C   0  0  0  0  0  0  0  0  0  0  0  0
   21.1993  -11.1365  -15.7205 C   0  0  2  0  0  0  0  0  0  0  0  0
   20.6743  -11.9860  -16.7556 N   0  0  0  0  0  0  0  0  0  0  0  0
   20.9971   -9.7108  -16.0901 C   0  0  0  0  0  0  0  0  0  0  0  0
   21.4866   -9.2302  -17.1648 O   0  0  0  0  0  0  0  0  0  0  0  0
   16.4480   -7.5339  -16.7581 C   0  0  0  0  0  0  0  0  0  0  0  0
   17.9229   -7.7818  -16.7132 C   0  0  0  0  0  0  0  0  0  0  0  0
   18.5972   -7.1230  -15.5289 C   0  0  2  0  0  0  0  0  0  0  0  0
   18.3415   -5.6341  -15.5579 C   0  0  0  0  0  0  0  0  0  0  0  0
   20.1043   -7.4114  -15.5584 C   0  0  2  0  0  0  0  0  0  0  0  0
   20.2622   -8.8259  -15.2809 N   0  0  0  0  0  0  0  0  0  0  0  0
   20.6945   -6.5773  -14.4714 C   0  0  0  0  0  0  0  0  0  0  0  0
   21.3664   -5.4211  -14.7681 O   0  0  0  0  0  0  0  0  0  0  0  0
   20.5844   -6.9224  -13.2658 O   0  0  0  0  0  0  0  0  0  0  0  0
  2  3  1  0
  2  1  1  0
  3  4  1  6
  5  3  1  0
  5  6  1  1
  5  7  1  0
  7  8  2  0
 10 11  1  1
 10 12  1  0
 10  9  1  0
 13  7  1  0
 12 13  1  6
 14 12  1  0
 14 15  2  0
 17 18  1  0
 17 16  1  0
 18 20  1  0
 18 19  1  6
 20 22  1  0
 20 21  1  1
 21 14  1  0
 22 23  1  0
 24 22  2  0
M  END
$$$$
