IVI.pdb
     RDKit          3D

 24 23  0  0  1  0  0  0  0  0999 V2000
   19.0641  -16.6065  -16.4489 C   0  0  0  0  0  0  0  0  0  0  0  0
   18.9658  -18.1266  -16.5292 C   0  0  0  0  0  0  0  0  0  0  0  0
   19.7239  -18.7971  -15.4407 C   0  0  2  0  0  0  0  0  0  0  0  0
   21.1703  -18.3571  -15.3658 C   0  0  0  0  0  0  0  0  0  0  0  0
   19.6641  -20.2897  -15.5874 C   0  0  2  0  0  0  0  0  0  0  0  0
   18.2938  -20.7719  -15.3944 N   0  0  0  0  0  0  0  0  0  0  0  0
   20.6237  -21.0354  -14.7878 C   0  0  0  0  0  0  0  0  0  0  0  0
   20.3329  -21.4052  -13.6293 O   0  0  0  0  0  0  0  0  0  0  0  0
   24.4160  -24.0748  -14.3493 C   0  0  0  0  0  0  0  0  0  0  0  0
   23.2359  -23.4666  -15.0302 C   0  0  1  0  0  0  0  0  0  0  0  0
   22.0574  -24.3929  -15.1285 C   0  0  0  0  0  0  0  0  0  0  0  0
   22.8401  -22.1291  -14.3956 C   0  0  2  0  0  0  0  0  0  0  0  0
   21.9339  -21.3970  -15.2391 N   0  0  0  0  0  0  0  0  0  0  0  0
   24.0476  -21.3062  -14.1221 C   0  0  0  0  0  0  0  0  0  0  0  0
   24.5509  -20.5519  -15.0184 O   0  0  0  0  0  0  0  0  0  0  0  0
   25.2689  -20.7955   -8.7861 C   0  0  0  0  0  0  0  0  0  0  0  0
   25.0734  -20.4331  -10.2246 C   0  0  0  0  0  0  0  0  0  0  0  0
   26.2349  -20.8486  -11.1019 C   0  0  2  0  0  0  0  0  0  0  0  0
   27.4800  -20.0975  -10.6913 C   0  0  0  0  0  0  0  0  0  0  0  0
   25.9017  -20.5747  -12.5747 C   0  0  2  0  0  0  0  0  0  0  0  0
   24.6919  -21.3167  -12.8720 N   0  0  0  0  0  0  0  0  0  0  0  0
   27.0622  -21.0972  -13.3532 C   0  0  0  0  0  0  0  0  0  0  0  0
   27.9615  -20.2362  -13.9245 O   0  0  0  0  0  0  0  0  0  0  0  0
   27.2332  -22.3360  -13.4973 O   0  0  0  0  0  0  0  0  0  0  0  0
  2  3  1  0
  2  1  1  0
  3  4  1  6
  5  3  1  0
  5  6  1  1
  5  7  1  0
  7  8  2  0
 10 11  1  1
 10 12  1  0
 10  9  1  0
 13  7  1  0
 12 13  1  6
 14 12  1  0
 14 15  2  0
 17 18  1  0
 17 16  1  0
 18 20  1  0
 18 19  1  1
 20 22  1  0
 20 21  1  6
 21 14  1  0
 22 23  1  0
 24 22  2  0
M  END
$$$$
