IVI.pdb
     RDKit          3D

 24 23  0  0  1  0  0  0  0  0999 V2000
   20.2211  -21.4658  -12.7903 C   0  0  0  0  0  0  0  0  0  0  0  0
   21.4971  -20.6300  -12.7731 C   0  0  0  0  0  0  0  0  0  0  0  0
   22.4493  -21.0796  -11.7242 C   0  0  2  0  0  0  0  0  0  0  0  0
   21.8248  -21.1541  -10.3473 C   0  0  0  0  0  0  0  0  0  0  0  0
   23.6548  -20.1864  -11.6770 C   0  0  2  0  0  0  0  0  0  0  0  0
   24.1687  -19.9430  -13.0276 N   0  0  0  0  0  0  0  0  0  0  0  0
   24.7044  -20.6011  -10.7591 C   0  0  0  0  0  0  0  0  0  0  0  0
   24.4165  -21.1234   -9.6601 O   0  0  0  0  0  0  0  0  0  0  0  0
   29.5301  -21.2573   -9.6611 C   0  0  0  0  0  0  0  0  0  0  0  0
   28.4964  -20.8666  -10.6636 C   0  0  1  0  0  0  0  0  0  0  0  0
   28.5244  -21.7034  -11.9108 C   0  0  0  0  0  0  0  0  0  0  0  0
   27.0931  -20.8316  -10.0492 C   0  0  2  0  0  0  0  0  0  0  0  0
   26.1044  -20.4533  -11.0229 N   0  0  0  0  0  0  0  0  0  0  0  0
   27.0523  -19.8898   -8.8998 C   0  0  0  0  0  0  0  0  0  0  0  0
   26.7168  -18.6696   -9.0560 O   0  0  0  0  0  0  0  0  0  0  0  0
   26.7044  -21.7230   -3.5744 C   0  0  0  0  0  0  0  0  0  0  0  0
   26.5532  -20.9002   -4.8150 C   0  0  0  0  0  0  0  0  0  0  0  0
   27.8435  -20.2350   -5.2439 C   0  0  2  0  0  0  0  0  0  0  0  0
   28.3832  -19.3897   -4.1138 C   0  0  0  0  0  0  0  0  0  0  0  0
   27.5986  -19.3744   -6.4908 C   0  0  2  0  0  0  0  0  0  0  0  0
   27.3787  -20.2917   -7.5921 N   0  0  0  0  0  0  0  0  0  0  0  0
   28.8490  -18.5843   -6.6858 C   0  0  0  0  0  0  0  0  0  0  0  0
   28.8724  -17.2410   -6.4186 O   0  0  0  0  0  0  0  0  0  0  0  0
   29.9010  -19.1389   -7.0984 O   0  0  0  0  0  0  0  0  0  0  0  0
  2  3  1  0
  2  1  1  0
  3  4  1  1
  5  3  1  0
  5  6  1  6
  5  7  1  0
  7  8  2  0
 10 11  1  6
 10 12  1  0
 10  9  1  0
 13  7  1  0
 12 13  1  6
 14 12  1  0
 14 15  2  0
 17 18  1  0
 17 16  1  0
 18 20  1  0
 18 19  1  1
 20 22  1  0
 20 21  1  6
 21 14  1  0
 22 23  1  0
 24 22  2  0
M  END
$$$$
