IVI.pdb
     RDKit          3D

 24 23  0  0  1  0  0  0  0  0999 V2000
   20.1315  -20.4332  -12.5067 C   0  0  0  0  0  0  0  0  0  0  0  0
   21.5500  -20.5525  -13.0548 C   0  0  0  0  0  0  0  0  0  0  0  0
   22.5074  -21.0502  -12.0328 C   0  0  2  0  0  0  0  0  0  0  0  0
   22.5392  -20.1969  -10.7830 C   0  0  0  0  0  0  0  0  0  0  0  0
   23.8928  -21.1525  -12.6017 C   0  0  2  0  0  0  0  0  0  0  0  0
   23.9109  -22.0575  -13.7541 N   0  0  0  0  0  0  0  0  0  0  0  0
   24.9406  -21.4670  -11.6429 C   0  0  0  0  0  0  0  0  0  0  0  0
   25.0063  -22.6030  -11.1245 O   0  0  0  0  0  0  0  0  0  0  0  0
   29.4186  -20.9950   -9.8176 C   0  0  0  0  0  0  0  0  0  0  0  0
   28.3659  -20.7202  -10.8386 C   0  0  1  0  0  0  0  0  0  0  0  0
   28.5484  -21.4966  -12.1116 C   0  0  0  0  0  0  0  0  0  0  0  0
   26.9566  -20.9118  -10.2681 C   0  0  2  0  0  0  0  0  0  0  0  0
   25.9492  -20.5400  -11.2249 N   0  0  0  0  0  0  0  0  0  0  0  0
   26.7867  -20.1151   -9.0245 C   0  0  0  0  0  0  0  0  0  0  0  0
   26.1553  -19.0074   -9.0297 O   0  0  0  0  0  0  0  0  0  0  0  0
   27.3474  -22.4977   -3.9329 C   0  0  0  0  0  0  0  0  0  0  0  0
   26.8416  -21.5527   -4.9769 C   0  0  0  0  0  0  0  0  0  0  0  0
   27.9037  -20.5935   -5.4702 C   0  0  2  0  0  0  0  0  0  0  0  0
   28.3913  -19.7374   -4.3246 C   0  0  0  0  0  0  0  0  0  0  0  0
   27.3349  -19.7166   -6.5939 C   0  0  2  0  0  0  0  0  0  0  0  0
   27.3088  -20.5376   -7.7889 N   0  0  0  0  0  0  0  0  0  0  0  0
   28.2899  -18.5797   -6.7390 C   0  0  0  0  0  0  0  0  0  0  0  0
   27.9108  -17.3056   -6.4081 O   0  0  0  0  0  0  0  0  0  0  0  0
   29.4578  -18.7729   -7.1672 O   0  0  0  0  0  0  0  0  0  0  0  0
  2  3  1  0
  2  1  1  0
  3  4  1  1
  5  3  1  0
  5  6  1  6
  5  7  1  0
  7  8  2  0
 10 11  1  6
 10 12  1  0
 10  9  1  0
 13  7  1  0
 12 13  1  6
 14 12  1  0
 14 15  2  0
 17 18  1  0
 17 16  1  0
 18 20  1  0
 18 19  1  1
 20 22  1  0
 20 21  1  6
 21 14  1  0
 22 23  1  0
 24 22  2  0
M  END
$$$$
