IVI.pdb
     RDKit          3D

 24 23  0  0  1  0  0  0  0  0999 V2000
   29.6745  -20.5991  -15.6369 C   0  0  0  0  0  0  0  0  0  0  0  0
   28.3015  -20.9536  -15.0746 C   0  0  0  0  0  0  0  0  0  0  0  0
   28.0529  -20.3163  -13.7552 C   0  0  2  0  0  0  0  0  0  0  0  0
   29.1263  -20.6264  -12.7339 C   0  0  0  0  0  0  0  0  0  0  0  0
   26.7141  -20.7201  -13.2093 C   0  0  2  0  0  0  0  0  0  0  0  0
   25.6552  -20.4405  -14.1829 N   0  0  0  0  0  0  0  0  0  0  0  0
   26.3945  -20.1992  -11.8892 C   0  0  0  0  0  0  0  0  0  0  0  0
   26.2689  -18.9687  -11.7058 O   0  0  0  0  0  0  0  0  0  0  0  0
   23.8186  -20.3079   -7.8940 C   0  0  0  0  0  0  0  0  0  0  0  0
   24.2769  -20.8062   -9.2235 C   0  0  1  0  0  0  0  0  0  0  0  0
   23.4010  -20.3678  -10.3625 C   0  0  0  0  0  0  0  0  0  0  0  0
   25.7458  -20.4575   -9.4860 C   0  0  2  0  0  0  0  0  0  0  0  0
   26.2030  -21.0175  -10.7294 N   0  0  0  0  0  0  0  0  0  0  0  0
   26.6021  -20.9424   -8.3717 C   0  0  0  0  0  0  0  0  0  0  0  0
   27.0374  -22.1405   -8.3450 O   0  0  0  0  0  0  0  0  0  0  0  0
   30.9546  -18.6406   -6.5576 C   0  0  0  0  0  0  0  0  0  0  0  0
   29.8970  -19.6806   -6.7548 C   0  0  0  0  0  0  0  0  0  0  0  0
   28.7406  -19.5382   -5.7884 C   0  0  2  0  0  0  0  0  0  0  0  0
   29.2351  -19.7072   -4.3707 C   0  0  0  0  0  0  0  0  0  0  0  0
   27.6597  -20.5793   -6.1097 C   0  0  2  0  0  0  0  0  0  0  0  0
   26.9734  -20.1125   -7.2986 N   0  0  0  0  0  0  0  0  0  0  0  0
   26.7488  -20.5907   -4.9281 C   0  0  0  0  0  0  0  0  0  0  0  0
   26.8978  -21.5312   -3.9434 O   0  0  0  0  0  0  0  0  0  0  0  0
   25.8302  -19.7372   -4.8175 O   0  0  0  0  0  0  0  0  0  0  0  0
  2  3  1  0
  2  1  1  0
  3  4  1  1
  5  3  1  0
  5  6  1  6
  5  7  1  0
  7  8  2  0
 10 11  1  6
 10 12  1  0
 10  9  1  0
 13  7  1  0
 12 13  1  6
 14 12  1  0
 14 15  2  0
 17 18  1  0
 17 16  1  0
 18 20  1  0
 18 19  1  1
 20 22  1  0
 20 21  1  6
 21 14  1  0
 22 23  1  0
 24 22  2  0
M  END
$$$$
