IVI.pdb
     RDKit          3D

 24 23  0  0  1  0  0  0  0  0999 V2000
   19.0512  -16.6641  -17.6843 C   0  0  0  0  0  0  0  0  0  0  0  0
   18.2502  -15.6169  -18.4515 C   0  0  0  0  0  0  0  0  0  0  0  0
   18.8150  -14.2512  -18.2943 C   0  0  2  0  0  0  0  0  0  0  0  0
   18.9126  -13.8114  -16.8492 C   0  0  0  0  0  0  0  0  0  0  0  0
   18.0107  -13.2469  -19.0675 C   0  0  2  0  0  0  0  0  0  0  0  0
   17.8691  -13.6660  -20.4645 N   0  0  0  0  0  0  0  0  0  0  0  0
   18.4571  -11.8671  -18.9532 C   0  0  0  0  0  0  0  0  0  0  0  0
   19.4598  -11.4700  -19.5860 O   0  0  0  0  0  0  0  0  0  0  0  0
   17.6107   -7.1336  -17.9493 C   0  0  0  0  0  0  0  0  0  0  0  0
   17.2121   -8.5121  -18.3578 C   0  0  1  0  0  0  0  0  0  0  0  0
   16.7567   -8.6059  -19.7862 C   0  0  0  0  0  0  0  0  0  0  0  0
   18.3128   -9.5349  -18.0571 C   0  0  2  0  0  0  0  0  0  0  0  0
   17.8130  -10.8812  -18.1381 N   0  0  0  0  0  0  0  0  0  0  0  0
   18.8917   -9.2942  -16.7092 C   0  0  0  0  0  0  0  0  0  0  0  0
   18.2180   -9.5187  -15.6502 O   0  0  0  0  0  0  0  0  0  0  0  0
   23.8914  -10.3106  -13.6742 C   0  0  0  0  0  0  0  0  0  0  0  0
   22.7091   -9.4058  -13.8236 C   0  0  0  0  0  0  0  0  0  0  0  0
   22.0272   -9.5415  -15.1682 C   0  0  2  0  0  0  0  0  0  0  0  0
   23.0101   -9.2329  -16.2735 C   0  0  0  0  0  0  0  0  0  0  0  0
   20.8208   -8.5955  -15.2404 C   0  0  2  0  0  0  0  0  0  0  0  0
   20.2007   -8.8108  -16.5333 N   0  0  0  0  0  0  0  0  0  0  0  0
   21.3833   -7.2179  -15.1325 C   0  0  0  0  0  0  0  0  0  0  0  0
   21.5869   -6.6433  -13.9058 O   0  0  0  0  0  0  0  0  0  0  0  0
   21.6794   -6.5626  -16.1657 O   0  0  0  0  0  0  0  0  0  0  0  0
  2  3  1  0
  2  1  1  0
  3  4  1  1
  5  3  1  0
  5  6  1  6
  5  7  1  0
  7  8  2  0
 10 11  1  6
 10 12  1  0
 10  9  1  0
 13  7  1  0
 12 13  1  1
 14 12  1  0
 14 15  2  0
 17 18  1  0
 17 16  1  0
 18 20  1  0
 18 19  1  6
 20 22  1  0
 20 21  1  6
 21 14  1  0
 22 23  1  0
 24 22  2  0
M  END
$$$$
