IVI.pdb
     RDKit          3D

 24 23  0  0  1  0  0  0  0  0999 V2000
   26.8984  -19.6027   -7.2258 C   0  0  0  0  0  0  0  0  0  0  0  0
   27.0429  -20.6863   -8.2897 C   0  0  0  0  0  0  0  0  0  0  0  0
   26.3526  -20.3265   -9.5557 C   0  0  2  0  0  0  0  0  0  0  0  0
   24.8498  -20.2254   -9.4050 C   0  0  0  0  0  0  0  0  0  0  0  0
   26.6794  -21.3097  -10.6419 C   0  0  2  0  0  0  0  0  0  0  0  0
   28.1299  -21.4143  -10.8227 N   0  0  0  0  0  0  0  0  0  0  0  0
   25.9849  -21.1017  -11.9031 C   0  0  0  0  0  0  0  0  0  0  0  0
   26.4644  -20.3434  -12.7741 O   0  0  0  0  0  0  0  0  0  0  0  0
   23.0774  -22.7744  -15.4603 C   0  0  0  0  0  0  0  0  0  0  0  0
   23.8185  -22.9259  -14.1743 C   0  0  1  0  0  0  0  0  0  0  0  0
   25.0367  -23.7981  -14.2836 C   0  0  0  0  0  0  0  0  0  0  0  0
   24.1612  -21.5682  -13.5521 C   0  0  2  0  0  0  0  0  0  0  0  0
   24.7401  -21.7224  -12.2445 N   0  0  0  0  0  0  0  0  0  0  0  0
   22.9471  -20.7146  -13.4664 C   0  0  0  0  0  0  0  0  0  0  0  0
   22.0932  -20.8708  -12.5325 O   0  0  0  0  0  0  0  0  0  0  0  0
   23.4747  -15.7833  -15.5717 C   0  0  0  0  0  0  0  0  0  0  0  0
   23.0118  -16.8986  -14.6881 C   0  0  0  0  0  0  0  0  0  0  0  0
   21.8104  -17.6330  -15.2438 C   0  0  2  0  0  0  0  0  0  0  0  0
   20.6210  -16.7026  -15.2951 C   0  0  0  0  0  0  0  0  0  0  0  0
   21.4986  -18.8584  -14.3740 C   0  0  2  0  0  0  0  0  0  0  0  0
   22.6794  -19.6995  -14.4024 N   0  0  0  0  0  0  0  0  0  0  0  0
   20.3389  -19.5312  -15.0284 C   0  0  0  0  0  0  0  0  0  0  0  0
   19.1063  -19.5314  -14.4308 O   0  0  0  0  0  0  0  0  0  0  0  0
   20.4745  -20.1086  -16.1388 O   0  0  0  0  0  0  0  0  0  0  0  0
  2  3  1  0
  2  1  1  0
  3  4  1  1
  5  3  1  0
  5  6  1  6
  5  7  1  0
  7  8  2  0
 10 11  1  6
 10 12  1  0
 10  9  1  0
 13  7  1  0
 12 13  1  1
 14 12  1  0
 14 15  2  0
 17 18  1  0
 17 16  1  0
 18 20  1  0
 18 19  1  1
 20 22  1  0
 20 21  1  6
 21 14  1  0
 22 23  1  0
 24 22  2  0
M  END
$$$$
