DDI.pdb
     RDKit          3D

 25 24  0  0  1  0  0  0  0  0999 V2000
   10.0285  -13.1190   18.9731 N   0  0  0  0  0  0  0  0  0  0  0  0
    8.6363  -13.0394   19.3473 C   0  0  1  0  0  0  0  0  0  0  0  0
    7.8236  -13.4265   18.1346 C   0  0  0  0  0  0  0  0  0  0  0  0
    8.4183  -14.5737   17.4122 C   0  0  0  0  0  0  0  0  0  0  0  0
    9.2184  -15.3481   17.9951 O   0  0  0  0  0  0  0  0  0  0  0  0
    8.2799  -13.9988   20.4208 C   0  0  0  0  0  0  0  0  0  0  0  0
    7.0785  -13.9362   20.8276 O   0  0  0  0  0  0  0  0  0  0  0  0
    8.1240  -14.8399   16.0844 O   0  0  0  0  0  0  0  0  0  0  0  0
    9.1642  -14.9302   20.9834 N   0  0  0  0  0  0  0  0  0  0  0  0
    8.6957  -15.7147   22.1411 C   0  0  1  0  0  0  0  0  0  0  0  0
    9.3461  -17.0514   22.0118 C   0  0  0  0  0  0  0  0  0  0  0  0
   10.7859  -16.9920   22.1478 C   0  0  0  0  0  0  0  0  0  0  0  0
   11.5138  -16.4541   21.2841 O   0  0  0  0  0  0  0  0  0  0  0  0
    9.0526  -14.9772   23.3826 C   0  0  0  0  0  0  0  0  0  0  0  0
   10.1360  -14.3912   23.5388 O   0  0  0  0  0  0  0  0  0  0  0  0
   11.3758  -17.5633   23.2971 O   0  0  0  0  0  0  0  0  0  0  0  0
    5.6486  -12.4454   27.3137 C   0  0  0  0  0  0  0  0  0  0  0  0
    6.2067  -13.4486   26.3346 C   0  0  0  0  0  0  0  0  0  0  0  0
    7.6323  -13.0547   26.0340 C   0  0  2  0  0  0  0  0  0  0  0  0
    7.6428  -12.1680   24.7929 C   0  0  0  0  0  0  0  0  0  0  0  0
    8.4960  -14.2547   25.7308 C   0  0  2  0  0  0  0  0  0  0  0  0
    8.1448  -14.8980   24.4980 N   0  0  0  0  0  0  0  0  0  0  0  0
    8.4588  -15.1491   26.9081 C   0  0  0  0  0  0  0  0  0  0  0  0
    7.8933  -16.2496   26.8184 O   0  0  0  0  0  0  0  0  0  0  0  0
    9.0521  -14.7554   28.0976 O   0  0  0  0  0  0  0  0  0  0  0  0
  2  1  1  6
  2  3  1  0
  3  4  1  0
  4  5  2  0
  6  2  1  0
  7  6  2  0
  8  4  1  0
  9  6  1  0
 10 14  1  0
 10  9  1  0
 10 11  1  1
 12 11  1  0
 12 13  2  0
 14 22  1  0
 15 14  2  0
 16 12  1  0
 18 17  1  0
 19 18  1  0
 19 20  1  6
 21 19  1  0
 21 23  1  0
 21 22  1  6
 23 24  2  0
 23 25  1  0
M  END
$$$$
