DDI.pdb
     RDKit          3D

 25 24  0  0  1  0  0  0  0  0999 V2000
    9.9132  -16.8394   19.1850 N   0  0  0  0  0  0  0  0  0  0  0  0
    8.7736  -16.0959   19.6677 C   0  0  1  0  0  0  0  0  0  0  0  0
    7.5532  -16.6385   18.9627 C   0  0  0  0  0  0  0  0  0  0  0  0
    7.7684  -16.7688   17.5037 C   0  0  0  0  0  0  0  0  0  0  0  0
    8.8952  -16.5277   17.0019 O   0  0  0  0  0  0  0  0  0  0  0  0
    8.5439  -16.2863   21.1206 C   0  0  0  0  0  0  0  0  0  0  0  0
    7.4675  -15.7845   21.5702 O   0  0  0  0  0  0  0  0  0  0  0  0
    6.7545  -17.1556   16.6419 O   0  0  0  0  0  0  0  0  0  0  0  0
    9.4174  -16.9631   21.9838 N   0  0  0  0  0  0  0  0  0  0  0  0
    9.0327  -17.0798   23.4028 C   0  0  1  0  0  0  0  0  0  0  0  0
    9.7738  -18.2649   23.9251 C   0  0  0  0  0  0  0  0  0  0  0  0
    9.3976  -19.4982   23.2675 C   0  0  0  0  0  0  0  0  0  0  0  0
    8.2555  -19.9944   23.3879 O   0  0  0  0  0  0  0  0  0  0  0  0
    9.3642  -15.8003   24.0852 C   0  0  0  0  0  0  0  0  0  0  0  0
   10.5137  -15.3337   24.1360 O   0  0  0  0  0  0  0  0  0  0  0  0
   10.3599  -20.1530   22.4673 O   0  0  0  0  0  0  0  0  0  0  0  0
    5.6847  -12.0415   26.7970 C   0  0  0  0  0  0  0  0  0  0  0  0
    6.3258  -13.2502   26.1610 C   0  0  0  0  0  0  0  0  0  0  0  0
    7.6435  -12.8141   25.5682 C   0  0  2  0  0  0  0  0  0  0  0  0
    7.4252  -12.4576   24.1013 C   0  0  0  0  0  0  0  0  0  0  0  0
    8.6721  -13.9178   25.6094 C   0  0  2  0  0  0  0  0  0  0  0  0
    8.3517  -15.0123   24.7396 N   0  0  0  0  0  0  0  0  0  0  0  0
    8.8615  -14.3084   27.0232 C   0  0  0  0  0  0  0  0  0  0  0  0
    9.3664  -13.4986   27.8158 O   0  0  0  0  0  0  0  0  0  0  0  0
    8.4763  -15.5692   27.4524 O   0  0  0  0  0  0  0  0  0  0  0  0
  2  1  1  6
  2  3  1  0
  3  4  1  0
  4  5  2  0
  6  2  1  0
  7  6  2  0
  8  4  1  0
  9  6  1  0
 10 14  1  0
 10  9  1  0
 10 11  1  1
 12 11  1  0
 12 13  2  0
 14 22  1  0
 15 14  2  0
 16 12  1  0
 18 17  1  0
 19 18  1  0
 19 20  1  6
 21 19  1  0
 21 23  1  0
 21 22  1  6
 23 24  2  0
 23 25  1  0
M  END
$$$$
