DDI.pdb
     RDKit          3D

 25 24  0  0  1  0  0  0  0  0999 V2000
    9.9526  -16.6138   19.2289 N   0  0  0  0  0  0  0  0  0  0  0  0
    8.6392  -16.1439   19.6014 C   0  0  1  0  0  0  0  0  0  0  0  0
    7.6377  -16.9009   18.7618 C   0  0  0  0  0  0  0  0  0  0  0  0
    8.0050  -16.9016   17.3276 C   0  0  0  0  0  0  0  0  0  0  0  0
    7.1917  -17.3124   16.4620 O   0  0  0  0  0  0  0  0  0  0  0  0
    8.3113  -16.4352   21.0183 C   0  0  0  0  0  0  0  0  0  0  0  0
    7.1504  -16.0798   21.3907 O   0  0  0  0  0  0  0  0  0  0  0  0
    9.2403  -16.4570   16.8840 O   0  0  0  0  0  0  0  0  0  0  0  0
    9.1809  -17.0560   21.9263 N   0  0  0  0  0  0  0  0  0  0  0  0
    8.7392  -17.1835   23.3277 C   0  0  1  0  0  0  0  0  0  0  0  0
    9.3591  -18.4435   23.8324 C   0  0  0  0  0  0  0  0  0  0  0  0
    9.2241  -18.6024   25.2647 C   0  0  0  0  0  0  0  0  0  0  0  0
   10.1757  -18.3937   26.0496 O   0  0  0  0  0  0  0  0  0  0  0  0
    9.1542  -15.9591   24.0634 C   0  0  0  0  0  0  0  0  0  0  0  0
   10.3226  -15.5394   24.0824 O   0  0  0  0  0  0  0  0  0  0  0  0
    7.9727  -19.0065   25.7804 O   0  0  0  0  0  0  0  0  0  0  0  0
    5.5731  -12.1811   26.7553 C   0  0  0  0  0  0  0  0  0  0  0  0
    6.2542  -13.3862   26.1550 C   0  0  0  0  0  0  0  0  0  0  0  0
    7.5945  -12.9404   25.6234 C   0  0  2  0  0  0  0  0  0  0  0  0
    7.4222  -12.4963   24.1744 C   0  0  0  0  0  0  0  0  0  0  0  0
    8.6035  -14.0629   25.6277 C   0  0  2  0  0  0  0  0  0  0  0  0
    8.2067  -15.1732   24.8110 N   0  0  0  0  0  0  0  0  0  0  0  0
    8.8784  -14.4200   27.0363 C   0  0  0  0  0  0  0  0  0  0  0  0
    8.5719  -15.5491   27.4486 O   0  0  0  0  0  0  0  0  0  0  0  0
    9.4732  -13.4971   27.8827 O   0  0  0  0  0  0  0  0  0  0  0  0
  2  1  1  6
  2  3  1  0
  3  4  1  0
  4  5  2  0
  6  2  1  0
  7  6  2  0
  8  4  1  0
  9  6  1  0
 10 14  1  0
 10  9  1  0
 10 11  1  1
 12 11  1  0
 12 13  2  0
 14 22  1  0
 15 14  2  0
 16 12  1  0
 18 17  1  0
 19 18  1  0
 19 20  1  6
 21 19  1  0
 21 23  1  0
 21 22  1  6
 23 24  2  0
 23 25  1  0
M  END
$$$$
