DDI.pdb
     RDKit          3D

 25 24  0  0  1  0  0  0  0  0999 V2000
    8.5763  -14.9713   19.1230 N   0  0  0  0  0  0  0  0  0  0  0  0
    7.8411  -16.1346   19.5597 C   0  0  1  0  0  0  0  0  0  0  0  0
    8.2708  -17.2898   18.6870 C   0  0  0  0  0  0  0  0  0  0  0  0
    7.4443  -18.4962   18.9182 C   0  0  0  0  0  0  0  0  0  0  0  0
    7.9767  -19.5704   19.2953 O   0  0  0  0  0  0  0  0  0  0  0  0
    8.1590  -16.5171   20.9570 C   0  0  0  0  0  0  0  0  0  0  0  0
    7.1541  -16.7026   21.7109 O   0  0  0  0  0  0  0  0  0  0  0  0
    6.0710  -18.4942   18.7324 O   0  0  0  0  0  0  0  0  0  0  0  0
    9.4564  -16.6773   21.4641 N   0  0  0  0  0  0  0  0  0  0  0  0
    9.6011  -17.0661   22.8794 C   0  0  1  0  0  0  0  0  0  0  0  0
   10.7912  -17.9647   22.9308 C   0  0  0  0  0  0  0  0  0  0  0  0
   10.4571  -19.3544   22.7023 C   0  0  0  0  0  0  0  0  0  0  0  0
   10.8423  -19.9724   21.6850 O   0  0  0  0  0  0  0  0  0  0  0  0
    9.7321  -15.8287   23.6945 C   0  0  0  0  0  0  0  0  0  0  0  0
   10.6177  -14.9793   23.5052 O   0  0  0  0  0  0  0  0  0  0  0  0
    9.6701  -20.0229   23.6661 O   0  0  0  0  0  0  0  0  0  0  0  0
    6.0707  -12.3482   26.7160 C   0  0  0  0  0  0  0  0  0  0  0  0
    6.8870  -13.6145   26.6371 C   0  0  0  0  0  0  0  0  0  0  0  0
    7.9810  -13.3946   25.6209 C   0  0  2  0  0  0  0  0  0  0  0  0
    7.3718  -13.4644   24.2243 C   0  0  0  0  0  0  0  0  0  0  0  0
    9.0433  -14.4641   25.6968 C   0  0  2  0  0  0  0  0  0  0  0  0
    8.8217  -15.5376   24.7719 N   0  0  0  0  0  0  0  0  0  0  0  0
    9.1506  -14.8972   27.1068 C   0  0  0  0  0  0  0  0  0  0  0  0
    8.6835  -15.9961   27.4429 O   0  0  0  0  0  0  0  0  0  0  0  0
    9.7684  -14.0781   28.0392 O   0  0  0  0  0  0  0  0  0  0  0  0
  2  1  1  6
  2  3  1  0
  3  4  1  0
  4  5  2  0
  6  2  1  0
  7  6  2  0
  8  4  1  0
  9  6  1  0
 10 14  1  0
 10  9  1  0
 10 11  1  6
 12 11  1  0
 12 13  2  0
 14 22  1  0
 15 14  2  0
 16 12  1  0
 18 17  1  0
 19 18  1  0
 19 20  1  6
 21 19  1  0
 21 23  1  0
 21 22  1  6
 23 24  2  0
 23 25  1  0
M  END
$$$$
