DDI.pdb
     RDKit          3D

 25 24  0  0  1  0  0  0  0  0999 V2000
    8.8596  -18.5544   20.2653 N   0  0  0  0  0  0  0  0  0  0  0  0
    8.3921  -17.1891   20.2202 C   0  0  1  0  0  0  0  0  0  0  0  0
    7.4396  -17.0801   19.0533 C   0  0  0  0  0  0  0  0  0  0  0  0
    8.1120  -17.3498   17.7622 C   0  0  0  0  0  0  0  0  0  0  0  0
    9.3461  -17.5843   17.7234 O   0  0  0  0  0  0  0  0  0  0  0  0
    7.6244  -16.8103   21.4314 C   0  0  0  0  0  0  0  0  0  0  0  0
    6.9687  -15.7264   21.3413 O   0  0  0  0  0  0  0  0  0  0  0  0
    7.4222  -17.3557   16.5603 O   0  0  0  0  0  0  0  0  0  0  0  0
    7.5881  -17.5565   22.6179 N   0  0  0  0  0  0  0  0  0  0  0  0
    6.8641  -16.9867   23.7696 C   0  0  1  0  0  0  0  0  0  0  0  0
    6.4681  -18.1521   24.6132 C   0  0  0  0  0  0  0  0  0  0  0  0
    7.3403  -19.2941   24.4400 C   0  0  0  0  0  0  0  0  0  0  0  0
    7.1701  -20.1278   23.5228 O   0  0  0  0  0  0  0  0  0  0  0  0
    7.7588  -16.0131   24.4510 C   0  0  0  0  0  0  0  0  0  0  0  0
    8.9920  -16.1458   24.5074 O   0  0  0  0  0  0  0  0  0  0  0  0
    8.4143  -19.4616   25.3419 O   0  0  0  0  0  0  0  0  0  0  0  0
    5.7502  -11.1623   27.0018 C   0  0  0  0  0  0  0  0  0  0  0  0
    6.1576  -12.5850   26.7079 C   0  0  0  0  0  0  0  0  0  0  0  0
    7.4564  -12.5427   25.9401 C   0  0  2  0  0  0  0  0  0  0  0  0
    7.1736  -12.0360   24.5294 C   0  0  0  0  0  0  0  0  0  0  0  0
    8.0754  -13.9126   25.8050 C   0  0  2  0  0  0  0  0  0  0  0  0
    7.2371  -14.8366   25.0975 N   0  0  0  0  0  0  0  0  0  0  0  0
    8.4667  -14.3684   27.1563 C   0  0  0  0  0  0  0  0  0  0  0  0
    9.2940  -13.7097   27.8048 O   0  0  0  0  0  0  0  0  0  0  0  0
    7.9107  -15.5220   27.6877 O   0  0  0  0  0  0  0  0  0  0  0  0
  2  1  1  1
  2  3  1  0
  3  4  1  0
  4  5  2  0
  6  2  1  0
  7  6  2  0
  8  4  1  0
  9  6  1  0
 10 14  1  0
 10  9  1  0
 10 11  1  1
 12 11  1  0
 12 13  2  0
 14 22  1  0
 15 14  2  0
 16 12  1  0
 18 17  1  0
 19 18  1  0
 19 20  1  6
 21 19  1  0
 21 23  1  0
 21 22  1  1
 23 24  2  0
 23 25  1  0
M  END
$$$$
