DDI.pdb
     RDKit          3D

 25 24  0  0  1  0  0  0  0  0999 V2000
   10.0425  -17.7748   19.5560 N   0  0  0  0  0  0  0  0  0  0  0  0
   10.8484  -17.6423   20.7465 C   0  0  1  0  0  0  0  0  0  0  0  0
   11.7536  -16.4503   20.5444 C   0  0  0  0  0  0  0  0  0  0  0  0
   13.0173  -16.8225   19.8689 C   0  0  0  0  0  0  0  0  0  0  0  0
   13.5039  -16.0838   18.9761 O   0  0  0  0  0  0  0  0  0  0  0  0
   10.0363  -17.3583   21.9547 C   0  0  0  0  0  0  0  0  0  0  0  0
    9.0160  -16.6267   21.7632 O   0  0  0  0  0  0  0  0  0  0  0  0
   13.7075  -17.9817   20.1859 O   0  0  0  0  0  0  0  0  0  0  0  0
   10.3262  -17.8364   23.2406 N   0  0  0  0  0  0  0  0  0  0  0  0
    9.3013  -17.6663   24.2874 C   0  0  1  0  0  0  0  0  0  0  0  0
    9.2164  -18.9822   24.9858 C   0  0  0  0  0  0  0  0  0  0  0  0
    8.4521  -18.9194   26.2133 C   0  0  0  0  0  0  0  0  0  0  0  0
    7.3086  -18.4139   26.2595 O   0  0  0  0  0  0  0  0  0  0  0  0
    9.7078  -16.5338   25.1619 C   0  0  0  0  0  0  0  0  0  0  0  0
   10.8872  -16.3048   25.4753 O   0  0  0  0  0  0  0  0  0  0  0  0
    9.0267  -19.4489   27.3900 O   0  0  0  0  0  0  0  0  0  0  0  0
    6.6814  -11.8744   25.5581 C   0  0  0  0  0  0  0  0  0  0  0  0
    7.8031  -12.8696   25.3922 C   0  0  0  0  0  0  0  0  0  0  0  0
    8.0649  -13.4972   26.7396 C   0  0  2  0  0  0  0  0  0  0  0  0
    8.6285  -12.4312   27.6738 C   0  0  0  0  0  0  0  0  0  0  0  0
    9.0894  -14.6024   26.6564 C   0  0  2  0  0  0  0  0  0  0  0  0
    8.7385  -15.6185   25.7069 N   0  0  0  0  0  0  0  0  0  0  0  0
    9.3188  -15.1120   28.0257 C   0  0  0  0  0  0  0  0  0  0  0  0
    8.7840  -16.1748   28.3769 O   0  0  0  0  0  0  0  0  0  0  0  0
   10.1249  -14.4039   28.9036 O   0  0  0  0  0  0  0  0  0  0  0  0
  2  1  1  6
  2  3  1  0
  3  4  1  0
  4  5  2  0
  6  2  1  0
  7  6  2  0
  8  4  1  0
  9  6  1  0
 10 14  1  0
 10  9  1  0
 10 11  1  1
 12 11  1  0
 12 13  2  0
 14 22  1  0
 15 14  2  0
 16 12  1  0
 18 17  1  0
 19 18  1  0
 19 20  1  1
 21 19  1  0
 21 23  1  0
 21 22  1  6
 23 24  2  0
 23 25  1  0
M  END
$$$$
