DDI.pdb
     RDKit          3D

 25 24  0  0  1  0  0  0  0  0999 V2000
    9.9353  -13.5874   18.6693 N   0  0  0  0  0  0  0  0  0  0  0  0
    8.6395  -13.2076   19.1804 C   0  0  1  0  0  0  0  0  0  0  0  0
    7.6382  -13.4285   18.0715 C   0  0  0  0  0  0  0  0  0  0  0  0
    8.2027  -14.2391   16.9687 C   0  0  0  0  0  0  0  0  0  0  0  0
    9.2172  -14.9559   17.1597 O   0  0  0  0  0  0  0  0  0  0  0  0
    8.2061  -14.0544   20.3183 C   0  0  0  0  0  0  0  0  0  0  0  0
    7.0918  -13.7363   20.8379 O   0  0  0  0  0  0  0  0  0  0  0  0
    7.6469  -14.2432   15.6993 O   0  0  0  0  0  0  0  0  0  0  0  0
    8.9332  -15.1405   20.8261 N   0  0  0  0  0  0  0  0  0  0  0  0
    8.3597  -15.8836   21.9637 C   0  0  1  0  0  0  0  0  0  0  0  0
    8.7548  -17.3073   21.7552 C   0  0  0  0  0  0  0  0  0  0  0  0
   10.1875  -17.4840   21.6503 C   0  0  0  0  0  0  0  0  0  0  0  0
   10.8846  -16.8100   20.8598 O   0  0  0  0  0  0  0  0  0  0  0  0
    8.8746  -15.2831   23.2234 C   0  0  0  0  0  0  0  0  0  0  0  0
   10.0620  -14.9596   23.3878 O   0  0  0  0  0  0  0  0  0  0  0  0
   10.8066  -18.4517   22.4721 O   0  0  0  0  0  0  0  0  0  0  0  0
    5.8931  -12.0694   26.9293 C   0  0  0  0  0  0  0  0  0  0  0  0
    6.4199  -13.4044   26.4637 C   0  0  0  0  0  0  0  0  0  0  0  0
    7.8257  -13.1931   25.9565 C   0  0  2  0  0  0  0  0  0  0  0  0
    7.7662  -12.3423   24.6920 C   0  0  0  0  0  0  0  0  0  0  0  0
    8.4920  -14.4956   25.5855 C   0  0  2  0  0  0  0  0  0  0  0  0
    8.0093  -15.0368   24.3481 N   0  0  0  0  0  0  0  0  0  0  0  0
    8.3615  -15.4155   26.7361 C   0  0  0  0  0  0  0  0  0  0  0  0
    8.9888  -15.1774   27.7795 O   0  0  0  0  0  0  0  0  0  0  0  0
    7.5444  -16.5316   26.6431 O   0  0  0  0  0  0  0  0  0  0  0  0
  2  1  1  6
  2  3  1  0
  3  4  1  0
  4  5  2  0
  6  2  1  0
  7  6  2  0
  8  4  1  0
  9  6  1  0
 10 14  1  0
 10  9  1  0
 10 11  1  6
 12 11  1  0
 12 13  2  0
 14 22  1  0
 15 14  2  0
 16 12  1  0
 18 17  1  0
 19 18  1  0
 19 20  1  6
 21 19  1  0
 21 23  1  0
 21 22  1  6
 23 24  2  0
 23 25  1  0
M  END
$$$$
