DDI.pdb
     RDKit          3D

 25 24  0  0  1  0  0  0  0  0999 V2000
    7.9464  -18.0127   18.9448 N   0  0  0  0  0  0  0  0  0  0  0  0
    8.7009  -16.9325   19.5350 C   0  0  1  0  0  0  0  0  0  0  0  0
    8.0889  -15.6404   19.0484 C   0  0  0  0  0  0  0  0  0  0  0  0
    8.3046  -15.4369   17.5979 C   0  0  0  0  0  0  0  0  0  0  0  0
    9.4327  -15.6485   17.0858 O   0  0  0  0  0  0  0  0  0  0  0  0
    8.6073  -16.9153   21.0152 C   0  0  0  0  0  0  0  0  0  0  0  0
    7.4530  -17.1524   21.4887 O   0  0  0  0  0  0  0  0  0  0  0  0
    7.2898  -15.0116   16.7554 O   0  0  0  0  0  0  0  0  0  0  0  0
    9.6822  -16.6617   21.8790 N   0  0  0  0  0  0  0  0  0  0  0  0
    9.5506  -17.0822   23.2865 C   0  0  1  0  0  0  0  0  0  0  0  0
   10.6091  -18.1120   23.5000 C   0  0  0  0  0  0  0  0  0  0  0  0
   10.7462  -18.4984   24.8881 C   0  0  0  0  0  0  0  0  0  0  0  0
    9.8026  -19.0069   25.5332 O   0  0  0  0  0  0  0  0  0  0  0  0
    9.6839  -15.8784   24.1500 C   0  0  0  0  0  0  0  0  0  0  0  0
   10.6469  -15.0973   24.0851 O   0  0  0  0  0  0  0  0  0  0  0  0
   11.9902  -18.2891   25.5236 O   0  0  0  0  0  0  0  0  0  0  0  0
    5.8262  -12.3372   25.3805 C   0  0  0  0  0  0  0  0  0  0  0  0
    7.0985  -13.0775   25.0498 C   0  0  0  0  0  0  0  0  0  0  0  0
    7.6263  -13.6801   26.3289 C   0  0  2  0  0  0  0  0  0  0  0  0
    8.0007  -12.5506   27.2831 C   0  0  0  0  0  0  0  0  0  0  0  0
    8.8743  -14.4959   26.0939 C   0  0  2  0  0  0  0  0  0  0  0  0
    8.6845  -15.5415   25.1308 N   0  0  0  0  0  0  0  0  0  0  0  0
    9.3606  -14.9693   27.4080 C   0  0  0  0  0  0  0  0  0  0  0  0
    9.8300  -14.1513   28.2137 O   0  0  0  0  0  0  0  0  0  0  0  0
    9.2896  -16.3159   27.7301 O   0  0  0  0  0  0  0  0  0  0  0  0
  2  1  1  6
  2  3  1  0
  3  4  1  0
  4  5  2  0
  6  2  1  0
  7  6  2  0
  8  4  1  0
  9  6  1  0
 10 14  1  0
 10  9  1  0
 10 11  1  1
 12 11  1  0
 12 13  2  0
 14 22  1  0
 15 14  2  0
 16 12  1  0
 18 17  1  0
 19 18  1  0
 19 20  1  1
 21 19  1  0
 21 23  1  0
 21 22  1  6
 23 24  2  0
 23 25  1  0
M  END
$$$$
