DDI.pdb
     RDKit          3D

 25 24  0  0  1  0  0  0  0  0999 V2000
    7.2924  -18.4119   19.2711 N   0  0  0  0  0  0  0  0  0  0  0  0
    8.0463  -17.3077   19.8159 C   0  0  1  0  0  0  0  0  0  0  0  0
    7.7315  -16.0926   18.9761 C   0  0  0  0  0  0  0  0  0  0  0  0
    8.4679  -16.1008   17.6918 C   0  0  0  0  0  0  0  0  0  0  0  0
    9.2852  -17.0196   17.4319 O   0  0  0  0  0  0  0  0  0  0  0  0
    7.6480  -16.9775   21.2059 C   0  0  0  0  0  0  0  0  0  0  0  0
    6.6590  -16.1882   21.3141 O   0  0  0  0  0  0  0  0  0  0  0  0
    8.2916  -15.1130   16.7359 O   0  0  0  0  0  0  0  0  0  0  0  0
    8.2809  -17.4719   22.3552 N   0  0  0  0  0  0  0  0  0  0  0  0
    7.6611  -17.1841   23.6623 C   0  0  1  0  0  0  0  0  0  0  0  0
    7.7071  -18.4679   24.4213 C   0  0  0  0  0  0  0  0  0  0  0  0
    6.7750  -19.4535   23.9167 C   0  0  0  0  0  0  0  0  0  0  0  0
    7.1569  -20.4969   23.3416 O   0  0  0  0  0  0  0  0  0  0  0  0
    8.4092  -16.0680   24.3004 C   0  0  0  0  0  0  0  0  0  0  0  0
    9.6337  -15.9079   24.1720 O   0  0  0  0  0  0  0  0  0  0  0  0
    5.3924  -19.2181   24.0849 O   0  0  0  0  0  0  0  0  0  0  0  0
    5.9786  -11.8215   27.5219 C   0  0  0  0  0  0  0  0  0  0  0  0
    6.3768  -13.0947   26.8171 C   0  0  0  0  0  0  0  0  0  0  0  0
    7.6152  -12.8035   26.0050 C   0  0  2  0  0  0  0  0  0  0  0  0
    7.1901  -12.3086   24.6263 C   0  0  0  0  0  0  0  0  0  0  0  0
    8.4542  -14.0403   25.7945 C   0  0  2  0  0  0  0  0  0  0  0  0
    7.7442  -15.0884   25.1204 N   0  0  0  0  0  0  0  0  0  0  0  0
    9.0123  -14.4379   27.1051 C   0  0  0  0  0  0  0  0  0  0  0  0
    9.7636  -13.6569   27.7087 O   0  0  0  0  0  0  0  0  0  0  0  0
    8.6949  -15.6733   27.6484 O   0  0  0  0  0  0  0  0  0  0  0  0
  2  1  1  6
  2  3  1  0
  3  4  1  0
  4  5  2  0
  6  2  1  0
  7  6  2  0
  8  4  1  0
  9  6  1  0
 10 14  1  0
 10  9  1  0
 10 11  1  1
 12 11  1  0
 12 13  2  0
 14 22  1  0
 15 14  2  0
 16 12  1  0
 18 17  1  0
 19 18  1  0
 19 20  1  6
 21 19  1  0
 21 23  1  0
 21 22  1  1
 23 24  2  0
 23 25  1  0
M  END
$$$$
