DDI.pdb
     RDKit          3D

 25 24  0  0  1  0  0  0  0  0999 V2000
    9.3366  -12.6512   19.1977 N   0  0  0  0  0  0  0  0  0  0  0  0
    8.0331  -13.0184   19.6983 C   0  0  1  0  0  0  0  0  0  0  0  0
    7.2299  -13.5281   18.5253 C   0  0  0  0  0  0  0  0  0  0  0  0
    8.0437  -14.3727   17.6218 C   0  0  0  0  0  0  0  0  0  0  0  0
    8.7766  -15.2813   18.0874 O   0  0  0  0  0  0  0  0  0  0  0  0
    8.0931  -14.1249   20.6842 C   0  0  0  0  0  0  0  0  0  0  0  0
    6.9731  -14.4917   21.1571 O   0  0  0  0  0  0  0  0  0  0  0  0
    8.0333  -14.2017   16.2466 O   0  0  0  0  0  0  0  0  0  0  0  0
    9.2727  -14.7578   21.1012 N   0  0  0  0  0  0  0  0  0  0  0  0
    9.1657  -15.8064   22.1328 C   0  0  1  0  0  0  0  0  0  0  0  0
   10.1702  -16.8443   21.7581 C   0  0  0  0  0  0  0  0  0  0  0  0
   10.3796  -17.8266   22.8003 C   0  0  0  0  0  0  0  0  0  0  0  0
    9.4369  -18.2783   23.4876 O   0  0  0  0  0  0  0  0  0  0  0  0
    9.3975  -15.1814   23.4626 C   0  0  0  0  0  0  0  0  0  0  0  0
   10.4025  -14.5033   23.7303 O   0  0  0  0  0  0  0  0  0  0  0  0
   11.6952  -18.2818   23.0393 O   0  0  0  0  0  0  0  0  0  0  0  0
    6.2864  -11.8763   25.8984 C   0  0  0  0  0  0  0  0  0  0  0  0
    7.4401  -12.7043   25.3889 C   0  0  0  0  0  0  0  0  0  0  0  0
    7.6194  -13.8717   26.3286 C   0  0  2  0  0  0  0  0  0  0  0  0
    8.0537  -13.3402   27.6907 C   0  0  0  0  0  0  0  0  0  0  0  0
    8.6978  -14.8154   25.8547 C   0  0  2  0  0  0  0  0  0  0  0  0
    8.4514  -15.3289   24.5385 N   0  0  0  0  0  0  0  0  0  0  0  0
    8.8702  -15.8613   26.8861 C   0  0  0  0  0  0  0  0  0  0  0  0
    8.3253  -16.9648   26.7305 O   0  0  0  0  0  0  0  0  0  0  0  0
    9.6346  -15.6046   28.0137 O   0  0  0  0  0  0  0  0  0  0  0  0
  2  1  1  6
  2  3  1  0
  3  4  1  0
  4  5  2  0
  6  2  1  0
  7  6  2  0
  8  4  1  0
  9  6  1  0
 10 14  1  0
 10  9  1  0
 10 11  1  6
 12 11  1  0
 12 13  2  0
 14 22  1  0
 15 14  2  0
 16 12  1  0
 18 17  1  0
 19 18  1  0
 19 20  1  1
 21 19  1  0
 21 23  1  0
 21 22  1  6
 23 24  2  0
 23 25  1  0
M  END
$$$$
