DDI.pdb
     RDKit          3D

 25 24  0  0  1  0  0  0  0  0999 V2000
    7.7033  -16.5613   18.8011 N   0  0  0  0  0  0  0  0  0  0  0  0
    8.4905  -15.6345   19.5794 C   0  0  1  0  0  0  0  0  0  0  0  0
    7.8792  -14.2654   19.3986 C   0  0  0  0  0  0  0  0  0  0  0  0
    8.1747  -13.6987   18.0632 C   0  0  0  0  0  0  0  0  0  0  0  0
    8.8640  -14.3457   17.2349 O   0  0  0  0  0  0  0  0  0  0  0  0
    8.4462  -15.9304   21.0321 C   0  0  0  0  0  0  0  0  0  0  0  0
    7.3133  -15.7726   21.5838 O   0  0  0  0  0  0  0  0  0  0  0  0
    7.7123  -12.4516   17.6741 O   0  0  0  0  0  0  0  0  0  0  0  0
    9.5443  -16.3570   21.7926 N   0  0  0  0  0  0  0  0  0  0  0  0
    9.2893  -16.8389   23.1630 C   0  0  1  0  0  0  0  0  0  0  0  0
   10.1879  -18.0154   23.3501 C   0  0  0  0  0  0  0  0  0  0  0  0
    9.7702  -19.1698   22.5834 C   0  0  0  0  0  0  0  0  0  0  0  0
    8.8143  -19.8942   22.9395 O   0  0  0  0  0  0  0  0  0  0  0  0
    9.5417  -15.7187   24.1086 C   0  0  0  0  0  0  0  0  0  0  0  0
   10.5611  -15.0110   24.0691 O   0  0  0  0  0  0  0  0  0  0  0  0
   10.4724  -19.4779   21.3971 O   0  0  0  0  0  0  0  0  0  0  0  0
    5.7702  -12.3110   26.0636 C   0  0  0  0  0  0  0  0  0  0  0  0
    6.9935  -12.9977   25.5084 C   0  0  0  0  0  0  0  0  0  0  0  0
    7.7054  -13.6698   26.6571 C   0  0  2  0  0  0  0  0  0  0  0  0
    8.2101  -12.5954   27.6149 C   0  0  0  0  0  0  0  0  0  0  0  0
    8.9092  -14.4528   26.1926 C   0  0  2  0  0  0  0  0  0  0  0  0
    8.6001  -15.3827   25.1453 N   0  0  0  0  0  0  0  0  0  0  0  0
    9.5339  -15.0717   27.3817 C   0  0  0  0  0  0  0  0  0  0  0  0
    9.3606  -16.2804   27.6004 O   0  0  0  0  0  0  0  0  0  0  0  0
   10.3047  -14.3027   28.2400 O   0  0  0  0  0  0  0  0  0  0  0  0
  2  1  1  6
  2  3  1  0
  3  4  1  0
  4  5  2  0
  6  2  1  0
  7  6  2  0
  8  4  1  0
  9  6  1  0
 10 14  1  0
 10  9  1  0
 10 11  1  1
 12 11  1  0
 12 13  2  0
 14 22  1  0
 15 14  2  0
 16 12  1  0
 18 17  1  0
 19 18  1  0
 19 20  1  1
 21 19  1  0
 21 23  1  0
 21 22  1  6
 23 24  2  0
 23 25  1  0
M  END
$$$$
