DDI.pdb
     RDKit          3D

 25 24  0  0  1  0  0  0  0  0999 V2000
    9.4884  -12.9791   19.1802 N   0  0  0  0  0  0  0  0  0  0  0  0
    8.1703  -13.1774   19.7349 C   0  0  1  0  0  0  0  0  0  0  0  0
    7.3070  -13.7604   18.6415 C   0  0  0  0  0  0  0  0  0  0  0  0
    8.1131  -14.4404   17.6024 C   0  0  0  0  0  0  0  0  0  0  0  0
    8.8428  -15.4191   17.9012 O   0  0  0  0  0  0  0  0  0  0  0  0
    8.1632  -14.1568   20.8488 C   0  0  0  0  0  0  0  0  0  0  0  0
    7.0760  -14.2287   21.5012 O   0  0  0  0  0  0  0  0  0  0  0  0
    8.0988  -14.0348   16.2773 O   0  0  0  0  0  0  0  0  0  0  0  0
    9.2489  -14.9710   21.2012 N   0  0  0  0  0  0  0  0  0  0  0  0
    9.0699  -15.9132   22.3217 C   0  0  1  0  0  0  0  0  0  0  0  0
   10.0530  -17.0107   22.0864 C   0  0  0  0  0  0  0  0  0  0  0  0
    9.4551  -18.1810   21.4799 C   0  0  0  0  0  0  0  0  0  0  0  0
   10.1302  -19.1876   21.1698 O   0  0  0  0  0  0  0  0  0  0  0  0
    9.2728  -15.1714   23.5951 C   0  0  0  0  0  0  0  0  0  0  0  0
   10.2592  -14.4493   23.8126 O   0  0  0  0  0  0  0  0  0  0  0  0
    8.0640  -18.1739   21.2353 O   0  0  0  0  0  0  0  0  0  0  0  0
    6.0006  -11.8136   25.8366 C   0  0  0  0  0  0  0  0  0  0  0  0
    7.1768  -12.6278   25.3573 C   0  0  0  0  0  0  0  0  0  0  0  0
    7.4235  -13.7203   26.3690 C   0  0  2  0  0  0  0  0  0  0  0  0
    7.8374  -13.0789   27.6895 C   0  0  0  0  0  0  0  0  0  0  0  0
    8.5474  -14.6350   25.9470 C   0  0  2  0  0  0  0  0  0  0  0  0
    8.3186  -15.2486   24.6711 N   0  0  0  0  0  0  0  0  0  0  0  0
    8.7842  -15.5982   27.0441 C   0  0  0  0  0  0  0  0  0  0  0  0
    8.3515  -16.7562   26.9410 O   0  0  0  0  0  0  0  0  0  0  0  0
    9.4837  -15.2043   28.1744 O   0  0  0  0  0  0  0  0  0  0  0  0
  2  1  1  6
  2  3  1  0
  3  4  1  0
  4  5  2  0
  6  2  1  0
  7  6  2  0
  8  4  1  0
  9  6  1  0
 10 14  1  0
 10  9  1  0
 10 11  1  6
 12 11  1  0
 12 13  2  0
 14 22  1  0
 15 14  2  0
 16 12  1  0
 18 17  1  0
 19 18  1  0
 19 20  1  1
 21 19  1  0
 21 23  1  0
 21 22  1  6
 23 24  2  0
 23 25  1  0
M  END
$$$$
