DDI.pdb
     RDKit          3D

 25 24  0  0  1  0  0  0  0  0999 V2000
    9.2785  -14.6814   19.7288 N   0  0  0  0  0  0  0  0  0  0  0  0
    8.3635  -15.7556   20.0343 C   0  0  1  0  0  0  0  0  0  0  0  0
    8.6806  -16.8951   19.0952 C   0  0  0  0  0  0  0  0  0  0  0  0
    7.5047  -17.2913   18.2878 C   0  0  0  0  0  0  0  0  0  0  0  0
    7.3286  -16.8102   17.1401 O   0  0  0  0  0  0  0  0  0  0  0  0
    8.5395  -16.2789   21.4110 C   0  0  0  0  0  0  0  0  0  0  0  0
    7.4653  -16.5732   22.0211 O   0  0  0  0  0  0  0  0  0  0  0  0
    6.5625  -18.1944   18.7537 O   0  0  0  0  0  0  0  0  0  0  0  0
    9.7780  -16.4569   22.0438 N   0  0  0  0  0  0  0  0  0  0  0  0
    9.7803  -16.9957   23.4167 C   0  0  1  0  0  0  0  0  0  0  0  0
   10.8938  -17.9882   23.4581 C   0  0  0  0  0  0  0  0  0  0  0  0
   11.2014  -18.4327   24.8008 C   0  0  0  0  0  0  0  0  0  0  0  0
   12.3075  -18.2056   25.3394 O   0  0  0  0  0  0  0  0  0  0  0  0
    9.9356  -15.8608   24.3656 C   0  0  0  0  0  0  0  0  0  0  0  0
   10.9702  -15.1794   24.4486 O   0  0  0  0  0  0  0  0  0  0  0  0
   10.2129  -19.1451   25.5153 O   0  0  0  0  0  0  0  0  0  0  0  0
    5.9844  -12.3344   25.5710 C   0  0  0  0  0  0  0  0  0  0  0  0
    7.2945  -13.0109   25.2509 C   0  0  0  0  0  0  0  0  0  0  0  0
    7.7951  -13.6663   26.5150 C   0  0  2  0  0  0  0  0  0  0  0  0
    8.1526  -12.5773   27.5213 C   0  0  0  0  0  0  0  0  0  0  0  0
    9.0458  -14.4756   26.2722 C   0  0  2  0  0  0  0  0  0  0  0  0
    8.8744  -15.4781   25.2610 N   0  0  0  0  0  0  0  0  0  0  0  0
    9.5020  -15.0067   27.5749 C   0  0  0  0  0  0  0  0  0  0  0  0
    9.9870  -14.2306   28.4123 O   0  0  0  0  0  0  0  0  0  0  0  0
    9.3859  -16.3603   27.8514 O   0  0  0  0  0  0  0  0  0  0  0  0
  2  1  1  6
  2  3  1  0
  3  4  1  0
  4  5  2  0
  6  2  1  0
  7  6  2  0
  8  4  1  0
  9  6  1  0
 10 14  1  0
 10  9  1  0
 10 11  1  6
 12 11  1  0
 12 13  2  0
 14 22  1  0
 15 14  2  0
 16 12  1  0
 18 17  1  0
 19 18  1  0
 19 20  1  1
 21 19  1  0
 21 23  1  0
 21 22  1  6
 23 24  2  0
 23 25  1  0
M  END
$$$$
