DDI.pdb
     RDKit          3D

 25 24  0  0  1  0  0  0  0  0999 V2000
   46.8850  -85.0857  -30.1725 N   0  0  0  0  0  0  0  0  0  0  0  0
   45.7600  -85.6102  -30.9098 C   0  0  1  0  0  0  0  0  0  0  0  0
   44.5996  -85.7065  -29.9480 C   0  0  0  0  0  0  0  0  0  0  0  0
   44.3397  -84.4201  -29.2629 C   0  0  0  0  0  0  0  0  0  0  0  0
   44.4812  -84.3214  -28.0179 O   0  0  0  0  0  0  0  0  0  0  0  0
   45.3286  -84.7097  -32.0065 C   0  0  0  0  0  0  0  0  0  0  0  0
   46.1778  -83.8313  -32.3531 O   0  0  0  0  0  0  0  0  0  0  0  0
   43.9361  -83.2875  -29.9520 O   0  0  0  0  0  0  0  0  0  0  0  0
   44.0852  -84.7772  -32.6509 N   0  0  0  0  0  0  0  0  0  0  0  0
   43.9744  -84.1923  -34.0003 C   0  0  1  0  0  0  0  0  0  0  0  0
   45.3756  -83.9356  -34.4443 C   0  0  0  0  0  0  0  0  0  0  0  0
   45.6564  -84.4724  -35.7589 C   0  0  0  0  0  0  0  0  0  0  0  0
   45.6941  -85.7030  -35.9805 O   0  0  0  0  0  0  0  0  0  0  0  0
   43.2227  -85.1426  -34.8630 C   0  0  0  0  0  0  0  0  0  0  0  0
   43.2885  -85.1347  -36.1029 O   0  0  0  0  0  0  0  0  0  0  0  0
   45.8939  -83.5673  -36.8170 O   0  0  0  0  0  0  0  0  0  0  0  0
   42.1749  -89.7551  -36.9834 C   0  0  0  0  0  0  0  0  0  0  0  0
   43.2878  -89.2686  -36.0884 C   0  0  0  0  0  0  0  0  0  0  0  0
   43.1531  -87.7709  -35.9586 C   0  0  2  0  0  0  0  0  0  0  0  0
   44.4705  -87.2052  -35.4382 C   0  0  0  0  0  0  0  0  0  0  0  0
   42.0813  -87.3858  -34.9682 C   0  0  2  0  0  0  0  0  0  0  0  0
   42.3577  -86.1472  -34.3000 N   0  0  0  0  0  0  0  0  0  0  0  0
   41.8767  -88.5301  -34.0539 C   0  0  0  0  0  0  0  0  0  0  0  0
   41.1254  -88.4002  -33.0753 O   0  0  0  0  0  0  0  0  0  0  0  0
   42.5213  -89.7338  -34.2937 O   0  0  0  0  0  0  0  0  0  0  0  0
  2  1  1  1
  2  3  1  0
  3  4  1  0
  4  5  2  0
  6  2  1  0
  7  6  2  0
  8  4  1  0
  9  6  1  0
 10 14  1  0
 10  9  1  0
 10 11  1  6
 12 11  1  0
 12 13  2  0
 14 22  1  0
 15 14  2  0
 16 12  1  0
 18 17  1  0
 19 18  1  0
 19 20  1  1
 21 19  1  0
 21 23  1  0
 21 22  1  1
 23 24  2  0
 23 25  1  0
M  END
$$$$
