SGI.pdb
     RDKit          3D

 19 18  0  0  1  0  0  0  0  0999 V2000
    7.8237  -19.6183   19.5139 O   0  0  0  0  0  0  0  0  0  0  0  0
    8.5713  -18.5999   18.9100 C   0  0  0  0  0  0  0  0  0  0  0  0
    9.4991  -17.9942   19.9343 C   0  0  2  0  0  0  0  0  0  0  0  0
   10.1579  -19.0529   20.6530 N   0  0  0  0  0  0  0  0  0  0  0  0
    8.7278  -17.1091   20.8794 C   0  0  0  0  0  0  0  0  0  0  0  0
    8.5159  -15.9226   20.5805 O   0  0  0  0  0  0  0  0  0  0  0  0
    8.2391  -17.6193   22.1122 N   0  0  0  0  0  0  0  0  0  0  0  0
    7.4045  -16.8927   23.0115 C   0  0  0  0  0  0  0  0  0  0  0  0
    8.1461  -15.9740   23.8970 C   0  0  0  0  0  0  0  0  0  0  0  0
    9.3993  -15.9672   23.8307 O   0  0  0  0  0  0  0  0  0  0  0  0
    5.8201  -11.6955   27.2731 C   0  0  0  0  0  0  0  0  0  0  0  0
    6.1874  -12.9128   26.4660 C   0  0  0  0  0  0  0  0  0  0  0  0
    7.4993  -12.8500   25.7804 C   0  0  2  0  0  0  0  0  0  0  0  0
    7.3234  -12.1685   24.4150 C   0  0  0  0  0  0  0  0  0  0  0  0
    8.2480  -14.1311   25.6373 C   0  0  2  0  0  0  0  0  0  0  0  0
    7.5309  -15.0947   24.8218 N   0  0  0  0  0  0  0  0  0  0  0  0
    8.7101  -14.7387   26.9020 C   0  0  0  0  0  0  0  0  0  0  0  0
    9.6806  -14.1478   27.6987 O   0  0  0  0  0  0  0  0  0  0  0  0
    8.2530  -15.8459   27.3497 O   0  0  0  0  0  0  0  0  0  0  0  0
  2  1  1  0
  3  2  1  0
  3  4  1  1
  5  6  2  0
  5  3  1  0
  7  5  1  0
  8  7  1  0
  9 10  2  0
  9  8  1  0
 11 12  1  0
 12 13  1  0
 13 14  1  6
 15 16  1  1
 15 13  1  0
 16  9  1  0
 17 15  1  0
 18 17  1  0
 19 17  2  0
M  END
$$$$
