SGI.pdb
     RDKit          3D

 19 18  0  0  1  0  0  0  0  0999 V2000
    5.1889  -21.2820   20.8150 O   0  0  0  0  0  0  0  0  0  0  0  0
    6.5402  -21.0907   21.1282 C   0  0  0  0  0  0  0  0  0  0  0  0
    6.8444  -19.6128   21.1223 C   0  0  2  0  0  0  0  0  0  0  0  0
    8.1219  -19.4004   20.4944 N   0  0  0  0  0  0  0  0  0  0  0  0
    6.8473  -19.0742   22.5301 C   0  0  0  0  0  0  0  0  0  0  0  0
    7.7370  -19.4229   23.3232 O   0  0  0  0  0  0  0  0  0  0  0  0
    5.8400  -18.1693   22.9606 N   0  0  0  0  0  0  0  0  0  0  0  0
    5.7765  -17.5938   24.2637 C   0  0  0  0  0  0  0  0  0  0  0  0
    6.8131  -16.5730   24.5116 C   0  0  0  0  0  0  0  0  0  0  0  0
    7.6292  -16.3195   23.5926 O   0  0  0  0  0  0  0  0  0  0  0  0
    5.5434  -11.8627   26.5644 C   0  0  0  0  0  0  0  0  0  0  0  0
    6.1977  -13.0257   25.8663 C   0  0  0  0  0  0  0  0  0  0  0  0
    7.3755  -13.6017   26.5561 C   0  0  2  0  0  0  0  0  0  0  0  0
    8.4527  -12.5170   26.7072 C   0  0  0  0  0  0  0  0  0  0  0  0
    7.9574  -14.8447   25.9742 C   0  0  2  0  0  0  0  0  0  0  0  0
    6.9467  -15.8571   25.7268 N   0  0  0  0  0  0  0  0  0  0  0  0
    9.1103  -15.4070   26.7068 C   0  0  0  0  0  0  0  0  0  0  0  0
   10.4143  -14.9979   26.4663 O   0  0  0  0  0  0  0  0  0  0  0  0
    8.9904  -16.3059   27.6084 O   0  0  0  0  0  0  0  0  0  0  0  0
  2  1  1  0
  3  2  1  0
  3  4  1  1
  5  6  2  0
  5  3  1  0
  7  5  1  0
  8  7  1  0
  9 10  2  0
  9  8  1  0
 11 12  1  0
 12 13  1  0
 13 14  1  6
 15 16  1  1
 15 13  1  0
 16  9  1  0
 17 15  1  0
 18 17  1  0
 19 17  2  0
M  END
$$$$
