SGI.pdb
     RDKit          3D

 19 18  0  0  1  0  0  0  0  0999 V2000
    5.3482  -19.2620   23.3456 O   0  0  0  0  0  0  0  0  0  0  0  0
    4.6509  -18.7575   22.2412 C   0  0  0  0  0  0  0  0  0  0  0  0
    5.6344  -18.1511   21.2707 C   0  0  2  0  0  0  0  0  0  0  0  0
    6.5580  -19.1688   20.8431 N   0  0  0  0  0  0  0  0  0  0  0  0
    6.3681  -17.0047   21.9181 C   0  0  0  0  0  0  0  0  0  0  0  0
    5.7844  -15.9247   22.1054 O   0  0  0  0  0  0  0  0  0  0  0  0
    7.7243  -17.1468   22.3173 N   0  0  0  0  0  0  0  0  0  0  0  0
    8.7230  -16.1425   22.1524 C   0  0  0  0  0  0  0  0  0  0  0  0
    9.0536  -15.4253   23.3992 C   0  0  0  0  0  0  0  0  0  0  0  0
   10.0323  -14.6399   23.3912 O   0  0  0  0  0  0  0  0  0  0  0  0
    5.7072  -12.3174   25.6418 C   0  0  0  0  0  0  0  0  0  0  0  0
    6.9481  -13.0652   25.2307 C   0  0  0  0  0  0  0  0  0  0  0  0
    7.5214  -13.9624   26.2609 C   0  0  2  0  0  0  0  0  0  0  0  0
    7.9252  -13.1301   27.4873 C   0  0  0  0  0  0  0  0  0  0  0  0
    8.6405  -14.8505   25.8353 C   0  0  2  0  0  0  0  0  0  0  0  0
    8.3333  -15.5675   24.6108 N   0  0  0  0  0  0  0  0  0  0  0  0
    9.1544  -15.7641   26.8761 C   0  0  0  0  0  0  0  0  0  0  0  0
    9.0687  -17.1443   26.7609 O   0  0  0  0  0  0  0  0  0  0  0  0
    9.7102  -15.3514   27.9513 O   0  0  0  0  0  0  0  0  0  0  0  0
  2  1  1  0
  3  2  1  0
  3  4  1  1
  5  6  2  0
  5  3  1  0
  7  5  1  0
  8  7  1  0
  9 10  2  0
  9  8  1  0
 11 12  1  0
 12 13  1  0
 13 14  1  1
 15 16  1  6
 15 13  1  0
 16  9  1  0
 17 15  1  0
 18 17  1  0
 19 17  2  0
M  END
$$$$
