SGI.pdb
     RDKit          3D

 19 18  0  0  1  0  0  0  0  0999 V2000
    6.0986  -19.6836   19.4212 O   0  0  0  0  0  0  0  0  0  0  0  0
    6.6933  -18.5822   18.7934 C   0  0  0  0  0  0  0  0  0  0  0  0
    7.7551  -18.0104   19.7003 C   0  0  2  0  0  0  0  0  0  0  0  0
    8.5877  -19.0819   20.1799 N   0  0  0  0  0  0  0  0  0  0  0  0
    7.1184  -17.2751   20.8517 C   0  0  0  0  0  0  0  0  0  0  0  0
    6.4690  -16.2381   20.6391 O   0  0  0  0  0  0  0  0  0  0  0  0
    7.2536  -17.7571   22.1814 N   0  0  0  0  0  0  0  0  0  0  0  0
    6.6733  -17.1370   23.3268 C   0  0  0  0  0  0  0  0  0  0  0  0
    7.5952  -16.2333   24.0421 C   0  0  0  0  0  0  0  0  0  0  0  0
    8.7875  -16.1733   23.6555 O   0  0  0  0  0  0  0  0  0  0  0  0
    5.6147  -11.6673   26.4696 C   0  0  0  0  0  0  0  0  0  0  0  0
    6.4715  -12.6511   25.7172 C   0  0  0  0  0  0  0  0  0  0  0  0
    7.4156  -13.4369   26.5455 C   0  0  2  0  0  0  0  0  0  0  0  0
    8.4164  -12.4822   27.2138 C   0  0  0  0  0  0  0  0  0  0  0  0
    8.1278  -14.5614   25.8741 C   0  0  2  0  0  0  0  0  0  0  0  0
    7.2183  -15.4249   25.1429 N   0  0  0  0  0  0  0  0  0  0  0  0
    9.0306  -15.3460   26.7409 C   0  0  0  0  0  0  0  0  0  0  0  0
   10.3926  -15.0915   26.8184 O   0  0  0  0  0  0  0  0  0  0  0  0
    8.6249  -16.3105   27.4761 O   0  0  0  0  0  0  0  0  0  0  0  0
  2  1  1  0
  3  2  1  0
  3  4  1  1
  5  6  2  0
  5  3  1  0
  7  5  1  0
  8  7  1  0
  9 10  2  0
  9  8  1  0
 11 12  1  0
 12 13  1  0
 13 14  1  6
 15 16  1  1
 15 13  1  0
 16  9  1  0
 17 15  1  0
 18 17  1  0
 19 17  2  0
M  END
$$$$
