SGI.pdb
     RDKit          3D

 19 18  0  0  1  0  0  0  0  0999 V2000
    7.7687  -20.5720   25.9871 O   0  0  0  0  0  0  0  0  0  0  0  0
    6.7515  -19.6207   25.8424 C   0  0  0  0  0  0  0  0  0  0  0  0
    6.2407  -19.6556   24.4229 C   0  0  2  0  0  0  0  0  0  0  0  0
    6.3810  -20.9921   23.9077 N   0  0  0  0  0  0  0  0  0  0  0  0
    7.0016  -18.6736   23.5694 C   0  0  0  0  0  0  0  0  0  0  0  0
    8.1764  -18.9154   23.2476 O   0  0  0  0  0  0  0  0  0  0  0  0
    6.3874  -17.4708   23.1280 N   0  0  0  0  0  0  0  0  0  0  0  0
    7.0354  -16.4782   22.3355 C   0  0  0  0  0  0  0  0  0  0  0  0
    7.6800  -15.4141   23.1295 C   0  0  0  0  0  0  0  0  0  0  0  0
    7.9848  -14.3430   22.5510 O   0  0  0  0  0  0  0  0  0  0  0  0
    6.1531  -12.4641   27.3900 C   0  0  0  0  0  0  0  0  0  0  0  0
    6.3327  -13.5123   26.3236 C   0  0  0  0  0  0  0  0  0  0  0  0
    7.4941  -13.3143   25.4254 C   0  0  2  0  0  0  0  0  0  0  0  0
    6.9910  -12.9140   24.0302 C   0  0  0  0  0  0  0  0  0  0  0  0
    8.4731  -14.4345   25.3311 C   0  0  2  0  0  0  0  0  0  0  0  0
    7.9782  -15.5248   24.5101 N   0  0  0  0  0  0  0  0  0  0  0  0
    8.9942  -14.9299   26.6215 C   0  0  0  0  0  0  0  0  0  0  0  0
    8.8041  -16.2371   27.0466 O   0  0  0  0  0  0  0  0  0  0  0  0
    9.6525  -14.1943   27.4345 O   0  0  0  0  0  0  0  0  0  0  0  0
  2  1  1  0
  3  2  1  0
  3  4  1  6
  5  6  2  0
  5  3  1  0
  7  5  1  0
  8  7  1  0
  9 10  2  0
  9  8  1  0
 11 12  1  0
 12 13  1  0
 13 14  1  6
 15 16  1  1
 15 13  1  0
 16  9  1  0
 17 15  1  0
 18 17  1  0
 19 17  2  0
M  END
$$$$
