SGI.pdb
     RDKit          3D

 19 18  0  0  1  0  0  0  0  0999 V2000
    7.0677  -14.3314   17.2176 O   0  0  0  0  0  0  0  0  0  0  0  0
    8.0127  -13.4333   17.7284 C   0  0  0  0  0  0  0  0  0  0  0  0
    8.7911  -14.1088   18.8305 C   0  0  2  0  0  0  0  0  0  0  0  0
    9.1432  -15.4387   18.4076 N   0  0  0  0  0  0  0  0  0  0  0  0
    7.9744  -14.1517   20.0965 C   0  0  0  0  0  0  0  0  0  0  0  0
    7.6336  -13.0926   20.6481 O   0  0  0  0  0  0  0  0  0  0  0  0
    7.5891  -15.3946   20.6672 N   0  0  0  0  0  0  0  0  0  0  0  0
    6.9450  -15.5363   21.9314 C   0  0  0  0  0  0  0  0  0  0  0  0
    7.7677  -15.0826   23.0697 C   0  0  0  0  0  0  0  0  0  0  0  0
    8.9655  -14.7775   22.8527 O   0  0  0  0  0  0  0  0  0  0  0  0
    5.5842  -11.5862   26.3779 C   0  0  0  0  0  0  0  0  0  0  0  0
    6.5675  -12.3910   25.5695 C   0  0  0  0  0  0  0  0  0  0  0  0
    7.2833  -13.4542   26.3126 C   0  0  2  0  0  0  0  0  0  0  0  0
    8.1705  -12.8091   27.3880 C   0  0  0  0  0  0  0  0  0  0  0  0
    8.0633  -14.4344   25.5044 C   0  0  2  0  0  0  0  0  0  0  0  0
    7.2895  -14.9689   24.3984 N   0  0  0  0  0  0  0  0  0  0  0  0
    8.7133  -15.5145   26.2743 C   0  0  0  0  0  0  0  0  0  0  0  0
    8.2216  -16.8120   26.2941 O   0  0  0  0  0  0  0  0  0  0  0  0
    9.7680  -15.3324   26.9742 O   0  0  0  0  0  0  0  0  0  0  0  0
  2  1  1  0
  3  2  1  0
  3  4  1  6
  5  6  2  0
  5  3  1  0
  7  5  1  0
  8  7  1  0
  9 10  2  0
  9  8  1  0
 11 12  1  0
 12 13  1  0
 13 14  1  1
 15 16  1  6
 15 13  1  0
 16  9  1  0
 17 15  1  0
 18 17  1  0
 19 17  2  0
M  END
$$$$
