SGI.pdb
     RDKit          3D

 19 18  0  0  1  0  0  0  0  0999 V2000
   10.9709  -18.5243   18.6114 O   0  0  0  0  0  0  0  0  0  0  0  0
   10.2655  -17.7597   19.5487 C   0  0  0  0  0  0  0  0  0  0  0  0
    8.9225  -18.4005   19.7989 C   0  0  2  0  0  0  0  0  0  0  0  0
    7.9506  -17.8102   18.9167 N   0  0  0  0  0  0  0  0  0  0  0  0
    8.5158  -18.2164   21.2385 C   0  0  0  0  0  0  0  0  0  0  0  0
    9.1709  -18.7637   22.1404 O   0  0  0  0  0  0  0  0  0  0  0  0
    7.3877  -17.4210   21.5755 N   0  0  0  0  0  0  0  0  0  0  0  0
    6.9206  -17.2066   22.9056 C   0  0  0  0  0  0  0  0  0  0  0  0
    7.6438  -16.1382   23.6224 C   0  0  0  0  0  0  0  0  0  0  0  0
    8.8598  -15.9671   23.3640 O   0  0  0  0  0  0  0  0  0  0  0  0
    6.3929  -10.8460   26.6907 C   0  0  0  0  0  0  0  0  0  0  0  0
    7.3802  -11.9060   26.2788 C   0  0  0  0  0  0  0  0  0  0  0  0
    6.7881  -13.1524   25.7396 C   0  0  2  0  0  0  0  0  0  0  0  0
    5.8250  -13.7451   26.7793 C   0  0  0  0  0  0  0  0  0  0  0  0
    7.7362  -14.1920   25.2469 C   0  0  2  0  0  0  0  0  0  0  0  0
    7.0501  -15.2890   24.5886 N   0  0  0  0  0  0  0  0  0  0  0  0
    8.7054  -14.6885   26.2450 C   0  0  0  0  0  0  0  0  0  0  0  0
    8.6469  -15.9755   26.7607 O   0  0  0  0  0  0  0  0  0  0  0  0
    9.6608  -13.9725   26.7032 O   0  0  0  0  0  0  0  0  0  0  0  0
  2  1  1  0
  3  2  1  0
  3  4  1  6
  5  6  2  0
  5  3  1  0
  7  5  1  0
  8  7  1  0
  9 10  2  0
  9  8  1  0
 11 12  1  0
 12 13  1  0
 13 14  1  1
 15 16  1  1
 15 13  1  0
 16  9  1  0
 17 15  1  0
 18 17  1  0
 19 17  2  0
M  END
$$$$
