SGI.pdb
     RDKit          3D

 19 18  0  0  1  0  0  0  0  0999 V2000
    4.0141  -19.4624   22.0292 O   0  0  0  0  0  0  0  0  0  0  0  0
    5.2350  -20.1383   22.1440 C   0  0  0  0  0  0  0  0  0  0  0  0
    6.2280  -19.2483   22.8502 C   0  0  2  0  0  0  0  0  0  0  0  0
    5.6450  -18.7801   24.0800 N   0  0  0  0  0  0  0  0  0  0  0  0
    6.6105  -18.0883   21.9671 C   0  0  0  0  0  0  0  0  0  0  0  0
    7.3347  -18.2786   20.9764 O   0  0  0  0  0  0  0  0  0  0  0  0
    6.1500  -16.7757   22.2568 N   0  0  0  0  0  0  0  0  0  0  0  0
    6.7908  -15.5807   21.8159 C   0  0  0  0  0  0  0  0  0  0  0  0
    7.5880  -14.9145   22.8642 C   0  0  0  0  0  0  0  0  0  0  0  0
    8.4333  -14.0562   22.5124 O   0  0  0  0  0  0  0  0  0  0  0  0
    5.4995  -11.9608   26.3741 C   0  0  0  0  0  0  0  0  0  0  0  0
    6.4487  -12.7080   25.4748 C   0  0  0  0  0  0  0  0  0  0  0  0
    7.3525  -13.6636   26.1566 C   0  0  2  0  0  0  0  0  0  0  0  0
    8.1970  -12.9079   27.1937 C   0  0  0  0  0  0  0  0  0  0  0  0
    8.2188  -14.5105   25.2878 C   0  0  2  0  0  0  0  0  0  0  0  0
    7.4595  -15.1831   24.2492 N   0  0  0  0  0  0  0  0  0  0  0  0
    9.1014  -15.4550   26.0027 C   0  0  0  0  0  0  0  0  0  0  0  0
   10.3578  -15.0915   26.4662 O   0  0  0  0  0  0  0  0  0  0  0  0
    8.7736  -16.6675   26.2430 O   0  0  0  0  0  0  0  0  0  0  0  0
  2  1  1  0
  3  2  1  0
  3  4  1  1
  5  6  2  0
  5  3  1  0
  7  5  1  0
  8  7  1  0
  9 10  2  0
  9  8  1  0
 11 12  1  0
 12 13  1  0
 13 14  1  1
 15 16  1  6
 15 13  1  0
 16  9  1  0
 17 15  1  0
 18 17  1  0
 19 17  2  0
M  END
$$$$
