SGI.pdb
     RDKit          3D

 19 18  0  0  1  0  0  0  0  0999 V2000
    7.9169  -21.2330   22.0787 O   0  0  0  0  0  0  0  0  0  0  0  0
    6.8220  -21.1955   21.2067 C   0  0  0  0  0  0  0  0  0  0  0  0
    6.4873  -19.7575   20.8953 C   0  0  2  0  0  0  0  0  0  0  0  0
    7.6633  -19.1030   20.3854 N   0  0  0  0  0  0  0  0  0  0  0  0
    5.9834  -19.0587   22.1321 C   0  0  0  0  0  0  0  0  0  0  0  0
    4.8811  -19.3701   22.6119 O   0  0  0  0  0  0  0  0  0  0  0  0
    6.7583  -18.0446   22.7566 N   0  0  0  0  0  0  0  0  0  0  0  0
    6.3396  -17.2965   23.8960 C   0  0  0  0  0  0  0  0  0  0  0  0
    7.3216  -16.2859   24.3347 C   0  0  0  0  0  0  0  0  0  0  0  0
    8.4275  -16.2362   23.7436 O   0  0  0  0  0  0  0  0  0  0  0  0
    6.0213  -11.4132   27.2422 C   0  0  0  0  0  0  0  0  0  0  0  0
    6.1989  -12.7957   26.6719 C   0  0  0  0  0  0  0  0  0  0  0  0
    7.3617  -12.9678   25.7701 C   0  0  2  0  0  0  0  0  0  0  0  0
    6.9633  -12.5492   24.3468 C   0  0  0  0  0  0  0  0  0  0  0  0
    8.0167  -14.3069   25.7616 C   0  0  2  0  0  0  0  0  0  0  0  0
    7.0947  -15.3635   25.3859 N   0  0  0  0  0  0  0  0  0  0  0  0
    8.7593  -14.6560   26.9898 C   0  0  0  0  0  0  0  0  0  0  0  0
    9.9028  -13.9762   27.3849 O   0  0  0  0  0  0  0  0  0  0  0  0
    8.4049  -15.6042   27.7714 O   0  0  0  0  0  0  0  0  0  0  0  0
  2  1  1  0
  3  2  1  0
  3  4  1  1
  5  6  2  0
  5  3  1  0
  7  5  1  0
  8  7  1  0
  9 10  2  0
  9  8  1  0
 11 12  1  0
 12 13  1  0
 13 14  1  6
 15 16  1  1
 15 13  1  0
 16  9  1  0
 17 15  1  0
 18 17  1  0
 19 17  2  0
M  END
$$$$
