SGI.pdb
     RDKit          3D

 19 18  0  0  1  0  0  0  0  0999 V2000
   10.4311  -15.1809   17.7456 O   0  0  0  0  0  0  0  0  0  0  0  0
    9.8382  -14.2801   18.6387 C   0  0  0  0  0  0  0  0  0  0  0  0
    8.3388  -14.3426   18.4810 C   0  0  2  0  0  0  0  0  0  0  0  0
    7.9184  -13.2974   17.5854 N   0  0  0  0  0  0  0  0  0  0  0  0
    7.6659  -14.1970   19.8219 C   0  0  0  0  0  0  0  0  0  0  0  0
    7.4580  -13.0653   20.2892 O   0  0  0  0  0  0  0  0  0  0  0  0
    7.2657  -15.3439   20.5589 N   0  0  0  0  0  0  0  0  0  0  0  0
    6.6207  -15.3011   21.8298 C   0  0  0  0  0  0  0  0  0  0  0  0
    7.5410  -15.0357   22.9527 C   0  0  0  0  0  0  0  0  0  0  0  0
    8.7746  -15.0358   22.7226 O   0  0  0  0  0  0  0  0  0  0  0  0
    5.7748  -11.5901   26.7953 C   0  0  0  0  0  0  0  0  0  0  0  0
    6.6063  -12.3558   25.8001 C   0  0  0  0  0  0  0  0  0  0  0  0
    7.3572  -13.5082   26.3507 C   0  0  2  0  0  0  0  0  0  0  0  0
    8.3767  -13.0007   27.3817 C   0  0  0  0  0  0  0  0  0  0  0  0
    8.0104  -14.4197   25.3684 C   0  0  2  0  0  0  0  0  0  0  0  0
    7.1188  -14.7795   24.2806 N   0  0  0  0  0  0  0  0  0  0  0  0
    8.6581  -15.6144   25.9473 C   0  0  0  0  0  0  0  0  0  0  0  0
    9.9963  -15.6292   26.3145 O   0  0  0  0  0  0  0  0  0  0  0  0
    8.0368  -16.7137   26.1490 O   0  0  0  0  0  0  0  0  0  0  0  0
  2  1  1  0
  3  2  1  0
  3  4  1  6
  5  6  2  0
  5  3  1  0
  7  5  1  0
  8  7  1  0
  9 10  2  0
  9  8  1  0
 11 12  1  0
 12 13  1  0
 13 14  1  1
 15 16  1  6
 15 13  1  0
 16  9  1  0
 17 15  1  0
 18 17  1  0
 19 17  2  0
M  END
$$$$
