SGI.pdb
     RDKit          3D

 19 18  0  0  1  0  0  0  0  0999 V2000
   10.3037  -16.5716   20.0045 O   0  0  0  0  0  0  0  0  0  0  0  0
    9.4213  -16.7357   18.9299 C   0  0  0  0  0  0  0  0  0  0  0  0
    8.2402  -17.5590   19.3816 C   0  0  2  0  0  0  0  0  0  0  0  0
    7.3775  -17.7978   18.2546 N   0  0  0  0  0  0  0  0  0  0  0  0
    7.4951  -16.8450   20.4802 C   0  0  0  0  0  0  0  0  0  0  0  0
    6.7603  -15.8827   20.2041 O   0  0  0  0  0  0  0  0  0  0  0  0
    7.6249  -17.2624   21.8322 N   0  0  0  0  0  0  0  0  0  0  0  0
    6.9168  -16.6838   22.9263 C   0  0  0  0  0  0  0  0  0  0  0  0
    7.7659  -15.8696   23.8174 C   0  0  0  0  0  0  0  0  0  0  0  0
    8.9823  -15.7499   23.5330 O   0  0  0  0  0  0  0  0  0  0  0  0
    5.4118  -11.7159   26.6058 C   0  0  0  0  0  0  0  0  0  0  0  0
    6.3854  -12.5383   25.8033 C   0  0  0  0  0  0  0  0  0  0  0  0
    7.3108  -13.3816   26.5953 C   0  0  2  0  0  0  0  0  0  0  0  0
    8.2205  -12.4771   27.4403 C   0  0  0  0  0  0  0  0  0  0  0  0
    8.1169  -14.3868   25.8456 C   0  0  2  0  0  0  0  0  0  0  0  0
    7.2935  -15.2111   24.9794 N   0  0  0  0  0  0  0  0  0  0  0  0
    9.0221  -15.2139   26.6694 C   0  0  0  0  0  0  0  0  0  0  0  0
   10.3552  -14.8834   26.8681 O   0  0  0  0  0  0  0  0  0  0  0  0
    8.6451  -16.2871   27.2537 O   0  0  0  0  0  0  0  0  0  0  0  0
  2  1  1  0
  3  2  1  0
  3  4  1  6
  5  6  2  0
  5  3  1  0
  7  5  1  0
  8  7  1  0
  9 10  2  0
  9  8  1  0
 11 12  1  0
 12 13  1  0
 13 14  1  6
 15 16  1  1
 15 13  1  0
 16  9  1  0
 17 15  1  0
 18 17  1  0
 19 17  2  0
M  END
$$$$
