SGI.pdb
     RDKit          3D

 19 18  0  0  1  0  0  0  0  0999 V2000
    8.9263  -19.6416   19.6568 O   0  0  0  0  0  0  0  0  0  0  0  0
    8.4045  -19.0034   18.5249 C   0  0  0  0  0  0  0  0  0  0  0  0
    8.4713  -17.5093   18.7253 C   0  0  2  0  0  0  0  0  0  0  0  0
    9.8251  -17.1400   19.0450 N   0  0  0  0  0  0  0  0  0  0  0  0
    7.5308  -17.0870   19.8248 C   0  0  0  0  0  0  0  0  0  0  0  0
    6.3125  -17.2993   19.7112 O   0  0  0  0  0  0  0  0  0  0  0  0
    8.0245  -16.4468   20.9932 N   0  0  0  0  0  0  0  0  0  0  0  0
    7.2113  -16.0215   22.0845 C   0  0  0  0  0  0  0  0  0  0  0  0
    7.9825  -15.5059   23.2324 C   0  0  0  0  0  0  0  0  0  0  0  0
    9.2302  -15.6393   23.2180 O   0  0  0  0  0  0  0  0  0  0  0  0
    5.7122  -11.4408   26.2969 C   0  0  0  0  0  0  0  0  0  0  0  0
    6.6426  -12.3103   25.4930 C   0  0  0  0  0  0  0  0  0  0  0  0
    7.3722  -13.3444   26.2632 C   0  0  2  0  0  0  0  0  0  0  0  0
    8.2611  -12.6594   27.3123 C   0  0  0  0  0  0  0  0  0  0  0  0
    8.1551  -14.3424   25.4800 C   0  0  2  0  0  0  0  0  0  0  0  0
    7.4015  -14.8667   24.3553 N   0  0  0  0  0  0  0  0  0  0  0  0
    8.7634  -15.4315   26.2712 C   0  0  0  0  0  0  0  0  0  0  0  0
   10.0853  -15.3949   26.6918 O   0  0  0  0  0  0  0  0  0  0  0  0
    8.1202  -16.4796   26.6219 O   0  0  0  0  0  0  0  0  0  0  0  0
  2  1  1  0
  3  2  1  0
  3  4  1  1
  5  6  2  0
  5  3  1  0
  7  5  1  0
  8  7  1  0
  9 10  2  0
  9  8  1  0
 11 12  1  0
 12 13  1  0
 13 14  1  1
 15 16  1  6
 15 13  1  0
 16  9  1  0
 17 15  1  0
 18 17  1  0
 19 17  2  0
M  END
$$$$
