SGI.pdb
     RDKit          3D

 19 18  0  0  1  0  0  0  0  0999 V2000
    8.4743  -18.2663   17.0537 O   0  0  0  0  0  0  0  0  0  0  0  0
    7.7686  -18.0387   18.2415 C   0  0  0  0  0  0  0  0  0  0  0  0
    8.5286  -17.0450   19.0852 C   0  0  2  0  0  0  0  0  0  0  0  0
    9.7237  -17.6725   19.5846 N   0  0  0  0  0  0  0  0  0  0  0  0
    7.6676  -16.5588   20.2227 C   0  0  0  0  0  0  0  0  0  0  0  0
    6.8303  -15.6633   20.0248 O   0  0  0  0  0  0  0  0  0  0  0  0
    7.8041  -17.1157   21.5228 N   0  0  0  0  0  0  0  0  0  0  0  0
    7.0980  -16.6585   22.6741 C   0  0  0  0  0  0  0  0  0  0  0  0
    7.9251  -15.8568   23.5968 C   0  0  0  0  0  0  0  0  0  0  0  0
    9.1717  -15.8866   23.4556 O   0  0  0  0  0  0  0  0  0  0  0  0
    5.5581  -11.6114   26.4281 C   0  0  0  0  0  0  0  0  0  0  0  0
    6.4969  -12.4520   25.6034 C   0  0  0  0  0  0  0  0  0  0  0  0
    7.4032  -13.3357   26.3733 C   0  0  2  0  0  0  0  0  0  0  0  0
    8.3113  -12.4748   27.2643 C   0  0  0  0  0  0  0  0  0  0  0  0
    8.2084  -14.3196   25.5948 C   0  0  2  0  0  0  0  0  0  0  0  0
    7.3993  -15.0514   24.6370 N   0  0  0  0  0  0  0  0  0  0  0  0
    9.0417  -15.2345   26.4013 C   0  0  0  0  0  0  0  0  0  0  0  0
   10.3857  -14.9923   26.6476 O   0  0  0  0  0  0  0  0  0  0  0  0
    8.5879  -16.3089   26.9259 O   0  0  0  0  0  0  0  0  0  0  0  0
  2  1  1  0
  3  2  1  0
  3  4  1  1
  5  6  2  0
  5  3  1  0
  7  5  1  0
  8  7  1  0
  9 10  2  0
  9  8  1  0
 11 12  1  0
 12 13  1  0
 13 14  1  6
 15 16  1  1
 15 13  1  0
 16  9  1  0
 17 15  1  0
 18 17  1  0
 19 17  2  0
M  END
$$$$
