KMY.pdb
     RDKit          3D

 30 30  0  0  1  0  0  0  0  0999 V2000
    7.8611  -18.0924   20.4318 N   0  0  0  0  0  0  0  0  0  0  0  0
    9.0948  -17.4569   20.2119 C   0  0  1  0  0  0  0  0  0  0  0  0
    9.4761  -17.1034   18.8162 C   0  0  0  0  0  0  0  0  0  0  0  0
    9.5269  -18.1807   17.8124 C   0  0  0  0  0  0  0  0  0  0  0  0
   10.6500  -19.1524   17.8614 C   0  0  0  0  0  0  0  0  0  0  0  0
   10.6523  -20.1448   16.7350 C   0  0  0  0  0  0  0  0  0  0  0  0
   11.5574  -19.8707   15.6781 N   0  0  0  0  0  0  0  0  0  0  0  0
    9.2493  -16.2579   21.0934 C   0  0  0  0  0  0  0  0  0  0  0  0
   10.2873  -15.5338   20.9900 O   0  0  0  0  0  0  0  0  0  0  0  0
    6.3615  -11.8046   26.8664 C   0  0  0  0  0  0  0  0  0  0  0  0
    6.1726  -13.2607   25.8097 S   0  0  0  0  0  0  0  0  0  0  0  0
    7.3659  -13.1110   24.4273 C   0  0  0  0  0  0  0  0  0  0  0  0
    7.2097  -14.2455   23.4649 C   0  0  0  0  0  0  0  0  0  0  0  0
    8.5190  -14.6937   22.9231 C   0  0  2  0  0  0  0  0  0  0  0  0
    8.3110  -15.8648   22.0500 N   0  0  0  0  0  0  0  0  0  0  0  0
    9.4146  -15.1581   23.9972 C   0  0  0  0  0  0  0  0  0  0  0  0
    9.6671  -14.4220   25.0189 O   0  0  0  0  0  0  0  0  0  0  0  0
   10.6237  -13.9151   30.6990 O   0  0  0  0  0  0  0  0  0  0  0  0
   10.3876  -14.7227   29.6034 C   0  0  0  0  0  0  0  0  0  0  0  0
   10.0632  -14.1032   28.4125 C   0  0  0  0  0  0  0  0  0  0  0  0
    9.8275  -14.8805   27.3239 C   0  0  0  0  0  0  0  0  0  0  0  0
    9.9131  -16.2621   27.4169 C   0  0  0  0  0  0  0  0  0  0  0  0
    9.6354  -17.0499   26.2206 C   0  0  0  0  0  0  0  0  0  0  0  0
   10.7437  -16.8906   25.1700 C   0  0  2  0  0  0  0  0  0  0  0  0
   10.0407  -16.4262   23.9817 N   0  0  0  0  0  0  0  0  0  0  0  0
   11.4169  -18.1778   24.9771 C   0  0  0  0  0  0  0  0  0  0  0  0
   11.0826  -19.0015   24.1087 O   0  0  0  0  0  0  0  0  0  0  0  0
   10.2355  -16.8738   28.6019 C   0  0  0  0  0  0  0  0  0  0  0  0
   10.4736  -16.0846   29.7017 C   0  0  0  0  0  0  0  0  0  0  0  0
   12.4839  -18.5147   25.7937 O   0  0  0  0  0  0  0  0  0  0  0  0
  2  3  1  0
  2  1  1  6
  4  3  1  0
  4  5  1  0
  5  6  1  0
  6  7  1  0
  8  2  1  0
  9  8  2  0
 10 11  1  0
 12 13  1  0
 12 11  1  0
 14 13  1  1
 14 15  1  0
 15  8  1  0
 16 17  2  0
 16 14  1  0
 19 18  1  0
 20 19  2  0
 21 20  1  0
 22 21  2  0
 22 28  1  0
 24 23  1  1
 23 22  1  0
 24 25  1  0
 25 16  1  0
 26 24  1  0
 27 26  2  0
 28 29  2  0
 29 19  1  0
 30 26  1  0
M  END
$$$$
