KMY.pdb
     RDKit          3D

 30 30  0  0  1  0  0  0  0  0999 V2000
    7.8245  -18.1677   19.9567 N   0  0  0  0  0  0  0  0  0  0  0  0
    9.0643  -17.5597   19.6967 C   0  0  1  0  0  0  0  0  0  0  0  0
    9.3447  -17.0731   18.3173 C   0  0  0  0  0  0  0  0  0  0  0  0
    8.2164  -16.9501   17.3779 C   0  0  0  0  0  0  0  0  0  0  0  0
    8.4827  -16.4647   15.9990 C   0  0  0  0  0  0  0  0  0  0  0  0
    7.2449  -16.2061   15.1898 C   0  0  0  0  0  0  0  0  0  0  0  0
    6.3552  -17.3033   15.0623 N   0  0  0  0  0  0  0  0  0  0  0  0
    9.3477  -16.4691   20.6811 C   0  0  0  0  0  0  0  0  0  0  0  0
   10.4538  -15.8475   20.6262 O   0  0  0  0  0  0  0  0  0  0  0  0
    6.6623  -11.4149   26.0926 C   0  0  0  0  0  0  0  0  0  0  0  0
    6.2434  -12.6517   24.8407 S   0  0  0  0  0  0  0  0  0  0  0  0
    7.8093  -13.3497   24.1938 C   0  0  0  0  0  0  0  0  0  0  0  0
    7.5376  -14.4075   23.1715 C   0  0  0  0  0  0  0  0  0  0  0  0
    8.7936  -15.0103   22.6541 C   0  0  2  0  0  0  0  0  0  0  0  0
    8.4622  -16.0729   21.6854 N   0  0  0  0  0  0  0  0  0  0  0  0
    9.5509  -15.6786   23.7270 C   0  0  0  0  0  0  0  0  0  0  0  0
    9.0661  -16.6885   24.3551 O   0  0  0  0  0  0  0  0  0  0  0  0
   11.1521  -16.5803   31.6546 O   0  0  0  0  0  0  0  0  0  0  0  0
   10.9001  -16.2016   30.3502 C   0  0  0  0  0  0  0  0  0  0  0  0
   10.5602  -17.1943   29.4523 C   0  0  0  0  0  0  0  0  0  0  0  0
   10.3087  -16.8416   28.1650 C   0  0  0  0  0  0  0  0  0  0  0  0
   10.3939  -15.5137   27.7723 C   0  0  0  0  0  0  0  0  0  0  0  0
   10.1282  -15.1922   26.3741 C   0  0  0  0  0  0  0  0  0  0  0  0
   11.3087  -15.5792   25.4718 C   0  0  2  0  0  0  0  0  0  0  0  0
   10.8434  -15.2668   24.1271 N   0  0  0  0  0  0  0  0  0  0  0  0
   11.6180  -16.9990   25.6610 C   0  0  0  0  0  0  0  0  0  0  0  0
   10.8545  -17.9174   25.3173 O   0  0  0  0  0  0  0  0  0  0  0  0
   10.7319  -14.5304   28.6673 C   0  0  0  0  0  0  0  0  0  0  0  0
   10.9858  -14.8904   29.9693 C   0  0  0  0  0  0  0  0  0  0  0  0
   12.8182  -17.3593   26.2513 O   0  0  0  0  0  0  0  0  0  0  0  0
  2  3  1  0
  2  1  1  6
  4  3  1  0
  4  5  1  0
  5  6  1  0
  6  7  1  0
  8  2  1  0
  9  8  2  0
 10 11  1  0
 12 13  1  0
 12 11  1  0
 14 13  1  1
 14 15  1  0
 15  8  1  0
 16 17  2  0
 16 14  1  0
 19 18  1  0
 20 19  2  0
 21 20  1  0
 22 21  2  0
 22 28  1  0
 24 23  1  1
 23 22  1  0
 24 25  1  0
 25 16  1  0
 26 24  1  0
 27 26  2  0
 28 29  2  0
 29 19  1  0
 30 26  1  0
M  END
$$$$
