KMY.pdb
     RDKit          3D

 30 30  0  0  1  0  0  0  0  0999 V2000
    7.1810  -13.8783   18.4644 N   0  0  0  0  0  0  0  0  0  0  0  0
    7.7271  -14.9370   19.2097 C   0  0  1  0  0  0  0  0  0  0  0  0
    8.8423  -15.7259   18.6163 C   0  0  0  0  0  0  0  0  0  0  0  0
    8.5226  -16.6980   17.5563 C   0  0  0  0  0  0  0  0  0  0  0  0
    9.6277  -17.4831   16.9480 C   0  0  0  0  0  0  0  0  0  0  0  0
    9.2001  -18.3658   15.8115 C   0  0  0  0  0  0  0  0  0  0  0  0
   10.2486  -19.0173   15.1129 N   0  0  0  0  0  0  0  0  0  0  0  0
    8.1059  -14.4892   20.5862 C   0  0  0  0  0  0  0  0  0  0  0  0
    8.6429  -13.3500   20.7488 O   0  0  0  0  0  0  0  0  0  0  0  0
    7.2898  -12.0615   27.1951 C   0  0  0  0  0  0  0  0  0  0  0  0
    6.9854  -12.4719   25.4597 S   0  0  0  0  0  0  0  0  0  0  0  0
    7.1093  -14.2914   25.2820 C   0  0  0  0  0  0  0  0  0  0  0  0
    6.8923  -14.7027   23.8603 C   0  0  0  0  0  0  0  0  0  0  0  0
    8.1635  -14.7193   23.0905 C   0  0  2  0  0  0  0  0  0  0  0  0
    7.9086  -15.2527   21.7386 N   0  0  0  0  0  0  0  0  0  0  0  0
    9.1465  -15.6351   23.6957 C   0  0  0  0  0  0  0  0  0  0  0  0
    8.9378  -16.9015   23.7405 O   0  0  0  0  0  0  0  0  0  0  0  0
   10.9093  -14.3479   31.0059 O   0  0  0  0  0  0  0  0  0  0  0  0
   10.7527  -14.9710   29.7829 C   0  0  0  0  0  0  0  0  0  0  0  0
   10.4187  -14.1792   28.7018 C   0  0  0  0  0  0  0  0  0  0  0  0
   10.2603  -14.7737   27.4909 C   0  0  0  0  0  0  0  0  0  0  0  0
   10.4322  -16.1436   27.3544 C   0  0  0  0  0  0  0  0  0  0  0  0
   10.2353  -16.7326   26.0341 C   0  0  0  0  0  0  0  0  0  0  0  0
   11.1961  -16.1308   24.9986 C   0  0  2  0  0  0  0  0  0  0  0  0
   10.3690  -15.1922   24.2521 N   0  0  0  0  0  0  0  0  0  0  0  0
   11.7462  -17.2044   24.1668 C   0  0  0  0  0  0  0  0  0  0  0  0
   12.5467  -18.0558   24.5897 O   0  0  0  0  0  0  0  0  0  0  0  0
   10.7639  -16.9268   28.4309 C   0  0  0  0  0  0  0  0  0  0  0  0
   10.9235  -16.3224   29.6550 C   0  0  0  0  0  0  0  0  0  0  0  0
   11.3681  -17.2944   22.8372 O   0  0  0  0  0  0  0  0  0  0  0  0
  2  3  1  0
  2  1  1  6
  4  3  1  0
  4  5  1  0
  5  6  1  0
  6  7  1  0
  8  2  1  0
  9  8  2  0
 10 11  1  0
 12 13  1  0
 12 11  1  0
 14 13  1  1
 14 15  1  0
 15  8  1  0
 16 17  2  0
 16 14  1  0
 19 18  1  0
 20 19  2  0
 21 20  1  0
 22 21  2  0
 22 28  1  0
 24 23  1  1
 23 22  1  0
 24 25  1  0
 25 16  1  0
 26 24  1  0
 27 26  2  0
 28 29  2  0
 29 19  1  0
 30 26  1  0
M  END
$$$$
