KMY.pdb
     RDKit          3D

 30 30  0  0  1  0  0  0  0  0999 V2000
    8.0654  -16.3096   19.0494 N   0  0  0  0  0  0  0  0  0  0  0  0
    9.1935  -15.4724   19.0799 C   0  0  1  0  0  0  0  0  0  0  0  0
    9.3537  -14.4522   18.0065 C   0  0  0  0  0  0  0  0  0  0  0  0
    8.8158  -14.7562   16.6690 C   0  0  0  0  0  0  0  0  0  0  0  0
    7.7507  -13.8836   16.1105 C   0  0  0  0  0  0  0  0  0  0  0  0
    7.1844  -14.3649   14.8061 C   0  0  0  0  0  0  0  0  0  0  0  0
    8.1358  -14.7947   13.8459 N   0  0  0  0  0  0  0  0  0  0  0  0
    9.3465  -14.8211   20.4182 C   0  0  0  0  0  0  0  0  0  0  0  0
   10.3543  -14.0822   20.6438 O   0  0  0  0  0  0  0  0  0  0  0  0
    6.2169  -11.5994   26.7581 C   0  0  0  0  0  0  0  0  0  0  0  0
    5.9128  -12.6620   25.3260 S   0  0  0  0  0  0  0  0  0  0  0  0
    7.5350  -13.0926   24.5907 C   0  0  0  0  0  0  0  0  0  0  0  0
    7.3564  -13.9086   23.3498 C   0  0  0  0  0  0  0  0  0  0  0  0
    8.6589  -14.3590   22.7934 C   0  0  2  0  0  0  0  0  0  0  0  0
    8.4386  -14.9703   21.4687 N   0  0  0  0  0  0  0  0  0  0  0  0
    9.2590  -15.4201   23.6212 C   0  0  0  0  0  0  0  0  0  0  0  0
   10.4817  -15.7790   23.4606 O   0  0  0  0  0  0  0  0  0  0  0  0
   11.9884  -16.6924   31.4401 O   0  0  0  0  0  0  0  0  0  0  0  0
   11.5067  -16.4104   30.1764 C   0  0  0  0  0  0  0  0  0  0  0  0
   10.5854  -15.3883   30.0586 C   0  0  0  0  0  0  0  0  0  0  0  0
   10.1002  -15.0960   28.8241 C   0  0  0  0  0  0  0  0  0  0  0  0
   10.5262  -15.8129   27.7154 C   0  0  0  0  0  0  0  0  0  0  0  0
    9.9615  -15.4673   26.4152 C   0  0  0  0  0  0  0  0  0  0  0  0
    9.2747  -16.6738   25.7593 C   0  0  2  0  0  0  0  0  0  0  0  0
    8.5460  -16.0989   24.6365 N   0  0  0  0  0  0  0  0  0  0  0  0
    8.4038  -17.3275   26.7397 C   0  0  0  0  0  0  0  0  0  0  0  0
    8.7606  -18.2934   27.4356 O   0  0  0  0  0  0  0  0  0  0  0  0
   11.4415  -16.8277   27.8366 C   0  0  0  0  0  0  0  0  0  0  0  0
   11.9308  -17.1211   29.0870 C   0  0  0  0  0  0  0  0  0  0  0  0
    7.1115  -16.8610   26.9171 O   0  0  0  0  0  0  0  0  0  0  0  0
  2  3  1  0
  2  1  1  1
  4  3  1  0
  4  5  1  0
  5  6  1  0
  6  7  1  0
  8  2  1  0
  9  8  2  0
 10 11  1  0
 12 13  1  0
 12 11  1  0
 14 13  1  1
 14 15  1  0
 15  8  1  0
 16 17  2  0
 16 14  1  0
 19 18  1  0
 20 19  2  0
 21 20  1  0
 22 21  2  0
 22 28  1  0
 24 23  1  1
 23 22  1  0
 24 25  1  0
 25 16  1  0
 26 24  1  0
 27 26  2  0
 28 29  2  0
 29 19  1  0
 30 26  1  0
M  END
$$$$
