KMY.pdb
     RDKit          3D

 30 30  0  0  1  0  0  0  0  0999 V2000
    8.8337  -19.6535   21.4776 N   0  0  0  0  0  0  0  0  0  0  0  0
   10.0290  -19.1381   20.9485 C   0  0  1  0  0  0  0  0  0  0  0  0
   10.2469  -19.2102   19.4768 C   0  0  0  0  0  0  0  0  0  0  0  0
    9.2259  -19.8797   18.6522 C   0  0  0  0  0  0  0  0  0  0  0  0
    8.1408  -19.0611   18.0521 C   0  0  0  0  0  0  0  0  0  0  0  0
    7.2138  -19.8319   17.1576 C   0  0  0  0  0  0  0  0  0  0  0  0
    6.0973  -19.1101   16.6634 N   0  0  0  0  0  0  0  0  0  0  0  0
   10.2716  -17.7404   21.4240 C   0  0  0  0  0  0  0  0  0  0  0  0
   11.2963  -17.1096   21.0182 O   0  0  0  0  0  0  0  0  0  0  0  0
    7.4678  -11.9966   19.5105 C   0  0  0  0  0  0  0  0  0  0  0  0
    7.3451  -12.7653   21.1434 S   0  0  0  0  0  0  0  0  0  0  0  0
    8.4867  -14.1982   21.1776 C   0  0  0  0  0  0  0  0  0  0  0  0
    8.4867  -14.8458   22.5261 C   0  0  0  0  0  0  0  0  0  0  0  0
    9.7021  -15.6739   22.7404 C   0  0  2  0  0  0  0  0  0  0  0  0
    9.4321  -17.0583   22.3071 N   0  0  0  0  0  0  0  0  0  0  0  0
   10.0424  -15.7689   24.1710 C   0  0  0  0  0  0  0  0  0  0  0  0
   10.9795  -15.0544   24.6817 O   0  0  0  0  0  0  0  0  0  0  0  0
    6.2763  -11.4467   26.2930 O   0  0  0  0  0  0  0  0  0  0  0  0
    6.8535  -12.6763   26.5451 C   0  0  0  0  0  0  0  0  0  0  0  0
    6.2265  -13.7930   26.0285 C   0  0  0  0  0  0  0  0  0  0  0  0
    6.7789  -15.0110   26.2657 C   0  0  0  0  0  0  0  0  0  0  0  0
    7.9447  -15.1193   27.0099 C   0  0  0  0  0  0  0  0  0  0  0  0
    8.4869  -16.4529   27.2472 C   0  0  0  0  0  0  0  0  0  0  0  0
    9.7856  -16.6823   26.4608 C   0  0  2  0  0  0  0  0  0  0  0  0
    9.3682  -16.6318   25.0660 N   0  0  0  0  0  0  0  0  0  0  0  0
   10.3629  -17.9732   26.8449 C   0  0  0  0  0  0  0  0  0  0  0  0
   10.7086  -18.2500   28.0061 O   0  0  0  0  0  0  0  0  0  0  0  0
    8.5646  -14.0075   27.5216 C   0  0  0  0  0  0  0  0  0  0  0  0
    8.0033  -12.7763   27.2798 C   0  0  0  0  0  0  0  0  0  0  0  0
   10.5413  -18.9509   25.8799 O   0  0  0  0  0  0  0  0  0  0  0  0
  2  3  1  0
  2  1  1  6
  4  3  1  0
  4  5  1  0
  5  6  1  0
  6  7  1  0
  8  2  1  0
  9  8  2  0
 10 11  1  0
 12 13  1  0
 12 11  1  0
 14 13  1  1
 14 15  1  0
 15  8  1  0
 16 17  2  0
 16 14  1  0
 19 18  1  0
 20 19  2  0
 21 20  1  0
 22 21  2  0
 22 28  1  0
 24 23  1  1
 23 22  1  0
 24 25  1  0
 25 16  1  0
 26 24  1  0
 27 26  2  0
 28 29  2  0
 29 19  1  0
 30 26  1  0
M  END
$$$$
