KMY.pdb
     RDKit          3D

 30 30  0  0  1  0  0  0  0  0999 V2000
    7.0085  -16.6962   20.7017 N   0  0  0  0  0  0  0  0  0  0  0  0
    7.9507  -15.6975   20.4031 C   0  0  1  0  0  0  0  0  0  0  0  0
    7.5741  -14.6274   19.4380 C   0  0  0  0  0  0  0  0  0  0  0  0
    8.1921  -14.6448   18.1007 C   0  0  0  0  0  0  0  0  0  0  0  0
    7.7903  -13.6101   17.1129 C   0  0  0  0  0  0  0  0  0  0  0  0
    8.5314  -13.6853   15.8096 C   0  0  0  0  0  0  0  0  0  0  0  0
    8.1412  -12.7400   14.8268 N   0  0  0  0  0  0  0  0  0  0  0  0
    8.4953  -15.0784   21.6516 C   0  0  0  0  0  0  0  0  0  0  0  0
    9.4382  -14.2315   21.5712 O   0  0  0  0  0  0  0  0  0  0  0  0
    5.5641  -11.7242   27.1161 C   0  0  0  0  0  0  0  0  0  0  0  0
    6.9609  -12.2485   26.0931 S   0  0  0  0  0  0  0  0  0  0  0  0
    6.4477  -13.7416   25.1632 C   0  0  0  0  0  0  0  0  0  0  0  0
    7.5077  -14.7955   25.2229 C   0  0  0  0  0  0  0  0  0  0  0  0
    8.5016  -14.6410   24.1288 C   0  0  2  0  0  0  0  0  0  0  0  0
    8.0321  -15.3715   22.9359 N   0  0  0  0  0  0  0  0  0  0  0  0
    9.7923  -15.2567   24.4842 C   0  0  0  0  0  0  0  0  0  0  0  0
   10.7863  -14.5426   24.8736 O   0  0  0  0  0  0  0  0  0  0  0  0
   10.9702  -14.3573   30.3018 O   0  0  0  0  0  0  0  0  0  0  0  0
   10.9908  -15.2440   29.2427 C   0  0  0  0  0  0  0  0  0  0  0  0
   12.2233  -15.6925   28.8103 C   0  0  0  0  0  0  0  0  0  0  0  0
   12.2640  -16.5649   27.7700 C   0  0  0  0  0  0  0  0  0  0  0  0
   11.0903  -16.9886   27.1638 C   0  0  0  0  0  0  0  0  0  0  0  0
   11.1924  -17.9145   26.0409 C   0  0  0  0  0  0  0  0  0  0  0  0
   11.3526  -17.1697   24.7078 C   0  0  2  0  0  0  0  0  0  0  0  0
   10.0198  -16.6515   24.4297 N   0  0  0  0  0  0  0  0  0  0  0  0
   11.8345  -18.1030   23.6862 C   0  0  0  0  0  0  0  0  0  0  0  0
   11.1803  -18.4078   22.6744 O   0  0  0  0  0  0  0  0  0  0  0  0
    9.8677  -16.5406   27.5962 C   0  0  0  0  0  0  0  0  0  0  0  0
    9.8297  -15.6580   28.6491 C   0  0  0  0  0  0  0  0  0  0  0  0
   13.0814  -18.6878   23.8353 O   0  0  0  0  0  0  0  0  0  0  0  0
  2  3  1  0
  2  1  1  1
  4  3  1  0
  4  5  1  0
  5  6  1  0
  6  7  1  0
  8  2  1  0
  9  8  2  0
 10 11  1  0
 12 13  1  0
 12 11  1  0
 14 13  1  1
 14 15  1  0
 15  8  1  0
 16 17  2  0
 16 14  1  0
 19 18  1  0
 20 19  2  0
 21 20  1  0
 22 21  2  0
 22 28  1  0
 24 23  1  1
 23 22  1  0
 24 25  1  0
 25 16  1  0
 26 24  1  0
 27 26  2  0
 28 29  2  0
 29 19  1  0
 30 26  1  0
M  END
$$$$
