KMY.pdb
     RDKit          3D

 30 30  0  0  1  0  0  0  0  0999 V2000
    7.9696  -16.5222   19.5530 N   0  0  0  0  0  0  0  0  0  0  0  0
    8.8420  -15.4220   19.4988 C   0  0  1  0  0  0  0  0  0  0  0  0
    8.6276  -14.3932   18.4434 C   0  0  0  0  0  0  0  0  0  0  0  0
    7.9988  -14.8116   17.1785 C   0  0  0  0  0  0  0  0  0  0  0  0
    7.7935  -13.7981   16.1115 C   0  0  0  0  0  0  0  0  0  0  0  0
    7.2022  -14.3497   14.8467 C   0  0  0  0  0  0  0  0  0  0  0  0
    7.0100  -13.4123   13.7998 N   0  0  0  0  0  0  0  0  0  0  0  0
    8.9544  -14.7558   20.8338 C   0  0  0  0  0  0  0  0  0  0  0  0
    9.5490  -13.6377   20.9279 O   0  0  0  0  0  0  0  0  0  0  0  0
    7.2199  -11.5386   26.2976 C   0  0  0  0  0  0  0  0  0  0  0  0
    5.9672  -12.4414   25.3552 S   0  0  0  0  0  0  0  0  0  0  0  0
    6.7370  -13.0025   23.7899 C   0  0  0  0  0  0  0  0  0  0  0  0
    7.2158  -14.4147   23.9093 C   0  0  0  0  0  0  0  0  0  0  0  0
    8.5659  -14.5918   23.3137 C   0  0  2  0  0  0  0  0  0  0  0  0
    8.4406  -15.2873   22.0185 N   0  0  0  0  0  0  0  0  0  0  0  0
    9.4114  -15.4636   24.1482 C   0  0  0  0  0  0  0  0  0  0  0  0
    9.4012  -16.7395   24.0018 O   0  0  0  0  0  0  0  0  0  0  0  0
   12.2619  -17.6235   32.0271 O   0  0  0  0  0  0  0  0  0  0  0  0
   12.0583  -16.9754   30.8242 C   0  0  0  0  0  0  0  0  0  0  0  0
   11.1941  -15.8982   30.8184 C   0  0  0  0  0  0  0  0  0  0  0  0
   10.9811  -15.2480   29.6451 C   0  0  0  0  0  0  0  0  0  0  0  0
   11.6211  -15.6640   28.4866 C   0  0  0  0  0  0  0  0  0  0  0  0
   11.3447  -14.9392   27.2509 C   0  0  0  0  0  0  0  0  0  0  0  0
   10.8027  -15.8721   26.1584 C   0  0  2  0  0  0  0  0  0  0  0  0
   10.2826  -14.9648   25.1444 N   0  0  0  0  0  0  0  0  0  0  0  0
    9.7764  -16.7460   26.7331 C   0  0  0  0  0  0  0  0  0  0  0  0
    8.6131  -16.3750   26.9646 O   0  0  0  0  0  0  0  0  0  0  0  0
   12.4788  -16.7347   28.4964 C   0  0  0  0  0  0  0  0  0  0  0  0
   12.6925  -17.3906   29.6853 C   0  0  0  0  0  0  0  0  0  0  0  0
   10.0972  -18.0577   27.0419 O   0  0  0  0  0  0  0  0  0  0  0  0
  2  3  1  0
  2  1  1  1
  4  3  1  0
  4  5  1  0
  5  6  1  0
  6  7  1  0
  8  2  1  0
  9  8  2  0
 10 11  1  0
 12 13  1  0
 12 11  1  0
 14 13  1  1
 14 15  1  0
 15  8  1  0
 16 17  2  0
 16 14  1  0
 19 18  1  0
 20 19  2  0
 21 20  1  0
 22 21  2  0
 22 28  1  0
 24 23  1  1
 23 22  1  0
 24 25  1  0
 25 16  1  0
 26 24  1  0
 27 26  2  0
 28 29  2  0
 29 19  1  0
 30 26  1  0
M  END
$$$$
