KMY.pdb
     RDKit          3D

 30 30  0  0  1  0  0  0  0  0999 V2000
    7.4100  -19.3359   18.4641 N   0  0  0  0  0  0  0  0  0  0  0  0
    6.7368  -18.6249   19.4719 C   0  0  1  0  0  0  0  0  0  0  0  0
    5.8682  -19.3792   20.4180 C   0  0  0  0  0  0  0  0  0  0  0  0
    5.3042  -20.6655   19.9733 C   0  0  0  0  0  0  0  0  0  0  0  0
    5.0339  -21.7174   20.9874 C   0  0  0  0  0  0  0  0  0  0  0  0
    4.4963  -22.9972   20.4157 C   0  0  0  0  0  0  0  0  0  0  0  0
    4.2668  -24.0381   21.3514 N   0  0  0  0  0  0  0  0  0  0  0  0
    7.6802  -17.7550   20.2412 C   0  0  0  0  0  0  0  0  0  0  0  0
    8.8201  -18.2063   20.5722 O   0  0  0  0  0  0  0  0  0  0  0  0
    7.6792  -11.2304   21.3003 C   0  0  0  0  0  0  0  0  0  0  0  0
    7.8256  -11.9647   19.6535 S   0  0  0  0  0  0  0  0  0  0  0  0
    8.3151  -13.7182   19.8612 C   0  0  0  0  0  0  0  0  0  0  0  0
    8.0140  -14.1936   21.2472 C   0  0  0  0  0  0  0  0  0  0  0  0
    8.3407  -15.6332   21.4199 C   0  0  2  0  0  0  0  0  0  0  0  0
    7.3923  -16.4465   20.6351 N   0  0  0  0  0  0  0  0  0  0  0  0
    8.1620  -16.0609   22.8186 C   0  0  0  0  0  0  0  0  0  0  0  0
    7.0063  -16.3898   23.2721 O   0  0  0  0  0  0  0  0  0  0  0  0
    7.7748  -21.4216   29.1177 O   0  0  0  0  0  0  0  0  0  0  0  0
    7.9803  -20.6174   28.0134 C   0  0  0  0  0  0  0  0  0  0  0  0
    6.8725  -20.0220   27.4430 C   0  0  0  0  0  0  0  0  0  0  0  0
    7.0543  -19.2276   26.3564 C   0  0  0  0  0  0  0  0  0  0  0  0
    8.3261  -19.0260   25.8401 C   0  0  0  0  0  0  0  0  0  0  0  0
    8.4628  -18.1754   24.6625 C   0  0  0  0  0  0  0  0  0  0  0  0
    9.0171  -16.7908   25.0276 C   0  0  2  0  0  0  0  0  0  0  0  0
    9.2319  -16.1449   23.7396 N   0  0  0  0  0  0  0  0  0  0  0  0
   10.2481  -16.9517   25.8059 C   0  0  0  0  0  0  0  0  0  0  0  0
   11.3757  -17.0447   25.2916 O   0  0  0  0  0  0  0  0  0  0  0  0
    9.4243  -19.6195   26.4095 C   0  0  0  0  0  0  0  0  0  0  0  0
    9.2371  -20.4227   27.5090 C   0  0  0  0  0  0  0  0  0  0  0  0
   10.1751  -17.0051   27.1882 O   0  0  0  0  0  0  0  0  0  0  0  0
  2  3  1  0
  2  1  1  1
  4  3  1  0
  4  5  1  0
  5  6  1  0
  6  7  1  0
  8  2  1  0
  9  8  2  0
 10 11  1  0
 12 13  1  0
 12 11  1  0
 14 13  1  1
 14 15  1  0
 15  8  1  0
 16 17  2  0
 16 14  1  0
 19 18  1  0
 20 19  2  0
 21 20  1  0
 22 21  2  0
 22 28  1  0
 24 23  1  6
 23 22  1  0
 24 25  1  0
 25 16  1  0
 26 24  1  0
 27 26  2  0
 28 29  2  0
 29 19  1  0
 30 26  1  0
M  END
$$$$
