KMY.pdb
     RDKit          3D

 30 30  0  0  1  0  0  0  0  0999 V2000
    7.2353  -18.9932   18.5733 N   0  0  0  0  0  0  0  0  0  0  0  0
    7.9856  -19.2493   19.7334 C   0  0  1  0  0  0  0  0  0  0  0  0
    8.6015  -20.5950   19.9016 C   0  0  0  0  0  0  0  0  0  0  0  0
    8.1731  -21.6765   18.9976 C   0  0  0  0  0  0  0  0  0  0  0  0
    8.7807  -23.0234   19.1544 C   0  0  0  0  0  0  0  0  0  0  0  0
    8.3807  -24.0046   18.0909 C   0  0  0  0  0  0  0  0  0  0  0  0
    8.7601  -23.6632   16.7676 N   0  0  0  0  0  0  0  0  0  0  0  0
    9.0220  -18.1923   19.9505 C   0  0  0  0  0  0  0  0  0  0  0  0
   10.0516  -18.1623   19.2078 O   0  0  0  0  0  0  0  0  0  0  0  0
    6.1465  -12.4740   22.0294 C   0  0  0  0  0  0  0  0  0  0  0  0
    7.5950  -12.8433   21.0107 S   0  0  0  0  0  0  0  0  0  0  0  0
    8.2561  -14.4680   21.5411 C   0  0  0  0  0  0  0  0  0  0  0  0
    9.4408  -14.8555   20.7141 C   0  0  0  0  0  0  0  0  0  0  0  0
    9.9835  -16.1800   21.1142 C   0  0  2  0  0  0  0  0  0  0  0  0
    8.9402  -17.2084   20.9381 N   0  0  0  0  0  0  0  0  0  0  0  0
   10.3271  -16.2097   22.5468 C   0  0  0  0  0  0  0  0  0  0  0  0
    9.6204  -16.8753   23.3877 O   0  0  0  0  0  0  0  0  0  0  0  0
   10.5727  -15.0580   30.6842 O   0  0  0  0  0  0  0  0  0  0  0  0
   10.5103  -15.2031   29.3119 C   0  0  0  0  0  0  0  0  0  0  0  0
   10.5014  -14.0523   28.5486 C   0  0  0  0  0  0  0  0  0  0  0  0
   10.4405  -14.1746   27.1972 C   0  0  0  0  0  0  0  0  0  0  0  0
   10.3888  -15.4297   26.6083 C   0  0  0  0  0  0  0  0  0  0  0  0
   10.3092  -15.5032   25.1533 C   0  0  0  0  0  0  0  0  0  0  0  0
   11.7028  -15.5981   24.5158 C   0  0  2  0  0  0  0  0  0  0  0  0
   11.4426  -15.5264   23.0842 N   0  0  0  0  0  0  0  0  0  0  0  0
   12.3385  -16.8531   24.9256 C   0  0  0  0  0  0  0  0  0  0  0  0
   11.9320  -17.9732   24.5726 O   0  0  0  0  0  0  0  0  0  0  0  0
   10.3977  -16.5707   27.3701 C   0  0  0  0  0  0  0  0  0  0  0  0
   10.4595  -16.4437   28.7373 C   0  0  0  0  0  0  0  0  0  0  0  0
   13.4519  -16.8128   25.7487 O   0  0  0  0  0  0  0  0  0  0  0  0
  2  3  1  0
  2  1  1  6
  4  3  1  0
  4  5  1  0
  5  6  1  0
  6  7  1  0
  8  2  1  0
  9  8  2  0
 10 11  1  0
 12 13  1  0
 12 11  1  0
 14 13  1  1
 14 15  1  0
 15  8  1  0
 16 17  2  0
 16 14  1  0
 19 18  1  0
 20 19  2  0
 21 20  1  0
 22 21  2  0
 22 28  1  0
 24 23  1  1
 23 22  1  0
 24 25  1  0
 25 16  1  0
 26 24  1  0
 27 26  2  0
 28 29  2  0
 29 19  1  0
 30 26  1  0
M  END
$$$$
