KMY.pdb
     RDKit          3D

 30 30  0  0  1  0  0  0  0  0999 V2000
    7.4948  -16.3620   19.4167 N   0  0  0  0  0  0  0  0  0  0  0  0
    7.9620  -15.0394   19.3344 C   0  0  1  0  0  0  0  0  0  0  0  0
    7.0956  -14.0161   18.6859 C   0  0  0  0  0  0  0  0  0  0  0  0
    7.4373  -13.5753   17.3222 C   0  0  0  0  0  0  0  0  0  0  0  0
    6.9463  -14.3722   16.1682 C   0  0  0  0  0  0  0  0  0  0  0  0
    7.4687  -13.9121   14.8381 C   0  0  0  0  0  0  0  0  0  0  0  0
    7.0249  -14.6554   13.7146 N   0  0  0  0  0  0  0  0  0  0  0  0
    8.4120  -14.5415   20.6717 C   0  0  0  0  0  0  0  0  0  0  0  0
    9.1858  -13.5368   20.7382 O   0  0  0  0  0  0  0  0  0  0  0  0
    6.7660  -11.7790   27.4107 C   0  0  0  0  0  0  0  0  0  0  0  0
    6.2613  -12.4865   25.8241 S   0  0  0  0  0  0  0  0  0  0  0  0
    7.5064  -13.7434   25.3473 C   0  0  0  0  0  0  0  0  0  0  0  0
    7.1869  -14.3266   24.0073 C   0  0  0  0  0  0  0  0  0  0  0  0
    8.4100  -14.5275   23.1872 C   0  0  2  0  0  0  0  0  0  0  0  0
    8.0349  -15.1161   21.8873 N   0  0  0  0  0  0  0  0  0  0  0  0
    9.3220  -15.5019   23.8117 C   0  0  0  0  0  0  0  0  0  0  0  0
    9.0640  -16.7600   23.7970 O   0  0  0  0  0  0  0  0  0  0  0  0
   11.6784  -17.2793   31.7014 O   0  0  0  0  0  0  0  0  0  0  0  0
   11.5684  -16.7079   30.4485 C   0  0  0  0  0  0  0  0  0  0  0  0
   10.8351  -15.5426   30.3412 C   0  0  0  0  0  0  0  0  0  0  0  0
   10.7155  -14.9657   29.1174 C   0  0  0  0  0  0  0  0  0  0  0  0
   11.3193  -15.5413   28.0088 C   0  0  0  0  0  0  0  0  0  0  0  0
   11.1464  -14.8882   26.7156 C   0  0  0  0  0  0  0  0  0  0  0  0
   11.0100  -15.9123   25.5797 C   0  0  2  0  0  0  0  0  0  0  0  0
   10.5261  -15.1274   24.4519 N   0  0  0  0  0  0  0  0  0  0  0  0
   10.0811  -16.9690   25.9892 C   0  0  0  0  0  0  0  0  0  0  0  0
    8.8673  -16.7787   26.1758 O   0  0  0  0  0  0  0  0  0  0  0  0
   12.0469  -16.6991   28.1195 C   0  0  0  0  0  0  0  0  0  0  0  0
   12.1662  -17.2805   29.3592 C   0  0  0  0  0  0  0  0  0  0  0  0
   10.5589  -18.2546   26.1839 O   0  0  0  0  0  0  0  0  0  0  0  0
  2  3  1  0
  2  1  1  1
  4  3  1  0
  4  5  1  0
  5  6  1  0
  6  7  1  0
  8  2  1  0
  9  8  2  0
 10 11  1  0
 12 13  1  0
 12 11  1  0
 14 13  1  1
 14 15  1  0
 15  8  1  0
 16 17  2  0
 16 14  1  0
 19 18  1  0
 20 19  2  0
 21 20  1  0
 22 21  2  0
 22 28  1  0
 24 23  1  1
 23 22  1  0
 24 25  1  0
 25 16  1  0
 26 24  1  0
 27 26  2  0
 28 29  2  0
 29 19  1  0
 30 26  1  0
M  END
$$$$
