KMY.pdb
     RDKit          3D

 30 30  0  0  1  0  0  0  0  0999 V2000
    8.7672  -16.7715   19.7197 N   0  0  0  0  0  0  0  0  0  0  0  0
    8.3283  -16.9945   21.0357 C   0  0  1  0  0  0  0  0  0  0  0  0
    8.7729  -18.2318   21.7357 C   0  0  0  0  0  0  0  0  0  0  0  0
    8.7779  -19.4971   20.9810 C   0  0  0  0  0  0  0  0  0  0  0  0
    9.2603  -20.7305   21.6547 C   0  0  0  0  0  0  0  0  0  0  0  0
    9.2518  -21.9506   20.7801 C   0  0  0  0  0  0  0  0  0  0  0  0
    9.7964  -23.1247   21.3604 N   0  0  0  0  0  0  0  0  0  0  0  0
    8.5940  -15.8043   21.9026 C   0  0  0  0  0  0  0  0  0  0  0  0
    9.6006  -15.0678   21.6641 O   0  0  0  0  0  0  0  0  0  0  0  0
    5.5403  -10.3622   26.5400 C   0  0  0  0  0  0  0  0  0  0  0  0
    5.5204  -12.1383   26.1971 S   0  0  0  0  0  0  0  0  0  0  0  0
    7.0521  -12.5510   25.2798 C   0  0  0  0  0  0  0  0  0  0  0  0
    6.8132  -13.6788   24.3265 C   0  0  0  0  0  0  0  0  0  0  0  0
    8.0870  -14.2422   23.8080 C   0  0  2  0  0  0  0  0  0  0  0  0
    7.7956  -15.4326   22.9863 N   0  0  0  0  0  0  0  0  0  0  0  0
    8.9480  -14.7217   24.9035 C   0  0  0  0  0  0  0  0  0  0  0  0
    8.7211  -14.3897   26.1232 O   0  0  0  0  0  0  0  0  0  0  0  0
   12.4206  -18.7057   31.2915 O   0  0  0  0  0  0  0  0  0  0  0  0
   11.8110  -18.1724   30.1724 C   0  0  0  0  0  0  0  0  0  0  0  0
   10.8943  -18.9629   29.5078 C   0  0  0  0  0  0  0  0  0  0  0  0
   10.2843  -18.4561   28.4051 C   0  0  0  0  0  0  0  0  0  0  0  0
   10.5823  -17.1743   27.9658 C   0  0  0  0  0  0  0  0  0  0  0  0
    9.9092  -16.6849   26.7673 C   0  0  0  0  0  0  0  0  0  0  0  0
   10.8848  -15.9624   25.8272 C   0  0  2  0  0  0  0  0  0  0  0  0
   10.0588  -15.5713   24.6927 N   0  0  0  0  0  0  0  0  0  0  0  0
   11.9721  -16.8747   25.4632 C   0  0  0  0  0  0  0  0  0  0  0  0
   13.0129  -16.9998   26.1308 O   0  0  0  0  0  0  0  0  0  0  0  0
   11.4938  -16.3920   28.6287 C   0  0  0  0  0  0  0  0  0  0  0  0
   12.1093  -16.9077   29.7442 C   0  0  0  0  0  0  0  0  0  0  0  0
   11.8552  -17.6478   24.3197 O   0  0  0  0  0  0  0  0  0  0  0  0
  2  3  1  0
  2  1  1  6
  4  3  1  0
  4  5  1  0
  5  6  1  0
  6  7  1  0
  8  2  1  0
  9  8  2  0
 10 11  1  0
 12 13  1  0
 12 11  1  0
 14 13  1  1
 14 15  1  0
 15  8  1  0
 16 17  2  0
 16 14  1  0
 19 18  1  0
 20 19  2  0
 21 20  1  0
 22 21  2  0
 22 28  1  0
 24 23  1  1
 23 22  1  0
 24 25  1  0
 25 16  1  0
 26 24  1  0
 27 26  2  0
 28 29  2  0
 29 19  1  0
 30 26  1  0
M  END
$$$$
