KMY.pdb
     RDKit          3D

 30 30  0  0  1  0  0  0  0  0999 V2000
    7.3058  -16.8458   19.8289 N   0  0  0  0  0  0  0  0  0  0  0  0
    8.1439  -15.7579   19.5319 C   0  0  1  0  0  0  0  0  0  0  0  0
    7.6758  -14.7460   18.5443 C   0  0  0  0  0  0  0  0  0  0  0  0
    7.9192  -15.0022   17.1140 C   0  0  0  0  0  0  0  0  0  0  0  0
    7.9914  -13.8472   16.1820 C   0  0  0  0  0  0  0  0  0  0  0  0
    8.1366  -14.2319   14.7382 C   0  0  0  0  0  0  0  0  0  0  0  0
    7.5042  -13.3688   13.8070 N   0  0  0  0  0  0  0  0  0  0  0  0
    8.5970  -15.0687   20.7802 C   0  0  0  0  0  0  0  0  0  0  0  0
    9.4932  -14.1717   20.7106 O   0  0  0  0  0  0  0  0  0  0  0  0
    6.3031  -11.5338   27.2122 C   0  0  0  0  0  0  0  0  0  0  0  0
    5.8803  -12.5947   25.8093 S   0  0  0  0  0  0  0  0  0  0  0  0
    7.4444  -13.1935   25.0657 C   0  0  0  0  0  0  0  0  0  0  0  0
    7.1708  -14.0506   23.8705 C   0  0  0  0  0  0  0  0  0  0  0  0
    8.4267  -14.5201   23.2292 C   0  0  2  0  0  0  0  0  0  0  0  0
    8.0947  -15.3469   22.0531 N   0  0  0  0  0  0  0  0  0  0  0  0
    9.1914  -15.4032   24.1275 C   0  0  0  0  0  0  0  0  0  0  0  0
    8.8446  -16.6257   24.3136 O   0  0  0  0  0  0  0  0  0  0  0  0
   12.1413  -17.2216   31.8394 O   0  0  0  0  0  0  0  0  0  0  0  0
   11.9801  -16.6092   30.6116 C   0  0  0  0  0  0  0  0  0  0  0  0
   12.4219  -17.2920   29.4955 C   0  0  0  0  0  0  0  0  0  0  0  0
   12.2720  -16.7063   28.2793 C   0  0  0  0  0  0  0  0  0  0  0  0
   11.6881  -15.4523   28.1720 C   0  0  0  0  0  0  0  0  0  0  0  0
   11.5653  -14.8630   26.8430 C   0  0  0  0  0  0  0  0  0  0  0  0
   10.9196  -15.8398   25.8498 C   0  0  2  0  0  0  0  0  0  0  0  0
   10.3433  -14.9760   24.8280 N   0  0  0  0  0  0  0  0  0  0  0  0
    9.9213  -16.6528   26.5495 C   0  0  0  0  0  0  0  0  0  0  0  0
    8.8232  -16.2114   26.9287 O   0  0  0  0  0  0  0  0  0  0  0  0
   11.2506  -14.7771   29.2833 C   0  0  0  0  0  0  0  0  0  0  0  0
   11.4036  -15.3724   30.5126 C   0  0  0  0  0  0  0  0  0  0  0  0
   10.1944  -17.9852   26.8122 O   0  0  0  0  0  0  0  0  0  0  0  0
  2  3  1  0
  2  1  1  1
  4  3  1  0
  4  5  1  0
  5  6  1  0
  6  7  1  0
  8  2  1  0
  9  8  2  0
 10 11  1  0
 12 13  1  0
 12 11  1  0
 14 13  1  1
 14 15  1  0
 15  8  1  0
 16 17  2  0
 16 14  1  0
 19 18  1  0
 20 19  2  0
 21 20  1  0
 22 21  2  0
 22 28  1  0
 24 23  1  1
 23 22  1  0
 24 25  1  0
 25 16  1  0
 26 24  1  0
 27 26  2  0
 28 29  2  0
 29 19  1  0
 30 26  1  0
M  END
$$$$
