KMY.pdb
     RDKit          3D

 30 30  0  0  1  0  0  0  0  0999 V2000
    6.5905  -17.3663   19.8425 N   0  0  0  0  0  0  0  0  0  0  0  0
    6.9212  -17.6430   21.1798 C   0  0  1  0  0  0  0  0  0  0  0  0
    7.7961  -18.8127   21.4707 C   0  0  0  0  0  0  0  0  0  0  0  0
    7.5728  -20.0567   20.7136 C   0  0  0  0  0  0  0  0  0  0  0  0
    8.7352  -20.7209   20.0690 C   0  0  0  0  0  0  0  0  0  0  0  0
    8.4066  -22.0292   19.4101 C   0  0  0  0  0  0  0  0  0  0  0  0
    9.4916  -22.6850   18.7742 N   0  0  0  0  0  0  0  0  0  0  0  0
    7.4633  -16.4281   21.8644 C   0  0  0  0  0  0  0  0  0  0  0  0
    8.1243  -15.5745   21.1956 O   0  0  0  0  0  0  0  0  0  0  0  0
    6.1252  -10.7116   26.7354 C   0  0  0  0  0  0  0  0  0  0  0  0
    5.9252  -12.5042   26.5975 S   0  0  0  0  0  0  0  0  0  0  0  0
    7.2109  -13.1268   25.4499 C   0  0  0  0  0  0  0  0  0  0  0  0
    6.7747  -14.4043   24.8054 C   0  0  0  0  0  0  0  0  0  0  0  0
    7.7893  -14.9126   23.8456 C   0  0  2  0  0  0  0  0  0  0  0  0
    7.2932  -16.1551   23.2233 N   0  0  0  0  0  0  0  0  0  0  0  0
    9.0380  -15.2880   24.5320 C   0  0  0  0  0  0  0  0  0  0  0  0
    9.1477  -15.2032   25.8089 O   0  0  0  0  0  0  0  0  0  0  0  0
   10.5139  -14.7506   30.7166 O   0  0  0  0  0  0  0  0  0  0  0  0
   10.6383  -15.2827   29.4478 C   0  0  0  0  0  0  0  0  0  0  0  0
   10.4498  -16.6434   29.3055 C   0  0  0  0  0  0  0  0  0  0  0  0
   10.5680  -17.1851   28.0656 C   0  0  0  0  0  0  0  0  0  0  0  0
   10.8710  -16.3822   26.9755 C   0  0  0  0  0  0  0  0  0  0  0  0
   11.0010  -17.0182   25.6688 C   0  0  0  0  0  0  0  0  0  0  0  0
   11.4093  -16.0075   24.5873 C   0  0  2  0  0  0  0  0  0  0  0  0
   10.1786  -15.7662   23.8461 N   0  0  0  0  0  0  0  0  0  0  0  0
   12.4761  -16.5833   23.7643 C   0  0  0  0  0  0  0  0  0  0  0  0
   13.6111  -16.8433   24.1989 O   0  0  0  0  0  0  0  0  0  0  0  0
   11.0577  -15.0308   27.1210 C   0  0  0  0  0  0  0  0  0  0  0  0
   10.9374  -14.4855   28.3769 C   0  0  0  0  0  0  0  0  0  0  0  0
   12.2291  -16.8606   22.4298 O   0  0  0  0  0  0  0  0  0  0  0  0
  2  3  1  0
  2  1  1  6
  4  3  1  0
  4  5  1  0
  5  6  1  0
  6  7  1  0
  8  2  1  0
  9  8  2  0
 10 11  1  0
 12 13  1  0
 12 11  1  0
 14 13  1  1
 14 15  1  0
 15  8  1  0
 16 17  2  0
 16 14  1  0
 19 18  1  0
 20 19  2  0
 21 20  1  0
 22 21  2  0
 22 28  1  0
 24 23  1  1
 23 22  1  0
 24 25  1  0
 25 16  1  0
 26 24  1  0
 27 26  2  0
 28 29  2  0
 29 19  1  0
 30 26  1  0
M  END
$$$$
