KMY.pdb
     RDKit          3D

 30 30  0  0  1  0  0  0  0  0999 V2000
    9.3469  -18.9616   19.8588 N   0  0  0  0  0  0  0  0  0  0  0  0
   10.4048  -18.0437   19.7461 C   0  0  1  0  0  0  0  0  0  0  0  0
   10.8047  -17.5795   18.3886 C   0  0  0  0  0  0  0  0  0  0  0  0
   11.6331  -18.4738   17.5612 C   0  0  0  0  0  0  0  0  0  0  0  0
   12.0513  -18.0163   16.2108 C   0  0  0  0  0  0  0  0  0  0  0  0
   12.9446  -18.9806   15.4855 C   0  0  0  0  0  0  0  0  0  0  0  0
   14.1680  -19.2893   16.1333 N   0  0  0  0  0  0  0  0  0  0  0  0
   10.1913  -16.8616   20.6382 C   0  0  0  0  0  0  0  0  0  0  0  0
   11.1062  -15.9881   20.7504 O   0  0  0  0  0  0  0  0  0  0  0  0
    7.7511  -11.9717   19.0852 C   0  0  0  0  0  0  0  0  0  0  0  0
    8.1725  -12.7075   20.6831 S   0  0  0  0  0  0  0  0  0  0  0  0
    7.2952  -14.3109   20.8127 C   0  0  0  0  0  0  0  0  0  0  0  0
    7.5125  -14.9286   22.1577 C   0  0  0  0  0  0  0  0  0  0  0  0
    8.8815  -15.4913   22.2918 C   0  0  2  0  0  0  0  0  0  0  0  0
    9.0283  -16.6412   21.3790 N   0  0  0  0  0  0  0  0  0  0  0  0
    9.1111  -16.0306   23.6437 C   0  0  0  0  0  0  0  0  0  0  0  0
    8.7291  -17.2147   23.9623 O   0  0  0  0  0  0  0  0  0  0  0  0
    6.0151  -10.9745   26.9199 O   0  0  0  0  0  0  0  0  0  0  0  0
    6.5628  -12.2360   26.7892 C   0  0  0  0  0  0  0  0  0  0  0  0
    7.9126  -12.3749   27.0459 C   0  0  0  0  0  0  0  0  0  0  0  0
    8.4694  -13.6076   26.9228 C   0  0  0  0  0  0  0  0  0  0  0  0
    7.6922  -14.6939   26.5477 C   0  0  0  0  0  0  0  0  0  0  0  0
    8.3442  -15.9925   26.4160 C   0  0  0  0  0  0  0  0  0  0  0  0
    9.8183  -15.8456   26.0121 C   0  0  2  0  0  0  0  0  0  0  0  0
    9.7627  -15.2983   24.6632 N   0  0  0  0  0  0  0  0  0  0  0  0
   10.4715  -17.1557   26.0778 C   0  0  0  0  0  0  0  0  0  0  0  0
   10.9187  -17.7481   25.0810 O   0  0  0  0  0  0  0  0  0  0  0  0
    6.3515  -14.5518   26.2934 C   0  0  0  0  0  0  0  0  0  0  0  0
    5.7909  -13.3032   26.4189 C   0  0  0  0  0  0  0  0  0  0  0  0
   10.6087  -17.7849   27.3042 O   0  0  0  0  0  0  0  0  0  0  0  0
  2  3  1  0
  2  1  1  6
  4  3  1  0
  4  5  1  0
  5  6  1  0
  6  7  1  0
  8  2  1  0
  9  8  2  0
 10 11  1  0
 12 13  1  0
 12 11  1  0
 14 13  1  1
 14 15  1  0
 15  8  1  0
 16 17  2  0
 16 14  1  0
 19 18  1  0
 20 19  2  0
 21 20  1  0
 22 21  2  0
 22 28  1  0
 24 23  1  6
 23 22  1  0
 24 25  1  0
 25 16  1  0
 26 24  1  0
 27 26  2  0
 28 29  2  0
 29 19  1  0
 30 26  1  0
M  END
$$$$
