WPA.pdb
     RDKit          3D

 27 29  0  0  1  0  0  0  0  0999 V2000
    7.2035  -18.1011   25.6067 N   0  0  0  0  0  0  0  0  0  0  0  0
    6.4728  -17.3499   24.6486 C   0  0  1  0  0  0  0  0  0  0  0  0
    6.0858  -15.9689   25.1100 C   0  0  0  0  0  0  0  0  0  0  0  0
    7.1447  -15.2997   25.8868 C   0  0  0  0  0  0  0  0  0  0  0  0
    8.3318  -15.8181   26.3425 C   0  0  0  0  0  0  0  0  0  0  0  0
    8.9785  -14.8514   26.9991 N   0  0  0  0  0  0  0  0  0  0  0  0
    8.2644  -13.7329   26.9889 C   0  0  0  0  0  0  0  0  0  0  0  0
    8.4573  -12.4563   27.5084 C   0  0  0  0  0  0  0  0  0  0  0  0
    7.5157  -11.4661   27.3368 C   0  0  0  0  0  0  0  0  0  0  0  0
    6.3544  -11.7151   26.6438 C   0  0  0  0  0  0  0  0  0  0  0  0
    6.1629  -12.9747   26.1305 C   0  0  0  0  0  0  0  0  0  0  0  0
    7.1161  -13.9883   26.3005 C   0  0  0  0  0  0  0  0  0  0  0  0
    7.1557  -17.3334   23.3382 C   0  0  0  0  0  0  0  0  0  0  0  0
    7.3864  -18.4600   22.7643 O   0  0  0  0  0  0  0  0  0  0  0  0
    7.5878  -16.1708   22.6439 N   0  0  0  0  0  0  0  0  0  0  0  0
    7.4285  -14.8128   23.1030 C   0  0  0  0  0  0  0  0  0  0  0  0
    7.8381  -13.9254   21.9225 C   0  0  0  0  0  0  0  0  0  0  0  0
    7.7748  -14.8963   20.7288 C   0  0  0  0  0  0  0  0  0  0  0  0
    8.2552  -16.1587   21.3923 C   0  0  1  0  0  0  0  0  0  0  0  0
    9.7355  -16.0459   21.5032 C   0  0  0  0  0  0  0  0  0  0  0  0
   10.4105  -15.7947   20.4755 O   0  0  0  0  0  0  0  0  0  0  0  0
   12.2468  -15.3602   24.1443 C   0  0  0  0  0  0  0  0  0  0  0  0
   11.8471  -16.0758   22.8957 C   0  0  2  0  0  0  0  0  0  0  0  0
   10.4141  -16.2137   22.7373 N   0  0  0  0  0  0  0  0  0  0  0  0
   12.4260  -17.4496   22.8917 C   0  0  0  0  0  0  0  0  0  0  0  0
   13.6660  -17.6457   22.9440 O   0  0  0  0  0  0  0  0  0  0  0  0
   11.6030  -18.5832   22.8290 O   0  0  0  0  0  0  0  0  0  0  0  0
  2  1  1  1
  2 13  1  0
  3  2  1  0
  4  3  1  0
  4  5  2  0
  6  5  1  0
  7  6  1  0
  8  7  2  0
  9  8  1  0
 10  9  2  0
 10 11  1  0
 11 12  2  0
 12  7  1  0
 12  4  1  0
 13 14  2  0
 15 13  1  0
 15 16  1  0
 17 16  1  0
 18 17  1  0
 19 18  1  0
 19 15  1  0
 19 20  1  1
 21 20  2  0
 23 22  1  1
 23 24  1  0
 24 20  1  0
 25 23  1  0
 25 27  1  0
 26 25  2  0
M  END
$$$$
