WPA.pdb
     RDKit          3D

 27 29  0  0  1  0  0  0  0  0999 V2000
    6.2461  -18.2863   24.7937 N   0  0  0  0  0  0  0  0  0  0  0  0
    6.7001  -17.0589   24.2427 C   0  0  1  0  0  0  0  0  0  0  0  0
    7.6175  -16.2771   25.1465 C   0  0  0  0  0  0  0  0  0  0  0  0
    6.9562  -15.1270   25.7887 C   0  0  0  0  0  0  0  0  0  0  0  0
    5.6638  -15.0235   26.2410 C   0  0  0  0  0  0  0  0  0  0  0  0
    5.5025  -13.7998   26.7511 N   0  0  0  0  0  0  0  0  0  0  0  0
    6.6304  -13.1080   26.6494 C   0  0  0  0  0  0  0  0  0  0  0  0
    7.0115  -11.8189   27.0098 C   0  0  0  0  0  0  0  0  0  0  0  0
    8.2879  -11.3594   26.7730 C   0  0  0  0  0  0  0  0  0  0  0  0
    9.2237  -12.1673   26.1709 C   0  0  0  0  0  0  0  0  0  0  0  0
    8.8488  -13.4399   25.8147 C   0  0  0  0  0  0  0  0  0  0  0  0
    7.5518  -13.9155   26.0520 C   0  0  0  0  0  0  0  0  0  0  0  0
    7.2700  -17.2493   22.8926 C   0  0  0  0  0  0  0  0  0  0  0  0
    7.4131  -18.4520   22.4627 O   0  0  0  0  0  0  0  0  0  0  0  0
    7.6808  -16.2111   22.0130 N   0  0  0  0  0  0  0  0  0  0  0  0
    7.5508  -14.7973   22.2667 C   0  0  0  0  0  0  0  0  0  0  0  0
    7.9168  -14.1044   20.9496 C   0  0  0  0  0  0  0  0  0  0  0  0
    7.7965  -15.2438   19.9207 C   0  0  0  0  0  0  0  0  0  0  0  0
    8.2952  -16.3976   20.7481 C   0  0  1  0  0  0  0  0  0  0  0  0
    9.7796  -16.2893   20.7806 C   0  0  0  0  0  0  0  0  0  0  0  0
   10.3178  -15.4616   21.5554 O   0  0  0  0  0  0  0  0  0  0  0  0
   12.1875  -18.9804   19.7992 C   0  0  0  0  0  0  0  0  0  0  0  0
   11.8798  -17.6452   20.3939 C   0  0  2  0  0  0  0  0  0  0  0  0
   10.6123  -17.0937   19.9614 N   0  0  0  0  0  0  0  0  0  0  0  0
   12.9390  -16.6663   20.0167 C   0  0  0  0  0  0  0  0  0  0  0  0
   14.1345  -16.8139   20.3741 O   0  0  0  0  0  0  0  0  0  0  0  0
   12.6394  -15.5357   19.2433 O   0  0  0  0  0  0  0  0  0  0  0  0
  2  1  1  1
  2 13  1  0
  3  2  1  0
  4  3  1  0
  4  5  2  0
  6  5  1  0
  7  6  1  0
  8  7  2  0
  9  8  1  0
 10  9  2  0
 10 11  1  0
 11 12  2  0
 12  7  1  0
 12  4  1  0
 13 14  2  0
 15 13  1  0
 15 16  1  0
 17 16  1  0
 18 17  1  0
 19 18  1  0
 19 15  1  0
 19 20  1  1
 21 20  2  0
 23 22  1  6
 23 24  1  0
 24 20  1  0
 25 23  1  0
 25 27  1  0
 26 25  2  0
M  END
$$$$
