WPA.pdb
     RDKit          3D

 27 29  0  0  1  0  0  0  0  0999 V2000
    5.8923  -17.7329   23.8134 N   0  0  0  0  0  0  0  0  0  0  0  0
    6.5573  -16.5117   23.5254 C   0  0  1  0  0  0  0  0  0  0  0  0
    7.4354  -16.0079   24.6411 C   0  0  0  0  0  0  0  0  0  0  0  0
    6.7625  -15.0248   25.5090 C   0  0  0  0  0  0  0  0  0  0  0  0
    5.5961  -15.1650   26.2199 C   0  0  0  0  0  0  0  0  0  0  0  0
    5.3666  -14.0185   26.8655 N   0  0  0  0  0  0  0  0  0  0  0  0
    6.3304  -13.1443   26.6047 C   0  0  0  0  0  0  0  0  0  0  0  0
    6.5828  -11.8344   27.0013 C   0  0  0  0  0  0  0  0  0  0  0  0
    7.6959  -11.1560   26.5569 C   0  0  0  0  0  0  0  0  0  0  0  0
    8.5912  -11.7591   25.7052 C   0  0  0  0  0  0  0  0  0  0  0  0
    8.3432  -13.0520   25.3130 C   0  0  0  0  0  0  0  0  0  0  0  0
    7.2128  -13.7498   25.7605 C   0  0  0  0  0  0  0  0  0  0  0  0
    7.2718  -16.5759   22.2335 C   0  0  0  0  0  0  0  0  0  0  0  0
    7.3603  -17.7173   21.6494 O   0  0  0  0  0  0  0  0  0  0  0  0
    7.8793  -15.4769   21.5675 N   0  0  0  0  0  0  0  0  0  0  0  0
    7.8300  -14.1024   22.0018 C   0  0  0  0  0  0  0  0  0  0  0  0
    8.4244  -13.2826   20.8516 C   0  0  0  0  0  0  0  0  0  0  0  0
    8.3530  -14.2605   19.6641 C   0  0  0  0  0  0  0  0  0  0  0  0
    8.6416  -15.5557   20.3738 C   0  0  1  0  0  0  0  0  0  0  0  0
   10.1119  -15.5984   20.6030 C   0  0  0  0  0  0  0  0  0  0  0  0
   10.8890  -15.3384   19.6525 O   0  0  0  0  0  0  0  0  0  0  0  0
   12.4545  -15.2148   23.4067 C   0  0  0  0  0  0  0  0  0  0  0  0
   12.0901  -15.9264   22.1450 C   0  0  2  0  0  0  0  0  0  0  0  0
   10.6690  -15.9249   21.8659 N   0  0  0  0  0  0  0  0  0  0  0  0
   12.5233  -17.3507   22.2235 C   0  0  0  0  0  0  0  0  0  0  0  0
   13.7228  -17.6680   22.4214 O   0  0  0  0  0  0  0  0  0  0  0  0
   11.6021  -18.3979   22.0785 O   0  0  0  0  0  0  0  0  0  0  0  0
  2  1  1  1
  2 13  1  0
  3  2  1  0
  4  3  1  0
  4  5  2  0
  6  5  1  0
  7  6  1  0
  8  7  2  0
  9  8  1  0
 10  9  2  0
 10 11  1  0
 11 12  2  0
 12  7  1  0
 12  4  1  0
 13 14  2  0
 15 13  1  0
 15 16  1  0
 17 16  1  0
 18 17  1  0
 19 18  1  0
 19 15  1  0
 19 20  1  1
 21 20  2  0
 23 22  1  1
 23 24  1  0
 24 20  1  0
 25 23  1  0
 25 27  1  0
 26 25  2  0
M  END
$$$$
