WPA.pdb
     RDKit          3D

 27 29  0  0  1  0  0  0  0  0999 V2000
    5.9988  -17.8899   24.2476 N   0  0  0  0  0  0  0  0  0  0  0  0
    6.5571  -16.6719   23.7773 C   0  0  1  0  0  0  0  0  0  0  0  0
    7.4102  -15.9515   24.7886 C   0  0  0  0  0  0  0  0  0  0  0  0
    6.6564  -14.9684   25.5872 C   0  0  0  0  0  0  0  0  0  0  0  0
    5.3579  -15.0368   26.0285 C   0  0  0  0  0  0  0  0  0  0  0  0
    5.0971  -13.9219   26.7161 N   0  0  0  0  0  0  0  0  0  0  0  0
    6.1666  -13.1365   26.7395 C   0  0  0  0  0  0  0  0  0  0  0  0
    6.4420  -11.8919   27.2981 C   0  0  0  0  0  0  0  0  0  0  0  0
    7.6787  -11.3032   27.1551 C   0  0  0  0  0  0  0  0  0  0  0  0
    8.6786  -11.9338   26.4527 C   0  0  0  0  0  0  0  0  0  0  0  0
    8.4081  -13.1623   25.9008 C   0  0  0  0  0  0  0  0  0  0  0  0
    7.1521  -13.7686   26.0416 C   0  0  0  0  0  0  0  0  0  0  0  0
    7.2522  -16.8577   22.4865 C   0  0  0  0  0  0  0  0  0  0  0  0
    7.3748  -18.0546   22.0345 O   0  0  0  0  0  0  0  0  0  0  0  0
    7.8060  -15.8209   21.6873 N   0  0  0  0  0  0  0  0  0  0  0  0
    7.8451  -14.4225   22.0379 C   0  0  0  0  0  0  0  0  0  0  0  0
    8.3214  -13.6922   20.7775 C   0  0  0  0  0  0  0  0  0  0  0  0
    8.0841  -14.7352   19.6697 C   0  0  0  0  0  0  0  0  0  0  0  0
    8.4197  -15.9955   20.4204 C   0  0  1  0  0  0  0  0  0  0  0  0
    9.9051  -16.0745   20.4793 C   0  0  0  0  0  0  0  0  0  0  0  0
   10.5344  -15.2660   21.2041 O   0  0  0  0  0  0  0  0  0  0  0  0
   12.2847  -18.8517   19.4832 C   0  0  0  0  0  0  0  0  0  0  0  0
   11.9202  -17.5692   20.1564 C   0  0  2  0  0  0  0  0  0  0  0  0
   10.6388  -17.0374   19.7403 N   0  0  0  0  0  0  0  0  0  0  0  0
   12.9472  -16.5306   19.8580 C   0  0  0  0  0  0  0  0  0  0  0  0
   12.7731  -15.6647   18.9644 O   0  0  0  0  0  0  0  0  0  0  0  0
   14.1551  -16.4802   20.5684 O   0  0  0  0  0  0  0  0  0  0  0  0
  2  1  1  1
  2 13  1  0
  3  2  1  0
  4  3  1  0
  4  5  2  0
  6  5  1  0
  7  6  1  0
  8  7  2  0
  9  8  1  0
 10  9  2  0
 10 11  1  0
 11 12  2  0
 12  7  1  0
 12  4  1  0
 13 14  2  0
 15 13  1  0
 15 16  1  0
 17 16  1  0
 18 17  1  0
 19 18  1  0
 19 15  1  0
 19 20  1  1
 21 20  2  0
 23 22  1  6
 23 24  1  0
 24 20  1  0
 25 23  1  0
 25 27  1  0
 26 25  2  0
M  END
$$$$
