WPA.pdb
     RDKit          3D

 27 29  0  0  1  0  0  0  0  0999 V2000
    5.6536  -18.4718   24.7492 N   0  0  0  0  0  0  0  0  0  0  0  0
    6.4023  -17.2770   24.9176 C   0  0  1  0  0  0  0  0  0  0  0  0
    6.7885  -16.9851   26.3442 C   0  0  0  0  0  0  0  0  0  0  0  0
    6.8734  -15.5433   26.6380 C   0  0  0  0  0  0  0  0  0  0  0  0
    5.8804  -14.5965   26.5809 C   0  0  0  0  0  0  0  0  0  0  0  0
    6.4107  -13.4216   26.9306 N   0  0  0  0  0  0  0  0  0  0  0  0
    7.6998  -13.5653   27.2108 C   0  0  0  0  0  0  0  0  0  0  0  0
    8.7057  -12.6931   27.6160 C   0  0  0  0  0  0  0  0  0  0  0  0
    9.9901  -13.1381   27.8375 C   0  0  0  0  0  0  0  0  0  0  0  0
   10.3130  -14.4633   27.6628 C   0  0  0  0  0  0  0  0  0  0  0  0
    9.3210  -15.3252   27.2629 C   0  0  0  0  0  0  0  0  0  0  0  0
    8.0113  -14.8806   27.0354 C   0  0  0  0  0  0  0  0  0  0  0  0
    7.5607  -17.2304   24.0012 C   0  0  0  0  0  0  0  0  0  0  0  0
    8.1863  -18.3277   23.7639 O   0  0  0  0  0  0  0  0  0  0  0  0
    8.0545  -16.0680   23.3490 N   0  0  0  0  0  0  0  0  0  0  0  0
    7.6642  -14.7114   23.6446 C   0  0  0  0  0  0  0  0  0  0  0  0
    8.2862  -13.8509   22.5395 C   0  0  0  0  0  0  0  0  0  0  0  0
    8.6187  -14.8858   21.4487 C   0  0  0  0  0  0  0  0  0  0  0  0
    9.0193  -16.0536   22.3092 C   0  0  1  0  0  0  0  0  0  0  0  0
   10.4048  -15.7810   22.7805 C   0  0  0  0  0  0  0  0  0  0  0  0
   10.5891  -14.9328   23.6869 O   0  0  0  0  0  0  0  0  0  0  0  0
   13.3833  -17.9439   22.8750 C   0  0  0  0  0  0  0  0  0  0  0  0
   12.8053  -16.5672   22.9164 C   0  0  2  0  0  0  0  0  0  0  0  0
   11.5313  -16.4504   22.2375 N   0  0  0  0  0  0  0  0  0  0  0  0
   13.7413  -15.6051   22.2678 C   0  0  0  0  0  0  0  0  0  0  0  0
   13.4925  -15.0920   21.1482 O   0  0  0  0  0  0  0  0  0  0  0  0
   14.9434  -15.2335   22.8868 O   0  0  0  0  0  0  0  0  0  0  0  0
  2  1  1  1
  2 13  1  0
  3  2  1  0
  4  3  1  0
  4  5  2  0
  6  5  1  0
  7  6  1  0
  8  7  2  0
  9  8  1  0
 10  9  2  0
 10 11  1  0
 11 12  2  0
 12  7  1  0
 12  4  1  0
 13 14  2  0
 15 13  1  0
 15 16  1  0
 17 16  1  0
 18 17  1  0
 19 18  1  0
 19 15  1  0
 19 20  1  1
 21 20  2  0
 23 22  1  6
 23 24  1  0
 24 20  1  0
 25 23  1  0
 25 27  1  0
 26 25  2  0
M  END
$$$$
