WPA.pdb
     RDKit          3D

 27 29  0  0  1  0  0  0  0  0999 V2000
    6.6455  -18.0153   24.7711 N   0  0  0  0  0  0  0  0  0  0  0  0
    7.0400  -16.7541   24.2513 C   0  0  1  0  0  0  0  0  0  0  0  0
    7.7931  -15.8904   25.2293 C   0  0  0  0  0  0  0  0  0  0  0  0
    6.9371  -14.8990   25.9053 C   0  0  0  0  0  0  0  0  0  0  0  0
    5.6937  -15.0760   26.4604 C   0  0  0  0  0  0  0  0  0  0  0  0
    5.2960  -13.9041   26.9626 N   0  0  0  0  0  0  0  0  0  0  0  0
    6.2246  -12.9783   26.7577 C   0  0  0  0  0  0  0  0  0  0  0  0
    6.3269  -11.6249   27.0653 C   0  0  0  0  0  0  0  0  0  0  0  0
    7.4425  -10.8962   26.7173 C   0  0  0  0  0  0  0  0  0  0  0  0
    8.4896  -11.4909   26.0533 C   0  0  0  0  0  0  0  0  0  0  0  0
    8.3898  -12.8267   25.7492 C   0  0  0  0  0  0  0  0  0  0  0  0
    7.2580  -13.5757   26.0997 C   0  0  0  0  0  0  0  0  0  0  0  0
    7.7522  -16.8977   22.9645 C   0  0  0  0  0  0  0  0  0  0  0  0
    8.1939  -18.0620   22.6464 O   0  0  0  0  0  0  0  0  0  0  0  0
    7.9979  -15.8527   22.0328 N   0  0  0  0  0  0  0  0  0  0  0  0
    7.5410  -14.4908   22.1611 C   0  0  0  0  0  0  0  0  0  0  0  0
    7.8552  -13.8199   20.8195 C   0  0  0  0  0  0  0  0  0  0  0  0
    8.0733  -15.0212   19.8810 C   0  0  0  0  0  0  0  0  0  0  0  0
    8.7415  -15.9779   20.8313 C   0  0  1  0  0  0  0  0  0  0  0  0
   10.1582  -15.5375   20.9543 C   0  0  0  0  0  0  0  0  0  0  0  0
   10.4065  -14.3681   21.3363 O   0  0  0  0  0  0  0  0  0  0  0  0
   12.1166  -17.0553   22.8607 C   0  0  0  0  0  0  0  0  0  0  0  0
   12.4171  -16.5420   21.4906 C   0  0  2  0  0  0  0  0  0  0  0  0
   11.2443  -16.3985   20.6529 N   0  0  0  0  0  0  0  0  0  0  0  0
   13.3468  -17.4752   20.7926 C   0  0  0  0  0  0  0  0  0  0  0  0
   14.5192  -17.6699   21.2004 O   0  0  0  0  0  0  0  0  0  0  0  0
   12.9456  -18.1761   19.6464 O   0  0  0  0  0  0  0  0  0  0  0  0
  2  1  1  1
  2 13  1  0
  3  2  1  0
  4  3  1  0
  4  5  2  0
  6  5  1  0
  7  6  1  0
  8  7  2  0
  9  8  1  0
 10  9  2  0
 10 11  1  0
 11 12  2  0
 12  7  1  0
 12  4  1  0
 13 14  2  0
 15 13  1  0
 15 16  1  0
 17 16  1  0
 18 17  1  0
 19 18  1  0
 19 15  1  0
 19 20  1  1
 21 20  2  0
 23 22  1  1
 23 24  1  0
 24 20  1  0
 25 23  1  0
 25 27  1  0
 26 25  2  0
M  END
$$$$
