WPA.pdb
     RDKit          3D

 27 29  0  0  1  0  0  0  0  0999 V2000
    6.1090  -17.7208   23.9676 N   0  0  0  0  0  0  0  0  0  0  0  0
    6.6332  -16.4512   23.6074 C   0  0  1  0  0  0  0  0  0  0  0  0
    7.4713  -15.8020   24.6778 C   0  0  0  0  0  0  0  0  0  0  0  0
    6.7143  -14.8463   25.5062 C   0  0  0  0  0  0  0  0  0  0  0  0
    5.4391  -14.9632   26.0018 C   0  0  0  0  0  0  0  0  0  0  0  0
    5.1647  -13.8572   26.6983 N   0  0  0  0  0  0  0  0  0  0  0  0
    6.2032  -13.0312   26.6756 C   0  0  0  0  0  0  0  0  0  0  0  0
    6.4536  -11.7754   27.2205 C   0  0  0  0  0  0  0  0  0  0  0  0
    7.6596  -11.1399   27.0248 C   0  0  0  0  0  0  0  0  0  0  0  0
    8.6527  -11.7337   26.2818 C   0  0  0  0  0  0  0  0  0  0  0  0
    8.4067  -12.9732   25.7434 C   0  0  0  0  0  0  0  0  0  0  0  0
    7.1821  -13.6270   25.9377 C   0  0  0  0  0  0  0  0  0  0  0  0
    7.3276  -16.5021   22.3040 C   0  0  0  0  0  0  0  0  0  0  0  0
    7.3734  -17.6296   21.6888 O   0  0  0  0  0  0  0  0  0  0  0  0
    7.9590  -15.4044   21.6584 N   0  0  0  0  0  0  0  0  0  0  0  0
    8.0799  -14.0719   22.1971 C   0  0  0  0  0  0  0  0  0  0  0  0
    8.6224  -13.2096   21.0523 C   0  0  0  0  0  0  0  0  0  0  0  0
    8.3389  -14.0749   19.8104 C   0  0  0  0  0  0  0  0  0  0  0  0
    8.5819  -15.4446   20.3846 C   0  0  1  0  0  0  0  0  0  0  0  0
   10.0581  -15.6265   20.4445 C   0  0  0  0  0  0  0  0  0  0  0  0
   10.7419  -15.4410   19.4086 O   0  0  0  0  0  0  0  0  0  0  0  0
   12.7128  -15.8514   23.0828 C   0  0  0  0  0  0  0  0  0  0  0  0
   12.1559  -16.1932   21.7397 C   0  0  2  0  0  0  0  0  0  0  0  0
   10.7234  -16.0049   21.6387 N   0  0  0  0  0  0  0  0  0  0  0  0
   12.4367  -17.6227   21.4236 C   0  0  0  0  0  0  0  0  0  0  0  0
   11.5170  -18.4740   21.3338 O   0  0  0  0  0  0  0  0  0  0  0  0
   13.7472  -18.0750   21.2131 O   0  0  0  0  0  0  0  0  0  0  0  0
  2  1  1  1
  2 13  1  0
  3  2  1  0
  4  3  1  0
  4  5  2  0
  6  5  1  0
  7  6  1  0
  8  7  2  0
  9  8  1  0
 10  9  2  0
 10 11  1  0
 11 12  2  0
 12  7  1  0
 12  4  1  0
 13 14  2  0
 15 13  1  0
 15 16  1  0
 17 16  1  0
 18 17  1  0
 19 18  1  0
 19 15  1  0
 19 20  1  1
 21 20  2  0
 23 22  1  1
 23 24  1  0
 24 20  1  0
 25 23  1  0
 25 27  1  0
 26 25  2  0
M  END
$$$$
