WPA.pdb
     RDKit          3D

 27 29  0  0  1  0  0  0  0  0999 V2000
    6.8100  -17.1460   22.9632 N   0  0  0  0  0  0  0  0  0  0  0  0
    7.2957  -15.8535   22.6316 C   0  0  1  0  0  0  0  0  0  0  0  0
    8.0997  -15.1962   23.7231 C   0  0  0  0  0  0  0  0  0  0  0  0
    7.2782  -14.7661   24.8688 C   0  0  0  0  0  0  0  0  0  0  0  0
    6.3555  -15.4905   25.5825 C   0  0  0  0  0  0  0  0  0  0  0  0
    5.8548  -14.6972   26.5332 N   0  0  0  0  0  0  0  0  0  0  0  0
    6.4111  -13.4941   26.4668 C   0  0  0  0  0  0  0  0  0  0  0  0
    6.2628  -12.3173   27.1948 C   0  0  0  0  0  0  0  0  0  0  0  0
    6.9951  -11.1918   26.8890 C   0  0  0  0  0  0  0  0  0  0  0  0
    7.8965  -11.2022   25.8507 C   0  0  0  0  0  0  0  0  0  0  0  0
    8.0437  -12.3632   25.1313 C   0  0  0  0  0  0  0  0  0  0  0  0
    7.3025  -13.5132   25.4358 C   0  0  0  0  0  0  0  0  0  0  0  0
    8.0061  -15.8581   21.3358 C   0  0  0  0  0  0  0  0  0  0  0  0
    8.2741  -16.9947   20.7991 O   0  0  0  0  0  0  0  0  0  0  0  0
    8.4268  -14.7057   20.6179 N   0  0  0  0  0  0  0  0  0  0  0  0
    8.2024  -13.3391   21.0206 C   0  0  0  0  0  0  0  0  0  0  0  0
    8.6303  -12.4794   19.8262 C   0  0  0  0  0  0  0  0  0  0  0  0
    8.6499  -13.4929   18.6669 C   0  0  0  0  0  0  0  0  0  0  0  0
    9.1450  -14.7135   19.3946 C   0  0  1  0  0  0  0  0  0  0  0  0
   10.6146  -14.5445   19.5610 C   0  0  0  0  0  0  0  0  0  0  0  0
   11.0462  -13.7299   20.4126 O   0  0  0  0  0  0  0  0  0  0  0  0
   13.5531  -16.6992   18.6120 C   0  0  0  0  0  0  0  0  0  0  0  0
   12.9417  -15.4469   19.1496 C   0  0  2  0  0  0  0  0  0  0  0  0
   11.5503  -15.2761   18.7857 N   0  0  0  0  0  0  0  0  0  0  0  0
   13.6819  -14.2600   18.6343 C   0  0  0  0  0  0  0  0  0  0  0  0
   14.8505  -13.9935   19.0112 O   0  0  0  0  0  0  0  0  0  0  0  0
   13.0980  -13.3895   17.7028 O   0  0  0  0  0  0  0  0  0  0  0  0
  2  1  1  1
  2 13  1  0
  3  2  1  0
  4  3  1  0
  4  5  2  0
  6  5  1  0
  7  6  1  0
  8  7  2  0
  9  8  1  0
 10  9  2  0
 10 11  1  0
 11 12  2  0
 12  7  1  0
 12  4  1  0
 13 14  2  0
 15 13  1  0
 15 16  1  0
 17 16  1  0
 18 17  1  0
 19 18  1  0
 19 15  1  0
 19 20  1  1
 21 20  2  0
 23 22  1  6
 23 24  1  0
 24 20  1  0
 25 23  1  0
 25 27  1  0
 26 25  2  0
M  END
$$$$
