WPA.pdb
     RDKit          3D

 27 29  0  0  1  0  0  0  0  0999 V2000
    5.7821  -18.0115   23.9038 N   0  0  0  0  0  0  0  0  0  0  0  0
    6.4490  -16.7683   23.7421 C   0  0  1  0  0  0  0  0  0  0  0  0
    7.2165  -16.3157   24.9569 C   0  0  0  0  0  0  0  0  0  0  0  0
    6.5695  -15.1984   25.6678 C   0  0  0  0  0  0  0  0  0  0  0  0
    5.3032  -15.1358   26.1953 C   0  0  0  0  0  0  0  0  0  0  0  0
    5.1462  -13.9302   26.7482 N   0  0  0  0  0  0  0  0  0  0  0  0
    6.2520  -13.2111   26.6023 C   0  0  0  0  0  0  0  0  0  0  0  0
    6.6265  -11.9241   26.9770 C   0  0  0  0  0  0  0  0  0  0  0  0
    7.8776  -11.4302   26.6814 C   0  0  0  0  0  0  0  0  0  0  0  0
    8.7938  -12.2006   26.0046 C   0  0  0  0  0  0  0  0  0  0  0  0
    8.4253  -13.4710   25.6343 C   0  0  0  0  0  0  0  0  0  0  0  0
    7.1541  -13.9815   25.9312 C   0  0  0  0  0  0  0  0  0  0  0  0
    7.2757  -16.7527   22.5174 C   0  0  0  0  0  0  0  0  0  0  0  0
    7.4704  -17.8669   21.9070 O   0  0  0  0  0  0  0  0  0  0  0  0
    7.8848  -15.6036   21.9438 N   0  0  0  0  0  0  0  0  0  0  0  0
    7.8341  -14.2687   22.4874 C   0  0  0  0  0  0  0  0  0  0  0  0
    8.4314  -13.3587   21.4085 C   0  0  0  0  0  0  0  0  0  0  0  0
    8.3631  -14.2377   20.1459 C   0  0  0  0  0  0  0  0  0  0  0  0
    8.6501  -15.5859   20.7496 C   0  0  1  0  0  0  0  0  0  0  0  0
   10.1198  -15.6470   20.9783 C   0  0  0  0  0  0  0  0  0  0  0  0
   10.8999  -15.4002   20.0267 O   0  0  0  0  0  0  0  0  0  0  0  0
   12.4662  -15.5727   23.8816 C   0  0  0  0  0  0  0  0  0  0  0  0
   12.0952  -16.0340   22.5103 C   0  0  2  0  0  0  0  0  0  0  0  0
   10.6731  -15.9767   22.2420 N   0  0  0  0  0  0  0  0  0  0  0  0
   12.5243  -17.4487   22.3182 C   0  0  0  0  0  0  0  0  0  0  0  0
   11.6996  -18.3620   22.0645 O   0  0  0  0  0  0  0  0  0  0  0  0
   13.8740  -17.8166   22.4141 O   0  0  0  0  0  0  0  0  0  0  0  0
  2  1  1  1
  2 13  1  0
  3  2  1  0
  4  3  1  0
  4  5  2  0
  6  5  1  0
  7  6  1  0
  8  7  2  0
  9  8  1  0
 10  9  2  0
 10 11  1  0
 11 12  2  0
 12  7  1  0
 12  4  1  0
 13 14  2  0
 15 13  1  0
 15 16  1  0
 17 16  1  0
 18 17  1  0
 19 18  1  0
 19 15  1  0
 19 20  1  1
 21 20  2  0
 23 22  1  1
 23 24  1  0
 24 20  1  0
 25 23  1  0
 25 27  1  0
 26 25  2  0
M  END
$$$$
