WPA.pdb
     RDKit          3D

 27 29  0  0  1  0  0  0  0  0999 V2000
    6.1543  -18.3817   24.8613 N   0  0  0  0  0  0  0  0  0  0  0  0
    6.6947  -17.1153   24.5143 C   0  0  1  0  0  0  0  0  0  0  0  0
    7.3932  -16.4096   25.6473 C   0  0  0  0  0  0  0  0  0  0  0  0
    6.6584  -15.2287   26.1352 C   0  0  0  0  0  0  0  0  0  0  0  0
    5.3238  -15.1136   26.4373 C   0  0  0  0  0  0  0  0  0  0  0  0
    5.0997  -13.8611   26.8432 N   0  0  0  0  0  0  0  0  0  0  0  0
    6.2273  -13.1618   26.8174 C   0  0  0  0  0  0  0  0  0  0  0  0
    6.5583  -11.8465   27.1291 C   0  0  0  0  0  0  0  0  0  0  0  0
    7.8498  -11.3858   27.0010 C   0  0  0  0  0  0  0  0  0  0  0  0
    8.8509  -12.2187   26.5594 C   0  0  0  0  0  0  0  0  0  0  0  0
    8.5255  -13.5172   26.2514 C   0  0  0  0  0  0  0  0  0  0  0  0
    7.2136  -13.9942   26.3789 C   0  0  0  0  0  0  0  0  0  0  0  0
    7.5349  -17.1991   23.3016 C   0  0  0  0  0  0  0  0  0  0  0  0
    7.8445  -18.3665   22.8620 O   0  0  0  0  0  0  0  0  0  0  0  0
    8.0401  -16.0928   22.5658 N   0  0  0  0  0  0  0  0  0  0  0  0
    7.8242  -14.7035   22.8874 C   0  0  0  0  0  0  0  0  0  0  0  0
    8.3640  -13.9123   21.6911 C   0  0  0  0  0  0  0  0  0  0  0  0
    8.4423  -14.9800   20.5842 C   0  0  0  0  0  0  0  0  0  0  0  0
    8.8474  -16.1762   21.4025 C   0  0  1  0  0  0  0  0  0  0  0  0
   10.3045  -16.0351   21.6724 C   0  0  0  0  0  0  0  0  0  0  0  0
   10.6936  -15.1912   22.5159 O   0  0  0  0  0  0  0  0  0  0  0  0
   12.8395  -18.7129   21.2447 C   0  0  0  0  0  0  0  0  0  0  0  0
   12.4868  -17.3136   21.6304 C   0  0  2  0  0  0  0  0  0  0  0  0
   11.2750  -16.8257   21.0052 N   0  0  0  0  0  0  0  0  0  0  0  0
   13.5884  -16.3878   21.2408 C   0  0  0  0  0  0  0  0  0  0  0  0
   14.7270  -16.4546   21.7678 O   0  0  0  0  0  0  0  0  0  0  0  0
   13.3944  -15.4001   20.2645 O   0  0  0  0  0  0  0  0  0  0  0  0
  2  1  1  1
  2 13  1  0
  3  2  1  0
  4  3  1  0
  4  5  2  0
  6  5  1  0
  7  6  1  0
  8  7  2  0
  9  8  1  0
 10  9  2  0
 10 11  1  0
 11 12  2  0
 12  7  1  0
 12  4  1  0
 13 14  2  0
 15 13  1  0
 15 16  1  0
 17 16  1  0
 18 17  1  0
 19 18  1  0
 19 15  1  0
 19 20  1  1
 21 20  2  0
 23 22  1  6
 23 24  1  0
 24 20  1  0
 25 23  1  0
 25 27  1  0
 26 25  2  0
M  END
$$$$
