WPA.pdb
     RDKit          3D

 27 29  0  0  1  0  0  0  0  0999 V2000
    6.5677  -18.1113   25.3273 N   0  0  0  0  0  0  0  0  0  0  0  0
    6.2336  -17.2206   24.2731 C   0  0  1  0  0  0  0  0  0  0  0  0
    5.8959  -15.8243   24.7270 C   0  0  0  0  0  0  0  0  0  0  0  0
    6.8906  -15.2611   25.6576 C   0  0  0  0  0  0  0  0  0  0  0  0
    8.0103  -15.8592   26.1810 C   0  0  0  0  0  0  0  0  0  0  0  0
    8.6158  -14.9745   26.9776 N   0  0  0  0  0  0  0  0  0  0  0  0
    7.9393  -13.8329   26.9931 C   0  0  0  0  0  0  0  0  0  0  0  0
    8.1163  -12.6112   27.6358 C   0  0  0  0  0  0  0  0  0  0  0  0
    7.2259  -11.5757   27.4583 C   0  0  0  0  0  0  0  0  0  0  0  0
    6.1332  -11.7234   26.6366 C   0  0  0  0  0  0  0  0  0  0  0  0
    5.9575  -12.9288   26.0016 C   0  0  0  0  0  0  0  0  0  0  0  0
    6.8589  -13.9879   26.1768 C   0  0  0  0  0  0  0  0  0  0  0  0
    7.2586  -17.2327   23.2088 C   0  0  0  0  0  0  0  0  0  0  0  0
    7.7430  -18.3681   22.8510 O   0  0  0  0  0  0  0  0  0  0  0  0
    7.7662  -16.0889   22.5347 N   0  0  0  0  0  0  0  0  0  0  0  0
    7.5572  -14.7190   22.9345 C   0  0  0  0  0  0  0  0  0  0  0  0
    8.0967  -13.8640   21.7827 C   0  0  0  0  0  0  0  0  0  0  0  0
    8.1672  -14.8682   20.6173 C   0  0  0  0  0  0  0  0  0  0  0  0
    8.5697  -16.1101   21.3658 C   0  0  1  0  0  0  0  0  0  0  0  0
   10.0282  -15.9902   21.6385 C   0  0  0  0  0  0  0  0  0  0  0  0
   10.8118  -15.7438   20.6897 O   0  0  0  0  0  0  0  0  0  0  0  0
   12.2354  -15.6072   24.6714 C   0  0  0  0  0  0  0  0  0  0  0  0
   11.9737  -16.0036   23.2552 C   0  0  2  0  0  0  0  0  0  0  0  0
   10.5670  -16.1459   22.9413 N   0  0  0  0  0  0  0  0  0  0  0  0
   12.6252  -17.3132   22.9671 C   0  0  0  0  0  0  0  0  0  0  0  0
   13.8678  -17.4706   23.0662 O   0  0  0  0  0  0  0  0  0  0  0  0
   11.8707  -18.4271   22.5719 O   0  0  0  0  0  0  0  0  0  0  0  0
  2  1  1  1
  2 13  1  0
  3  2  1  0
  4  3  1  0
  4  5  2  0
  6  5  1  0
  7  6  1  0
  8  7  2  0
  9  8  1  0
 10  9  2  0
 10 11  1  0
 11 12  2  0
 12  7  1  0
 12  4  1  0
 13 14  2  0
 15 13  1  0
 15 16  1  0
 17 16  1  0
 18 17  1  0
 19 18  1  0
 19 15  1  0
 19 20  1  1
 21 20  2  0
 23 22  1  1
 23 24  1  0
 24 20  1  0
 25 23  1  0
 25 27  1  0
 26 25  2  0
M  END
$$$$
