WPA.pdb
     RDKit          3D

 27 29  0  0  1  0  0  0  0  0999 V2000
    5.9844  -17.3157   23.9049 N   0  0  0  0  0  0  0  0  0  0  0  0
    6.6194  -16.1237   23.4665 C   0  0  1  0  0  0  0  0  0  0  0  0
    7.5180  -15.4876   24.4948 C   0  0  0  0  0  0  0  0  0  0  0  0
    6.7854  -14.6685   25.4771 C   0  0  0  0  0  0  0  0  0  0  0  0
    5.6612  -14.9927   26.1958 C   0  0  0  0  0  0  0  0  0  0  0  0
    5.3472  -13.9462   26.9640 N   0  0  0  0  0  0  0  0  0  0  0  0
    6.2161  -12.9612   26.7749 C   0  0  0  0  0  0  0  0  0  0  0  0
    6.3582  -11.6809   27.3019 C   0  0  0  0  0  0  0  0  0  0  0  0
    7.3879  -10.8564   26.9062 C   0  0  0  0  0  0  0  0  0  0  0  0
    8.3070  -11.2797   25.9750 C   0  0  0  0  0  0  0  0  0  0  0  0
    8.1678  -12.5431   25.4542 C   0  0  0  0  0  0  0  0  0  0  0  0
    7.1228  -13.3887   25.8514 C   0  0  0  0  0  0  0  0  0  0  0  0
    7.2999  -16.3183   22.1693 C   0  0  0  0  0  0  0  0  0  0  0  0
    7.3384  -17.5065   21.6808 O   0  0  0  0  0  0  0  0  0  0  0  0
    7.9253  -15.2990   21.4009 N   0  0  0  0  0  0  0  0  0  0  0  0
    7.9883  -13.9022   21.7546 C   0  0  0  0  0  0  0  0  0  0  0  0
    8.5507  -13.1872   20.5213 C   0  0  0  0  0  0  0  0  0  0  0  0
    8.3397  -14.2231   19.4015 C   0  0  0  0  0  0  0  0  0  0  0  0
    8.5980  -15.4926   20.1671 C   0  0  1  0  0  0  0  0  0  0  0  0
   10.0753  -15.6162   20.3026 C   0  0  0  0  0  0  0  0  0  0  0  0
   10.7936  -15.5491   19.2757 O   0  0  0  0  0  0  0  0  0  0  0  0
   12.6527  -15.3814   23.0038 C   0  0  0  0  0  0  0  0  0  0  0  0
   12.1331  -15.9666   21.7316 C   0  0  2  0  0  0  0  0  0  0  0  0
   10.7037  -15.8086   21.5596 N   0  0  0  0  0  0  0  0  0  0  0  0
   12.4240  -17.4281   21.6903 C   0  0  0  0  0  0  0  0  0  0  0  0
   13.6003  -17.8695   21.6952 O   0  0  0  0  0  0  0  0  0  0  0  0
   11.3885  -18.3726   21.6442 O   0  0  0  0  0  0  0  0  0  0  0  0
  2  1  1  1
  2 13  1  0
  3  2  1  0
  4  3  1  0
  4  5  2  0
  6  5  1  0
  7  6  1  0
  8  7  2  0
  9  8  1  0
 10  9  2  0
 10 11  1  0
 11 12  2  0
 12  7  1  0
 12  4  1  0
 13 14  2  0
 15 13  1  0
 15 16  1  0
 17 16  1  0
 18 17  1  0
 19 18  1  0
 19 15  1  0
 19 20  1  1
 21 20  2  0
 23 22  1  1
 23 24  1  0
 24 20  1  0
 25 23  1  0
 25 27  1  0
 26 25  2  0
M  END
$$$$
