WPA.pdb
     RDKit          3D

 27 29  0  0  1  0  0  0  0  0999 V2000
    8.3754  -17.4444   24.9170 N   0  0  0  0  0  0  0  0  0  0  0  0
    8.6733  -16.4583   23.9397 C   0  0  1  0  0  0  0  0  0  0  0  0
    7.4814  -15.6544   23.4892 C   0  0  0  0  0  0  0  0  0  0  0  0
    6.7600  -15.0139   24.6036 C   0  0  0  0  0  0  0  0  0  0  0  0
    5.9383  -15.5932   25.5389 C   0  0  0  0  0  0  0  0  0  0  0  0
    5.5037  -14.6316   26.3576 N   0  0  0  0  0  0  0  0  0  0  0  0
    6.0062  -13.4582   25.9946 C   0  0  0  0  0  0  0  0  0  0  0  0
    5.8863  -12.1606   26.4832 C   0  0  0  0  0  0  0  0  0  0  0  0
    6.5435  -11.1088   25.8845 C   0  0  0  0  0  0  0  0  0  0  0  0
    7.3394  -11.3153   24.7823 C   0  0  0  0  0  0  0  0  0  0  0  0
    7.4586  -12.5956   24.2991 C   0  0  0  0  0  0  0  0  0  0  0  0
    6.7932  -13.6718   24.9024 C   0  0  0  0  0  0  0  0  0  0  0  0
    9.8017  -15.6022   24.3607 C   0  0  0  0  0  0  0  0  0  0  0  0
   10.5137  -15.0493   23.4447 O   0  0  0  0  0  0  0  0  0  0  0  0
   10.1784  -15.3298   25.7040 N   0  0  0  0  0  0  0  0  0  0  0  0
    9.4033  -15.6586   26.8750 C   0  0  0  0  0  0  0  0  0  0  0  0
   10.1093  -14.9681   28.0469 C   0  0  0  0  0  0  0  0  0  0  0  0
   10.9983  -13.9264   27.3426 C   0  0  0  0  0  0  0  0  0  0  0  0
   11.3828  -14.7003   26.1106 C   0  0  1  0  0  0  0  0  0  0  0  0
   12.4491  -15.6545   26.5215 C   0  0  0  0  0  0  0  0  0  0  0  0
   12.2373  -16.4358   27.4805 O   0  0  0  0  0  0  0  0  0  0  0  0
   14.9760  -16.5047   23.9085 C   0  0  0  0  0  0  0  0  0  0  0  0
   14.1714  -16.8609   25.1154 C   0  0  2  0  0  0  0  0  0  0  0  0
   13.7041  -15.7119   25.8631 N   0  0  0  0  0  0  0  0  0  0  0  0
   14.9918  -17.6888   26.0449 C   0  0  0  0  0  0  0  0  0  0  0  0
   15.4867  -18.7881   25.6910 O   0  0  0  0  0  0  0  0  0  0  0  0
   15.2444  -17.2691   27.3589 O   0  0  0  0  0  0  0  0  0  0  0  0
  2  1  1  1
  2 13  1  0
  3  2  1  0
  4  3  1  0
  4  5  2  0
  6  5  1  0
  7  6  1  0
  8  7  2  0
  9  8  1  0
 10  9  2  0
 10 11  1  0
 11 12  2  0
 12  7  1  0
 12  4  1  0
 13 14  2  0
 15 13  1  0
 15 16  1  0
 17 16  1  0
 18 17  1  0
 19 18  1  0
 19 15  1  0
 19 20  1  1
 21 20  2  0
 23 22  1  6
 23 24  1  0
 24 20  1  0
 25 23  1  0
 25 27  1  0
 26 25  2  0
M  END
$$$$
