WPA.pdb
     RDKit          3D

 27 29  0  0  1  0  0  0  0  0999 V2000
    6.2818  -17.5829   23.8503 N   0  0  0  0  0  0  0  0  0  0  0  0
    6.7709  -16.3474   23.3498 C   0  0  1  0  0  0  0  0  0  0  0  0
    7.7233  -15.6382   24.2769 C   0  0  0  0  0  0  0  0  0  0  0  0
    7.0432  -14.9387   25.3818 C   0  0  0  0  0  0  0  0  0  0  0  0
    6.0180  -15.3862   26.1781 C   0  0  0  0  0  0  0  0  0  0  0  0
    5.7185  -14.4175   27.0475 N   0  0  0  0  0  0  0  0  0  0  0  0
    6.5025  -13.3652   26.8498 C   0  0  0  0  0  0  0  0  0  0  0  0
    6.6177  -12.1165   27.4535 C   0  0  0  0  0  0  0  0  0  0  0  0
    7.5506  -11.1992   27.0237 C   0  0  0  0  0  0  0  0  0  0  0  0
    8.3967  -11.4954   25.9810 C   0  0  0  0  0  0  0  0  0  0  0  0
    8.2840  -12.7275   25.3842 C   0  0  0  0  0  0  0  0  0  0  0  0
    7.3373  -13.6670   25.8155 C   0  0  0  0  0  0  0  0  0  0  0  0
    7.3202  -16.4952   21.9859 C   0  0  0  0  0  0  0  0  0  0  0  0
    7.3817  -17.6774   21.4854 O   0  0  0  0  0  0  0  0  0  0  0  0
    7.7939  -15.4362   21.1645 N   0  0  0  0  0  0  0  0  0  0  0  0
    7.8446  -14.0441   21.5382 C   0  0  0  0  0  0  0  0  0  0  0  0
    8.2069  -13.2841   20.2576 C   0  0  0  0  0  0  0  0  0  0  0  0
    7.8924  -14.3095   19.1526 C   0  0  0  0  0  0  0  0  0  0  0  0
    8.3037  -15.5788   19.8485 C   0  0  1  0  0  0  0  0  0  0  0  0
    9.7898  -15.6384   19.7843 C   0  0  0  0  0  0  0  0  0  0  0  0
   10.4668  -14.8601   20.4992 O   0  0  0  0  0  0  0  0  0  0  0  0
   11.5404  -18.7647   19.0731 C   0  0  0  0  0  0  0  0  0  0  0  0
   11.6456  -17.2984   19.3375 C   0  0  2  0  0  0  0  0  0  0  0  0
   10.4720  -16.5495   18.9380 N   0  0  0  0  0  0  0  0  0  0  0  0
   12.8059  -16.7313   18.5930 C   0  0  0  0  0  0  0  0  0  0  0  0
   13.9830  -17.1126   18.8114 O   0  0  0  0  0  0  0  0  0  0  0  0
   12.6267  -15.7437   17.6138 O   0  0  0  0  0  0  0  0  0  0  0  0
  2  1  1  1
  2 13  1  0
  3  2  1  0
  4  3  1  0
  4  5  2  0
  6  5  1  0
  7  6  1  0
  8  7  2  0
  9  8  1  0
 10  9  2  0
 10 11  1  0
 11 12  2  0
 12  7  1  0
 12  4  1  0
 13 14  2  0
 15 13  1  0
 15 16  1  0
 17 16  1  0
 18 17  1  0
 19 18  1  0
 19 15  1  0
 19 20  1  1
 21 20  2  0
 23 22  1  6
 23 24  1  0
 24 20  1  0
 25 23  1  0
 25 27  1  0
 26 25  2  0
M  END
$$$$
