WPA.pdb
     RDKit          3D

 27 29  0  0  1  0  0  0  0  0999 V2000
    5.8712  -17.7425   23.9278 N   0  0  0  0  0  0  0  0  0  0  0  0
    6.5359  -16.5159   23.6636 C   0  0  1  0  0  0  0  0  0  0  0  0
    7.3599  -15.9988   24.8139 C   0  0  0  0  0  0  0  0  0  0  0  0
    6.6502  -14.9985   25.6314 C   0  0  0  0  0  0  0  0  0  0  0  0
    5.4386  -15.1140   26.2672 C   0  0  0  0  0  0  0  0  0  0  0  0
    5.1883  -13.9593   26.8900 N   0  0  0  0  0  0  0  0  0  0  0  0
    6.1817  -13.1034   26.6861 C   0  0  0  0  0  0  0  0  0  0  0  0
    6.4309  -11.7952   27.0903 C   0  0  0  0  0  0  0  0  0  0  0  0
    7.5815  -11.1387   26.7138 C   0  0  0  0  0  0  0  0  0  0  0  0
    8.5188  -11.7628   25.9245 C   0  0  0  0  0  0  0  0  0  0  0  0
    8.2739  -13.0540   25.5249 C   0  0  0  0  0  0  0  0  0  0  0  0
    7.1055  -13.7295   25.9035 C   0  0  0  0  0  0  0  0  0  0  0  0
    7.3062  -16.5778   22.4040 C   0  0  0  0  0  0  0  0  0  0  0  0
    7.4265  -17.7196   21.8263 O   0  0  0  0  0  0  0  0  0  0  0  0
    7.9358  -15.4763   21.7632 N   0  0  0  0  0  0  0  0  0  0  0  0
    7.9108  -14.1108   22.2267 C   0  0  0  0  0  0  0  0  0  0  0  0
    8.5235  -13.2777   21.0956 C   0  0  0  0  0  0  0  0  0  0  0  0
    8.4372  -14.2285   19.8873 C   0  0  0  0  0  0  0  0  0  0  0  0
    8.6998  -15.5438   20.5699 C   0  0  1  0  0  0  0  0  0  0  0  0
   10.1684  -15.6186   20.8015 C   0  0  0  0  0  0  0  0  0  0  0  0
   10.9528  -15.3541   19.8583 O   0  0  0  0  0  0  0  0  0  0  0  0
   12.4413  -15.7554   23.8020 C   0  0  0  0  0  0  0  0  0  0  0  0
   12.1333  -15.9676   22.3559 C   0  0  2  0  0  0  0  0  0  0  0  0
   10.7159  -15.9810   22.0588 N   0  0  0  0  0  0  0  0  0  0  0  0
   12.6913  -17.2747   21.9057 C   0  0  0  0  0  0  0  0  0  0  0  0
   13.9116  -17.4186   21.6436 O   0  0  0  0  0  0  0  0  0  0  0  0
   11.8696  -18.4011   21.7565 O   0  0  0  0  0  0  0  0  0  0  0  0
  2  1  1  1
  2 13  1  0
  3  2  1  0
  4  3  1  0
  4  5  2  0
  6  5  1  0
  7  6  1  0
  8  7  2  0
  9  8  1  0
 10  9  2  0
 10 11  1  0
 11 12  2  0
 12  7  1  0
 12  4  1  0
 13 14  2  0
 15 13  1  0
 15 16  1  0
 17 16  1  0
 18 17  1  0
 19 18  1  0
 19 15  1  0
 19 20  1  1
 21 20  2  0
 23 22  1  1
 23 24  1  0
 24 20  1  0
 25 23  1  0
 25 27  1  0
 26 25  2  0
M  END
$$$$
