GSN.pdb
     RDKit          3D

 19 18  0  0  1  0  0  0  0  0999 V2000
   14.7572   -1.1859   -7.6753 N   0  0  0  0  0  0  0  0  0  0  0  0
   15.8607   -2.0792   -7.4912 C   0  0  0  0  0  0  0  0  0  0  0  0
   15.9614   -3.0943   -8.5697 C   0  0  0  0  0  0  0  0  0  0  0  0
   14.9286   -3.4452   -9.1931 O   0  0  0  0  0  0  0  0  0  0  0  0
   18.7682   -5.4333  -11.7199 O   0  0  0  0  0  0  0  0  0  0  0  0
   18.6935   -4.7000  -10.5576 C   0  0  0  0  0  0  0  0  0  0  0  0
   17.2706   -4.6140  -10.0204 C   0  0  2  0  0  0  0  0  0  0  0  0
   17.1989   -3.6916   -8.9279 N   0  0  0  0  0  0  0  0  0  0  0  0
   16.8661   -5.9896   -9.6304 C   0  0  0  0  0  0  0  0  0  0  0  0
   17.3530   -6.4774   -8.5781 O   0  0  0  0  0  0  0  0  0  0  0  0
   14.6767  -10.6460   -9.2615 N   0  0  0  0  0  0  0  0  0  0  0  0
   13.7233   -9.5885   -9.3075 C   0  0  0  0  0  0  0  0  0  0  0  0
   12.5610   -9.8220   -8.9304 O   0  0  0  0  0  0  0  0  0  0  0  0
   14.1044   -8.2562   -9.7889 C   0  0  0  0  0  0  0  0  0  0  0  0
   15.5617   -8.1336  -10.0265 C   0  0  2  0  0  0  0  0  0  0  0  0
   15.9681   -6.7779  -10.3728 N   0  0  0  0  0  0  0  0  0  0  0  0
   16.1517   -9.1249  -10.9187 C   0  0  0  0  0  0  0  0  0  0  0  0
   16.0912  -10.3639  -10.8328 O   0  0  0  0  0  0  0  0  0  0  0  0
   16.8834   -8.6367  -12.0180 O   0  0  0  0  0  0  0  0  0  0  0  0
  1  2  1  0
  3  4  2  0
  3  2  1  0
  7  6  1  1
  6  5  1  0
  7  8  1  0
  8  3  1  0
  9  7  1  0
 10  9  2  0
 11 12  1  0
 12 13  2  0
 14 12  1  0
 15 14  1  6
 15 17  1  0
 15 16  1  0
 16  9  1  0
 17 19  1  0
 18 17  2  0
M  END
$$$$
