GSN.pdb
     RDKit          3D

 19 18  0  0  1  0  0  0  0  0999 V2000
   11.4620  -11.3462  -10.2283 N   0  0  0  0  0  0  0  0  0  0  0  0
   12.4125  -11.7065  -11.2363 C   0  0  0  0  0  0  0  0  0  0  0  0
   13.7227  -11.0326  -11.0545 C   0  0  0  0  0  0  0  0  0  0  0  0
   14.0907  -10.6864   -9.9043 O   0  0  0  0  0  0  0  0  0  0  0  0
   17.8958   -9.4831  -13.0107 O   0  0  0  0  0  0  0  0  0  0  0  0
   16.6850  -10.1124  -13.1899 C   0  0  0  0  0  0  0  0  0  0  0  0
   15.8080  -10.0406  -11.9464 C   0  0  2  0  0  0  0  0  0  0  0  0
   14.5874  -10.7611  -12.1477 N   0  0  0  0  0  0  0  0  0  0  0  0
   15.5775   -8.6018  -11.6559 C   0  0  0  0  0  0  0  0  0  0  0  0
   14.7229   -7.9853  -12.3430 O   0  0  0  0  0  0  0  0  0  0  0  0
   15.3929   -7.5245   -6.7713 N   0  0  0  0  0  0  0  0  0  0  0  0
   15.0954   -6.8798   -8.0064 C   0  0  0  0  0  0  0  0  0  0  0  0
   13.9106   -6.8408   -8.3838 O   0  0  0  0  0  0  0  0  0  0  0  0
   16.1619   -6.2770   -8.8133 C   0  0  0  0  0  0  0  0  0  0  0  0
   15.9792   -6.5143  -10.2643 C   0  0  2  0  0  0  0  0  0  0  0  0
   16.2620   -7.8894  -10.6544 N   0  0  0  0  0  0  0  0  0  0  0  0
   16.6152   -5.5521  -11.1567 C   0  0  0  0  0  0  0  0  0  0  0  0
   16.4849   -4.3155  -11.1666 O   0  0  0  0  0  0  0  0  0  0  0  0
   17.4872   -6.0693  -12.1335 O   0  0  0  0  0  0  0  0  0  0  0  0
  1  2  1  0
  3  4  2  0
  3  2  1  0
  7  6  1  6
  6  5  1  0
  7  8  1  0
  8  3  1  0
  9  7  1  0
 10  9  2  0
 11 12  1  0
 12 13  2  0
 14 12  1  0
 15 14  1  1
 15 17  1  0
 15 16  1  0
 16  9  1  0
 17 19  1  0
 18 17  2  0
M  END
$$$$
