GSN.pdb
     RDKit          3D

 19 18  0  0  1  0  0  0  0  0999 V2000
   15.2773   -7.0580   -7.6025 N   0  0  0  0  0  0  0  0  0  0  0  0
   14.7818   -7.7453   -8.7564 C   0  0  0  0  0  0  0  0  0  0  0  0
   15.8689   -8.2717   -9.6196 C   0  0  0  0  0  0  0  0  0  0  0  0
   17.0374   -8.3585   -9.1664 O   0  0  0  0  0  0  0  0  0  0  0  0
   15.6083  -11.1314  -12.5352 O   0  0  0  0  0  0  0  0  0  0  0  0
   16.1985   -9.9590  -12.9492 C   0  0  0  0  0  0  0  0  0  0  0  0
   16.7171   -9.1304  -11.7809 C   0  0  2  0  0  0  0  0  0  0  0  0
   15.6336   -8.6864  -10.9572 N   0  0  0  0  0  0  0  0  0  0  0  0
   17.4938   -8.0016  -12.3556 C   0  0  0  0  0  0  0  0  0  0  0  0
   16.8655   -6.9831  -12.7434 O   0  0  0  0  0  0  0  0  0  0  0  0
   21.2768   -4.8942  -14.0584 N   0  0  0  0  0  0  0  0  0  0  0  0
   21.7952   -5.6778  -12.9876 C   0  0  0  0  0  0  0  0  0  0  0  0
   22.9351   -5.4188  -12.5619 O   0  0  0  0  0  0  0  0  0  0  0  0
   21.0027   -6.7644  -12.4018 C   0  0  0  0  0  0  0  0  0  0  0  0
   19.6845   -6.9240  -13.0593 C   0  0  2  0  0  0  0  0  0  0  0  0
   18.8941   -8.0077  -12.4904 N   0  0  0  0  0  0  0  0  0  0  0  0
   19.6954   -6.9634  -14.5170 C   0  0  0  0  0  0  0  0  0  0  0  0
   19.7422   -7.9630  -15.2550 O   0  0  0  0  0  0  0  0  0  0  0  0
   19.6475   -5.7265  -15.1878 O   0  0  0  0  0  0  0  0  0  0  0  0
  1  2  1  0
  3  4  2  0
  3  2  1  0
  7  6  1  6
  6  5  1  0
  7  8  1  0
  8  3  1  0
  9  7  1  0
 10  9  2  0
 11 12  1  0
 12 13  2  0
 14 12  1  0
 15 14  1  1
 15 17  1  0
 15 16  1  0
 16  9  1  0
 17 19  1  0
 18 17  2  0
M  END
$$$$
