GSN.pdb
     RDKit          3D

 19 18  0  0  1  0  0  0  0  0999 V2000
   14.2183  -10.8653  -10.3827 N   0  0  0  0  0  0  0  0  0  0  0  0
   15.3592  -10.2645   -9.7609 C   0  0  0  0  0  0  0  0  0  0  0  0
   15.6396   -8.9005  -10.2755 C   0  0  0  0  0  0  0  0  0  0  0  0
   15.7460   -8.7114  -11.5129 O   0  0  0  0  0  0  0  0  0  0  0  0
   16.4142   -5.6996   -7.6911 O   0  0  0  0  0  0  0  0  0  0  0  0
   15.8028   -5.4119   -8.8901 C   0  0  0  0  0  0  0  0  0  0  0  0
   16.0609   -6.4842   -9.9409 C   0  0  2  0  0  0  0  0  0  0  0  0
   15.7943   -7.7862   -9.4088 N   0  0  0  0  0  0  0  0  0  0  0  0
   17.4698   -6.3299  -10.3869 C   0  0  0  0  0  0  0  0  0  0  0  0
   18.3739   -6.8736   -9.7018 O   0  0  0  0  0  0  0  0  0  0  0  0
   22.1980   -6.3045  -12.3703 N   0  0  0  0  0  0  0  0  0  0  0  0
   21.0591   -6.8841  -12.9998 C   0  0  0  0  0  0  0  0  0  0  0  0
   21.1899   -7.3540  -14.1442 O   0  0  0  0  0  0  0  0  0  0  0  0
   19.7631   -6.9248  -12.3137 C   0  0  0  0  0  0  0  0  0  0  0  0
   19.1952   -5.5744  -12.0920 C   0  0  2  0  0  0  0  0  0  0  0  0
   17.8499   -5.6092  -11.5337 N   0  0  0  0  0  0  0  0  0  0  0  0
   19.2982   -4.6438  -13.2101 C   0  0  0  0  0  0  0  0  0  0  0  0
   18.3967   -4.2714  -13.9812 O   0  0  0  0  0  0  0  0  0  0  0  0
   20.5675   -4.0890  -13.4619 O   0  0  0  0  0  0  0  0  0  0  0  0
  1  2  1  0
  3  4  2  0
  3  2  1  0
  7  6  1  1
  6  5  1  0
  7  8  1  0
  8  3  1  0
  9  7  1  0
 10  9  2  0
 11 12  1  0
 12 13  2  0
 14 12  1  0
 15 14  1  6
 15 17  1  0
 15 16  1  0
 16  9  1  0
 17 19  1  0
 18 17  2  0
M  END
$$$$
