GSN.pdb
     RDKit          3D

 19 18  0  0  1  0  0  0  0  0999 V2000
   18.4047  -12.2100  -16.9790 N   0  0  0  0  0  0  0  0  0  0  0  0
   18.9450  -10.9590  -17.4177 C   0  0  0  0  0  0  0  0  0  0  0  0
   19.4063  -10.1084  -16.2918 C   0  0  0  0  0  0  0  0  0  0  0  0
   18.5631   -9.5248  -15.5660 O   0  0  0  0  0  0  0  0  0  0  0  0
   23.4995   -9.7134  -15.2575 O   0  0  0  0  0  0  0  0  0  0  0  0
   22.5057   -9.6512  -14.3074 C   0  0  0  0  0  0  0  0  0  0  0  0
   21.1918   -9.1353  -14.8800 C   0  0  2  0  0  0  0  0  0  0  0  0
   20.7844   -9.9276  -16.0006 N   0  0  0  0  0  0  0  0  0  0  0  0
   21.4008   -7.7085  -15.2385 C   0  0  0  0  0  0  0  0  0  0  0  0
   21.9367   -7.4454  -16.3457 O   0  0  0  0  0  0  0  0  0  0  0  0
   19.5177   -2.3444  -16.1323 N   0  0  0  0  0  0  0  0  0  0  0  0
   20.2028   -3.0393  -15.0944 C   0  0  0  0  0  0  0  0  0  0  0  0
   20.9939   -2.4016  -14.3766 O   0  0  0  0  0  0  0  0  0  0  0  0
   19.9799   -4.4731  -14.8783 C   0  0  0  0  0  0  0  0  0  0  0  0
   21.2456   -5.2266  -14.7179 C   0  0  2  0  0  0  0  0  0  0  0  0
   21.0325   -6.6343  -14.4082 N   0  0  0  0  0  0  0  0  0  0  0  0
   22.2463   -4.6215  -13.8466 C   0  0  0  0  0  0  0  0  0  0  0  0
   22.9694   -3.6373  -14.0800 O   0  0  0  0  0  0  0  0  0  0  0  0
   22.4294   -5.2115  -12.5815 O   0  0  0  0  0  0  0  0  0  0  0  0
  1  2  1  0
  3  4  2  0
  3  2  1  0
  7  6  1  6
  6  5  1  0
  7  8  1  0
  8  3  1  0
  9  7  1  0
 10  9  2  0
 11 12  1  0
 12 13  2  0
 14 12  1  0
 15 14  1  1
 15 17  1  0
 15 16  1  0
 16  9  1  0
 17 19  1  0
 18 17  2  0
M  END
$$$$
