DMA.pdb
     RDKit          3D

 22 21  0  0  1  0  0  0  0  0999 V2000
    7.5874  -16.9021   21.4422 N   0  0  0  0  0  0  0  0  0  0  0  0
    8.9386  -16.4443   21.6710 C   0  0  1  0  0  0  0  0  0  0  0  0
    9.2796  -15.4320   20.5971 C   0  0  0  0  0  0  0  0  0  0  0  0
    9.4445  -16.1268   19.3071 C   0  0  0  0  0  0  0  0  0  0  0  0
    9.8698  -15.4765   18.3229 O   0  0  0  0  0  0  0  0  0  0  0  0
    9.0873  -15.8068   23.0025 C   0  0  0  0  0  0  0  0  0  0  0  0
   10.1770  -15.3339   23.3960 O   0  0  0  0  0  0  0  0  0  0  0  0
    9.1341  -17.4586   19.2030 O   0  0  0  0  0  0  0  0  0  0  0  0
    7.2473  -11.2126   27.0972 C   0  0  0  0  0  0  0  0  0  0  0  0
    6.0888  -11.7679   25.8200 S   0  0  0  0  0  0  0  0  0  0  0  0
    6.9038  -12.9645   24.6939 C   0  0  0  0  0  0  0  0  0  0  0  0
    6.8570  -14.2986   25.4115 C   0  0  0  0  0  0  0  0  0  0  0  0
    8.1148  -15.1164   25.2160 C   0  0  2  0  0  0  0  0  0  0  0  0
    7.9794  -15.7151   23.8794 N   0  0  0  0  0  0  0  0  0  0  0  0
    8.2817  -16.1912   26.2046 C   0  0  0  0  0  0  0  0  0  0  0  0
    8.4524  -15.9333   27.4069 O   0  0  0  0  0  0  0  0  0  0  0  0
    7.8313  -19.8752   26.2158 C   0  0  0  0  0  0  0  0  0  0  0  0
    8.4023  -18.5909   26.7773 C   0  0  2  0  0  0  0  0  0  0  0  0
    8.2497  -17.5458   25.7952 N   0  0  0  0  0  0  0  0  0  0  0  0
    9.8488  -18.8629   27.0625 C   0  0  0  0  0  0  0  0  0  0  0  0
   10.1387  -19.7766   28.0650 O   0  0  0  0  0  0  0  0  0  0  0  0
   10.7689  -18.2984   26.4324 O   0  0  0  0  0  0  0  0  0  0  0  0
  2  1  1  6
  3  4  1  0
  3  2  1  0
  4  5  2  0
  6  7  2  0
  6  2  1  0
  8  4  1  0
  9 10  1  0
 11 10  1  0
 11 12  1  0
 13 12  1  1
 13 14  1  0
 13 15  1  0
 14  6  1  0
 15 19  1  0
 16 15  2  0
 18 17  1  6
 18 20  1  0
 19 18  1  0
 20 22  2  0
 20 21  1  0
M  END
$$$$
