DMA.pdb
     RDKit          3D

 22 21  0  0  1  0  0  0  0  0999 V2000
    7.2093  -15.2255   19.9909 N   0  0  0  0  0  0  0  0  0  0  0  0
    8.3170  -16.0344   20.4452 C   0  0  1  0  0  0  0  0  0  0  0  0
    9.4157  -15.9525   19.4057 C   0  0  0  0  0  0  0  0  0  0  0  0
    8.9771  -16.6411   18.1779 C   0  0  0  0  0  0  0  0  0  0  0  0
    7.7937  -17.0499   18.1066 O   0  0  0  0  0  0  0  0  0  0  0  0
    8.8469  -15.5627   21.7484 C   0  0  0  0  0  0  0  0  0  0  0  0
   10.0414  -15.2207   21.8967 O   0  0  0  0  0  0  0  0  0  0  0  0
    9.8590  -16.8226   17.1434 O   0  0  0  0  0  0  0  0  0  0  0  0
    6.9560  -10.9405   26.3891 C   0  0  0  0  0  0  0  0  0  0  0  0
    6.3890  -12.6344   26.6906 S   0  0  0  0  0  0  0  0  0  0  0  0
    7.6970  -13.8372   26.2359 C   0  0  0  0  0  0  0  0  0  0  0  0
    7.4280  -14.2071   24.7910 C   0  0  0  0  0  0  0  0  0  0  0  0
    8.5173  -15.0695   24.1918 C   0  0  2  0  0  0  0  0  0  0  0  0
    7.9989  -15.4856   22.8797 N   0  0  0  0  0  0  0  0  0  0  0  0
    8.8260  -16.2685   24.9839 C   0  0  0  0  0  0  0  0  0  0  0  0
    7.9635  -17.1367   25.1923 O   0  0  0  0  0  0  0  0  0  0  0  0
   11.8545  -18.0625   25.9440 C   0  0  0  0  0  0  0  0  0  0  0  0
   10.4283  -17.6584   26.2495 C   0  0  2  0  0  0  0  0  0  0  0  0
   10.1217  -16.4503   25.5240 N   0  0  0  0  0  0  0  0  0  0  0  0
   10.3623  -17.4355   27.7307 C   0  0  0  0  0  0  0  0  0  0  0  0
   10.6232  -18.5239   28.5500 O   0  0  0  0  0  0  0  0  0  0  0  0
   10.0850  -16.3212   28.2242 O   0  0  0  0  0  0  0  0  0  0  0  0
  2  1  1  6
  3  4  1  0
  3  2  1  0
  4  5  2  0
  6  7  2  0
  6  2  1  0
  8  4  1  0
  9 10  1  0
 11 10  1  0
 11 12  1  0
 13 12  1  1
 13 14  1  0
 13 15  1  0
 14  6  1  0
 15 19  1  0
 16 15  2  0
 18 17  1  1
 18 20  1  0
 19 18  1  0
 20 22  2  0
 20 21  1  0
M  END
$$$$
