DMA.pdb
     RDKit          3D

 22 21  0  0  1  0  0  0  0  0999 V2000
   10.1753  -16.2200   20.3994 N   0  0  0  0  0  0  0  0  0  0  0  0
   10.0161  -16.9066   21.6608 C   0  0  1  0  0  0  0  0  0  0  0  0
   11.2002  -17.8332   21.8437 C   0  0  0  0  0  0  0  0  0  0  0  0
   11.1627  -18.8821   20.8081 C   0  0  0  0  0  0  0  0  0  0  0  0
   10.0751  -19.4624   20.5778 O   0  0  0  0  0  0  0  0  0  0  0  0
    9.9613  -15.9594   22.8015 C   0  0  0  0  0  0  0  0  0  0  0  0
   10.8708  -15.1285   23.0210 O   0  0  0  0  0  0  0  0  0  0  0  0
   12.3041  -19.2045   20.1195 O   0  0  0  0  0  0  0  0  0  0  0  0
    6.2404  -11.0383   26.0883 C   0  0  0  0  0  0  0  0  0  0  0  0
    5.7532  -12.7335   25.6755 S   0  0  0  0  0  0  0  0  0  0  0  0
    7.0263  -13.9226   26.2495 C   0  0  0  0  0  0  0  0  0  0  0  0
    7.3062  -14.8256   25.0650 C   0  0  0  0  0  0  0  0  0  0  0  0
    8.7846  -15.0388   24.8239 C   0  0  2  0  0  0  0  0  0  0  0  0
    8.8577  -15.9710   23.6885 N   0  0  0  0  0  0  0  0  0  0  0  0
    9.4924  -15.6275   25.9698 C   0  0  0  0  0  0  0  0  0  0  0  0
    9.6982  -16.8500   26.0346 O   0  0  0  0  0  0  0  0  0  0  0  0
   11.0501  -14.3008   29.1021 C   0  0  0  0  0  0  0  0  0  0  0  0
   10.7917  -15.3612   28.0534 C   0  0  2  0  0  0  0  0  0  0  0  0
    9.9523  -14.8013   27.0229 N   0  0  0  0  0  0  0  0  0  0  0  0
   10.1061  -16.4924   28.7590 C   0  0  0  0  0  0  0  0  0  0  0  0
    8.7506  -16.6635   28.5194 O   0  0  0  0  0  0  0  0  0  0  0  0
   10.7155  -17.2598   29.5350 O   0  0  0  0  0  0  0  0  0  0  0  0
  2  1  1  6
  3  4  1  0
  3  2  1  0
  4  5  2  0
  6  7  2  0
  6  2  1  0
  8  4  1  0
  9 10  1  0
 11 10  1  0
 11 12  1  0
 13 12  1  1
 13 14  1  0
 13 15  1  0
 14  6  1  0
 15 19  1  0
 16 15  2  0
 18 17  1  1
 18 20  1  0
 19 18  1  0
 20 22  2  0
 20 21  1  0
M  END
$$$$
