DMA.pdb
     RDKit          3D

 22 21  0  0  1  0  0  0  0  0999 V2000
   10.0917  -17.9735   17.5899 N   0  0  0  0  0  0  0  0  0  0  0  0
   11.4037  -17.4049   17.7973 C   0  0  1  0  0  0  0  0  0  0  0  0
   11.6888  -16.4525   16.6546 C   0  0  0  0  0  0  0  0  0  0  0  0
   11.9521  -17.2277   15.4283 C   0  0  0  0  0  0  0  0  0  0  0  0
   11.0295  -17.3591   14.5891 O   0  0  0  0  0  0  0  0  0  0  0  0
   11.4870  -16.6623   19.0791 C   0  0  0  0  0  0  0  0  0  0  0  0
   12.5371  -16.0925   19.4513 O   0  0  0  0  0  0  0  0  0  0  0  0
   13.1875  -17.7875   15.2251 O   0  0  0  0  0  0  0  0  0  0  0  0
    7.1131  -11.7779   19.4071 C   0  0  0  0  0  0  0  0  0  0  0  0
    7.3260  -13.2263   20.4741 S   0  0  0  0  0  0  0  0  0  0  0  0
    9.0241  -13.8993   20.3075 C   0  0  0  0  0  0  0  0  0  0  0  0
    9.0919  -15.0780   21.2578 C   0  0  0  0  0  0  0  0  0  0  0  0
   10.4114  -15.8151   21.1880 C   0  0  2  0  0  0  0  0  0  0  0  0
   10.3592  -16.5771   19.9310 N   0  0  0  0  0  0  0  0  0  0  0  0
   10.6275  -16.7488   22.3024 C   0  0  0  0  0  0  0  0  0  0  0  0
   10.0188  -17.8293   22.3584 O   0  0  0  0  0  0  0  0  0  0  0  0
   13.0009  -17.0163   25.1502 C   0  0  0  0  0  0  0  0  0  0  0  0
   11.6872  -17.3151   24.4605 C   0  0  2  0  0  0  0  0  0  0  0  0
   11.5401  -16.4255   23.3349 N   0  0  0  0  0  0  0  0  0  0  0  0
   10.6139  -17.0834   25.4813 C   0  0  0  0  0  0  0  0  0  0  0  0
   10.5518  -17.9650   26.5504 O   0  0  0  0  0  0  0  0  0  0  0  0
    9.7998  -16.1395   25.3885 O   0  0  0  0  0  0  0  0  0  0  0  0
  2  1  1  6
  3  4  1  0
  3  2  1  0
  4  5  2  0
  6  7  2  0
  6  2  1  0
  8  4  1  0
  9 10  1  0
 11 10  1  0
 11 12  1  0
 13 12  1  1
 13 14  1  0
 13 15  1  0
 14  6  1  0
 15 19  1  0
 16 15  2  0
 18 17  1  1
 18 20  1  0
 19 18  1  0
 20 22  2  0
 20 21  1  0
M  END
$$$$
