DMA.pdb
     RDKit          3D

 22 21  0  0  1  0  0  0  0  0999 V2000
    8.2982  -17.3339   21.3549 N   0  0  0  0  0  0  0  0  0  0  0  0
    9.6502  -16.8535   21.5253 C   0  0  1  0  0  0  0  0  0  0  0  0
   10.0362  -16.0851   20.2784 C   0  0  0  0  0  0  0  0  0  0  0  0
   10.1077  -17.0144   19.1359 C   0  0  0  0  0  0  0  0  0  0  0  0
    9.7918  -18.2147   19.3152 O   0  0  0  0  0  0  0  0  0  0  0  0
    9.7739  -15.9596   22.7030 C   0  0  0  0  0  0  0  0  0  0  0  0
   10.8523  -15.4008   23.0042 O   0  0  0  0  0  0  0  0  0  0  0  0
   10.5140  -16.5585   17.9079 O   0  0  0  0  0  0  0  0  0  0  0  0
    5.9952  -10.7744   26.4451 C   0  0  0  0  0  0  0  0  0  0  0  0
    5.8523  -12.5654   26.2135 S   0  0  0  0  0  0  0  0  0  0  0  0
    7.5128  -13.3445   26.2122 C   0  0  0  0  0  0  0  0  0  0  0  0
    7.6360  -14.0423   24.8725 C   0  0  0  0  0  0  0  0  0  0  0  0
    8.7997  -15.0077   24.8166 C   0  0  2  0  0  0  0  0  0  0  0  0
    8.6539  -15.7105   23.5327 N   0  0  0  0  0  0  0  0  0  0  0  0
    8.8009  -15.9970   25.9037 C   0  0  0  0  0  0  0  0  0  0  0  0
    8.7744  -15.6406   27.0925 O   0  0  0  0  0  0  0  0  0  0  0  0
    8.3260  -19.6488   26.2201 C   0  0  0  0  0  0  0  0  0  0  0  0
    8.9264  -18.3381   26.6809 C   0  0  2  0  0  0  0  0  0  0  0  0
    8.8326  -17.3805   25.6066 N   0  0  0  0  0  0  0  0  0  0  0  0
   10.3557  -18.6290   27.0277 C   0  0  0  0  0  0  0  0  0  0  0  0
   10.5901  -19.4890   28.0904 O   0  0  0  0  0  0  0  0  0  0  0  0
   11.3094  -18.1257   26.3957 O   0  0  0  0  0  0  0  0  0  0  0  0
  2  1  1  6
  3  4  1  0
  3  2  1  0
  4  5  2  0
  6  7  2  0
  6  2  1  0
  8  4  1  0
  9 10  1  0
 11 10  1  0
 11 12  1  0
 13 12  1  1
 13 14  1  0
 13 15  1  0
 14  6  1  0
 15 19  1  0
 16 15  2  0
 18 17  1  6
 18 20  1  0
 19 18  1  0
 20 22  2  0
 20 21  1  0
M  END
$$$$
