DMA.pdb
     RDKit          3D

 22 21  0  0  1  0  0  0  0  0999 V2000
    8.2346  -16.7356   20.6990 N   0  0  0  0  0  0  0  0  0  0  0  0
    9.6410  -16.6438   21.0176 C   0  0  1  0  0  0  0  0  0  0  0  0
   10.2701  -15.6345   20.0797 C   0  0  0  0  0  0  0  0  0  0  0  0
   10.5127  -16.2701   18.7715 C   0  0  0  0  0  0  0  0  0  0  0  0
   10.6485  -15.5382   17.7623 O   0  0  0  0  0  0  0  0  0  0  0  0
    9.8621  -16.2071   22.4183 C   0  0  0  0  0  0  0  0  0  0  0  0
   11.0006  -15.9290   22.8569 O   0  0  0  0  0  0  0  0  0  0  0  0
   10.5855  -17.6364   18.6780 O   0  0  0  0  0  0  0  0  0  0  0  0
    6.8143  -11.1116   26.4119 C   0  0  0  0  0  0  0  0  0  0  0  0
    6.7225  -12.9206   26.3815 S   0  0  0  0  0  0  0  0  0  0  0  0
    7.7902  -13.5929   25.0501 C   0  0  0  0  0  0  0  0  0  0  0  0
    7.7164  -15.1003   25.1887 C   0  0  0  0  0  0  0  0  0  0  0  0
    8.9822  -15.7954   24.7374 C   0  0  2  0  0  0  0  0  0  0  0  0
    8.7703  -16.0913   23.3123 N   0  0  0  0  0  0  0  0  0  0  0  0
    9.2535  -17.0522   25.4496 C   0  0  0  0  0  0  0  0  0  0  0  0
    8.4377  -17.9877   25.4290 O   0  0  0  0  0  0  0  0  0  0  0  0
   12.0523  -18.9690   26.5705 C   0  0  0  0  0  0  0  0  0  0  0  0
   10.6838  -18.4263   26.9218 C   0  0  2  0  0  0  0  0  0  0  0  0
   10.4586  -17.2136   26.1743 N   0  0  0  0  0  0  0  0  0  0  0  0
   10.7024  -18.1608   28.3972 C   0  0  0  0  0  0  0  0  0  0  0  0
   10.9208  -19.2439   29.2357 O   0  0  0  0  0  0  0  0  0  0  0  0
   10.5301  -17.0166   28.8697 O   0  0  0  0  0  0  0  0  0  0  0  0
  2  1  1  6
  3  4  1  0
  3  2  1  0
  4  5  2  0
  6  7  2  0
  6  2  1  0
  8  4  1  0
  9 10  1  0
 11 10  1  0
 11 12  1  0
 13 12  1  1
 13 14  1  0
 13 15  1  0
 14  6  1  0
 15 19  1  0
 16 15  2  0
 18 17  1  6
 18 20  1  0
 19 18  1  0
 20 22  2  0
 20 21  1  0
M  END
$$$$
