DMA.pdb
     RDKit          3D

 22 21  0  0  1  0  0  0  0  0999 V2000
    7.3569  -16.8758   21.5749 N   0  0  0  0  0  0  0  0  0  0  0  0
    8.7548  -16.5141   21.6305 C   0  0  1  0  0  0  0  0  0  0  0  0
    9.0377  -15.5564   20.4917 C   0  0  0  0  0  0  0  0  0  0  0  0
    8.9979  -16.2925   19.2147 C   0  0  0  0  0  0  0  0  0  0  0  0
    7.9062  -16.3804   18.6040 O   0  0  0  0  0  0  0  0  0  0  0  0
    9.1042  -15.8571   22.9142 C   0  0  0  0  0  0  0  0  0  0  0  0
   10.2582  -15.4371   23.1544 O   0  0  0  0  0  0  0  0  0  0  0  0
   10.1419  -16.8637   18.7186 O   0  0  0  0  0  0  0  0  0  0  0  0
    6.5154  -11.2708   26.9363 C   0  0  0  0  0  0  0  0  0  0  0  0
    6.0365  -11.8227   25.2787 S   0  0  0  0  0  0  0  0  0  0  0  0
    7.3011  -12.9609   24.5934 C   0  0  0  0  0  0  0  0  0  0  0  0
    7.3448  -14.1424   25.5416 C   0  0  0  0  0  0  0  0  0  0  0  0
    8.4672  -15.1073   25.2281 C   0  0  2  0  0  0  0  0  0  0  0  0
    8.1226  -15.6848   23.9199 N   0  0  0  0  0  0  0  0  0  0  0  0
    8.6038  -16.1947   26.2076 C   0  0  0  0  0  0  0  0  0  0  0  0
    8.9073  -15.9577   27.3878 O   0  0  0  0  0  0  0  0  0  0  0  0
    7.6665  -19.7547   26.3973 C   0  0  0  0  0  0  0  0  0  0  0  0
    8.5666  -18.5982   26.7755 C   0  0  2  0  0  0  0  0  0  0  0  0
    8.3895  -17.5375   25.8146 N   0  0  0  0  0  0  0  0  0  0  0  0
    9.9683  -19.1295   26.7477 C   0  0  0  0  0  0  0  0  0  0  0  0
   10.3194  -20.0497   27.7244 O   0  0  0  0  0  0  0  0  0  0  0  0
   10.7996  -18.7689   25.8868 O   0  0  0  0  0  0  0  0  0  0  0  0
  2  1  1  1
  3  4  1  0
  3  2  1  0
  4  5  2  0
  6  7  2  0
  6  2  1  0
  8  4  1  0
  9 10  1  0
 11 10  1  0
 11 12  1  0
 13 12  1  1
 13 14  1  0
 13 15  1  0
 14  6  1  0
 15 19  1  0
 16 15  2  0
 18 17  1  6
 18 20  1  0
 19 18  1  0
 20 22  2  0
 20 21  1  0
M  END
$$$$
