DMA.pdb
     RDKit          3D

 22 21  0  0  1  0  0  0  0  0999 V2000
    9.2498  -15.1150   19.8113 N   0  0  0  0  0  0  0  0  0  0  0  0
    8.7028  -16.0739   20.7435 C   0  0  1  0  0  0  0  0  0  0  0  0
    9.1751  -17.4525   20.3303 C   0  0  0  0  0  0  0  0  0  0  0  0
    8.5520  -17.8160   19.0444 C   0  0  0  0  0  0  0  0  0  0  0  0
    7.3350  -17.5667   18.8730 O   0  0  0  0  0  0  0  0  0  0  0  0
    9.1460  -15.8065   22.1340 C   0  0  0  0  0  0  0  0  0  0  0  0
   10.3377  -15.5477   22.4146 O   0  0  0  0  0  0  0  0  0  0  0  0
    9.3032  -18.4145   18.0653 O   0  0  0  0  0  0  0  0  0  0  0  0
    6.8129  -10.7938   26.3690 C   0  0  0  0  0  0  0  0  0  0  0  0
    6.8266  -12.5994   26.5148 S   0  0  0  0  0  0  0  0  0  0  0  0
    7.3960  -13.3633   24.9474 C   0  0  0  0  0  0  0  0  0  0  0  0
    7.4310  -14.8557   25.2089 C   0  0  0  0  0  0  0  0  0  0  0  0
    8.6270  -15.5356   24.5793 C   0  0  2  0  0  0  0  0  0  0  0  0
    8.2147  -15.8376   23.2001 N   0  0  0  0  0  0  0  0  0  0  0  0
    9.0150  -16.7872   25.2453 C   0  0  0  0  0  0  0  0  0  0  0  0
    8.2002  -17.7122   25.3926 O   0  0  0  0  0  0  0  0  0  0  0  0
   12.1722  -18.4583   26.1047 C   0  0  0  0  0  0  0  0  0  0  0  0
   10.7055  -18.1945   26.3689 C   0  0  2  0  0  0  0  0  0  0  0  0
   10.3336  -16.9554   25.7313 N   0  0  0  0  0  0  0  0  0  0  0  0
   10.5553  -18.1068   27.8581 C   0  0  0  0  0  0  0  0  0  0  0  0
   10.8644  -19.2397   28.5964 O   0  0  0  0  0  0  0  0  0  0  0  0
   10.1687  -17.0636   28.4277 O   0  0  0  0  0  0  0  0  0  0  0  0
  2  1  1  6
  3  4  1  0
  3  2  1  0
  4  5  2  0
  6  7  2  0
  6  2  1  0
  8  4  1  0
  9 10  1  0
 11 10  1  0
 11 12  1  0
 13 12  1  1
 13 14  1  0
 13 15  1  0
 14  6  1  0
 15 19  1  0
 16 15  2  0
 18 17  1  1
 18 20  1  0
 19 18  1  0
 20 22  2  0
 20 21  1  0
M  END
$$$$
