DMA.pdb
     RDKit          3D

 22 21  0  0  1  0  0  0  0  0999 V2000
    7.6904  -17.0005   20.9021 N   0  0  0  0  0  0  0  0  0  0  0  0
    8.9728  -16.3627   21.0928 C   0  0  1  0  0  0  0  0  0  0  0  0
    9.1918  -15.3967   19.9468 C   0  0  0  0  0  0  0  0  0  0  0  0
    9.2094  -16.1442   18.6760 C   0  0  0  0  0  0  0  0  0  0  0  0
    9.7322  -17.2838   18.6548 O   0  0  0  0  0  0  0  0  0  0  0  0
    9.0330  -15.6164   22.3738 C   0  0  0  0  0  0  0  0  0  0  0  0
   10.0759  -15.0445   22.7625 O   0  0  0  0  0  0  0  0  0  0  0  0
    8.6603  -15.5891   17.5484 O   0  0  0  0  0  0  0  0  0  0  0  0
    7.1786  -10.8874   27.1196 C   0  0  0  0  0  0  0  0  0  0  0  0
    7.3828  -12.0276   25.7267 S   0  0  0  0  0  0  0  0  0  0  0  0
    6.3099  -13.4995   25.9425 C   0  0  0  0  0  0  0  0  0  0  0  0
    6.4850  -14.3216   24.6814 C   0  0  0  0  0  0  0  0  0  0  0  0
    7.9168  -14.7555   24.4558 C   0  0  2  0  0  0  0  0  0  0  0  0
    7.8905  -15.5301   23.2057 N   0  0  0  0  0  0  0  0  0  0  0  0
    8.4548  -15.6028   25.5298 C   0  0  0  0  0  0  0  0  0  0  0  0
    8.6042  -15.1595   26.6797 O   0  0  0  0  0  0  0  0  0  0  0  0
    9.4434  -19.1873   25.8629 C   0  0  0  0  0  0  0  0  0  0  0  0
    9.4240  -17.7392   26.3025 C   0  0  2  0  0  0  0  0  0  0  0  0
    8.8125  -16.9463   25.2645 N   0  0  0  0  0  0  0  0  0  0  0  0
   10.8546  -17.3454   26.5168 C   0  0  0  0  0  0  0  0  0  0  0  0
   11.5525  -18.0040   27.5184 O   0  0  0  0  0  0  0  0  0  0  0  0
   11.4116  -16.4618   25.8303 O   0  0  0  0  0  0  0  0  0  0  0  0
  2  1  1  6
  3  4  1  0
  3  2  1  0
  4  5  2  0
  6  7  2  0
  6  2  1  0
  8  4  1  0
  9 10  1  0
 11 10  1  0
 11 12  1  0
 13 12  1  1
 13 14  1  0
 13 15  1  0
 14  6  1  0
 15 19  1  0
 16 15  2  0
 18 17  1  6
 18 20  1  0
 19 18  1  0
 20 22  2  0
 20 21  1  0
M  END
$$$$
