DMA.pdb
     RDKit          3D

 22 21  0  0  1  0  0  0  0  0999 V2000
   10.1429  -15.4465   20.6488 N   0  0  0  0  0  0  0  0  0  0  0  0
    9.2479  -16.1913   21.5044 C   0  0  1  0  0  0  0  0  0  0  0  0
    9.6933  -17.6390   21.5031 C   0  0  0  0  0  0  0  0  0  0  0  0
    9.3437  -18.2552   20.2100 C   0  0  0  0  0  0  0  0  0  0  0  0
    8.8802  -17.5261   19.3011 O   0  0  0  0  0  0  0  0  0  0  0  0
    9.2638  -15.6807   22.8975 C   0  0  0  0  0  0  0  0  0  0  0  0
   10.2613  -15.1016   23.3827 O   0  0  0  0  0  0  0  0  0  0  0  0
    9.5283  -19.6011   20.0216 O   0  0  0  0  0  0  0  0  0  0  0  0
    6.8913  -10.6669   26.2139 C   0  0  0  0  0  0  0  0  0  0  0  0
    7.1339  -12.4488   26.4326 S   0  0  0  0  0  0  0  0  0  0  0  0
    6.4676  -13.3667   24.9911 C   0  0  0  0  0  0  0  0  0  0  0  0
    6.6759  -14.8338   25.3087 C   0  0  0  0  0  0  0  0  0  0  0  0
    8.1037  -15.2857   25.0929 C   0  0  2  0  0  0  0  0  0  0  0  0
    8.1294  -15.8383   23.7301 N   0  0  0  0  0  0  0  0  0  0  0  0
    8.5451  -16.3232   26.0359 C   0  0  0  0  0  0  0  0  0  0  0  0
    8.5150  -16.1278   27.2615 O   0  0  0  0  0  0  0  0  0  0  0  0
    9.6896  -19.8653   25.7764 C   0  0  0  0  0  0  0  0  0  0  0  0
    9.5554  -18.5327   26.4813 C   0  0  2  0  0  0  0  0  0  0  0  0
    9.0143  -17.5689   25.5548 N   0  0  0  0  0  0  0  0  0  0  0  0
   10.9362  -18.1487   26.9216 C   0  0  0  0  0  0  0  0  0  0  0  0
   11.4963  -17.0182   26.3452 O   0  0  0  0  0  0  0  0  0  0  0  0
   11.5711  -18.8088   27.7721 O   0  0  0  0  0  0  0  0  0  0  0  0
  2  1  1  6
  3  4  1  0
  3  2  1  0
  4  5  2  0
  6  7  2  0
  6  2  1  0
  8  4  1  0
  9 10  1  0
 11 10  1  0
 11 12  1  0
 13 12  1  1
 13 14  1  0
 13 15  1  0
 14  6  1  0
 15 19  1  0
 16 15  2  0
 18 17  1  6
 18 20  1  0
 19 18  1  0
 20 22  2  0
 20 21  1  0
M  END
$$$$
