DMA.pdb
     RDKit          3D

 22 21  0  0  1  0  0  0  0  0999 V2000
    8.2766  -17.7477   21.0153 N   0  0  0  0  0  0  0  0  0  0  0  0
    9.6638  -17.4620   21.3017 C   0  0  1  0  0  0  0  0  0  0  0  0
   10.3245  -17.0077   20.0167 C   0  0  0  0  0  0  0  0  0  0  0  0
   10.0433  -17.9873   18.9513 C   0  0  0  0  0  0  0  0  0  0  0  0
   10.1223  -19.2095   19.2207 O   0  0  0  0  0  0  0  0  0  0  0  0
    9.8081  -16.3962   22.3238 C   0  0  0  0  0  0  0  0  0  0  0  0
   10.9174  -15.8910   22.6065 O   0  0  0  0  0  0  0  0  0  0  0  0
    9.7032  -17.5533   17.6955 O   0  0  0  0  0  0  0  0  0  0  0  0
    5.6917  -11.5626   26.6745 C   0  0  0  0  0  0  0  0  0  0  0  0
    6.4149  -13.0927   26.0283 S   0  0  0  0  0  0  0  0  0  0  0  0
    7.5979  -12.7201   24.6770 C   0  0  0  0  0  0  0  0  0  0  0  0
    7.5992  -13.9454   23.7852 C   0  0  0  0  0  0  0  0  0  0  0  0
    8.7932  -14.8442   24.0218 C   0  0  2  0  0  0  0  0  0  0  0  0
    8.6730  -15.9137   23.0193 N   0  0  0  0  0  0  0  0  0  0  0  0
    8.8231  -15.4483   25.3615 C   0  0  0  0  0  0  0  0  0  0  0  0
    9.0356  -14.7566   26.3702 O   0  0  0  0  0  0  0  0  0  0  0  0
    7.7957  -18.7150   26.7836 C   0  0  0  0  0  0  0  0  0  0  0  0
    8.5488  -17.4035   26.8456 C   0  0  2  0  0  0  0  0  0  0  0  0
    8.6081  -16.8383   25.5201 N   0  0  0  0  0  0  0  0  0  0  0  0
    9.9187  -17.7290   27.3604 C   0  0  0  0  0  0  0  0  0  0  0  0
   10.0081  -18.2644   28.6369 O   0  0  0  0  0  0  0  0  0  0  0  0
   10.9491  -17.5324   26.6808 O   0  0  0  0  0  0  0  0  0  0  0  0
  2  1  1  6
  3  4  1  0
  3  2  1  0
  4  5  2  0
  6  7  2  0
  6  2  1  0
  8  4  1  0
  9 10  1  0
 11 10  1  0
 11 12  1  0
 13 12  1  1
 13 14  1  0
 13 15  1  0
 14  6  1  0
 15 19  1  0
 16 15  2  0
 18 17  1  6
 18 20  1  0
 19 18  1  0
 20 22  2  0
 20 21  1  0
M  END
$$$$
