TME.pdb
     RDKit          3D

 25 24  0  0  1  0  0  0  0  0999 V2000
   20.7198   -9.8252  -19.7493 C   0  0  0  0  0  0  0  0  0  0  0  0
   20.0843  -11.0740  -19.2487 C   0  0  1  0  0  0  0  0  0  0  0  0
   19.4809  -11.7834  -20.2498 O   0  0  0  0  0  0  0  0  0  0  0  0
   21.0414  -11.9213  -18.4219 C   0  0  2  0  0  0  0  0  0  0  0  0
   20.3309  -13.1291  -18.0168 N   0  0  0  0  0  0  0  0  0  0  0  0
   21.6066  -11.1842  -17.2942 C   0  0  0  0  0  0  0  0  0  0  0  0
   20.8487  -10.9645  -16.2854 O   0  0  0  0  0  0  0  0  0  0  0  0
   27.8170  -13.0195  -15.1713 C   0  0  0  0  0  0  0  0  0  0  0  0
   27.1475  -11.4487  -15.7068 S   0  0  0  0  0  0  0  0  0  0  0  0
   25.3642  -11.3405  -15.5956 C   0  0  0  0  0  0  0  0  0  0  0  0
   24.9244   -9.9260  -15.9581 C   0  0  0  0  0  0  0  0  0  0  0  0
   23.4263   -9.8527  -16.1202 C   0  0  2  0  0  0  0  0  0  0  0  0
   22.9008  -10.6700  -17.1576 N   0  0  0  0  0  0  0  0  0  0  0  0
   23.0685   -8.4185  -16.1992 C   0  0  0  0  0  0  0  0  0  0  0  0
   23.0176   -7.8844  -17.3393 O   0  0  0  0  0  0  0  0  0  0  0  0
   22.7832   -7.6403  -15.0501 N   0  0  0  0  0  0  0  0  0  0  0  0
   22.4069   -6.2162  -15.2403 C   0  0  1  0  0  0  0  0  0  0  0  0
   21.2048   -6.1535  -16.1245 C   0  0  0  0  0  0  0  0  0  0  0  0
   20.6792   -4.7479  -16.2126 C   0  0  0  0  0  0  0  0  0  0  0  0
   21.3277   -4.0037  -17.3275 C   0  0  0  0  0  0  0  0  0  0  0  0
   22.1201   -4.5815  -18.0777 O   0  0  0  0  0  0  0  0  0  0  0  0
   22.2474   -5.6231  -13.9000 C   0  0  0  0  0  0  0  0  0  0  0  0
   22.1213   -4.3566  -13.7435 O   0  0  0  0  0  0  0  0  0  0  0  0
   21.0378   -2.6685  -17.5125 O   0  0  0  0  0  0  0  0  0  0  0  0
   22.2169   -6.3450  -12.7191 O   0  0  0  0  0  0  0  0  0  0  0  0
  2  1  1  6
  2  3  1  0
  4  2  1  0
  4  6  1  0
  4  5  1  1
  6 13  1  0
  6  7  2  0
  9  8  1  0
 10  9  1  0
 11 10  1  0
 12 11  1  6
 13 12  1  0
 14 12  1  0
 14 15  2  0
 16 14  1  0
 17 16  1  0
 17 18  1  6
 19 18  1  0
 19 20  1  0
 20 24  1  0
 20 21  2  0
 22 17  1  0
 23 22  2  0
 25 22  1  0
M  END
$$$$
