TME.pdb
     RDKit          3D

 25 24  0  0  1  0  0  0  0  0999 V2000
   18.5287  -12.8557  -19.2073 C   0  0  0  0  0  0  0  0  0  0  0  0
   19.4069  -12.2298  -18.1822 C   0  0  1  0  0  0  0  0  0  0  0  0
   20.0312  -13.1607  -17.3991 O   0  0  0  0  0  0  0  0  0  0  0  0
   20.3766  -11.2230  -18.7851 C   0  0  2  0  0  0  0  0  0  0  0  0
   21.1865  -11.9227  -19.7762 N   0  0  0  0  0  0  0  0  0  0  0  0
   21.1766  -10.5422  -17.7696 C   0  0  0  0  0  0  0  0  0  0  0  0
   20.5718   -9.7468  -16.9685 O   0  0  0  0  0  0  0  0  0  0  0  0
   27.5309  -11.8572  -15.9841 C   0  0  0  0  0  0  0  0  0  0  0  0
   27.2670  -10.1631  -15.4713 S   0  0  0  0  0  0  0  0  0  0  0  0
   25.5454   -9.6746  -15.4273 C   0  0  0  0  0  0  0  0  0  0  0  0
   24.8080  -10.3326  -16.5886 C   0  0  0  0  0  0  0  0  0  0  0  0
   23.3453   -9.9635  -16.5763 C   0  0  2  0  0  0  0  0  0  0  0  0
   22.5537  -10.6421  -17.5423 N   0  0  0  0  0  0  0  0  0  0  0  0
   23.2707   -8.4858  -16.6192 C   0  0  0  0  0  0  0  0  0  0  0  0
   23.7288   -7.9007  -17.6369 O   0  0  0  0  0  0  0  0  0  0  0  0
   22.7065   -7.7207  -15.5687 N   0  0  0  0  0  0  0  0  0  0  0  0
   22.5794   -6.2530  -15.7567 C   0  0  1  0  0  0  0  0  0  0  0  0
   21.4875   -5.9900  -16.7412 C   0  0  0  0  0  0  0  0  0  0  0  0
   21.2397   -4.5141  -16.8826 C   0  0  0  0  0  0  0  0  0  0  0  0
   20.1043   -4.2490  -17.8090 C   0  0  0  0  0  0  0  0  0  0  0  0
   19.5166   -5.1899  -18.3513 O   0  0  0  0  0  0  0  0  0  0  0  0
   22.3952   -5.6552  -14.4216 C   0  0  0  0  0  0  0  0  0  0  0  0
   21.9439   -6.3459  -13.4399 O   0  0  0  0  0  0  0  0  0  0  0  0
   19.7182   -2.9487  -18.0561 O   0  0  0  0  0  0  0  0  0  0  0  0
   22.6811   -4.3387  -14.1032 O   0  0  0  0  0  0  0  0  0  0  0  0
  2  1  1  6
  2  3  1  0
  4  2  1  0
  4  6  1  0
  4  5  1  6
  6 13  1  0
  6  7  2  0
  9  8  1  0
 10  9  1  0
 11 10  1  0
 12 11  1  6
 13 12  1  0
 14 12  1  0
 14 15  2  0
 16 14  1  0
 17 16  1  0
 17 18  1  6
 19 18  1  0
 19 20  1  0
 20 24  1  0
 20 21  2  0
 22 17  1  0
 23 22  2  0
 25 22  1  0
M  END
$$$$
