TME.pdb
     RDKit          3D

 25 24  0  0  1  0  0  0  0  0999 V2000
   18.9252  -14.8331  -20.5025 C   0  0  0  0  0  0  0  0  0  0  0  0
   19.5695  -13.8286  -19.6138 C   0  0  1  0  0  0  0  0  0  0  0  0
   18.6927  -12.8616  -19.2066 O   0  0  0  0  0  0  0  0  0  0  0  0
   20.3145  -14.4733  -18.4532 C   0  0  2  0  0  0  0  0  0  0  0  0
   19.3475  -15.2359  -17.6715 N   0  0  0  0  0  0  0  0  0  0  0  0
   21.0543  -13.4984  -17.6552 C   0  0  0  0  0  0  0  0  0  0  0  0
   20.4462  -12.9489  -16.6710 O   0  0  0  0  0  0  0  0  0  0  0  0
   27.9900  -10.3993  -15.2179 C   0  0  0  0  0  0  0  0  0  0  0  0
   27.0558  -11.4444  -16.3304 S   0  0  0  0  0  0  0  0  0  0  0  0
   25.2808  -11.2890  -16.1582 C   0  0  0  0  0  0  0  0  0  0  0  0
   24.5980  -12.2889  -17.0853 C   0  0  0  0  0  0  0  0  0  0  0  0
   23.1001  -12.1123  -17.0585 C   0  0  2  0  0  0  0  0  0  0  0  0
   22.3758  -13.0689  -17.8205 N   0  0  0  0  0  0  0  0  0  0  0  0
   22.8244  -10.6963  -17.3902 C   0  0  0  0  0  0  0  0  0  0  0  0
   22.8594  -10.3562  -18.6030 O   0  0  0  0  0  0  0  0  0  0  0  0
   22.5245   -9.7268  -16.4015 N   0  0  0  0  0  0  0  0  0  0  0  0
   22.1922   -8.3489  -16.8449 C   0  0  1  0  0  0  0  0  0  0  0  0
   20.7646   -8.3189  -17.2826 C   0  0  0  0  0  0  0  0  0  0  0  0
   19.8417   -8.3283  -16.0961 C   0  0  0  0  0  0  0  0  0  0  0  0
   18.4186   -8.2370  -16.5249 C   0  0  0  0  0  0  0  0  0  0  0  0
   18.1421   -8.0615  -17.7155 O   0  0  0  0  0  0  0  0  0  0  0  0
   22.5424   -7.4374  -15.7402 C   0  0  0  0  0  0  0  0  0  0  0  0
   22.8285   -7.8855  -14.5732 O   0  0  0  0  0  0  0  0  0  0  0  0
   17.4168   -8.3478  -15.5842 O   0  0  0  0  0  0  0  0  0  0  0  0
   22.5975   -6.0582  -15.8461 O   0  0  0  0  0  0  0  0  0  0  0  0
  2  1  1  1
  2  3  1  0
  4  2  1  0
  4  6  1  0
  4  5  1  1
  6 13  1  0
  6  7  2  0
  9  8  1  0
 10  9  1  0
 11 10  1  0
 12 11  1  6
 13 12  1  0
 14 12  1  0
 14 15  2  0
 16 14  1  0
 17 16  1  0
 17 18  1  1
 19 18  1  0
 19 20  1  0
 20 24  1  0
 20 21  2  0
 22 17  1  0
 23 22  2  0
 25 22  1  0
M  END
$$$$
