TME.pdb
     RDKit          3D

 25 24  0  0  1  0  0  0  0  0999 V2000
   18.2582   -9.0939  -18.5249 C   0  0  0  0  0  0  0  0  0  0  0  0
   17.6107  -10.1881  -17.7521 C   0  0  1  0  0  0  0  0  0  0  0  0
   16.4828  -10.6569  -18.3666 O   0  0  0  0  0  0  0  0  0  0  0  0
   18.5869  -11.2982  -17.3882 C   0  0  2  0  0  0  0  0  0  0  0  0
   17.8355  -12.3469  -16.7076 N   0  0  0  0  0  0  0  0  0  0  0  0
   19.7218  -10.8093  -16.6088 C   0  0  0  0  0  0  0  0  0  0  0  0
   19.5039  -10.4502  -15.3989 O   0  0  0  0  0  0  0  0  0  0  0  0
   27.5815  -10.2295  -15.3846 C   0  0  0  0  0  0  0  0  0  0  0  0
   26.1723  -10.8739  -16.2799 S   0  0  0  0  0  0  0  0  0  0  0  0
   24.6177  -10.0986  -15.8478 C   0  0  0  0  0  0  0  0  0  0  0  0
   23.4967  -10.7358  -16.6620 C   0  0  0  0  0  0  0  0  0  0  0  0
   22.1569  -10.1589  -16.2775 C   0  0  2  0  0  0  0  0  0  0  0  0
   21.0552  -10.6758  -17.0119 N   0  0  0  0  0  0  0  0  0  0  0  0
   22.2976   -8.6855  -16.2972 C   0  0  0  0  0  0  0  0  0  0  0  0
   22.6666   -8.1417  -17.3724 O   0  0  0  0  0  0  0  0  0  0  0  0
   22.0317   -7.8797  -15.1626 N   0  0  0  0  0  0  0  0  0  0  0  0
   22.1042   -6.4041  -15.3147 C   0  0  1  0  0  0  0  0  0  0  0  0
   20.8983   -5.9411  -16.0644 C   0  0  0  0  0  0  0  0  0  0  0  0
   19.6490   -6.1692  -15.2600 C   0  0  0  0  0  0  0  0  0  0  0  0
   18.4679   -5.5454  -15.9183 C   0  0  0  0  0  0  0  0  0  0  0  0
   17.4065   -6.1703  -16.0038 O   0  0  0  0  0  0  0  0  0  0  0  0
   22.2781   -5.8333  -13.9665 C   0  0  0  0  0  0  0  0  0  0  0  0
   22.5334   -4.5878  -13.7991 O   0  0  0  0  0  0  0  0  0  0  0  0
   18.5707   -4.2696  -16.4310 O   0  0  0  0  0  0  0  0  0  0  0  0
   22.1856   -6.5553  -12.7890 O   0  0  0  0  0  0  0  0  0  0  0  0
  2  1  1  6
  2  3  1  0
  4  2  1  0
  4  6  1  0
  4  5  1  1
  6 13  1  0
  6  7  2  0
  9  8  1  0
 10  9  1  0
 11 10  1  0
 12 11  1  6
 13 12  1  0
 14 12  1  0
 14 15  2  0
 16 14  1  0
 17 16  1  0
 17 18  1  1
 19 18  1  0
 19 20  1  0
 20 24  1  0
 20 21  2  0
 22 17  1  0
 23 22  2  0
 25 22  1  0
M  END
$$$$
