TME.pdb
     RDKit          3D

 25 24  0  0  1  0  0  0  0  0999 V2000
   17.0340  -10.8045  -17.8560 C   0  0  0  0  0  0  0  0  0  0  0  0
   17.4740   -9.8805  -16.7760 C   0  0  1  0  0  0  0  0  0  0  0  0
   17.4484  -10.4755  -15.5451 O   0  0  0  0  0  0  0  0  0  0  0  0
   18.8122   -9.2232  -17.0836 C   0  0  2  0  0  0  0  0  0  0  0  0
   19.8201  -10.2754  -17.1528 N   0  0  0  0  0  0  0  0  0  0  0  0
   19.1488   -8.1700  -16.1286 C   0  0  0  0  0  0  0  0  0  0  0  0
   18.2534   -7.2917  -15.8693 O   0  0  0  0  0  0  0  0  0  0  0  0
   22.7336  -10.3272  -10.6830 C   0  0  0  0  0  0  0  0  0  0  0  0
   22.9486   -8.8827  -11.7174 S   0  0  0  0  0  0  0  0  0  0  0  0
   21.5301   -8.5011  -12.7404 C   0  0  0  0  0  0  0  0  0  0  0  0
   21.8471   -7.2841  -13.6028 C   0  0  0  0  0  0  0  0  0  0  0  0
   20.6914   -6.9543  -14.5146 C   0  0  2  0  0  0  0  0  0  0  0  0
   20.3496   -7.9819  -15.4352 N   0  0  0  0  0  0  0  0  0  0  0  0
   20.9774   -5.6325  -15.1163 C   0  0  0  0  0  0  0  0  0  0  0  0
   21.4215   -5.6038  -16.2952 O   0  0  0  0  0  0  0  0  0  0  0  0
   20.7678   -4.4169  -14.4193 N   0  0  0  0  0  0  0  0  0  0  0  0
   20.7859   -3.1496  -15.1935 C   0  0  1  0  0  0  0  0  0  0  0  0
   19.7885   -3.2516  -16.3006 C   0  0  0  0  0  0  0  0  0  0  0  0
   19.6229   -1.9282  -16.9941 C   0  0  0  0  0  0  0  0  0  0  0  0
   18.6215   -2.0216  -18.0921 C   0  0  0  0  0  0  0  0  0  0  0  0
   18.2083   -0.9954  -18.6406 O   0  0  0  0  0  0  0  0  0  0  0  0
   20.5697   -2.0491  -14.2364 C   0  0  0  0  0  0  0  0  0  0  0  0
   21.1486   -0.9146  -14.3852 O   0  0  0  0  0  0  0  0  0  0  0  0
   18.1603   -3.2593  -18.4878 O   0  0  0  0  0  0  0  0  0  0  0  0
   19.7501   -2.1247  -13.1233 O   0  0  0  0  0  0  0  0  0  0  0  0
  2  1  1  6
  2  3  1  0
  4  2  1  0
  4  6  1  0
  4  5  1  1
  6 13  1  0
  6  7  2  0
  9  8  1  0
 10  9  1  0
 11 10  1  0
 12 11  1  6
 13 12  1  0
 14 12  1  0
 14 15  2  0
 16 14  1  0
 17 16  1  0
 17 18  1  6
 19 18  1  0
 19 20  1  0
 20 24  1  0
 20 21  2  0
 22 17  1  0
 23 22  2  0
 25 22  1  0
M  END
$$$$
