TME.pdb
     RDKit          3D

 25 24  0  0  1  0  0  0  0  0999 V2000
   15.2604  -11.3342  -17.0597 C   0  0  0  0  0  0  0  0  0  0  0  0
   16.2791  -10.5525  -16.3079 C   0  0  1  0  0  0  0  0  0  0  0  0
   15.7343   -9.8738  -15.2534 O   0  0  0  0  0  0  0  0  0  0  0  0
   17.4794  -11.3982  -15.9060 C   0  0  2  0  0  0  0  0  0  0  0  0
   17.0272  -12.3735  -14.9200 N   0  0  0  0  0  0  0  0  0  0  0  0
   18.6006  -10.5875  -15.4367 C   0  0  0  0  0  0  0  0  0  0  0  0
   18.7073  -10.3903  -14.1757 O   0  0  0  0  0  0  0  0  0  0  0  0
   22.5456  -13.6941  -17.5318 C   0  0  0  0  0  0  0  0  0  0  0  0
   22.0050  -11.9951  -17.6860 S   0  0  0  0  0  0  0  0  0  0  0  0
   22.5465  -10.9338  -16.3501 C   0  0  0  0  0  0  0  0  0  0  0  0
   22.0018   -9.5274  -16.5752 C   0  0  0  0  0  0  0  0  0  0  0  0
   20.7646   -9.2897  -15.7452 C   0  0  2  0  0  0  0  0  0  0  0  0
   19.6059   -9.9786  -16.1961 N   0  0  0  0  0  0  0  0  0  0  0  0
   20.6153   -7.8242  -15.5995 C   0  0  0  0  0  0  0  0  0  0  0  0
   19.8081   -7.2337  -16.3660 O   0  0  0  0  0  0  0  0  0  0  0  0
   21.3388   -7.0767  -14.6377 N   0  0  0  0  0  0  0  0  0  0  0  0
   21.1208   -5.6089  -14.5777 C   0  0  1  0  0  0  0  0  0  0  0  0
   19.6793   -5.3514  -14.2839 C   0  0  0  0  0  0  0  0  0  0  0  0
   19.4296   -3.8832  -14.0799 C   0  0  0  0  0  0  0  0  0  0  0  0
   18.9467   -3.2435  -15.3349 C   0  0  0  0  0  0  0  0  0  0  0  0
   18.4775   -3.9382  -16.2415 O   0  0  0  0  0  0  0  0  0  0  0  0
   22.0807   -5.0636  -13.6005 C   0  0  0  0  0  0  0  0  0  0  0  0
   22.2485   -3.7993  -13.4669 O   0  0  0  0  0  0  0  0  0  0  0  0
   19.0298   -1.8745  -15.4755 O   0  0  0  0  0  0  0  0  0  0  0  0
   22.8675   -5.8309  -12.7587 O   0  0  0  0  0  0  0  0  0  0  0  0
  2  1  1  1
  2  3  1  0
  4  2  1  0
  4  6  1  0
  4  5  1  1
  6 13  1  0
  6  7  2  0
  9  8  1  0
 10  9  1  0
 11 10  1  0
 12 11  1  6
 13 12  1  0
 14 12  1  0
 14 15  2  0
 16 14  1  0
 17 16  1  0
 17 18  1  1
 19 18  1  0
 19 20  1  0
 20 24  1  0
 20 21  2  0
 22 17  1  0
 23 22  2  0
 25 22  1  0
M  END
$$$$
