TME.pdb
     RDKit          3D

 25 24  0  0  1  0  0  0  0  0999 V2000
   18.8196  -11.1697  -21.1092 C   0  0  0  0  0  0  0  0  0  0  0  0
   19.4547  -10.4778  -19.9551 C   0  0  1  0  0  0  0  0  0  0  0  0
   18.7555   -9.3677  -19.5701 O   0  0  0  0  0  0  0  0  0  0  0  0
   19.7409  -11.4236  -18.7971 C   0  0  2  0  0  0  0  0  0  0  0  0
   18.4656  -11.9584  -18.3329 N   0  0  0  0  0  0  0  0  0  0  0  0
   20.5150  -10.7860  -17.7346 C   0  0  0  0  0  0  0  0  0  0  0  0
   19.8752  -10.3233  -16.7262 O   0  0  0  0  0  0  0  0  0  0  0  0
   27.5276   -9.9337  -16.7087 C   0  0  0  0  0  0  0  0  0  0  0  0
   26.5090  -10.4237  -15.3213 S   0  0  0  0  0  0  0  0  0  0  0  0
   24.8314   -9.8033  -15.3937 C   0  0  0  0  0  0  0  0  0  0  0  0
   24.1049  -10.4582  -16.5636 C   0  0  0  0  0  0  0  0  0  0  0  0
   22.6654  -10.0110  -16.6221 C   0  0  2  0  0  0  0  0  0  0  0  0
   21.9008  -10.6058  -17.6623 N   0  0  0  0  0  0  0  0  0  0  0  0
   22.6702   -8.5308  -16.6046 C   0  0  0  0  0  0  0  0  0  0  0  0
   23.0687   -7.9293  -17.6377 O   0  0  0  0  0  0  0  0  0  0  0  0
   22.2445   -7.7809  -15.4805 N   0  0  0  0  0  0  0  0  0  0  0  0
   22.1851   -6.3020  -15.6025 C   0  0  1  0  0  0  0  0  0  0  0  0
   20.8288   -5.9173  -16.0955 C   0  0  0  0  0  0  0  0  0  0  0  0
   20.6742   -4.4223  -16.1220 C   0  0  0  0  0  0  0  0  0  0  0  0
   19.3223   -4.0332  -16.6104 C   0  0  0  0  0  0  0  0  0  0  0  0
   18.4605   -3.6577  -15.8098 O   0  0  0  0  0  0  0  0  0  0  0  0
   22.5750   -5.7392  -14.2968 C   0  0  0  0  0  0  0  0  0  0  0  0
   22.8179   -4.4878  -14.1574 O   0  0  0  0  0  0  0  0  0  0  0  0
   19.0423   -4.0976  -17.9589 O   0  0  0  0  0  0  0  0  0  0  0  0
   22.7120   -6.4755  -13.1325 O   0  0  0  0  0  0  0  0  0  0  0  0
  2  1  1  6
  2  3  1  0
  4  2  1  0
  4  6  1  0
  4  5  1  1
  6 13  1  0
  6  7  2  0
  9  8  1  0
 10  9  1  0
 11 10  1  0
 12 11  1  6
 13 12  1  0
 14 12  1  0
 14 15  2  0
 16 14  1  0
 17 16  1  0
 17 18  1  1
 19 18  1  0
 19 20  1  0
 20 24  1  0
 20 21  2  0
 22 17  1  0
 23 22  2  0
 25 22  1  0
M  END
$$$$
