TME.pdb
     RDKit          3D

 25 24  0  0  1  0  0  0  0  0999 V2000
   19.3003  -13.1206  -20.1955 C   0  0  0  0  0  0  0  0  0  0  0  0
   19.8910  -12.1741  -19.2111 C   0  0  1  0  0  0  0  0  0  0  0  0
   18.9445  -11.3779  -18.6282 O   0  0  0  0  0  0  0  0  0  0  0  0
   20.7784  -12.8753  -18.1920 C   0  0  2  0  0  0  0  0  0  0  0  0
   19.9458  -13.8126  -17.4463 N   0  0  0  0  0  0  0  0  0  0  0  0
   21.4914  -11.9336  -17.3321 C   0  0  0  0  0  0  0  0  0  0  0  0
   20.8223  -11.3369  -16.4175 O   0  0  0  0  0  0  0  0  0  0  0  0
   28.0859  -10.8585  -16.9853 C   0  0  0  0  0  0  0  0  0  0  0  0
   27.4453  -10.2040  -15.4478 S   0  0  0  0  0  0  0  0  0  0  0  0
   25.6727   -9.9545  -15.4442 C   0  0  0  0  0  0  0  0  0  0  0  0
   25.0357  -10.8695  -16.4847 C   0  0  0  0  0  0  0  0  0  0  0  0
   23.5442  -10.6537  -16.5508 C   0  0  2  0  0  0  0  0  0  0  0  0
   22.8456  -11.5828  -17.3687 N   0  0  0  0  0  0  0  0  0  0  0  0
   23.3267   -9.2275  -16.8822 C   0  0  0  0  0  0  0  0  0  0  0  0
   23.4157   -8.8817  -18.0906 O   0  0  0  0  0  0  0  0  0  0  0  0
   23.0236   -8.2544  -15.8980 N   0  0  0  0  0  0  0  0  0  0  0  0
   22.6550   -6.8883  -16.3491 C   0  0  1  0  0  0  0  0  0  0  0  0
   21.9576   -6.1873  -15.2297 C   0  0  0  0  0  0  0  0  0  0  0  0
   21.4619   -4.8383  -15.6704 C   0  0  0  0  0  0  0  0  0  0  0  0
   20.6995   -4.1670  -14.5816 C   0  0  0  0  0  0  0  0  0  0  0  0
   21.1172   -3.1120  -14.0946 O   0  0  0  0  0  0  0  0  0  0  0  0
   23.8860   -6.2427  -16.8405 C   0  0  0  0  0  0  0  0  0  0  0  0
   23.8450   -5.3297  -17.7401 O   0  0  0  0  0  0  0  0  0  0  0  0
   19.5289   -4.7328  -14.1230 O   0  0  0  0  0  0  0  0  0  0  0  0
   25.1625   -6.5434  -16.3971 O   0  0  0  0  0  0  0  0  0  0  0  0
  2  1  1  1
  2  3  1  0
  4  2  1  0
  4  6  1  0
  4  5  1  1
  6 13  1  0
  6  7  2  0
  9  8  1  0
 10  9  1  0
 11 10  1  0
 12 11  1  6
 13 12  1  0
 14 12  1  0
 14 15  2  0
 16 14  1  0
 17 16  1  0
 17 18  1  1
 19 18  1  0
 19 20  1  0
 20 24  1  0
 20 21  2  0
 22 17  1  0
 23 22  2  0
 25 22  1  0
M  END
$$$$
