TME.pdb
     RDKit          3D

 25 24  0  0  1  0  0  0  0  0999 V2000
   28.2248  -18.2745  -16.3474 C   0  0  0  0  0  0  0  0  0  0  0  0
   27.2091  -19.0063  -15.5432 C   0  0  1  0  0  0  0  0  0  0  0  0
   25.9741  -18.9868  -16.1299 O   0  0  0  0  0  0  0  0  0  0  0  0
   27.6630  -20.4119  -15.1748 C   0  0  2  0  0  0  0  0  0  0  0  0
   27.6925  -21.2057  -16.3982 N   0  0  0  0  0  0  0  0  0  0  0  0
   26.8384  -21.0072  -14.1259 C   0  0  0  0  0  0  0  0  0  0  0  0
   25.9060  -21.8091  -14.4835 O   0  0  0  0  0  0  0  0  0  0  0  0
   27.3129  -20.5063   -7.2723 C   0  0  0  0  0  0  0  0  0  0  0  0
   25.6683  -20.0296   -7.7927 S   0  0  0  0  0  0  0  0  0  0  0  0
   25.1847  -20.6967   -9.3818 C   0  0  0  0  0  0  0  0  0  0  0  0
   26.2543  -20.3571  -10.4144 C   0  0  0  0  0  0  0  0  0  0  0  0
   25.9076  -20.9416  -11.7612 C   0  0  2  0  0  0  0  0  0  0  0  0
   26.9287  -20.8186  -12.7423 N   0  0  0  0  0  0  0  0  0  0  0  0
   24.5882  -20.3917  -12.1459 C   0  0  0  0  0  0  0  0  0  0  0  0
   24.5194  -19.1660  -12.4303 O   0  0  0  0  0  0  0  0  0  0  0  0
   23.4187  -21.1891  -12.2057 N   0  0  0  0  0  0  0  0  0  0  0  0
   22.1627  -20.5612  -12.6891 C   0  0  1  0  0  0  0  0  0  0  0  0
   21.8645  -21.0806  -14.0573 C   0  0  0  0  0  0  0  0  0  0  0  0
   20.5871  -20.4903  -14.5862 C   0  0  0  0  0  0  0  0  0  0  0  0
   20.2624  -21.0377  -15.9324 C   0  0  0  0  0  0  0  0  0  0  0  0
   21.0328  -21.8335  -16.4781 O   0  0  0  0  0  0  0  0  0  0  0  0
   21.1276  -20.8119  -11.6695 C   0  0  0  0  0  0  0  0  0  0  0  0
   20.0158  -20.1730  -11.6790 O   0  0  0  0  0  0  0  0  0  0  0  0
   19.0993  -20.6480  -16.5620 O   0  0  0  0  0  0  0  0  0  0  0  0
   21.2450  -21.7283  -10.6386 O   0  0  0  0  0  0  0  0  0  0  0  0
  2  1  1  6
  2  3  1  0
  4  2  1  0
  4  6  1  0
  4  5  1  6
  6 13  1  0
  6  7  2  0
  9  8  1  0
 10  9  1  0
 11 10  1  0
 12 11  1  1
 13 12  1  0
 14 12  1  0
 14 15  2  0
 16 14  1  0
 17 16  1  0
 17 18  1  6
 19 18  1  0
 19 20  1  0
 20 24  1  0
 20 21  2  0
 22 17  1  0
 23 22  2  0
 25 22  1  0
M  END
$$$$
