TME.pdb
     RDKit          3D

 25 24  0  0  1  0  0  0  0  0999 V2000
   18.4875  -10.3582  -20.4410 C   0  0  0  0  0  0  0  0  0  0  0  0
   18.4480  -11.7594  -19.9420 C   0  0  1  0  0  0  0  0  0  0  0  0
   18.5424  -12.6716  -20.9562 O   0  0  0  0  0  0  0  0  0  0  0  0
   19.4584  -12.0086  -18.8309 C   0  0  2  0  0  0  0  0  0  0  0  0
   19.3711  -13.4158  -18.4566 N   0  0  0  0  0  0  0  0  0  0  0  0
   19.2772  -11.1029  -17.6990 C   0  0  0  0  0  0  0  0  0  0  0  0
   18.1903  -11.1970  -17.0280 O   0  0  0  0  0  0  0  0  0  0  0  0
   22.1186   -5.3320  -12.9167 C   0  0  0  0  0  0  0  0  0  0  0  0
   22.3603   -6.7438  -13.9896 S   0  0  0  0  0  0  0  0  0  0  0  0
   20.8434   -7.4192  -14.6582 C   0  0  0  0  0  0  0  0  0  0  0  0
   21.1823   -8.5299  -15.6467 C   0  0  0  0  0  0  0  0  0  0  0  0
   19.9285   -9.1337  -16.2291 C   0  0  2  0  0  0  0  0  0  0  0  0
   20.1530  -10.1173  -17.2304 N   0  0  0  0  0  0  0  0  0  0  0  0
   19.0513   -8.0102  -16.6284 C   0  0  0  0  0  0  0  0  0  0  0  0
   19.3482   -7.3716  -17.6733 O   0  0  0  0  0  0  0  0  0  0  0  0
   17.9042   -7.6380  -15.8848 N   0  0  0  0  0  0  0  0  0  0  0  0
   17.0696   -6.5188  -16.3915 C   0  0  1  0  0  0  0  0  0  0  0  0
   15.6322   -6.9128  -16.2951 C   0  0  0  0  0  0  0  0  0  0  0  0
   14.7371   -5.7612  -16.6588 C   0  0  0  0  0  0  0  0  0  0  0  0
   13.3023   -6.1351  -16.5206 C   0  0  0  0  0  0  0  0  0  0  0  0
   12.9930   -7.2561  -16.1055 O   0  0  0  0  0  0  0  0  0  0  0  0
   17.4542   -5.3108  -15.6389 C   0  0  0  0  0  0  0  0  0  0  0  0
   17.3690   -4.1441  -16.1644 O   0  0  0  0  0  0  0  0  0  0  0  0
   12.3264   -5.2224  -16.8607 O   0  0  0  0  0  0  0  0  0  0  0  0
   17.9267   -5.3121  -14.3377 O   0  0  0  0  0  0  0  0  0  0  0  0
  2  1  1  6
  2  3  1  0
  4  2  1  0
  4  6  1  0
  4  5  1  1
  6 13  1  0
  6  7  2  0
  9  8  1  0
 10  9  1  0
 11 10  1  0
 12 11  1  6
 13 12  1  0
 14 12  1  0
 14 15  2  0
 16 14  1  0
 17 16  1  0
 17 18  1  1
 19 18  1  0
 19 20  1  0
 20 24  1  0
 20 21  2  0
 22 17  1  0
 23 22  2  0
 25 22  1  0
M  END
$$$$
