TME.pdb
     RDKit          3D

 25 24  0  0  1  0  0  0  0  0999 V2000
   18.3153  -10.0360  -18.3247 C   0  0  0  0  0  0  0  0  0  0  0  0
   17.7182  -10.8972  -17.2685 C   0  0  1  0  0  0  0  0  0  0  0  0
   16.5632  -11.4990  -17.6847 O   0  0  0  0  0  0  0  0  0  0  0  0
   18.7209  -11.8856  -16.6897 C   0  0  2  0  0  0  0  0  0  0  0  0
   18.0088  -12.7436  -15.7492 N   0  0  0  0  0  0  0  0  0  0  0  0
   19.8787  -11.2218  -16.0953 C   0  0  0  0  0  0  0  0  0  0  0  0
   19.7005  -10.5761  -15.0037 O   0  0  0  0  0  0  0  0  0  0  0  0
   27.7935  -10.3615  -15.4802 C   0  0  0  0  0  0  0  0  0  0  0  0
   26.3565  -11.0820  -16.2667 S   0  0  0  0  0  0  0  0  0  0  0  0
   24.8028  -10.3601  -15.7477 C   0  0  0  0  0  0  0  0  0  0  0  0
   23.6580  -11.0621  -16.4703 C   0  0  0  0  0  0  0  0  0  0  0  0
   22.3236  -10.5308  -16.0090 C   0  0  2  0  0  0  0  0  0  0  0  0
   21.1961  -11.1932  -16.5661 N   0  0  0  0  0  0  0  0  0  0  0  0
   22.3535   -9.0627  -16.1958 C   0  0  0  0  0  0  0  0  0  0  0  0
   22.2357   -8.6138  -17.3673 O   0  0  0  0  0  0  0  0  0  0  0  0
   22.5055   -8.1601  -15.1143 N   0  0  0  0  0  0  0  0  0  0  0  0
   22.0999   -6.7457  -15.3156 C   0  0  1  0  0  0  0  0  0  0  0  0
   20.6892   -6.7182  -15.8054 C   0  0  0  0  0  0  0  0  0  0  0  0
   20.2183   -5.3037  -15.9986 C   0  0  0  0  0  0  0  0  0  0  0  0
   19.5930   -5.1268  -17.3384 C   0  0  0  0  0  0  0  0  0  0  0  0
   20.1279   -4.3968  -18.1784 O   0  0  0  0  0  0  0  0  0  0  0  0
   22.3519   -6.0338  -14.0494 C   0  0  0  0  0  0  0  0  0  0  0  0
   22.5472   -4.7666  -14.0260 O   0  0  0  0  0  0  0  0  0  0  0  0
   18.4151   -5.7812  -17.6305 O   0  0  0  0  0  0  0  0  0  0  0  0
   22.4001   -6.6370  -12.8042 O   0  0  0  0  0  0  0  0  0  0  0  0
  2  1  1  6
  2  3  1  0
  4  2  1  0
  4  6  1  0
  4  5  1  1
  6 13  1  0
  6  7  2  0
  9  8  1  0
 10  9  1  0
 11 10  1  0
 12 11  1  6
 13 12  1  0
 14 12  1  0
 14 15  2  0
 16 14  1  0
 17 16  1  0
 17 18  1  1
 19 18  1  0
 19 20  1  0
 20 24  1  0
 20 21  2  0
 22 17  1  0
 23 22  2  0
 25 22  1  0
M  END
$$$$
