TME.pdb
     RDKit          3D

 25 24  0  0  1  0  0  0  0  0999 V2000
   18.6325  -12.2472  -20.8723 C   0  0  0  0  0  0  0  0  0  0  0  0
   19.4627  -11.5927  -19.8252 C   0  0  1  0  0  0  0  0  0  0  0  0
   18.7024  -10.9222  -18.9077 O   0  0  0  0  0  0  0  0  0  0  0  0
   20.4491  -12.5562  -19.1801 C   0  0  2  0  0  0  0  0  0  0  0  0
   19.6828  -13.6420  -18.5786 N   0  0  0  0  0  0  0  0  0  0  0  0
   21.3398  -11.8907  -18.2323 C   0  0  0  0  0  0  0  0  0  0  0  0
   20.8049  -11.2325  -17.2726 O   0  0  0  0  0  0  0  0  0  0  0  0
   28.5843  -10.7571  -15.0785 C   0  0  0  0  0  0  0  0  0  0  0  0
   27.5311  -11.5017  -16.3191 S   0  0  0  0  0  0  0  0  0  0  0  0
   25.8750  -10.8240  -16.3713 C   0  0  0  0  0  0  0  0  0  0  0  0
   25.0364  -11.6260  -17.3608 C   0  0  0  0  0  0  0  0  0  0  0  0
   23.6131  -11.1268  -17.3891 C   0  0  2  0  0  0  0  0  0  0  0  0
   22.7390  -11.8727  -18.2257 N   0  0  0  0  0  0  0  0  0  0  0  0
   23.6688   -9.6735  -17.6646 C   0  0  0  0  0  0  0  0  0  0  0  0
   23.8297   -9.3044  -18.8587 O   0  0  0  0  0  0  0  0  0  0  0  0
   23.5460   -8.6993  -16.6432 N   0  0  0  0  0  0  0  0  0  0  0  0
   23.5214   -7.2672  -17.0358 C   0  0  1  0  0  0  0  0  0  0  0  0
   22.3523   -6.6112  -16.3774 C   0  0  0  0  0  0  0  0  0  0  0  0
   22.3054   -5.1457  -16.7089 C   0  0  0  0  0  0  0  0  0  0  0  0
   21.0865   -4.5075  -16.1393 C   0  0  0  0  0  0  0  0  0  0  0  0
   20.2158   -5.2031  -15.6078 O   0  0  0  0  0  0  0  0  0  0  0  0
   24.8422   -6.7007  -16.7071 C   0  0  0  0  0  0  0  0  0  0  0  0
   25.5664   -7.1992  -15.7735 O   0  0  0  0  0  0  0  0  0  0  0  0
   20.9390   -3.1386  -16.2122 O   0  0  0  0  0  0  0  0  0  0  0  0
   25.4143   -5.6156  -17.3488 O   0  0  0  0  0  0  0  0  0  0  0  0
  2  1  1  6
  2  3  1  0
  4  2  1  0
  4  6  1  0
  4  5  1  1
  6 13  1  0
  6  7  2  0
  9  8  1  0
 10  9  1  0
 11 10  1  0
 12 11  1  6
 13 12  1  0
 14 12  1  0
 14 15  2  0
 16 14  1  0
 17 16  1  0
 17 18  1  1
 19 18  1  0
 19 20  1  0
 20 24  1  0
 20 21  2  0
 22 17  1  0
 23 22  2  0
 25 22  1  0
M  END
$$$$
