IYV.pdb
     RDKit          3D

 28 28  0  0  1  0  0  0  0  0999 V2000
    3.2653  -17.6774   20.9725 C   0  0  0  0  0  0  0  0  0  0  0  0
    4.3215  -17.7012   22.0313 C   0  0  0  0  0  0  0  0  0  0  0  0
    5.0433  -19.0090   22.0529 C   0  0  2  0  0  0  0  0  0  0  0  0
    4.0973  -20.1525   22.4038 C   0  0  0  0  0  0  0  0  0  0  0  0
    6.1784  -18.9415   23.0643 C   0  0  2  0  0  0  0  0  0  0  0  0
    5.5758  -18.6244   24.3558 N   0  0  0  0  0  0  0  0  0  0  0  0
    7.1616  -17.8840   22.7745 C   0  0  0  0  0  0  0  0  0  0  0  0
    7.8712  -17.9848   21.7438 O   0  0  0  0  0  0  0  0  0  0  0  0
    8.3831  -12.8837   17.5257 O   0  0  0  0  0  0  0  0  0  0  0  0
    8.2366  -13.2776   18.8620 C   0  0  0  0  0  0  0  0  0  0  0  0
    7.0845  -13.0159   19.5691 C   0  0  0  0  0  0  0  0  0  0  0  0
    6.9620  -13.4123   20.8816 C   0  0  0  0  0  0  0  0  0  0  0  0
    7.9570  -14.0806   21.5611 C   0  0  0  0  0  0  0  0  0  0  0  0
    7.7748  -14.4762   22.9579 C   0  0  0  0  0  0  0  0  0  0  0  0
    8.4324  -15.8075   23.3125 C   0  0  2  0  0  0  0  0  0  0  0  0
    7.3487  -16.7472   23.6017 N   0  0  0  0  0  0  0  0  0  0  0  0
    9.3527  -15.6437   24.4369 C   0  0  0  0  0  0  0  0  0  0  0  0
   10.5967  -15.9342   24.3460 O   0  0  0  0  0  0  0  0  0  0  0  0
    9.1139  -14.3382   20.8362 C   0  0  0  0  0  0  0  0  0  0  0  0
    9.2476  -13.9456   19.5201 C   0  0  0  0  0  0  0  0  0  0  0  0
    9.3943  -12.5814   27.1507 C   0  0  0  0  0  0  0  0  0  0  0  0
    9.4807  -13.9442   27.7769 C   0  0  1  0  0  0  0  0  0  0  0  0
    8.0993  -14.3263   28.2587 C   0  0  0  0  0  0  0  0  0  0  0  0
    9.9299  -15.0155   26.8116 C   0  0  2  0  0  0  0  0  0  0  0  0
    8.9684  -15.1573   25.7081 N   0  0  0  0  0  0  0  0  0  0  0  0
    9.9355  -16.3072   27.5339 C   0  0  0  0  0  0  0  0  0  0  0  0
    9.0556  -17.1596   27.2754 O   0  0  0  0  0  0  0  0  0  0  0  0
   10.8836  -16.6142   28.4932 O   0  0  0  0  0  0  0  0  0  0  0  0
  2  1  1  0
  3  2  1  0
  3  4  1  1
  5  3  1  0
  5  6  1  1
  7  8  2  0
  7  5  1  0
  9 10  1  0
 10 11  2  0
 11 12  1  0
 13 14  1  0
 13 12  2  0
 15 14  1  1
 15 16  1  0
 16  7  1  0
 17 15  1  0
 17 18  2  0
 19 13  1  0
 20 19  2  0
 20 10  1  0
 22 21  1  6
 23 22  1  0
 24 22  1  0
 24 25  1  6
 25 17  1  0
 26 24  1  0
 27 26  2  0
 28 26  1  0
M  END
$$$$
