IYV.pdb
     RDKit          3D

 28 28  0  0  1  0  0  0  0  0999 V2000
    7.6469  -11.8056   19.9979 C   0  0  0  0  0  0  0  0  0  0  0  0
    7.7625  -13.1370   20.6695 C   0  0  0  0  0  0  0  0  0  0  0  0
    8.2217  -14.1913   19.7158 C   0  0  2  0  0  0  0  0  0  0  0  0
    7.2840  -14.2935   18.5174 C   0  0  0  0  0  0  0  0  0  0  0  0
    8.2924  -15.5286   20.4387 C   0  0  2  0  0  0  0  0  0  0  0  0
    6.9172  -15.9315   20.7185 N   0  0  0  0  0  0  0  0  0  0  0  0
    8.9947  -15.4614   21.7315 C   0  0  0  0  0  0  0  0  0  0  0  0
   10.2445  -15.3429   21.7345 O   0  0  0  0  0  0  0  0  0  0  0  0
   10.6321  -14.7276   30.4475 O   0  0  0  0  0  0  0  0  0  0  0  0
   10.0352  -14.7702   29.1809 C   0  0  0  0  0  0  0  0  0  0  0  0
    9.4674  -15.9243   28.6894 C   0  0  0  0  0  0  0  0  0  0  0  0
    8.8860  -15.9436   27.4418 C   0  0  0  0  0  0  0  0  0  0  0  0
    8.8331  -14.8390   26.6199 C   0  0  0  0  0  0  0  0  0  0  0  0
    8.2051  -14.9162   25.3008 C   0  0  0  0  0  0  0  0  0  0  0  0
    9.1080  -15.5082   24.2216 C   0  0  2  0  0  0  0  0  0  0  0  0
    8.3297  -15.5199   22.9828 N   0  0  0  0  0  0  0  0  0  0  0  0
    9.5700  -16.8399   24.6107 C   0  0  0  0  0  0  0  0  0  0  0  0
    8.7626  -17.8217   24.7668 O   0  0  0  0  0  0  0  0  0  0  0  0
    9.4096  -13.6814   27.1279 C   0  0  0  0  0  0  0  0  0  0  0  0
    9.9950  -13.6506   28.3770 C   0  0  0  0  0  0  0  0  0  0  0  0
   13.6619  -17.9633   24.2046 C   0  0  0  0  0  0  0  0  0  0  0  0
   12.4926  -18.9006   24.0997 C   0  0  1  0  0  0  0  0  0  0  0  0
   12.9718  -20.2889   24.4595 C   0  0  0  0  0  0  0  0  0  0  0  0
   11.3672  -18.5566   25.0466 C   0  0  2  0  0  0  0  0  0  0  0  0
   10.9253  -17.1685   24.8463 N   0  0  0  0  0  0  0  0  0  0  0  0
   11.8926  -18.6363   26.4279 C   0  0  0  0  0  0  0  0  0  0  0  0
   12.2171  -17.5838   27.0235 O   0  0  0  0  0  0  0  0  0  0  0  0
   12.0415  -19.8391   27.0945 O   0  0  0  0  0  0  0  0  0  0  0  0
  2  1  1  0
  3  2  1  0
  3  4  1  6
  5  3  1  0
  5  6  1  1
  7  8  2  0
  7  5  1  0
  9 10  1  0
 10 11  2  0
 11 12  1  0
 13 14  1  0
 13 12  2  0
 15 14  1  1
 15 16  1  0
 16  7  1  0
 17 15  1  0
 17 18  2  0
 19 13  1  0
 20 19  2  0
 20 10  1  0
 22 21  1  1
 23 22  1  0
 24 22  1  0
 24 25  1  6
 25 17  1  0
 26 24  1  0
 27 26  2  0
 28 26  1  0
M  END
$$$$
