IYV.pdb
     RDKit          3D

 28 28  0  0  1  0  0  0  0  0999 V2000
    7.6065  -12.2174   19.0966 C   0  0  0  0  0  0  0  0  0  0  0  0
    7.7586  -13.6919   19.2961 C   0  0  0  0  0  0  0  0  0  0  0  0
    7.5984  -14.0677   20.7331 C   0  0  2  0  0  0  0  0  0  0  0  0
    8.5809  -13.3024   21.6134 C   0  0  0  0  0  0  0  0  0  0  0  0
    7.8151  -15.5658   20.8894 C   0  0  2  0  0  0  0  0  0  0  0  0
    6.8151  -16.2271   20.0561 N   0  0  0  0  0  0  0  0  0  0  0  0
    7.6172  -16.0478   22.2670 C   0  0  0  0  0  0  0  0  0  0  0  0
    6.4965  -15.8850   22.8087 O   0  0  0  0  0  0  0  0  0  0  0  0
    4.3266  -21.1731   21.6496 O   0  0  0  0  0  0  0  0  0  0  0  0
    5.3426  -20.5230   22.3620 C   0  0  0  0  0  0  0  0  0  0  0  0
    5.1418  -20.0575   23.6422 C   0  0  0  0  0  0  0  0  0  0  0  0
    6.1545  -19.4214   24.3239 C   0  0  0  0  0  0  0  0  0  0  0  0
    7.4061  -19.2117   23.7871 C   0  0  0  0  0  0  0  0  0  0  0  0
    8.4456  -18.5266   24.5555 C   0  0  0  0  0  0  0  0  0  0  0  0
    8.4036  -17.0057   24.4303 C   0  0  2  0  0  0  0  0  0  0  0  0
    8.6312  -16.6942   23.0189 N   0  0  0  0  0  0  0  0  0  0  0  0
    9.3944  -16.3891   25.3114 C   0  0  0  0  0  0  0  0  0  0  0  0
   10.6488  -16.4246   25.0551 O   0  0  0  0  0  0  0  0  0  0  0  0
    7.5951  -19.6861   22.4950 C   0  0  0  0  0  0  0  0  0  0  0  0
    6.5872  -20.3252   21.8023 C   0  0  0  0  0  0  0  0  0  0  0  0
    9.1596  -12.7891   27.0351 C   0  0  0  0  0  0  0  0  0  0  0  0
    9.5812  -13.8433   28.0188 C   0  0  1  0  0  0  0  0  0  0  0  0
    8.3683  -14.2372   28.8313 C   0  0  0  0  0  0  0  0  0  0  0  0
   10.1043  -15.0976   27.3595 C   0  0  2  0  0  0  0  0  0  0  0  0
    9.0721  -15.7060   26.5070 N   0  0  0  0  0  0  0  0  0  0  0  0
   10.4051  -16.0810   28.4238 C   0  0  0  0  0  0  0  0  0  0  0  0
    9.6145  -17.0311   28.6238 O   0  0  0  0  0  0  0  0  0  0  0  0
   11.5363  -15.9922   29.2149 O   0  0  0  0  0  0  0  0  0  0  0  0
  2  1  1  0
  3  2  1  0
  3  4  1  1
  5  3  1  0
  5  6  1  6
  7  8  2  0
  7  5  1  0
  9 10  1  0
 10 11  2  0
 11 12  1  0
 13 14  1  0
 13 12  2  0
 15 14  1  6
 15 16  1  0
 16  7  1  0
 17 15  1  0
 17 18  2  0
 19 13  1  0
 20 19  2  0
 20 10  1  0
 22 21  1  6
 23 22  1  0
 24 22  1  0
 24 25  1  6
 25 17  1  0
 26 24  1  0
 27 26  2  0
 28 26  1  0
M  END
$$$$
