IYV.pdb
     RDKit          3D

 28 28  0  0  1  0  0  0  0  0999 V2000
    3.8529  -17.6185   20.6294 C   0  0  0  0  0  0  0  0  0  0  0  0
    4.7687  -17.4558   21.8006 C   0  0  0  0  0  0  0  0  0  0  0  0
    5.3605  -18.7630   22.2165 C   0  0  2  0  0  0  0  0  0  0  0  0
    4.2715  -19.7770   22.5507 C   0  0  0  0  0  0  0  0  0  0  0  0
    6.2609  -18.5471   23.4242 C   0  0  2  0  0  0  0  0  0  0  0  0
    5.4487  -17.8927   24.4459 N   0  0  0  0  0  0  0  0  0  0  0  0
    7.4074  -17.6636   23.1520 C   0  0  0  0  0  0  0  0  0  0  0  0
    8.4004  -18.1327   22.5437 O   0  0  0  0  0  0  0  0  0  0  0  0
    7.7821  -13.5215   17.1505 O   0  0  0  0  0  0  0  0  0  0  0  0
    7.8763  -13.6730   18.5399 C   0  0  0  0  0  0  0  0  0  0  0  0
    6.8158  -13.3872   19.3703 C   0  0  0  0  0  0  0  0  0  0  0  0
    6.9305  -13.5433   20.7332 C   0  0  0  0  0  0  0  0  0  0  0  0
    8.0835  -13.9845   21.3450 C   0  0  0  0  0  0  0  0  0  0  0  0
    8.1517  -14.1295   22.7992 C   0  0  0  0  0  0  0  0  0  0  0  0
    8.6415  -15.5000   23.2600 C   0  0  2  0  0  0  0  0  0  0  0  0
    7.4488  -16.3000   23.5397 N   0  0  0  0  0  0  0  0  0  0  0  0
    9.5188  -15.3689   24.4225 C   0  0  0  0  0  0  0  0  0  0  0  0
   10.6866  -14.8497   24.3388 O   0  0  0  0  0  0  0  0  0  0  0  0
    9.1457  -14.2691   20.4957 C   0  0  0  0  0  0  0  0  0  0  0  0
    9.0420  -14.1163   19.1283 C   0  0  0  0  0  0  0  0  0  0  0  0
   10.2987  -14.1330   28.9532 C   0  0  0  0  0  0  0  0  0  0  0  0
    9.3854  -14.5787   27.8468 C   0  0  1  0  0  0  0  0  0  0  0  0
    8.9821  -13.3572   27.0522 C   0  0  0  0  0  0  0  0  0  0  0  0
   10.0411  -15.5414   26.8851 C   0  0  2  0  0  0  0  0  0  0  0  0
    9.1711  -15.7922   25.7264 N   0  0  0  0  0  0  0  0  0  0  0  0
   10.2039  -16.8388   27.5783 C   0  0  0  0  0  0  0  0  0  0  0  0
    9.4775  -17.8051   27.2521 O   0  0  0  0  0  0  0  0  0  0  0  0
   11.1359  -17.0292   28.5825 O   0  0  0  0  0  0  0  0  0  0  0  0
  2  1  1  0
  3  2  1  0
  3  4  1  1
  5  3  1  0
  5  6  1  1
  7  8  2  0
  7  5  1  0
  9 10  1  0
 10 11  2  0
 11 12  1  0
 13 14  1  0
 13 12  2  0
 15 14  1  1
 15 16  1  0
 16  7  1  0
 17 15  1  0
 17 18  2  0
 19 13  1  0
 20 19  2  0
 20 10  1  0
 22 21  1  1
 23 22  1  0
 24 22  1  0
 24 25  1  6
 25 17  1  0
 26 24  1  0
 27 26  2  0
 28 26  1  0
M  END
$$$$
