IYV.pdb
     RDKit          3D

 28 28  0  0  1  0  0  0  0  0999 V2000
    7.8778  -12.6108   18.2411 C   0  0  0  0  0  0  0  0  0  0  0  0
    7.9797  -14.0559   18.6130 C   0  0  0  0  0  0  0  0  0  0  0  0
    7.5080  -14.2945   20.0104 C   0  0  2  0  0  0  0  0  0  0  0  0
    8.2340  -13.3864   20.9974 C   0  0  0  0  0  0  0  0  0  0  0  0
    7.7373  -15.7534   20.3775 C   0  0  2  0  0  0  0  0  0  0  0  0
    6.8889  -16.5499   19.4957 N   0  0  0  0  0  0  0  0  0  0  0  0
    7.3500  -16.0793   21.7605 C   0  0  0  0  0  0  0  0  0  0  0  0
    6.1328  -16.0614   22.0671 O   0  0  0  0  0  0  0  0  0  0  0  0
    5.9358  -22.4739   22.4250 O   0  0  0  0  0  0  0  0  0  0  0  0
    6.5476  -21.3412   22.9772 C   0  0  0  0  0  0  0  0  0  0  0  0
    6.0387  -20.7195   24.0955 C   0  0  0  0  0  0  0  0  0  0  0  0
    6.6562  -19.6073   24.6215 C   0  0  0  0  0  0  0  0  0  0  0  0
    7.7959  -19.0536   24.0803 C   0  0  0  0  0  0  0  0  0  0  0  0
    8.4097  -17.8679   24.6787 C   0  0  0  0  0  0  0  0  0  0  0  0
    7.8405  -16.5501   24.1592 C   0  0  2  0  0  0  0  0  0  0  0  0
    8.2851  -16.4188   22.7714 N   0  0  0  0  0  0  0  0  0  0  0  0
    8.2751  -15.4350   24.9992 C   0  0  0  0  0  0  0  0  0  0  0  0
    9.4781  -14.9959   24.9786 O   0  0  0  0  0  0  0  0  0  0  0  0
    8.2986  -19.6905   22.9525 C   0  0  0  0  0  0  0  0  0  0  0  0
    7.6880  -20.8059   22.4167 C   0  0  0  0  0  0  0  0  0  0  0  0
    7.1623  -11.7002   28.1613 C   0  0  0  0  0  0  0  0  0  0  0  0
    6.7396  -12.8299   27.2657 C   0  0  1  0  0  0  0  0  0  0  0  0
    5.9850  -12.2417   26.0949 C   0  0  0  0  0  0  0  0  0  0  0  0
    7.9036  -13.6096   26.7013 C   0  0  2  0  0  0  0  0  0  0  0  0
    7.4277  -14.7449   25.8970 N   0  0  0  0  0  0  0  0  0  0  0  0
    8.6603  -14.1848   27.8357 C   0  0  0  0  0  0  0  0  0  0  0  0
    8.4773  -15.3823   28.1522 O   0  0  0  0  0  0  0  0  0  0  0  0
    9.5713  -13.4453   28.5682 O   0  0  0  0  0  0  0  0  0  0  0  0
  2  1  1  0
  3  2  1  0
  3  4  1  1
  5  3  1  0
  5  6  1  6
  7  8  2  0
  7  5  1  0
  9 10  1  0
 10 11  2  0
 11 12  1  0
 13 14  1  0
 13 12  2  0
 15 14  1  1
 15 16  1  0
 16  7  1  0
 17 15  1  0
 17 18  2  0
 19 13  1  0
 20 19  2  0
 20 10  1  0
 22 21  1  1
 23 22  1  0
 24 22  1  0
 24 25  1  6
 25 17  1  0
 26 24  1  0
 27 26  2  0
 28 26  1  0
M  END
$$$$
