IYV.pdb
     RDKit          3D

 28 28  0  0  1  0  0  0  0  0999 V2000
    7.5265  -12.3302   18.3417 C   0  0  0  0  0  0  0  0  0  0  0  0
    7.6040  -13.8075   18.5621 C   0  0  0  0  0  0  0  0  0  0  0  0
    7.3369  -14.1613   19.9888 C   0  0  2  0  0  0  0  0  0  0  0  0
    8.3014  -13.4387   20.9234 C   0  0  0  0  0  0  0  0  0  0  0  0
    7.4664  -15.6670   20.1675 C   0  0  2  0  0  0  0  0  0  0  0  0
    6.4459  -16.2824   19.3239 N   0  0  0  0  0  0  0  0  0  0  0  0
    7.2172  -16.1188   21.5469 C   0  0  0  0  0  0  0  0  0  0  0  0
    6.0675  -15.9769   22.0306 O   0  0  0  0  0  0  0  0  0  0  0  0
    8.0770  -19.6771   29.6436 O   0  0  0  0  0  0  0  0  0  0  0  0
    8.1985  -19.3316   28.2915 C   0  0  0  0  0  0  0  0  0  0  0  0
    9.4232  -19.0613   27.7233 C   0  0  0  0  0  0  0  0  0  0  0  0
    9.5195  -18.7237   26.3923 C   0  0  0  0  0  0  0  0  0  0  0  0
    8.4264  -18.6352   25.5582 C   0  0  0  0  0  0  0  0  0  0  0  0
    8.5858  -18.2689   24.1507 C   0  0  0  0  0  0  0  0  0  0  0  0
    7.9539  -16.9276   23.7872 C   0  0  2  0  0  0  0  0  0  0  0  0
    8.2129  -16.7136   22.3632 N   0  0  0  0  0  0  0  0  0  0  0  0
    8.4952  -15.8594   24.6263 C   0  0  0  0  0  0  0  0  0  0  0  0
    9.6695  -15.3811   24.4458 O   0  0  0  0  0  0  0  0  0  0  0  0
    7.1970  -18.9103   26.1441 C   0  0  0  0  0  0  0  0  0  0  0  0
    7.0888  -19.2497   27.4772 C   0  0  0  0  0  0  0  0  0  0  0  0
    7.6069  -11.9177   27.5011 C   0  0  0  0  0  0  0  0  0  0  0  0
    7.1648  -13.1198   26.7159 C   0  0  1  0  0  0  0  0  0  0  0  0
    6.5951  -12.6364   25.4014 C   0  0  0  0  0  0  0  0  0  0  0  0
    8.2951  -14.0678   26.3918 C   0  0  2  0  0  0  0  0  0  0  0  0
    7.7899  -15.2606   25.6960 N   0  0  0  0  0  0  0  0  0  0  0  0
    8.8754  -14.5394   27.6690 C   0  0  0  0  0  0  0  0  0  0  0  0
    8.5058  -15.6375   28.1435 O   0  0  0  0  0  0  0  0  0  0  0  0
    9.8196  -13.8084   28.3672 O   0  0  0  0  0  0  0  0  0  0  0  0
  2  1  1  0
  3  2  1  0
  3  4  1  1
  5  3  1  0
  5  6  1  6
  7  8  2  0
  7  5  1  0
  9 10  1  0
 10 11  2  0
 11 12  1  0
 13 14  1  0
 13 12  2  0
 15 14  1  1
 15 16  1  0
 16  7  1  0
 17 15  1  0
 17 18  2  0
 19 13  1  0
 20 19  2  0
 20 10  1  0
 22 21  1  1
 23 22  1  0
 24 22  1  0
 24 25  1  1
 25 17  1  0
 26 24  1  0
 27 26  2  0
 28 26  1  0
M  END
$$$$
