IYV.pdb
     RDKit          3D

 28 28  0  0  1  0  0  0  0  0999 V2000
    7.7073  -12.2231   19.5410 C   0  0  0  0  0  0  0  0  0  0  0  0
    7.3326  -13.6469   19.8041 C   0  0  0  0  0  0  0  0  0  0  0  0
    8.4520  -14.5771   19.4669 C   0  0  2  0  0  0  0  0  0  0  0  0
    8.8497  -14.4486   18.0003 C   0  0  0  0  0  0  0  0  0  0  0  0
    8.0275  -16.0069   19.7693 C   0  0  2  0  0  0  0  0  0  0  0  0
    6.8222  -16.2648   18.9867 N   0  0  0  0  0  0  0  0  0  0  0  0
    7.6811  -16.2306   21.1832 C   0  0  0  0  0  0  0  0  0  0  0  0
    6.4776  -16.1480   21.5306 O   0  0  0  0  0  0  0  0  0  0  0  0
    7.5544  -19.4328   29.3987 O   0  0  0  0  0  0  0  0  0  0  0  0
    7.8964  -19.0775   28.0876 C   0  0  0  0  0  0  0  0  0  0  0  0
    7.0181  -19.2495   27.0412 C   0  0  0  0  0  0  0  0  0  0  0  0
    7.3751  -18.8932   25.7603 C   0  0  0  0  0  0  0  0  0  0  0  0
    8.6031  -18.3542   25.4445 C   0  0  0  0  0  0  0  0  0  0  0  0
    8.9315  -17.9959   24.0645 C   0  0  0  0  0  0  0  0  0  0  0  0
    8.2122  -16.7460   23.5640 C   0  0  2  0  0  0  0  0  0  0  0  0
    8.6409  -16.5405   22.1803 N   0  0  0  0  0  0  0  0  0  0  0  0
    8.5108  -15.6013   24.4235 C   0  0  0  0  0  0  0  0  0  0  0  0
    9.6355  -14.9904   24.3770 O   0  0  0  0  0  0  0  0  0  0  0  0
    9.4796  -18.1861   26.5094 C   0  0  0  0  0  0  0  0  0  0  0  0
    9.1324  -18.5396   27.7972 C   0  0  0  0  0  0  0  0  0  0  0  0
    6.8940  -11.8838   27.3287 C   0  0  0  0  0  0  0  0  0  0  0  0
    6.6441  -13.1391   26.5423 C   0  0  1  0  0  0  0  0  0  0  0  0
    5.9254  -12.7578   25.2679 C   0  0  0  0  0  0  0  0  0  0  0  0
    7.9133  -13.8542   26.1432 C   0  0  2  0  0  0  0  0  0  0  0  0
    7.6059  -15.0663   25.3695 N   0  0  0  0  0  0  0  0  0  0  0  0
    8.5915  -14.3041   27.3793 C   0  0  0  0  0  0  0  0  0  0  0  0
    8.3689  -15.4556   27.8179 O   0  0  0  0  0  0  0  0  0  0  0  0
    9.4705  -13.4956   28.0772 O   0  0  0  0  0  0  0  0  0  0  0  0
  2  1  1  0
  3  2  1  0
  3  4  1  6
  5  3  1  0
  5  6  1  6
  7  8  2  0
  7  5  1  0
  9 10  1  0
 10 11  2  0
 11 12  1  0
 13 14  1  0
 13 12  2  0
 15 14  1  1
 15 16  1  0
 16  7  1  0
 17 15  1  0
 17 18  2  0
 19 13  1  0
 20 19  2  0
 20 10  1  0
 22 21  1  6
 23 22  1  0
 24 22  1  0
 24 25  1  6
 25 17  1  0
 26 24  1  0
 27 26  2  0
 28 26  1  0
M  END
$$$$
