IYV.pdb
     RDKit          3D

 28 28  0  0  1  0  0  0  0  0999 V2000
    8.1373  -12.1701   19.4817 C   0  0  0  0  0  0  0  0  0  0  0  0
    7.6351  -13.5369   19.8232 C   0  0  0  0  0  0  0  0  0  0  0  0
    8.6224  -14.5919   19.4434 C   0  0  2  0  0  0  0  0  0  0  0  0
    8.9579  -14.5202   17.9575 C   0  0  0  0  0  0  0  0  0  0  0  0
    8.0529  -15.9613   19.7845 C   0  0  2  0  0  0  0  0  0  0  0  0
    6.8001  -16.0942   19.0465 N   0  0  0  0  0  0  0  0  0  0  0  0
    7.7329  -16.1256   21.2127 C   0  0  0  0  0  0  0  0  0  0  0  0
    6.5732  -15.8512   21.6073 O   0  0  0  0  0  0  0  0  0  0  0  0
    7.8692  -19.3576   29.4853 O   0  0  0  0  0  0  0  0  0  0  0  0
    8.1383  -19.0331   28.1495 C   0  0  0  0  0  0  0  0  0  0  0  0
    9.3868  -18.6153   27.7461 C   0  0  0  0  0  0  0  0  0  0  0  0
    9.6291  -18.3015   26.4279 C   0  0  0  0  0  0  0  0  0  0  0  0
    8.6653  -18.3814   25.4465 C   0  0  0  0  0  0  0  0  0  0  0  0
    8.9768  -18.0326   24.0602 C   0  0  0  0  0  0  0  0  0  0  0  0
    8.2518  -16.7856   23.5603 C   0  0  2  0  0  0  0  0  0  0  0  0
    8.6705  -16.5844   22.1728 N   0  0  0  0  0  0  0  0  0  0  0  0
    8.5544  -15.6374   24.4135 C   0  0  0  0  0  0  0  0  0  0  0  0
    9.6815  -15.0311   24.3641 O   0  0  0  0  0  0  0  0  0  0  0  0
    7.4103  -18.8041   25.8671 C   0  0  0  0  0  0  0  0  0  0  0  0
    7.1561  -19.1212   27.1857 C   0  0  0  0  0  0  0  0  0  0  0  0
    6.9293  -11.9364   27.3510 C   0  0  0  0  0  0  0  0  0  0  0  0
    6.6848  -13.1608   26.5156 C   0  0  1  0  0  0  0  0  0  0  0  0
    5.9891  -12.7288   25.2445 C   0  0  0  0  0  0  0  0  0  0  0  0
    7.9560  -13.8691   26.1112 C   0  0  2  0  0  0  0  0  0  0  0  0
    7.6512  -15.0936   25.3562 N   0  0  0  0  0  0  0  0  0  0  0  0
    8.6521  -14.2972   27.3451 C   0  0  0  0  0  0  0  0  0  0  0  0
    8.4399  -15.4426   27.8043 O   0  0  0  0  0  0  0  0  0  0  0  0
    9.5368  -13.4747   28.0187 O   0  0  0  0  0  0  0  0  0  0  0  0
  2  1  1  0
  3  2  1  0
  3  4  1  6
  5  3  1  0
  5  6  1  6
  7  8  2  0
  7  5  1  0
  9 10  1  0
 10 11  2  0
 11 12  1  0
 13 14  1  0
 13 12  2  0
 15 14  1  1
 15 16  1  0
 16  7  1  0
 17 15  1  0
 17 18  2  0
 19 13  1  0
 20 19  2  0
 20 10  1  0
 22 21  1  1
 23 22  1  0
 24 22  1  0
 24 25  1  6
 25 17  1  0
 26 24  1  0
 27 26  2  0
 28 26  1  0
M  END
$$$$
