IYV.pdb
     RDKit          3D

 28 28  0  0  1  0  0  0  0  0999 V2000
    9.3971  -14.0418   29.9273 C   0  0  0  0  0  0  0  0  0  0  0  0
    9.8365  -15.4332   29.5985 C   0  0  0  0  0  0  0  0  0  0  0  0
    9.8555  -15.6652   28.1228 C   0  0  2  0  0  0  0  0  0  0  0  0
   10.3518  -14.4296   27.3792 C   0  0  0  0  0  0  0  0  0  0  0  0
    8.4551  -16.0302   27.6520 C   0  0  2  0  0  0  0  0  0  0  0  0
    8.1335  -17.3250   28.2451 N   0  0  0  0  0  0  0  0  0  0  0  0
    8.3479  -16.1852   26.1913 C   0  0  0  0  0  0  0  0  0  0  0  0
    8.6718  -17.2826   25.6749 O   0  0  0  0  0  0  0  0  0  0  0  0
    7.8176  -13.9353   17.5756 O   0  0  0  0  0  0  0  0  0  0  0  0
    7.7184  -13.9638   18.9727 C   0  0  0  0  0  0  0  0  0  0  0  0
    6.9172  -14.8772   19.6205 C   0  0  0  0  0  0  0  0  0  0  0  0
    6.8348  -14.8873   20.9945 C   0  0  0  0  0  0  0  0  0  0  0  0
    7.5296  -14.0078   21.7959 C   0  0  0  0  0  0  0  0  0  0  0  0
    7.4026  -14.0609   23.2525 C   0  0  0  0  0  0  0  0  0  0  0  0
    8.0331  -15.3007   23.8816 C   0  0  2  0  0  0  0  0  0  0  0  0
    7.8911  -15.1546   25.3305 N   0  0  0  0  0  0  0  0  0  0  0  0
    9.4271  -15.4384   23.4620 C   0  0  0  0  0  0  0  0  0  0  0  0
   10.3486  -14.6626   23.8970 O   0  0  0  0  0  0  0  0  0  0  0  0
    8.3340  -13.0916   21.1296 C   0  0  0  0  0  0  0  0  0  0  0  0
    8.4242  -13.0724   19.7528 C   0  0  0  0  0  0  0  0  0  0  0  0
   13.1388  -18.2749   21.9245 C   0  0  0  0  0  0  0  0  0  0  0  0
   11.7667  -17.9930   22.4674 C   0  0  1  0  0  0  0  0  0  0  0  0
   11.8038  -18.2018   23.9645 C   0  0  0  0  0  0  0  0  0  0  0  0
   11.3106  -16.5737   22.2249 C   0  0  2  0  0  0  0  0  0  0  0  0
    9.8858  -16.4219   22.5551 N   0  0  0  0  0  0  0  0  0  0  0  0
   11.4397  -16.2940   20.7774 C   0  0  0  0  0  0  0  0  0  0  0  0
   10.5318  -16.6612   19.9973 O   0  0  0  0  0  0  0  0  0  0  0  0
   12.5344  -15.6365   20.2456 O   0  0  0  0  0  0  0  0  0  0  0  0
  2  1  1  0
  3  2  1  0
  3  4  1  6
  5  3  1  0
  5  6  1  1
  7  8  2  0
  7  5  1  0
  9 10  1  0
 10 11  2  0
 11 12  1  0
 13 14  1  0
 13 12  2  0
 15 14  1  6
 15 16  1  0
 16  7  1  0
 17 15  1  0
 17 18  2  0
 19 13  1  0
 20 19  2  0
 20 10  1  0
 22 21  1  1
 23 22  1  0
 24 22  1  0
 24 25  1  6
 25 17  1  0
 26 24  1  0
 27 26  2  0
 28 26  1  0
M  END
$$$$
