IYV.pdb
     RDKit          3D

 28 28  0  0  1  0  0  0  0  0999 V2000
   10.4100  -14.8630   30.1748 C   0  0  0  0  0  0  0  0  0  0  0  0
    9.2290  -15.5592   29.5768 C   0  0  0  0  0  0  0  0  0  0  0  0
    9.3204  -15.6066   28.0864 C   0  0  2  0  0  0  0  0  0  0  0  0
    9.6185  -14.2262   27.5106 C   0  0  0  0  0  0  0  0  0  0  0  0
    8.0125  -16.1379   27.5179 C   0  0  2  0  0  0  0  0  0  0  0  0
    7.8302  -17.4811   28.0605 N   0  0  0  0  0  0  0  0  0  0  0  0
    8.0166  -16.2612   26.0504 C   0  0  0  0  0  0  0  0  0  0  0  0
    8.3833  -17.3463   25.5364 O   0  0  0  0  0  0  0  0  0  0  0  0
    7.8630  -13.9004   17.4324 O   0  0  0  0  0  0  0  0  0  0  0  0
    7.7054  -13.9540   18.8233 C   0  0  0  0  0  0  0  0  0  0  0  0
    8.3126  -13.0389   19.6538 C   0  0  0  0  0  0  0  0  0  0  0  0
    8.1440  -13.1103   21.0181 C   0  0  0  0  0  0  0  0  0  0  0  0
    7.3766  -14.0764   21.6313 C   0  0  0  0  0  0  0  0  0  0  0  0
    7.2339  -14.1076   23.0871 C   0  0  0  0  0  0  0  0  0  0  0  0
    7.8841  -15.3223   23.7445 C   0  0  2  0  0  0  0  0  0  0  0  0
    7.6219  -15.2134   25.1799 N   0  0  0  0  0  0  0  0  0  0  0  0
    9.3120  -15.3731   23.4338 C   0  0  0  0  0  0  0  0  0  0  0  0
   10.1418  -14.5185   23.9044 O   0  0  0  0  0  0  0  0  0  0  0  0
    6.7698  -14.9933   20.7819 C   0  0  0  0  0  0  0  0  0  0  0  0
    6.9318  -14.9313   19.4130 C   0  0  0  0  0  0  0  0  0  0  0  0
   13.2992  -18.0386   22.3706 C   0  0  0  0  0  0  0  0  0  0  0  0
   11.8639  -17.8187   22.7556 C   0  0  1  0  0  0  0  0  0  0  0  0
   11.7516  -17.9791   24.2549 C   0  0  0  0  0  0  0  0  0  0  0  0
   11.3613  -16.4357   22.4149 C   0  0  2  0  0  0  0  0  0  0  0  0
    9.9052  -16.3509   22.6019 N   0  0  0  0  0  0  0  0  0  0  0  0
   11.6157  -16.1994   20.9762 C   0  0  0  0  0  0  0  0  0  0  0  0
   12.6442  -15.5756   20.6285 O   0  0  0  0  0  0  0  0  0  0  0  0
   10.7543  -16.6445   19.9897 O   0  0  0  0  0  0  0  0  0  0  0  0
  2  1  1  0
  3  2  1  0
  3  4  1  6
  5  3  1  0
  5  6  1  1
  7  8  2  0
  7  5  1  0
  9 10  1  0
 10 11  2  0
 11 12  1  0
 13 14  1  0
 13 12  2  0
 15 14  1  6
 15 16  1  0
 16  7  1  0
 17 15  1  0
 17 18  2  0
 19 13  1  0
 20 19  2  0
 20 10  1  0
 22 21  1  1
 23 22  1  0
 24 22  1  0
 24 25  1  6
 25 17  1  0
 26 24  1  0
 27 26  2  0
 28 26  1  0
M  END
$$$$
