IYV.pdb
     RDKit          3D

 28 28  0  0  1  0  0  0  0  0999 V2000
    6.8756  -11.6220   18.6923 C   0  0  0  0  0  0  0  0  0  0  0  0
    7.0529  -13.0416   19.1286 C   0  0  0  0  0  0  0  0  0  0  0  0
    7.8823  -13.1321   20.3679 C   0  0  2  0  0  0  0  0  0  0  0  0
    9.2379  -12.4616   20.1714 C   0  0  0  0  0  0  0  0  0  0  0  0
    8.0728  -14.5951   20.7410 C   0  0  2  0  0  0  0  0  0  0  0  0
    6.7415  -15.1514   20.9647 N   0  0  0  0  0  0  0  0  0  0  0  0
    8.8372  -14.7897   21.9847 C   0  0  0  0  0  0  0  0  0  0  0  0
   10.0804  -14.6164   21.9630 O   0  0  0  0  0  0  0  0  0  0  0  0
   10.8220  -15.3357   30.6306 O   0  0  0  0  0  0  0  0  0  0  0  0
   10.1733  -15.2302   29.3935 C   0  0  0  0  0  0  0  0  0  0  0  0
    9.5624  -16.3146   28.8045 C   0  0  0  0  0  0  0  0  0  0  0  0
    8.9306  -16.1883   27.5881 C   0  0  0  0  0  0  0  0  0  0  0  0
    8.8670  -14.9999   26.8937 C   0  0  0  0  0  0  0  0  0  0  0  0
    8.1844  -14.9225   25.6020 C   0  0  0  0  0  0  0  0  0  0  0  0
    9.0672  -15.2985   24.4146 C   0  0  2  0  0  0  0  0  0  0  0  0
    8.2394  -15.1615   23.2159 N   0  0  0  0  0  0  0  0  0  0  0  0
    9.6035  -16.6489   24.5791 C   0  0  0  0  0  0  0  0  0  0  0  0
    8.8437  -17.6716   24.7096 O   0  0  0  0  0  0  0  0  0  0  0  0
    9.4874  -13.9140   27.4991 C   0  0  0  0  0  0  0  0  0  0  0  0
   10.1236  -14.0291   28.7181 C   0  0  0  0  0  0  0  0  0  0  0  0
   12.0441  -18.5850   22.2671 C   0  0  0  0  0  0  0  0  0  0  0  0
   12.5560  -18.5903   23.6795 C   0  0  1  0  0  0  0  0  0  0  0  0
   13.5725  -17.4789   23.8131 C   0  0  0  0  0  0  0  0  0  0  0  0
   11.4767  -18.3348   24.7047 C   0  0  2  0  0  0  0  0  0  0  0  0
   10.9845  -16.9525   24.6080 N   0  0  0  0  0  0  0  0  0  0  0  0
   12.0817  -18.4734   26.0483 C   0  0  0  0  0  0  0  0  0  0  0  0
   12.2169  -19.6142   26.5465 O   0  0  0  0  0  0  0  0  0  0  0  0
   12.5082  -17.3824   26.7838 O   0  0  0  0  0  0  0  0  0  0  0  0
  2  1  1  0
  3  2  1  0
  3  4  1  6
  5  3  1  0
  5  6  1  1
  7  8  2  0
  7  5  1  0
  9 10  1  0
 10 11  2  0
 11 12  1  0
 13 14  1  0
 13 12  2  0
 15 14  1  1
 15 16  1  0
 16  7  1  0
 17 15  1  0
 17 18  2  0
 19 13  1  0
 20 19  2  0
 20 10  1  0
 22 21  1  6
 23 22  1  0
 24 22  1  0
 24 25  1  6
 25 17  1  0
 26 24  1  0
 27 26  2  0
 28 26  1  0
M  END
$$$$
