IYV.pdb
     RDKit          3D

 28 28  0  0  1  0  0  0  0  0999 V2000
    7.7187  -12.2859   19.6152 C   0  0  0  0  0  0  0  0  0  0  0  0
    7.2216  -13.6466   19.9871 C   0  0  0  0  0  0  0  0  0  0  0  0
    8.2105  -14.7065   19.6258 C   0  0  2  0  0  0  0  0  0  0  0  0
    8.4821  -14.7154   18.1251 C   0  0  0  0  0  0  0  0  0  0  0  0
    7.6801  -16.0625   20.0683 C   0  0  2  0  0  0  0  0  0  0  0  0
    6.3715  -16.2296   19.4426 N   0  0  0  0  0  0  0  0  0  0  0  0
    7.4803  -16.1691   21.5235 C   0  0  0  0  0  0  0  0  0  0  0  0
    6.3431  -15.9262   21.9965 O   0  0  0  0  0  0  0  0  0  0  0  0
    8.1627  -19.2487   29.7846 O   0  0  0  0  0  0  0  0  0  0  0  0
    8.3763  -18.9227   28.4391 C   0  0  0  0  0  0  0  0  0  0  0  0
    7.3701  -19.0213   27.5044 C   0  0  0  0  0  0  0  0  0  0  0  0
    7.6022  -18.6956   26.1872 C   0  0  0  0  0  0  0  0  0  0  0  0
    8.8247  -18.2599   25.7247 C   0  0  0  0  0  0  0  0  0  0  0  0
    9.0171  -17.9299   24.3124 C   0  0  0  0  0  0  0  0  0  0  0  0
    8.2025  -16.7270   23.8437 C   0  0  2  0  0  0  0  0  0  0  0  0
    8.5104  -16.5379   22.4259 N   0  0  0  0  0  0  0  0  0  0  0  0
    8.5139  -15.5483   24.6511 C   0  0  0  0  0  0  0  0  0  0  0  0
    9.6400  -14.9442   24.5673 O   0  0  0  0  0  0  0  0  0  0  0  0
    9.8311  -18.1651   26.6780 C   0  0  0  0  0  0  0  0  0  0  0  0
    9.6097  -18.4889   28.0009 C   0  0  0  0  0  0  0  0  0  0  0  0
    7.0408  -11.8064   27.6075 C   0  0  0  0  0  0  0  0  0  0  0  0
    6.7666  -12.9396   26.6602 C   0  0  1  0  0  0  0  0  0  0  0  0
    6.3212  -12.3496   25.3412 C   0  0  0  0  0  0  0  0  0  0  0  0
    7.9833  -13.7902   26.3815 C   0  0  2  0  0  0  0  0  0  0  0  0
    7.6207  -14.9705   25.5831 N   0  0  0  0  0  0  0  0  0  0  0  0
    8.4918  -14.2970   27.6757 C   0  0  0  0  0  0  0  0  0  0  0  0
    8.1775  -15.4497   28.0504 O   0  0  0  0  0  0  0  0  0  0  0  0
    9.3087  -13.5410   28.4969 O   0  0  0  0  0  0  0  0  0  0  0  0
  2  1  1  0
  3  2  1  0
  3  4  1  6
  5  3  1  0
  5  6  1  6
  7  8  2  0
  7  5  1  0
  9 10  1  0
 10 11  2  0
 11 12  1  0
 13 14  1  0
 13 12  2  0
 15 14  1  1
 15 16  1  0
 16  7  1  0
 17 15  1  0
 17 18  2  0
 19 13  1  0
 20 19  2  0
 20 10  1  0
 22 21  1  1
 23 22  1  0
 24 22  1  0
 24 25  1  6
 25 17  1  0
 26 24  1  0
 27 26  2  0
 28 26  1  0
M  END
$$$$
