IYV.pdb
     RDKit          3D

 28 28  0  0  1  0  0  0  0  0999 V2000
    7.1878  -12.1893   18.2073 C   0  0  0  0  0  0  0  0  0  0  0  0
    7.9499  -13.4628   18.3927 C   0  0  0  0  0  0  0  0  0  0  0  0
    7.7984  -13.9922   19.7815 C   0  0  2  0  0  0  0  0  0  0  0  0
    8.3383  -13.0024   20.8084 C   0  0  0  0  0  0  0  0  0  0  0  0
    8.5346  -15.3190   19.8982 C   0  0  2  0  0  0  0  0  0  0  0  0
    7.8791  -16.2484   18.9826 N   0  0  0  0  0  0  0  0  0  0  0  0
    8.4632  -15.9145   21.2433 C   0  0  0  0  0  0  0  0  0  0  0  0
    7.3842  -16.4369   21.6161 O   0  0  0  0  0  0  0  0  0  0  0  0
    9.5068  -22.2645   20.7791 O   0  0  0  0  0  0  0  0  0  0  0  0
    9.7324  -21.0898   21.5081 C   0  0  0  0  0  0  0  0  0  0  0  0
    9.2301  -20.9218   22.7791 C   0  0  0  0  0  0  0  0  0  0  0  0
    9.4642  -19.7589   23.4775 C   0  0  0  0  0  0  0  0  0  0  0  0
   10.1977  -18.7101   22.9672 C   0  0  0  0  0  0  0  0  0  0  0  0
   10.4134  -17.4946   23.7525 C   0  0  0  0  0  0  0  0  0  0  0  0
    9.3634  -16.4123   23.5144 C   0  0  2  0  0  0  0  0  0  0  0  0
    9.5573  -15.9331   22.1455 N   0  0  0  0  0  0  0  0  0  0  0  0
    9.4877  -15.3471   24.5083 C   0  0  0  0  0  0  0  0  0  0  0  0
   10.5195  -14.5909   24.5701 O   0  0  0  0  0  0  0  0  0  0  0  0
   10.6985  -18.8926   21.6841 C   0  0  0  0  0  0  0  0  0  0  0  0
   10.4701  -20.0541   20.9749 C   0  0  0  0  0  0  0  0  0  0  0  0
    7.3924  -12.0260   27.4993 C   0  0  0  0  0  0  0  0  0  0  0  0
    7.3274  -13.1763   26.5352 C   0  0  1  0  0  0  0  0  0  0  0  0
    6.9913  -12.6233   25.1687 C   0  0  0  0  0  0  0  0  0  0  0  0
    8.6356  -13.9204   26.4071 C   0  0  2  0  0  0  0  0  0  0  0  0
    8.5012  -15.0521   25.4779 N   0  0  0  0  0  0  0  0  0  0  0  0
    8.9634  -14.4980   27.7297 C   0  0  0  0  0  0  0  0  0  0  0  0
    8.5534  -15.6455   28.0178 O   0  0  0  0  0  0  0  0  0  0  0  0
    9.7121  -13.8143   28.6706 O   0  0  0  0  0  0  0  0  0  0  0  0
  2  1  1  0
  3  2  1  0
  3  4  1  1
  5  3  1  0
  5  6  1  6
  7  8  2  0
  7  5  1  0
  9 10  1  0
 10 11  2  0
 11 12  1  0
 13 14  1  0
 13 12  2  0
 15 14  1  1
 15 16  1  0
 16  7  1  0
 17 15  1  0
 17 18  2  0
 19 13  1  0
 20 19  2  0
 20 10  1  0
 22 21  1  1
 23 22  1  0
 24 22  1  0
 24 25  1  6
 25 17  1  0
 26 24  1  0
 27 26  2  0
 28 26  1  0
M  END
$$$$
