DVY.pdb
     RDKit          3D

 28 28  0  0  1  0  0  0  0  0999 V2000
    9.9812  -17.1384   18.1290 N   0  0  0  0  0  0  0  0  0  0  0  0
   10.9313  -17.4574   19.1770 C   0  0  1  0  0  0  0  0  0  0  0  0
   12.3049  -17.0833   18.6570 C   0  0  0  0  0  0  0  0  0  0  0  0
   12.5984  -17.9970   17.5199 C   0  0  0  0  0  0  0  0  0  0  0  0
   12.1141  -19.1565   17.5032 O   0  0  0  0  0  0  0  0  0  0  0  0
   10.6030  -16.7140   20.4306 C   0  0  0  0  0  0  0  0  0  0  0  0
   11.4460  -16.4949   21.3133 O   0  0  0  0  0  0  0  0  0  0  0  0
   13.4010  -17.6286   16.4451 O   0  0  0  0  0  0  0  0  0  0  0  0
    7.4747  -13.9450   20.3601 C   0  0  0  0  0  0  0  0  0  0  0  0
    7.4632  -14.9941   21.4145 C   0  0  2  0  0  0  0  0  0  0  0  0
    6.8019  -14.5400   22.6968 C   0  0  0  0  0  0  0  0  0  0  0  0
    8.8598  -15.4976   21.7976 C   0  0  2  0  0  0  0  0  0  0  0  0
    9.2880  -16.2497   20.6074 N   0  0  0  0  0  0  0  0  0  0  0  0
    8.7679  -16.5137   22.9016 C   0  0  0  0  0  0  0  0  0  0  0  0
    8.2284  -17.6585   22.7067 O   0  0  0  0  0  0  0  0  0  0  0  0
   10.5940  -13.1601   29.9089 O   0  0  0  0  0  0  0  0  0  0  0  0
   10.5917  -14.1788   28.9347 C   0  0  0  0  0  0  0  0  0  0  0  0
   10.6406  -15.5070   29.3029 C   0  0  0  0  0  0  0  0  0  0  0  0
   10.6379  -16.5139   28.3288 C   0  0  0  0  0  0  0  0  0  0  0  0
   10.5866  -16.1934   26.9926 C   0  0  0  0  0  0  0  0  0  0  0  0
   10.5897  -17.2081   25.9279 C   0  0  0  0  0  0  0  0  0  0  0  0
    9.2985  -17.3457   25.1819 C   0  0  2  0  0  0  0  0  0  0  0  0
    9.2671  -16.2674   24.2061 N   0  0  0  0  0  0  0  0  0  0  0  0
    8.1611  -17.2404   26.1019 C   0  0  0  0  0  0  0  0  0  0  0  0
    7.3591  -16.2471   26.0446 O   0  0  0  0  0  0  0  0  0  0  0  0
   10.5387  -14.8633   26.6483 C   0  0  0  0  0  0  0  0  0  0  0  0
   10.5407  -13.8621   27.5989 C   0  0  0  0  0  0  0  0  0  0  0  0
    7.8700  -18.1799   27.0782 O   0  0  0  0  0  0  0  0  0  0  0  0
  2  1  1  6
  2  6  1  0
  3  2  1  0
  4  3  1  0
  4  5  2  0
  6 13  1  0
  6  7  2  0
  8  4  1  0
 10  9  1  6
 10 11  1  0
 12 10  1  0
 12 13  1  6
 14 12  1  0
 14 23  1  0
 15 14  2  0
 16 17  1  0
 17 18  2  0
 18 19  1  0
 20 19  2  0
 20 21  1  0
 22 21  1  1
 22 23  1  0
 22 24  1  0
 24 28  1  0
 25 24  2  0
 26 20  1  0
 27 17  1  0
 27 26  2  0
M  END
$$$$
