DVY.pdb
     RDKit          3D

 28 28  0  0  1  0  0  0  0  0999 V2000
   11.5154  -16.4170   17.6128 N   0  0  0  0  0  0  0  0  0  0  0  0
   11.0746  -16.9730   18.8775 C   0  0  1  0  0  0  0  0  0  0  0  0
   12.2754  -17.6539   19.5032 C   0  0  0  0  0  0  0  0  0  0  0  0
   12.5668  -18.8572   18.6778 C   0  0  0  0  0  0  0  0  0  0  0  0
   11.8667  -19.1103   17.6655 O   0  0  0  0  0  0  0  0  0  0  0  0
   10.5334  -15.9003   19.7653 C   0  0  0  0  0  0  0  0  0  0  0  0
   11.1935  -14.8967   20.0731 O   0  0  0  0  0  0  0  0  0  0  0  0
   13.5995  -19.7412   18.9730 O   0  0  0  0  0  0  0  0  0  0  0  0
    6.2738  -14.3256   21.7606 C   0  0  0  0  0  0  0  0  0  0  0  0
    7.1234  -15.1808   20.8890 C   0  0  2  0  0  0  0  0  0  0  0  0
    6.7638  -16.6480   20.9646 C   0  0  0  0  0  0  0  0  0  0  0  0
    8.6213  -15.0814   21.2006 C   0  0  2  0  0  0  0  0  0  0  0  0
    9.2272  -16.0423   20.2652 N   0  0  0  0  0  0  0  0  0  0  0  0
    8.9098  -15.6224   22.5732 C   0  0  0  0  0  0  0  0  0  0  0  0
    9.1420  -16.8677   22.7603 O   0  0  0  0  0  0  0  0  0  0  0  0
   10.8872  -15.8865   31.2047 O   0  0  0  0  0  0  0  0  0  0  0  0
   10.5206  -15.4585   29.9127 C   0  0  0  0  0  0  0  0  0  0  0  0
    9.9865  -14.2033   29.7105 C   0  0  0  0  0  0  0  0  0  0  0  0
    9.6246  -13.7849   28.4233 C   0  0  0  0  0  0  0  0  0  0  0  0
    9.7965  -14.6188   27.3435 C   0  0  0  0  0  0  0  0  0  0  0  0
    9.4269  -14.2354   25.9725 C   0  0  0  0  0  0  0  0  0  0  0  0
    9.2480  -15.3791   25.0227 C   0  0  2  0  0  0  0  0  0  0  0  0
    8.9420  -14.7963   23.7255 N   0  0  0  0  0  0  0  0  0  0  0  0
    8.1535  -16.2485   25.4672 C   0  0  0  0  0  0  0  0  0  0  0  0
    8.3876  -17.3023   26.1513 O   0  0  0  0  0  0  0  0  0  0  0  0
   10.3303  -15.8656   27.5681 C   0  0  0  0  0  0  0  0  0  0  0  0
   10.6908  -16.2891   28.8317 C   0  0  0  0  0  0  0  0  0  0  0  0
    6.8169  -16.0068   25.1921 O   0  0  0  0  0  0  0  0  0  0  0  0
  2  1  1  6
  2  6  1  0
  3  2  1  0
  4  3  1  0
  4  5  2  0
  6 13  1  0
  6  7  2  0
  8  4  1  0
 10  9  1  1
 10 11  1  0
 12 10  1  0
 12 13  1  6
 14 12  1  0
 14 23  1  0
 15 14  2  0
 16 17  1  0
 17 18  2  0
 18 19  1  0
 20 19  2  0
 20 21  1  0
 22 21  1  1
 22 23  1  0
 22 24  1  0
 24 28  1  0
 25 24  2  0
 26 20  1  0
 27 17  1  0
 27 26  2  0
M  END
$$$$
