DVY.pdb
     RDKit          3D

 28 28  0  0  1  0  0  0  0  0999 V2000
   11.2834  -17.2871   17.7788 N   0  0  0  0  0  0  0  0  0  0  0  0
   10.4662  -17.6754   18.9120 C   0  0  1  0  0  0  0  0  0  0  0  0
   11.1536  -18.8557   19.5688 C   0  0  0  0  0  0  0  0  0  0  0  0
   11.5051  -19.8090   18.4817 C   0  0  0  0  0  0  0  0  0  0  0  0
   12.5981  -19.6932   17.8723 O   0  0  0  0  0  0  0  0  0  0  0  0
   10.3114  -16.5360   19.8658 C   0  0  0  0  0  0  0  0  0  0  0  0
   11.2716  -15.8434   20.2348 O   0  0  0  0  0  0  0  0  0  0  0  0
   10.6679  -20.8494   18.0921 O   0  0  0  0  0  0  0  0  0  0  0  0
    6.7527  -13.6983   21.8560 C   0  0  0  0  0  0  0  0  0  0  0  0
    7.2862  -14.7913   20.9996 C   0  0  2  0  0  0  0  0  0  0  0  0
    6.5153  -16.0851   21.1393 C   0  0  0  0  0  0  0  0  0  0  0  0
    8.7568  -15.1270   21.2745 C   0  0  2  0  0  0  0  0  0  0  0  0
    9.0269  -16.2458   20.3575 N   0  0  0  0  0  0  0  0  0  0  0  0
    8.9167  -15.6951   22.6572 C   0  0  0  0  0  0  0  0  0  0  0  0
    8.6840  -16.9310   22.8978 O   0  0  0  0  0  0  0  0  0  0  0  0
   10.8460  -15.9288   31.4007 O   0  0  0  0  0  0  0  0  0  0  0  0
   10.6104  -15.5747   30.0568 C   0  0  0  0  0  0  0  0  0  0  0  0
   10.7635  -16.5004   29.0462 C   0  0  0  0  0  0  0  0  0  0  0  0
   10.5274  -16.1410   27.7128 C   0  0  0  0  0  0  0  0  0  0  0  0
   10.1399  -14.8612   27.3923 C   0  0  0  0  0  0  0  0  0  0  0  0
    9.8866  -14.4267   26.0102 C   0  0  0  0  0  0  0  0  0  0  0  0
    9.4274  -15.5081   25.0816 C   0  0  2  0  0  0  0  0  0  0  0  0
    9.3298  -14.9062   23.7610 N   0  0  0  0  0  0  0  0  0  0  0  0
    8.1244  -16.0300   25.5069 C   0  0  0  0  0  0  0  0  0  0  0  0
    7.0450  -15.4004   25.2393 O   0  0  0  0  0  0  0  0  0  0  0  0
    9.9936  -13.9547   28.4155 C   0  0  0  0  0  0  0  0  0  0  0  0
   10.2232  -14.2969   29.7331 C   0  0  0  0  0  0  0  0  0  0  0  0
    7.9603  -17.2124   26.2110 O   0  0  0  0  0  0  0  0  0  0  0  0
  2  1  1  6
  2  6  1  0
  3  2  1  0
  4  3  1  0
  4  5  2  0
  6 13  1  0
  6  7  2  0
  8  4  1  0
 10  9  1  1
 10 11  1  0
 12 10  1  0
 12 13  1  6
 14 12  1  0
 14 23  1  0
 15 14  2  0
 16 17  1  0
 17 18  2  0
 18 19  1  0
 20 19  2  0
 20 21  1  0
 22 21  1  1
 22 23  1  0
 22 24  1  0
 24 28  1  0
 25 24  2  0
 26 20  1  0
 27 17  1  0
 27 26  2  0
M  END
$$$$
