DVY.pdb
     RDKit          3D

 28 28  0  0  1  0  0  0  0  0999 V2000
   10.5526  -18.0452   17.3102 N   0  0  0  0  0  0  0  0  0  0  0  0
    9.3886  -17.6108   18.0579 C   0  0  1  0  0  0  0  0  0  0  0  0
    8.7854  -18.8472   18.6940 C   0  0  0  0  0  0  0  0  0  0  0  0
    8.1728  -19.6416   17.5951 C   0  0  0  0  0  0  0  0  0  0  0  0
    8.3426  -19.2962   16.3988 O   0  0  0  0  0  0  0  0  0  0  0  0
    9.7712  -16.5998   19.0891 C   0  0  0  0  0  0  0  0  0  0  0  0
   10.8860  -16.5937   19.6320 O   0  0  0  0  0  0  0  0  0  0  0  0
    7.4017  -20.7763   17.8251 O   0  0  0  0  0  0  0  0  0  0  0  0
    8.0023  -12.8323   19.1401 C   0  0  0  0  0  0  0  0  0  0  0  0
    7.8999  -13.6610   20.3712 C   0  0  2  0  0  0  0  0  0  0  0  0
    7.8546  -12.8376   21.6392 C   0  0  0  0  0  0  0  0  0  0  0  0
    9.0515  -14.6592   20.5392 C   0  0  2  0  0  0  0  0  0  0  0  0
    8.8265  -15.6236   19.4508 N   0  0  0  0  0  0  0  0  0  0  0  0
    8.8855  -15.4442   21.8105 C   0  0  0  0  0  0  0  0  0  0  0  0
    7.7880  -16.0460   22.0803 O   0  0  0  0  0  0  0  0  0  0  0  0
   14.0149  -20.3488   21.2767 O   0  0  0  0  0  0  0  0  0  0  0  0
   12.9066  -19.6880   21.8442 C   0  0  0  0  0  0  0  0  0  0  0  0
   13.0035  -18.3761   22.2582 C   0  0  0  0  0  0  0  0  0  0  0  0
   11.8975  -17.7261   22.8213 C   0  0  0  0  0  0  0  0  0  0  0  0
   10.7002  -18.3858   22.9693 C   0  0  0  0  0  0  0  0  0  0  0  0
    9.5100  -17.7559   23.5609 C   0  0  0  0  0  0  0  0  0  0  0  0
    9.6936  -16.3318   23.9860 C   0  0  2  0  0  0  0  0  0  0  0  0
    9.9211  -15.5632   22.7721 N   0  0  0  0  0  0  0  0  0  0  0  0
   10.8394  -16.2113   24.8936 C   0  0  0  0  0  0  0  0  0  0  0  0
   10.8370  -16.7860   26.0351 O   0  0  0  0  0  0  0  0  0  0  0  0
   10.6261  -19.6930   22.5501 C   0  0  0  0  0  0  0  0  0  0  0  0
   11.7089  -20.3441   21.9938 C   0  0  0  0  0  0  0  0  0  0  0  0
   11.9840  -15.4880   24.5982 O   0  0  0  0  0  0  0  0  0  0  0  0
  2  1  1  1
  2  6  1  0
  3  2  1  0
  4  3  1  0
  4  5  2  0
  6 13  1  0
  6  7  2  0
  8  4  1  0
 10  9  1  6
 10 11  1  0
 12 10  1  0
 12 13  1  6
 14 12  1  0
 14 23  1  0
 15 14  2  0
 16 17  1  0
 17 18  2  0
 18 19  1  0
 20 19  2  0
 20 21  1  0
 22 21  1  6
 22 23  1  0
 22 24  1  0
 24 28  1  0
 25 24  2  0
 26 20  1  0
 27 17  1  0
 27 26  2  0
M  END
$$$$
