DVY.pdb
     RDKit          3D

 28 28  0  0  1  0  0  0  0  0999 V2000
   10.7132  -17.7193   17.3757 N   0  0  0  0  0  0  0  0  0  0  0  0
    9.7336  -17.8934   18.4307 C   0  0  1  0  0  0  0  0  0  0  0  0
    9.9848  -19.2554   19.0464 C   0  0  0  0  0  0  0  0  0  0  0  0
    9.8038  -20.2582   17.9620 C   0  0  0  0  0  0  0  0  0  0  0  0
    8.7970  -20.1993   17.2122 O   0  0  0  0  0  0  0  0  0  0  0  0
    9.8547  -16.8058   19.4477 C   0  0  0  0  0  0  0  0  0  0  0  0
   10.9403  -16.4907   19.9574 O   0  0  0  0  0  0  0  0  0  0  0  0
   10.7121  -21.2851   17.7262 O   0  0  0  0  0  0  0  0  0  0  0  0
    7.7097  -13.5591   19.1382 C   0  0  0  0  0  0  0  0  0  0  0  0
    7.5299  -14.1725   20.4813 C   0  0  2  0  0  0  0  0  0  0  0  0
    7.3821  -13.1500   21.5861 C   0  0  0  0  0  0  0  0  0  0  0  0
    8.6797  -15.0989   20.8942 C   0  0  2  0  0  0  0  0  0  0  0  0
    8.6902  -16.1201   19.8348 N   0  0  0  0  0  0  0  0  0  0  0  0
    8.3330  -15.8362   22.1576 C   0  0  0  0  0  0  0  0  0  0  0  0
    7.2412  -16.4970   22.2620 O   0  0  0  0  0  0  0  0  0  0  0  0
    6.5463  -11.2098   29.0026 O   0  0  0  0  0  0  0  0  0  0  0  0
    6.9393  -11.8859   27.8299 C   0  0  0  0  0  0  0  0  0  0  0  0
    6.0436  -12.0950   26.8024 C   0  0  0  0  0  0  0  0  0  0  0  0
    6.4418  -12.7678   25.6397 C   0  0  0  0  0  0  0  0  0  0  0  0
    7.7302  -13.2290   25.5060 C   0  0  0  0  0  0  0  0  0  0  0  0
    8.2003  -13.9483   24.3123 C   0  0  0  0  0  0  0  0  0  0  0  0
    8.6925  -15.3397   24.5655 C   0  0  2  0  0  0  0  0  0  0  0  0
    9.1837  -15.8434   23.2923 N   0  0  0  0  0  0  0  0  0  0  0  0
    7.6043  -16.1850   25.0680 C   0  0  0  0  0  0  0  0  0  0  0  0
    6.5344  -16.3517   24.3892 O   0  0  0  0  0  0  0  0  0  0  0  0
    8.6063  -13.0098   26.5425 C   0  0  0  0  0  0  0  0  0  0  0  0
    8.2258  -12.3482   27.6929 C   0  0  0  0  0  0  0  0  0  0  0  0
    7.6447  -16.8529   26.2816 O   0  0  0  0  0  0  0  0  0  0  0  0
  2  1  1  6
  2  6  1  0
  3  2  1  0
  4  3  1  0
  4  5  2  0
  6 13  1  0
  6  7  2  0
  8  4  1  0
 10  9  1  6
 10 11  1  0
 12 10  1  0
 12 13  1  6
 14 12  1  0
 14 23  1  0
 15 14  2  0
 16 17  1  0
 17 18  2  0
 18 19  1  0
 20 19  2  0
 20 21  1  0
 22 21  1  6
 22 23  1  0
 22 24  1  0
 24 28  1  0
 25 24  2  0
 26 20  1  0
 27 17  1  0
 27 26  2  0
M  END
$$$$
