DVY.pdb
     RDKit          3D

 28 28  0  0  1  0  0  0  0  0999 V2000
   10.3615  -18.5997   19.0389 N   0  0  0  0  0  0  0  0  0  0  0  0
    9.7277  -18.4061   20.3287 C   0  0  1  0  0  0  0  0  0  0  0  0
   10.3933  -19.3641   21.2964 C   0  0  0  0  0  0  0  0  0  0  0  0
   10.3093  -20.7191   20.6872 C   0  0  0  0  0  0  0  0  0  0  0  0
    9.2224  -21.1260   20.2051 O   0  0  0  0  0  0  0  0  0  0  0  0
    9.8719  -16.9893   20.7799 C   0  0  0  0  0  0  0  0  0  0  0  0
   10.9489  -16.3780   20.7161 O   0  0  0  0  0  0  0  0  0  0  0  0
   11.3970  -21.5837   20.6201 O   0  0  0  0  0  0  0  0  0  0  0  0
    6.9871  -14.2868   20.0610 C   0  0  0  0  0  0  0  0  0  0  0  0
    7.3257  -14.4582   21.4993 C   0  0  2  0  0  0  0  0  0  0  0  0
    7.1471  -13.1915   22.3064 C   0  0  0  0  0  0  0  0  0  0  0  0
    8.7639  -14.9313   21.7412 C   0  0  2  0  0  0  0  0  0  0  0  0
    8.7400  -16.3331   21.2941 N   0  0  0  0  0  0  0  0  0  0  0  0
    9.0586  -14.9859   23.2143 C   0  0  0  0  0  0  0  0  0  0  0  0
    8.9341  -13.9487   23.9548 O   0  0  0  0  0  0  0  0  0  0  0  0
    6.3323  -10.9212   27.2514 O   0  0  0  0  0  0  0  0  0  0  0  0
    6.7831  -12.2066   26.8892 C   0  0  0  0  0  0  0  0  0  0  0  0
    8.1031  -12.5661   27.0627 C   0  0  0  0  0  0  0  0  0  0  0  0
    8.5437  -13.8458   26.7004 C   0  0  0  0  0  0  0  0  0  0  0  0
    7.6674  -14.7613   26.1669 C   0  0  0  0  0  0  0  0  0  0  0  0
    8.0762  -16.1147   25.7614 C   0  0  0  0  0  0  0  0  0  0  0  0
    9.5002  -16.2378   25.3146 C   0  0  2  0  0  0  0  0  0  0  0  0
    9.4854  -16.1735   23.8615 N   0  0  0  0  0  0  0  0  0  0  0  0
   10.0716  -17.5104   25.7676 C   0  0  0  0  0  0  0  0  0  0  0  0
   10.2760  -17.7343   27.0091 O   0  0  0  0  0  0  0  0  0  0  0  0
    6.3563  -14.3816   26.0025 C   0  0  0  0  0  0  0  0  0  0  0  0
    5.9104  -13.1238   26.3558 C   0  0  0  0  0  0  0  0  0  0  0  0
   10.4252  -18.5436   24.9144 O   0  0  0  0  0  0  0  0  0  0  0  0
  2  1  1  6
  2  6  1  0
  3  2  1  0
  4  3  1  0
  4  5  2  0
  6 13  1  0
  6  7  2  0
  8  4  1  0
 10  9  1  6
 10 11  1  0
 12 10  1  0
 12 13  1  1
 14 12  1  0
 14 23  1  0
 15 14  2  0
 16 17  1  0
 17 18  2  0
 18 19  1  0
 20 19  2  0
 20 21  1  0
 22 21  1  6
 22 23  1  0
 22 24  1  0
 24 28  1  0
 25 24  2  0
 26 20  1  0
 27 17  1  0
 27 26  2  0
M  END
$$$$
