DVY.pdb
     RDKit          3D

 28 28  0  0  1  0  0  0  0  0999 V2000
   12.2587  -14.3783   17.6824 N   0  0  0  0  0  0  0  0  0  0  0  0
   12.0016  -15.1693   18.8703 C   0  0  1  0  0  0  0  0  0  0  0  0
   13.3488  -15.6032   19.4123 C   0  0  0  0  0  0  0  0  0  0  0  0
   13.9651  -16.4818   18.3816 C   0  0  0  0  0  0  0  0  0  0  0  0
   13.2532  -17.2960   17.7416 O   0  0  0  0  0  0  0  0  0  0  0  0
   11.2398  -14.3733   19.8792 C   0  0  0  0  0  0  0  0  0  0  0  0
   11.5949  -13.2404   20.2374 O   0  0  0  0  0  0  0  0  0  0  0  0
   15.3225  -16.4507   18.0790 O   0  0  0  0  0  0  0  0  0  0  0  0
    7.5696  -13.7068   19.5886 C   0  0  0  0  0  0  0  0  0  0  0  0
    7.8195  -14.4229   20.8683 C   0  0  2  0  0  0  0  0  0  0  0  0
    6.8714  -14.0128   21.9732 C   0  0  0  0  0  0  0  0  0  0  0  0
    9.2385  -14.2290   21.4156 C   0  0  2  0  0  0  0  0  0  0  0  0
   10.0795  -14.9372   20.4376 N   0  0  0  0  0  0  0  0  0  0  0  0
    9.4103  -14.9776   22.7079 C   0  0  0  0  0  0  0  0  0  0  0  0
    9.3547  -16.2562   22.7465 O   0  0  0  0  0  0  0  0  0  0  0  0
   11.0877  -16.6023   31.2677 O   0  0  0  0  0  0  0  0  0  0  0  0
   10.8139  -15.9724   30.0368 C   0  0  0  0  0  0  0  0  0  0  0  0
   10.1030  -14.7916   29.9914 C   0  0  0  0  0  0  0  0  0  0  0  0
    9.8350  -14.1713   28.7641 C   0  0  0  0  0  0  0  0  0  0  0  0
   10.2763  -14.7301   27.5878 C   0  0  0  0  0  0  0  0  0  0  0  0
   10.0168  -14.1274   26.2715 C   0  0  0  0  0  0  0  0  0  0  0  0
    9.8600  -15.1052   25.1482 C   0  0  2  0  0  0  0  0  0  0  0  0
    9.6417  -14.3203   23.9432 N   0  0  0  0  0  0  0  0  0  0  0  0
    8.7199  -15.9937   25.3972 C   0  0  0  0  0  0  0  0  0  0  0  0
    8.8921  -17.1651   25.8782 O   0  0  0  0  0  0  0  0  0  0  0  0
   10.9828  -15.9074   27.6564 C   0  0  0  0  0  0  0  0  0  0  0  0
   11.2532  -16.5280   28.8596 C   0  0  0  0  0  0  0  0  0  0  0  0
    7.4026  -15.6476   25.1408 O   0  0  0  0  0  0  0  0  0  0  0  0
  2  1  1  6
  2  6  1  0
  3  2  1  0
  4  3  1  0
  4  5  2  0
  6 13  1  0
  6  7  2  0
  8  4  1  0
 10  9  1  6
 10 11  1  0
 12 10  1  0
 12 13  1  6
 14 12  1  0
 14 23  1  0
 15 14  2  0
 16 17  1  0
 17 18  2  0
 18 19  1  0
 20 19  2  0
 20 21  1  0
 22 21  1  1
 22 23  1  0
 22 24  1  0
 24 28  1  0
 25 24  2  0
 26 20  1  0
 27 17  1  0
 27 26  2  0
M  END
$$$$
