DVY.pdb
     RDKit          3D

 28 28  0  0  1  0  0  0  0  0999 V2000
    7.0486  -16.1002   21.8471 N   0  0  0  0  0  0  0  0  0  0  0  0
    8.4987  -16.0931   21.8423 C   0  0  1  0  0  0  0  0  0  0  0  0
    8.9336  -15.6175   20.4705 C   0  0  0  0  0  0  0  0  0  0  0  0
    8.7313  -16.7571   19.5354 C   0  0  0  0  0  0  0  0  0  0  0  0
    8.1910  -17.8164   19.9420 O   0  0  0  0  0  0  0  0  0  0  0  0
    9.0253  -15.2020   22.9195 C   0  0  0  0  0  0  0  0  0  0  0  0
   10.2320  -14.9407   23.0349 O   0  0  0  0  0  0  0  0  0  0  0  0
    9.1176  -16.7135   18.1998 O   0  0  0  0  0  0  0  0  0  0  0  0
    7.4527  -12.1042   26.4791 C   0  0  0  0  0  0  0  0  0  0  0  0
    7.2556  -13.0841   25.3773 C   0  0  2  0  0  0  0  0  0  0  0  0
    6.2114  -14.1316   25.6941 C   0  0  0  0  0  0  0  0  0  0  0  0
    8.5315  -13.8416   24.9913 C   0  0  2  0  0  0  0  0  0  0  0  0
    8.1122  -14.6437   23.8310 N   0  0  0  0  0  0  0  0  0  0  0  0
    8.8940  -14.8381   26.0569 C   0  0  0  0  0  0  0  0  0  0  0  0
    8.2481  -15.9360   26.1861 O   0  0  0  0  0  0  0  0  0  0  0  0
   12.7700  -18.7922   22.9018 O   0  0  0  0  0  0  0  0  0  0  0  0
   12.5012  -18.1198   24.1112 C   0  0  0  0  0  0  0  0  0  0  0  0
   11.9158  -18.7806   25.1706 C   0  0  0  0  0  0  0  0  0  0  0  0
   11.6518  -18.1055   26.3695 C   0  0  0  0  0  0  0  0  0  0  0  0
   11.9722  -16.7755   26.5076 C   0  0  0  0  0  0  0  0  0  0  0  0
   11.7104  -16.0154   27.7393 C   0  0  0  0  0  0  0  0  0  0  0  0
   10.2772  -15.6408   27.9585 C   0  0  2  0  0  0  0  0  0  0  0  0
    9.9588  -14.6235   26.9688 N   0  0  0  0  0  0  0  0  0  0  0  0
   10.0858  -15.1169   29.3150 C   0  0  0  0  0  0  0  0  0  0  0  0
   10.2527  -15.8644   30.3380 O   0  0  0  0  0  0  0  0  0  0  0  0
   12.5548  -16.1365   25.4388 C   0  0  0  0  0  0  0  0  0  0  0  0
   12.8199  -16.7910   24.2525 C   0  0  0  0  0  0  0  0  0  0  0  0
    9.7208  -13.8089   29.5916 O   0  0  0  0  0  0  0  0  0  0  0  0
  2  1  1  6
  2  6  1  0
  3  2  1  0
  4  3  1  0
  4  5  2  0
  6 13  1  0
  6  7  2  0
  8  4  1  0
 10  9  1  1
 10 11  1  0
 12 10  1  0
 12 13  1  6
 14 12  1  0
 14 23  1  0
 15 14  2  0
 16 17  1  0
 17 18  2  0
 18 19  1  0
 20 19  2  0
 20 21  1  0
 22 21  1  1
 22 23  1  0
 22 24  1  0
 24 28  1  0
 25 24  2  0
 26 20  1  0
 27 17  1  0
 27 26  2  0
M  END
$$$$
