DVY.pdb
     RDKit          3D

 28 28  0  0  1  0  0  0  0  0999 V2000
    7.7061  -18.2098   20.1632 N   0  0  0  0  0  0  0  0  0  0  0  0
    9.0106  -17.8969   19.6125 C   0  0  1  0  0  0  0  0  0  0  0  0
    8.8880  -17.9915   18.1048 C   0  0  0  0  0  0  0  0  0  0  0  0
    8.8714  -19.4398   17.7640 C   0  0  0  0  0  0  0  0  0  0  0  0
    8.7228  -20.2977   18.6702 O   0  0  0  0  0  0  0  0  0  0  0  0
    9.4498  -16.5340   20.0384 C   0  0  0  0  0  0  0  0  0  0  0  0
   10.5441  -16.0546   19.7061 O   0  0  0  0  0  0  0  0  0  0  0  0
    9.0152  -19.9093   16.4625 O   0  0  0  0  0  0  0  0  0  0  0  0
    6.4468  -14.1160   21.6513 C   0  0  0  0  0  0  0  0  0  0  0  0
    7.6996  -13.5982   21.0390 C   0  0  2  0  0  0  0  0  0  0  0  0
    7.6268  -13.4989   19.5315 C   0  0  0  0  0  0  0  0  0  0  0  0
    8.9377  -14.4429   21.3620 C   0  0  2  0  0  0  0  0  0  0  0  0
    8.5845  -15.7747   20.8451 N   0  0  0  0  0  0  0  0  0  0  0  0
    9.0830  -14.6159   22.8482 C   0  0  0  0  0  0  0  0  0  0  0  0
    8.7014  -13.7048   23.6628 O   0  0  0  0  0  0  0  0  0  0  0  0
    6.1987  -10.9676   27.2200 O   0  0  0  0  0  0  0  0  0  0  0  0
    6.7019  -12.1944   26.7420 C   0  0  0  0  0  0  0  0  0  0  0  0
    8.0324  -12.5208   26.9001 C   0  0  0  0  0  0  0  0  0  0  0  0
    8.5252  -13.7422   26.4224 C   0  0  0  0  0  0  0  0  0  0  0  0
    7.6903  -14.6328   25.7895 C   0  0  0  0  0  0  0  0  0  0  0  0
    8.1547  -15.9245   25.2612 C   0  0  0  0  0  0  0  0  0  0  0  0
    9.5996  -15.9649   24.8698 C   0  0  2  0  0  0  0  0  0  0  0  0
    9.6432  -15.7831   23.4273 N   0  0  0  0  0  0  0  0  0  0  0  0
   10.1966  -17.2511   25.2446 C   0  0  0  0  0  0  0  0  0  0  0  0
   10.3871  -17.5548   26.4713 O   0  0  0  0  0  0  0  0  0  0  0  0
    6.3679  -14.2870   25.6426 C   0  0  0  0  0  0  0  0  0  0  0  0
    5.8707  -13.0865   26.1091 C   0  0  0  0  0  0  0  0  0  0  0  0
   10.5903  -18.2141   24.3290 O   0  0  0  0  0  0  0  0  0  0  0  0
  2  1  1  1
  2  6  1  0
  3  2  1  0
  4  3  1  0
  4  5  2  0
  6 13  1  0
  6  7  2  0
  8  4  1  0
 10  9  1  6
 10 11  1  0
 12 10  1  0
 12 13  1  6
 14 12  1  0
 14 23  1  0
 15 14  2  0
 16 17  1  0
 17 18  2  0
 18 19  1  0
 20 19  2  0
 20 21  1  0
 22 21  1  6
 22 23  1  0
 22 24  1  0
 24 28  1  0
 25 24  2  0
 26 20  1  0
 27 17  1  0
 27 26  2  0
M  END
$$$$
