DVY.pdb
     RDKit          3D

 28 28  0  0  1  0  0  0  0  0999 V2000
   10.6861  -17.3767   18.6211 N   0  0  0  0  0  0  0  0  0  0  0  0
   11.5994  -17.2189   19.7364 C   0  0  1  0  0  0  0  0  0  0  0  0
   12.8850  -16.6435   19.1766 C   0  0  0  0  0  0  0  0  0  0  0  0
   13.6099  -17.7658   18.5217 C   0  0  0  0  0  0  0  0  0  0  0  0
   12.9870  -18.8016   18.1776 O   0  0  0  0  0  0  0  0  0  0  0  0
   11.0107  -16.3241   20.7778 C   0  0  0  0  0  0  0  0  0  0  0  0
   11.6141  -16.0319   21.8209 O   0  0  0  0  0  0  0  0  0  0  0  0
   14.9761  -17.7308   18.2621 O   0  0  0  0  0  0  0  0  0  0  0  0
    8.1280  -13.5724   19.6913 C   0  0  0  0  0  0  0  0  0  0  0  0
    7.7786  -14.4925   20.8066 C   0  0  2  0  0  0  0  0  0  0  0  0
    6.8640  -13.8613   21.8328 C   0  0  0  0  0  0  0  0  0  0  0  0
    8.9966  -15.0212   21.5733 C   0  0  2  0  0  0  0  0  0  0  0  0
    9.7253  -15.7988   20.5585 N   0  0  0  0  0  0  0  0  0  0  0  0
    8.5705  -16.0198   22.6130 C   0  0  0  0  0  0  0  0  0  0  0  0
    9.0810  -17.1934   22.6546 O   0  0  0  0  0  0  0  0  0  0  0  0
   10.9491  -15.3087   30.6374 O   0  0  0  0  0  0  0  0  0  0  0  0
   10.4546  -15.1868   29.3231 C   0  0  0  0  0  0  0  0  0  0  0  0
    9.9285  -13.9933   28.8752 C   0  0  0  0  0  0  0  0  0  0  0  0
    9.4390  -13.8799   27.5674 C   0  0  0  0  0  0  0  0  0  0  0  0
    9.4758  -14.9557   26.7118 C   0  0  0  0  0  0  0  0  0  0  0  0
    8.9688  -14.8959   25.3325 C   0  0  0  0  0  0  0  0  0  0  0  0
    7.9078  -15.9005   25.0047 C   0  0  2  0  0  0  0  0  0  0  0  0
    7.5916  -15.7244   23.5958 N   0  0  0  0  0  0  0  0  0  0  0  0
    6.7170  -15.6769   25.8312 C   0  0  0  0  0  0  0  0  0  0  0  0
    5.9600  -14.6664   25.6336 O   0  0  0  0  0  0  0  0  0  0  0  0
   10.0042  -16.1356   27.1793 C   0  0  0  0  0  0  0  0  0  0  0  0
   10.4897  -16.2596   28.4657 C   0  0  0  0  0  0  0  0  0  0  0  0
    6.3254  -16.5164   26.8620 O   0  0  0  0  0  0  0  0  0  0  0  0
  2  1  1  6
  2  6  1  0
  3  2  1  0
  4  3  1  0
  4  5  2  0
  6 13  1  0
  6  7  2  0
  8  4  1  0
 10  9  1  6
 10 11  1  0
 12 10  1  0
 12 13  1  6
 14 12  1  0
 14 23  1  0
 15 14  2  0
 16 17  1  0
 17 18  2  0
 18 19  1  0
 20 19  2  0
 20 21  1  0
 22 21  1  1
 22 23  1  0
 22 24  1  0
 24 28  1  0
 25 24  2  0
 26 20  1  0
 27 17  1  0
 27 26  2  0
M  END
$$$$
