DVY.pdb
     RDKit          3D

 28 28  0  0  1  0  0  0  0  0999 V2000
    9.6513  -17.3162   17.1581 N   0  0  0  0  0  0  0  0  0  0  0  0
    9.9419  -17.8667   18.4678 C   0  0  1  0  0  0  0  0  0  0  0  0
   11.1862  -18.7198   18.3224 C   0  0  0  0  0  0  0  0  0  0  0  0
   11.3886  -19.4115   19.6241 C   0  0  0  0  0  0  0  0  0  0  0  0
   10.3985  -19.7150   20.3361 O   0  0  0  0  0  0  0  0  0  0  0  0
   10.1450  -16.7739   19.4660 C   0  0  0  0  0  0  0  0  0  0  0  0
   11.2355  -16.2019   19.6124 O   0  0  0  0  0  0  0  0  0  0  0  0
   12.6475  -19.7500   20.1097 O   0  0  0  0  0  0  0  0  0  0  0  0
    6.6433  -15.2201   21.1193 C   0  0  0  0  0  0  0  0  0  0  0  0
    7.9330  -14.4800   21.0793 C   0  0  2  0  0  0  0  0  0  0  0  0
    8.1678  -13.7667   19.7663 C   0  0  0  0  0  0  0  0  0  0  0  0
    9.1600  -15.3672   21.3201 C   0  0  2  0  0  0  0  0  0  0  0  0
    9.0545  -16.3866   20.2641 N   0  0  0  0  0  0  0  0  0  0  0  0
    9.0204  -16.1170   22.6156 C   0  0  0  0  0  0  0  0  0  0  0  0
    8.1521  -17.0479   22.7534 O   0  0  0  0  0  0  0  0  0  0  0  0
    5.8429  -10.9075   28.3613 O   0  0  0  0  0  0  0  0  0  0  0  0
    6.5249  -11.6688   27.3907 C   0  0  0  0  0  0  0  0  0  0  0  0
    7.9028  -11.7234   27.3773 C   0  0  0  0  0  0  0  0  0  0  0  0
    8.5736  -12.4824   26.4094 C   0  0  0  0  0  0  0  0  0  0  0  0
    7.8688  -13.1835   25.4594 C   0  0  0  0  0  0  0  0  0  0  0  0
    8.5204  -13.9891   24.4156 C   0  0  0  0  0  0  0  0  0  0  0  0
    9.2485  -15.1993   24.9134 C   0  0  2  0  0  0  0  0  0  0  0  0
    9.8319  -15.8412   23.7457 N   0  0  0  0  0  0  0  0  0  0  0  0
    8.3225  -16.1113   25.5931 C   0  0  0  0  0  0  0  0  0  0  0  0
    8.4687  -16.3946   26.8306 O   0  0  0  0  0  0  0  0  0  0  0  0
    6.4961  -13.1146   25.4913 C   0  0  0  0  0  0  0  0  0  0  0  0
    5.8239  -12.3703   26.4400 C   0  0  0  0  0  0  0  0  0  0  0  0
    7.2455  -16.7217   24.9700 O   0  0  0  0  0  0  0  0  0  0  0  0
  2  1  1  6
  2  6  1  0
  3  2  1  0
  4  3  1  0
  4  5  2  0
  6 13  1  0
  6  7  2  0
  8  4  1  0
 10  9  1  6
 10 11  1  0
 12 10  1  0
 12 13  1  6
 14 12  1  0
 14 23  1  0
 15 14  2  0
 16 17  1  0
 17 18  2  0
 18 19  1  0
 20 19  2  0
 20 21  1  0
 22 21  1  6
 22 23  1  0
 22 24  1  0
 24 28  1  0
 25 24  2  0
 26 20  1  0
 27 17  1  0
 27 26  2  0
M  END
$$$$
