DVY.pdb
     RDKit          3D

 28 28  0  0  1  0  0  0  0  0999 V2000
   12.0980  -16.2236   19.1856 N   0  0  0  0  0  0  0  0  0  0  0  0
   11.3797  -16.9260   20.2313 C   0  0  1  0  0  0  0  0  0  0  0  0
   12.3572  -17.8963   20.8638 C   0  0  0  0  0  0  0  0  0  0  0  0
   12.6973  -18.9044   19.8236 C   0  0  0  0  0  0  0  0  0  0  0  0
   11.8478  -19.2222   18.9538 O   0  0  0  0  0  0  0  0  0  0  0  0
   10.8396  -15.9636   21.2382 C   0  0  0  0  0  0  0  0  0  0  0  0
   11.5721  -15.2106   21.8971 O   0  0  0  0  0  0  0  0  0  0  0  0
   13.9374  -19.5316   19.7591 O   0  0  0  0  0  0  0  0  0  0  0  0
    6.7375  -15.5732   21.0789 C   0  0  0  0  0  0  0  0  0  0  0  0
    7.5818  -14.4947   21.6592 C   0  0  2  0  0  0  0  0  0  0  0  0
    8.0903  -13.5166   20.6236 C   0  0  0  0  0  0  0  0  0  0  0  0
    8.8128  -15.0138   22.4115 C   0  0  2  0  0  0  0  0  0  0  0  0
    9.4491  -15.9168   21.4394 N   0  0  0  0  0  0  0  0  0  0  0  0
    8.3963  -15.8907   23.5594 C   0  0  0  0  0  0  0  0  0  0  0  0
    8.5166  -17.1640   23.4995 O   0  0  0  0  0  0  0  0  0  0  0  0
   12.4390  -14.4645   29.4273 O   0  0  0  0  0  0  0  0  0  0  0  0
   11.1801  -14.7325   28.8527 C   0  0  0  0  0  0  0  0  0  0  0  0
   10.5577  -15.9468   29.0523 C   0  0  0  0  0  0  0  0  0  0  0  0
    9.3063  -16.2058   28.4780 C   0  0  0  0  0  0  0  0  0  0  0  0
    8.6807  -15.2540   27.7076 C   0  0  0  0  0  0  0  0  0  0  0  0
    7.3718  -15.4744   27.0741 C   0  0  0  0  0  0  0  0  0  0  0  0
    7.4088  -16.2721   25.8073 C   0  0  2  0  0  0  0  0  0  0  0  0
    7.8536  -15.3658   24.7600 N   0  0  0  0  0  0  0  0  0  0  0  0
    6.0774  -16.8034   25.4968 C   0  0  0  0  0  0  0  0  0  0  0  0
    5.3261  -16.2318   24.6355 O   0  0  0  0  0  0  0  0  0  0  0  0
    9.3193  -14.0508   27.5217 C   0  0  0  0  0  0  0  0  0  0  0  0
   10.5523  -13.7839   28.0824 C   0  0  0  0  0  0  0  0  0  0  0  0
    5.5408  -17.9340   26.0920 O   0  0  0  0  0  0  0  0  0  0  0  0
  2  1  1  6
  2  6  1  0
  3  2  1  0
  4  3  1  0
  4  5  2  0
  6 13  1  0
  6  7  2  0
  8  4  1  0
 10  9  1  6
 10 11  1  0
 12 10  1  0
 12 13  1  6
 14 12  1  0
 14 23  1  0
 15 14  2  0
 16 17  1  0
 17 18  2  0
 18 19  1  0
 20 19  2  0
 20 21  1  0
 22 21  1  1
 22 23  1  0
 22 24  1  0
 24 28  1  0
 25 24  2  0
 26 20  1  0
 27 17  1  0
 27 26  2  0
M  END
$$$$
