DVY.pdb
     RDKit          3D

 28 28  0  0  1  0  0  0  0  0999 V2000
    7.7660  -17.7565   18.6261 N   0  0  0  0  0  0  0  0  0  0  0  0
    9.1899  -17.5782   18.4172 C   0  0  1  0  0  0  0  0  0  0  0  0
    9.3950  -17.3654   16.9306 C   0  0  0  0  0  0  0  0  0  0  0  0
    9.3227  -18.7062   16.2896 C   0  0  0  0  0  0  0  0  0  0  0  0
    9.3867  -19.7448   16.9943 O   0  0  0  0  0  0  0  0  0  0  0  0
    9.6977  -16.4171   19.2084 C   0  0  0  0  0  0  0  0  0  0  0  0
   10.8880  -16.0699   19.1894 O   0  0  0  0  0  0  0  0  0  0  0  0
    9.1844  -18.8782   14.9161 O   0  0  0  0  0  0  0  0  0  0  0  0
    6.7950  -14.3527   21.6450 C   0  0  0  0  0  0  0  0  0  0  0  0
    7.9121  -13.7048   20.9067 C   0  0  2  0  0  0  0  0  0  0  0  0
    7.5554  -13.3530   19.4795 C   0  0  0  0  0  0  0  0  0  0  0  0
    9.1841  -14.5582   20.8416 C   0  0  2  0  0  0  0  0  0  0  0  0
    8.7857  -15.6980   20.0003 N   0  0  0  0  0  0  0  0  0  0  0  0
    9.4931  -15.1451   22.1907 C   0  0  0  0  0  0  0  0  0  0  0  0
    8.5881  -15.7286   22.8835 O   0  0  0  0  0  0  0  0  0  0  0  0
   11.5474  -19.9805   28.8449 O   0  0  0  0  0  0  0  0  0  0  0  0
   11.3151  -19.2514   27.6611 C   0  0  0  0  0  0  0  0  0  0  0  0
   10.1715  -18.4954   27.5113 C   0  0  0  0  0  0  0  0  0  0  0  0
    9.9477  -17.7733   26.3317 C   0  0  0  0  0  0  0  0  0  0  0  0
   10.8639  -17.8076   25.3070 C   0  0  0  0  0  0  0  0  0  0  0  0
   10.6768  -17.0766   24.0445 C   0  0  0  0  0  0  0  0  0  0  0  0
   11.0060  -15.6170   24.1043 C   0  0  2  0  0  0  0  0  0  0  0  0
   10.7877  -15.0881   22.7670 N   0  0  0  0  0  0  0  0  0  0  0  0
   12.4010  -15.4224   24.5132 C   0  0  0  0  0  0  0  0  0  0  0  0
   13.3299  -15.3001   23.6441 O   0  0  0  0  0  0  0  0  0  0  0  0
   11.9966  -18.5679   25.4777 C   0  0  0  0  0  0  0  0  0  0  0  0
   12.2283  -19.2836   26.6353 C   0  0  0  0  0  0  0  0  0  0  0  0
   12.8148  -15.3560   25.8342 O   0  0  0  0  0  0  0  0  0  0  0  0
  2  1  1  6
  2  6  1  0
  3  2  1  0
  4  3  1  0
  4  5  2  0
  6 13  1  0
  6  7  2  0
  8  4  1  0
 10  9  1  6
 10 11  1  0
 12 10  1  0
 12 13  1  6
 14 12  1  0
 14 23  1  0
 15 14  2  0
 16 17  1  0
 17 18  2  0
 18 19  1  0
 20 19  2  0
 20 21  1  0
 22 21  1  6
 22 23  1  0
 22 24  1  0
 24 28  1  0
 25 24  2  0
 26 20  1  0
 27 17  1  0
 27 26  2  0
M  END
$$$$
