PSM.pdb
     RDKit          3D

 22 22  0  0  1  0  0  0  0  0999 V2000
    9.3221  -14.5287   18.5994 N   0  0  0  0  0  0  0  0  0  0  0  0
    9.0850  -13.7606   17.3982 C   0  0  0  0  0  0  0  0  0  0  0  0
    7.9193  -12.8180   17.7006 C   0  0  0  0  0  0  0  0  0  0  0  0
    7.3461  -13.4378   18.9852 C   0  0  0  0  0  0  0  0  0  0  0  0
    8.6520  -13.8079   19.6626 C   0  0  1  0  0  0  0  0  0  0  0  0
    8.4727  -14.6321   20.8608 C   0  0  0  0  0  0  0  0  0  0  0  0
    7.7789  -14.1677   21.7992 O   0  0  0  0  0  0  0  0  0  0  0  0
   10.9144  -17.7041   22.2889 O   0  0  0  0  0  0  0  0  0  0  0  0
    9.5395  -17.9588   22.3006 C   0  0  0  0  0  0  0  0  0  0  0  0
    8.8166  -16.6351   22.2544 C   0  0  2  0  0  0  0  0  0  0  0  0
    9.0311  -15.9216   21.0336 N   0  0  0  0  0  0  0  0  0  0  0  0
    9.2872  -15.8605   23.4463 C   0  0  0  0  0  0  0  0  0  0  0  0
   10.2981  -15.1364   23.2864 O   0  0  0  0  0  0  0  0  0  0  0  0
    6.1108  -11.6258   26.3146 C   0  0  0  0  0  0  0  0  0  0  0  0
    6.9154  -12.1538   27.8510 S   0  0  0  0  0  0  0  0  0  0  0  0
    8.2272  -13.3426   27.4470 C   0  0  0  0  0  0  0  0  0  0  0  0
    7.9179  -14.1333   26.2006 C   0  0  0  0  0  0  0  0  0  0  0  0
    8.9933  -15.1234   25.8358 C   0  0  2  0  0  0  0  0  0  0  0  0
    8.6293  -15.9337   24.7035 N   0  0  0  0  0  0  0  0  0  0  0  0
    9.4625  -15.9382   26.9797 C   0  0  0  0  0  0  0  0  0  0  0  0
    9.1353  -17.1692   27.0571 O   0  0  0  0  0  0  0  0  0  0  0  0
   10.2550  -15.4519   28.0049 O   0  0  0  0  0  0  0  0  0  0  0  0
  1  5  1  0
  2  1  1  0
  3  2  1  0
  3  4  1  0
  4  5  1  0
  5  6  1  1
  6 11  1  0
  7  6  2  0
  8  9  1  0
 10 11  1  0
 10  9  1  6
 12 10  1  0
 12 19  1  0
 13 12  2  0
 15 14  1  0
 16 15  1  0
 17 16  1  0
 18 19  1  0
 18 17  1  1
 20 18  1  0
 21 20  2  0
 22 20  1  0
M  END
$$$$
