PSM.pdb
     RDKit          3D

 22 22  0  0  1  0  0  0  0  0999 V2000
    8.6689  -14.9428   18.5171 N   0  0  0  0  0  0  0  0  0  0  0  0
    8.7863  -14.1535   17.3120 C   0  0  0  0  0  0  0  0  0  0  0  0
    8.2465  -12.7613   17.6427 C   0  0  0  0  0  0  0  0  0  0  0  0
    7.5001  -13.0243   18.9604 C   0  0  0  0  0  0  0  0  0  0  0  0
    8.4853  -13.9894   19.5924 C   0  0  1  0  0  0  0  0  0  0  0  0
    7.9779  -14.6234   20.8120 C   0  0  0  0  0  0  0  0  0  0  0  0
    7.8490  -13.9112   21.8386 O   0  0  0  0  0  0  0  0  0  0  0  0
    8.3080  -18.5706   21.9250 O   0  0  0  0  0  0  0  0  0  0  0  0
    7.0412  -18.0243   22.1529 C   0  0  0  0  0  0  0  0  0  0  0  0
    7.1731  -16.5211   22.1624 C   0  0  2  0  0  0  0  0  0  0  0  0
    7.6220  -15.9900   20.9126 N   0  0  0  0  0  0  0  0  0  0  0  0
    8.1122  -16.1914   23.2811 C   0  0  0  0  0  0  0  0  0  0  0  0
    9.2741  -15.8467   22.9604 O   0  0  0  0  0  0  0  0  0  0  0  0
    6.3661  -11.3183   26.5735 C   0  0  0  0  0  0  0  0  0  0  0  0
    6.8595  -12.3521   27.9787 S   0  0  0  0  0  0  0  0  0  0  0  0
    7.9826  -13.6498   27.3858 C   0  0  0  0  0  0  0  0  0  0  0  0
    7.3938  -14.4364   26.2416 C   0  0  0  0  0  0  0  0  0  0  0  0
    8.3289  -15.4789   25.6863 C   0  0  2  0  0  0  0  0  0  0  0  0
    7.7183  -16.2618   24.6444 N   0  0  0  0  0  0  0  0  0  0  0  0
    8.9595  -16.3246   26.7255 C   0  0  0  0  0  0  0  0  0  0  0  0
    8.5498  -17.5197   26.9043 O   0  0  0  0  0  0  0  0  0  0  0  0
    9.9934  -15.9050   27.5445 O   0  0  0  0  0  0  0  0  0  0  0  0
  1  5  1  0
  2  1  1  0
  3  2  1  0
  3  4  1  0
  4  5  1  0
  5  6  1  1
  6 11  1  0
  7  6  2  0
  8  9  1  0
 10 11  1  0
 10  9  1  6
 12 10  1  0
 12 19  1  0
 13 12  2  0
 15 14  1  0
 16 15  1  0
 17 16  1  0
 18 19  1  0
 18 17  1  1
 20 18  1  0
 21 20  2  0
 22 20  1  0
M  END
$$$$
