PSM.pdb
     RDKit          3D

 22 22  0  0  1  0  0  0  0  0999 V2000
    8.8149  -14.9400   18.2208 N   0  0  0  0  0  0  0  0  0  0  0  0
    9.0102  -14.1033   17.0585 C   0  0  0  0  0  0  0  0  0  0  0  0
    8.3788  -12.7480   17.3799 C   0  0  0  0  0  0  0  0  0  0  0  0
    7.5233  -13.0898   18.6104 C   0  0  0  0  0  0  0  0  0  0  0  0
    8.4869  -14.0347   19.3032 C   0  0  1  0  0  0  0  0  0  0  0  0
    7.8952  -14.7333   20.4473 C   0  0  0  0  0  0  0  0  0  0  0  0
    7.5860  -14.0552   21.4584 O   0  0  0  0  0  0  0  0  0  0  0  0
    6.4796  -18.6959   22.7911 O   0  0  0  0  0  0  0  0  0  0  0  0
    7.1095  -18.2288   21.6333 C   0  0  0  0  0  0  0  0  0  0  0  0
    7.1142  -16.7205   21.6776 C   0  0  2  0  0  0  0  0  0  0  0  0
    7.6478  -16.1266   20.4909 N   0  0  0  0  0  0  0  0  0  0  0  0
    7.8983  -16.3410   22.8955 C   0  0  0  0  0  0  0  0  0  0  0  0
    9.1337  -16.1873   22.7470 O   0  0  0  0  0  0  0  0  0  0  0  0
    7.0228  -11.1345   28.6094 C   0  0  0  0  0  0  0  0  0  0  0  0
    6.2510  -12.1435   27.3159 S   0  0  0  0  0  0  0  0  0  0  0  0
    7.4301  -13.4184   26.7854 C   0  0  0  0  0  0  0  0  0  0  0  0
    6.8766  -14.2854   25.6825 C   0  0  0  0  0  0  0  0  0  0  0  0
    7.8430  -15.3374   25.2041 C   0  0  2  0  0  0  0  0  0  0  0  0
    7.2844  -16.1607   24.1641 N   0  0  0  0  0  0  0  0  0  0  0  0
    8.4343  -16.1416   26.2979 C   0  0  0  0  0  0  0  0  0  0  0  0
    8.0427  -17.3416   26.4850 O   0  0  0  0  0  0  0  0  0  0  0  0
    9.4113  -15.6770   27.1611 O   0  0  0  0  0  0  0  0  0  0  0  0
  1  5  1  0
  2  1  1  0
  3  2  1  0
  3  4  1  0
  4  5  1  0
  5  6  1  1
  6 11  1  0
  7  6  2  0
  8  9  1  0
 10 11  1  0
 10  9  1  6
 12 10  1  0
 12 19  1  0
 13 12  2  0
 15 14  1  0
 16 15  1  0
 17 16  1  0
 18 19  1  0
 18 17  1  1
 20 18  1  0
 21 20  2  0
 22 20  1  0
M  END
$$$$
