PSM.pdb
     RDKit          3D

 22 22  0  0  1  0  0  0  0  0999 V2000
    9.1780  -14.6951   18.3081 N   0  0  0  0  0  0  0  0  0  0  0  0
    8.9733  -13.9967   17.0592 C   0  0  0  0  0  0  0  0  0  0  0  0
    7.8854  -12.9519   17.3118 C   0  0  0  0  0  0  0  0  0  0  0  0
    7.2947  -13.4371   18.6454 C   0  0  0  0  0  0  0  0  0  0  0  0
    8.5836  -13.8548   19.3276 C   0  0  1  0  0  0  0  0  0  0  0  0
    8.3691  -14.5784   20.5836 C   0  0  0  0  0  0  0  0  0  0  0  0
    7.8623  -13.9522   21.5473 O   0  0  0  0  0  0  0  0  0  0  0  0
   10.2474  -17.9562   22.0462 O   0  0  0  0  0  0  0  0  0  0  0  0
    8.8511  -18.0026   22.1047 C   0  0  0  0  0  0  0  0  0  0  0  0
    8.3300  -16.5898   22.0066 C   0  0  2  0  0  0  0  0  0  0  0  0
    8.6961  -15.9410   20.7857 N   0  0  0  0  0  0  0  0  0  0  0  0
    8.8580  -15.8658   23.2062 C   0  0  0  0  0  0  0  0  0  0  0  0
   10.0125  -15.3858   23.1136 O   0  0  0  0  0  0  0  0  0  0  0  0
    6.2360  -11.0543   26.1446 C   0  0  0  0  0  0  0  0  0  0  0  0
    6.8388  -11.8566   27.6545 S   0  0  0  0  0  0  0  0  0  0  0  0
    8.0199  -13.1572   27.1955 C   0  0  0  0  0  0  0  0  0  0  0  0
    7.5658  -13.9423   25.9905 C   0  0  0  0  0  0  0  0  0  0  0  0
    8.5570  -14.9861   25.5460 C   0  0  2  0  0  0  0  0  0  0  0  0
    8.0979  -15.7226   24.3980 N   0  0  0  0  0  0  0  0  0  0  0  0
    9.0104  -15.8773   26.6383 C   0  0  0  0  0  0  0  0  0  0  0  0
    8.6302  -17.0951   26.6612 O   0  0  0  0  0  0  0  0  0  0  0  0
    9.8424  -15.4782   27.6699 O   0  0  0  0  0  0  0  0  0  0  0  0
  1  5  1  0
  2  1  1  0
  3  2  1  0
  3  4  1  0
  4  5  1  0
  5  6  1  1
  6 11  1  0
  7  6  2  0
  8  9  1  0
 10 11  1  0
 10  9  1  6
 12 10  1  0
 12 19  1  0
 13 12  2  0
 15 14  1  0
 16 15  1  0
 17 16  1  0
 18 19  1  0
 18 17  1  1
 20 18  1  0
 21 20  2  0
 22 20  1  0
M  END
$$$$
