PSM.pdb
     RDKit          3D

 22 22  0  0  1  0  0  0  0  0999 V2000
    9.1487  -14.6357   18.2916 N   0  0  0  0  0  0  0  0  0  0  0  0
    8.9776  -13.8655   17.0805 C   0  0  0  0  0  0  0  0  0  0  0  0
    7.9318  -12.7919   17.3849 C   0  0  0  0  0  0  0  0  0  0  0  0
    7.3163  -13.3216   18.6901 C   0  0  0  0  0  0  0  0  0  0  0  0
    8.5843  -13.8263   19.3523 C   0  0  1  0  0  0  0  0  0  0  0  0
    8.3353  -14.6050   20.5683 C   0  0  0  0  0  0  0  0  0  0  0  0
    7.7697  -14.0314   21.5320 O   0  0  0  0  0  0  0  0  0  0  0  0
   10.3379  -17.9468   21.8627 O   0  0  0  0  0  0  0  0  0  0  0  0
    8.9510  -18.0387   22.0157 C   0  0  0  0  0  0  0  0  0  0  0  0
    8.3783  -16.6441   21.9513 C   0  0  2  0  0  0  0  0  0  0  0  0
    8.6910  -15.9656   20.7317 N   0  0  0  0  0  0  0  0  0  0  0  0
    8.9100  -15.9187   23.1484 C   0  0  0  0  0  0  0  0  0  0  0  0
   10.0221  -15.3544   23.0192 O   0  0  0  0  0  0  0  0  0  0  0  0
    5.6668  -11.7822   26.9598 C   0  0  0  0  0  0  0  0  0  0  0  0
    7.4272  -11.8188   27.3917 S   0  0  0  0  0  0  0  0  0  0  0  0
    7.9996  -13.5420   27.3728 C   0  0  0  0  0  0  0  0  0  0  0  0
    7.5685  -14.2738   26.1266 C   0  0  0  0  0  0  0  0  0  0  0  0
    8.6556  -15.1253   25.5244 C   0  0  2  0  0  0  0  0  0  0  0  0
    8.1989  -15.8648   24.3773 N   0  0  0  0  0  0  0  0  0  0  0  0
    9.3465  -15.9894   26.5087 C   0  0  0  0  0  0  0  0  0  0  0  0
    9.9541  -15.4614   27.4987 O   0  0  0  0  0  0  0  0  0  0  0  0
    9.3849  -17.3710   26.4354 O   0  0  0  0  0  0  0  0  0  0  0  0
  1  5  1  0
  2  1  1  0
  3  2  1  0
  3  4  1  0
  4  5  1  0
  5  6  1  1
  6 11  1  0
  7  6  2  0
  8  9  1  0
 10 11  1  0
 10  9  1  6
 12 10  1  0
 12 19  1  0
 13 12  2  0
 15 14  1  0
 16 15  1  0
 17 16  1  0
 18 19  1  0
 18 17  1  1
 20 18  1  0
 21 20  2  0
 22 20  1  0
M  END
$$$$
