PSM.pdb
     RDKit          3D

 22 22  0  0  1  0  0  0  0  0999 V2000
    9.0047  -14.9682   18.1800 N   0  0  0  0  0  0  0  0  0  0  0  0
    8.9924  -14.2210   16.9428 C   0  0  0  0  0  0  0  0  0  0  0  0
    8.2680  -12.9050   17.2299 C   0  0  0  0  0  0  0  0  0  0  0  0
    7.5855  -13.2145   18.5719 C   0  0  0  0  0  0  0  0  0  0  0  0
    8.7055  -14.0057   19.2207 C   0  0  1  0  0  0  0  0  0  0  0  0
    8.3100  -14.6530   20.4744 C   0  0  0  0  0  0  0  0  0  0  0  0
    8.0573  -13.9210   21.4633 O   0  0  0  0  0  0  0  0  0  0  0  0
    9.1925  -18.4296   21.8312 O   0  0  0  0  0  0  0  0  0  0  0  0
    7.8449  -18.0855   21.9753 C   0  0  0  0  0  0  0  0  0  0  0  0
    7.7328  -16.5829   21.8938 C   0  0  2  0  0  0  0  0  0  0  0  0
    8.1934  -16.0533   20.6476 N   0  0  0  0  0  0  0  0  0  0  0  0
    8.5102  -16.0427   23.0539 C   0  0  0  0  0  0  0  0  0  0  0  0
    9.7064  -15.7353   22.8384 O   0  0  0  0  0  0  0  0  0  0  0  0
    5.7533  -11.8135   26.6544 C   0  0  0  0  0  0  0  0  0  0  0  0
    7.1067  -12.0980   27.8266 S   0  0  0  0  0  0  0  0  0  0  0  0
    8.2602  -13.3028   27.1090 C   0  0  0  0  0  0  0  0  0  0  0  0
    7.6318  -14.1025   25.9954 C   0  0  0  0  0  0  0  0  0  0  0  0
    8.5561  -15.1331   25.4013 C   0  0  2  0  0  0  0  0  0  0  0  0
    7.9324  -15.8813   24.3419 N   0  0  0  0  0  0  0  0  0  0  0  0
    9.1906  -16.0128   26.4094 C   0  0  0  0  0  0  0  0  0  0  0  0
    8.7453  -17.1951   26.5886 O   0  0  0  0  0  0  0  0  0  0  0  0
   10.2651  -15.6395   27.1980 O   0  0  0  0  0  0  0  0  0  0  0  0
  1  5  1  0
  2  1  1  0
  3  2  1  0
  3  4  1  0
  4  5  1  0
  5  6  1  1
  6 11  1  0
  7  6  2  0
  8  9  1  0
 10 11  1  0
 10  9  1  6
 12 10  1  0
 12 19  1  0
 13 12  2  0
 15 14  1  0
 16 15  1  0
 17 16  1  0
 18 19  1  0
 18 17  1  1
 20 18  1  0
 21 20  2  0
 22 20  1  0
M  END
$$$$
