PSM.pdb
     RDKit          3D

 22 22  0  0  1  0  0  0  0  0999 V2000
    9.2843  -14.5271   18.4740 N   0  0  0  0  0  0  0  0  0  0  0  0
    9.2126  -13.7038   17.2882 C   0  0  0  0  0  0  0  0  0  0  0  0
    8.0672  -12.7144   17.5070 C   0  0  0  0  0  0  0  0  0  0  0  0
    7.3322  -13.3512   18.6975 C   0  0  0  0  0  0  0  0  0  0  0  0
    8.5398  -13.8128   19.4911 C   0  0  1  0  0  0  0  0  0  0  0  0
    8.1956  -14.6706   20.6281 C   0  0  0  0  0  0  0  0  0  0  0  0
    7.5204  -14.1711   21.5621 O   0  0  0  0  0  0  0  0  0  0  0  0
   10.2230  -17.8926   22.2221 O   0  0  0  0  0  0  0  0  0  0  0  0
    8.8636  -18.1235   21.9896 C   0  0  0  0  0  0  0  0  0  0  0  0
    8.1707  -16.7867   21.8906 C   0  0  2  0  0  0  0  0  0  0  0  0
    8.5744  -16.0296   20.7463 N   0  0  0  0  0  0  0  0  0  0  0  0
    8.4654  -16.0678   23.1706 C   0  0  0  0  0  0  0  0  0  0  0  0
    9.4140  -15.2482   23.1529 O   0  0  0  0  0  0  0  0  0  0  0  0
    7.8640  -11.4539   27.8614 C   0  0  0  0  0  0  0  0  0  0  0  0
    6.5828  -12.2509   26.8564 S   0  0  0  0  0  0  0  0  0  0  0  0
    6.5982  -14.0349   27.1943 C   0  0  0  0  0  0  0  0  0  0  0  0
    6.5166  -14.8565   25.9322 C   0  0  0  0  0  0  0  0  0  0  0  0
    7.8302  -15.4774   25.5344 C   0  0  2  0  0  0  0  0  0  0  0  0
    7.7142  -16.2942   24.3552 N   0  0  0  0  0  0  0  0  0  0  0  0
    8.5111  -16.1865   26.6419 C   0  0  0  0  0  0  0  0  0  0  0  0
    8.8152  -15.5535   27.7072 O   0  0  0  0  0  0  0  0  0  0  0  0
    8.8539  -17.5271   26.6096 O   0  0  0  0  0  0  0  0  0  0  0  0
  1  5  1  0
  2  1  1  0
  3  2  1  0
  3  4  1  0
  4  5  1  0
  5  6  1  1
  6 11  1  0
  7  6  2  0
  8  9  1  0
 10 11  1  0
 10  9  1  1
 12 10  1  0
 12 19  1  0
 13 12  2  0
 15 14  1  0
 16 15  1  0
 17 16  1  0
 18 19  1  0
 18 17  1  1
 20 18  1  0
 21 20  2  0
 22 20  1  0
M  END
$$$$
