PSM.pdb
     RDKit          3D

 22 22  0  0  1  0  0  0  0  0999 V2000
    8.9253  -14.8011   18.1598 N   0  0  0  0  0  0  0  0  0  0  0  0
    8.8595  -14.0474   16.9283 C   0  0  0  0  0  0  0  0  0  0  0  0
    8.1039  -12.7553   17.2422 C   0  0  0  0  0  0  0  0  0  0  0  0
    7.4651  -13.0929   18.5989 C   0  0  0  0  0  0  0  0  0  0  0  0
    8.6241  -13.8542   19.2140 C   0  0  1  0  0  0  0  0  0  0  0  0
    8.2800  -14.5204   20.4729 C   0  0  0  0  0  0  0  0  0  0  0  0
    7.9419  -13.8038   21.4476 O   0  0  0  0  0  0  0  0  0  0  0  0
    9.3673  -18.2790   21.9285 O   0  0  0  0  0  0  0  0  0  0  0  0
    8.0017  -17.9806   21.9656 C   0  0  0  0  0  0  0  0  0  0  0  0
    7.8470  -16.4809   21.9016 C   0  0  2  0  0  0  0  0  0  0  0  0
    8.3032  -15.9227   20.6664 N   0  0  0  0  0  0  0  0  0  0  0  0
    8.5983  -15.9332   23.0754 C   0  0  0  0  0  0  0  0  0  0  0  0
    9.7966  -15.6189   22.8826 O   0  0  0  0  0  0  0  0  0  0  0  0
    5.7309  -11.8820   26.9337 C   0  0  0  0  0  0  0  0  0  0  0  0
    7.4331  -11.7093   27.5335 S   0  0  0  0  0  0  0  0  0  0  0  0
    8.3472  -13.2304   27.1488 C   0  0  0  0  0  0  0  0  0  0  0  0
    7.7103  -14.0118   26.0270 C   0  0  0  0  0  0  0  0  0  0  0  0
    8.6159  -15.0615   25.4374 C   0  0  2  0  0  0  0  0  0  0  0  0
    7.9944  -15.7725   24.3514 N   0  0  0  0  0  0  0  0  0  0  0  0
    9.1984  -15.9768   26.4452 C   0  0  0  0  0  0  0  0  0  0  0  0
    9.9954  -15.5196   27.3306 O   0  0  0  0  0  0  0  0  0  0  0  0
    8.9361  -17.3346   26.5030 O   0  0  0  0  0  0  0  0  0  0  0  0
  1  5  1  0
  2  1  1  0
  3  2  1  0
  3  4  1  0
  4  5  1  0
  5  6  1  1
  6 11  1  0
  7  6  2  0
  8  9  1  0
 10 11  1  0
 10  9  1  6
 12 10  1  0
 12 19  1  0
 13 12  2  0
 15 14  1  0
 16 15  1  0
 17 16  1  0
 18 19  1  0
 18 17  1  1
 20 18  1  0
 21 20  2  0
 22 20  1  0
M  END
$$$$
