PSM.pdb
     RDKit          3D

 22 22  0  0  1  0  0  0  0  0999 V2000
    7.9740  -15.0057   17.8571 N   0  0  0  0  0  0  0  0  0  0  0  0
    7.9332  -14.0221   16.7988 C   0  0  0  0  0  0  0  0  0  0  0  0
    8.1500  -12.6583   17.4560 C   0  0  0  0  0  0  0  0  0  0  0  0
    7.9109  -12.9881   18.9382 C   0  0  0  0  0  0  0  0  0  0  0  0
    8.5956  -14.3411   18.9844 C   0  0  1  0  0  0  0  0  0  0  0  0
    8.3750  -15.0622   20.2408 C   0  0  0  0  0  0  0  0  0  0  0  0
    7.3061  -14.8486   20.8650 O   0  0  0  0  0  0  0  0  0  0  0  0
   11.0931  -17.6546   22.1340 O   0  0  0  0  0  0  0  0  0  0  0  0
    9.7305  -17.9654   22.1813 C   0  0  0  0  0  0  0  0  0  0  0  0
    8.9509  -16.6859   22.0026 C   0  0  2  0  0  0  0  0  0  0  0  0
    9.2888  -15.9867   20.8016 N   0  0  0  0  0  0  0  0  0  0  0  0
    9.2156  -15.8616   23.2243 C   0  0  0  0  0  0  0  0  0  0  0  0
   10.1971  -15.0829   23.1787 O   0  0  0  0  0  0  0  0  0  0  0  0
    6.4504  -10.8218   28.2565 C   0  0  0  0  0  0  0  0  0  0  0  0
    6.1406  -11.9867   26.9023 S   0  0  0  0  0  0  0  0  0  0  0  0
    7.5379  -13.1409   26.7910 C   0  0  0  0  0  0  0  0  0  0  0  0
    7.3956  -14.1011   25.6367 C   0  0  0  0  0  0  0  0  0  0  0  0
    8.5423  -15.0709   25.5180 C   0  0  2  0  0  0  0  0  0  0  0  0
    8.4017  -15.9480   24.3857 N   0  0  0  0  0  0  0  0  0  0  0  0
    8.8248  -15.8119   26.7685 C   0  0  0  0  0  0  0  0  0  0  0  0
    8.5300  -17.0506   26.8512 O   0  0  0  0  0  0  0  0  0  0  0  0
    9.4032  -15.2460   27.8914 O   0  0  0  0  0  0  0  0  0  0  0  0
  1  5  1  0
  2  1  1  0
  3  2  1  0
  3  4  1  0
  4  5  1  0
  5  6  1  1
  6 11  1  0
  7  6  2  0
  8  9  1  0
 10 11  1  0
 10  9  1  1
 12 10  1  0
 12 19  1  0
 13 12  2  0
 15 14  1  0
 16 15  1  0
 17 16  1  0
 18 19  1  0
 18 17  1  1
 20 18  1  0
 21 20  2  0
 22 20  1  0
M  END
$$$$
