PSM.pdb
     RDKit          3D

 22 22  0  0  1  0  0  0  0  0999 V2000
    9.1376  -18.4854   18.6193 N   0  0  0  0  0  0  0  0  0  0  0  0
    9.5148  -18.9054   17.2888 C   0  0  0  0  0  0  0  0  0  0  0  0
   10.1346  -17.6880   16.6013 C   0  0  0  0  0  0  0  0  0  0  0  0
    9.6868  -16.5477   17.5298 C   0  0  0  0  0  0  0  0  0  0  0  0
    9.8623  -17.2544   18.8606 C   0  0  1  0  0  0  0  0  0  0  0  0
    9.3150  -16.5044   19.9942 C   0  0  0  0  0  0  0  0  0  0  0  0
   10.0363  -15.6223   20.5228 O   0  0  0  0  0  0  0  0  0  0  0  0
    5.5802  -17.1475   21.7256 O   0  0  0  0  0  0  0  0  0  0  0  0
    6.0474  -15.8299   21.6940 C   0  0  0  0  0  0  0  0  0  0  0  0
    7.5525  -15.8678   21.5945 C   0  0  2  0  0  0  0  0  0  0  0  0
    8.0233  -16.7078   20.5369 N   0  0  0  0  0  0  0  0  0  0  0  0
    8.0482  -16.3209   22.9328 C   0  0  0  0  0  0  0  0  0  0  0  0
    8.5460  -17.4700   22.9916 O   0  0  0  0  0  0  0  0  0  0  0  0
   10.6486  -13.0751   29.4417 C   0  0  0  0  0  0  0  0  0  0  0  0
    9.0885  -13.3732   28.5676 S   0  0  0  0  0  0  0  0  0  0  0  0
    9.3580  -14.6519   27.3069 C   0  0  0  0  0  0  0  0  0  0  0  0
    8.1383  -14.8738   26.4480 C   0  0  0  0  0  0  0  0  0  0  0  0
    8.3245  -15.9471   25.4074 C   0  0  2  0  0  0  0  0  0  0  0  0
    7.9643  -15.4983   24.0883 N   0  0  0  0  0  0  0  0  0  0  0  0
    7.6772  -17.2320   25.7577 C   0  0  0  0  0  0  0  0  0  0  0  0
    6.4620  -17.4397   25.4282 O   0  0  0  0  0  0  0  0  0  0  0  0
    8.3093  -18.2590   26.4369 O   0  0  0  0  0  0  0  0  0  0  0  0
  1  5  1  0
  2  1  1  0
  3  2  1  0
  3  4  1  0
  4  5  1  0
  5  6  1  1
  6 11  1  0
  7  6  2  0
  8  9  1  0
 10 11  1  0
 10  9  1  1
 12 10  1  0
 12 19  1  0
 13 12  2  0
 15 14  1  0
 16 15  1  0
 17 16  1  0
 18 19  1  0
 18 17  1  1
 20 18  1  0
 21 20  2  0
 22 20  1  0
M  END
$$$$
