PSM.pdb
     RDKit          3D

 22 22  0  0  1  0  0  0  0  0999 V2000
    8.2798  -15.2036   17.8375 N   0  0  0  0  0  0  0  0  0  0  0  0
    8.2545  -14.2315   16.7682 C   0  0  0  0  0  0  0  0  0  0  0  0
    8.2893  -12.8514   17.4263 C   0  0  0  0  0  0  0  0  0  0  0  0
    7.9405  -13.1950   18.8833 C   0  0  0  0  0  0  0  0  0  0  0  0
    8.7320  -14.4829   19.0101 C   0  0  1  0  0  0  0  0  0  0  0  0
    8.4567  -15.2156   20.2488 C   0  0  0  0  0  0  0  0  0  0  0  0
    7.4382  -14.8956   20.9107 O   0  0  0  0  0  0  0  0  0  0  0  0
    9.4327  -19.0751   21.1719 O   0  0  0  0  0  0  0  0  0  0  0  0
    9.6939  -18.1834   22.2169 C   0  0  0  0  0  0  0  0  0  0  0  0
    8.9009  -16.9239   21.9683 C   0  0  2  0  0  0  0  0  0  0  0  0
    9.2642  -16.2636   20.7528 N   0  0  0  0  0  0  0  0  0  0  0  0
    9.1166  -16.0515   23.1660 C   0  0  0  0  0  0  0  0  0  0  0  0
   10.2007  -15.4241   23.2202 O   0  0  0  0  0  0  0  0  0  0  0  0
    6.1459  -10.8733   28.0704 C   0  0  0  0  0  0  0  0  0  0  0  0
    5.8681  -12.0330   26.7048 S   0  0  0  0  0  0  0  0  0  0  0  0
    7.1335  -13.3335   26.7736 C   0  0  0  0  0  0  0  0  0  0  0  0
    7.0026  -14.3189   25.6395 C   0  0  0  0  0  0  0  0  0  0  0  0
    8.2879  -15.0347   25.3152 C   0  0  2  0  0  0  0  0  0  0  0  0
    8.1478  -15.9315   24.1984 N   0  0  0  0  0  0  0  0  0  0  0  0
    8.9130  -15.6918   26.4858 C   0  0  0  0  0  0  0  0  0  0  0  0
    8.9515  -16.9656   26.5516 O   0  0  0  0  0  0  0  0  0  0  0  0
    9.4775  -15.0086   27.5489 O   0  0  0  0  0  0  0  0  0  0  0  0
  1  5  1  0
  2  1  1  0
  3  2  1  0
  3  4  1  0
  4  5  1  0
  5  6  1  1
  6 11  1  0
  7  6  2  0
  8  9  1  0
 10 11  1  0
 10  9  1  1
 12 10  1  0
 12 19  1  0
 13 12  2  0
 15 14  1  0
 16 15  1  0
 17 16  1  0
 18 19  1  0
 18 17  1  1
 20 18  1  0
 21 20  2  0
 22 20  1  0
M  END
$$$$
