KWH.pdb
     RDKit          3D

 34 36  0  0  1  0  0  0  0  0999 V2000
   27.9792  -23.8976  -16.7115 N   0  0  0  0  0  0  0  0  0  0  0  0
   27.7198  -22.4695  -16.5255 C   0  0  1  0  0  0  0  0  0  0  0  0
   26.7689  -22.0135  -17.6409 C   0  0  0  0  0  0  0  0  0  0  0  0
   27.5626  -22.0404  -18.9333 C   0  0  0  0  0  0  0  0  0  0  0  0
   28.3376  -20.7717  -19.1395 C   0  0  0  0  0  0  0  0  0  0  0  0
   29.6059  -20.9817  -19.9194 C   0  0  0  0  0  0  0  0  0  0  0  0
   30.4044  -19.7563  -19.8861 N   0  0  0  0  0  0  0  0  0  0  0  0
   27.0753  -22.3148  -15.1986 C   0  0  0  0  0  0  0  0  0  0  0  0
   26.0507  -22.9403  -14.9176 O   0  0  0  0  0  0  0  0  0  0  0  0
   27.6030  -21.4462  -14.1953 N   0  0  0  0  0  0  0  0  0  0  0  0
   27.0017  -21.2044  -12.9370 C   0  0  1  0  0  0  0  0  0  0  0  0
   27.7688  -20.3629  -11.9636 C   0  0  0  0  0  0  0  0  0  0  0  0
   27.1130  -20.2888  -10.6563 C   0  0  0  0  0  0  0  0  0  0  0  0
   25.7680  -20.0973  -10.3965 C   0  0  0  0  0  0  0  0  0  0  0  0
   25.5888  -20.1087   -9.0667 N   0  0  0  0  0  0  0  0  0  0  0  0
   26.7348  -20.2961   -8.4261 C   0  0  0  0  0  0  0  0  0  0  0  0
   27.0367  -20.3735   -7.0862 C   0  0  0  0  0  0  0  0  0  0  0  0
   28.3518  -20.5718   -6.7211 C   0  0  0  0  0  0  0  0  0  0  0  0
   29.3370  -20.6892   -7.6569 C   0  0  0  0  0  0  0  0  0  0  0  0
   29.0042  -20.6070   -9.0093 C   0  0  0  0  0  0  0  0  0  0  0  0
   27.7103  -20.4118   -9.4090 C   0  0  0  0  0  0  0  0  0  0  0  0
   25.6396  -20.6636  -13.1566 C   0  0  0  0  0  0  0  0  0  0  0  0
   25.4836  -19.5180  -13.7061 O   0  0  0  0  0  0  0  0  0  0  0  0
   24.4558  -21.3273  -12.7987 N   0  0  0  0  0  0  0  0  0  0  0  0
   23.1147  -20.7709  -13.0994 C   0  0  1  0  0  0  0  0  0  0  0  0
   22.2603  -21.8040  -13.7538 C   0  0  0  0  0  0  0  0  0  0  0  0
   22.0332  -21.4564  -15.1739 C   0  0  0  0  0  0  0  0  0  0  0  0
   22.4145  -20.3907  -15.9456 C   0  0  0  0  0  0  0  0  0  0  0  0
   22.0195  -20.5481  -17.2380 N   0  0  0  0  0  0  0  0  0  0  0  0
   21.3861  -21.7176  -17.2901 C   0  0  0  0  0  0  0  0  0  0  0  0
   21.3820  -22.2765  -16.0729 N   0  0  0  0  0  0  0  0  0  0  0  0
   22.5495  -20.5628  -11.7251 C   0  0  0  0  0  0  0  0  0  0  0  0
   21.7694  -19.6410  -11.4899 O   0  0  0  0  0  0  0  0  0  0  0  0
   22.8889  -21.4006  -10.6857 O   0  0  0  0  0  0  0  0  0  0  0  0
  2  1  1  6
  2  3  1  0
  3  4  1  0
  4  5  1  0
  6  5  1  0
  7  6  1  0
  8  2  1  0
  8  9  2  0
 10  8  1  0
 11 22  1  0
 11 10  1  0
 11 12  1  6
 13 14  2  0
 13 12  1  0
 15 14  1  0
 16 21  2  0
 16 15  1  0
 17 16  1  0
 18 19  1  0
 18 17  2  0
 19 20  2  0
 20 21  1  0
 21 13  1  0
 22 23  2  0
 22 24  1  0
 24 25  1  0
 25 26  1  6
 26 27  1  0
 27 31  1  0
 28 27  2  0
 28 29  1  0
 29 30  1  0
 31 30  2  0
 32 25  1  0
 33 32  2  0
 34 32  1  0
M  END
$$$$
