KWH.pdb
     RDKit          3D

 34 36  0  0  1  0  0  0  0  0999 V2000
   14.2917  -19.1702    3.2452 N   0  0  0  0  0  0  0  0  0  0  0  0
   15.3217  -20.0921    3.7253 C   0  0  1  0  0  0  0  0  0  0  0  0
   15.9806  -20.7424    2.5007 C   0  0  0  0  0  0  0  0  0  0  0  0
   14.8689  -21.3834    1.6919 C   0  0  0  0  0  0  0  0  0  0  0  0
   15.3838  -21.9968    0.4225 C   0  0  0  0  0  0  0  0  0  0  0  0
   14.2988  -22.6335   -0.4011 C   0  0  0  0  0  0  0  0  0  0  0  0
   14.8665  -23.1202   -1.6584 N   0  0  0  0  0  0  0  0  0  0  0  0
   16.3108  -19.2836    4.4788 C   0  0  0  0  0  0  0  0  0  0  0  0
   17.5166  -19.5292    4.4021 O   0  0  0  0  0  0  0  0  0  0  0  0
   15.9204  -18.1959    5.3179 N   0  0  0  0  0  0  0  0  0  0  0  0
   16.8165  -17.3383    5.9996 C   0  0  1  0  0  0  0  0  0  0  0  0
   16.7150  -15.8725    5.7075 C   0  0  0  0  0  0  0  0  0  0  0  0
   17.3458  -15.5148    4.4352 C   0  0  0  0  0  0  0  0  0  0  0  0
   17.4223  -16.2812    3.2863 C   0  0  0  0  0  0  0  0  0  0  0  0
   18.0702  -15.5732    2.3485 N   0  0  0  0  0  0  0  0  0  0  0  0
   18.4297  -14.3811    2.8052 C   0  0  0  0  0  0  0  0  0  0  0  0
   19.1055  -13.3371    2.2172 C   0  0  0  0  0  0  0  0  0  0  0  0
   19.3411  -12.2037    2.9669 C   0  0  0  0  0  0  0  0  0  0  0  0
   18.9193  -12.1095    4.2605 C   0  0  0  0  0  0  0  0  0  0  0  0
   18.2361  -13.1826    4.8333 C   0  0  0  0  0  0  0  0  0  0  0  0
   17.9835  -14.3224    4.1200 C   0  0  0  0  0  0  0  0  0  0  0  0
   16.7155  -17.6036    7.4540 C   0  0  0  0  0  0  0  0  0  0  0  0
   15.5776  -17.5577    8.0384 O   0  0  0  0  0  0  0  0  0  0  0  0
   17.8064  -17.9138    8.2810 N   0  0  0  0  0  0  0  0  0  0  0  0
   17.6505  -18.1720    9.7327 C   0  0  1  0  0  0  0  0  0  0  0  0
   18.2577  -19.4863   10.0929 C   0  0  0  0  0  0  0  0  0  0  0  0
   17.4167  -20.5945    9.5891 C   0  0  0  0  0  0  0  0  0  0  0  0
   16.0744  -20.8568    9.6682 C   0  0  0  0  0  0  0  0  0  0  0  0
   15.7485  -21.9846    8.9805 N   0  0  0  0  0  0  0  0  0  0  0  0
   16.8857  -22.4411    8.4609 C   0  0  0  0  0  0  0  0  0  0  0  0
   17.8923  -21.6294    8.8098 N   0  0  0  0  0  0  0  0  0  0  0  0
   18.5350  -17.1187   10.3323 C   0  0  0  0  0  0  0  0  0  0  0  0
   19.1600  -16.3317    9.6224 O   0  0  0  0  0  0  0  0  0  0  0  0
   18.6721  -17.0027   11.6980 O   0  0  0  0  0  0  0  0  0  0  0  0
  2  1  1  6
  2  3  1  0
  3  4  1  0
  4  5  1  0
  6  5  1  0
  7  6  1  0
  8  2  1  0
  8  9  2  0
 10  8  1  0
 11 22  1  0
 11 10  1  0
 11 12  1  1
 13 14  2  0
 13 12  1  0
 15 14  1  0
 16 21  2  0
 16 15  1  0
 17 16  1  0
 18 19  1  0
 18 17  2  0
 19 20  2  0
 20 21  1  0
 21 13  1  0
 22 23  2  0
 22 24  1  0
 24 25  1  0
 25 26  1  6
 26 27  1  0
 27 31  1  0
 28 27  2  0
 28 29  1  0
 29 30  1  0
 31 30  2  0
 32 25  1  0
 33 32  2  0
 34 32  1  0
M  END
$$$$
