KWH.pdb
     RDKit          3D

 34 36  0  0  1  0  0  0  0  0999 V2000
   22.8905  -15.0664  -17.4658 N   0  0  0  0  0  0  0  0  0  0  0  0
   22.1364  -14.0342  -18.1779 C   0  0  1  0  0  0  0  0  0  0  0  0
   20.6498  -14.4132  -18.1224 C   0  0  0  0  0  0  0  0  0  0  0  0
   20.5363  -15.8270  -18.6600 C   0  0  0  0  0  0  0  0  0  0  0  0
   19.1293  -16.3435  -18.5810 C   0  0  0  0  0  0  0  0  0  0  0  0
   18.9943  -17.7520  -19.0898 C   0  0  0  0  0  0  0  0  0  0  0  0
   17.5892  -18.1556  -19.0333 N   0  0  0  0  0  0  0  0  0  0  0  0
   22.3728  -12.7548  -17.4657 C   0  0  0  0  0  0  0  0  0  0  0  0
   22.3336  -12.7011  -16.2346 O   0  0  0  0  0  0  0  0  0  0  0  0
   22.6539  -11.5397  -18.1614 N   0  0  0  0  0  0  0  0  0  0  0  0
   22.9086  -10.2931  -17.5414 C   0  0  1  0  0  0  0  0  0  0  0  0
   23.9006   -9.3892  -18.2069 C   0  0  0  0  0  0  0  0  0  0  0  0
   25.2494   -9.9595  -18.2211 C   0  0  0  0  0  0  0  0  0  0  0  0
   26.0557  -10.1921  -19.3207 C   0  0  0  0  0  0  0  0  0  0  0  0
   27.2168  -10.7097  -18.8911 N   0  0  0  0  0  0  0  0  0  0  0  0
   27.2310  -10.8358  -17.5710 C   0  0  0  0  0  0  0  0  0  0  0  0
   28.1856  -11.3139  -16.7035 C   0  0  0  0  0  0  0  0  0  0  0  0
   27.8986  -11.3251  -15.3546 C   0  0  0  0  0  0  0  0  0  0  0  0
   26.7010  -10.8760  -14.8812 C   0  0  0  0  0  0  0  0  0  0  0  0
   25.7499  -10.3962  -15.7820 C   0  0  0  0  0  0  0  0  0  0  0  0
   25.9996  -10.3690  -17.1270 C   0  0  0  0  0  0  0  0  0  0  0  0
   21.6178   -9.6005  -17.3176 C   0  0  0  0  0  0  0  0  0  0  0  0
   20.6543   -9.7525  -18.1465 O   0  0  0  0  0  0  0  0  0  0  0  0
   21.3494   -8.7563  -16.2288 N   0  0  0  0  0  0  0  0  0  0  0  0
   20.0013   -8.6543  -15.6201 C   0  0  1  0  0  0  0  0  0  0  0  0
   19.5668   -9.9826  -15.0983 C   0  0  0  0  0  0  0  0  0  0  0  0
   18.1850   -9.9008  -14.5757 C   0  0  0  0  0  0  0  0  0  0  0  0
   17.2874   -8.8713  -14.4703 C   0  0  0  0  0  0  0  0  0  0  0  0
   16.0949   -9.3021  -13.9770 N   0  0  0  0  0  0  0  0  0  0  0  0
   16.2327  -10.6095  -13.7688 C   0  0  0  0  0  0  0  0  0  0  0  0
   17.4689  -10.9883  -14.1183 N   0  0  0  0  0  0  0  0  0  0  0  0
   20.2668   -7.7942  -14.4196 C   0  0  0  0  0  0  0  0  0  0  0  0
   21.4152   -7.5200  -14.0737 O   0  0  0  0  0  0  0  0  0  0  0  0
   19.2293   -7.2861  -13.6693 O   0  0  0  0  0  0  0  0  0  0  0  0
  2  1  1  1
  2  3  1  0
  3  4  1  0
  4  5  1  0
  6  5  1  0
  7  6  1  0
  8  2  1  0
  8  9  2  0
 10  8  1  0
 11 22  1  0
 11 10  1  0
 11 12  1  6
 13 14  2  0
 13 12  1  0
 15 14  1  0
 16 21  2  0
 16 15  1  0
 17 16  1  0
 18 19  1  0
 18 17  2  0
 19 20  2  0
 20 21  1  0
 21 13  1  0
 22 23  2  0
 22 24  1  0
 24 25  1  0
 25 26  1  1
 26 27  1  0
 27 31  1  0
 28 27  2  0
 28 29  1  0
 29 30  1  0
 31 30  2  0
 32 25  1  0
 33 32  2  0
 34 32  1  0
M  END
$$$$
