KWH.pdb
     RDKit          3D

 34 36  0  0  1  0  0  0  0  0999 V2000
   27.8980  -21.3626  -17.1117 N   0  0  0  0  0  0  0  0  0  0  0  0
   27.3955  -22.6763  -16.7081 C   0  0  1  0  0  0  0  0  0  0  0  0
   28.5930  -23.6326  -16.6194 C   0  0  0  0  0  0  0  0  0  0  0  0
   29.0722  -23.8698  -18.0389 C   0  0  0  0  0  0  0  0  0  0  0  0
   29.9353  -22.7454  -18.5325 C   0  0  0  0  0  0  0  0  0  0  0  0
   30.3678  -22.9243  -19.9614 C   0  0  0  0  0  0  0  0  0  0  0  0
   31.1495  -21.7611  -20.3809 N   0  0  0  0  0  0  0  0  0  0  0  0
   26.7649  -22.5094  -15.3761 C   0  0  0  0  0  0  0  0  0  0  0  0
   26.3762  -23.4878  -14.7345 O   0  0  0  0  0  0  0  0  0  0  0  0
   26.5801  -21.2250  -14.7796 N   0  0  0  0  0  0  0  0  0  0  0  0
   26.0019  -20.9997  -13.5075 C   0  0  1  0  0  0  0  0  0  0  0  0
   26.5724  -19.8848  -12.6855 C   0  0  0  0  0  0  0  0  0  0  0  0
   27.4237  -20.3749  -11.5994 C   0  0  0  0  0  0  0  0  0  0  0  0
   28.6865  -20.9300  -11.7020 C   0  0  0  0  0  0  0  0  0  0  0  0
   29.1177  -21.2297  -10.4671 N   0  0  0  0  0  0  0  0  0  0  0  0
   28.2168  -20.9072   -9.5489 C   0  0  0  0  0  0  0  0  0  0  0  0
   28.2157  -21.0314   -8.1788 C   0  0  0  0  0  0  0  0  0  0  0  0
   27.1049  -20.6027   -7.4828 C   0  0  0  0  0  0  0  0  0  0  0  0
   26.0282  -20.0677   -8.1266 C   0  0  0  0  0  0  0  0  0  0  0  0
   26.0545  -19.9530   -9.5168 C   0  0  0  0  0  0  0  0  0  0  0  0
   27.1395  -20.3667  -10.2405 C   0  0  0  0  0  0  0  0  0  0  0  0
   24.5366  -20.8503  -13.6706 C   0  0  0  0  0  0  0  0  0  0  0  0
   24.0657  -19.9990  -14.5025 O   0  0  0  0  0  0  0  0  0  0  0  0
   23.5801  -21.5933  -12.9612 N   0  0  0  0  0  0  0  0  0  0  0  0
   22.1240  -21.4316  -13.1894 C   0  0  1  0  0  0  0  0  0  0  0  0
   21.3909  -22.6510  -12.7408 C   0  0  0  0  0  0  0  0  0  0  0  0
   19.9303  -22.4349  -12.8366 C   0  0  0  0  0  0  0  0  0  0  0  0
   19.1529  -21.3069  -12.8411 C   0  0  0  0  0  0  0  0  0  0  0  0
   17.8391  -21.6112  -13.0212 N   0  0  0  0  0  0  0  0  0  0  0  0
   17.7796  -22.9362  -13.1330 C   0  0  0  0  0  0  0  0  0  0  0  0
   19.0127  -23.4481  -13.0264 N   0  0  0  0  0  0  0  0  0  0  0  0
   21.7756  -20.3456  -12.2143 C   0  0  0  0  0  0  0  0  0  0  0  0
   22.4219  -20.1871  -11.1795 O   0  0  0  0  0  0  0  0  0  0  0  0
   20.7197  -19.4933  -12.4514 O   0  0  0  0  0  0  0  0  0  0  0  0
  2  1  1  1
  2  3  1  0
  3  4  1  0
  4  5  1  0
  6  5  1  0
  7  6  1  0
  8  2  1  0
  8  9  2  0
 10  8  1  0
 11 22  1  0
 11 10  1  0
 11 12  1  6
 13 14  2  0
 13 12  1  0
 15 14  1  0
 16 21  2  0
 16 15  1  0
 17 16  1  0
 18 19  1  0
 18 17  2  0
 19 20  2  0
 20 21  1  0
 21 13  1  0
 22 23  2  0
 22 24  1  0
 24 25  1  0
 25 26  1  1
 26 27  1  0
 27 31  1  0
 28 27  2  0
 28 29  1  0
 29 30  1  0
 31 30  2  0
 32 25  1  0
 33 32  2  0
 34 32  1  0
M  END
$$$$
