KWH.pdb
     RDKit          3D

 34 36  0  0  1  0  0  0  0  0999 V2000
   29.2116  -21.4963  -13.8398 N   0  0  0  0  0  0  0  0  0  0  0  0
   28.1931  -20.4875  -13.5466 C   0  0  1  0  0  0  0  0  0  0  0  0
   27.6355  -19.9777  -14.8829 C   0  0  0  0  0  0  0  0  0  0  0  0
   28.7870  -19.3161  -15.6159 C   0  0  0  0  0  0  0  0  0  0  0  0
   29.3139  -18.1253  -14.8695 C   0  0  0  0  0  0  0  0  0  0  0  0
   30.4279  -17.4252  -15.5974 C   0  0  0  0  0  0  0  0  0  0  0  0
   29.9316  -16.1623  -16.1443 N   0  0  0  0  0  0  0  0  0  0  0  0
   27.1286  -21.1604  -12.7630 C   0  0  0  0  0  0  0  0  0  0  0  0
   26.2443  -21.8090  -13.3264 O   0  0  0  0  0  0  0  0  0  0  0  0
   27.0770  -21.0915  -11.3375 N   0  0  0  0  0  0  0  0  0  0  0  0
   25.9883  -21.5283  -10.5456 C   0  0  1  0  0  0  0  0  0  0  0  0
   26.2567  -21.7770   -9.0929 C   0  0  0  0  0  0  0  0  0  0  0  0
   26.5902  -20.5471   -8.3712 C   0  0  0  0  0  0  0  0  0  0  0  0
   26.1564  -19.2629   -8.6469 C   0  0  0  0  0  0  0  0  0  0  0  0
   26.6852  -18.4335   -7.7342 N   0  0  0  0  0  0  0  0  0  0  0  0
   27.4453  -19.0894   -6.8677 C   0  0  0  0  0  0  0  0  0  0  0  0
   28.1797  -18.6655   -5.7844 C   0  0  0  0  0  0  0  0  0  0  0  0
   28.8888  -19.6049   -5.0654 C   0  0  0  0  0  0  0  0  0  0  0  0
   28.8701  -20.9240   -5.4110 C   0  0  0  0  0  0  0  0  0  0  0  0
   28.1173  -21.3278   -6.5141 C   0  0  0  0  0  0  0  0  0  0  0  0
   27.4005  -20.4245   -7.2505 C   0  0  0  0  0  0  0  0  0  0  0  0
   24.8586  -20.5869  -10.7288 C   0  0  0  0  0  0  0  0  0  0  0  0
   25.0834  -19.3385  -10.9002 O   0  0  0  0  0  0  0  0  0  0  0  0
   23.5061  -20.9623  -10.7304 N   0  0  0  0  0  0  0  0  0  0  0  0
   22.4387  -20.0726  -11.2477 C   0  0  1  0  0  0  0  0  0  0  0  0
   22.4778  -20.0296  -12.7384 C   0  0  0  0  0  0  0  0  0  0  0  0
   21.3358  -19.2456  -13.2584 C   0  0  0  0  0  0  0  0  0  0  0  0
   20.3432  -18.5261  -12.6471 C   0  0  0  0  0  0  0  0  0  0  0  0
   19.5437  -17.9103  -13.5595 N   0  0  0  0  0  0  0  0  0  0  0  0
   20.0288  -18.2373  -14.7551 C   0  0  0  0  0  0  0  0  0  0  0  0
   21.0960  -19.0316  -14.6006 N   0  0  0  0  0  0  0  0  0  0  0  0
   21.1971  -20.8300  -10.8786 C   0  0  0  0  0  0  0  0  0  0  0  0
   20.3341  -20.3273  -10.1601 O   0  0  0  0  0  0  0  0  0  0  0  0
   20.9881  -22.1126  -11.3355 O   0  0  0  0  0  0  0  0  0  0  0  0
  2  1  1  6
  2  3  1  0
  3  4  1  0
  4  5  1  0
  6  5  1  0
  7  6  1  0
  8  2  1  0
  8  9  2  0
 10  8  1  0
 11 22  1  0
 11 10  1  0
 11 12  1  1
 13 14  2  0
 13 12  1  0
 15 14  1  0
 16 21  2  0
 16 15  1  0
 17 16  1  0
 18 19  1  0
 18 17  2  0
 19 20  2  0
 20 21  1  0
 21 13  1  0
 22 23  2  0
 22 24  1  0
 24 25  1  0
 25 26  1  6
 26 27  1  0
 27 31  1  0
 28 27  2  0
 28 29  1  0
 29 30  1  0
 31 30  2  0
 32 25  1  0
 33 32  2  0
 34 32  1  0
M  END
$$$$
