KWH.pdb
     RDKit          3D

 34 36  0  0  1  0  0  0  0  0999 V2000
   28.4264  -20.3660  -15.5480 N   0  0  0  0  0  0  0  0  0  0  0  0
   27.6878  -19.6909  -14.4803 C   0  0  1  0  0  0  0  0  0  0  0  0
   27.0183  -18.4478  -15.0829 C   0  0  0  0  0  0  0  0  0  0  0  0
   28.1318  -17.5514  -15.5904 C   0  0  0  0  0  0  0  0  0  0  0  0
   27.6063  -16.2392  -16.0952 C   0  0  0  0  0  0  0  0  0  0  0  0
   28.6983  -15.2964  -16.5191 C   0  0  0  0  0  0  0  0  0  0  0  0
   28.1020  -14.0684  -17.0450 N   0  0  0  0  0  0  0  0  0  0  0  0
   26.6641  -20.6455  -13.9900 C   0  0  0  0  0  0  0  0  0  0  0  0
   26.2040  -21.5148  -14.7334 O   0  0  0  0  0  0  0  0  0  0  0  0
   26.1684  -20.6053  -12.6512 N   0  0  0  0  0  0  0  0  0  0  0  0
   25.1460  -21.4411  -12.1419 C   0  0  1  0  0  0  0  0  0  0  0  0
   25.3179  -21.9581  -10.7465 C   0  0  0  0  0  0  0  0  0  0  0  0
   26.0724  -21.0313   -9.8999 C   0  0  0  0  0  0  0  0  0  0  0  0
   25.5681  -20.0597   -9.0544 C   0  0  0  0  0  0  0  0  0  0  0  0
   26.5992  -19.4451   -8.4547 N   0  0  0  0  0  0  0  0  0  0  0  0
   27.7598  -19.9498   -8.8511 C   0  0  0  0  0  0  0  0  0  0  0  0
   29.0583  -19.6402   -8.5187 C   0  0  0  0  0  0  0  0  0  0  0  0
   30.0758  -20.3535   -9.1170 C   0  0  0  0  0  0  0  0  0  0  0  0
   29.8129  -21.3433  -10.0177 C   0  0  0  0  0  0  0  0  0  0  0  0
   28.4871  -21.6376  -10.3376 C   0  0  0  0  0  0  0  0  0  0  0  0
   27.4518  -20.9518   -9.7635 C   0  0  0  0  0  0  0  0  0  0  0  0
   23.8440  -20.7516  -12.3018 C   0  0  0  0  0  0  0  0  0  0  0  0
   23.6457  -19.6155  -11.7464 O   0  0  0  0  0  0  0  0  0  0  0  0
   22.7639  -21.2587  -13.0410 N   0  0  0  0  0  0  0  0  0  0  0  0
   21.4900  -20.5151  -13.1919 C   0  0  1  0  0  0  0  0  0  0  0  0
   21.1502  -20.3579  -14.6360 C   0  0  0  0  0  0  0  0  0  0  0  0
   21.9145  -19.2351  -15.2228 C   0  0  0  0  0  0  0  0  0  0  0  0
   22.8165  -18.3467  -14.6994 C   0  0  0  0  0  0  0  0  0  0  0  0
   23.3139  -17.5215  -15.6600 N   0  0  0  0  0  0  0  0  0  0  0  0
   22.7282  -17.8858  -16.7984 C   0  0  0  0  0  0  0  0  0  0  0  0
   21.8911  -18.9043  -16.5625 N   0  0  0  0  0  0  0  0  0  0  0  0
   20.4950  -21.4856  -12.6264 C   0  0  0  0  0  0  0  0  0  0  0  0
   20.8273  -22.6273  -12.3105 O   0  0  0  0  0  0  0  0  0  0  0  0
   19.1784  -21.1241  -12.4441 O   0  0  0  0  0  0  0  0  0  0  0  0
  2  1  1  6
  2  3  1  0
  3  4  1  0
  4  5  1  0
  6  5  1  0
  7  6  1  0
  8  2  1  0
  8  9  2  0
 10  8  1  0
 11 22  1  0
 11 10  1  0
 11 12  1  1
 13 14  2  0
 13 12  1  0
 15 14  1  0
 16 21  2  0
 16 15  1  0
 17 16  1  0
 18 19  1  0
 18 17  2  0
 19 20  2  0
 20 21  1  0
 21 13  1  0
 22 23  2  0
 22 24  1  0
 24 25  1  0
 25 26  1  6
 26 27  1  0
 27 31  1  0
 28 27  2  0
 28 29  1  0
 29 30  1  0
 31 30  2  0
 32 25  1  0
 33 32  2  0
 34 32  1  0
M  END
$$$$
