KWH.pdb
     RDKit          3D

 34 36  0  0  1  0  0  0  0  0999 V2000
   28.7946  -18.2656  -19.4379 N   0  0  0  0  0  0  0  0  0  0  0  0
   28.9509  -17.3316  -18.3223 C   0  0  1  0  0  0  0  0  0  0  0  0
   29.3160  -15.9587  -18.9041 C   0  0  0  0  0  0  0  0  0  0  0  0
   29.7015  -16.1841  -20.3537 C   0  0  0  0  0  0  0  0  0  0  0  0
   31.1186  -16.6604  -20.4875 C   0  0  0  0  0  0  0  0  0  0  0  0
   31.5872  -16.7071  -21.9155 C   0  0  0  0  0  0  0  0  0  0  0  0
   32.9237  -17.2998  -21.9683 N   0  0  0  0  0  0  0  0  0  0  0  0
   27.6445  -17.2681  -17.6230 C   0  0  0  0  0  0  0  0  0  0  0  0
   27.4514  -16.4527  -16.7187 O   0  0  0  0  0  0  0  0  0  0  0  0
   26.5611  -18.1359  -17.9588 N   0  0  0  0  0  0  0  0  0  0  0  0
   25.2720  -18.0827  -17.3768 C   0  0  1  0  0  0  0  0  0  0  0  0
   24.0993  -18.1650  -18.3054 C   0  0  0  0  0  0  0  0  0  0  0  0
   23.6323  -16.8431  -18.7287 C   0  0  0  0  0  0  0  0  0  0  0  0
   24.1969  -16.0136  -19.6809 C   0  0  0  0  0  0  0  0  0  0  0  0
   23.4476  -14.9042  -19.7723 N   0  0  0  0  0  0  0  0  0  0  0  0
   22.4180  -14.9460  -18.9374 C   0  0  0  0  0  0  0  0  0  0  0  0
   21.4047  -14.0512  -18.6822 C   0  0  0  0  0  0  0  0  0  0  0  0
   20.4629  -14.3817  -17.7304 C   0  0  0  0  0  0  0  0  0  0  0  0
   20.5250  -15.5634  -17.0525 C   0  0  0  0  0  0  0  0  0  0  0  0
   21.5630  -16.4534  -17.3300 C   0  0  0  0  0  0  0  0  0  0  0  0
   22.5147  -16.1600  -18.2682 C   0  0  0  0  0  0  0  0  0  0  0  0
   25.1871  -19.1112  -16.3133 C   0  0  0  0  0  0  0  0  0  0  0  0
   25.5952  -20.3035  -16.5379 O   0  0  0  0  0  0  0  0  0  0  0  0
   24.6760  -18.8808  -15.0265 N   0  0  0  0  0  0  0  0  0  0  0  0
   24.7797  -19.8867  -13.9422 C   0  0  1  0  0  0  0  0  0  0  0  0
   24.8756  -19.2104  -12.6159 C   0  0  0  0  0  0  0  0  0  0  0  0
   24.8530  -20.2121  -11.5272 C   0  0  0  0  0  0  0  0  0  0  0  0
   24.8461  -21.5819  -11.5205 C   0  0  0  0  0  0  0  0  0  0  0  0
   24.8940  -22.0716  -10.2520 N   0  0  0  0  0  0  0  0  0  0  0  0
   24.9326  -21.0110   -9.4487 C   0  0  0  0  0  0  0  0  0  0  0  0
   24.9094  -19.8929  -10.1857 N   0  0  0  0  0  0  0  0  0  0  0  0
   23.4273  -20.5350  -13.9897 C   0  0  0  0  0  0  0  0  0  0  0  0
   22.4363  -19.9144  -14.3724 O   0  0  0  0  0  0  0  0  0  0  0  0
   23.2572  -21.8469  -13.6056 O   0  0  0  0  0  0  0  0  0  0  0  0
  2  1  1  6
  2  3  1  0
  3  4  1  0
  4  5  1  0
  6  5  1  0
  7  6  1  0
  8  2  1  0
  8  9  2  0
 10  8  1  0
 11 22  1  0
 11 10  1  0
 11 12  1  6
 13 14  2  0
 13 12  1  0
 15 14  1  0
 16 21  2  0
 16 15  1  0
 17 16  1  0
 18 19  1  0
 18 17  2  0
 19 20  2  0
 20 21  1  0
 21 13  1  0
 22 23  2  0
 22 24  1  0
 24 25  1  0
 25 26  1  1
 26 27  1  0
 27 31  1  0
 28 27  2  0
 28 29  1  0
 29 30  1  0
 31 30  2  0
 32 25  1  0
 33 32  2  0
 34 32  1  0
M  END
$$$$
