KWH.pdb
     RDKit          3D

 34 36  0  0  1  0  0  0  0  0999 V2000
   28.5676  -21.4798  -15.0116 N   0  0  0  0  0  0  0  0  0  0  0  0
   28.6200  -20.6764  -13.7897 C   0  0  1  0  0  0  0  0  0  0  0  0
   28.4509  -19.2031  -14.1862 C   0  0  0  0  0  0  0  0  0  0  0  0
   27.9848  -19.1871  -15.6296 C   0  0  0  0  0  0  0  0  0  0  0  0
   27.2067  -17.9447  -15.9517 C   0  0  0  0  0  0  0  0  0  0  0  0
   27.9709  -16.9854  -16.8216 C   0  0  0  0  0  0  0  0  0  0  0  0
   27.1504  -15.8010  -17.0748 N   0  0  0  0  0  0  0  0  0  0  0  0
   27.4921  -21.1159  -12.9326 C   0  0  0  0  0  0  0  0  0  0  0  0
   26.5056  -21.6699  -13.4224 O   0  0  0  0  0  0  0  0  0  0  0  0
   27.4939  -20.9221  -11.5177 N   0  0  0  0  0  0  0  0  0  0  0  0
   26.5319  -21.4556  -10.6271 C   0  0  1  0  0  0  0  0  0  0  0  0
   27.0133  -21.8725   -9.2711 C   0  0  0  0  0  0  0  0  0  0  0  0
   27.1223  -20.7407   -8.3482 C   0  0  0  0  0  0  0  0  0  0  0  0
   26.4900  -19.5138   -8.4391 C   0  0  0  0  0  0  0  0  0  0  0  0
   26.8527  -18.7723   -7.3812 N   0  0  0  0  0  0  0  0  0  0  0  0
   27.6890  -19.4328   -6.5918 C   0  0  0  0  0  0  0  0  0  0  0  0
   28.3171  -19.0816   -5.4193 C   0  0  0  0  0  0  0  0  0  0  0  0
   29.1533  -20.0020   -4.8227 C   0  0  0  0  0  0  0  0  0  0  0  0
   29.3603  -21.2326   -5.3730 C   0  0  0  0  0  0  0  0  0  0  0  0
   28.7113  -21.5638   -6.5628 C   0  0  0  0  0  0  0  0  0  0  0  0
   27.8738  -20.6770   -7.1825 C   0  0  0  0  0  0  0  0  0  0  0  0
   25.3992  -20.5056  -10.5253 C   0  0  0  0  0  0  0  0  0  0  0  0
   25.6194  -19.2632  -10.3099 O   0  0  0  0  0  0  0  0  0  0  0  0
   24.0484  -20.8662  -10.6500 N   0  0  0  0  0  0  0  0  0  0  0  0
   23.1132  -20.1355  -11.5387 C   0  0  1  0  0  0  0  0  0  0  0  0
   23.4719  -20.3647  -12.9685 C   0  0  0  0  0  0  0  0  0  0  0  0
   22.4581  -19.7527  -13.8556 C   0  0  0  0  0  0  0  0  0  0  0  0
   21.8725  -18.5147  -13.8876 C   0  0  0  0  0  0  0  0  0  0  0  0
   21.0313  -18.3916  -14.9498 N   0  0  0  0  0  0  0  0  0  0  0  0
   21.0821  -19.5537  -15.5969 C   0  0  0  0  0  0  0  0  0  0  0  0
   21.9253  -20.3795  -14.9638 N   0  0  0  0  0  0  0  0  0  0  0  0
   21.8248  -20.8677  -11.3031 C   0  0  0  0  0  0  0  0  0  0  0  0
   21.8034  -21.9442  -10.7078 O   0  0  0  0  0  0  0  0  0  0  0  0
   20.6267  -20.3533  -11.7476 O   0  0  0  0  0  0  0  0  0  0  0  0
  2  1  1  6
  2  3  1  0
  3  4  1  0
  4  5  1  0
  6  5  1  0
  7  6  1  0
  8  2  1  0
  8  9  2  0
 10  8  1  0
 11 22  1  0
 11 10  1  0
 11 12  1  1
 13 14  2  0
 13 12  1  0
 15 14  1  0
 16 21  2  0
 16 15  1  0
 17 16  1  0
 18 19  1  0
 18 17  2  0
 19 20  2  0
 20 21  1  0
 21 13  1  0
 22 23  2  0
 22 24  1  0
 24 25  1  0
 25 26  1  6
 26 27  1  0
 27 31  1  0
 28 27  2  0
 28 29  1  0
 29 30  1  0
 31 30  2  0
 32 25  1  0
 33 32  2  0
 34 32  1  0
M  END
$$$$
