KWH.pdb
     RDKit          3D

 34 36  0  0  1  0  0  0  0  0999 V2000
   29.7386  -21.3645  -13.1238 N   0  0  0  0  0  0  0  0  0  0  0  0
   28.9641  -20.2440  -12.5892 C   0  0  1  0  0  0  0  0  0  0  0  0
   28.5772  -19.3348  -13.7640 C   0  0  0  0  0  0  0  0  0  0  0  0
   29.2749  -19.8846  -14.9935 C   0  0  0  0  0  0  0  0  0  0  0  0
   28.9380  -19.0972  -16.2261 C   0  0  0  0  0  0  0  0  0  0  0  0
   29.6406  -19.6054  -17.4546 C   0  0  0  0  0  0  0  0  0  0  0  0
   28.9786  -20.8229  -17.9232 N   0  0  0  0  0  0  0  0  0  0  0  0
   27.7518  -20.8175  -11.9557 C   0  0  0  0  0  0  0  0  0  0  0  0
   27.3844  -21.9646  -12.2191 O   0  0  0  0  0  0  0  0  0  0  0  0
   26.9621  -20.0797  -11.0221 N   0  0  0  0  0  0  0  0  0  0  0  0
   25.8313  -20.5882  -10.3394 C   0  0  1  0  0  0  0  0  0  0  0  0
   25.4684  -19.9377   -9.0397 C   0  0  0  0  0  0  0  0  0  0  0  0
   26.6455  -19.6325   -8.2237 C   0  0  0  0  0  0  0  0  0  0  0  0
   27.5819  -18.6360   -8.4327 C   0  0  0  0  0  0  0  0  0  0  0  0
   28.4874  -18.6932   -7.4440 N   0  0  0  0  0  0  0  0  0  0  0  0
   28.2094  -19.6688   -6.5896 C   0  0  0  0  0  0  0  0  0  0  0  0
   28.8454  -20.1003   -5.4487 C   0  0  0  0  0  0  0  0  0  0  0  0
   28.3070  -21.1687   -4.7625 C   0  0  0  0  0  0  0  0  0  0  0  0
   27.1728  -21.7900   -5.1955 C   0  0  0  0  0  0  0  0  0  0  0  0
   26.5471  -21.3329   -6.3557 C   0  0  0  0  0  0  0  0  0  0  0  0
   27.0517  -20.2752   -7.0620 C   0  0  0  0  0  0  0  0  0  0  0  0
   24.6796  -20.6030  -11.2717 C   0  0  0  0  0  0  0  0  0  0  0  0
   24.4311  -19.5823  -12.0031 O   0  0  0  0  0  0  0  0  0  0  0  0
   23.8003  -21.6859  -11.4284 N   0  0  0  0  0  0  0  0  0  0  0  0
   22.6992  -21.6738  -12.4213 C   0  0  1  0  0  0  0  0  0  0  0  0
   22.2341  -23.0644  -12.6957 C   0  0  0  0  0  0  0  0  0  0  0  0
   23.1696  -23.7448  -13.6183 C   0  0  0  0  0  0  0  0  0  0  0  0
   24.3422  -23.3568  -14.2109 C   0  0  0  0  0  0  0  0  0  0  0  0
   24.8885  -24.3685  -14.9382 N   0  0  0  0  0  0  0  0  0  0  0  0
   24.0625  -25.4041  -14.8077 C   0  0  0  0  0  0  0  0  0  0  0  0
   23.0321  -25.0561  -14.0260 N   0  0  0  0  0  0  0  0  0  0  0  0
   21.5974  -21.0026  -11.6550 C   0  0  0  0  0  0  0  0  0  0  0  0
   21.7357  -20.7050  -10.4692 O   0  0  0  0  0  0  0  0  0  0  0  0
   20.3973  -20.6997  -12.2596 O   0  0  0  0  0  0  0  0  0  0  0  0
  2  1  1  6
  2  3  1  0
  3  4  1  0
  4  5  1  0
  6  5  1  0
  7  6  1  0
  8  2  1  0
  8  9  2  0
 10  8  1  0
 11 22  1  0
 11 10  1  0
 11 12  1  1
 13 14  2  0
 13 12  1  0
 15 14  1  0
 16 21  2  0
 16 15  1  0
 17 16  1  0
 18 19  1  0
 18 17  2  0
 19 20  2  0
 20 21  1  0
 21 13  1  0
 22 23  2  0
 22 24  1  0
 24 25  1  0
 25 26  1  1
 26 27  1  0
 27 31  1  0
 28 27  2  0
 28 29  1  0
 29 30  1  0
 31 30  2  0
 32 25  1  0
 33 32  2  0
 34 32  1  0
M  END
$$$$
