KWH.pdb
     RDKit          3D

 34 36  0  0  1  0  0  0  0  0999 V2000
   16.4650  -30.2240    1.9485 N   0  0  0  0  0  0  0  0  0  0  0  0
   16.0949  -29.6124    3.2252 C   0  0  1  0  0  0  0  0  0  0  0  0
   16.2474  -30.6773    4.3203 C   0  0  0  0  0  0  0  0  0  0  0  0
   15.1044  -31.6584    4.1416 C   0  0  0  0  0  0  0  0  0  0  0  0
   13.8878  -31.2462    4.9179 C   0  0  0  0  0  0  0  0  0  0  0  0
   12.8079  -32.2925    4.9111 C   0  0  0  0  0  0  0  0  0  0  0  0
   11.6771  -31.8277    5.7146 N   0  0  0  0  0  0  0  0  0  0  0  0
   17.0363  -28.4901    3.4579 C   0  0  0  0  0  0  0  0  0  0  0  0
   18.2552  -28.6668    3.4022 O   0  0  0  0  0  0  0  0  0  0  0  0
   16.5833  -27.1683    3.7532 N   0  0  0  0  0  0  0  0  0  0  0  0
   17.4269  -26.0480    3.9440 C   0  0  1  0  0  0  0  0  0  0  0  0
   17.3707  -24.9664    2.9090 C   0  0  0  0  0  0  0  0  0  0  0  0
   17.9148  -25.4016    1.6208 C   0  0  0  0  0  0  0  0  0  0  0  0
   17.2135  -25.8582    0.5195 C   0  0  0  0  0  0  0  0  0  0  0  0
   18.0926  -26.1369   -0.4552 N   0  0  0  0  0  0  0  0  0  0  0  0
   19.3374  -25.8932   -0.0679 C   0  0  0  0  0  0  0  0  0  0  0  0
   20.5445  -26.0312   -0.7131 C   0  0  0  0  0  0  0  0  0  0  0  0
   21.6947  -25.6952   -0.0303 C   0  0  0  0  0  0  0  0  0  0  0  0
   21.6485  -25.2370    1.2534 C   0  0  0  0  0  0  0  0  0  0  0  0
   20.4115  -25.1063    1.8852 C   0  0  0  0  0  0  0  0  0  0  0  0
   19.2494  -25.4289    1.2390 C   0  0  0  0  0  0  0  0  0  0  0  0
   17.1944  -25.5030    5.3023 C   0  0  0  0  0  0  0  0  0  0  0  0
   16.0083  -25.2070    5.6819 O   0  0  0  0  0  0  0  0  0  0  0  0
   18.2056  -25.2737    6.2483 N   0  0  0  0  0  0  0  0  0  0  0  0
   17.9136  -24.7727    7.6129 C   0  0  1  0  0  0  0  0  0  0  0  0
   18.9555  -25.2433    8.5713 C   0  0  0  0  0  0  0  0  0  0  0  0
   18.9597  -26.7214    8.6384 C   0  0  0  0  0  0  0  0  0  0  0  0
   19.7700  -27.6776    8.0854 C   0  0  0  0  0  0  0  0  0  0  0  0
   19.4148  -28.9255    8.4951 N   0  0  0  0  0  0  0  0  0  0  0  0
   18.3765  -28.7637    9.3120 C   0  0  0  0  0  0  0  0  0  0  0  0
   18.0878  -27.4597    9.4126 N   0  0  0  0  0  0  0  0  0  0  0  0
   18.1223  -23.2954    7.4527 C   0  0  0  0  0  0  0  0  0  0  0  0
   18.7738  -22.8423    6.5125 O   0  0  0  0  0  0  0  0  0  0  0  0
   17.5885  -22.4029    8.3560 O   0  0  0  0  0  0  0  0  0  0  0  0
  2  1  1  6
  2  3  1  0
  3  4  1  0
  4  5  1  0
  6  5  1  0
  7  6  1  0
  8  2  1  0
  8  9  2  0
 10  8  1  0
 11 22  1  0
 11 10  1  0
 11 12  1  6
 13 14  2  0
 13 12  1  0
 15 14  1  0
 16 21  2  0
 16 15  1  0
 17 16  1  0
 18 19  1  0
 18 17  2  0
 19 20  2  0
 20 21  1  0
 21 13  1  0
 22 23  2  0
 22 24  1  0
 24 25  1  0
 25 26  1  1
 26 27  1  0
 27 31  1  0
 28 27  2  0
 28 29  1  0
 29 30  1  0
 31 30  2  0
 32 25  1  0
 33 32  2  0
 34 32  1  0
M  END
$$$$
