KWH.pdb
     RDKit          3D

 34 36  0  0  1  0  0  0  0  0999 V2000
   28.6516  -19.9821  -13.6712 N   0  0  0  0  0  0  0  0  0  0  0  0
   27.5657  -20.8718  -14.0842 C   0  0  1  0  0  0  0  0  0  0  0  0
   28.1817  -22.0281  -14.8842 C   0  0  0  0  0  0  0  0  0  0  0  0
   29.0053  -21.4044  -15.9949 C   0  0  0  0  0  0  0  0  0  0  0  0
   29.6373  -22.4445  -16.8732 C   0  0  0  0  0  0  0  0  0  0  0  0
   29.2404  -22.3096  -18.3173 C   0  0  0  0  0  0  0  0  0  0  0  0
   30.1256  -21.3489  -18.9760 N   0  0  0  0  0  0  0  0  0  0  0  0
   26.9264  -21.3800  -12.8461 C   0  0  0  0  0  0  0  0  0  0  0  0
   26.3568  -22.4733  -12.8327 O   0  0  0  0  0  0  0  0  0  0  0  0
   26.9397  -20.6383  -11.6257 N   0  0  0  0  0  0  0  0  0  0  0  0
   25.9596  -20.7358  -10.6093 C   0  0  1  0  0  0  0  0  0  0  0  0
   26.2541  -20.0537   -9.3085 C   0  0  0  0  0  0  0  0  0  0  0  0
   27.5377  -20.4714   -8.7405 C   0  0  0  0  0  0  0  0  0  0  0  0
   28.4945  -21.2825   -9.3236 C   0  0  0  0  0  0  0  0  0  0  0  0
   29.5241  -21.4010   -8.4713 N   0  0  0  0  0  0  0  0  0  0  0  0
   29.3093  -20.7170   -7.3555 C   0  0  0  0  0  0  0  0  0  0  0  0
   30.0664  -20.5510   -6.2190 C   0  0  0  0  0  0  0  0  0  0  0  0
   29.5597  -19.7686   -5.2025 C   0  0  0  0  0  0  0  0  0  0  0  0
   28.3391  -19.1699   -5.3103 C   0  0  0  0  0  0  0  0  0  0  0  0
   27.5910  -19.3544   -6.4734 C   0  0  0  0  0  0  0  0  0  0  0  0
   28.0617  -20.1228   -7.5030 C   0  0  0  0  0  0  0  0  0  0  0  0
   24.6562  -20.2975  -11.1616 C   0  0  0  0  0  0  0  0  0  0  0  0
   24.5087  -19.0997  -11.5883 O   0  0  0  0  0  0  0  0  0  0  0  0
   23.5213  -21.1174  -11.2611 N   0  0  0  0  0  0  0  0  0  0  0  0
   22.3179  -20.7134  -12.0273 C   0  0  1  0  0  0  0  0  0  0  0  0
   21.8982  -21.8095  -12.9482 C   0  0  0  0  0  0  0  0  0  0  0  0
   20.6592  -21.4316  -13.6632 C   0  0  0  0  0  0  0  0  0  0  0  0
   19.8757  -20.3081  -13.6413 C   0  0  0  0  0  0  0  0  0  0  0  0
   18.8571  -20.3966  -14.5390 N   0  0  0  0  0  0  0  0  0  0  0  0
   18.9928  -21.5789  -15.1351 C   0  0  0  0  0  0  0  0  0  0  0  0
   20.0592  -22.2126  -14.6300 N   0  0  0  0  0  0  0  0  0  0  0  0
   21.2743  -20.6415  -10.9516 C   0  0  0  0  0  0  0  0  0  0  0  0
   21.4649  -21.1434   -9.8445 O   0  0  0  0  0  0  0  0  0  0  0  0
   20.0707  -20.0096  -11.1739 O   0  0  0  0  0  0  0  0  0  0  0  0
  2  1  1  1
  2  3  1  0
  3  4  1  0
  4  5  1  0
  6  5  1  0
  7  6  1  0
  8  2  1  0
  8  9  2  0
 10  8  1  0
 11 22  1  0
 11 10  1  0
 11 12  1  1
 13 14  2  0
 13 12  1  0
 15 14  1  0
 16 21  2  0
 16 15  1  0
 17 16  1  0
 18 19  1  0
 18 17  2  0
 19 20  2  0
 20 21  1  0
 21 13  1  0
 22 23  2  0
 22 24  1  0
 24 25  1  0
 25 26  1  6
 26 27  1  0
 27 31  1  0
 28 27  2  0
 28 29  1  0
 29 30  1  0
 31 30  2  0
 32 25  1  0
 33 32  2  0
 34 32  1  0
M  END
$$$$
