KWH.pdb
     RDKit          3D

 34 36  0  0  1  0  0  0  0  0999 V2000
   29.1613  -21.3640  -13.9570 N   0  0  0  0  0  0  0  0  0  0  0  0
   28.1662  -20.3180  -13.7187 C   0  0  1  0  0  0  0  0  0  0  0  0
   27.6719  -19.8174  -15.0831 C   0  0  0  0  0  0  0  0  0  0  0  0
   28.8770  -19.2434  -15.8036 C   0  0  0  0  0  0  0  0  0  0  0  0
   29.0261  -17.7705  -15.5570 C   0  0  0  0  0  0  0  0  0  0  0  0
   30.1891  -17.1688  -16.2961 C   0  0  0  0  0  0  0  0  0  0  0  0
   30.2754  -15.7418  -15.9856 N   0  0  0  0  0  0  0  0  0  0  0  0
   27.0542  -20.9415  -12.9607 C   0  0  0  0  0  0  0  0  0  0  0  0
   26.1028  -21.4608  -13.5483 O   0  0  0  0  0  0  0  0  0  0  0  0
   27.0316  -20.9710  -11.5331 N   0  0  0  0  0  0  0  0  0  0  0  0
   25.9879  -21.5220  -10.7518 C   0  0  1  0  0  0  0  0  0  0  0  0
   26.2928  -21.8176   -9.3153 C   0  0  0  0  0  0  0  0  0  0  0  0
   26.5000  -20.5994   -8.5294 C   0  0  0  0  0  0  0  0  0  0  0  0
   25.9497  -19.3495   -8.7493 C   0  0  0  0  0  0  0  0  0  0  0  0
   26.3869  -18.5206   -7.7889 N   0  0  0  0  0  0  0  0  0  0  0  0
   27.1957  -19.1445   -6.9431 C   0  0  0  0  0  0  0  0  0  0  0  0
   27.8741  -18.7081   -5.8287 C   0  0  0  0  0  0  0  0  0  0  0  0
   28.6606  -19.6113   -5.1448 C   0  0  0  0  0  0  0  0  0  0  0  0
   28.7709  -20.9075   -5.5544 C   0  0  0  0  0  0  0  0  0  0  0  0
   28.0726  -21.3247   -6.6879 C   0  0  0  0  0  0  0  0  0  0  0  0
   27.2820  -20.4572   -7.3910 C   0  0  0  0  0  0  0  0  0  0  0  0
   24.7910  -20.6576  -10.8792 C   0  0  0  0  0  0  0  0  0  0  0  0
   24.8040  -19.4678  -10.4071 O   0  0  0  0  0  0  0  0  0  0  0  0
   23.5936  -21.0478  -11.4989 N   0  0  0  0  0  0  0  0  0  0  0  0
   22.4210  -20.1453  -11.5936 C   0  0  1  0  0  0  0  0  0  0  0  0
   22.2318  -19.6880  -13.0009 C   0  0  0  0  0  0  0  0  0  0  0  0
   21.0262  -18.8366  -13.1053 C   0  0  0  0  0  0  0  0  0  0  0  0
   20.1570  -18.3327  -12.1740 C   0  0  0  0  0  0  0  0  0  0  0  0
   19.2216  -17.5312  -12.7517 N   0  0  0  0  0  0  0  0  0  0  0  0
   19.4963  -17.5235  -14.0540 C   0  0  0  0  0  0  0  0  0  0  0  0
   20.5668  -18.2936  -14.2880 N   0  0  0  0  0  0  0  0  0  0  0  0
   21.2852  -21.0795  -11.2959 C   0  0  0  0  0  0  0  0  0  0  0  0
   21.3445  -22.2709  -11.5971 O   0  0  0  0  0  0  0  0  0  0  0  0
   20.1414  -20.6281  -10.6750 O   0  0  0  0  0  0  0  0  0  0  0  0
  2  1  1  6
  2  3  1  0
  3  4  1  0
  4  5  1  0
  6  5  1  0
  7  6  1  0
  8  2  1  0
  8  9  2  0
 10  8  1  0
 11 22  1  0
 11 10  1  0
 11 12  1  1
 13 14  2  0
 13 12  1  0
 15 14  1  0
 16 21  2  0
 16 15  1  0
 17 16  1  0
 18 19  1  0
 18 17  2  0
 19 20  2  0
 20 21  1  0
 21 13  1  0
 22 23  2  0
 22 24  1  0
 24 25  1  0
 25 26  1  6
 26 27  1  0
 27 31  1  0
 28 27  2  0
 28 29  1  0
 29 30  1  0
 31 30  2  0
 32 25  1  0
 33 32  2  0
 34 32  1  0
M  END
$$$$
