SQH.pdb
     RDKit          3D

 26 26  0  0  1  0  0  0  0  0999 V2000
   15.4927  -12.1955  -15.3351 O   0  0  0  0  0  0  0  0  0  0  0  0
   15.9120  -11.1594  -14.5209 C   0  0  0  0  0  0  0  0  0  0  0  0
   17.3433  -10.8127  -14.8692 C   0  0  2  0  0  0  0  0  0  0  0  0
   18.0987  -11.9621  -15.2881 N   0  0  0  0  0  0  0  0  0  0  0  0
   17.9840  -10.2216  -13.6795 C   0  0  0  0  0  0  0  0  0  0  0  0
   18.5023  -10.9325  -12.7972 O   0  0  0  0  0  0  0  0  0  0  0  0
   21.9027   -6.1781  -14.1677 N   0  0  0  0  0  0  0  0  0  0  0  0
   21.7169   -5.9312  -12.7961 C   0  0  0  0  0  0  0  0  0  0  0  0
   22.4749   -5.1489  -12.1853 O   0  0  0  0  0  0  0  0  0  0  0  0
   20.6194   -6.5910  -12.0396 C   0  0  0  0  0  0  0  0  0  0  0  0
   19.7825   -7.4008  -12.9628 C   0  0  0  0  0  0  0  0  0  0  0  0
   18.6476   -8.1564  -12.3729 C   0  0  2  0  0  0  0  0  0  0  0  0
   18.0091   -8.8200  -13.5400 N   0  0  0  0  0  0  0  0  0  0  0  0
   17.6048   -7.3927  -11.6980 C   0  0  0  0  0  0  0  0  0  0  0  0
   16.7831   -6.7314  -12.4201 O   0  0  0  0  0  0  0  0  0  0  0  0
   17.3937   -7.3029  -10.3110 N   0  0  0  0  0  0  0  0  0  0  0  0
   16.3229   -6.4757   -9.7381 C   0  0  1  0  0  0  0  0  0  0  0  0
   15.6782   -7.2012   -8.5976 C   0  0  0  0  0  0  0  0  0  0  0  0
   14.7393   -8.2602   -9.0415 C   0  0  0  0  0  0  0  0  0  0  0  0
   14.4011   -8.5332  -10.3787 C   0  0  0  0  0  0  0  0  0  0  0  0
   13.5310   -9.5475  -10.4312 N   0  0  0  0  0  0  0  0  0  0  0  0
   13.3155   -9.9172   -9.1592 C   0  0  0  0  0  0  0  0  0  0  0  0
   14.0335   -9.1527   -8.3276 N   0  0  0  0  0  0  0  0  0  0  0  0
   16.9394   -5.2119   -9.3115 C   0  0  0  0  0  0  0  0  0  0  0  0
   18.1694   -4.9502   -9.3033 O   0  0  0  0  0  0  0  0  0  0  0  0
   16.1101   -4.1659   -8.8614 O   0  0  0  0  0  0  0  0  0  0  0  0
  1  2  1  0
  3  2  1  0
  3  5  1  0
  3  4  1  1
  5  6  2  0
  7  8  1  0
  8  9  2  0
  8 10  1  0
 10 11  1  0
 12 11  1  6
 12 14  1  0
 13 12  1  0
 13  5  1  0
 14 15  2  0
 16 17  1  0
 16 14  1  0
 17 24  1  0
 18 19  1  0
 17 18  1  1
 19 20  2  0
 20 21  1  0
 22 21  1  0
 23 19  1  0
 23 22  2  0
 24 25  2  0
 24 26  1  0
M  END
$$$$
