SQH.pdb
     RDKit          3D

 26 26  0  0  1  0  0  0  0  0999 V2000
   27.0157  -10.0812  -19.7206 O   0  0  0  0  0  0  0  0  0  0  0  0
   26.8173  -11.0971  -18.8036 C   0  0  0  0  0  0  0  0  0  0  0  0
   25.8176  -12.0805  -19.3725 C   0  0  2  0  0  0  0  0  0  0  0  0
   26.1489  -12.4851  -20.7118 N   0  0  0  0  0  0  0  0  0  0  0  0
   24.4865  -11.4452  -19.3756 C   0  0  0  0  0  0  0  0  0  0  0  0
   24.0182  -10.9182  -20.4029 O   0  0  0  0  0  0  0  0  0  0  0  0
   19.9396  -13.9228  -16.7790 N   0  0  0  0  0  0  0  0  0  0  0  0
   19.3153  -12.6702  -16.9122 C   0  0  0  0  0  0  0  0  0  0  0  0
   18.0923  -12.5456  -16.6920 O   0  0  0  0  0  0  0  0  0  0  0  0
   20.0895  -11.4663  -17.3165 C   0  0  0  0  0  0  0  0  0  0  0  0
   21.4864  -11.8494  -17.6484 C   0  0  0  0  0  0  0  0  0  0  0  0
   22.4011  -10.7722  -18.1065 C   0  0  2  0  0  0  0  0  0  0  0  0
   23.7291  -11.4355  -18.1879 N   0  0  0  0  0  0  0  0  0  0  0  0
   22.5617   -9.6087  -17.2425 C   0  0  0  0  0  0  0  0  0  0  0  0
   23.2303   -9.7514  -16.1623 O   0  0  0  0  0  0  0  0  0  0  0  0
   22.0564   -8.3168  -17.4705 N   0  0  0  0  0  0  0  0  0  0  0  0
   22.2246   -7.2311  -16.4948 C   0  0  1  0  0  0  0  0  0  0  0  0
   21.8700   -5.9215  -17.1288 C   0  0  0  0  0  0  0  0  0  0  0  0
   21.9287   -4.7836  -16.1792 C   0  0  0  0  0  0  0  0  0  0  0  0
   23.0992   -4.0976  -15.8097 C   0  0  0  0  0  0  0  0  0  0  0  0
   22.8033   -3.1273  -14.9382 N   0  0  0  0  0  0  0  0  0  0  0  0
   21.4756   -3.1883  -14.7522 C   0  0  0  0  0  0  0  0  0  0  0  0
   20.9503   -4.1739  -15.4898 N   0  0  0  0  0  0  0  0  0  0  0  0
   21.3569   -7.5445  -15.3511 C   0  0  0  0  0  0  0  0  0  0  0  0
   20.2937   -8.2152  -15.3862 O   0  0  0  0  0  0  0  0  0  0  0  0
   21.7127   -7.0682  -14.0740 O   0  0  0  0  0  0  0  0  0  0  0  0
  1  2  1  0
  3  2  1  0
  3  5  1  0
  3  4  1  6
  5  6  2  0
  7  8  1  0
  8  9  2  0
  8 10  1  0
 10 11  1  0
 12 11  1  1
 12 14  1  0
 13 12  1  0
 13  5  1  0
 14 15  2  0
 16 17  1  0
 16 14  1  0
 17 24  1  0
 18 19  1  0
 17 18  1  6
 19 20  2  0
 20 21  1  0
 22 21  1  0
 23 19  1  0
 23 22  2  0
 24 25  2  0
 24 26  1  0
M  END
$$$$
