SQH.pdb
     RDKit          3D

 26 26  0  0  1  0  0  0  0  0999 V2000
   19.3492  -16.1106  -16.6690 O   0  0  0  0  0  0  0  0  0  0  0  0
   20.0751  -14.9563  -16.8991 C   0  0  0  0  0  0  0  0  0  0  0  0
   20.4492  -14.8981  -18.3643 C   0  0  2  0  0  0  0  0  0  0  0  0
   21.4839  -15.8372  -18.7030 N   0  0  0  0  0  0  0  0  0  0  0  0
   20.9155  -13.5336  -18.6741 C   0  0  0  0  0  0  0  0  0  0  0  0
   22.1219  -13.2278  -18.6142 O   0  0  0  0  0  0  0  0  0  0  0  0
   17.3803   -9.2577  -19.9156 N   0  0  0  0  0  0  0  0  0  0  0  0
   18.3394   -8.7451  -20.8066 C   0  0  0  0  0  0  0  0  0  0  0  0
   18.2449   -7.5757  -21.2346 O   0  0  0  0  0  0  0  0  0  0  0  0
   19.4859   -9.5764  -21.2612 C   0  0  0  0  0  0  0  0  0  0  0  0
   19.4188  -10.9209  -20.6316 C   0  0  0  0  0  0  0  0  0  0  0  0
   20.3830  -11.2144  -19.5403 C   0  0  2  0  0  0  0  0  0  0  0  0
   19.9728  -12.5552  -19.0460 N   0  0  0  0  0  0  0  0  0  0  0  0
   20.3906  -10.3226  -18.3867 C   0  0  0  0  0  0  0  0  0  0  0  0
   19.5349  -10.5326  -17.4605 O   0  0  0  0  0  0  0  0  0  0  0  0
   21.2555   -9.2355  -18.1710 N   0  0  0  0  0  0  0  0  0  0  0  0
   21.0773   -8.3101  -17.0437 C   0  0  1  0  0  0  0  0  0  0  0  0
   22.3331   -7.5219  -16.8326 C   0  0  0  0  0  0  0  0  0  0  0  0
   22.1828   -6.4551  -15.8131 C   0  0  0  0  0  0  0  0  0  0  0  0
   21.0449   -6.2564  -15.0114 C   0  0  0  0  0  0  0  0  0  0  0  0
   21.2361   -5.2114  -14.1991 N   0  0  0  0  0  0  0  0  0  0  0  0
   22.4664   -4.7499  -14.4720 C   0  0  0  0  0  0  0  0  0  0  0  0
   23.0343   -5.4881  -15.4333 N   0  0  0  0  0  0  0  0  0  0  0  0
   19.9329   -7.4491  -17.3727 C   0  0  0  0  0  0  0  0  0  0  0  0
   19.6404   -7.0043  -18.5120 O   0  0  0  0  0  0  0  0  0  0  0  0
   19.0530   -7.0608  -16.3434 O   0  0  0  0  0  0  0  0  0  0  0  0
  1  2  1  0
  3  2  1  0
  3  5  1  0
  3  4  1  1
  5  6  2  0
  7  8  1  0
  8  9  2  0
  8 10  1  0
 10 11  1  0
 12 11  1  6
 12 14  1  0
 13 12  1  0
 13  5  1  0
 14 15  2  0
 16 17  1  0
 16 14  1  0
 17 24  1  0
 18 19  1  0
 17 18  1  6
 19 20  2  0
 20 21  1  0
 22 21  1  0
 23 19  1  0
 23 22  2  0
 24 25  2  0
 24 26  1  0
M  END
$$$$
