SQH.pdb
     RDKit          3D

 26 26  0  0  1  0  0  0  0  0999 V2000
   20.2104  -20.2082  -10.6459 O   0  0  0  0  0  0  0  0  0  0  0  0
   20.3787  -19.4823  -11.8109 C   0  0  0  0  0  0  0  0  0  0  0  0
   20.6319  -20.4428  -12.9527 C   0  0  2  0  0  0  0  0  0  0  0  0
   19.7077  -21.5441  -12.9570 N   0  0  0  0  0  0  0  0  0  0  0  0
   22.0053  -20.9658  -12.8279 C   0  0  0  0  0  0  0  0  0  0  0  0
   22.2396  -22.0562  -12.2725 O   0  0  0  0  0  0  0  0  0  0  0  0
   25.6294  -22.5142  -15.6771 N   0  0  0  0  0  0  0  0  0  0  0  0
   26.7249  -21.6922  -15.3596 C   0  0  0  0  0  0  0  0  0  0  0  0
   27.8927  -22.0962  -15.5398 O   0  0  0  0  0  0  0  0  0  0  0  0
   26.5242  -20.3272  -14.8039 C   0  0  0  0  0  0  0  0  0  0  0  0
   25.0782  -20.0864  -14.5600 C   0  0  0  0  0  0  0  0  0  0  0  0
   24.4679  -20.7328  -13.3698 C   0  0  2  0  0  0  0  0  0  0  0  0
   23.0753  -20.2127  -13.3497 N   0  0  0  0  0  0  0  0  0  0  0  0
   25.0494  -20.4352  -12.0661 C   0  0  0  0  0  0  0  0  0  0  0  0
   24.3540  -19.7487  -11.2419 O   0  0  0  0  0  0  0  0  0  0  0  0
   26.3156  -20.8308  -11.6010 N   0  0  0  0  0  0  0  0  0  0  0  0
   26.9014  -20.2785  -10.3718 C   0  0  1  0  0  0  0  0  0  0  0  0
   26.1197  -20.7474   -9.1836 C   0  0  0  0  0  0  0  0  0  0  0  0
   26.6953  -20.2912   -7.8949 C   0  0  0  0  0  0  0  0  0  0  0  0
   27.8077  -19.4417   -7.7612 C   0  0  0  0  0  0  0  0  0  0  0  0
   28.0652  -19.2278   -6.4663 N   0  0  0  0  0  0  0  0  0  0  0  0
   27.1411  -19.9227   -5.7850 C   0  0  0  0  0  0  0  0  0  0  0  0
   26.3226  -20.5579   -6.6323 N   0  0  0  0  0  0  0  0  0  0  0  0
   28.3002  -20.7264  -10.3250 C   0  0  0  0  0  0  0  0  0  0  0  0
   29.1135  -20.5277   -9.3867 O   0  0  0  0  0  0  0  0  0  0  0  0
   28.8213  -21.4517  -11.4144 O   0  0  0  0  0  0  0  0  0  0  0  0
  1  2  1  0
  3  2  1  0
  3  5  1  0
  3  4  1  1
  5  6  2  0
  7  8  1  0
  8  9  2  0
  8 10  1  0
 10 11  1  0
 12 11  1  6
 12 14  1  0
 13 12  1  0
 13  5  1  0
 14 15  2  0
 16 17  1  0
 16 14  1  0
 17 24  1  0
 18 19  1  0
 17 18  1  1
 19 20  2  0
 20 21  1  0
 22 21  1  0
 23 19  1  0
 23 22  2  0
 24 25  2  0
 24 26  1  0
M  END
$$$$
