SQH.pdb
     RDKit          3D

 26 26  0  0  1  0  0  0  0  0999 V2000
   22.0393  -12.4115  -20.1132 O   0  0  0  0  0  0  0  0  0  0  0  0
   21.7922  -12.4022  -18.7526 C   0  0  0  0  0  0  0  0  0  0  0  0
   22.7075  -11.3911  -18.0966 C   0  0  2  0  0  0  0  0  0  0  0  0
   23.9465  -11.9760  -17.6609 N   0  0  0  0  0  0  0  0  0  0  0  0
   22.0096  -10.8153  -16.9318 C   0  0  0  0  0  0  0  0  0  0  0  0
   21.8033  -11.4826  -15.9001 O   0  0  0  0  0  0  0  0  0  0  0  0
   22.8769   -5.0730  -15.7952 N   0  0  0  0  0  0  0  0  0  0  0  0
   21.7735   -5.1922  -14.9321 C   0  0  0  0  0  0  0  0  0  0  0  0
   21.4381   -4.2393  -14.1979 O   0  0  0  0  0  0  0  0  0  0  0  0
   20.9804   -6.4489  -14.8700 C   0  0  0  0  0  0  0  0  0  0  0  0
   21.4990   -7.4257  -15.8627 C   0  0  0  0  0  0  0  0  0  0  0  0
   20.9464   -8.8039  -15.8198 C   0  0  2  0  0  0  0  0  0  0  0  0
   21.5671   -9.4792  -16.9899 N   0  0  0  0  0  0  0  0  0  0  0  0
   19.5031   -8.9584  -15.9590 C   0  0  0  0  0  0  0  0  0  0  0  0
   18.9937   -8.8127  -17.1224 O   0  0  0  0  0  0  0  0  0  0  0  0
   18.5881   -9.2606  -14.9355 N   0  0  0  0  0  0  0  0  0  0  0  0
   17.1450   -9.3720  -15.1886 C   0  0  1  0  0  0  0  0  0  0  0  0
   16.5994  -10.5766  -14.4860 C   0  0  0  0  0  0  0  0  0  0  0  0
   15.1386  -10.7475  -14.6788 C   0  0  0  0  0  0  0  0  0  0  0  0
   14.3146   -9.8860  -15.4243 C   0  0  0  0  0  0  0  0  0  0  0  0
   13.0519  -10.3257  -15.3969 N   0  0  0  0  0  0  0  0  0  0  0  0
   13.0642  -11.4421  -14.6522 C   0  0  0  0  0  0  0  0  0  0  0  0
   14.3057  -11.6972  -14.2221 N   0  0  0  0  0  0  0  0  0  0  0  0
   16.5287   -8.1267  -14.7104 C   0  0  0  0  0  0  0  0  0  0  0  0
   17.0600   -7.2789  -13.9485 O   0  0  0  0  0  0  0  0  0  0  0  0
   15.2181   -7.8127  -15.1204 O   0  0  0  0  0  0  0  0  0  0  0  0
  1  2  1  0
  3  2  1  0
  3  5  1  0
  3  4  1  1
  5  6  2  0
  7  8  1  0
  8  9  2  0
  8 10  1  0
 10 11  1  0
 12 11  1  6
 12 14  1  0
 13 12  1  0
 13  5  1  0
 14 15  2  0
 16 17  1  0
 16 14  1  0
 17 24  1  0
 18 19  1  0
 17 18  1  1
 19 20  2  0
 20 21  1  0
 22 21  1  0
 23 19  1  0
 23 22  2  0
 24 25  2  0
 24 26  1  0
M  END
$$$$
