SQH.pdb
     RDKit          3D

 26 26  0  0  1  0  0  0  0  0999 V2000
   12.8620  -10.4825  -16.3043 O   0  0  0  0  0  0  0  0  0  0  0  0
   13.5993   -9.7084  -15.4270 C   0  0  0  0  0  0  0  0  0  0  0  0
   14.9719  -10.3251  -15.2663 C   0  0  2  0  0  0  0  0  0  0  0  0
   14.9337  -11.5643  -14.5382 N   0  0  0  0  0  0  0  0  0  0  0  0
   15.8328   -9.3684  -14.5459 C   0  0  0  0  0  0  0  0  0  0  0  0
   15.6711   -9.1309  -13.3335 O   0  0  0  0  0  0  0  0  0  0  0  0
   21.4763   -9.6687  -15.4091 N   0  0  0  0  0  0  0  0  0  0  0  0
   21.5644   -8.4381  -14.7349 C   0  0  0  0  0  0  0  0  0  0  0  0
   22.6784   -7.9416  -14.4663 O   0  0  0  0  0  0  0  0  0  0  0  0
   20.3408   -7.6983  -14.3255 C   0  0  0  0  0  0  0  0  0  0  0  0
   19.1297   -8.4686  -14.7105 C   0  0  0  0  0  0  0  0  0  0  0  0
   17.8147   -7.7922  -14.5690 C   0  0  2  0  0  0  0  0  0  0  0  0
   16.8612   -8.7092  -15.2475 N   0  0  0  0  0  0  0  0  0  0  0  0
   17.6574   -6.4828  -15.1910 C   0  0  0  0  0  0  0  0  0  0  0  0
   17.5528   -6.4322  -16.4640 O   0  0  0  0  0  0  0  0  0  0  0  0
   17.6022   -5.2416  -14.5332 N   0  0  0  0  0  0  0  0  0  0  0  0
   17.4591   -3.9768  -15.2672 C   0  0  1  0  0  0  0  0  0  0  0  0
   16.6839   -2.9972  -14.4412 C   0  0  0  0  0  0  0  0  0  0  0  0
   16.5801   -1.6599  -15.0744 C   0  0  0  0  0  0  0  0  0  0  0  0
   17.6650   -0.9069  -15.5573 C   0  0  0  0  0  0  0  0  0  0  0  0
   17.2267    0.2496  -16.0663 N   0  0  0  0  0  0  0  0  0  0  0  0
   15.8934    0.2399  -15.9144 C   0  0  0  0  0  0  0  0  0  0  0  0
   15.5037   -0.8962  -15.3237 N   0  0  0  0  0  0  0  0  0  0  0  0
   18.8161   -3.4977  -15.5641 C   0  0  0  0  0  0  0  0  0  0  0  0
   19.8660   -3.8073  -14.9451 O   0  0  0  0  0  0  0  0  0  0  0  0
   19.0049   -2.6047  -16.6372 O   0  0  0  0  0  0  0  0  0  0  0  0
  1  2  1  0
  3  2  1  0
  3  5  1  0
  3  4  1  1
  5  6  2  0
  7  8  1  0
  8  9  2  0
  8 10  1  0
 10 11  1  0
 12 11  1  6
 12 14  1  0
 13 12  1  0
 13  5  1  0
 14 15  2  0
 16 17  1  0
 16 14  1  0
 17 24  1  0
 18 19  1  0
 17 18  1  1
 19 20  2  0
 20 21  1  0
 22 21  1  0
 23 19  1  0
 23 22  2  0
 24 25  2  0
 24 26  1  0
M  END
$$$$
