SQH.pdb
     RDKit          3D

 26 26  0  0  1  0  0  0  0  0999 V2000
   27.8145   -8.5211  -17.6977 O   0  0  0  0  0  0  0  0  0  0  0  0
   26.4787   -8.1705  -17.6268 C   0  0  0  0  0  0  0  0  0  0  0  0
   25.6400   -9.3484  -18.0733 C   0  0  2  0  0  0  0  0  0  0  0  0
   25.8142   -9.6470  -19.4689 N   0  0  0  0  0  0  0  0  0  0  0  0
   24.2212   -9.0348  -17.8202 C   0  0  0  0  0  0  0  0  0  0  0  0
   23.5770   -8.2775  -18.5712 O   0  0  0  0  0  0  0  0  0  0  0  0
   20.9598  -12.9766  -14.6284 N   0  0  0  0  0  0  0  0  0  0  0  0
   19.9931  -11.9558  -14.6412 C   0  0  0  0  0  0  0  0  0  0  0  0
   18.8502  -12.1603  -14.1813 O   0  0  0  0  0  0  0  0  0  0  0  0
   20.3032  -10.6125  -15.1995 C   0  0  0  0  0  0  0  0  0  0  0  0
   21.6898  -10.5930  -15.7338 C   0  0  0  0  0  0  0  0  0  0  0  0
   22.1507   -9.3455  -16.3957 C   0  0  2  0  0  0  0  0  0  0  0  0
   23.5819   -9.6063  -16.7026 N   0  0  0  0  0  0  0  0  0  0  0  0
   22.1025   -8.1113  -15.6207 C   0  0  0  0  0  0  0  0  0  0  0  0
   23.1811   -7.7099  -15.0642 O   0  0  0  0  0  0  0  0  0  0  0  0
   20.9789   -7.2919  -15.4151 N   0  0  0  0  0  0  0  0  0  0  0  0
   21.0993   -5.9167  -14.9118 C   0  0  1  0  0  0  0  0  0  0  0  0
   22.1093   -5.1669  -15.7246 C   0  0  0  0  0  0  0  0  0  0  0  0
   22.1875   -3.7292  -15.3683 C   0  0  0  0  0  0  0  0  0  0  0  0
   21.5239   -3.1268  -14.2849 C   0  0  0  0  0  0  0  0  0  0  0  0
   21.8073   -1.8203  -14.2459 N   0  0  0  0  0  0  0  0  0  0  0  0
   22.6326   -1.5890  -15.2786 C   0  0  0  0  0  0  0  0  0  0  0  0
   22.8619   -2.7238  -15.9502 N   0  0  0  0  0  0  0  0  0  0  0  0
   19.7630   -5.3112  -14.9952 C   0  0  0  0  0  0  0  0  0  0  0  0
   18.7291   -5.8529  -15.4633 O   0  0  0  0  0  0  0  0  0  0  0  0
   19.5770   -3.9997  -14.5159 O   0  0  0  0  0  0  0  0  0  0  0  0
  1  2  1  0
  3  2  1  0
  3  5  1  0
  3  4  1  6
  5  6  2  0
  7  8  1  0
  8  9  2  0
  8 10  1  0
 10 11  1  0
 12 11  1  1
 12 14  1  0
 13 12  1  0
 13  5  1  0
 14 15  2  0
 16 17  1  0
 16 14  1  0
 17 24  1  0
 18 19  1  0
 17 18  1  6
 19 20  2  0
 20 21  1  0
 22 21  1  0
 23 19  1  0
 23 22  2  0
 24 25  2  0
 24 26  1  0
M  END
$$$$
