SQH.pdb
     RDKit          3D

 26 26  0  0  1  0  0  0  0  0999 V2000
   31.9774  -30.3375  -17.4660 O   0  0  0  0  0  0  0  0  0  0  0  0
   33.2834  -30.6608  -17.7857 C   0  0  0  0  0  0  0  0  0  0  0  0
   34.1794  -29.4992  -17.4139 C   0  0  2  0  0  0  0  0  0  0  0  0
   34.0767  -28.4086  -18.3451 N   0  0  0  0  0  0  0  0  0  0  0  0
   35.5746  -29.9765  -17.3816 C   0  0  0  0  0  0  0  0  0  0  0  0
   36.2913  -29.9647  -18.4007 O   0  0  0  0  0  0  0  0  0  0  0  0
   41.7553  -30.2404  -15.1467 N   0  0  0  0  0  0  0  0  0  0  0  0
   40.3902  -29.9040  -15.1546 C   0  0  0  0  0  0  0  0  0  0  0  0
   39.9854  -28.9158  -15.8020 O   0  0  0  0  0  0  0  0  0  0  0  0
   39.3969  -30.7110  -14.3968 C   0  0  0  0  0  0  0  0  0  0  0  0
   38.0194  -30.3468  -14.8190 C   0  0  0  0  0  0  0  0  0  0  0  0
   37.5004  -30.9639  -16.0667 C   0  0  2  0  0  0  0  0  0  0  0  0
   36.1067  -30.4564  -16.1688 N   0  0  0  0  0  0  0  0  0  0  0  0
   37.4256  -32.4191  -16.1209 C   0  0  0  0  0  0  0  0  0  0  0  0
   36.5602  -33.0032  -15.3832 O   0  0  0  0  0  0  0  0  0  0  0  0
   38.2128  -33.2717  -16.9144 N   0  0  0  0  0  0  0  0  0  0  0  0
   38.1385  -34.7344  -16.7965 C   0  0  1  0  0  0  0  0  0  0  0  0
   38.8069  -35.3718  -17.9754 C   0  0  0  0  0  0  0  0  0  0  0  0
   38.7402  -36.8533  -17.9479 C   0  0  0  0  0  0  0  0  0  0  0  0
   37.6251  -37.6057  -17.5386 C   0  0  0  0  0  0  0  0  0  0  0  0
   37.8960  -38.9118  -17.6349 N   0  0  0  0  0  0  0  0  0  0  0  0
   39.1539  -38.9967  -18.0947 C   0  0  0  0  0  0  0  0  0  0  0  0
   39.6610  -37.7723  -18.2826 N   0  0  0  0  0  0  0  0  0  0  0  0
   38.7895  -35.0958  -15.5297 C   0  0  0  0  0  0  0  0  0  0  0  0
   39.6939  -34.4452  -14.9463 O   0  0  0  0  0  0  0  0  0  0  0  0
   38.3929  -36.2763  -14.8712 O   0  0  0  0  0  0  0  0  0  0  0  0
  1  2  1  0
  3  2  1  0
  3  5  1  0
  3  4  1  6
  5  6  2  0
  7  8  1  0
  8  9  2  0
  8 10  1  0
 10 11  1  0
 12 11  1  1
 12 14  1  0
 13 12  1  0
 13  5  1  0
 14 15  2  0
 16 17  1  0
 16 14  1  0
 17 24  1  0
 18 19  1  0
 17 18  1  6
 19 20  2  0
 20 21  1  0
 22 21  1  0
 23 19  1  0
 23 22  2  0
 24 25  2  0
 24 26  1  0
M  END
$$$$
