SQH.pdb
     RDKit          3D

 26 26  0  0  1  0  0  0  0  0999 V2000
   18.3826   -8.6997  -19.5646 O   0  0  0  0  0  0  0  0  0  0  0  0
   19.6775   -9.0702  -19.8781 C   0  0  0  0  0  0  0  0  0  0  0  0
   20.3420   -9.6228  -18.6358 C   0  0  2  0  0  0  0  0  0  0  0  0
   19.7146  -10.8297  -18.1700 N   0  0  0  0  0  0  0  0  0  0  0  0
   20.2713   -8.6014  -17.5741 C   0  0  0  0  0  0  0  0  0  0  0  0
   19.3647   -8.6114  -16.7194 O   0  0  0  0  0  0  0  0  0  0  0  0
   21.6138   -7.2462  -13.3814 N   0  0  0  0  0  0  0  0  0  0  0  0
   22.4198   -6.1016  -13.5113 C   0  0  0  0  0  0  0  0  0  0  0  0
   22.6165   -5.3513  -12.5325 O   0  0  0  0  0  0  0  0  0  0  0  0
   23.0565   -5.7550  -14.8101 C   0  0  0  0  0  0  0  0  0  0  0  0
   22.6479   -6.7325  -15.8521 C   0  0  0  0  0  0  0  0  0  0  0  0
   21.2915   -6.5809  -16.4386 C   0  0  2  0  0  0  0  0  0  0  0  0
   21.2530   -7.5922  -17.5276 N   0  0  0  0  0  0  0  0  0  0  0  0
   20.9553   -5.2967  -17.0419 C   0  0  0  0  0  0  0  0  0  0  0  0
   21.5261   -4.9831  -18.1419 O   0  0  0  0  0  0  0  0  0  0  0  0
   20.0503   -4.3446  -16.5412 N   0  0  0  0  0  0  0  0  0  0  0  0
   19.8395   -3.0484  -17.2002 C   0  0  1  0  0  0  0  0  0  0  0  0
   18.3971   -2.6582  -17.0997 C   0  0  0  0  0  0  0  0  0  0  0  0
   18.1073   -1.3452  -17.7259 C   0  0  0  0  0  0  0  0  0  0  0  0
   18.6419   -0.8949  -18.9459 C   0  0  0  0  0  0  0  0  0  0  0  0
   18.1786    0.3287  -19.2230 N   0  0  0  0  0  0  0  0  0  0  0  0
   17.3663    0.6565  -18.2063 C   0  0  0  0  0  0  0  0  0  0  0  0
   17.3208   -0.3381  -17.3117 N   0  0  0  0  0  0  0  0  0  0  0  0
   20.7217   -2.0803  -16.5340 C   0  0  0  0  0  0  0  0  0  0  0  0
   21.0078   -2.0550  -15.3097 O   0  0  0  0  0  0  0  0  0  0  0  0
   21.3265   -1.0666  -17.3028 O   0  0  0  0  0  0  0  0  0  0  0  0
  1  2  1  0
  3  2  1  0
  3  5  1  0
  3  4  1  1
  5  6  2  0
  7  8  1  0
  8  9  2  0
  8 10  1  0
 10 11  1  0
 12 11  1  6
 12 14  1  0
 13 12  1  0
 13  5  1  0
 14 15  2  0
 16 17  1  0
 16 14  1  0
 17 24  1  0
 18 19  1  0
 17 18  1  1
 19 20  2  0
 20 21  1  0
 22 21  1  0
 23 19  1  0
 23 22  2  0
 24 25  2  0
 24 26  1  0
M  END
$$$$
