SQH.pdb
     RDKit          3D

 26 26  0  0  1  0  0  0  0  0999 V2000
   12.5089  -12.3588  -13.0532 O   0  0  0  0  0  0  0  0  0  0  0  0
   13.2086  -11.5678  -12.1603 C   0  0  0  0  0  0  0  0  0  0  0  0
   14.6544  -12.0146  -12.1408 C   0  0  2  0  0  0  0  0  0  0  0  0
   14.8040  -13.3647  -11.6696 N   0  0  0  0  0  0  0  0  0  0  0  0
   15.4119  -11.1084  -11.2574 C   0  0  0  0  0  0  0  0  0  0  0  0
   15.3649  -11.2173  -10.0170 O   0  0  0  0  0  0  0  0  0  0  0  0
   20.1119   -8.1421  -13.6706 N   0  0  0  0  0  0  0  0  0  0  0  0
   20.1316   -7.4829  -12.4289 C   0  0  0  0  0  0  0  0  0  0  0  0
   21.0191   -6.6427  -12.1723 O   0  0  0  0  0  0  0  0  0  0  0  0
   19.1023   -7.7665  -11.3934 C   0  0  0  0  0  0  0  0  0  0  0  0
   18.1636   -8.8093  -11.8834 C   0  0  0  0  0  0  0  0  0  0  0  0
   17.0227   -9.1710  -11.0035 C   0  0  2  0  0  0  0  0  0  0  0  0
   16.2062  -10.0968  -11.8320 N   0  0  0  0  0  0  0  0  0  0  0  0
   16.1360   -8.0975  -10.5704 C   0  0  0  0  0  0  0  0  0  0  0  0
   15.2164   -7.7185  -11.3734 O   0  0  0  0  0  0  0  0  0  0  0  0
   16.1764   -7.4198   -9.3395 N   0  0  0  0  0  0  0  0  0  0  0  0
   15.2238   -6.3516   -9.0067 C   0  0  1  0  0  0  0  0  0  0  0  0
   14.7834   -6.4919   -7.5822 C   0  0  0  0  0  0  0  0  0  0  0  0
   13.8871   -5.3950   -7.1424 C   0  0  0  0  0  0  0  0  0  0  0  0
   12.5790   -5.1816   -7.6116 C   0  0  0  0  0  0  0  0  0  0  0  0
   12.0488   -4.1097   -7.0127 N   0  0  0  0  0  0  0  0  0  0  0  0
   12.9929   -3.6459   -6.1793 C   0  0  0  0  0  0  0  0  0  0  0  0
   14.0902   -4.4088   -6.2533 N   0  0  0  0  0  0  0  0  0  0  0  0
   15.9093   -5.0749   -9.2502 C   0  0  0  0  0  0  0  0  0  0  0  0
   17.1527   -4.9002   -9.3209 O   0  0  0  0  0  0  0  0  0  0  0  0
   15.1383   -3.9094   -9.4275 O   0  0  0  0  0  0  0  0  0  0  0  0
  1  2  1  0
  3  2  1  0
  3  5  1  0
  3  4  1  1
  5  6  2  0
  7  8  1  0
  8  9  2  0
  8 10  1  0
 10 11  1  0
 12 11  1  6
 12 14  1  0
 13 12  1  0
 13  5  1  0
 14 15  2  0
 16 17  1  0
 16 14  1  0
 17 24  1  0
 18 19  1  0
 17 18  1  1
 19 20  2  0
 20 21  1  0
 22 21  1  0
 23 19  1  0
 23 22  2  0
 24 25  2  0
 24 26  1  0
M  END
$$$$
