SQH.pdb
     RDKit          3D

 26 26  0  0  1  0  0  0  0  0999 V2000
   30.1618   -7.3861  -18.8309 O   0  0  0  0  0  0  0  0  0  0  0  0
   30.8815   -8.1926  -17.9684 C   0  0  0  0  0  0  0  0  0  0  0  0
   30.7236   -9.6341  -18.4011 C   0  0  2  0  0  0  0  0  0  0  0  0
   31.1367   -9.8458  -19.7619 N   0  0  0  0  0  0  0  0  0  0  0  0
   29.3043  -10.0108  -18.2635 C   0  0  0  0  0  0  0  0  0  0  0  0
   28.5240   -9.9777  -19.2344 O   0  0  0  0  0  0  0  0  0  0  0  0
   26.6755  -14.0842  -16.9167 N   0  0  0  0  0  0  0  0  0  0  0  0
   25.7603  -13.4835  -16.0344 C   0  0  0  0  0  0  0  0  0  0  0  0
   24.5921  -13.9154  -15.9433 O   0  0  0  0  0  0  0  0  0  0  0  0
   26.1560  -12.3243  -15.1906 C   0  0  0  0  0  0  0  0  0  0  0  0
   27.4478  -11.7664  -15.6687 C   0  0  0  0  0  0  0  0  0  0  0  0
   27.3996  -10.7917  -16.7887 C   0  0  2  0  0  0  0  0  0  0  0  0
   28.8221  -10.4170  -17.0038 N   0  0  0  0  0  0  0  0  0  0  0  0
   26.6633   -9.5514  -16.5746 C   0  0  0  0  0  0  0  0  0  0  0  0
   27.3301   -8.5013  -16.2802 O   0  0  0  0  0  0  0  0  0  0  0  0
   25.2713   -9.3752  -16.6616 N   0  0  0  0  0  0  0  0  0  0  0  0
   24.6273   -8.0930  -16.3451 C   0  0  1  0  0  0  0  0  0  0  0  0
   25.0147   -7.0667  -17.3646 C   0  0  0  0  0  0  0  0  0  0  0  0
   24.4626   -7.3511  -18.7115 C   0  0  0  0  0  0  0  0  0  0  0  0
   23.5648   -8.3897  -19.0152 C   0  0  0  0  0  0  0  0  0  0  0  0
   23.2663   -8.3679  -20.3187 N   0  0  0  0  0  0  0  0  0  0  0  0
   23.9552   -7.3409  -20.8397 C   0  0  0  0  0  0  0  0  0  0  0  0
   24.6696   -6.7320  -19.8855 N   0  0  0  0  0  0  0  0  0  0  0  0
   23.1779   -8.3344  -16.3269 C   0  0  0  0  0  0  0  0  0  0  0  0
   22.6007   -9.4162  -16.6063 O   0  0  0  0  0  0  0  0  0  0  0  0
   22.3151   -7.2805  -15.9674 O   0  0  0  0  0  0  0  0  0  0  0  0
  1  2  1  0
  3  2  1  0
  3  5  1  0
  3  4  1  6
  5  6  2  0
  7  8  1  0
  8  9  2  0
  8 10  1  0
 10 11  1  0
 12 11  1  1
 12 14  1  0
 13 12  1  0
 13  5  1  0
 14 15  2  0
 16 17  1  0
 16 14  1  0
 17 24  1  0
 18 19  1  0
 17 18  1  6
 19 20  2  0
 20 21  1  0
 22 21  1  0
 23 19  1  0
 23 22  2  0
 24 25  2  0
 24 26  1  0
M  END
$$$$
