SQH.pdb
     RDKit          3D

 26 26  0  0  1  0  0  0  0  0999 V2000
   16.9704  -17.2256    2.2298 O   0  0  0  0  0  0  0  0  0  0  0  0
   16.9502  -18.6064    2.1580 C   0  0  0  0  0  0  0  0  0  0  0  0
   15.7500  -19.1181    2.9249 C   0  0  2  0  0  0  0  0  0  0  0  0
   14.5352  -18.4443    2.5538 N   0  0  0  0  0  0  0  0  0  0  0  0
   15.9940  -18.9148    4.3652 C   0  0  0  0  0  0  0  0  0  0  0  0
   15.3823  -18.0442    5.0134 O   0  0  0  0  0  0  0  0  0  0  0  0
   19.1180  -23.2587    7.3234 N   0  0  0  0  0  0  0  0  0  0  0  0
   18.8712  -22.4272    8.4299 C   0  0  0  0  0  0  0  0  0  0  0  0
   19.2020  -22.7876    9.5789 O   0  0  0  0  0  0  0  0  0  0  0  0
   18.2135  -21.1036    8.2634 C   0  0  0  0  0  0  0  0  0  0  0  0
   17.8501  -20.8936    6.8378 C   0  0  0  0  0  0  0  0  0  0  0  0
   17.2080  -19.6031    6.4782 C   0  0  2  0  0  0  0  0  0  0  0  0
   16.9414  -19.7254    5.0207 N   0  0  0  0  0  0  0  0  0  0  0  0
   17.9874  -18.3849    6.6648 C   0  0  0  0  0  0  0  0  0  0  0  0
   18.8505  -18.0824    5.7717 O   0  0  0  0  0  0  0  0  0  0  0  0
   17.8916  -17.4827    7.7386 N   0  0  0  0  0  0  0  0  0  0  0  0
   18.7581  -16.3005    7.8423 C   0  0  1  0  0  0  0  0  0  0  0  0
   17.9295  -15.0563    7.7535 C   0  0  0  0  0  0  0  0  0  0  0  0
   17.8442  -14.5143    6.3755 C   0  0  0  0  0  0  0  0  0  0  0  0
   18.4911  -15.0569    5.2511 C   0  0  0  0  0  0  0  0  0  0  0  0
   18.2055  -14.3298    4.1656 N   0  0  0  0  0  0  0  0  0  0  0  0
   17.3951  -13.3444    4.5820 C   0  0  0  0  0  0  0  0  0  0  0  0
   17.1771  -13.4505    5.8984 N   0  0  0  0  0  0  0  0  0  0  0  0
   19.4686  -16.4012    9.1246 C   0  0  0  0  0  0  0  0  0  0  0  0
   19.3424  -17.3194    9.9746 O   0  0  0  0  0  0  0  0  0  0  0  0
   20.3892  -15.3943    9.4756 O   0  0  0  0  0  0  0  0  0  0  0  0
  1  2  1  0
  3  2  1  0
  3  5  1  0
  3  4  1  6
  5  6  2  0
  7  8  1  0
  8  9  2  0
  8 10  1  0
 10 11  1  0
 12 11  1  6
 12 14  1  0
 13 12  1  0
 13  5  1  0
 14 15  2  0
 16 17  1  0
 16 14  1  0
 17 24  1  0
 18 19  1  0
 17 18  1  1
 19 20  2  0
 20 21  1  0
 22 21  1  0
 23 19  1  0
 23 22  2  0
 24 25  2  0
 24 26  1  0
M  END
$$$$
