SQH.pdb
     RDKit          3D

 26 26  0  0  1  0  0  0  0  0999 V2000
   16.7573  -10.8338  -14.4985 O   0  0  0  0  0  0  0  0  0  0  0  0
   16.6727  -11.5544  -13.3213 C   0  0  0  0  0  0  0  0  0  0  0  0
   15.5034  -11.0348  -12.5132 C   0  0  2  0  0  0  0  0  0  0  0  0
   14.2563  -11.1475  -13.2199 N   0  0  0  0  0  0  0  0  0  0  0  0
   15.7501   -9.6164  -12.1927 C   0  0  0  0  0  0  0  0  0  0  0  0
   15.3568   -8.7011  -12.9410 O   0  0  0  0  0  0  0  0  0  0  0  0
   15.5520   -5.5220   -8.1599 N   0  0  0  0  0  0  0  0  0  0  0  0
   14.6773   -6.6227   -8.1700 C   0  0  0  0  0  0  0  0  0  0  0  0
   13.4989   -6.4985   -7.7760 O   0  0  0  0  0  0  0  0  0  0  0  0
   15.1289   -7.9570   -8.6474 C   0  0  0  0  0  0  0  0  0  0  0  0
   16.5244   -7.8702   -9.1508 C   0  0  0  0  0  0  0  0  0  0  0  0
   16.7229   -7.8838  -10.6229 C   0  0  2  0  0  0  0  0  0  0  0  0
   16.4469   -9.2918  -11.0123 N   0  0  0  0  0  0  0  0  0  0  0  0
   18.0510   -7.5577  -11.1291 C   0  0  0  0  0  0  0  0  0  0  0  0
   18.9460   -8.4698  -11.0964 O   0  0  0  0  0  0  0  0  0  0  0  0
   18.4665   -6.3264  -11.6653 N   0  0  0  0  0  0  0  0  0  0  0  0
   19.6584   -6.2101  -12.5167 C   0  0  1  0  0  0  0  0  0  0  0  0
   19.5401   -7.1418  -13.6832 C   0  0  0  0  0  0  0  0  0  0  0  0
   20.7259   -7.1087  -14.5735 C   0  0  0  0  0  0  0  0  0  0  0  0
   21.8405   -6.2682  -14.4057 C   0  0  0  0  0  0  0  0  0  0  0  0
   22.7298   -6.4901  -15.3797 N   0  0  0  0  0  0  0  0  0  0  0  0
   22.1997   -7.4493  -16.1542 C   0  0  0  0  0  0  0  0  0  0  0  0
   21.0055   -7.8210  -15.6775 N   0  0  0  0  0  0  0  0  0  0  0  0
   19.7485   -4.8053  -12.9382 C   0  0  0  0  0  0  0  0  0  0  0  0
   18.7838   -4.0170  -13.1093 O   0  0  0  0  0  0  0  0  0  0  0  0
   21.0181   -4.2470  -13.1848 O   0  0  0  0  0  0  0  0  0  0  0  0
  1  2  1  0
  3  2  1  0
  3  5  1  0
  3  4  1  6
  5  6  2  0
  7  8  1  0
  8  9  2  0
  8 10  1  0
 10 11  1  0
 12 11  1  1
 12 14  1  0
 13 12  1  0
 13  5  1  0
 14 15  2  0
 16 17  1  0
 16 14  1  0
 17 24  1  0
 18 19  1  0
 17 18  1  6
 19 20  2  0
 20 21  1  0
 22 21  1  0
 23 19  1  0
 23 22  2  0
 24 25  2  0
 24 26  1  0
M  END
$$$$
