SQH.pdb
     RDKit          3D

 26 26  0  0  1  0  0  0  0  0999 V2000
   25.0898   -9.8754  -18.6327 O   0  0  0  0  0  0  0  0  0  0  0  0
   23.8801   -9.2194  -18.7686 C   0  0  0  0  0  0  0  0  0  0  0  0
   22.7808  -10.2481  -18.9220 C   0  0  2  0  0  0  0  0  0  0  0  0
   22.7249  -10.7958  -20.2502 N   0  0  0  0  0  0  0  0  0  0  0  0
   21.4910   -9.6041  -18.6108 C   0  0  0  0  0  0  0  0  0  0  0  0
   21.0058   -8.7259  -19.3498 O   0  0  0  0  0  0  0  0  0  0  0  0
   17.6059  -12.4674  -14.9692 N   0  0  0  0  0  0  0  0  0  0  0  0
   16.9375  -11.2305  -14.9634 C   0  0  0  0  0  0  0  0  0  0  0  0
   15.8480  -11.1024  -14.3666 O   0  0  0  0  0  0  0  0  0  0  0  0
   17.5061  -10.0479  -15.6637 C   0  0  0  0  0  0  0  0  0  0  0  0
   18.7699  -10.4236  -16.3493 C   0  0  0  0  0  0  0  0  0  0  0  0
   19.5183   -9.3448  -17.0443 C   0  0  2  0  0  0  0  0  0  0  0  0
   20.7933   -9.9927  -17.4504 N   0  0  0  0  0  0  0  0  0  0  0  0
   19.8732   -8.1612  -16.2702 C   0  0  0  0  0  0  0  0  0  0  0  0
   20.8690   -8.2425  -15.4727 O   0  0  0  0  0  0  0  0  0  0  0  0
   19.2320   -6.9107  -16.3060 N   0  0  0  0  0  0  0  0  0  0  0  0
   19.6810   -5.7812  -15.4803 C   0  0  1  0  0  0  0  0  0  0  0  0
   20.9997   -5.2799  -15.9826 C   0  0  0  0  0  0  0  0  0  0  0  0
   21.4219   -4.0132  -15.3367 C   0  0  0  0  0  0  0  0  0  0  0  0
   21.9531   -3.9042  -14.0394 C   0  0  0  0  0  0  0  0  0  0  0  0
   22.2288   -2.6245  -13.7655 N   0  0  0  0  0  0  0  0  0  0  0  0
   21.8833   -1.9284  -14.8596 C   0  0  0  0  0  0  0  0  0  0  0  0
   21.4020   -2.7520  -15.7986 N   0  0  0  0  0  0  0  0  0  0  0  0
   18.6339   -4.7529  -15.5551 C   0  0  0  0  0  0  0  0  0  0  0  0
   17.6136   -4.7826  -16.2896 O   0  0  0  0  0  0  0  0  0  0  0  0
   18.7434   -3.6073  -14.7426 O   0  0  0  0  0  0  0  0  0  0  0  0
  1  2  1  0
  3  2  1  0
  3  5  1  0
  3  4  1  6
  5  6  2  0
  7  8  1  0
  8  9  2  0
  8 10  1  0
 10 11  1  0
 12 11  1  1
 12 14  1  0
 13 12  1  0
 13  5  1  0
 14 15  2  0
 16 17  1  0
 16 14  1  0
 17 24  1  0
 18 19  1  0
 17 18  1  6
 19 20  2  0
 20 21  1  0
 22 21  1  0
 23 19  1  0
 23 22  2  0
 24 25  2  0
 24 26  1  0
M  END
$$$$
