CCA.pdb
     RDKit          3D

 18 17  0  0  1  0  0  0  0  0999 V2000
   20.2368  -11.3714  -15.3563 N   0  0  0  0  0  0  0  0  0  0  0  0
   20.0425  -10.2323  -16.2266 C   0  0  1  0  0  0  0  0  0  0  0  0
   18.7118  -10.3188  -16.9520 C   0  0  0  0  0  0  0  0  0  0  0  0
   18.9135  -11.3193  -18.4465 S   0  0  0  0  0  0  0  0  0  0  0  0
   20.0395   -9.0053  -15.4054 C   0  0  0  0  0  0  0  0  0  0  0  0
   19.3031   -8.9717  -14.3922 O   0  0  0  0  0  0  0  0  0  0  0  0
   20.8599   -7.9032  -15.7750 N   0  0  0  0  0  0  0  0  0  0  0  0
   20.8822   -6.7627  -14.9200 C   0  0  1  0  0  0  0  0  0  0  0  0
   22.3157   -6.4911  -14.5207 C   0  0  0  0  0  0  0  0  0  0  0  0
   22.3236   -5.0670  -13.4099 S   0  0  0  0  0  0  0  0  0  0  0  0
   20.3477   -5.5343  -15.5572 C   0  0  0  0  0  0  0  0  0  0  0  0
   20.8847   -5.0309  -16.5751 O   0  0  0  0  0  0  0  0  0  0  0  0
   17.1761   -3.6860  -14.8986 C   0  0  0  0  0  0  0  0  0  0  0  0
   18.5580   -3.7559  -15.5541 C   0  0  2  0  0  0  0  0  0  0  0  0
   19.2100   -4.9280  -14.9970 N   0  0  0  0  0  0  0  0  0  0  0  0
   19.3251   -2.5575  -15.1271 C   0  0  0  0  0  0  0  0  0  0  0  0
   19.2276   -1.3998  -15.8955 O   0  0  0  0  0  0  0  0  0  0  0  0
   20.0463   -2.5495  -14.1156 O   0  0  0  0  0  0  0  0  0  0  0  0
  2  1  1  1
  2  3  1  0
  3  4  1  0
  5  2  1  0
  5  6  2  0
  7  5  1  0
  8  7  1  0
  8  9  1  6
 10  9  1  0
 11  8  1  0
 12 11  2  0
 14 13  1  1
 14 15  1  0
 14 16  1  0
 15 11  1  0
 16 17  1  0
 18 16  2  0
M  END
$$$$
