CCA.pdb
     RDKit          3D

 18 17  0  0  1  0  0  0  0  0999 V2000
   15.5930  -11.3880  -11.6399 N   0  0  0  0  0  0  0  0  0  0  0  0
   16.5876  -10.3433  -11.5298 C   0  0  1  0  0  0  0  0  0  0  0  0
   17.3467  -10.1713  -12.8332 C   0  0  0  0  0  0  0  0  0  0  0  0
   18.4134  -11.6098  -13.0940 S   0  0  0  0  0  0  0  0  0  0  0  0
   15.9043   -9.0706  -11.2243 C   0  0  0  0  0  0  0  0  0  0  0  0
   14.9103   -8.7503  -11.9165 O   0  0  0  0  0  0  0  0  0  0  0  0
   16.3809   -8.2466  -10.1669 N   0  0  0  0  0  0  0  0  0  0  0  0
   15.6387   -7.0746   -9.8387 C   0  0  1  0  0  0  0  0  0  0  0  0
   15.7496   -6.8386   -8.3487 C   0  0  0  0  0  0  0  0  0  0  0  0
   14.6495   -8.0049   -7.5172 S   0  0  0  0  0  0  0  0  0  0  0  0
   16.1233   -5.8541  -10.5290 C   0  0  0  0  0  0  0  0  0  0  0  0
   17.3297   -5.5068  -10.4878 O   0  0  0  0  0  0  0  0  0  0  0  0
   14.2833   -3.5196  -12.8044 C   0  0  0  0  0  0  0  0  0  0  0  0
   15.5619   -3.9412  -12.0754 C   0  0  2  0  0  0  0  0  0  0  0  0
   15.1973   -5.0752  -11.2444 N   0  0  0  0  0  0  0  0  0  0  0  0
   15.9636   -2.8260  -11.1798 C   0  0  0  0  0  0  0  0  0  0  0  0
   15.5016   -2.8321   -9.8657 O   0  0  0  0  0  0  0  0  0  0  0  0
   16.6922   -1.8933  -11.5572 O   0  0  0  0  0  0  0  0  0  0  0  0
  2  1  1  6
  2  3  1  0
  3  4  1  0
  5  2  1  0
  5  6  2  0
  7  5  1  0
  8  7  1  0
  8  9  1  1
 10  9  1  0
 11  8  1  0
 12 11  2  0
 14 13  1  1
 14 15  1  0
 14 16  1  0
 15 11  1  0
 16 17  1  0
 18 16  2  0
M  END
$$$$
