CCA.pdb
     RDKit          3D

 18 17  0  0  1  0  0  0  0  0999 V2000
   19.5772  -12.7975  -16.8171 N   0  0  0  0  0  0  0  0  0  0  0  0
   20.0682  -11.5730  -17.4106 C   0  0  1  0  0  0  0  0  0  0  0  0
   18.9649  -10.8475  -18.1597 C   0  0  0  0  0  0  0  0  0  0  0  0
   18.5013  -11.8143  -19.6177 S   0  0  0  0  0  0  0  0  0  0  0  0
   20.5522  -10.6867  -16.3336 C   0  0  0  0  0  0  0  0  0  0  0  0
   19.8380  -10.5486  -15.3134 O   0  0  0  0  0  0  0  0  0  0  0  0
   21.8001  -10.0179  -16.4734 N   0  0  0  0  0  0  0  0  0  0  0  0
   22.2387   -9.1790  -15.4075 C   0  0  1  0  0  0  0  0  0  0  0  0
   23.6940   -9.4816  -15.1272 C   0  0  0  0  0  0  0  0  0  0  0  0
   23.7658  -10.9604  -14.0929 S   0  0  0  0  0  0  0  0  0  0  0  0
   22.1257   -7.7308  -15.7086 C   0  0  0  0  0  0  0  0  0  0  0  0
   22.5958   -7.2368  -16.7635 O   0  0  0  0  0  0  0  0  0  0  0  0
   19.7725   -5.2371  -14.6139 C   0  0  0  0  0  0  0  0  0  0  0  0
   21.2372   -5.4828  -14.9857 C   0  0  2  0  0  0  0  0  0  0  0  0
   21.4731   -6.9011  -14.7804 N   0  0  0  0  0  0  0  0  0  0  0  0
   22.0831   -4.7326  -14.0219 C   0  0  0  0  0  0  0  0  0  0  0  0
   22.7282   -5.4438  -13.0129 O   0  0  0  0  0  0  0  0  0  0  0  0
   22.2355   -3.5011  -14.0822 O   0  0  0  0  0  0  0  0  0  0  0  0
  2  1  1  1
  2  3  1  0
  3  4  1  0
  5  2  1  0
  5  6  2  0
  7  5  1  0
  8  7  1  0
  8  9  1  6
 10  9  1  0
 11  8  1  0
 12 11  2  0
 14 13  1  1
 14 15  1  0
 14 16  1  0
 15 11  1  0
 16 17  1  0
 18 16  2  0
M  END
$$$$
