CCA.pdb
     RDKit          3D

 18 17  0  0  1  0  0  0  0  0999 V2000
   28.4469  -20.6041  -15.9450 N   0  0  0  0  0  0  0  0  0  0  0  0
   27.8720  -19.7233  -14.9519 C   0  0  1  0  0  0  0  0  0  0  0  0
   27.1586  -18.5535  -15.6055 C   0  0  0  0  0  0  0  0  0  0  0  0
   28.3827  -17.3250  -16.1231 S   0  0  0  0  0  0  0  0  0  0  0  0
   26.8817  -20.4829  -14.1631 C   0  0  0  0  0  0  0  0  0  0  0  0
   26.2333  -21.3876  -14.7385 O   0  0  0  0  0  0  0  0  0  0  0  0
   26.6867  -20.1774  -12.7873 N   0  0  0  0  0  0  0  0  0  0  0  0
   25.6405  -20.8485  -12.0893 C   0  0  1  0  0  0  0  0  0  0  0  0
   25.7965  -20.5718  -10.6104 C   0  0  0  0  0  0  0  0  0  0  0  0
   24.4150  -21.3539   -9.7491 S   0  0  0  0  0  0  0  0  0  0  0  0
   24.2823  -20.4088  -12.4928 C   0  0  0  0  0  0  0  0  0  0  0  0
   23.9374  -19.2018  -12.4453 O   0  0  0  0  0  0  0  0  0  0  0  0
   21.7155  -22.1416  -14.4800 C   0  0  0  0  0  0  0  0  0  0  0  0
   22.0368  -21.0718  -13.4329 C   0  0  2  0  0  0  0  0  0  0  0  0
   23.3673  -21.3786  -12.9378 N   0  0  0  0  0  0  0  0  0  0  0  0
   21.0798  -21.2342  -12.3082 C   0  0  0  0  0  0  0  0  0  0  0  0
   19.8947  -20.5028  -12.3357 O   0  0  0  0  0  0  0  0  0  0  0  0
   21.2961  -21.9940  -11.3494 O   0  0  0  0  0  0  0  0  0  0  0  0
  2  1  1  6
  2  3  1  0
  3  4  1  0
  5  2  1  0
  5  6  2  0
  7  5  1  0
  8  7  1  0
  8  9  1  1
 10  9  1  0
 11  8  1  0
 12 11  2  0
 14 13  1  6
 14 15  1  0
 14 16  1  0
 15 11  1  0
 16 17  1  0
 18 16  2  0
M  END
$$$$
