CCA.pdb
     RDKit          3D

 18 17  0  0  1  0  0  0  0  0999 V2000
   17.9027  -12.2879  -17.2702 N   0  0  0  0  0  0  0  0  0  0  0  0
   18.2734  -10.9288  -17.5987 C   0  0  1  0  0  0  0  0  0  0  0  0
   17.0781  -10.1436  -18.1079 C   0  0  0  0  0  0  0  0  0  0  0  0
   16.8500  -10.4847  -19.8705 S   0  0  0  0  0  0  0  0  0  0  0  0
   18.7718  -10.2665  -16.3768 C   0  0  0  0  0  0  0  0  0  0  0  0
   17.9858  -10.1374  -15.4097 O   0  0  0  0  0  0  0  0  0  0  0  0
   20.1133   -9.7957  -16.3230 N   0  0  0  0  0  0  0  0  0  0  0  0
   20.5366   -9.0983  -15.1540 C   0  0  1  0  0  0  0  0  0  0  0  0
   21.6841   -9.8611  -14.5300 C   0  0  0  0  0  0  0  0  0  0  0  0
   22.2140   -8.9619  -13.0560 S   0  0  0  0  0  0  0  0  0  0  0  0
   21.0040   -7.7167  -15.4252 C   0  0  0  0  0  0  0  0  0  0  0  0
   21.9476   -7.4827  -16.2206 O   0  0  0  0  0  0  0  0  0  0  0  0
   19.5607   -4.4324  -14.4210 C   0  0  0  0  0  0  0  0  0  0  0  0
   20.7508   -5.2585  -14.9164 C   0  0  2  0  0  0  0  0  0  0  0  0
   20.3652   -6.6508  -14.7681 N   0  0  0  0  0  0  0  0  0  0  0  0
   21.8951   -4.9995  -14.0049 C   0  0  0  0  0  0  0  0  0  0  0  0
   22.0389   -5.8038  -12.8768 O   0  0  0  0  0  0  0  0  0  0  0  0
   22.7239   -4.0972  -14.2104 O   0  0  0  0  0  0  0  0  0  0  0  0
  2  1  1  1
  2  3  1  0
  3  4  1  0
  5  2  1  0
  5  6  2  0
  7  5  1  0
  8  7  1  0
  8  9  1  6
 10  9  1  0
 11  8  1  0
 12 11  2  0
 14 13  1  1
 14 15  1  0
 14 16  1  0
 15 11  1  0
 16 17  1  0
 18 16  2  0
M  END
$$$$
