CCA.pdb
     RDKit          3D

 18 17  0  0  1  0  0  0  0  0999 V2000
   21.5720  -14.1467  -16.7712 N   0  0  0  0  0  0  0  0  0  0  0  0
   21.1535  -12.8649  -17.2950 C   0  0  1  0  0  0  0  0  0  0  0  0
   19.7988  -12.9668  -17.9727 C   0  0  0  0  0  0  0  0  0  0  0  0
   19.3013  -11.3274  -18.5560 S   0  0  0  0  0  0  0  0  0  0  0  0
   21.0360  -11.9117  -16.1736 C   0  0  0  0  0  0  0  0  0  0  0  0
   20.1923  -12.1503  -15.2785 O   0  0  0  0  0  0  0  0  0  0  0  0
   21.8698  -10.7597  -16.1326 N   0  0  0  0  0  0  0  0  0  0  0  0
   21.7016   -9.8438  -15.0531 C   0  0  1  0  0  0  0  0  0  0  0  0
   22.5991  -10.2751  -13.9144 C   0  0  0  0  0  0  0  0  0  0  0  0
   24.2930  -10.3459  -14.5370 S   0  0  0  0  0  0  0  0  0  0  0  0
   22.0520   -8.4454  -15.4029 C   0  0  0  0  0  0  0  0  0  0  0  0
   23.0181   -8.1758  -16.1592 O   0  0  0  0  0  0  0  0  0  0  0  0
   20.1051   -5.3415  -15.1252 C   0  0  0  0  0  0  0  0  0  0  0  0
   21.4877   -5.9982  -15.1611 C   0  0  2  0  0  0  0  0  0  0  0  0
   21.2743   -7.4044  -14.8670 N   0  0  0  0  0  0  0  0  0  0  0  0
   22.2964   -5.4163  -14.0590 C   0  0  0  0  0  0  0  0  0  0  0  0
   22.9893   -4.2321  -14.2993 O   0  0  0  0  0  0  0  0  0  0  0  0
   22.3771   -5.9438  -12.9372 O   0  0  0  0  0  0  0  0  0  0  0  0
  2  1  1  1
  2  3  1  0
  3  4  1  0
  5  2  1  0
  5  6  2  0
  7  5  1  0
  8  7  1  0
  8  9  1  1
 10  9  1  0
 11  8  1  0
 12 11  2  0
 14 13  1  1
 14 15  1  0
 14 16  1  0
 15 11  1  0
 16 17  1  0
 18 16  2  0
M  END
$$$$
