CCA.pdb
     RDKit          3D

 18 17  0  0  1  0  0  0  0  0999 V2000
   23.0773  -12.9405  -16.9954 N   0  0  0  0  0  0  0  0  0  0  0  0
   23.6817  -11.8417  -16.2741 C   0  0  1  0  0  0  0  0  0  0  0  0
   25.0897  -11.5691  -16.7720 C   0  0  0  0  0  0  0  0  0  0  0  0
   26.2244  -11.5456  -15.3623 S   0  0  0  0  0  0  0  0  0  0  0  0
   22.8719  -10.6275  -16.4976 C   0  0  0  0  0  0  0  0  0  0  0  0
   22.7030  -10.2360  -17.6757 O   0  0  0  0  0  0  0  0  0  0  0  0
   22.3086   -9.9374  -15.3882 N   0  0  0  0  0  0  0  0  0  0  0  0
   21.5662   -8.7470  -15.6411 C   0  0  1  0  0  0  0  0  0  0  0  0
   20.1488   -8.9537  -15.1551 C   0  0  0  0  0  0  0  0  0  0  0  0
   19.3867  -10.2253  -16.1866 S   0  0  0  0  0  0  0  0  0  0  0  0
   22.1122   -7.5512  -14.9535 C   0  0  0  0  0  0  0  0  0  0  0  0
   22.5484   -7.6074  -13.7769 O   0  0  0  0  0  0  0  0  0  0  0  0
   22.6515   -4.0807  -16.2531 C   0  0  0  0  0  0  0  0  0  0  0  0
   22.7042   -5.1040  -15.1154 C   0  0  2  0  0  0  0  0  0  0  0  0
   22.1360   -6.3296  -15.6486 N   0  0  0  0  0  0  0  0  0  0  0  0
   21.8151   -4.6209  -14.0277 C   0  0  0  0  0  0  0  0  0  0  0  0
   22.3424   -3.7475  -13.0794 O   0  0  0  0  0  0  0  0  0  0  0  0
   20.6252   -4.9652  -13.9330 O   0  0  0  0  0  0  0  0  0  0  0  0
  2  1  1  6
  2  3  1  0
  3  4  1  0
  5  2  1  0
  5  6  2  0
  7  5  1  0
  8  7  1  0
  8  9  1  1
 10  9  1  0
 11  8  1  0
 12 11  2  0
 14 13  1  6
 14 15  1  0
 14 16  1  0
 15 11  1  0
 16 17  1  0
 18 16  2  0
M  END
$$$$
