CCA.pdb
     RDKit          3D

 18 17  0  0  1  0  0  0  0  0999 V2000
   22.9611   -9.7053  -19.0953 N   0  0  0  0  0  0  0  0  0  0  0  0
   21.5406   -9.4439  -19.1747 C   0  0  1  0  0  0  0  0  0  0  0  0
   20.7678  -10.7119  -19.4906 C   0  0  0  0  0  0  0  0  0  0  0  0
   21.4152  -11.4377  -21.0169 S   0  0  0  0  0  0  0  0  0  0  0  0
   21.0792   -8.9383  -17.8665 C   0  0  0  0  0  0  0  0  0  0  0  0
   19.8577   -8.7015  -17.7196 O   0  0  0  0  0  0  0  0  0  0  0  0
   22.0162   -8.7334  -16.8156 N   0  0  0  0  0  0  0  0  0  0  0  0
   21.5444   -8.1771  -15.5908 C   0  0  1  0  0  0  0  0  0  0  0  0
   22.0979   -8.9977  -14.4470 C   0  0  0  0  0  0  0  0  0  0  0  0
   21.4531   -8.3108  -12.9061 S   0  0  0  0  0  0  0  0  0  0  0  0
   21.9597   -6.7683  -15.3815 C   0  0  0  0  0  0  0  0  0  0  0  0
   23.1701   -6.4340  -15.3511 O   0  0  0  0  0  0  0  0  0  0  0  0
   19.8846   -3.6644  -15.1991 C   0  0  0  0  0  0  0  0  0  0  0  0
   21.2332   -4.3745  -15.0538 C   0  0  2  0  0  0  0  0  0  0  0  0
   20.9621   -5.7923  -15.2141 N   0  0  0  0  0  0  0  0  0  0  0  0
   21.7164   -4.1535  -13.6664 C   0  0  0  0  0  0  0  0  0  0  0  0
   22.4728   -3.0143  -13.4016 O   0  0  0  0  0  0  0  0  0  0  0  0
   21.4721   -4.9428  -12.7386 O   0  0  0  0  0  0  0  0  0  0  0  0
  2  1  1  1
  2  3  1  0
  3  4  1  0
  5  2  1  0
  5  6  2  0
  7  5  1  0
  8  7  1  0
  8  9  1  1
 10  9  1  0
 11  8  1  0
 12 11  2  0
 14 13  1  1
 14 15  1  0
 14 16  1  0
 15 11  1  0
 16 17  1  0
 18 16  2  0
M  END
$$$$
