CCA.pdb
     RDKit          3D

 18 17  0  0  1  0  0  0  0  0999 V2000
   21.4769  -11.7398  -17.0974 N   0  0  0  0  0  0  0  0  0  0  0  0
   21.9678  -11.2301  -15.8356 C   0  0  1  0  0  0  0  0  0  0  0  0
   23.4548  -10.9330  -15.9070 C   0  0  0  0  0  0  0  0  0  0  0  0
   23.7563   -9.7196  -17.2155 S   0  0  0  0  0  0  0  0  0  0  0  0
   21.2616   -9.9706  -15.5278 C   0  0  0  0  0  0  0  0  0  0  0  0
   20.8665   -9.2634  -16.4837 O   0  0  0  0  0  0  0  0  0  0  0  0
   21.0472   -9.5913  -14.1734 N   0  0  0  0  0  0  0  0  0  0  0  0
   20.3429   -8.3788  -13.9163 C   0  0  1  0  0  0  0  0  0  0  0  0
   19.6192   -8.5158  -12.5951 C   0  0  0  0  0  0  0  0  0  0  0  0
   18.5351   -7.0841  -12.4033 S   0  0  0  0  0  0  0  0  0  0  0  0
   21.2244   -7.1887  -13.8300 C   0  0  0  0  0  0  0  0  0  0  0  0
   22.2695   -7.1899  -13.1331 O   0  0  0  0  0  0  0  0  0  0  0  0
   21.6551   -4.4562  -16.1563 C   0  0  0  0  0  0  0  0  0  0  0  0
   21.7196   -4.8664  -14.6827 C   0  0  2  0  0  0  0  0  0  0  0  0
   20.8689   -6.0362  -14.5519 N   0  0  0  0  0  0  0  0  0  0  0  0
   21.1197   -3.7704  -13.8789 C   0  0  0  0  0  0  0  0  0  0  0  0
   21.9578   -2.7694  -13.3933 O   0  0  0  0  0  0  0  0  0  0  0  0
   19.9049   -3.7138  -13.6251 O   0  0  0  0  0  0  0  0  0  0  0  0
  2  1  1  6
  2  3  1  0
  3  4  1  0
  5  2  1  0
  5  6  2  0
  7  5  1  0
  8  7  1  0
  8  9  1  1
 10  9  1  0
 11  8  1  0
 12 11  2  0
 14 13  1  6
 14 15  1  0
 14 16  1  0
 15 11  1  0
 16 17  1  0
 18 16  2  0
M  END
$$$$
