CCA.pdb
     RDKit          3D

 18 17  0  0  1  0  0  0  0  0999 V2000
   19.1042  -13.6861  -15.9177 N   0  0  0  0  0  0  0  0  0  0  0  0
   18.6123  -12.4758  -16.5391 C   0  0  1  0  0  0  0  0  0  0  0  0
   17.1224  -12.5694  -16.8154 C   0  0  0  0  0  0  0  0  0  0  0  0
   16.8666  -13.2787  -18.4606 S   0  0  0  0  0  0  0  0  0  0  0  0
   18.8386  -11.3454  -15.6167 C   0  0  0  0  0  0  0  0  0  0  0  0
   18.5535  -11.5013  -14.4066 O   0  0  0  0  0  0  0  0  0  0  0  0
   19.3675  -10.1213  -16.1125 N   0  0  0  0  0  0  0  0  0  0  0  0
   19.5817   -9.0564  -15.1893 C   0  0  1  0  0  0  0  0  0  0  0  0
   21.0631   -8.9663  -14.8969 C   0  0  0  0  0  0  0  0  0  0  0  0
   21.3174   -7.6193  -13.7210 S   0  0  0  0  0  0  0  0  0  0  0  0
   19.1377   -7.7347  -15.6962 C   0  0  0  0  0  0  0  0  0  0  0  0
   19.6759   -7.1954  -16.6949 O   0  0  0  0  0  0  0  0  0  0  0  0
   16.1485   -5.7116  -14.7822 C   0  0  0  0  0  0  0  0  0  0  0  0
   17.5145   -5.8170  -15.4655 C   0  0  2  0  0  0  0  0  0  0  0  0
   18.0861   -7.0799  -15.0320 N   0  0  0  0  0  0  0  0  0  0  0  0
   18.3708   -4.7218  -14.9417 C   0  0  0  0  0  0  0  0  0  0  0  0
   19.2941   -5.0223  -13.9430 O   0  0  0  0  0  0  0  0  0  0  0  0
   18.2943   -3.5542  -15.3590 O   0  0  0  0  0  0  0  0  0  0  0  0
  2  1  1  1
  2  3  1  0
  3  4  1  0
  5  2  1  0
  5  6  2  0
  7  5  1  0
  8  7  1  0
  8  9  1  6
 10  9  1  0
 11  8  1  0
 12 11  2  0
 14 13  1  1
 14 15  1  0
 14 16  1  0
 15 11  1  0
 16 17  1  0
 18 16  2  0
M  END
$$$$
