CCA.pdb
     RDKit          3D

 18 17  0  0  1  0  0  0  0  0999 V2000
   20.6659   -9.9337  -16.4091 N   0  0  0  0  0  0  0  0  0  0  0  0
   21.0215   -8.6800  -17.0372 C   0  0  1  0  0  0  0  0  0  0  0  0
   20.1562   -8.4140  -18.2560 C   0  0  0  0  0  0  0  0  0  0  0  0
   20.5665   -9.6120  -19.5490 S   0  0  0  0  0  0  0  0  0  0  0  0
   20.8006   -7.5871  -16.0694 C   0  0  0  0  0  0  0  0  0  0  0  0
   19.8495   -7.6943  -15.2608 O   0  0  0  0  0  0  0  0  0  0  0  0
   21.6587   -6.4523  -16.0741 N   0  0  0  0  0  0  0  0  0  0  0  0
   21.3869   -5.3977  -15.1542 C   0  0  1  0  0  0  0  0  0  0  0  0
   22.5600   -5.2733  -14.2074 C   0  0  0  0  0  0  0  0  0  0  0  0
   22.2063   -3.9268  -13.0570 S   0  0  0  0  0  0  0  0  0  0  0  0
   21.1876   -4.0800  -15.8059 C   0  0  0  0  0  0  0  0  0  0  0  0
   22.1020   -3.5228  -16.4626 O   0  0  0  0  0  0  0  0  0  0  0  0
   18.1097   -1.9725  -16.0831 C   0  0  0  0  0  0  0  0  0  0  0  0
   19.6212   -2.1521  -16.2478 C   0  0  2  0  0  0  0  0  0  0  0  0
   19.9379   -3.4495  -15.6770 N   0  0  0  0  0  0  0  0  0  0  0  0
   20.2948   -1.1128  -15.4271 C   0  0  0  0  0  0  0  0  0  0  0  0
   20.8082   -1.4789  -14.1852 O   0  0  0  0  0  0  0  0  0  0  0  0
   20.4164    0.0642  -15.8054 O   0  0  0  0  0  0  0  0  0  0  0  0
  2  1  1  1
  2  3  1  0
  3  4  1  0
  5  2  1  0
  5  6  2  0
  7  5  1  0
  8  7  1  0
  8  9  1  1
 10  9  1  0
 11  8  1  0
 12 11  2  0
 14 13  1  1
 14 15  1  0
 14 16  1  0
 15 11  1  0
 16 17  1  0
 18 16  2  0
M  END
$$$$
