RPS.pdb
     RDKit          3D

 25 25  0  0  1  0  0  0  0  0999 V2000
    8.2806  -20.6053   15.1784 N   0  0  0  0  0  0  0  0  0  0  0  0
    7.9218  -19.8684   14.0272 C   0  0  0  0  0  0  0  0  0  0  0  0
    7.4085  -20.5256   13.0348 N   0  0  0  0  0  0  0  0  0  0  0  0
    8.1225  -18.4631   13.9736 N   0  0  0  0  0  0  0  0  0  0  0  0
    8.7531  -17.7652   15.0422 C   0  0  0  0  0  0  0  0  0  0  0  0
    7.8729  -17.6173   16.2603 C   0  0  0  0  0  0  0  0  0  0  0  0
    7.5891  -16.2037   16.6166 C   0  0  0  0  0  0  0  0  0  0  0  0
    8.7950  -15.2891   16.6234 C   0  0  2  0  0  0  0  0  0  0  0  0
    9.8016  -15.8525   15.7666 N   0  0  0  0  0  0  0  0  0  0  0  0
    9.3476  -15.0535   17.9585 C   0  0  0  0  0  0  0  0  0  0  0  0
   10.4158  -15.6405   18.2964 O   0  0  0  0  0  0  0  0  0  0  0  0
    7.1046  -20.0819   12.1465 N   0  0  0  0  0  0  0  0  0  0  0  0
    8.7315  -14.1849   18.9070 C   0  0  0  0  0  0  0  0  0  0  0  0
    7.4869  -13.5326   18.7580 C   0  0  0  0  0  0  0  0  0  0  0  0
    7.2921  -12.6482   19.9526 C   0  0  0  0  0  0  0  0  0  0  0  0
    8.6402  -12.5809   20.5790 C   0  0  1  0  0  0  0  0  0  0  0  0
    9.3250  -13.8617   20.1773 C   0  0  0  0  0  0  0  0  0  0  0  0
    9.1186  -14.9300   21.1870 O   0  0  0  0  0  0  0  0  0  0  0  0
    7.9864  -15.4651   21.2534 O   0  0  0  0  0  0  0  0  0  0  0  0
   11.9520  -17.4013   22.1239 C   0  0  0  0  0  0  0  0  0  0  0  0
   10.6521  -17.7181   22.5124 C   0  0  1  0  0  0  0  0  0  0  0  0
   10.0029  -16.4437   23.0161 N   0  0  0  0  0  0  0  0  0  0  0  0
   10.1403  -15.3610   22.0659 C   0  0  0  0  0  0  0  0  0  0  0  0
   10.6899  -16.0595   24.2749 O   0  0  0  0  0  0  0  0  0  0  0  0
   10.7685  -16.8159   25.2775 O   0  0  0  0  0  0  0  0  0  0  0  0
  1  2  1  0
  2  3  2  0
  4  5  1  0
  4  2  1  0
  6  7  1  0
  6  5  1  0
  7  8  1  0
  8  9  1  6
 10 12  1  0
 10  8  1  0
 11 10  2  0
 12 16  1  0
 13 12  1  0
 13 14  1  0
 14 15  1  0
 16 15  1  0
 16 17  1  1
 17 18  2  0
 19 20  1  0
 21 20  1  6
 22 21  1  0
 22 17  1  0
 23 25  1  0
 23 21  1  0
 24 23  2  0
M  END
$$$$
