RPS.pdb
     RDKit          3D

 25 25  0  0  1  0  0  0  0  0999 V2000
    7.6408  -19.6596   15.5537 N   0  0  0  0  0  0  0  0  0  0  0  0
    7.5072  -20.2599   16.8260 C   0  0  0  0  0  0  0  0  0  0  0  0
    6.5910  -21.1663   16.9642 N   0  0  0  0  0  0  0  0  0  0  0  0
    8.3502  -19.8742   17.9024 N   0  0  0  0  0  0  0  0  0  0  0  0
    8.4517  -18.5143   18.3112 C   0  0  0  0  0  0  0  0  0  0  0  0
    7.6668  -17.5674   17.4350 C   0  0  0  0  0  0  0  0  0  0  0  0
    8.4650  -16.9926   16.3222 C   0  0  0  0  0  0  0  0  0  0  0  0
    8.6885  -15.4976   16.3983 C   0  0  2  0  0  0  0  0  0  0  0  0
    9.3935  -15.0796   15.2179 N   0  0  0  0  0  0  0  0  0  0  0  0
    9.4168  -15.0714   17.5946 C   0  0  0  0  0  0  0  0  0  0  0  0
   10.6451  -15.3532   17.7021 O   0  0  0  0  0  0  0  0  0  0  0  0
    6.4499  -21.7140   17.8350 N   0  0  0  0  0  0  0  0  0  0  0  0
    8.8003  -14.3466   18.6568 C   0  0  0  0  0  0  0  0  0  0  0  0
    7.5106  -13.7695   18.6365 C   0  0  0  0  0  0  0  0  0  0  0  0
    7.3265  -13.0247   19.9244 C   0  0  0  0  0  0  0  0  0  0  0  0
    8.7001  -12.9282   20.4885 C   0  0  2  0  0  0  0  0  0  0  0  0
    9.4414  -14.1124   19.9235 C   0  0  0  0  0  0  0  0  0  0  0  0
    9.3589  -15.2881   20.8258 O   0  0  0  0  0  0  0  0  0  0  0  0
    8.4223  -15.3250   21.6590 O   0  0  0  0  0  0  0  0  0  0  0  0
   13.5297  -15.9492   22.1011 C   0  0  0  0  0  0  0  0  0  0  0  0
   12.2470  -15.4330   21.9310 C   0  0  2  0  0  0  0  0  0  0  0  0
   11.2984  -16.6069   21.7838 N   0  0  0  0  0  0  0  0  0  0  0  0
   10.2869  -16.3553   20.7802 C   0  0  0  0  0  0  0  0  0  0  0  0
   10.6275  -16.8062   23.0932 O   0  0  0  0  0  0  0  0  0  0  0  0
   11.2227  -17.2336   24.1162 O   0  0  0  0  0  0  0  0  0  0  0  0
  1  2  1  0
  2  3  2  0
  4  5  1  0
  4  2  1  0
  6  7  1  0
  6  5  1  0
  7  8  1  0
  8  9  1  6
 10 12  1  0
 10  8  1  0
 11 10  2  0
 12 16  1  0
 13 12  1  0
 13 14  1  0
 14 15  1  0
 16 15  1  0
 16 17  1  1
 17 18  2  0
 19 20  1  0
 21 20  1  6
 22 21  1  0
 22 17  1  0
 23 25  1  0
 23 21  1  0
 24 23  2  0
M  END
$$$$
