RPS.pdb
     RDKit          3D

 25 25  0  0  1  0  0  0  0  0999 V2000
    7.2752  -12.8503   17.1949 N   0  0  0  0  0  0  0  0  0  0  0  0
    7.5473  -14.0938   16.5811 C   0  0  0  0  0  0  0  0  0  0  0  0
    7.8469  -14.0832   15.3201 N   0  0  0  0  0  0  0  0  0  0  0  0
    7.4898  -15.3002   17.3292 N   0  0  0  0  0  0  0  0  0  0  0  0
    7.2834  -15.2873   18.7377 C   0  0  0  0  0  0  0  0  0  0  0  0
    8.3001  -14.4557   19.4825 C   0  0  0  0  0  0  0  0  0  0  0  0
    8.1038  -14.4606   20.9547 C   0  0  0  0  0  0  0  0  0  0  0  0
    9.1821  -13.7546   21.7483 C   0  0  2  0  0  0  0  0  0  0  0  0
   10.4328  -13.9071   21.0574 N   0  0  0  0  0  0  0  0  0  0  0  0
    9.3084  -14.2340   23.1258 C   0  0  0  0  0  0  0  0  0  0  0  0
   10.3203  -14.9202   23.4497 O   0  0  0  0  0  0  0  0  0  0  0  0
    8.0368  -14.9409   14.7664 N   0  0  0  0  0  0  0  0  0  0  0  0
    8.3337  -13.9620   24.1306 C   0  0  0  0  0  0  0  0  0  0  0  0
    7.0800  -13.3409   23.9325 C   0  0  0  0  0  0  0  0  0  0  0  0
    6.4401  -13.1713   25.2776 C   0  0  0  0  0  0  0  0  0  0  0  0
    7.5504  -13.4042   26.2406 C   0  0  1  0  0  0  0  0  0  0  0  0
    8.5171  -14.3048   25.5159 C   0  0  0  0  0  0  0  0  0  0  0  0
    8.2358  -15.7368   25.7869 O   0  0  0  0  0  0  0  0  0  0  0  0
    7.1539  -16.2128   25.3678 O   0  0  0  0  0  0  0  0  0  0  0  0
   11.1357  -18.3086   26.0060 C   0  0  0  0  0  0  0  0  0  0  0  0
    9.8530  -18.8384   25.8838 C   0  0  1  0  0  0  0  0  0  0  0  0
    8.9249  -17.9862   26.7274 N   0  0  0  0  0  0  0  0  0  0  0  0
    9.1330  -16.5737   26.4919 C   0  0  0  0  0  0  0  0  0  0  0  0
    9.2223  -18.2778   28.1525 O   0  0  0  0  0  0  0  0  0  0  0  0
    9.6535  -17.4135   28.9589 O   0  0  0  0  0  0  0  0  0  0  0  0
  1  2  1  0
  2  3  2  0
  4  5  1  0
  4  2  1  0
  6  7  1  0
  6  5  1  0
  7  8  1  0
  8  9  1  6
 10 12  1  0
 10  8  1  0
 11 10  2  0
 12 16  1  0
 13 12  1  0
 13 14  1  0
 14 15  1  0
 16 15  1  0
 16 17  1  1
 17 18  2  0
 19 20  1  0
 21 20  1  6
 22 21  1  0
 22 17  1  0
 23 25  1  0
 23 21  1  0
 24 23  2  0
M  END
$$$$
