RPS.pdb
     RDKit          3D

 25 25  0  0  1  0  0  0  0  0999 V2000
    8.2923  -12.1483   18.7544 N   0  0  0  0  0  0  0  0  0  0  0  0
    7.8524  -13.0758   17.7832 C   0  0  0  0  0  0  0  0  0  0  0  0
    8.2823  -12.9181   16.5705 N   0  0  0  0  0  0  0  0  0  0  0  0
    6.9725  -14.1338   18.1363 N   0  0  0  0  0  0  0  0  0  0  0  0
    6.6899  -14.4367   19.4983 C   0  0  0  0  0  0  0  0  0  0  0  0
    7.9218  -14.7790   20.3017 C   0  0  0  0  0  0  0  0  0  0  0  0
    8.0376  -16.2252   20.6192 C   0  0  0  0  0  0  0  0  0  0  0  0
    9.0835  -16.9753   19.8227 C   0  0  2  0  0  0  0  0  0  0  0  0
    8.5210  -18.2253   19.3915 N   0  0  0  0  0  0  0  0  0  0  0  0
   10.3263  -17.2122   20.5592 C   0  0  0  0  0  0  0  0  0  0  0  0
   10.4422  -18.2645   21.2513 O   0  0  0  0  0  0  0  0  0  0  0  0
    7.9516  -13.4832   15.7646 N   0  0  0  0  0  0  0  0  0  0  0  0
   11.4243  -16.3026   20.5341 C   0  0  0  0  0  0  0  0  0  0  0  0
   11.4816  -15.0809   19.8262 C   0  0  0  0  0  0  0  0  0  0  0  0
   12.8575  -14.5145   20.0093 C   0  0  0  0  0  0  0  0  0  0  0  0
   13.6498  -15.6514   20.5514 C   0  0  1  0  0  0  0  0  0  0  0  0
   12.6476  -16.5280   21.2573 C   0  0  0  0  0  0  0  0  0  0  0  0
   12.5297  -16.1733   22.6939 O   0  0  0  0  0  0  0  0  0  0  0  0
   11.8300  -15.1780   22.9980 O   0  0  0  0  0  0  0  0  0  0  0  0
   10.8409  -18.2287   26.1830 C   0  0  0  0  0  0  0  0  0  0  0  0
   11.2623  -17.9066   24.8948 C   0  0  1  0  0  0  0  0  0  0  0  0
   12.5901  -17.1843   25.0161 N   0  0  0  0  0  0  0  0  0  0  0  0
   13.1700  -16.9085   23.7194 C   0  0  0  0  0  0  0  0  0  0  0  0
   13.5134  -18.0700   25.7695 O   0  0  0  0  0  0  0  0  0  0  0  0
   13.3577  -18.3563   26.9848 O   0  0  0  0  0  0  0  0  0  0  0  0
  1  2  1  0
  2  3  2  0
  4  5  1  0
  4  2  1  0
  6  7  1  0
  6  5  1  0
  7  8  1  0
  8  9  1  1
 10 12  1  0
 10  8  1  0
 11 10  2  0
 12 16  1  0
 13 12  1  0
 13 14  1  0
 14 15  1  0
 16 15  1  0
 16 17  1  1
 17 18  2  0
 19 20  1  0
 21 20  1  6
 22 21  1  0
 22 17  1  0
 23 25  1  0
 23 21  1  0
 24 23  2  0
M  END
$$$$
