RPS.pdb
     RDKit          3D

 25 25  0  0  1  0  0  0  0  0999 V2000
    6.4492  -21.0813   17.5143 N   0  0  0  0  0  0  0  0  0  0  0  0
    7.4590  -21.2039   18.4953 C   0  0  0  0  0  0  0  0  0  0  0  0
    8.0119  -22.3674   18.6395 N   0  0  0  0  0  0  0  0  0  0  0  0
    7.8420  -20.0874   19.2859 N   0  0  0  0  0  0  0  0  0  0  0  0
    7.2849  -18.7968   19.0612 C   0  0  0  0  0  0  0  0  0  0  0  0
    7.6165  -18.2319   17.7006 C   0  0  0  0  0  0  0  0  0  0  0  0
    7.1523  -16.8338   17.5117 C   0  0  0  0  0  0  0  0  0  0  0  0
    8.2276  -15.8502   17.1032 C   0  0  2  0  0  0  0  0  0  0  0  0
    9.0801  -16.4807   16.1333 N   0  0  0  0  0  0  0  0  0  0  0  0
    9.0264  -15.3520   18.2243 C   0  0  0  0  0  0  0  0  0  0  0  0
   10.2026  -15.7882   18.3856 O   0  0  0  0  0  0  0  0  0  0  0  0
    8.8398  -22.5405   19.2418 N   0  0  0  0  0  0  0  0  0  0  0  0
    8.5358  -14.3885   19.1542 C   0  0  0  0  0  0  0  0  0  0  0  0
    7.3015  -13.7049   19.0764 C   0  0  0  0  0  0  0  0  0  0  0  0
    7.2554  -12.7214   20.2069 C   0  0  0  0  0  0  0  0  0  0  0  0
    8.6620  -12.6539   20.6878 C   0  0  2  0  0  0  0  0  0  0  0  0
    9.2653  -13.9870   20.3275 C   0  0  0  0  0  0  0  0  0  0  0  0
    9.1332  -14.9629   21.4381 O   0  0  0  0  0  0  0  0  0  0  0  0
    7.9823  -15.3623   21.7357 O   0  0  0  0  0  0  0  0  0  0  0  0
   11.7688  -17.6833   22.0825 C   0  0  0  0  0  0  0  0  0  0  0  0
   10.5673  -17.8059   22.7769 C   0  0  1  0  0  0  0  0  0  0  0  0
   10.1628  -16.4191   23.2376 N   0  0  0  0  0  0  0  0  0  0  0  0
   10.2449  -15.4529   22.1636 C   0  0  0  0  0  0  0  0  0  0  0  0
   11.1029  -16.0134   24.3128 O   0  0  0  0  0  0  0  0  0  0  0  0
   11.9109  -15.0556   24.1986 O   0  0  0  0  0  0  0  0  0  0  0  0
  1  2  1  0
  2  3  2  0
  4  5  1  0
  4  2  1  0
  6  7  1  0
  6  5  1  0
  7  8  1  0
  8  9  1  6
 10 12  1  0
 10  8  1  0
 11 10  2  0
 12 16  1  0
 13 12  1  0
 13 14  1  0
 14 15  1  0
 16 15  1  0
 16 17  1  1
 17 18  2  0
 19 20  1  0
 21 20  1  6
 22 21  1  0
 22 17  1  0
 23 25  1  0
 23 21  1  0
 24 23  2  0
M  END
$$$$
