RPS.pdb
     RDKit          3D

 25 25  0  0  1  0  0  0  0  0999 V2000
    0.7315  -21.4618   21.4204 N   0  0  0  0  0  0  0  0  0  0  0  0
    1.1299  -20.1294   21.6713 C   0  0  0  0  0  0  0  0  0  0  0  0
    0.8631  -19.6377   22.8406 N   0  0  0  0  0  0  0  0  0  0  0  0
    1.7949  -19.3703   20.6714 N   0  0  0  0  0  0  0  0  0  0  0  0
    2.9554  -18.6037   20.9751 C   0  0  0  0  0  0  0  0  0  0  0  0
    4.1775  -19.4501   21.2405 C   0  0  0  0  0  0  0  0  0  0  0  0
    5.3981  -18.6533   21.5250 C   0  0  0  0  0  0  0  0  0  0  0  0
    6.0640  -18.0435   20.3102 C   0  0  2  0  0  0  0  0  0  0  0  0
    6.2270  -19.0674   19.3153 N   0  0  0  0  0  0  0  0  0  0  0  0
    7.3544  -17.4154   20.5994 C   0  0  0  0  0  0  0  0  0  0  0  0
    8.4182  -18.0664   20.3893 O   0  0  0  0  0  0  0  0  0  0  0  0
    1.1530  -18.6884   23.1455 N   0  0  0  0  0  0  0  0  0  0  0  0
    7.4703  -16.0902   21.1133 C   0  0  0  0  0  0  0  0  0  0  0  0
    6.4036  -15.2101   21.4038 C   0  0  0  0  0  0  0  0  0  0  0  0
    6.9982  -13.8991   21.8225 C   0  0  0  0  0  0  0  0  0  0  0  0
    8.4237  -13.9970   21.4069 C   0  0  1  0  0  0  0  0  0  0  0  0
    8.7346  -15.4715   21.4119 C   0  0  0  0  0  0  0  0  0  0  0  0
    9.2839  -15.9083   22.7199 O   0  0  0  0  0  0  0  0  0  0  0  0
    8.5130  -15.9129   23.7090 O   0  0  0  0  0  0  0  0  0  0  0  0
   12.3654  -18.3231   22.7747 C   0  0  0  0  0  0  0  0  0  0  0  0
   11.6885  -18.2339   23.9890 C   0  0  1  0  0  0  0  0  0  0  0  0
   11.1871  -16.8096   24.1285 N   0  0  0  0  0  0  0  0  0  0  0  0
   10.6287  -16.3147   22.8887 C   0  0  0  0  0  0  0  0  0  0  0  0
   12.3484  -15.9611   24.4972 O   0  0  0  0  0  0  0  0  0  0  0  0
   12.7866  -15.0349   23.7669 O   0  0  0  0  0  0  0  0  0  0  0  0
  1  2  1  0
  2  3  2  0
  4  5  1  0
  4  2  1  0
  6  7  1  0
  6  5  1  0
  7  8  1  0
  8  9  1  6
 10 12  1  0
 10  8  1  0
 11 10  2  0
 12 16  1  0
 13 12  1  0
 13 14  1  0
 14 15  1  0
 16 15  1  0
 16 17  1  1
 17 18  2  0
 19 20  1  0
 21 20  1  1
 22 21  1  0
 22 17  1  0
 23 25  1  0
 23 21  1  0
 24 23  2  0
M  END
$$$$
