RPS.pdb
     RDKit          3D

 25 25  0  0  1  0  0  0  0  0999 V2000
    8.2541  -15.4729   17.3912 N   0  0  0  0  0  0  0  0  0  0  0  0
    8.0883  -14.1773   16.8519 C   0  0  0  0  0  0  0  0  0  0  0  0
    8.5522  -13.9636   15.6606 N   0  0  0  0  0  0  0  0  0  0  0  0
    7.4375  -13.1586   17.5982 N   0  0  0  0  0  0  0  0  0  0  0  0
    7.4070  -13.1898   19.0212 C   0  0  0  0  0  0  0  0  0  0  0  0
    7.4600  -14.5880   19.5889 C   0  0  0  0  0  0  0  0  0  0  0  0
    7.4384  -14.6245   21.0735 C   0  0  0  0  0  0  0  0  0  0  0  0
    8.7413  -14.2450   21.7438 C   0  0  2  0  0  0  0  0  0  0  0  0
    9.8244  -14.8331   21.0050 N   0  0  0  0  0  0  0  0  0  0  0  0
    8.8181  -14.6449   23.1500 C   0  0  0  0  0  0  0  0  0  0  0  0
    9.6388  -15.5447   23.4915 O   0  0  0  0  0  0  0  0  0  0  0  0
    8.5364  -13.0357   15.1947 N   0  0  0  0  0  0  0  0  0  0  0  0
    8.0022  -14.0624   24.1642 C   0  0  0  0  0  0  0  0  0  0  0  0
    6.9653  -13.1230   23.9658 C   0  0  0  0  0  0  0  0  0  0  0  0
    6.4562  -12.7171   25.3161 C   0  0  0  0  0  0  0  0  0  0  0  0
    7.4966  -13.2083   26.2599 C   0  0  1  0  0  0  0  0  0  0  0  0
    8.1408  -14.3778   25.5612 C   0  0  0  0  0  0  0  0  0  0  0  0
    7.4815  -15.6581   25.9208 O   0  0  0  0  0  0  0  0  0  0  0  0
    6.5388  -16.0575   25.1965 O   0  0  0  0  0  0  0  0  0  0  0  0
   10.2665  -18.9646   25.9822 C   0  0  0  0  0  0  0  0  0  0  0  0
    9.6395  -17.7220   25.9232 C   0  0  1  0  0  0  0  0  0  0  0  0
    8.5254  -17.7236   26.9518 N   0  0  0  0  0  0  0  0  0  0  0  0
    7.8734  -16.4346   27.0369 C   0  0  0  0  0  0  0  0  0  0  0  0
    9.1343  -18.0346   28.2697 O   0  0  0  0  0  0  0  0  0  0  0  0
    9.0558  -19.1648   28.8173 O   0  0  0  0  0  0  0  0  0  0  0  0
  1  2  1  0
  2  3  2  0
  4  5  1  0
  4  2  1  0
  6  7  1  0
  6  5  1  0
  7  8  1  0
  8  9  1  6
 10 12  1  0
 10  8  1  0
 11 10  2  0
 12 16  1  0
 13 12  1  0
 13 14  1  0
 14 15  1  0
 16 15  1  0
 16 17  1  6
 17 18  2  0
 19 20  1  0
 21 20  1  6
 22 21  1  0
 22 17  1  0
 23 25  1  0
 23 21  1  0
 24 23  2  0
M  END
$$$$
