RPS.pdb
     RDKit          3D

 25 25  0  0  1  0  0  0  0  0999 V2000
    8.3311  -18.8809   17.6125 N   0  0  0  0  0  0  0  0  0  0  0  0
    7.6726  -17.7802   18.2056 C   0  0  0  0  0  0  0  0  0  0  0  0
    7.5519  -16.7036   17.4938 N   0  0  0  0  0  0  0  0  0  0  0  0
    7.1687  -17.8644   19.5312 N   0  0  0  0  0  0  0  0  0  0  0  0
    6.4070  -16.8052   20.1010 C   0  0  0  0  0  0  0  0  0  0  0  0
    7.2471  -15.6194   20.5112 C   0  0  0  0  0  0  0  0  0  0  0  0
    6.4598  -14.5233   21.1314 C   0  0  0  0  0  0  0  0  0  0  0  0
    7.2635  -13.3075   21.5399 C   0  0  2  0  0  0  0  0  0  0  0  0
    8.1056  -12.9249   20.4401 N   0  0  0  0  0  0  0  0  0  0  0  0
    8.0722  -13.5135   22.7427 C   0  0  0  0  0  0  0  0  0  0  0  0
    9.2920  -13.8246   22.6201 O   0  0  0  0  0  0  0  0  0  0  0  0
    7.1411  -15.8199   17.8522 N   0  0  0  0  0  0  0  0  0  0  0  0
    7.5442  -13.3793   24.0606 C   0  0  0  0  0  0  0  0  0  0  0  0
    6.2437  -12.9428   24.3996 C   0  0  0  0  0  0  0  0  0  0  0  0
    6.1676  -12.8615   25.8945 C   0  0  0  0  0  0  0  0  0  0  0  0
    7.5871  -12.9319   26.3354 C   0  0  1  0  0  0  0  0  0  0  0  0
    8.3006  -13.6886   25.2449 C   0  0  0  0  0  0  0  0  0  0  0  0
    8.3393  -15.1452   25.5278 O   0  0  0  0  0  0  0  0  0  0  0  0
    7.2825  -15.8023   25.3727 O   0  0  0  0  0  0  0  0  0  0  0  0
   11.7181  -17.0760   25.1996 C   0  0  0  0  0  0  0  0  0  0  0  0
   10.5978  -17.9005   25.2764 C   0  0  1  0  0  0  0  0  0  0  0  0
    9.6030  -17.2336   26.2064 N   0  0  0  0  0  0  0  0  0  0  0  0
    9.5108  -15.8107   25.9604 C   0  0  0  0  0  0  0  0  0  0  0  0
   10.0802  -17.4442   27.5965 O   0  0  0  0  0  0  0  0  0  0  0  0
   10.3441  -16.5010   28.3865 O   0  0  0  0  0  0  0  0  0  0  0  0
  1  2  1  0
  2  3  2  0
  4  5  1  0
  4  2  1  0
  6  7  1  0
  6  5  1  0
  7  8  1  0
  8  9  1  6
 10 12  1  0
 10  8  1  0
 11 10  2  0
 12 16  1  0
 13 12  1  0
 13 14  1  0
 14 15  1  0
 16 15  1  0
 16 17  1  1
 17 18  2  0
 19 20  1  0
 21 20  1  6
 22 21  1  0
 22 17  1  0
 23 25  1  0
 23 21  1  0
 24 23  2  0
M  END
$$$$
