RPS.pdb
     RDKit          3D

 25 25  0  0  1  0  0  0  0  0999 V2000
    2.8897  -17.9231   21.3366 N   0  0  0  0  0  0  0  0  0  0  0  0
    3.6795  -18.9743   20.8186 C   0  0  0  0  0  0  0  0  0  0  0  0
    3.0638  -19.9363   20.2058 N   0  0  0  0  0  0  0  0  0  0  0  0
    5.0918  -18.9642   20.9721 N   0  0  0  0  0  0  0  0  0  0  0  0
    5.7175  -18.2136   22.0073 C   0  0  0  0  0  0  0  0  0  0  0  0
    5.3410  -16.7513   21.9956 C   0  0  0  0  0  0  0  0  0  0  0  0
    5.9107  -15.9850   23.1331 C   0  0  0  0  0  0  0  0  0  0  0  0
    6.9254  -14.9288   22.7514 C   0  0  2  0  0  0  0  0  0  0  0  0
    7.5980  -15.3520   21.5541 N   0  0  0  0  0  0  0  0  0  0  0  0
    7.9039  -14.6454   23.8027 C   0  0  0  0  0  0  0  0  0  0  0  0
    9.1023  -15.0188   23.6470 O   0  0  0  0  0  0  0  0  0  0  0  0
    3.5506  -20.7236   19.7353 N   0  0  0  0  0  0  0  0  0  0  0  0
    7.5665  -13.9616   25.0078 C   0  0  0  0  0  0  0  0  0  0  0  0
    6.2895  -13.4698   25.3603 C   0  0  0  0  0  0  0  0  0  0  0  0
    6.4283  -12.7378   26.6611 C   0  0  0  0  0  0  0  0  0  0  0  0
    7.8963  -12.5517   26.8189 C   0  0  1  0  0  0  0  0  0  0  0  0
    8.5216  -13.6854   26.0479 C   0  0  0  0  0  0  0  0  0  0  0  0
    8.7699  -14.8634   26.9161 O   0  0  0  0  0  0  0  0  0  0  0  0
    7.8049  -15.6251   27.1635 O   0  0  0  0  0  0  0  0  0  0  0  0
   11.7922  -17.0117   26.4894 C   0  0  0  0  0  0  0  0  0  0  0  0
   11.7278  -16.8872   27.8755 C   0  0  2  0  0  0  0  0  0  0  0  0
   10.3533  -16.3488   28.2221 N   0  0  0  0  0  0  0  0  0  0  0  0
   10.0402  -15.1544   27.4675 C   0  0  0  0  0  0  0  0  0  0  0  0
   10.3579  -16.0086   29.6673 O   0  0  0  0  0  0  0  0  0  0  0  0
   10.1511  -14.8468   30.1040 O   0  0  0  0  0  0  0  0  0  0  0  0
  1  2  1  0
  2  3  2  0
  4  5  1  0
  4  2  1  0
  6  7  1  0
  6  5  1  0
  7  8  1  0
  8  9  1  6
 10 12  1  0
 10  8  1  0
 11 10  2  0
 12 16  1  0
 13 12  1  0
 13 14  1  0
 14 15  1  0
 16 15  1  0
 16 17  1  1
 17 18  2  0
 19 20  1  0
 21 20  1  6
 22 21  1  0
 22 17  1  0
 23 25  1  0
 23 21  1  0
 24 23  2  0
M  END
$$$$
