RPS.pdb
     RDKit          3D

 25 25  0  0  1  0  0  0  0  0999 V2000
    6.7160  -13.4993   16.4763 N   0  0  0  0  0  0  0  0  0  0  0  0
    7.8670  -13.5688   17.2932 C   0  0  0  0  0  0  0  0  0  0  0  0
    8.3276  -12.4551   17.7702 N   0  0  0  0  0  0  0  0  0  0  0  0
    8.4850  -14.8174   17.5714 N   0  0  0  0  0  0  0  0  0  0  0  0
    8.8353  -15.1889   18.9003 C   0  0  0  0  0  0  0  0  0  0  0  0
    7.6597  -15.1951   19.8480 C   0  0  0  0  0  0  0  0  0  0  0  0
    8.0249  -15.5599   21.2406 C   0  0  0  0  0  0  0  0  0  0  0  0
    9.3320  -14.9783   21.7347 C   0  0  2  0  0  0  0  0  0  0  0  0
   10.4088  -15.5833   21.0003 N   0  0  0  0  0  0  0  0  0  0  0  0
    9.5468  -15.1504   23.1725 C   0  0  0  0  0  0  0  0  0  0  0  0
   10.6048  -15.7147   23.5750 O   0  0  0  0  0  0  0  0  0  0  0  0
    9.1300  -12.3983   18.4268 N   0  0  0  0  0  0  0  0  0  0  0  0
    8.6091  -14.7082   24.1518 C   0  0  0  0  0  0  0  0  0  0  0  0
    7.3688  -14.0806   23.8980 C   0  0  0  0  0  0  0  0  0  0  0  0
    6.7724  -13.7028   25.2204 C   0  0  0  0  0  0  0  0  0  0  0  0
    7.9022  -13.8341   26.1799 C   0  0  1  0  0  0  0  0  0  0  0  0
    8.8217  -14.8587   25.5669 C   0  0  0  0  0  0  0  0  0  0  0  0
    8.5068  -16.2284   26.0444 O   0  0  0  0  0  0  0  0  0  0  0  0
    7.4547  -16.7688   25.6275 O   0  0  0  0  0  0  0  0  0  0  0  0
   11.5075  -17.9997   28.1028 C   0  0  0  0  0  0  0  0  0  0  0  0
   10.9476  -18.7842   27.0970 C   0  0  1  0  0  0  0  0  0  0  0  0
    9.4939  -18.3763   26.9559 N   0  0  0  0  0  0  0  0  0  0  0  0
    9.3405  -16.9376   26.9412 C   0  0  0  0  0  0  0  0  0  0  0  0
    8.7616  -18.9190   28.1279 O   0  0  0  0  0  0  0  0  0  0  0  0
    8.6857  -20.1482   28.3863 O   0  0  0  0  0  0  0  0  0  0  0  0
  1  2  1  0
  2  3  2  0
  4  5  1  0
  4  2  1  0
  6  7  1  0
  6  5  1  0
  7  8  1  0
  8  9  1  6
 10 12  1  0
 10  8  1  0
 11 10  2  0
 12 16  1  0
 13 12  1  0
 13 14  1  0
 14 15  1  0
 16 15  1  0
 16 17  1  6
 17 18  2  0
 19 20  1  0
 21 20  1  6
 22 21  1  0
 22 17  1  0
 23 25  1  0
 23 21  1  0
 24 23  2  0
M  END
$$$$
