RPS.pdb
     RDKit          3D

 25 25  0  0  1  0  0  0  0  0999 V2000
    7.0964  -20.4031   25.0255 N   0  0  0  0  0  0  0  0  0  0  0  0
    6.2882  -19.5513   24.2391 C   0  0  0  0  0  0  0  0  0  0  0  0
    6.2422  -18.2993   24.5715 N   0  0  0  0  0  0  0  0  0  0  0  0
    5.5595  -20.0615   23.1315 N   0  0  0  0  0  0  0  0  0  0  0  0
    5.0868  -19.2028   22.0990 C   0  0  0  0  0  0  0  0  0  0  0  0
    6.1738  -18.7530   21.1522 C   0  0  0  0  0  0  0  0  0  0  0  0
    5.6965  -17.8089   20.1098 C   0  0  0  0  0  0  0  0  0  0  0  0
    6.7578  -17.3309   19.1425 C   0  0  2  0  0  0  0  0  0  0  0  0
    7.3248  -18.4749   18.4831 N   0  0  0  0  0  0  0  0  0  0  0  0
    7.8161  -16.5402   19.7734 C   0  0  0  0  0  0  0  0  0  0  0  0
    8.9442  -17.0733   19.9807 O   0  0  0  0  0  0  0  0  0  0  0  0
    6.7938  -17.8899   25.3501 N   0  0  0  0  0  0  0  0  0  0  0  0
    7.6335  -15.1827   20.1705 C   0  0  0  0  0  0  0  0  0  0  0  0
    6.4345  -14.4401   20.0821 C   0  0  0  0  0  0  0  0  0  0  0  0
    6.7365  -13.0374   20.5162 C   0  0  0  0  0  0  0  0  0  0  0  0
    8.2228  -12.9652   20.5050 C   0  0  2  0  0  0  0  0  0  0  0  0
    8.6871  -14.3805   20.7332 C   0  0  0  0  0  0  0  0  0  0  0  0
    8.9014  -14.6580   22.1755 O   0  0  0  0  0  0  0  0  0  0  0  0
    7.9302  -15.0887   22.8418 O   0  0  0  0  0  0  0  0  0  0  0  0
   10.0371  -16.7156   25.6684 C   0  0  0  0  0  0  0  0  0  0  0  0
    9.5388  -16.1270   24.5083 C   0  0  1  0  0  0  0  0  0  0  0  0
   10.5295  -15.0646   24.0736 N   0  0  0  0  0  0  0  0  0  0  0  0
   10.1462  -14.4569   22.8175 C   0  0  0  0  0  0  0  0  0  0  0  0
   11.8465  -15.7271   23.8970 O   0  0  0  0  0  0  0  0  0  0  0  0
   12.7089  -15.8038   24.8101 O   0  0  0  0  0  0  0  0  0  0  0  0
  1  2  1  0
  2  3  2  0
  4  5  1  0
  4  2  1  0
  6  7  1  0
  6  5  1  0
  7  8  1  0
  8  9  1  1
 10 12  1  0
 10  8  1  0
 11 10  2  0
 12 16  1  0
 13 12  1  0
 13 14  1  0
 14 15  1  0
 16 15  1  0
 16 17  1  1
 17 18  2  0
 19 20  1  0
 21 20  1  1
 22 21  1  0
 22 17  1  0
 23 25  1  0
 23 21  1  0
 24 23  2  0
M  END
$$$$
