RPS.pdb
     RDKit          3D

 25 25  0  0  1  0  0  0  0  0999 V2000
    9.6947  -19.5409   12.7743 N   0  0  0  0  0  0  0  0  0  0  0  0
   10.6854  -19.8437   13.7354 C   0  0  0  0  0  0  0  0  0  0  0  0
   11.9143  -19.9012   13.3271 N   0  0  0  0  0  0  0  0  0  0  0  0
   10.3335  -20.0748   15.0923 N   0  0  0  0  0  0  0  0  0  0  0  0
   10.2388  -19.0027   16.0241 C   0  0  0  0  0  0  0  0  0  0  0  0
   10.2454  -17.6414   15.3707 C   0  0  0  0  0  0  0  0  0  0  0  0
   10.2864  -16.5192   16.3427 C   0  0  0  0  0  0  0  0  0  0  0  0
    9.3694  -16.6711   17.5373 C   0  0  2  0  0  0  0  0  0  0  0  0
    8.0453  -16.2668   17.1522 N   0  0  0  0  0  0  0  0  0  0  0  0
    9.8031  -15.9133   18.7124 C   0  0  0  0  0  0  0  0  0  0  0  0
   10.9943  -16.0350   19.1197 O   0  0  0  0  0  0  0  0  0  0  0  0
   12.7249  -20.0451   13.9598 N   0  0  0  0  0  0  0  0  0  0  0  0
    8.9367  -15.0355   19.4283 C   0  0  0  0  0  0  0  0  0  0  0  0
    7.6292  -14.6580   19.0479 C   0  0  0  0  0  0  0  0  0  0  0  0
    7.1413  -13.6475   20.0420 C   0  0  0  0  0  0  0  0  0  0  0  0
    8.3700  -13.2324   20.7716 C   0  0  1  0  0  0  0  0  0  0  0  0
    9.3040  -14.4107   20.6712 C   0  0  0  0  0  0  0  0  0  0  0  0
    9.1542  -15.3253   21.8307 O   0  0  0  0  0  0  0  0  0  0  0  0
    8.1541  -16.0814   21.8574 O   0  0  0  0  0  0  0  0  0  0  0  0
   12.3528  -15.9125   23.7648 C   0  0  0  0  0  0  0  0  0  0  0  0
   11.4473  -16.7759   24.3774 C   0  0  1  0  0  0  0  0  0  0  0  0
   10.0533  -16.3384   23.9717 N   0  0  0  0  0  0  0  0  0  0  0  0
   10.0874  -15.3743   22.8933 C   0  0  0  0  0  0  0  0  0  0  0  0
    9.4221  -15.7029   25.1558 O   0  0  0  0  0  0  0  0  0  0  0  0
    8.9825  -14.5238   25.1546 O   0  0  0  0  0  0  0  0  0  0  0  0
  1  2  1  0
  2  3  2  0
  4  5  1  0
  4  2  1  0
  6  7  1  0
  6  5  1  0
  7  8  1  0
  8  9  1  6
 10 12  1  0
 10  8  1  0
 11 10  2  0
 12 16  1  0
 13 12  1  0
 13 14  1  0
 14 15  1  0
 16 15  1  0
 16 17  1  1
 17 18  2  0
 19 20  1  0
 21 20  1  6
 22 21  1  0
 22 17  1  0
 23 25  1  0
 23 21  1  0
 24 23  2  0
M  END
$$$$
