RPS.pdb
     RDKit          3D

 25 25  0  0  1  0  0  0  0  0999 V2000
    8.0749  -13.1021   14.7061 N   0  0  0  0  0  0  0  0  0  0  0  0
    7.9695  -14.4163   15.2150 C   0  0  0  0  0  0  0  0  0  0  0  0
    6.8466  -15.0377   15.0328 N   0  0  0  0  0  0  0  0  0  0  0  0
    9.0592  -15.0195   15.8982 N   0  0  0  0  0  0  0  0  0  0  0  0
    9.2183  -14.8783   17.3059 C   0  0  0  0  0  0  0  0  0  0  0  0
    8.0620  -15.4419   18.0969 C   0  0  0  0  0  0  0  0  0  0  0  0
    8.3658  -15.6252   19.5391 C   0  0  0  0  0  0  0  0  0  0  0  0
    9.2218  -14.5409   20.1574 C   0  0  2  0  0  0  0  0  0  0  0  0
   10.3928  -14.3624   19.3437 N   0  0  0  0  0  0  0  0  0  0  0  0
    9.6104  -14.8155   21.5419 C   0  0  0  0  0  0  0  0  0  0  0  0
   10.7635  -15.2782   21.7788 O   0  0  0  0  0  0  0  0  0  0  0  0
    6.6679  -16.0092   15.3528 N   0  0  0  0  0  0  0  0  0  0  0  0
    8.7409  -14.5847   22.6484 C   0  0  0  0  0  0  0  0  0  0  0  0
    7.4038  -14.1323   22.5805 C   0  0  0  0  0  0  0  0  0  0  0  0
    6.9188  -13.9376   23.9855 C   0  0  0  0  0  0  0  0  0  0  0  0
    8.1601  -13.9645   24.8059 C   0  0  1  0  0  0  0  0  0  0  0  0
    9.1360  -14.7974   24.0155 C   0  0  0  0  0  0  0  0  0  0  0  0
    9.0737  -16.2279   24.4069 O   0  0  0  0  0  0  0  0  0  0  0  0
    8.0140  -16.8560   24.1716 O   0  0  0  0  0  0  0  0  0  0  0  0
   12.4994  -18.1959   25.2919 C   0  0  0  0  0  0  0  0  0  0  0  0
   11.4240  -18.9947   24.9095 C   0  0  1  0  0  0  0  0  0  0  0  0
   10.1556  -18.3050   25.3732 N   0  0  0  0  0  0  0  0  0  0  0  0
   10.1532  -16.8999   25.0276 C   0  0  0  0  0  0  0  0  0  0  0  0
   10.0938  -18.4296   26.8513 O   0  0  0  0  0  0  0  0  0  0  0  0
   10.0657  -17.4395   27.6273 O   0  0  0  0  0  0  0  0  0  0  0  0
  1  2  1  0
  2  3  2  0
  4  5  1  0
  4  2  1  0
  6  7  1  0
  6  5  1  0
  7  8  1  0
  8  9  1  6
 10 12  1  0
 10  8  1  0
 11 10  2  0
 12 16  1  0
 13 12  1  0
 13 14  1  0
 14 15  1  0
 16 15  1  0
 16 17  1  1
 17 18  2  0
 19 20  1  0
 21 20  1  6
 22 21  1  0
 22 17  1  0
 23 25  1  0
 23 21  1  0
 24 23  2  0
M  END
$$$$
