IRY.pdb
     RDKit          3D

 32 32  0  0  1  0  0  0  0  0999 V2000
    7.1121  -11.1814   28.0097 C   0  0  0  0  0  0  0  0  0  0  0  0
    6.3348  -12.2177   27.2503 C   0  0  0  0  0  0  0  0  0  0  0  0
    7.1504  -12.6789   26.0039 C   0  0  2  0  0  0  0  0  0  0  0  0
    7.2769  -11.4046   25.1870 C   0  0  0  0  0  0  0  0  0  0  0  0
    6.3102  -13.7368   25.3802 C   0  0  2  0  0  0  0  0  0  0  0  0
    5.6082  -14.3881   26.5264 N   0  0  0  0  0  0  0  0  0  0  0  0
    6.9787  -14.7896   24.6268 C   0  0  0  0  0  0  0  0  0  0  0  0
    7.1418  -15.9445   25.1589 O   0  0  0  0  0  0  0  0  0  0  0  0
    9.5065  -19.5200   20.1620 N   0  0  0  0  0  0  0  0  0  0  0  0
    9.4038  -19.0535   18.8266 C   0  0  0  0  0  0  0  0  0  0  0  0
   10.0992  -19.5920   17.8883 N   0  0  0  0  0  0  0  0  0  0  0  0
    8.5348  -17.9784   18.4733 N   0  0  0  0  0  0  0  0  0  0  0  0
    7.8653  -17.2213   19.4938 C   0  0  0  0  0  0  0  0  0  0  0  0
    8.8798  -16.4507   20.3217 C   0  0  0  0  0  0  0  0  0  0  0  0
    8.1583  -15.4674   21.1746 C   0  0  0  0  0  0  0  0  0  0  0  0
    8.2254  -15.6956   22.6463 C   0  0  2  0  0  0  0  0  0  0  0  0
    7.4688  -14.6215   23.3144 N   0  0  0  0  0  0  0  0  0  0  0  0
    9.6083  -15.7086   23.1624 C   0  0  0  0  0  0  0  0  0  0  0  0
   10.2987  -14.6300   23.0954 O   0  0  0  0  0  0  0  0  0  0  0  0
   10.1314  -19.2228   16.9195 O   0  0  0  0  0  0  0  0  0  0  0  0
    9.3154  -14.3852   29.5980 C   0  0  0  0  0  0  0  0  0  0  0  0
    9.9424  -15.1160   28.5880 C   0  0  0  0  0  0  0  0  0  0  0  0
   10.6517  -14.5040   27.5771 C   0  0  0  0  0  0  0  0  0  0  0  0
   11.2717  -15.2252   26.5781 C   0  0  0  0  0  0  0  0  0  0  0  0
   11.2207  -16.6027   26.5284 C   0  0  0  0  0  0  0  0  0  0  0  0
   11.8578  -17.4331   25.4834 C   0  0  2  0  0  0  0  0  0  0  0  0
   11.6482  -16.8319   24.1427 N   0  0  0  0  0  0  0  0  0  0  0  0
   10.2576  -16.8297   23.7374 C   0  0  0  0  0  0  0  0  0  0  0  0
   12.4996  -17.3966   23.0891 O   0  0  0  0  0  0  0  0  0  0  0  0
   13.8922  -17.4314   23.2884 C   0  0  0  0  0  0  0  0  0  0  0  0
   10.4968  -17.2114   27.5619 C   0  0  0  0  0  0  0  0  0  0  0  0
    9.8776  -16.4931   28.5593 O   0  0  0  0  0  0  0  0  0  0  0  0
  2  1  1  0
  3  2  1  0
  3  4  1  6
  5  3  1  0
  5  6  1  1
  7  5  1  0
  8  7  2  0
  9 10  1  0
 10 12  1  0
 11 10  2  0
 12 13  1  0
 13 14  1  0
 14 15  1  0
 16 15  1  6
 16 18  1  0
 16 17  1  0
 17  7  1  0
 18 27  1  0
 19 18  2  0
 21 22  2  0
 21 20  1  0
 23 22  1  0
 24 23  2  0
 25 24  1  0
 26 25  1  1
 27 26  1  0
 28 29  1  0
 28 26  1  0
 30 24  1  0
 30 31  2  0
 31 21  1  0
 32 28  2  0
M  END
$$$$
