IRY.pdb
     RDKit          3D

 32 32  0  0  1  0  0  0  0  0999 V2000
    6.9465  -12.1968   18.0134 C   0  0  0  0  0  0  0  0  0  0  0  0
    8.2785  -12.5801   18.5909 C   0  0  0  0  0  0  0  0  0  0  0  0
    8.1629  -13.9575   19.3122 C   0  0  2  0  0  0  0  0  0  0  0  0
    7.1264  -13.6932   20.3907 C   0  0  0  0  0  0  0  0  0  0  0  0
    9.5349  -14.2275   19.8208 C   0  0  2  0  0  0  0  0  0  0  0  0
   10.3554  -14.4579   18.5942 N   0  0  0  0  0  0  0  0  0  0  0  0
    9.7298  -15.3769   20.6946 C   0  0  0  0  0  0  0  0  0  0  0  0
    8.9922  -15.5159   21.7339 O   0  0  0  0  0  0  0  0  0  0  0  0
   13.4894  -17.9777   15.5424 N   0  0  0  0  0  0  0  0  0  0  0  0
   12.7860  -18.6204   16.5930 C   0  0  0  0  0  0  0  0  0  0  0  0
   11.8313  -19.4429   16.3362 N   0  0  0  0  0  0  0  0  0  0  0  0
   13.1047  -18.3826   17.9633 N   0  0  0  0  0  0  0  0  0  0  0  0
   12.9444  -19.4258   18.9372 C   0  0  0  0  0  0  0  0  0  0  0  0
   11.6672  -19.2069   19.7306 C   0  0  0  0  0  0  0  0  0  0  0  0
   11.9755  -18.3615   20.9160 C   0  0  0  0  0  0  0  0  0  0  0  0
   10.8699  -17.4939   21.4134 C   0  0  2  0  0  0  0  0  0  0  0  0
   10.6989  -16.3770   20.4669 N   0  0  0  0  0  0  0  0  0  0  0  0
   11.1281  -16.9521   22.7620 C   0  0  0  0  0  0  0  0  0  0  0  0
   12.1801  -16.2427   22.9475 O   0  0  0  0  0  0  0  0  0  0  0  0
   11.3856  -20.0413   17.0567 O   0  0  0  0  0  0  0  0  0  0  0  0
   10.9018  -14.4368   31.2075 C   0  0  0  0  0  0  0  0  0  0  0  0
   10.5562  -14.8231   29.9118 C   0  0  0  0  0  0  0  0  0  0  0  0
   10.1578  -16.1088   29.6153 C   0  0  0  0  0  0  0  0  0  0  0  0
    9.8162  -16.4918   28.3350 C   0  0  0  0  0  0  0  0  0  0  0  0
    9.8520  -15.6130   27.2724 C   0  0  0  0  0  0  0  0  0  0  0  0
    9.5041  -15.9614   25.8778 C   0  0  1  0  0  0  0  0  0  0  0  0
   10.6310  -16.6720   25.2234 N   0  0  0  0  0  0  0  0  0  0  0  0
   10.3013  -17.1494   23.8962 C   0  0  0  0  0  0  0  0  0  0  0  0
   11.2196  -17.7443   26.0342 O   0  0  0  0  0  0  0  0  0  0  0  0
   10.5929  -19.0042   26.0503 C   0  0  0  0  0  0  0  0  0  0  0  0
   10.2584  -14.3101   27.5883 C   0  0  0  0  0  0  0  0  0  0  0  0
   10.5996  -13.9264   28.8652 O   0  0  0  0  0  0  0  0  0  0  0  0
  2  1  1  0
  3  2  1  0
  3  4  1  1
  5  3  1  0
  5  6  1  6
  7  5  1  0
  8  7  2  0
  9 10  1  0
 10 12  1  0
 11 10  2  0
 12 13  1  0
 13 14  1  0
 14 15  1  0
 16 15  1  6
 16 18  1  0
 16 17  1  0
 17  7  1  0
 18 27  1  0
 19 18  2  0
 21 22  2  0
 21 20  1  0
 23 22  1  0
 24 23  2  0
 25 24  1  0
 26 25  1  6
 27 26  1  0
 28 29  1  0
 28 26  1  0
 30 24  1  0
 30 31  2  0
 31 21  1  0
 32 28  2  0
M  END
$$$$
