IRY.pdb
     RDKit          3D

 32 32  0  0  1  0  0  0  0  0999 V2000
    8.7260  -11.9770   18.9924 C   0  0  0  0  0  0  0  0  0  0  0  0
    7.3321  -12.5144   19.1441 C   0  0  0  0  0  0  0  0  0  0  0  0
    7.2700  -13.4791   20.3674 C   0  0  2  0  0  0  0  0  0  0  0  0
    8.0211  -12.7151   21.4442 C   0  0  0  0  0  0  0  0  0  0  0  0
    7.9456  -14.7189   19.8983 C   0  0  2  0  0  0  0  0  0  0  0  0
    7.0393  -15.2697   18.8466 N   0  0  0  0  0  0  0  0  0  0  0  0
    8.1811  -15.7815   20.8669 C   0  0  0  0  0  0  0  0  0  0  0  0
    7.1946  -16.4787   21.2960 O   0  0  0  0  0  0  0  0  0  0  0  0
    8.7428  -21.9757   20.3501 N   0  0  0  0  0  0  0  0  0  0  0  0
    9.7581  -22.4478   21.2207 C   0  0  0  0  0  0  0  0  0  0  0  0
   10.4039  -23.5267   20.9510 N   0  0  0  0  0  0  0  0  0  0  0  0
   10.1000  -21.7531   22.4191 N   0  0  0  0  0  0  0  0  0  0  0  0
    9.4803  -20.4954   22.7307 C   0  0  0  0  0  0  0  0  0  0  0  0
   10.5369  -19.4112   22.8596 C   0  0  0  0  0  0  0  0  0  0  0  0
   10.2292  -18.3214   21.8939 C   0  0  0  0  0  0  0  0  0  0  0  0
    9.6079  -17.0915   22.4627 C   0  0  2  0  0  0  0  0  0  0  0  0
    9.4562  -16.1069   21.3762 N   0  0  0  0  0  0  0  0  0  0  0  0
   10.4080  -16.4948   23.5502 C   0  0  0  0  0  0  0  0  0  0  0  0
   11.6533  -16.7903   23.6294 O   0  0  0  0  0  0  0  0  0  0  0  0
   11.1575  -23.9056   21.5549 O   0  0  0  0  0  0  0  0  0  0  0  0
    6.0065  -10.7054   26.6074 C   0  0  0  0  0  0  0  0  0  0  0  0
    6.5321  -11.9929   26.4911 C   0  0  0  0  0  0  0  0  0  0  0  0
    7.8885  -12.2227   26.4074 C   0  0  0  0  0  0  0  0  0  0  0  0
    8.4092  -13.4948   26.2923 C   0  0  0  0  0  0  0  0  0  0  0  0
    7.6057  -14.6154   26.2537 C   0  0  0  0  0  0  0  0  0  0  0  0
    8.1000  -16.0034   26.1261 C   0  0  2  0  0  0  0  0  0  0  0  0
    9.5641  -16.0132   25.8825 N   0  0  0  0  0  0  0  0  0  0  0  0
    9.9142  -15.6056   24.5374 C   0  0  0  0  0  0  0  0  0  0  0  0
   10.2255  -17.2747   26.2360 O   0  0  0  0  0  0  0  0  0  0  0  0
   11.2277  -17.2614   27.2238 C   0  0  0  0  0  0  0  0  0  0  0  0
    6.2297  -14.3670   26.3398 C   0  0  0  0  0  0  0  0  0  0  0  0
    5.7087  -13.0983   26.4547 O   0  0  0  0  0  0  0  0  0  0  0  0
  2  1  1  0
  3  2  1  0
  3  4  1  1
  5  3  1  0
  5  6  1  6
  7  5  1  0
  8  7  2  0
  9 10  1  0
 10 12  1  0
 11 10  2  0
 12 13  1  0
 13 14  1  0
 14 15  1  0
 16 15  1  6
 16 18  1  0
 16 17  1  0
 17  7  1  0
 18 27  1  0
 19 18  2  0
 21 22  2  0
 21 20  1  0
 23 22  1  0
 24 23  2  0
 25 24  1  0
 26 25  1  1
 27 26  1  0
 28 29  1  0
 28 26  1  0
 30 24  1  0
 30 31  2  0
 31 21  1  0
 32 28  2  0
M  END
$$$$
