IRY.pdb
     RDKit          3D

 32 32  0  0  1  0  0  0  0  0999 V2000
    7.8214  -11.8830   21.8846 C   0  0  0  0  0  0  0  0  0  0  0  0
    7.4956  -13.2537   21.3652 C   0  0  0  0  0  0  0  0  0  0  0  0
    8.1703  -13.4642   19.9754 C   0  0  2  0  0  0  0  0  0  0  0  0
    7.4404  -12.4716   19.0869 C   0  0  0  0  0  0  0  0  0  0  0  0
    7.9157  -14.8938   19.6509 C   0  0  2  0  0  0  0  0  0  0  0  0
    6.4411  -15.0633   19.8166 N   0  0  0  0  0  0  0  0  0  0  0  0
    8.5633  -15.9099   20.4700 C   0  0  0  0  0  0  0  0  0  0  0  0
    7.9233  -16.4408   21.4457 O   0  0  0  0  0  0  0  0  0  0  0  0
   12.7921  -22.3875   20.2369 N   0  0  0  0  0  0  0  0  0  0  0  0
   13.6246  -21.7570   21.1966 C   0  0  0  0  0  0  0  0  0  0  0  0
   13.7904  -22.2746   22.3622 N   0  0  0  0  0  0  0  0  0  0  0  0
   14.3039  -20.5352   20.9117 N   0  0  0  0  0  0  0  0  0  0  0  0
   13.6083  -19.4481   20.2815 C   0  0  0  0  0  0  0  0  0  0  0  0
   12.3902  -19.0618   21.1035 C   0  0  0  0  0  0  0  0  0  0  0  0
   11.6902  -17.9359   20.4274 C   0  0  0  0  0  0  0  0  0  0  0  0
   10.4659  -17.4191   21.1029 C   0  0  2  0  0  0  0  0  0  0  0  0
    9.8815  -16.3649   20.2546 N   0  0  0  0  0  0  0  0  0  0  0  0
   10.7403  -16.8666   22.4439 C   0  0  0  0  0  0  0  0  0  0  0  0
   11.1859  -15.6675   22.5344 O   0  0  0  0  0  0  0  0  0  0  0  0
   14.3796  -21.8429   23.0986 O   0  0  0  0  0  0  0  0  0  0  0  0
   10.7944  -14.1308   30.6993 C   0  0  0  0  0  0  0  0  0  0  0  0
   10.5032  -14.6775   29.4488 C   0  0  0  0  0  0  0  0  0  0  0  0
   10.3028  -16.0297   29.2721 C   0  0  0  0  0  0  0  0  0  0  0  0
   10.0151  -16.5712   28.0366 C   0  0  0  0  0  0  0  0  0  0  0  0
    9.9102  -15.7942   26.9017 C   0  0  0  0  0  0  0  0  0  0  0  0
    9.6104  -16.3127   25.5495 C   0  0  1  0  0  0  0  0  0  0  0  0
   10.8077  -16.9692   24.9676 N   0  0  0  0  0  0  0  0  0  0  0  0
   10.5527  -17.5560   23.6681 C   0  0  0  0  0  0  0  0  0  0  0  0
   11.4585  -17.9356   25.8597 O   0  0  0  0  0  0  0  0  0  0  0  0
   12.4719  -17.4839   26.7254 C   0  0  0  0  0  0  0  0  0  0  0  0
   10.1160  -14.4222   27.0960 C   0  0  0  0  0  0  0  0  0  0  0  0
   10.4032  -13.8804   28.3281 O   0  0  0  0  0  0  0  0  0  0  0  0
  2  1  1  0
  3  2  1  0
  3  4  1  6
  5  3  1  0
  5  6  1  1
  7  5  1  0
  8  7  2  0
  9 10  1  0
 10 12  1  0
 11 10  2  0
 12 13  1  0
 13 14  1  0
 14 15  1  0
 16 15  1  6
 16 18  1  0
 16 17  1  0
 17  7  1  0
 18 27  1  0
 19 18  2  0
 21 22  2  0
 21 20  1  0
 23 22  1  0
 24 23  2  0
 25 24  1  0
 26 25  1  6
 27 26  1  0
 28 29  1  0
 28 26  1  0
 30 24  1  0
 30 31  2  0
 31 21  1  0
 32 28  2  0
M  END
$$$$
