IRY.pdb
     RDKit          3D

 32 32  0  0  1  0  0  0  0  0999 V2000
    7.6640  -11.6794   21.9748 C   0  0  0  0  0  0  0  0  0  0  0  0
    7.3486  -13.1239   21.7128 C   0  0  0  0  0  0  0  0  0  0  0  0
    8.2331  -13.6521   20.5424 C   0  0  2  0  0  0  0  0  0  0  0  0
    7.8122  -12.7776   19.3739 C   0  0  0  0  0  0  0  0  0  0  0  0
    7.8598  -15.0865   20.4120 C   0  0  2  0  0  0  0  0  0  0  0  0
    6.3754  -15.0784   20.2470 N   0  0  0  0  0  0  0  0  0  0  0  0
    8.1675  -15.9799   21.5210 C   0  0  0  0  0  0  0  0  0  0  0  0
    7.2494  -16.2875   22.3613 O   0  0  0  0  0  0  0  0  0  0  0  0
   14.3588  -18.6307   23.2303 N   0  0  0  0  0  0  0  0  0  0  0  0
   14.2413  -19.8870   23.8780 C   0  0  0  0  0  0  0  0  0  0  0  0
   15.1053  -20.2554   24.7564 N   0  0  0  0  0  0  0  0  0  0  0  0
   13.1717  -20.7843   23.5839 N   0  0  0  0  0  0  0  0  0  0  0  0
   12.1753  -20.4317   22.6115 C   0  0  0  0  0  0  0  0  0  0  0  0
   11.0899  -19.5885   23.2590 C   0  0  0  0  0  0  0  0  0  0  0  0
   10.7983  -18.4222   22.3817 C   0  0  0  0  0  0  0  0  0  0  0  0
    9.6473  -17.5647   22.7847 C   0  0  2  0  0  0  0  0  0  0  0  0
    9.4408  -16.5484   21.7372 N   0  0  0  0  0  0  0  0  0  0  0  0
    9.8603  -16.8901   24.0802 C   0  0  0  0  0  0  0  0  0  0  0  0
   10.6739  -15.9002   24.1305 O   0  0  0  0  0  0  0  0  0  0  0  0
   15.1209  -21.2032   25.1776 O   0  0  0  0  0  0  0  0  0  0  0  0
    6.7651  -10.9210   25.4762 C   0  0  0  0  0  0  0  0  0  0  0  0
    7.1196  -12.2022   25.9010 C   0  0  0  0  0  0  0  0  0  0  0  0
    6.4126  -13.3207   25.5153 C   0  0  0  0  0  0  0  0  0  0  0  0
    6.7619  -14.5874   25.9346 C   0  0  0  0  0  0  0  0  0  0  0  0
    7.8393  -14.8138   26.7656 C   0  0  0  0  0  0  0  0  0  0  0  0
    8.2622  -16.1439   27.2548 C   0  0  2  0  0  0  0  0  0  0  0  0
    9.4993  -16.5830   26.5620 N   0  0  0  0  0  0  0  0  0  0  0  0
    9.2341  -17.2451   25.3013 C   0  0  0  0  0  0  0  0  0  0  0  0
   10.4038  -17.3848   27.3942 O   0  0  0  0  0  0  0  0  0  0  0  0
   10.8941  -18.6016   26.8849 C   0  0  0  0  0  0  0  0  0  0  0  0
    8.5486  -13.6684   27.1495 C   0  0  0  0  0  0  0  0  0  0  0  0
    8.2014  -12.4038   26.7319 O   0  0  0  0  0  0  0  0  0  0  0  0
  2  1  1  0
  3  2  1  0
  3  4  1  6
  5  3  1  0
  5  6  1  1
  7  5  1  0
  8  7  2  0
  9 10  1  0
 10 12  1  0
 11 10  2  0
 12 13  1  0
 13 14  1  0
 14 15  1  0
 16 15  1  6
 16 18  1  0
 16 17  1  0
 17  7  1  0
 18 27  1  0
 19 18  2  0
 21 22  2  0
 21 20  1  0
 23 22  1  0
 24 23  2  0
 25 24  1  0
 26 25  1  6
 27 26  1  0
 28 29  1  0
 28 26  1  0
 30 24  1  0
 30 31  2  0
 31 21  1  0
 32 28  2  0
M  END
$$$$
