IRY.pdb
     RDKit          3D

 32 32  0  0  1  0  0  0  0  0999 V2000
    5.9644  -12.1695   27.5657 C   0  0  0  0  0  0  0  0  0  0  0  0
    5.6379  -13.2417   26.5665 C   0  0  0  0  0  0  0  0  0  0  0  0
    6.9387  -13.6935   25.8351 C   0  0  2  0  0  0  0  0  0  0  0  0
    7.4343  -12.4090   25.1934 C   0  0  0  0  0  0  0  0  0  0  0  0
    6.4829  -14.7335   24.8736 C   0  0  2  0  0  0  0  0  0  0  0  0
    5.9276  -15.8240   25.7299 N   0  0  0  0  0  0  0  0  0  0  0  0
    7.4745  -15.3367   23.9928 C   0  0  0  0  0  0  0  0  0  0  0  0
    8.0669  -16.4161   24.3498 O   0  0  0  0  0  0  0  0  0  0  0  0
    8.2082  -12.7283   16.2536 N   0  0  0  0  0  0  0  0  0  0  0  0
    7.7117  -13.9787   16.7027 C   0  0  0  0  0  0  0  0  0  0  0  0
    8.0687  -15.0715   16.1262 N   0  0  0  0  0  0  0  0  0  0  0  0
    6.8047  -14.0743   17.7999 N   0  0  0  0  0  0  0  0  0  0  0  0
    7.2718  -13.8906   19.1456 C   0  0  0  0  0  0  0  0  0  0  0  0
    8.1255  -15.0746   19.5675 C   0  0  0  0  0  0  0  0  0  0  0  0
    9.0359  -14.6456   20.6638 C   0  0  0  0  0  0  0  0  0  0  0  0
    8.9253  -15.3979   21.9461 C   0  0  2  0  0  0  0  0  0  0  0  0
    7.8344  -14.8015   22.7379 N   0  0  0  0  0  0  0  0  0  0  0  0
   10.1711  -15.3694   22.7373 C   0  0  0  0  0  0  0  0  0  0  0  0
   10.8342  -14.2735   22.7991 O   0  0  0  0  0  0  0  0  0  0  0  0
    7.6851  -16.0012   16.3801 O   0  0  0  0  0  0  0  0  0  0  0  0
   11.6426  -16.0511   31.1894 C   0  0  0  0  0  0  0  0  0  0  0  0
   11.2464  -15.9894   29.8528 C   0  0  0  0  0  0  0  0  0  0  0  0
   11.0387  -14.7891   29.2078 C   0  0  0  0  0  0  0  0  0  0  0  0
   10.6470  -14.7269   27.8867 C   0  0  0  0  0  0  0  0  0  0  0  0
   10.4388  -15.8608   27.1293 C   0  0  0  0  0  0  0  0  0  0  0  0
   10.0138  -15.8624   25.7127 C   0  0  1  0  0  0  0  0  0  0  0  0
   11.0887  -16.4109   24.8485 N   0  0  0  0  0  0  0  0  0  0  0  0
   10.7138  -16.4675   23.4506 C   0  0  0  0  0  0  0  0  0  0  0  0
   11.6251  -17.7004   25.2992 O   0  0  0  0  0  0  0  0  0  0  0  0
   12.5379  -17.7183   26.3701 C   0  0  0  0  0  0  0  0  0  0  0  0
   10.6536  -17.0732   27.7974 C   0  0  0  0  0  0  0  0  0  0  0  0
   11.0445  -17.1369   29.1155 O   0  0  0  0  0  0  0  0  0  0  0  0
  2  1  1  0
  3  2  1  0
  3  4  1  6
  5  3  1  0
  5  6  1  1
  7  5  1  0
  8  7  2  0
  9 10  1  0
 10 12  1  0
 11 10  2  0
 12 13  1  0
 13 14  1  0
 14 15  1  0
 16 15  1  6
 16 18  1  0
 16 17  1  0
 17  7  1  0
 18 27  1  0
 19 18  2  0
 21 22  2  0
 21 20  1  0
 23 22  1  0
 24 23  2  0
 25 24  1  0
 26 25  1  6
 27 26  1  0
 28 29  1  0
 28 26  1  0
 30 24  1  0
 30 31  2  0
 31 21  1  0
 32 28  2  0
M  END
$$$$
