IRY.pdb
     RDKit          3D

 32 32  0  0  1  0  0  0  0  0999 V2000
    6.3204  -10.8338   27.6846 C   0  0  0  0  0  0  0  0  0  0  0  0
    5.7605  -12.0549   27.0137 C   0  0  0  0  0  0  0  0  0  0  0  0
    6.9250  -12.9362   26.4676 C   0  0  2  0  0  0  0  0  0  0  0  0
    7.7018  -11.9708   25.5890 C   0  0  0  0  0  0  0  0  0  0  0  0
    6.2454  -14.0370   25.7325 C   0  0  2  0  0  0  0  0  0  0  0  0
    5.5346  -14.8165   26.7899 N   0  0  0  0  0  0  0  0  0  0  0  0
    7.0711  -14.9754   24.9839 C   0  0  0  0  0  0  0  0  0  0  0  0
    7.5120  -16.0321   25.5603 O   0  0  0  0  0  0  0  0  0  0  0  0
    8.0918  -19.1117   19.2751 N   0  0  0  0  0  0  0  0  0  0  0  0
    9.0805  -18.4806   18.4777 C   0  0  0  0  0  0  0  0  0  0  0  0
   10.0579  -19.1573   17.9872 N   0  0  0  0  0  0  0  0  0  0  0  0
    9.0323  -17.0837   18.1911 N   0  0  0  0  0  0  0  0  0  0  0  0
    8.3732  -16.1803   19.0924 C   0  0  0  0  0  0  0  0  0  0  0  0
    8.6650  -16.5733   20.5308 C   0  0  0  0  0  0  0  0  0  0  0  0
    7.9699  -15.6223   21.4404 C   0  0  0  0  0  0  0  0  0  0  0  0
    8.1751  -15.8367   22.9013 C   0  0  2  0  0  0  0  0  0  0  0  0
    7.4251  -14.7976   23.6296 N   0  0  0  0  0  0  0  0  0  0  0  0
    9.5962  -15.7761   23.2960 C   0  0  0  0  0  0  0  0  0  0  0  0
   10.2403  -14.6838   23.1050 O   0  0  0  0  0  0  0  0  0  0  0  0
   10.8252  -18.7311   17.4345 O   0  0  0  0  0  0  0  0  0  0  0  0
   10.2731  -13.6657   29.4833 C   0  0  0  0  0  0  0  0  0  0  0  0
   10.7164  -14.5666   28.5141 C   0  0  0  0  0  0  0  0  0  0  0  0
   10.5531  -15.9280   28.6539 C   0  0  0  0  0  0  0  0  0  0  0  0
   10.9911  -16.8194   27.6967 C   0  0  0  0  0  0  0  0  0  0  0  0
   11.6193  -16.4045   26.5410 C   0  0  0  0  0  0  0  0  0  0  0  0
   12.1165  -17.3076   25.4805 C   0  0  2  0  0  0  0  0  0  0  0  0
   11.7542  -16.7836   24.1399 N   0  0  0  0  0  0  0  0  0  0  0  0
   10.3304  -16.8390   23.8793 C   0  0  0  0  0  0  0  0  0  0  0  0
   12.5123  -17.3807   23.0343 O   0  0  0  0  0  0  0  0  0  0  0  0
   13.9184  -17.3566   23.0853 C   0  0  0  0  0  0  0  0  0  0  0  0
   11.7784  -15.0186   26.4120 C   0  0  0  0  0  0  0  0  0  0  0  0
   11.3420  -14.1280   27.3662 O   0  0  0  0  0  0  0  0  0  0  0  0
  2  1  1  0
  3  2  1  0
  3  4  1  6
  5  3  1  0
  5  6  1  1
  7  5  1  0
  8  7  2  0
  9 10  1  0
 10 12  1  0
 11 10  2  0
 12 13  1  0
 13 14  1  0
 14 15  1  0
 16 15  1  6
 16 18  1  0
 16 17  1  0
 17  7  1  0
 18 27  1  0
 19 18  2  0
 21 22  2  0
 21 20  1  0
 23 22  1  0
 24 23  2  0
 25 24  1  0
 26 25  1  1
 27 26  1  0
 28 29  1  0
 28 26  1  0
 30 24  1  0
 30 31  2  0
 31 21  1  0
 32 28  2  0
M  END
$$$$
