IRY.pdb
     RDKit          3D

 32 32  0  0  1  0  0  0  0  0999 V2000
    6.7073  -11.4684   19.7514 C   0  0  0  0  0  0  0  0  0  0  0  0
    7.1142  -12.8549   19.3430 C   0  0  0  0  0  0  0  0  0  0  0  0
    7.5045  -13.6825   20.6055 C   0  0  2  0  0  0  0  0  0  0  0  0
    8.6446  -12.8766   21.2038 C   0  0  0  0  0  0  0  0  0  0  0  0
    7.8977  -15.0141   20.0705 C   0  0  2  0  0  0  0  0  0  0  0  0
    6.6469  -15.5649   19.4680 N   0  0  0  0  0  0  0  0  0  0  0  0
    8.4018  -16.0093   21.0076 C   0  0  0  0  0  0  0  0  0  0  0  0
    7.5894  -16.8414   21.5471 O   0  0  0  0  0  0  0  0  0  0  0  0
   14.5156  -19.6273   23.7806 N   0  0  0  0  0  0  0  0  0  0  0  0
   14.0881  -20.9218   23.3895 C   0  0  0  0  0  0  0  0  0  0  0  0
   14.5337  -21.9688   23.9889 N   0  0  0  0  0  0  0  0  0  0  0  0
   13.1569  -21.1136   22.3256 N   0  0  0  0  0  0  0  0  0  0  0  0
   12.6626  -19.9885   21.5823 C   0  0  0  0  0  0  0  0  0  0  0  0
   11.7723  -19.1305   22.4654 C   0  0  0  0  0  0  0  0  0  0  0  0
   11.1256  -18.0851   21.6264 C   0  0  0  0  0  0  0  0  0  0  0  0
   10.2024  -17.1508   22.3315 C   0  0  2  0  0  0  0  0  0  0  0  0
    9.7608  -16.1254   21.3691 N   0  0  0  0  0  0  0  0  0  0  0  0
   10.8315  -16.4890   23.4913 C   0  0  0  0  0  0  0  0  0  0  0  0
   12.0999  -16.5969   23.6463 O   0  0  0  0  0  0  0  0  0  0  0  0
   14.2987  -22.9359   23.6967 O   0  0  0  0  0  0  0  0  0  0  0  0
    6.1722  -11.0062   25.9649 C   0  0  0  0  0  0  0  0  0  0  0  0
    6.7546  -12.2717   26.0456 C   0  0  0  0  0  0  0  0  0  0  0  0
    7.6750  -12.5908   27.0207 C   0  0  0  0  0  0  0  0  0  0  0  0
    8.2514  -13.8413   27.1014 C   0  0  0  0  0  0  0  0  0  0  0  0
    7.9433  -14.8496   26.2121 C   0  0  0  0  0  0  0  0  0  0  0  0
    8.5290  -16.2074   26.2407 C   0  0  2  0  0  0  0  0  0  0  0  0
    9.9575  -16.1654   25.8398 N   0  0  0  0  0  0  0  0  0  0  0  0
   10.1461  -15.7286   24.4718 C   0  0  0  0  0  0  0  0  0  0  0  0
   10.6928  -17.4089   26.0983 O   0  0  0  0  0  0  0  0  0  0  0  0
   10.3607  -18.5593   25.3589 C   0  0  0  0  0  0  0  0  0  0  0  0
    7.0067  -14.5115   25.2267 C   0  0  0  0  0  0  0  0  0  0  0  0
    6.4306  -13.2643   25.1449 O   0  0  0  0  0  0  0  0  0  0  0  0
  2  1  1  0
  3  2  1  0
  3  4  1  6
  5  3  1  0
  5  6  1  1
  7  5  1  0
  8  7  2  0
  9 10  1  0
 10 12  1  0
 11 10  2  0
 12 13  1  0
 13 14  1  0
 14 15  1  0
 16 15  1  6
 16 18  1  0
 16 17  1  0
 17  7  1  0
 18 27  1  0
 19 18  2  0
 21 22  2  0
 21 20  1  0
 23 22  1  0
 24 23  2  0
 25 24  1  0
 26 25  1  1
 27 26  1  0
 28 29  1  0
 28 26  1  0
 30 24  1  0
 30 31  2  0
 31 21  1  0
 32 28  2  0
M  END
$$$$
