IRY.pdb
     RDKit          3D

 32 32  0  0  1  0  0  0  0  0999 V2000
    6.7437  -12.4965   16.9755 C   0  0  0  0  0  0  0  0  0  0  0  0
    7.9998  -13.1470   17.4791 C   0  0  0  0  0  0  0  0  0  0  0  0
    7.7098  -13.8819   18.8233 C   0  0  2  0  0  0  0  0  0  0  0  0
    7.1859  -12.7696   19.7153 C   0  0  0  0  0  0  0  0  0  0  0  0
    9.0264  -14.4404   19.2337 C   0  0  2  0  0  0  0  0  0  0  0  0
    9.3155  -15.5071   18.2290 N   0  0  0  0  0  0  0  0  0  0  0  0
    9.1336  -15.0480   20.5536 C   0  0  0  0  0  0  0  0  0  0  0  0
    8.9244  -14.3356   21.5986 O   0  0  0  0  0  0  0  0  0  0  0  0
   10.8165  -21.8820   19.0841 N   0  0  0  0  0  0  0  0  0  0  0  0
   10.0727  -21.2933   20.1384 C   0  0  0  0  0  0  0  0  0  0  0  0
   10.6059  -21.1094   21.2942 N   0  0  0  0  0  0  0  0  0  0  0  0
    8.7166  -20.8863   19.9623 N   0  0  0  0  0  0  0  0  0  0  0  0
    7.9795  -20.3239   21.0591 C   0  0  0  0  0  0  0  0  0  0  0  0
    8.1190  -18.8110   21.0601 C   0  0  0  0  0  0  0  0  0  0  0  0
    9.1758  -18.4253   22.0343 C   0  0  0  0  0  0  0  0  0  0  0  0
    9.4893  -16.9708   22.1266 C   0  0  2  0  0  0  0  0  0  0  0  0
    9.4570  -16.4050   20.7659 N   0  0  0  0  0  0  0  0  0  0  0  0
   10.8096  -16.7056   22.7313 C   0  0  0  0  0  0  0  0  0  0  0  0
   11.7416  -17.5725   22.5750 O   0  0  0  0  0  0  0  0  0  0  0  0
   10.1052  -20.6699   22.0892 O   0  0  0  0  0  0  0  0  0  0  0  0
   10.3451  -15.5383   31.2646 C   0  0  0  0  0  0  0  0  0  0  0  0
   10.2372  -15.4727   29.8748 C   0  0  0  0  0  0  0  0  0  0  0  0
   10.3075  -14.2769   29.1930 C   0  0  0  0  0  0  0  0  0  0  0  0
   10.2008  -14.2108   27.8194 C   0  0  0  0  0  0  0  0  0  0  0  0
   10.0171  -15.3360   27.0430 C   0  0  0  0  0  0  0  0  0  0  0  0
    9.8899  -15.3324   25.5696 C   0  0  1  0  0  0  0  0  0  0  0  0
   11.2154  -15.5348   24.9332 N   0  0  0  0  0  0  0  0  0  0  0  0
   11.1485  -15.5550   23.4864 C   0  0  0  0  0  0  0  0  0  0  0  0
   11.9558  -16.6964   25.4392 O   0  0  0  0  0  0  0  0  0  0  0  0
   11.3872  -17.9762   25.3002 C   0  0  0  0  0  0  0  0  0  0  0  0
    9.9477  -16.5440   27.7490 C   0  0  0  0  0  0  0  0  0  0  0  0
   10.0540  -16.6116   29.1195 O   0  0  0  0  0  0  0  0  0  0  0  0
  2  1  1  0
  3  2  1  0
  3  4  1  1
  5  3  1  0
  5  6  1  6
  7  5  1  0
  8  7  2  0
  9 10  1  0
 10 12  1  0
 11 10  2  0
 12 13  1  0
 13 14  1  0
 14 15  1  0
 16 15  1  6
 16 18  1  0
 16 17  1  0
 17  7  1  0
 18 27  1  0
 19 18  2  0
 21 22  2  0
 21 20  1  0
 23 22  1  0
 24 23  2  0
 25 24  1  0
 26 25  1  6
 27 26  1  0
 28 29  1  0
 28 26  1  0
 30 24  1  0
 30 31  2  0
 31 21  1  0
 32 28  2  0
M  END
$$$$
