IRY.pdb
     RDKit          3D

 32 32  0  0  1  0  0  0  0  0999 V2000
    7.5651  -12.0660   18.6796 C   0  0  0  0  0  0  0  0  0  0  0  0
    7.7718  -13.5528   18.6426 C   0  0  0  0  0  0  0  0  0  0  0  0
    7.8672  -14.1075   20.0967 C   0  0  2  0  0  0  0  0  0  0  0  0
    9.0986  -13.4103   20.6487 C   0  0  0  0  0  0  0  0  0  0  0  0
    8.0097  -15.5786   19.9251 C   0  0  2  0  0  0  0  0  0  0  0  0
    6.7259  -16.0132   19.2976 N   0  0  0  0  0  0  0  0  0  0  0  0
    8.2070  -16.3933   21.1168 C   0  0  0  0  0  0  0  0  0  0  0  0
    7.2151  -16.6322   21.8931 O   0  0  0  0  0  0  0  0  0  0  0  0
    5.2516  -21.8736   23.2802 N   0  0  0  0  0  0  0  0  0  0  0  0
    6.6508  -21.9843   23.0767 C   0  0  0  0  0  0  0  0  0  0  0  0
    7.2916  -23.0251   23.4770 N   0  0  0  0  0  0  0  0  0  0  0  0
    7.3972  -20.9560   22.4277 N   0  0  0  0  0  0  0  0  0  0  0  0
    8.8116  -21.1030   22.2260 C   0  0  0  0  0  0  0  0  0  0  0  0
    9.5714  -20.1998   23.1827 C   0  0  0  0  0  0  0  0  0  0  0  0
   10.1406  -19.0575   22.4172 C   0  0  0  0  0  0  0  0  0  0  0  0
    9.5955  -17.7084   22.7417 C   0  0  2  0  0  0  0  0  0  0  0  0
    9.4482  -16.9557   21.4830 N   0  0  0  0  0  0  0  0  0  0  0  0
   10.4603  -16.9469   23.6643 C   0  0  0  0  0  0  0  0  0  0  0  0
   11.4270  -16.2613   23.1744 O   0  0  0  0  0  0  0  0  0  0  0  0
    8.3150  -23.1450   23.3575 O   0  0  0  0  0  0  0  0  0  0  0  0
    6.1710  -10.9234   28.0304 C   0  0  0  0  0  0  0  0  0  0  0  0
    6.7368  -12.0027   27.3504 C   0  0  0  0  0  0  0  0  0  0  0  0
    8.0012  -12.4673   27.6421 C   0  0  0  0  0  0  0  0  0  0  0  0
    8.5615  -13.5339   26.9706 C   0  0  0  0  0  0  0  0  0  0  0  0
    7.8923  -14.2015   25.9660 C   0  0  0  0  0  0  0  0  0  0  0  0
    8.4381  -15.3462   25.2051 C   0  0  2  0  0  0  0  0  0  0  0  0
    9.7296  -15.7887   25.7877 N   0  0  0  0  0  0  0  0  0  0  0  0
   10.3169  -16.9038   25.0738 C   0  0  0  0  0  0  0  0  0  0  0  0
    9.6797  -16.0582   27.2294 O   0  0  0  0  0  0  0  0  0  0  0  0
   10.3184  -15.1644   28.1089 C   0  0  0  0  0  0  0  0  0  0  0  0
    6.6086  -13.7188   25.6803 C   0  0  0  0  0  0  0  0  0  0  0  0
    6.0481  -12.6546   26.3494 O   0  0  0  0  0  0  0  0  0  0  0  0
  2  1  1  0
  3  2  1  0
  3  4  1  6
  5  3  1  0
  5  6  1  1
  7  5  1  0
  8  7  2  0
  9 10  1  0
 10 12  1  0
 11 10  2  0
 12 13  1  0
 13 14  1  0
 14 15  1  0
 16 15  1  6
 16 18  1  0
 16 17  1  0
 17  7  1  0
 18 27  1  0
 19 18  2  0
 21 22  2  0
 21 20  1  0
 23 22  1  0
 24 23  2  0
 25 24  1  0
 26 25  1  6
 27 26  1  0
 28 29  1  0
 28 26  1  0
 30 24  1  0
 30 31  2  0
 31 21  1  0
 32 28  2  0
M  END
$$$$
