IRY.pdb
     RDKit          3D

 32 32  0  0  1  0  0  0  0  0999 V2000
    6.0977  -11.8679   26.6779 C   0  0  0  0  0  0  0  0  0  0  0  0
    5.7871  -13.0256   25.7734 C   0  0  0  0  0  0  0  0  0  0  0  0
    7.1081  -13.7528   25.3766 C   0  0  2  0  0  0  0  0  0  0  0  0
    7.8498  -12.6997   24.5715 C   0  0  0  0  0  0  0  0  0  0  0  0
    6.6606  -14.9349   24.5916 C   0  0  2  0  0  0  0  0  0  0  0  0
    5.7912  -15.7059   25.5299 N   0  0  0  0  0  0  0  0  0  0  0  0
    7.6765  -15.8512   24.0905 C   0  0  0  0  0  0  0  0  0  0  0  0
    8.1305  -16.7746   24.8551 O   0  0  0  0  0  0  0  0  0  0  0  0
    7.9886  -19.6000   18.0648 N   0  0  0  0  0  0  0  0  0  0  0  0
    9.2077  -18.9088   17.8469 C   0  0  0  0  0  0  0  0  0  0  0  0
   10.2233  -19.5138   17.3405 N   0  0  0  0  0  0  0  0  0  0  0  0
    9.3561  -17.5289   18.1780 N   0  0  0  0  0  0  0  0  0  0  0  0
    8.2492  -16.7888   18.7165 C   0  0  0  0  0  0  0  0  0  0  0  0
    8.1025  -17.0763   20.2012 C   0  0  0  0  0  0  0  0  0  0  0  0
    9.3684  -16.7064   20.8908 C   0  0  0  0  0  0  0  0  0  0  0  0
    9.3217  -16.6679   22.3804 C   0  0  2  0  0  0  0  0  0  0  0  0
    8.2065  -15.7926   22.7841 N   0  0  0  0  0  0  0  0  0  0  0  0
   10.5737  -16.1671   22.9809 C   0  0  0  0  0  0  0  0  0  0  0  0
   10.9126  -14.9489   22.7674 O   0  0  0  0  0  0  0  0  0  0  0  0
   11.1358  -19.0507   17.1705 O   0  0  0  0  0  0  0  0  0  0  0  0
   11.8352  -15.1827   31.3946 C   0  0  0  0  0  0  0  0  0  0  0  0
   11.5054  -15.4573   30.0667 C   0  0  0  0  0  0  0  0  0  0  0  0
   11.0703  -14.4740   29.2045 C   0  0  0  0  0  0  0  0  0  0  0  0
   10.7440  -14.7442   27.8919 C   0  0  0  0  0  0  0  0  0  0  0  0
   10.8324  -16.0140   27.3606 C   0  0  0  0  0  0  0  0  0  0  0  0
   10.4928  -16.3702   25.9659 C   0  0  2  0  0  0  0  0  0  0  0  0
   11.7256  -16.6306   25.1814 N   0  0  0  0  0  0  0  0  0  0  0  0
   11.4556  -16.9270   23.7896 C   0  0  0  0  0  0  0  0  0  0  0  0
   12.6119  -17.6417   25.7694 O   0  0  0  0  0  0  0  0  0  0  0  0
   13.8840  -17.2468   26.2237 C   0  0  0  0  0  0  0  0  0  0  0  0
   11.2760  -17.0032   28.2479 C   0  0  0  0  0  0  0  0  0  0  0  0
   11.6020  -16.7352   29.5579 O   0  0  0  0  0  0  0  0  0  0  0  0
  2  1  1  0
  3  2  1  0
  3  4  1  6
  5  3  1  0
  5  6  1  1
  7  5  1  0
  8  7  2  0
  9 10  1  0
 10 12  1  0
 11 10  2  0
 12 13  1  0
 13 14  1  0
 14 15  1  0
 16 15  1  6
 16 18  1  0
 16 17  1  0
 17  7  1  0
 18 27  1  0
 19 18  2  0
 21 22  2  0
 21 20  1  0
 23 22  1  0
 24 23  2  0
 25 24  1  0
 26 25  1  6
 27 26  1  0
 28 29  1  0
 28 26  1  0
 30 24  1  0
 30 31  2  0
 31 21  1  0
 32 28  2  0
M  END
$$$$
