LSG.pdb
     RDKit          3D

 19 18  0  0  1  0  0  0  0  0999 V2000
   16.1431  -10.7987  -18.6906 C   0  0  0  0  0  0  0  0  0  0  0  0
   15.6038  -11.1258  -17.2760 C   0  0  2  0  0  0  0  0  0  0  0  0
   14.2234  -10.5130  -17.2201 C   0  0  0  0  0  0  0  0  0  0  0  0
   16.5156  -10.5275  -16.2574 C   0  0  0  0  0  0  0  0  0  0  0  0
   17.8842  -11.1055  -16.3392 C   0  0  2  0  0  0  0  0  0  0  0  0
   17.7448  -12.4719  -15.7482 N   0  0  0  0  0  0  0  0  0  0  0  0
   18.9099  -10.4522  -15.5258 C   0  0  0  0  0  0  0  0  0  0  0  0
   18.8779  -10.4971  -14.2721 O   0  0  0  0  0  0  0  0  0  0  0  0
   23.4391   -9.3057  -14.9440 O   0  0  0  0  0  0  0  0  0  0  0  0
   22.3875   -9.8417  -15.6866 C   0  0  0  0  0  0  0  0  0  0  0  0
   21.0721   -9.1703  -15.3978 C   0  0  2  0  0  0  0  0  0  0  0  0
   19.9682   -9.7551  -16.1207 N   0  0  0  0  0  0  0  0  0  0  0  0
   21.1849   -7.7372  -15.6765 C   0  0  0  0  0  0  0  0  0  0  0  0
   20.9717   -7.2954  -16.8358 O   0  0  0  0  0  0  0  0  0  0  0  0
   21.5385   -6.7946  -14.6500 N   0  0  0  0  0  0  0  0  0  0  0  0
   21.5720   -5.4090  -14.9946 C   0  0  0  0  0  0  0  0  0  0  0  0
   21.9077   -4.5201  -13.8862 C   0  0  0  0  0  0  0  0  0  0  0  0
   22.0313   -3.1445  -13.9967 O   0  0  0  0  0  0  0  0  0  0  0  0
   22.0998   -5.0254  -12.7501 O   0  0  0  0  0  0  0  0  0  0  0  0
  2  1  1  6
  2  3  1  0
  2  4  1  0
  5  4  1  0
  5  6  1  1
  7  8  2  0
  7  5  1  0
  9 10  1  0
 11 10  1  6
 11 12  1  0
 12  7  1  0
 13 11  1  0
 13 15  1  0
 14 13  2  0
 16 15  1  0
 16 17  1  0
 17 19  2  0
 17 18  1  0
M  END
$$$$
