LSG.pdb
     RDKit          3D

 19 18  0  0  1  0  0  0  0  0999 V2000
   23.0098  -10.0943  -19.2414 C   0  0  0  0  0  0  0  0  0  0  0  0
   21.8448  -10.7536  -18.4623 C   0  0  2  0  0  0  0  0  0  0  0  0
   21.0135  -11.4632  -19.5061 C   0  0  0  0  0  0  0  0  0  0  0  0
   21.0645   -9.6911  -17.7631 C   0  0  0  0  0  0  0  0  0  0  0  0
   21.9108   -8.9287  -16.8059 C   0  0  2  0  0  0  0  0  0  0  0  0
   22.2072   -9.9064  -15.7140 N   0  0  0  0  0  0  0  0  0  0  0  0
   21.2661   -7.8023  -16.1304 C   0  0  0  0  0  0  0  0  0  0  0  0
   20.7199   -6.8765  -16.7780 O   0  0  0  0  0  0  0  0  0  0  0  0
   19.0770   -7.9725  -12.6969 O   0  0  0  0  0  0  0  0  0  0  0  0
   20.1363   -7.0680  -12.6310 C   0  0  0  0  0  0  0  0  0  0  0  0
   20.6226   -6.6441  -13.9905 C   0  0  2  0  0  0  0  0  0  0  0  0
   21.2333   -7.7205  -14.7333 N   0  0  0  0  0  0  0  0  0  0  0  0
   21.5420   -5.5133  -13.8485 C   0  0  0  0  0  0  0  0  0  0  0  0
   22.7825   -5.7085  -13.7609 O   0  0  0  0  0  0  0  0  0  0  0  0
   21.0679   -4.1566  -13.8046 N   0  0  0  0  0  0  0  0  0  0  0  0
   22.0350   -3.1117  -13.6918 C   0  0  0  0  0  0  0  0  0  0  0  0
   22.1812   -2.2935  -14.8920 C   0  0  0  0  0  0  0  0  0  0  0  0
   23.0208   -1.1960  -14.9928 O   0  0  0  0  0  0  0  0  0  0  0  0
   21.5047   -2.5955  -15.9090 O   0  0  0  0  0  0  0  0  0  0  0  0
  2  1  1  6
  2  3  1  0
  2  4  1  0
  5  4  1  0
  5  6  1  1
  7  8  2  0
  7  5  1  0
  9 10  1  0
 11 10  1  1
 11 12  1  0
 12  7  1  0
 13 11  1  0
 13 15  1  0
 14 13  2  0
 16 15  1  0
 16 17  1  0
 17 19  2  0
 17 18  1  0
M  END
$$$$
