LSG.pdb
     RDKit          3D

 19 18  0  0  1  0  0  0  0  0999 V2000
   27.3840  -17.9772  -17.7647 C   0  0  0  0  0  0  0  0  0  0  0  0
   28.4625  -18.5785  -16.8297 C   0  0  2  0  0  0  0  0  0  0  0  0
   29.5306  -19.1266  -17.7479 C   0  0  0  0  0  0  0  0  0  0  0  0
   27.8428  -19.6528  -15.9999 C   0  0  0  0  0  0  0  0  0  0  0  0
   26.6912  -19.1401  -15.2094 C   0  0  2  0  0  0  0  0  0  0  0  0
   27.3223  -18.3940  -14.0775 N   0  0  0  0  0  0  0  0  0  0  0  0
   25.8504  -20.1495  -14.5655 C   0  0  0  0  0  0  0  0  0  0  0  0
   25.2675  -21.0382  -15.2329 O   0  0  0  0  0  0  0  0  0  0  0  0
   25.2104  -19.9844  -10.3629 O   0  0  0  0  0  0  0  0  0  0  0  0
   25.2043  -21.2209  -11.0075 C   0  0  0  0  0  0  0  0  0  0  0  0
   24.8507  -21.1129  -12.4662 C   0  0  2  0  0  0  0  0  0  0  0  0
   25.6697  -20.1607  -13.1774 N   0  0  0  0  0  0  0  0  0  0  0  0
   23.4288  -20.7896  -12.6004 C   0  0  0  0  0  0  0  0  0  0  0  0
   23.0562  -19.5927  -12.7148 O   0  0  0  0  0  0  0  0  0  0  0  0
   22.4197  -21.8137  -12.6063 N   0  0  0  0  0  0  0  0  0  0  0  0
   21.0745  -21.4279  -12.8913 C   0  0  0  0  0  0  0  0  0  0  0  0
   20.2123  -21.3349  -11.7168 C   0  0  0  0  0  0  0  0  0  0  0  0
   18.8707  -20.9909  -11.7567 O   0  0  0  0  0  0  0  0  0  0  0  0
   20.7095  -21.5814  -10.5877 O   0  0  0  0  0  0  0  0  0  0  0  0
  2  1  1  6
  2  3  1  0
  2  4  1  0
  5  4  1  0
  5  6  1  1
  7  8  2  0
  7  5  1  0
  9 10  1  0
 11 10  1  1
 11 12  1  0
 12  7  1  0
 13 11  1  0
 13 15  1  0
 14 13  2  0
 16 15  1  0
 16 17  1  0
 17 19  2  0
 17 18  1  0
M  END
$$$$
