LSG.pdb
     RDKit          3D

 19 18  0  0  1  0  0  0  0  0999 V2000
   22.5384  -11.8312  -19.2548 C   0  0  0  0  0  0  0  0  0  0  0  0
   21.1405  -11.4312  -19.7886 C   0  0  2  0  0  0  0  0  0  0  0  0
   21.3633  -11.0085  -21.2224 C   0  0  0  0  0  0  0  0  0  0  0  0
   20.6051  -10.3121  -18.9594 C   0  0  0  0  0  0  0  0  0  0  0  0
   20.3793  -10.7325  -17.5502 C   0  0  2  0  0  0  0  0  0  0  0  0
   19.1938  -11.6412  -17.6205 N   0  0  0  0  0  0  0  0  0  0  0  0
   19.9830   -9.6770  -16.6178 C   0  0  0  0  0  0  0  0  0  0  0  0
   18.8341   -9.1731  -16.6496 O   0  0  0  0  0  0  0  0  0  0  0  0
   20.2509   -7.5867  -12.3880 O   0  0  0  0  0  0  0  0  0  0  0  0
   20.6351   -8.5864  -13.2810 C   0  0  0  0  0  0  0  0  0  0  0  0
   20.5729   -8.1375  -14.7160 C   0  0  2  0  0  0  0  0  0  0  0  0
   20.8741   -9.1939  -15.6523 N   0  0  0  0  0  0  0  0  0  0  0  0
   21.4654   -6.9926  -14.9077 C   0  0  0  0  0  0  0  0  0  0  0  0
   22.6754   -7.1714  -15.2052 O   0  0  0  0  0  0  0  0  0  0  0  0
   20.9986   -5.6401  -14.7651 N   0  0  0  0  0  0  0  0  0  0  0  0
   21.9167   -4.5814  -15.0406 C   0  0  0  0  0  0  0  0  0  0  0  0
   21.3298   -3.2456  -14.9878 C   0  0  0  0  0  0  0  0  0  0  0  0
   19.9873   -2.9897  -14.7604 O   0  0  0  0  0  0  0  0  0  0  0  0
   22.0837   -2.2529  -15.1588 O   0  0  0  0  0  0  0  0  0  0  0  0
  2  1  1  1
  2  3  1  0
  2  4  1  0
  5  4  1  0
  5  6  1  6
  7  8  2  0
  7  5  1  0
  9 10  1  0
 11 10  1  1
 11 12  1  0
 12  7  1  0
 13 11  1  0
 13 15  1  0
 14 13  2  0
 16 15  1  0
 16 17  1  0
 17 19  2  0
 17 18  1  0
M  END
$$$$
