LSG.pdb
     RDKit          3D

 19 18  0  0  1  0  0  0  0  0999 V2000
   17.7139   -9.8320  -19.0179 C   0  0  0  0  0  0  0  0  0  0  0  0
   19.0381   -9.4216  -18.3273 C   0  0  2  0  0  0  0  0  0  0  0  0
   20.1148  -10.2375  -19.0047 C   0  0  0  0  0  0  0  0  0  0  0  0
   18.9437   -9.7320  -16.8708 C   0  0  0  0  0  0  0  0  0  0  0  0
   20.1461   -9.2629  -16.1306 C   0  0  2  0  0  0  0  0  0  0  0  0
   20.5976  -10.4621  -15.3600 N   0  0  0  0  0  0  0  0  0  0  0  0
   19.9180   -8.2339  -15.1158 C   0  0  0  0  0  0  0  0  0  0  0  0
   19.0311   -8.3657  -14.2379 O   0  0  0  0  0  0  0  0  0  0  0  0
   22.7244   -5.9176  -13.3088 O   0  0  0  0  0  0  0  0  0  0  0  0
   21.3744   -6.0132  -12.9726 C   0  0  0  0  0  0  0  0  0  0  0  0
   20.4723   -5.9658  -14.1761 C   0  0  2  0  0  0  0  0  0  0  0  0
   20.6869   -7.0645  -15.0871 N   0  0  0  0  0  0  0  0  0  0  0  0
   20.6329   -4.6784  -14.8552 C   0  0  0  0  0  0  0  0  0  0  0  0
   21.4880   -4.5431  -15.7691 O   0  0  0  0  0  0  0  0  0  0  0  0
   19.8306   -3.5370  -14.5078 N   0  0  0  0  0  0  0  0  0  0  0  0
   20.1183   -2.2945  -15.1505 C   0  0  0  0  0  0  0  0  0  0  0  0
   19.1501   -1.2364  -14.8778 C   0  0  0  0  0  0  0  0  0  0  0  0
   19.3076    0.0857  -15.2615 O   0  0  0  0  0  0  0  0  0  0  0  0
   18.0988   -1.5327  -14.2534 O   0  0  0  0  0  0  0  0  0  0  0  0
  2  1  1  6
  2  3  1  0
  2  4  1  0
  5  4  1  0
  5  6  1  1
  7  8  2  0
  7  5  1  0
  9 10  1  0
 11 10  1  1
 11 12  1  0
 12  7  1  0
 13 11  1  0
 13 15  1  0
 14 13  2  0
 16 15  1  0
 16 17  1  0
 17 19  2  0
 17 18  1  0
M  END
$$$$
