LSG.pdb
     RDKit          3D

 19 18  0  0  1  0  0  0  0  0999 V2000
   17.6418  -11.4309  -16.0691 C   0  0  0  0  0  0  0  0  0  0  0  0
   19.1131  -11.4782  -15.5877 C   0  0  2  0  0  0  0  0  0  0  0  0
   19.2512  -12.7867  -14.8442 C   0  0  0  0  0  0  0  0  0  0  0  0
   19.3721  -10.3078  -14.6989 C   0  0  0  0  0  0  0  0  0  0  0  0
   19.2275   -9.0205  -15.4308 C   0  0  2  0  0  0  0  0  0  0  0  0
   20.3625   -9.0187  -16.4042 N   0  0  0  0  0  0  0  0  0  0  0  0
   19.4151   -7.8041  -14.6397 C   0  0  0  0  0  0  0  0  0  0  0  0
   18.7317   -7.5804  -13.6112 O   0  0  0  0  0  0  0  0  0  0  0  0
   22.4049   -6.3448  -12.7415 O   0  0  0  0  0  0  0  0  0  0  0  0
   22.0969   -5.5393  -13.8374 C   0  0  0  0  0  0  0  0  0  0  0  0
   20.6537   -5.6481  -14.2498 C   0  0  2  0  0  0  0  0  0  0  0  0
   20.3696   -6.8465  -15.0024 N   0  0  0  0  0  0  0  0  0  0  0  0
   20.2698   -4.4507  -15.0003 C   0  0  0  0  0  0  0  0  0  0  0  0
   20.3860   -4.4202  -16.2533 O   0  0  0  0  0  0  0  0  0  0  0  0
   19.7528   -3.2815  -14.3422 N   0  0  0  0  0  0  0  0  0  0  0  0
   19.4854   -2.1268  -15.1388 C   0  0  0  0  0  0  0  0  0  0  0  0
   18.0755   -1.9321  -15.4641 C   0  0  0  0  0  0  0  0  0  0  0  0
   17.5738   -0.8323  -16.1411 O   0  0  0  0  0  0  0  0  0  0  0  0
   17.2518   -2.8153  -15.1113 O   0  0  0  0  0  0  0  0  0  0  0  0
  2  1  1  1
  2  3  1  0
  2  4  1  0
  5  4  1  0
  5  6  1  6
  7  8  2  0
  7  5  1  0
  9 10  1  0
 11 10  1  6
 11 12  1  0
 12  7  1  0
 13 11  1  0
 13 15  1  0
 14 13  2  0
 16 15  1  0
 16 17  1  0
 17 19  2  0
 17 18  1  0
M  END
$$$$
