LSG.pdb
     RDKit          3D

 19 18  0  0  1  0  0  0  0  0999 V2000
   19.6705  -11.0900  -17.6702 C   0  0  0  0  0  0  0  0  0  0  0  0
   20.1926  -11.2951  -16.2265 C   0  0  2  0  0  0  0  0  0  0  0  0
   19.4361  -12.4889  -15.6910 C   0  0  0  0  0  0  0  0  0  0  0  0
   19.9170  -10.0637  -15.4300 C   0  0  0  0  0  0  0  0  0  0  0  0
   20.5906   -8.8715  -16.0119 C   0  0  2  0  0  0  0  0  0  0  0  0
   22.0279   -9.0375  -15.6345 N   0  0  0  0  0  0  0  0  0  0  0  0
   20.2069   -7.5759  -15.4510 C   0  0  0  0  0  0  0  0  0  0  0  0
   19.0061   -7.2148  -15.3993 O   0  0  0  0  0  0  0  0  0  0  0  0
   22.5701   -5.4491  -12.7439 O   0  0  0  0  0  0  0  0  0  0  0  0
   21.2334   -5.1650  -13.0213 C   0  0  0  0  0  0  0  0  0  0  0  0
   20.8883   -5.3591  -14.4731 C   0  0  2  0  0  0  0  0  0  0  0  0
   21.1695   -6.6930  -14.9475 N   0  0  0  0  0  0  0  0  0  0  0  0
   21.5864   -4.3549  -15.2784 C   0  0  0  0  0  0  0  0  0  0  0  0
   22.6611   -4.6450  -15.8662 O   0  0  0  0  0  0  0  0  0  0  0  0
   21.0766   -3.0186  -15.4255 N   0  0  0  0  0  0  0  0  0  0  0  0
   21.8343   -2.0941  -16.2071 C   0  0  0  0  0  0  0  0  0  0  0  0
   21.3146   -0.7298  -16.1987 C   0  0  0  0  0  0  0  0  0  0  0  0
   21.9522    0.3535  -16.7815 O   0  0  0  0  0  0  0  0  0  0  0  0
   20.2154   -0.5110  -15.6271 O   0  0  0  0  0  0  0  0  0  0  0  0
  2  1  1  6
  2  3  1  0
  2  4  1  0
  5  4  1  0
  5  6  1  1
  7  8  2  0
  7  5  1  0
  9 10  1  0
 11 10  1  1
 11 12  1  0
 12  7  1  0
 13 11  1  0
 13 15  1  0
 14 13  2  0
 16 15  1  0
 16 17  1  0
 17 19  2  0
 17 18  1  0
M  END
$$$$
