LSG.pdb
     RDKit          3D

 19 18  0  0  1  0  0  0  0  0999 V2000
   27.1955  -12.6259  -15.0549 C   0  0  0  0  0  0  0  0  0  0  0  0
   26.7064  -12.5624  -16.5231 C   0  0  2  0  0  0  0  0  0  0  0  0
   27.9515  -12.3508  -17.3530 C   0  0  0  0  0  0  0  0  0  0  0  0
   25.7468  -11.4287  -16.6675 C   0  0  0  0  0  0  0  0  0  0  0  0
   24.4682  -11.6980  -15.9561 C   0  0  2  0  0  0  0  0  0  0  0  0
   23.9764  -12.9788  -16.5508 N   0  0  0  0  0  0  0  0  0  0  0  0
   23.3863  -10.7411  -16.1894 C   0  0  0  0  0  0  0  0  0  0  0  0
   22.5966  -10.8690  -17.1562 O   0  0  0  0  0  0  0  0  0  0  0  0
   19.7352   -8.3756  -15.5917 O   0  0  0  0  0  0  0  0  0  0  0  0
   20.7579   -9.3091  -15.4272 C   0  0  0  0  0  0  0  0  0  0  0  0
   22.1262   -8.6843  -15.4708 C   0  0  2  0  0  0  0  0  0  0  0  0
   23.1923   -9.6480  -15.3367 N   0  0  0  0  0  0  0  0  0  0  0  0
   22.2210   -7.6464  -14.4422 C   0  0  0  0  0  0  0  0  0  0  0  0
   22.5140   -7.9503  -13.2563 O   0  0  0  0  0  0  0  0  0  0  0  0
   21.9861   -6.2606  -14.7450 N   0  0  0  0  0  0  0  0  0  0  0  0
   22.0089   -5.3252  -13.6660 C   0  0  0  0  0  0  0  0  0  0  0  0
   21.8192   -3.9350  -14.0693 C   0  0  0  0  0  0  0  0  0  0  0  0
   21.7808   -2.8642  -13.1908 O   0  0  0  0  0  0  0  0  0  0  0  0
   21.6801   -3.6800  -15.2934 O   0  0  0  0  0  0  0  0  0  0  0  0
  2  1  1  1
  2  3  1  0
  2  4  1  0
  5  4  1  0
  5  6  1  6
  7  8  2  0
  7  5  1  0
  9 10  1  0
 11 10  1  1
 11 12  1  0
 12  7  1  0
 13 11  1  0
 13 15  1  0
 14 13  2  0
 16 15  1  0
 16 17  1  0
 17 19  2  0
 17 18  1  0
M  END
$$$$
