LSG.pdb
     RDKit          3D

 19 18  0  0  1  0  0  0  0  0999 V2000
   27.3506  -11.3997  -15.9491 C   0  0  0  0  0  0  0  0  0  0  0  0
   25.9830  -12.0080  -16.3475 C   0  0  2  0  0  0  0  0  0  0  0  0
   26.3109  -13.1995  -17.2176 C   0  0  0  0  0  0  0  0  0  0  0  0
   25.1922  -10.9830  -17.0895 C   0  0  0  0  0  0  0  0  0  0  0  0
   24.8288   -9.8334  -16.2176 C   0  0  2  0  0  0  0  0  0  0  0  0
   24.1235  -10.4580  -15.0564 N   0  0  0  0  0  0  0  0  0  0  0  0
   23.8632   -8.8839  -16.7713 C   0  0  0  0  0  0  0  0  0  0  0  0
   24.0835   -8.2798  -17.8489 O   0  0  0  0  0  0  0  0  0  0  0  0
   20.0111   -8.3785  -14.9577 O   0  0  0  0  0  0  0  0  0  0  0  0
   20.2455   -8.1628  -16.3153 C   0  0  0  0  0  0  0  0  0  0  0  0
   21.6496   -7.6991  -16.5949 C   0  0  2  0  0  0  0  0  0  0  0  0
   22.6543   -8.6187  -16.1171 N   0  0  0  0  0  0  0  0  0  0  0  0
   21.8440   -6.3636  -16.0268 C   0  0  0  0  0  0  0  0  0  0  0  0
   21.1701   -5.3878  -16.4490 O   0  0  0  0  0  0  0  0  0  0  0  0
   22.7991   -6.1211  -14.9797 N   0  0  0  0  0  0  0  0  0  0  0  0
   22.9399   -4.7844  -14.4970 C   0  0  0  0  0  0  0  0  0  0  0  0
   21.9383   -4.3911  -13.5104 C   0  0  0  0  0  0  0  0  0  0  0  0
   21.8749   -3.1412  -12.9158 O   0  0  0  0  0  0  0  0  0  0  0  0
   21.0695   -5.2349  -13.1695 O   0  0  0  0  0  0  0  0  0  0  0  0
  2  1  1  6
  2  3  1  0
  2  4  1  0
  5  4  1  0
  5  6  1  1
  7  8  2  0
  7  5  1  0
  9 10  1  0
 11 10  1  1
 11 12  1  0
 12  7  1  0
 13 11  1  0
 13 15  1  0
 14 13  2  0
 16 15  1  0
 16 17  1  0
 17 19  2  0
 17 18  1  0
M  END
$$$$
