LSG.pdb
     RDKit          3D

 19 18  0  0  1  0  0  0  0  0999 V2000
   28.3220  -25.3392  -19.6577 C   0  0  0  0  0  0  0  0  0  0  0  0
   27.1200  -24.3659  -19.5749 C   0  0  2  0  0  0  0  0  0  0  0  0
   27.5674  -23.1125  -20.2911 C   0  0  0  0  0  0  0  0  0  0  0  0
   26.8067  -24.1006  -18.1403 C   0  0  0  0  0  0  0  0  0  0  0  0
   27.6023  -22.9624  -17.6062 C   0  0  2  0  0  0  0  0  0  0  0  0
   28.7670  -23.6108  -16.9286 N   0  0  0  0  0  0  0  0  0  0  0  0
   26.9630  -22.1627  -16.5611 C   0  0  0  0  0  0  0  0  0  0  0  0
   26.9226  -22.5547  -15.3697 O   0  0  0  0  0  0  0  0  0  0  0  0
   26.3087  -18.0057  -16.9571 O   0  0  0  0  0  0  0  0  0  0  0  0
   26.3373  -18.7237  -15.7620 C   0  0  0  0  0  0  0  0  0  0  0  0
   25.7104  -20.0858  -15.8885 C   0  0  2  0  0  0  0  0  0  0  0  0
   26.3755  -20.9266  -16.8551 N   0  0  0  0  0  0  0  0  0  0  0  0
   24.2884  -19.9404  -16.2061 C   0  0  0  0  0  0  0  0  0  0  0  0
   23.9109  -19.8334  -17.4022 O   0  0  0  0  0  0  0  0  0  0  0  0
   23.2845  -19.9149  -15.1771 N   0  0  0  0  0  0  0  0  0  0  0  0
   21.9340  -19.6579  -15.5640 C   0  0  0  0  0  0  0  0  0  0  0  0
   20.9860  -19.6190  -14.4545 C   0  0  0  0  0  0  0  0  0  0  0  0
   19.6358  -19.3382  -14.5888 O   0  0  0  0  0  0  0  0  0  0  0  0
   21.4118  -19.8544  -13.2942 O   0  0  0  0  0  0  0  0  0  0  0  0
  2  1  1  1
  2  3  1  0
  2  4  1  0
  5  4  1  0
  5  6  1  1
  7  8  2  0
  7  5  1  0
  9 10  1  0
 11 10  1  6
 11 12  1  0
 12  7  1  0
 13 11  1  0
 13 15  1  0
 14 13  2  0
 16 15  1  0
 16 17  1  0
 17 19  2  0
 17 18  1  0
M  END
$$$$
