LSG.pdb
     RDKit          3D

 19 18  0  0  1  0  0  0  0  0999 V2000
   20.2174  -14.5544  -16.6156 C   0  0  0  0  0  0  0  0  0  0  0  0
   19.0341  -13.9817  -17.4347 C   0  0  2  0  0  0  0  0  0  0  0  0
   19.0542  -14.7300  -18.7476 C   0  0  0  0  0  0  0  0  0  0  0  0
   19.2417  -12.5170  -17.6303 C   0  0  0  0  0  0  0  0  0  0  0  0
   19.4578  -11.8157  -16.3360 C   0  0  2  0  0  0  0  0  0  0  0  0
   18.1238  -11.8631  -15.6622 N   0  0  0  0  0  0  0  0  0  0  0  0
   19.7806  -10.3912  -16.4203 C   0  0  0  0  0  0  0  0  0  0  0  0
   20.8447   -9.9916  -16.9521 O   0  0  0  0  0  0  0  0  0  0  0  0
   18.0542   -5.8494  -16.2954 O   0  0  0  0  0  0  0  0  0  0  0  0
   17.8407   -7.2234  -16.1907 C   0  0  0  0  0  0  0  0  0  0  0  0
   19.1191   -7.9972  -16.0131 C   0  0  2  0  0  0  0  0  0  0  0  0
   18.9084   -9.4215  -15.9118 N   0  0  0  0  0  0  0  0  0  0  0  0
   19.8398   -7.4863  -14.8452 C   0  0  0  0  0  0  0  0  0  0  0  0
   19.7113   -8.0437  -13.7239 O   0  0  0  0  0  0  0  0  0  0  0  0
   20.7092   -6.3447  -14.9353 N   0  0  0  0  0  0  0  0  0  0  0  0
   21.3823   -5.9192  -13.7497 C   0  0  0  0  0  0  0  0  0  0  0  0
   22.2914   -4.7935  -13.9437 C   0  0  0  0  0  0  0  0  0  0  0  0
   22.9963   -4.1729  -12.9250 O   0  0  0  0  0  0  0  0  0  0  0  0
   22.4538   -4.3486  -15.1093 O   0  0  0  0  0  0  0  0  0  0  0  0
  2  1  1  1
  2  3  1  0
  2  4  1  0
  5  4  1  0
  5  6  1  1
  7  8  2  0
  7  5  1  0
  9 10  1  0
 11 10  1  1
 11 12  1  0
 12  7  1  0
 13 11  1  0
 13 15  1  0
 14 13  2  0
 16 15  1  0
 16 17  1  0
 17 19  2  0
 17 18  1  0
M  END
$$$$
