LSG.pdb
     RDKit          3D

 19 18  0  0  1  0  0  0  0  0999 V2000
   19.1571  -12.7845  -19.8730 C   0  0  0  0  0  0  0  0  0  0  0  0
   18.1628  -13.0074  -18.7067 C   0  0  2  0  0  0  0  0  0  0  0  0
   16.9537  -13.6666  -19.3293 C   0  0  0  0  0  0  0  0  0  0  0  0
   17.8213  -11.6877  -18.0996 C   0  0  0  0  0  0  0  0  0  0  0  0
   19.0130  -11.0402  -17.4879 C   0  0  2  0  0  0  0  0  0  0  0  0
   19.3673  -11.9281  -16.3382 N   0  0  0  0  0  0  0  0  0  0  0  0
   18.7949   -9.7242  -16.8870 C   0  0  0  0  0  0  0  0  0  0  0  0
   18.3161   -8.7728  -17.5507 O   0  0  0  0  0  0  0  0  0  0  0  0
   18.3023   -9.2101  -12.8266 O   0  0  0  0  0  0  0  0  0  0  0  0
   18.0455   -8.1906  -13.7427 C   0  0  0  0  0  0  0  0  0  0  0  0
   19.0077   -8.1945  -14.8997 C   0  0  2  0  0  0  0  0  0  0  0  0
   19.1107   -9.4815  -15.5450 N   0  0  0  0  0  0  0  0  0  0  0  0
   20.3185   -7.7262  -14.4450 C   0  0  0  0  0  0  0  0  0  0  0  0
   21.2614   -8.5422  -14.2724 O   0  0  0  0  0  0  0  0  0  0  0  0
   20.5734   -6.3357  -14.1825 N   0  0  0  0  0  0  0  0  0  0  0  0
   21.8795   -5.9654  -13.7391 C   0  0  0  0  0  0  0  0  0  0  0  0
   22.0860   -4.5262  -13.6077 C   0  0  0  0  0  0  0  0  0  0  0  0
   23.2119   -3.9457  -13.0462 O   0  0  0  0  0  0  0  0  0  0  0  0
   21.1888   -3.7513  -14.0289 O   0  0  0  0  0  0  0  0  0  0  0  0
  2  1  1  6
  2  3  1  0
  2  4  1  0
  5  4  1  0
  5  6  1  1
  7  8  2  0
  7  5  1  0
  9 10  1  0
 11 10  1  1
 11 12  1  0
 12  7  1  0
 13 11  1  0
 13 15  1  0
 14 13  2  0
 16 15  1  0
 16 17  1  0
 17 19  2  0
 17 18  1  0
M  END
$$$$
