LSG.pdb
     RDKit          3D

 19 18  0  0  1  0  0  0  0  0999 V2000
   20.2138  -19.6092    4.8946 C   0  0  0  0  0  0  0  0  0  0  0  0
   20.4325  -19.1316    6.3517 C   0  0  2  0  0  0  0  0  0  0  0  0
   21.8484  -18.6047    6.3941 C   0  0  0  0  0  0  0  0  0  0  0  0
   20.2454  -20.2881    7.2760 C   0  0  0  0  0  0  0  0  0  0  0  0
   18.8569  -20.8192    7.2162 C   0  0  2  0  0  0  0  0  0  0  0  0
   18.0309  -19.7730    7.8939 N   0  0  0  0  0  0  0  0  0  0  0  0
   18.6013  -22.0433    7.9757 C   0  0  0  0  0  0  0  0  0  0  0  0
   18.4272  -22.0183    9.2182 O   0  0  0  0  0  0  0  0  0  0  0  0
   15.9630  -24.7460    7.5853 O   0  0  0  0  0  0  0  0  0  0  0  0
   17.2074  -25.3550    7.4264 C   0  0  0  0  0  0  0  0  0  0  0  0
   18.3293  -24.5451    8.0180 C   0  0  2  0  0  0  0  0  0  0  0  0
   18.5383  -23.2885    7.3392 N   0  0  0  0  0  0  0  0  0  0  0  0
   19.5544  -25.3470    8.0321 C   0  0  0  0  0  0  0  0  0  0  0  0
   20.2624  -25.4461    6.9960 O   0  0  0  0  0  0  0  0  0  0  0  0
   19.9879  -26.0413    9.2142 N   0  0  0  0  0  0  0  0  0  0  0  0
   21.2807  -26.6480    9.1995 C   0  0  0  0  0  0  0  0  0  0  0  0
   21.2684  -28.0874    8.9562 C   0  0  0  0  0  0  0  0  0  0  0  0
   22.4046  -28.8756    8.8691 O   0  0  0  0  0  0  0  0  0  0  0  0
   20.1579  -28.6616    8.8146 O   0  0  0  0  0  0  0  0  0  0  0  0
  2  1  1  6
  2  3  1  0
  2  4  1  0
  5  4  1  0
  5  6  1  1
  7  8  2  0
  7  5  1  0
  9 10  1  0
 11 10  1  6
 11 12  1  0
 12  7  1  0
 13 11  1  0
 13 15  1  0
 14 13  2  0
 16 15  1  0
 16 17  1  0
 17 19  2  0
 17 18  1  0
M  END
$$$$
