EIW.pdb
     RDKit          3D

 32 33  0  0  1  0  0  0  0  0999 V2000
    9.5031  -19.0521   18.3867 N   0  0  0  0  0  0  0  0  0  0  0  0
    9.2263  -18.8966   19.8058 C   0  0  1  0  0  0  0  0  0  0  0  0
    9.9149  -20.0506   20.4901 C   0  0  0  0  0  0  0  0  0  0  0  0
    9.1633  -21.3366   20.4265 C   0  0  0  0  0  0  0  0  0  0  0  0
    9.7827  -22.3159   21.3554 C   0  0  0  0  0  0  0  0  0  0  0  0
    9.6682  -22.1324   22.5869 O   0  0  0  0  0  0  0  0  0  0  0  0
    9.6163  -17.5715   20.3048 C   0  0  0  0  0  0  0  0  0  0  0  0
   10.7094  -17.0683   19.9483 O   0  0  0  0  0  0  0  0  0  0  0  0
   10.4842  -23.4276   20.8468 O   0  0  0  0  0  0  0  0  0  0  0  0
    6.6402  -13.4134   19.6696 C   0  0  0  0  0  0  0  0  0  0  0  0
    7.7723  -14.3946   19.8697 C   0  0  0  0  0  0  0  0  0  0  0  0
    8.0905  -14.4746   21.3442 C   0  0  2  0  0  0  0  0  0  0  0  0
    8.4053  -13.1358   21.9517 C   0  0  0  0  0  0  0  0  0  0  0  0
    9.1529  -15.5014   21.6377 C   0  0  2  0  0  0  0  0  0  0  0  0
    8.7679  -16.8204   21.2062 N   0  0  0  0  0  0  0  0  0  0  0  0
    9.5732  -15.4797   23.0635 C   0  0  0  0  0  0  0  0  0  0  0  0
   10.2949  -14.5368   23.4613 O   0  0  0  0  0  0  0  0  0  0  0  0
    9.1952  -16.4752   23.9921 N   0  0  0  0  0  0  0  0  0  0  0  0
    9.6993  -16.5870   25.3523 C   0  0  1  0  0  0  0  0  0  0  0  0
    8.6199  -16.5494   26.3529 C   0  0  0  0  0  0  0  0  0  0  0  0
    7.5958  -15.5307   26.0811 C   0  0  0  0  0  0  0  0  0  0  0  0
    6.3460  -15.7048   25.4784 C   0  0  0  0  0  0  0  0  0  0  0  0
    5.7060  -14.5290   25.3717 N   0  0  0  0  0  0  0  0  0  0  0  0
    6.4885  -13.5651   25.8869 C   0  0  0  0  0  0  0  0  0  0  0  0
    6.2675  -12.1958   26.0243 C   0  0  0  0  0  0  0  0  0  0  0  0
    7.2270  -11.3791   26.6189 C   0  0  0  0  0  0  0  0  0  0  0  0
    8.3769  -11.9891   27.0515 C   0  0  0  0  0  0  0  0  0  0  0  0
    8.5983  -13.3448   26.9159 C   0  0  0  0  0  0  0  0  0  0  0  0
    7.6494  -14.1532   26.3272 C   0  0  0  0  0  0  0  0  0  0  0  0
   10.6999  -17.6059   25.5665 C   0  0  0  0  0  0  0  0  0  0  0  0
   11.3277  -17.7064   26.6739 O   0  0  0  0  0  0  0  0  0  0  0  0
   11.0655  -18.5596   24.6173 O   0  0  0  0  0  0  0  0  0  0  0  0
  2  1  1  6
  3  2  1  0
  4  5  1  0
  4  3  1  0
  5  6  2  0
  7  8  2  0
  7  2  1  0
  9  5  1  0
 10 11  1  0
 12 11  1  0
 12 14  1  0
 12 13  1  6
 14 15  1  1
 15  7  1  0
 16 14  1  0
 16 18  1  0
 17 16  2  0
 19 18  1  0
 19 30  1  0
 20 21  1  0
 19 20  1  1
 21 29  1  0
 22 21  2  0
 22 23  1  0
 23 24  1  0
 24 25  1  0
 25 26  2  0
 27 26  1  0
 28 27  2  0
 29 24  2  0
 29 28  1  0
 30 32  1  0
 31 30  2  0
M  END
$$$$
