EIW.pdb
     RDKit          3D

 32 33  0  0  1  0  0  0  0  0999 V2000
    8.2158  -18.8605   18.1127 N   0  0  0  0  0  0  0  0  0  0  0  0
    7.8433  -18.6907   19.5081 C   0  0  1  0  0  0  0  0  0  0  0  0
    8.2635  -19.9601   20.2054 C   0  0  0  0  0  0  0  0  0  0  0  0
    7.4321  -21.1498   19.8643 C   0  0  0  0  0  0  0  0  0  0  0  0
    7.8544  -22.3022   20.7004 C   0  0  0  0  0  0  0  0  0  0  0  0
    8.8123  -22.1534   21.4902 O   0  0  0  0  0  0  0  0  0  0  0  0
    8.4049  -17.4630   20.0864 C   0  0  0  0  0  0  0  0  0  0  0  0
    9.6377  -17.2428   20.0042 O   0  0  0  0  0  0  0  0  0  0  0  0
    7.1805  -23.5359   20.5972 O   0  0  0  0  0  0  0  0  0  0  0  0
    6.7541  -12.6502   19.1344 C   0  0  0  0  0  0  0  0  0  0  0  0
    7.4674  -13.9359   19.4851 C   0  0  0  0  0  0  0  0  0  0  0  0
    7.5427  -14.0545   20.9891 C   0  0  2  0  0  0  0  0  0  0  0  0
    8.1943  -12.8668   21.6412 C   0  0  0  0  0  0  0  0  0  0  0  0
    8.1617  -15.3577   21.4225 C   0  0  2  0  0  0  0  0  0  0  0  0
    7.5692  -16.4888   20.7564 N   0  0  0  0  0  0  0  0  0  0  0  0
    8.1586  -15.5143   22.9007 C   0  0  0  0  0  0  0  0  0  0  0  0
    7.3237  -14.8643   23.5706 O   0  0  0  0  0  0  0  0  0  0  0  0
    9.0553  -16.3642   23.5861 N   0  0  0  0  0  0  0  0  0  0  0  0
    9.7611  -16.0240   24.8120 C   0  0  1  0  0  0  0  0  0  0  0  0
    8.8980  -16.1270   26.0004 C   0  0  0  0  0  0  0  0  0  0  0  0
    7.8267  -15.1218   26.0431 C   0  0  0  0  0  0  0  0  0  0  0  0
    6.4607  -15.3080   25.8083 C   0  0  0  0  0  0  0  0  0  0  0  0
    5.8021  -14.1416   25.9059 N   0  0  0  0  0  0  0  0  0  0  0  0
    6.6854  -13.1724   26.2013 C   0  0  0  0  0  0  0  0  0  0  0  0
    6.4950  -11.8091   26.4205 C   0  0  0  0  0  0  0  0  0  0  0  0
    7.5721  -10.9853   26.7402 C   0  0  0  0  0  0  0  0  0  0  0  0
    8.8042  -11.5822   26.8247 C   0  0  0  0  0  0  0  0  0  0  0  0
    8.9954  -12.9319   26.6074 C   0  0  0  0  0  0  0  0  0  0  0  0
    7.9300  -13.7474   26.2906 C   0  0  0  0  0  0  0  0  0  0  0  0
   11.0769  -16.6010   24.9567 C   0  0  0  0  0  0  0  0  0  0  0  0
   11.7894  -16.3929   25.9958 O   0  0  0  0  0  0  0  0  0  0  0  0
   11.6815  -17.4255   24.0086 O   0  0  0  0  0  0  0  0  0  0  0  0
  2  1  1  6
  3  2  1  0
  4  5  1  0
  4  3  1  0
  5  6  2  0
  7  8  2  0
  7  2  1  0
  9  5  1  0
 10 11  1  0
 12 11  1  0
 12 14  1  0
 12 13  1  6
 14 15  1  6
 15  7  1  0
 16 14  1  0
 16 18  1  0
 17 16  2  0
 19 18  1  0
 19 30  1  0
 20 21  1  0
 19 20  1  1
 21 29  1  0
 22 21  2  0
 22 23  1  0
 23 24  1  0
 24 25  1  0
 25 26  2  0
 27 26  1  0
 28 27  2  0
 29 24  2  0
 29 28  1  0
 30 32  1  0
 31 30  2  0
M  END
$$$$
