EIW.pdb
     RDKit          3D

 32 33  0  0  1  0  0  0  0  0999 V2000
   12.0775  -17.5526   17.6554 N   0  0  0  0  0  0  0  0  0  0  0  0
   10.7559  -17.6891   18.2464 C   0  0  1  0  0  0  0  0  0  0  0  0
   10.5632  -19.1646   18.4915 C   0  0  0  0  0  0  0  0  0  0  0  0
   10.4394  -19.9803   17.2497 C   0  0  0  0  0  0  0  0  0  0  0  0
    9.4223  -21.0424   17.4572 C   0  0  0  0  0  0  0  0  0  0  0  0
    9.5749  -22.1419   16.8818 O   0  0  0  0  0  0  0  0  0  0  0  0
   10.5917  -16.8467   19.4382 C   0  0  0  0  0  0  0  0  0  0  0  0
   11.5351  -16.7370   20.2584 O   0  0  0  0  0  0  0  0  0  0  0  0
    8.3100  -20.8041   18.2894 O   0  0  0  0  0  0  0  0  0  0  0  0
    7.2633  -12.4699   19.3504 C   0  0  0  0  0  0  0  0  0  0  0  0
    8.4407  -13.3971   19.5471 C   0  0  0  0  0  0  0  0  0  0  0  0
    8.1759  -14.2692   20.7517 C   0  0  2  0  0  0  0  0  0  0  0  0
    7.9861  -13.4815   22.0182 C   0  0  0  0  0  0  0  0  0  0  0  0
    9.2095  -15.3547   20.9012 C   0  0  2  0  0  0  0  0  0  0  0  0
    9.3598  -16.1315   19.6977 N   0  0  0  0  0  0  0  0  0  0  0  0
    8.9553  -16.2094   22.0906 C   0  0  0  0  0  0  0  0  0  0  0  0
    8.0365  -17.0584   22.0332 O   0  0  0  0  0  0  0  0  0  0  0  0
    9.7038  -16.1083   23.2846 N   0  0  0  0  0  0  0  0  0  0  0  0
    9.6185  -17.0294   24.4076 C   0  0  1  0  0  0  0  0  0  0  0  0
    9.6688  -18.4374   23.9801 C   0  0  0  0  0  0  0  0  0  0  0  0
   11.0236  -18.9127   23.6656 C   0  0  0  0  0  0  0  0  0  0  0  0
   12.1941  -18.7327   24.4093 C   0  0  0  0  0  0  0  0  0  0  0  0
   13.2434  -19.2842   23.7781 N   0  0  0  0  0  0  0  0  0  0  0  0
   12.8139  -19.8330   22.6287 C   0  0  0  0  0  0  0  0  0  0  0  0
   13.5091  -20.5315   21.6429 C   0  0  0  0  0  0  0  0  0  0  0  0
   12.8426  -21.0371   20.5288 C   0  0  0  0  0  0  0  0  0  0  0  0
   11.4913  -20.8117   20.4610 C   0  0  0  0  0  0  0  0  0  0  0  0
   10.8007  -20.1198   21.4354 C   0  0  0  0  0  0  0  0  0  0  0  0
   11.4599  -19.6189   22.5379 C   0  0  0  0  0  0  0  0  0  0  0  0
   10.4432  -16.7038   25.5474 C   0  0  0  0  0  0  0  0  0  0  0  0
   11.2670  -15.7286   25.5218 O   0  0  0  0  0  0  0  0  0  0  0  0
   10.4185  -17.3956   26.7578 O   0  0  0  0  0  0  0  0  0  0  0  0
  2  1  1  1
  3  2  1  0
  4  5  1  0
  4  3  1  0
  5  6  2  0
  7  8  2  0
  7  2  1  0
  9  5  1  0
 10 11  1  0
 12 11  1  0
 12 14  1  0
 12 13  1  1
 14 15  1  6
 15  7  1  0
 16 14  1  0
 16 18  1  0
 17 16  2  0
 19 18  1  0
 19 30  1  0
 20 21  1  0
 19 20  1  6
 21 29  1  0
 22 21  2  0
 22 23  1  0
 23 24  1  0
 24 25  1  0
 25 26  2  0
 27 26  1  0
 28 27  2  0
 29 24  2  0
 29 28  1  0
 30 32  1  0
 31 30  2  0
M  END
$$$$
