EIW.pdb
     RDKit          3D

 32 33  0  0  1  0  0  0  0  0999 V2000
   12.5073  -13.8562   18.0641 N   0  0  0  0  0  0  0  0  0  0  0  0
   12.5530  -14.9478   19.0237 C   0  0  1  0  0  0  0  0  0  0  0  0
   14.0094  -15.1359   19.3667 C   0  0  0  0  0  0  0  0  0  0  0  0
   14.7661  -15.9681   18.3882 C   0  0  0  0  0  0  0  0  0  0  0  0
   16.1887  -15.5419   18.3750 C   0  0  0  0  0  0  0  0  0  0  0  0
   16.6343  -14.9033   19.3532 O   0  0  0  0  0  0  0  0  0  0  0  0
   11.6806  -14.7061   20.1803 C   0  0  0  0  0  0  0  0  0  0  0  0
   11.9665  -13.7974   20.9973 O   0  0  0  0  0  0  0  0  0  0  0  0
   17.0116  -15.8572   17.2750 O   0  0  0  0  0  0  0  0  0  0  0  0
    6.6921  -13.8471   19.6402 C   0  0  0  0  0  0  0  0  0  0  0  0
    8.1462  -14.0085   20.0198 C   0  0  0  0  0  0  0  0  0  0  0  0
    8.2388  -14.9479   21.1991 C   0  0  2  0  0  0  0  0  0  0  0  0
    7.4283  -14.4912   22.3802 C   0  0  0  0  0  0  0  0  0  0  0  0
    9.6672  -15.2529   21.5673 C   0  0  2  0  0  0  0  0  0  0  0  0
   10.4876  -15.4942   20.4085 N   0  0  0  0  0  0  0  0  0  0  0  0
    9.7659  -16.3536   22.5616 C   0  0  0  0  0  0  0  0  0  0  0  0
   10.8825  -16.8857   22.7577 O   0  0  0  0  0  0  0  0  0  0  0  0
    8.6566  -16.8277   23.2969 N   0  0  0  0  0  0  0  0  0  0  0  0
    8.6346  -17.0416   24.7359 C   0  0  1  0  0  0  0  0  0  0  0  0
    9.0188  -15.8343   25.4860 C   0  0  0  0  0  0  0  0  0  0  0  0
    7.8774  -15.0058   25.8992 C   0  0  0  0  0  0  0  0  0  0  0  0
    6.5221  -15.3502   25.9108 C   0  0  0  0  0  0  0  0  0  0  0  0
    5.7753  -14.3125   26.3219 N   0  0  0  0  0  0  0  0  0  0  0  0
    6.5888  -13.2765   26.5895 C   0  0  0  0  0  0  0  0  0  0  0  0
    6.3005  -11.9956   27.0577 C   0  0  0  0  0  0  0  0  0  0  0  0
    7.3233  -11.0780   27.2875 C   0  0  0  0  0  0  0  0  0  0  0  0
    8.6030  -11.5005   27.0311 C   0  0  0  0  0  0  0  0  0  0  0  0
    8.8909  -12.7680   26.5667 C   0  0  0  0  0  0  0  0  0  0  0  0
    7.8791  -13.6762   26.3389 C   0  0  0  0  0  0  0  0  0  0  0  0
    7.4785  -17.7400   25.2467 C   0  0  0  0  0  0  0  0  0  0  0  0
    6.3607  -17.7266   24.6296 O   0  0  0  0  0  0  0  0  0  0  0  0
    7.4679  -18.4839   26.4260 O   0  0  0  0  0  0  0  0  0  0  0  0
  2  1  1  6
  3  2  1  0
  4  5  1  0
  4  3  1  0
  5  6  2  0
  7  8  2  0
  7  2  1  0
  9  5  1  0
 10 11  1  0
 12 11  1  0
 12 14  1  0
 12 13  1  1
 14 15  1  6
 15  7  1  0
 16 14  1  0
 16 18  1  0
 17 16  2  0
 19 18  1  0
 19 30  1  0
 20 21  1  0
 19 20  1  1
 21 29  1  0
 22 21  2  0
 22 23  1  0
 23 24  1  0
 24 25  1  0
 25 26  2  0
 27 26  1  0
 28 27  2  0
 29 24  2  0
 29 28  1  0
 30 32  1  0
 31 30  2  0
M  END
$$$$
