EIW.pdb
     RDKit          3D

 32 33  0  0  1  0  0  0  0  0999 V2000
   10.6872  -17.5067   17.9398 N   0  0  0  0  0  0  0  0  0  0  0  0
   11.4308  -17.6967   19.1749 C   0  0  1  0  0  0  0  0  0  0  0  0
   12.8873  -17.5756   18.8033 C   0  0  0  0  0  0  0  0  0  0  0  0
   13.4192  -18.7323   18.0275 C   0  0  0  0  0  0  0  0  0  0  0  0
   14.8759  -18.5480   17.8045 C   0  0  0  0  0  0  0  0  0  0  0  0
   15.2587  -18.0139   16.7408 O   0  0  0  0  0  0  0  0  0  0  0  0
   10.9931  -16.7767   20.2328 C   0  0  0  0  0  0  0  0  0  0  0  0
   11.8242  -16.0058   20.7713 O   0  0  0  0  0  0  0  0  0  0  0  0
   15.8002  -18.9712   18.7808 O   0  0  0  0  0  0  0  0  0  0  0  0
    6.6449  -13.8865   19.6740 C   0  0  0  0  0  0  0  0  0  0  0  0
    8.0109  -14.4344   20.0184 C   0  0  0  0  0  0  0  0  0  0  0  0
    7.9418  -15.0925   21.3762 C   0  0  2  0  0  0  0  0  0  0  0  0
    7.5113  -14.1501   22.4658 C   0  0  0  0  0  0  0  0  0  0  0  0
    9.2165  -15.8190   21.7172 C   0  0  2  0  0  0  0  0  0  0  0  0
    9.6161  -16.7326   20.6780 N   0  0  0  0  0  0  0  0  0  0  0  0
    9.1452  -16.4805   23.0465 C   0  0  0  0  0  0  0  0  0  0  0  0
    8.5527  -17.5801   23.1377 O   0  0  0  0  0  0  0  0  0  0  0  0
    9.7160  -15.9255   24.2136 N   0  0  0  0  0  0  0  0  0  0  0  0
    9.6892  -16.5386   25.5327 C   0  0  1  0  0  0  0  0  0  0  0  0
    9.4601  -15.5530   26.6023 C   0  0  0  0  0  0  0  0  0  0  0  0
    8.1797  -14.8407   26.4868 C   0  0  0  0  0  0  0  0  0  0  0  0
    6.9093  -15.3823   26.2669 C   0  0  0  0  0  0  0  0  0  0  0  0
    5.9886  -14.4078   26.1867 N   0  0  0  0  0  0  0  0  0  0  0  0
    6.6019  -13.2225   26.3474 C   0  0  0  0  0  0  0  0  0  0  0  0
    6.0831  -11.9289   26.3639 C   0  0  0  0  0  0  0  0  0  0  0  0
    6.9178  -10.8330   26.5720 C   0  0  0  0  0  0  0  0  0  0  0  0
    8.2514  -11.0968   26.7556 C   0  0  0  0  0  0  0  0  0  0  0  0
    8.7676  -12.3768   26.7390 C   0  0  0  0  0  0  0  0  0  0  0  0
    7.9421  -13.4615   26.5328 C   0  0  0  0  0  0  0  0  0  0  0  0
    8.9168  -17.7539   25.6418 C   0  0  0  0  0  0  0  0  0  0  0  0
    9.0700  -18.5597   26.6204 O   0  0  0  0  0  0  0  0  0  0  0  0
    7.9490  -18.1546   24.7215 O   0  0  0  0  0  0  0  0  0  0  0  0
  2  1  1  6
  3  2  1  0
  4  5  1  0
  4  3  1  0
  5  6  2  0
  7  8  2  0
  7  2  1  0
  9  5  1  0
 10 11  1  0
 12 11  1  0
 12 14  1  0
 12 13  1  1
 14 15  1  6
 15  7  1  0
 16 14  1  0
 16 18  1  0
 17 16  2  0
 19 18  1  0
 19 30  1  0
 20 21  1  0
 19 20  1  1
 21 29  1  0
 22 21  2  0
 22 23  1  0
 23 24  1  0
 24 25  1  0
 25 26  2  0
 27 26  1  0
 28 27  2  0
 29 24  2  0
 29 28  1  0
 30 32  1  0
 31 30  2  0
M  END
$$$$
