EIW.pdb
     RDKit          3D

 32 33  0  0  1  0  0  0  0  0999 V2000
    8.2086  -19.2908   18.7804 N   0  0  0  0  0  0  0  0  0  0  0  0
    7.7995  -18.7613   20.0714 C   0  0  1  0  0  0  0  0  0  0  0  0
    7.8932  -19.9138   21.0394 C   0  0  0  0  0  0  0  0  0  0  0  0
    9.2684  -20.4658   21.2027 C   0  0  0  0  0  0  0  0  0  0  0  0
    9.2424  -21.5672   22.1985 C   0  0  0  0  0  0  0  0  0  0  0  0
    9.3304  -22.7468   21.7932 O   0  0  0  0  0  0  0  0  0  0  0  0
    8.5779  -17.5769   20.4568 C   0  0  0  0  0  0  0  0  0  0  0  0
    9.7533  -17.4406   20.0385 O   0  0  0  0  0  0  0  0  0  0  0  0
    9.1206  -21.2763   23.5723 O   0  0  0  0  0  0  0  0  0  0  0  0
    6.5904  -12.7208   19.9347 C   0  0  0  0  0  0  0  0  0  0  0  0
    7.4982  -13.9274   20.0034 C   0  0  0  0  0  0  0  0  0  0  0  0
    7.9570  -14.1090   21.4311 C   0  0  2  0  0  0  0  0  0  0  0  0
    8.6418  -12.8921   21.9884 C   0  0  0  0  0  0  0  0  0  0  0  0
    8.7785  -15.3595   21.6055 C   0  0  2  0  0  0  0  0  0  0  0  0
    8.0234  -16.5509   21.3147 N   0  0  0  0  0  0  0  0  0  0  0  0
    9.4277  -15.4208   22.9414 C   0  0  0  0  0  0  0  0  0  0  0  0
   10.3155  -14.5811   23.2154 O   0  0  0  0  0  0  0  0  0  0  0  0
    9.0886  -16.3838   23.9180 N   0  0  0  0  0  0  0  0  0  0  0  0
    9.7657  -16.5576   25.1939 C   0  0  1  0  0  0  0  0  0  0  0  0
    8.8302  -16.5325   26.3307 C   0  0  0  0  0  0  0  0  0  0  0  0
    7.7095  -15.5981   26.1547 C   0  0  0  0  0  0  0  0  0  0  0  0
    6.4198  -15.8770   25.6916 C   0  0  0  0  0  0  0  0  0  0  0  0
    5.6854  -14.7540   25.6365 N   0  0  0  0  0  0  0  0  0  0  0  0
    6.4431  -13.7239   26.0507 C   0  0  0  0  0  0  0  0  0  0  0  0
    6.1354  -12.3716   26.1906 C   0  0  0  0  0  0  0  0  0  0  0  0
    7.0879  -11.4735   26.6670 C   0  0  0  0  0  0  0  0  0  0  0  0
    8.3197  -11.9876   26.9834 C   0  0  0  0  0  0  0  0  0  0  0  0
    8.6270  -13.3261   26.8450 C   0  0  0  0  0  0  0  0  0  0  0  0
    7.6849  -14.2152   26.3732 C   0  0  0  0  0  0  0  0  0  0  0  0
   10.7574  -17.6063   25.2378 C   0  0  0  0  0  0  0  0  0  0  0  0
   10.9315  -18.4055   24.2572 O   0  0  0  0  0  0  0  0  0  0  0  0
   11.6053  -17.8406   26.3196 O   0  0  0  0  0  0  0  0  0  0  0  0
  2  1  1  6
  3  2  1  0
  4  5  1  0
  4  3  1  0
  5  6  2  0
  7  8  2  0
  7  2  1  0
  9  5  1  0
 10 11  1  0
 12 11  1  0
 12 14  1  0
 12 13  1  6
 14 15  1  1
 15  7  1  0
 16 14  1  0
 16 18  1  0
 17 16  2  0
 19 18  1  0
 19 30  1  0
 20 21  1  0
 19 20  1  1
 21 29  1  0
 22 21  2  0
 22 23  1  0
 23 24  1  0
 24 25  1  0
 25 26  2  0
 27 26  1  0
 28 27  2  0
 29 24  2  0
 29 28  1  0
 30 32  1  0
 31 30  2  0
M  END
$$$$
