EIW.pdb
     RDKit          3D

 32 33  0  0  1  0  0  0  0  0999 V2000
   12.9223  -16.7979   19.4821 N   0  0  0  0  0  0  0  0  0  0  0  0
   11.4811  -16.9782   19.4109 C   0  0  1  0  0  0  0  0  0  0  0  0
   11.2587  -18.4572   19.2176 C   0  0  0  0  0  0  0  0  0  0  0  0
   12.1571  -19.0842   18.2064 C   0  0  0  0  0  0  0  0  0  0  0  0
   11.7464  -20.4948   17.9896 C   0  0  0  0  0  0  0  0  0  0  0  0
   12.4068  -21.1981   17.1942 O   0  0  0  0  0  0  0  0  0  0  0  0
   10.7925  -16.4053   20.5748 C   0  0  0  0  0  0  0  0  0  0  0  0
   11.3830  -16.3443   21.6805 O   0  0  0  0  0  0  0  0  0  0  0  0
   10.6315  -21.0202   18.6732 O   0  0  0  0  0  0  0  0  0  0  0  0
    6.9966  -12.4358   20.2744 C   0  0  0  0  0  0  0  0  0  0  0  0
    8.1533  -13.3554   20.5925 C   0  0  0  0  0  0  0  0  0  0  0  0
    7.6368  -14.5244   21.3977 C   0  0  2  0  0  0  0  0  0  0  0  0
    6.9117  -14.1045   22.6462 C   0  0  0  0  0  0  0  0  0  0  0  0
    8.7147  -15.5395   21.6747 C   0  0  2  0  0  0  0  0  0  0  0  0
    9.4374  -15.9037   20.4833 N   0  0  0  0  0  0  0  0  0  0  0  0
    8.1911  -16.7287   22.3968 C   0  0  0  0  0  0  0  0  0  0  0  0
    8.2123  -17.8389   21.8177 O   0  0  0  0  0  0  0  0  0  0  0  0
    7.6700  -16.6644   23.7085 N   0  0  0  0  0  0  0  0  0  0  0  0
    8.1569  -17.4353   24.8423 C   0  0  1  0  0  0  0  0  0  0  0  0
    9.5820  -17.1864   25.1163 C   0  0  0  0  0  0  0  0  0  0  0  0
    9.8311  -16.5340   26.4095 C   0  0  0  0  0  0  0  0  0  0  0  0
   10.2362  -17.1266   27.6096 C   0  0  0  0  0  0  0  0  0  0  0  0
   10.3244  -16.2063   28.5838 N   0  0  0  0  0  0  0  0  0  0  0  0
    9.9910  -15.0079   28.0747 C   0  0  0  0  0  0  0  0  0  0  0  0
    9.9455  -13.7500   28.6736 C   0  0  0  0  0  0  0  0  0  0  0  0
    9.5867  -12.6252   27.9339 C   0  0  0  0  0  0  0  0  0  0  0  0
    9.2875  -12.8247   26.6101 C   0  0  0  0  0  0  0  0  0  0  0  0
    9.3311  -14.0693   26.0150 C   0  0  0  0  0  0  0  0  0  0  0  0
    9.6857  -15.1826   26.7467 C   0  0  0  0  0  0  0  0  0  0  0  0
    7.3007  -17.4459   26.0051 C   0  0  0  0  0  0  0  0  0  0  0  0
    6.3364  -16.6191   26.1349 O   0  0  0  0  0  0  0  0  0  0  0  0
    7.4313  -18.3385   27.0683 O   0  0  0  0  0  0  0  0  0  0  0  0
  2  1  1  1
  3  2  1  0
  4  5  1  0
  4  3  1  0
  5  6  2  0
  7  8  2  0
  7  2  1  0
  9  5  1  0
 10 11  1  0
 12 11  1  0
 12 14  1  0
 12 13  1  1
 14 15  1  6
 15  7  1  0
 16 14  1  0
 16 18  1  0
 17 16  2  0
 19 18  1  0
 19 30  1  0
 20 21  1  0
 19 20  1  1
 21 29  1  0
 22 21  2  0
 22 23  1  0
 23 24  1  0
 24 25  1  0
 25 26  2  0
 27 26  1  0
 28 27  2  0
 29 24  2  0
 29 28  1  0
 30 32  1  0
 31 30  2  0
M  END
$$$$
