EIW.pdb
     RDKit          3D

 32 33  0  0  1  0  0  0  0  0999 V2000
   12.9769  -16.9133   19.5375 N   0  0  0  0  0  0  0  0  0  0  0  0
   11.5547  -17.2118   19.5915 C   0  0  1  0  0  0  0  0  0  0  0  0
   11.4490  -18.7158   19.6226 C   0  0  0  0  0  0  0  0  0  0  0  0
   11.8744  -19.3855   18.3604 C   0  0  0  0  0  0  0  0  0  0  0  0
   11.7215  -20.8554   18.5066 C   0  0  0  0  0  0  0  0  0  0  0  0
   10.9935  -21.4681   17.6955 O   0  0  0  0  0  0  0  0  0  0  0  0
   10.8873  -16.5306   20.7085 C   0  0  0  0  0  0  0  0  0  0  0  0
   11.4850  -16.3977   21.8039 O   0  0  0  0  0  0  0  0  0  0  0  0
   12.3895  -21.5365   19.5442 O   0  0  0  0  0  0  0  0  0  0  0  0
    7.1322  -12.5833   19.9965 C   0  0  0  0  0  0  0  0  0  0  0  0
    8.3002  -13.3870   20.5205 C   0  0  0  0  0  0  0  0  0  0  0  0
    7.7694  -14.5173   21.3704 C   0  0  2  0  0  0  0  0  0  0  0  0
    6.9971  -14.0400   22.5688 C   0  0  0  0  0  0  0  0  0  0  0  0
    8.8484  -15.5018   21.7387 C   0  0  2  0  0  0  0  0  0  0  0  0
    9.5451  -16.0025   20.5819 N   0  0  0  0  0  0  0  0  0  0  0  0
    8.3346  -16.5986   22.6005 C   0  0  0  0  0  0  0  0  0  0  0  0
    8.1260  -17.7198   22.0830 O   0  0  0  0  0  0  0  0  0  0  0  0
    8.0706  -16.4346   23.9787 N   0  0  0  0  0  0  0  0  0  0  0  0
    7.9060  -17.5185   24.9352 C   0  0  1  0  0  0  0  0  0  0  0  0
    9.1384  -17.7845   25.6956 C   0  0  0  0  0  0  0  0  0  0  0  0
    9.2058  -17.0751   26.9810 C   0  0  0  0  0  0  0  0  0  0  0  0
    9.0210  -17.5984   28.2646 C   0  0  0  0  0  0  0  0  0  0  0  0
    9.1268  -16.6296   29.1886 N   0  0  0  0  0  0  0  0  0  0  0  0
    9.3791  -15.4660   28.5648 C   0  0  0  0  0  0  0  0  0  0  0  0
    9.5877  -14.1880   29.0807 C   0  0  0  0  0  0  0  0  0  0  0  0
    9.8594  -13.1168   28.2324 C   0  0  0  0  0  0  0  0  0  0  0  0
    9.9084  -13.3883   26.8887 C   0  0  0  0  0  0  0  0  0  0  0  0
    9.7016  -14.6528   26.3754 C   0  0  0  0  0  0  0  0  0  0  0  0
    9.4322  -15.7130   27.2144 C   0  0  0  0  0  0  0  0  0  0  0  0
    6.6955  -17.4801   25.7215 C   0  0  0  0  0  0  0  0  0  0  0  0
    6.3388  -18.4653   26.4514 O   0  0  0  0  0  0  0  0  0  0  0  0
    5.8236  -16.3930   25.7684 O   0  0  0  0  0  0  0  0  0  0  0  0
  2  1  1  1
  3  2  1  0
  4  5  1  0
  4  3  1  0
  5  6  2  0
  7  8  2  0
  7  2  1  0
  9  5  1  0
 10 11  1  0
 12 11  1  0
 12 14  1  0
 12 13  1  1
 14 15  1  6
 15  7  1  0
 16 14  1  0
 16 18  1  0
 17 16  2  0
 19 18  1  0
 19 30  1  0
 20 21  1  0
 19 20  1  1
 21 29  1  0
 22 21  2  0
 22 23  1  0
 23 24  1  0
 24 25  1  0
 25 26  2  0
 27 26  1  0
 28 27  2  0
 29 24  2  0
 29 28  1  0
 30 32  1  0
 31 30  2  0
M  END
$$$$
