EIW.pdb
     RDKit          3D

 32 33  0  0  1  0  0  0  0  0999 V2000
   10.3398  -17.1407   17.8712 N   0  0  0  0  0  0  0  0  0  0  0  0
   10.8822  -17.5812   19.1464 C   0  0  1  0  0  0  0  0  0  0  0  0
   12.3334  -17.9013   18.8899 C   0  0  0  0  0  0  0  0  0  0  0  0
   12.7606  -19.2423   19.3818 C   0  0  0  0  0  0  0  0  0  0  0  0
   14.2322  -19.3759   19.2333 C   0  0  0  0  0  0  0  0  0  0  0  0
   14.6990  -19.6741   18.1125 O   0  0  0  0  0  0  0  0  0  0  0  0
   10.6541  -16.5995   20.2148 C   0  0  0  0  0  0  0  0  0  0  0  0
   11.5788  -15.8218   20.5541 O   0  0  0  0  0  0  0  0  0  0  0  0
   15.0770  -19.1679   20.3423 O   0  0  0  0  0  0  0  0  0  0  0  0
    6.8866  -13.1433   19.8700 C   0  0  0  0  0  0  0  0  0  0  0  0
    8.1418  -13.9255   20.1819 C   0  0  0  0  0  0  0  0  0  0  0  0
    7.9714  -14.6030   21.5212 C   0  0  2  0  0  0  0  0  0  0  0  0
    7.6154  -13.6453   22.6241 C   0  0  0  0  0  0  0  0  0  0  0  0
    9.1548  -15.4667   21.8717 C   0  0  2  0  0  0  0  0  0  0  0  0
    9.3802  -16.5017   20.8959 N   0  0  0  0  0  0  0  0  0  0  0  0
    9.0614  -16.0102   23.2521 C   0  0  0  0  0  0  0  0  0  0  0  0
    8.1346  -16.8084   23.5206 O   0  0  0  0  0  0  0  0  0  0  0  0
    9.9717  -15.6675   24.2769 N   0  0  0  0  0  0  0  0  0  0  0  0
   10.0178  -16.2798   25.5959 C   0  0  1  0  0  0  0  0  0  0  0  0
    9.4769  -15.3954   26.6415 C   0  0  0  0  0  0  0  0  0  0  0  0
    8.0664  -15.0346   26.4403 C   0  0  0  0  0  0  0  0  0  0  0  0
    7.0028  -15.8747   26.0961 C   0  0  0  0  0  0  0  0  0  0  0  0
    5.8669  -15.1695   25.9690 N   0  0  0  0  0  0  0  0  0  0  0  0
    6.1335  -13.8761   26.2190 C   0  0  0  0  0  0  0  0  0  0  0  0
    5.2931  -12.7640   26.2326 C   0  0  0  0  0  0  0  0  0  0  0  0
    5.7927  -11.5018   26.5458 C   0  0  0  0  0  0  0  0  0  0  0  0
    7.1314  -11.4199   26.8336 C   0  0  0  0  0  0  0  0  0  0  0  0
    7.9657  -12.5194   26.8201 C   0  0  0  0  0  0  0  0  0  0  0  0
    7.4718  -13.7686   26.5099 C   0  0  0  0  0  0  0  0  0  0  0  0
    9.5758  -17.6528   25.6638 C   0  0  0  0  0  0  0  0  0  0  0  0
    9.6259  -18.3200   26.7513 O   0  0  0  0  0  0  0  0  0  0  0  0
    9.0576  -18.3653   24.5830 O   0  0  0  0  0  0  0  0  0  0  0  0
  2  1  1  6
  3  2  1  0
  4  5  1  0
  4  3  1  0
  5  6  2  0
  7  8  2  0
  7  2  1  0
  9  5  1  0
 10 11  1  0
 12 11  1  0
 12 14  1  0
 12 13  1  1
 14 15  1  6
 15  7  1  0
 16 14  1  0
 16 18  1  0
 17 16  2  0
 19 18  1  0
 19 30  1  0
 20 21  1  0
 19 20  1  1
 21 29  1  0
 22 21  2  0
 22 23  1  0
 23 24  1  0
 24 25  1  0
 25 26  2  0
 27 26  1  0
 28 27  2  0
 29 24  2  0
 29 28  1  0
 30 32  1  0
 31 30  2  0
M  END
$$$$
