EIW.pdb
     RDKit          3D

 32 33  0  0  1  0  0  0  0  0999 V2000
    9.8432  -18.4437   18.7786 N   0  0  0  0  0  0  0  0  0  0  0  0
   11.0806  -17.7648   19.1285 C   0  0  1  0  0  0  0  0  0  0  0  0
   11.7117  -17.3560   17.8213 C   0  0  0  0  0  0  0  0  0  0  0  0
   11.9637  -18.4871   16.8832 C   0  0  0  0  0  0  0  0  0  0  0  0
   12.4786  -17.9544   15.5961 C   0  0  0  0  0  0  0  0  0  0  0  0
   13.7126  -17.9576   15.3945 O   0  0  0  0  0  0  0  0  0  0  0  0
   10.8596  -16.6598   20.0705 C   0  0  0  0  0  0  0  0  0  0  0  0
   11.8344  -15.9790   20.4721 O   0  0  0  0  0  0  0  0  0  0  0  0
   11.5837  -17.4573   14.6274 O   0  0  0  0  0  0  0  0  0  0  0  0
    7.3498  -12.8017   19.5736 C   0  0  0  0  0  0  0  0  0  0  0  0
    8.5259  -13.6945   19.8968 C   0  0  0  0  0  0  0  0  0  0  0  0
    8.2902  -14.3401   21.2419 C   0  0  2  0  0  0  0  0  0  0  0  0
    8.0635  -13.3412   22.3425 C   0  0  0  0  0  0  0  0  0  0  0  0
    9.3652  -15.3378   21.5856 C   0  0  2  0  0  0  0  0  0  0  0  0
    9.5359  -16.3294   20.5552 N   0  0  0  0  0  0  0  0  0  0  0  0
    9.1522  -15.9514   22.9227 C   0  0  0  0  0  0  0  0  0  0  0  0
    8.2319  -16.7899   23.0577 O   0  0  0  0  0  0  0  0  0  0  0  0
    9.9416  -15.6321   24.0502 N   0  0  0  0  0  0  0  0  0  0  0  0
    9.8672  -16.2989   25.3411 C   0  0  1  0  0  0  0  0  0  0  0  0
    9.3637  -15.4096   26.4010 C   0  0  0  0  0  0  0  0  0  0  0  0
    7.9674  -14.9923   26.2101 C   0  0  0  0  0  0  0  0  0  0  0  0
    6.8760  -15.7818   25.8346 C   0  0  0  0  0  0  0  0  0  0  0  0
    5.7660  -15.0330   25.7304 N   0  0  0  0  0  0  0  0  0  0  0  0
    6.0771  -13.7593   26.0262 C   0  0  0  0  0  0  0  0  0  0  0  0
    5.2764  -12.6195   26.0774 C   0  0  0  0  0  0  0  0  0  0  0  0
    5.8192  -11.3874   26.4356 C   0  0  0  0  0  0  0  0  0  0  0  0
    7.1591  -11.3629   26.7285 C   0  0  0  0  0  0  0  0  0  0  0  0
    7.9542  -12.4901   26.6779 C   0  0  0  0  0  0  0  0  0  0  0  0
    7.4176  -13.7094   26.3231 C   0  0  0  0  0  0  0  0  0  0  0  0
    9.2944  -17.6244   25.3282 C   0  0  0  0  0  0  0  0  0  0  0  0
    8.6532  -18.0676   24.3168 O   0  0  0  0  0  0  0  0  0  0  0  0
    9.3875  -18.5305   26.3839 O   0  0  0  0  0  0  0  0  0  0  0  0
  2  1  1  6
  3  2  1  0
  4  5  1  0
  4  3  1  0
  5  6  2  0
  7  8  2  0
  7  2  1  0
  9  5  1  0
 10 11  1  0
 12 11  1  0
 12 14  1  0
 12 13  1  1
 14 15  1  6
 15  7  1  0
 16 14  1  0
 16 18  1  0
 17 16  2  0
 19 18  1  0
 19 30  1  0
 20 21  1  0
 19 20  1  1
 21 29  1  0
 22 21  2  0
 22 23  1  0
 23 24  1  0
 24 25  1  0
 25 26  2  0
 27 26  1  0
 28 27  2  0
 29 24  2  0
 29 28  1  0
 30 32  1  0
 31 30  2  0
M  END
$$$$
