EIW.pdb
     RDKit          3D

 32 33  0  0  1  0  0  0  0  0999 V2000
    9.5053  -18.5421   17.0115 N   0  0  0  0  0  0  0  0  0  0  0  0
    9.0996  -18.4161   18.4023 C   0  0  1  0  0  0  0  0  0  0  0  0
    9.2953  -19.7801   19.0150 C   0  0  0  0  0  0  0  0  0  0  0  0
   10.1349  -20.7030   18.1988 C   0  0  0  0  0  0  0  0  0  0  0  0
   10.2719  -22.0010   18.9073 C   0  0  0  0  0  0  0  0  0  0  0  0
    9.5441  -22.9562   18.5590 O   0  0  0  0  0  0  0  0  0  0  0  0
    9.8103  -17.3309   19.0910 C   0  0  0  0  0  0  0  0  0  0  0  0
   11.0122  -17.0990   18.8141 O   0  0  0  0  0  0  0  0  0  0  0  0
   11.2084  -22.1418   19.9512 O   0  0  0  0  0  0  0  0  0  0  0  0
    6.8854  -12.9206   19.0707 C   0  0  0  0  0  0  0  0  0  0  0  0
    8.0244  -13.9106   18.9855 C   0  0  0  0  0  0  0  0  0  0  0  0
    8.5570  -14.1589   20.3770 C   0  0  2  0  0  0  0  0  0  0  0  0
    8.9553  -12.8958   21.0887 C   0  0  0  0  0  0  0  0  0  0  0  0
    9.6531  -15.1921   20.3861 C   0  0  2  0  0  0  0  0  0  0  0  0
    9.1583  -16.5121   20.0913 N   0  0  0  0  0  0  0  0  0  0  0  0
   10.4428  -15.1590   21.6452 C   0  0  0  0  0  0  0  0  0  0  0  0
   11.3238  -14.2788   21.7771 O   0  0  0  0  0  0  0  0  0  0  0  0
   10.2449  -16.0759   22.7017 N   0  0  0  0  0  0  0  0  0  0  0  0
    9.4521  -15.8212   23.8948 C   0  0  1  0  0  0  0  0  0  0  0  0
    8.2284  -15.0574   23.5997 C   0  0  0  0  0  0  0  0  0  0  0  0
    7.4213  -14.7497   24.7889 C   0  0  0  0  0  0  0  0  0  0  0  0
    6.4909  -15.5701   25.4346 C   0  0  0  0  0  0  0  0  0  0  0  0
    5.9291  -14.9230   26.4686 N   0  0  0  0  0  0  0  0  0  0  0  0
    6.4551  -13.6882   26.5402 C   0  0  0  0  0  0  0  0  0  0  0  0
    6.2149  -12.6519   27.4409 C   0  0  0  0  0  0  0  0  0  0  0  0
    6.9040  -11.4458   27.3340 C   0  0  0  0  0  0  0  0  0  0  0  0
    7.8130  -11.3407   26.3121 C   0  0  0  0  0  0  0  0  0  0  0  0
    8.0521  -12.3652   25.4185 C   0  0  0  0  0  0  0  0  0  0  0  0
    7.3702  -13.5587   25.5236 C   0  0  0  0  0  0  0  0  0  0  0  0
    9.2740  -16.9484   24.7796 C   0  0  0  0  0  0  0  0  0  0  0  0
    9.0415  -18.1215   24.3321 O   0  0  0  0  0  0  0  0  0  0  0  0
    9.3437  -16.8739   26.1702 O   0  0  0  0  0  0  0  0  0  0  0  0
  2  1  1  6
  3  2  1  0
  4  5  1  0
  4  3  1  0
  5  6  2  0
  7  8  2  0
  7  2  1  0
  9  5  1  0
 10 11  1  0
 12 11  1  0
 12 14  1  0
 12 13  1  6
 14 15  1  1
 15  7  1  0
 16 14  1  0
 16 18  1  0
 17 16  2  0
 19 18  1  0
 19 30  1  0
 20 21  1  0
 19 20  1  6
 21 29  1  0
 22 21  2  0
 22 23  1  0
 23 24  1  0
 24 25  1  0
 25 26  2  0
 27 26  1  0
 28 27  2  0
 29 24  2  0
 29 28  1  0
 30 32  1  0
 31 30  2  0
M  END
$$$$
