EIW.pdb
     RDKit          3D

 32 33  0  0  1  0  0  0  0  0999 V2000
    9.4136  -17.6873   17.0091 N   0  0  0  0  0  0  0  0  0  0  0  0
    9.9256  -18.2004   18.2697 C   0  0  1  0  0  0  0  0  0  0  0  0
   11.4025  -17.8953   18.2707 C   0  0  0  0  0  0  0  0  0  0  0  0
   12.1623  -18.5445   17.1644 C   0  0  0  0  0  0  0  0  0  0  0  0
   13.2669  -19.3565   17.7354 C   0  0  0  0  0  0  0  0  0  0  0  0
   14.1471  -19.8002   16.9661 O   0  0  0  0  0  0  0  0  0  0  0  0
    9.1921  -17.6664   19.4246 C   0  0  0  0  0  0  0  0  0  0  0  0
    8.9011  -16.4464   19.4681 O   0  0  0  0  0  0  0  0  0  0  0  0
   13.3120  -19.6156   19.1201 O   0  0  0  0  0  0  0  0  0  0  0  0
    4.6849  -19.6845   20.8029 C   0  0  0  0  0  0  0  0  0  0  0  0
    5.8698  -18.7773   20.5633 C   0  0  0  0  0  0  0  0  0  0  0  0
    6.7225  -18.7529   21.8100 C   0  0  2  0  0  0  0  0  0  0  0  0
    5.9690  -18.2996   23.0295 C   0  0  0  0  0  0  0  0  0  0  0  0
    7.9999  -17.9811   21.6055 C   0  0  2  0  0  0  0  0  0  0  0  0
    8.7908  -18.5152   20.5268 N   0  0  0  0  0  0  0  0  0  0  0  0
    8.7828  -17.8519   22.8624 C   0  0  0  0  0  0  0  0  0  0  0  0
    9.3345  -18.8731   23.3326 O   0  0  0  0  0  0  0  0  0  0  0  0
    8.9338  -16.6281   23.5523 N   0  0  0  0  0  0  0  0  0  0  0  0
    9.6574  -16.4547   24.8025 C   0  0  1  0  0  0  0  0  0  0  0  0
    9.5854  -15.0717   25.3024 C   0  0  0  0  0  0  0  0  0  0  0  0
    8.2276  -14.6443   25.6681 C   0  0  0  0  0  0  0  0  0  0  0  0
    7.0593  -15.4125   25.6910 C   0  0  0  0  0  0  0  0  0  0  0  0
    6.0060  -14.6586   26.0457 N   0  0  0  0  0  0  0  0  0  0  0  0
    6.4305  -13.4022   26.2642 C   0  0  0  0  0  0  0  0  0  0  0  0
    5.7299  -12.2660   26.6658 C   0  0  0  0  0  0  0  0  0  0  0  0
    6.3918  -11.0545   26.8534 C   0  0  0  0  0  0  0  0  0  0  0  0
    7.7442  -11.0462   26.6245 C   0  0  0  0  0  0  0  0  0  0  0  0
    8.4401  -12.1697   26.2261 C   0  0  0  0  0  0  0  0  0  0  0  0
    7.7855  -13.3686   26.0399 C   0  0  0  0  0  0  0  0  0  0  0  0
    9.4417  -17.4792   25.7971 C   0  0  0  0  0  0  0  0  0  0  0  0
   10.2422  -17.6393   26.7789 O   0  0  0  0  0  0  0  0  0  0  0  0
    8.3654  -18.3657   25.7908 O   0  0  0  0  0  0  0  0  0  0  0  0
  2  1  1  6
  3  2  1  0
  4  5  1  0
  4  3  1  0
  5  6  2  0
  7  8  2  0
  7  2  1  0
  9  5  1  0
 10 11  1  0
 12 11  1  0
 12 14  1  0
 12 13  1  1
 14 15  1  6
 15  7  1  0
 16 14  1  0
 16 18  1  0
 17 16  2  0
 19 18  1  0
 19 30  1  0
 20 21  1  0
 19 20  1  1
 21 29  1  0
 22 21  2  0
 22 23  1  0
 23 24  1  0
 24 25  1  0
 25 26  2  0
 27 26  1  0
 28 27  2  0
 29 24  2  0
 29 28  1  0
 30 32  1  0
 31 30  2  0
M  END
$$$$
