MMM.pdb
     RDKit          3D

 25 24  0  0  1  0  0  0  0  0999 V2000
    5.8132  -21.5741   26.7570 C   0  0  0  0  0  0  0  0  0  0  0  0
    6.0752  -22.1893   25.1114 S   0  0  0  0  0  0  0  0  0  0  0  0
    5.9339  -21.0533   23.7655 C   0  0  0  0  0  0  0  0  0  0  0  0
    6.0547  -19.6228   24.0967 C   0  0  0  0  0  0  0  0  0  0  0  0
    5.8650  -18.6717   22.9926 C   0  0  2  0  0  0  0  0  0  0  0  0
    5.9842  -19.2857   21.7182 N   0  0  0  0  0  0  0  0  0  0  0  0
    6.8736  -17.5538   23.1643 C   0  0  0  0  0  0  0  0  0  0  0  0
    7.8514  -17.5857   22.3754 O   0  0  0  0  0  0  0  0  0  0  0  0
    6.9751  -11.1946   26.1696 C   0  0  0  0  0  0  0  0  0  0  0  0
    5.6266  -12.1721   25.4426 S   0  0  0  0  0  0  0  0  0  0  0  0
    6.2835  -13.4587   24.3458 C   0  0  0  0  0  0  0  0  0  0  0  0
    7.0799  -14.4100   25.2026 C   0  0  0  0  0  0  0  0  0  0  0  0
    7.6740  -15.5429   24.3448 C   0  0  2  0  0  0  0  0  0  0  0  0
    6.7037  -16.5568   24.1496 N   0  0  0  0  0  0  0  0  0  0  0  0
    8.8678  -15.9967   25.1065 C   0  0  0  0  0  0  0  0  0  0  0  0
    8.6938  -16.8321   26.0264 O   0  0  0  0  0  0  0  0  0  0  0  0
   10.8285  -13.2429   29.2709 C   0  0  0  0  0  0  0  0  0  0  0  0
   11.3685  -14.9075   29.7422 S   0  0  0  0  0  0  0  0  0  0  0  0
   11.8852  -15.7715   28.2279 C   0  0  0  0  0  0  0  0  0  0  0  0
   10.7931  -15.6621   27.1967 C   0  0  0  0  0  0  0  0  0  0  0  0
   11.2842  -15.6238   25.7748 C   0  0  2  0  0  0  0  0  0  0  0  0
   10.1770  -15.5292   24.8379 N   0  0  0  0  0  0  0  0  0  0  0  0
   12.1045  -16.7851   25.3997 C   0  0  0  0  0  0  0  0  0  0  0  0
   11.6823  -17.9470   25.6977 O   0  0  0  0  0  0  0  0  0  0  0  0
   13.3177  -16.7605   24.7390 O   0  0  0  0  0  0  0  0  0  0  0  0
  1  2  1  0
  3  2  1  0
  4  3  1  0
  5  6  1  6
  5  4  1  0
  7  5  1  0
  8  7  2  0
 10  9  1  0
 11 12  1  0
 11 10  1  0
 13 12  1  1
 13 15  1  0
 13 14  1  0
 14  7  1  0
 15 16  2  0
 18 17  1  0
 19 18  1  0
 21 20  1  1
 20 19  1  0
 22 21  1  0
 22 15  1  0
 23 21  1  0
 24 23  2  0
 25 23  1  0
M  END
$$$$
