MMM.pdb
     RDKit          3D

 25 24  0  0  1  0  0  0  0  0999 V2000
    6.5533  -12.0408   26.0612 C   0  0  0  0  0  0  0  0  0  0  0  0
    5.0979  -13.0341   26.2854 S   0  0  0  0  0  0  0  0  0  0  0  0
    5.3036  -14.7004   26.8359 C   0  0  0  0  0  0  0  0  0  0  0  0
    6.4453  -15.4427   26.2734 C   0  0  0  0  0  0  0  0  0  0  0  0
    6.1323  -16.4857   25.2867 C   0  0  2  0  0  0  0  0  0  0  0  0
    5.9512  -17.7618   25.8817 N   0  0  0  0  0  0  0  0  0  0  0  0
    7.2494  -16.5065   24.2628 C   0  0  0  0  0  0  0  0  0  0  0  0
    8.2026  -17.2833   24.5225 O   0  0  0  0  0  0  0  0  0  0  0  0
    7.2821  -12.2106   19.5462 C   0  0  0  0  0  0  0  0  0  0  0  0
    8.7216  -13.1608   18.9739 S   0  0  0  0  0  0  0  0  0  0  0  0
    9.1544  -14.4553   20.1684 C   0  0  0  0  0  0  0  0  0  0  0  0
    8.0977  -14.4398   21.2439 C   0  0  0  0  0  0  0  0  0  0  0  0
    8.3028  -15.6125   22.2210 C   0  0  2  0  0  0  0  0  0  0  0  0
    7.1990  -15.6998   23.1051 N   0  0  0  0  0  0  0  0  0  0  0  0
    9.5901  -15.3077   22.9001 C   0  0  0  0  0  0  0  0  0  0  0  0
    9.9331  -14.1043   22.9938 O   0  0  0  0  0  0  0  0  0  0  0  0
   11.4389  -15.0904   28.8024 C   0  0  0  0  0  0  0  0  0  0  0  0
    9.9608  -14.7672   27.8047 S   0  0  0  0  0  0  0  0  0  0  0  0
   10.4768  -14.6778   26.0634 C   0  0  0  0  0  0  0  0  0  0  0  0
   11.2452  -15.9234   25.7087 C   0  0  0  0  0  0  0  0  0  0  0  0
   11.6066  -16.0357   24.2522 C   0  0  2  0  0  0  0  0  0  0  0  0
   10.4337  -16.3092   23.4386 N   0  0  0  0  0  0  0  0  0  0  0  0
   12.6124  -17.0703   23.9693 C   0  0  0  0  0  0  0  0  0  0  0  0
   12.2429  -18.1252   23.3629 O   0  0  0  0  0  0  0  0  0  0  0  0
   13.9547  -17.0279   24.2941 O   0  0  0  0  0  0  0  0  0  0  0  0
  1  2  1  0
  3  2  1  0
  4  3  1  0
  5  6  1  1
  5  4  1  0
  7  5  1  0
  8  7  2  0
 10  9  1  0
 11 12  1  0
 11 10  1  0
 13 12  1  6
 13 15  1  0
 13 14  1  0
 14  7  1  0
 15 16  2  0
 18 17  1  0
 19 18  1  0
 21 20  1  1
 20 19  1  0
 22 21  1  0
 22 15  1  0
 23 21  1  0
 24 23  2  0
 25 23  1  0
M  END
$$$$
