MMM.pdb
     RDKit          3D

 25 24  0  0  1  0  0  0  0  0999 V2000
    7.7255  -12.7278   17.4902 C   0  0  0  0  0  0  0  0  0  0  0  0
    6.3745  -13.6942   18.1193 S   0  0  0  0  0  0  0  0  0  0  0  0
    6.6916  -14.7892   19.4693 C   0  0  0  0  0  0  0  0  0  0  0  0
    7.8339  -15.7071   19.3173 C   0  0  0  0  0  0  0  0  0  0  0  0
    8.1285  -16.5879   20.4562 C   0  0  2  0  0  0  0  0  0  0  0  0
    6.9640  -16.9408   21.1874 N   0  0  0  0  0  0  0  0  0  0  0  0
    9.1425  -15.8853   21.3363 C   0  0  0  0  0  0  0  0  0  0  0  0
   10.2865  -15.7474   20.8344 O   0  0  0  0  0  0  0  0  0  0  0  0
    6.6663  -12.9086   27.5075 C   0  0  0  0  0  0  0  0  0  0  0  0
    7.7890  -12.4544   26.1527 S   0  0  0  0  0  0  0  0  0  0  0  0
    7.9095  -13.7971   24.9392 C   0  0  0  0  0  0  0  0  0  0  0  0
    8.9434  -13.3860   23.9217 C   0  0  0  0  0  0  0  0  0  0  0  0
    9.6898  -14.6194   23.3798 C   0  0  2  0  0  0  0  0  0  0  0  0
    8.8010  -15.4264   22.6272 N   0  0  0  0  0  0  0  0  0  0  0  0
   10.2247  -15.2911   24.5939 C   0  0  0  0  0  0  0  0  0  0  0  0
   10.7516  -14.5727   25.4774 O   0  0  0  0  0  0  0  0  0  0  0  0
    9.2939  -13.7203   29.8928 C   0  0  0  0  0  0  0  0  0  0  0  0
    9.5734  -15.4390   29.3904 S   0  0  0  0  0  0  0  0  0  0  0  0
    9.6125  -15.4851   27.5730 C   0  0  0  0  0  0  0  0  0  0  0  0
    9.4291  -16.9059   27.1084 C   0  0  0  0  0  0  0  0  0  0  0  0
   10.4157  -17.3485   26.0619 C   0  0  2  0  0  0  0  0  0  0  0  0
   10.1637  -16.6920   24.7899 N   0  0  0  0  0  0  0  0  0  0  0  0
   10.4262  -18.8012   25.8341 C   0  0  0  0  0  0  0  0  0  0  0  0
    9.7223  -19.2709   24.8849 O   0  0  0  0  0  0  0  0  0  0  0  0
   11.1352  -19.7447   26.5524 O   0  0  0  0  0  0  0  0  0  0  0  0
  1  2  1  0
  3  2  1  0
  4  3  1  0
  5  6  1  1
  5  4  1  0
  7  5  1  0
  8  7  2  0
 10  9  1  0
 11 12  1  0
 11 10  1  0
 13 12  1  1
 13 15  1  0
 13 14  1  0
 14  7  1  0
 15 16  2  0
 18 17  1  0
 19 18  1  0
 21 20  1  1
 20 19  1  0
 22 21  1  0
 22 15  1  0
 23 21  1  0
 24 23  2  0
 25 23  1  0
M  END
$$$$
