MMM.pdb
     RDKit          3D

 25 24  0  0  1  0  0  0  0  0999 V2000
    8.2377  -11.8212   18.5244 C   0  0  0  0  0  0  0  0  0  0  0  0
    7.0940  -13.1569   18.2739 S   0  0  0  0  0  0  0  0  0  0  0  0
    7.3734  -14.6673   19.1472 C   0  0  0  0  0  0  0  0  0  0  0  0
    8.7077  -14.8432   19.7468 C   0  0  0  0  0  0  0  0  0  0  0  0
    8.8822  -15.9962   20.6410 C   0  0  2  0  0  0  0  0  0  0  0  0
    7.7244  -16.8150   20.7065 N   0  0  0  0  0  0  0  0  0  0  0  0
    9.2647  -15.4689   22.0093 C   0  0  0  0  0  0  0  0  0  0  0  0
   10.3624  -14.8591   22.0632 O   0  0  0  0  0  0  0  0  0  0  0  0
    7.0969  -11.8421   28.4004 C   0  0  0  0  0  0  0  0  0  0  0  0
    6.6291  -12.8061   26.9325 S   0  0  0  0  0  0  0  0  0  0  0  0
    8.0094  -13.8436   26.3774 C   0  0  0  0  0  0  0  0  0  0  0  0
    7.6036  -14.4572   25.0612 C   0  0  0  0  0  0  0  0  0  0  0  0
    8.7962  -15.1851   24.4130 C   0  0  2  0  0  0  0  0  0  0  0  0
    8.4284  -15.6619   23.1304 N   0  0  0  0  0  0  0  0  0  0  0  0
    9.1388  -16.2648   25.3765 C   0  0  0  0  0  0  0  0  0  0  0  0
    8.2424  -17.0905   25.6750 O   0  0  0  0  0  0  0  0  0  0  0  0
   14.3752  -15.8020   25.1402 C   0  0  0  0  0  0  0  0  0  0  0  0
   14.3851  -17.5502   24.6626 S   0  0  0  0  0  0  0  0  0  0  0  0
   12.7603  -18.2489   25.0851 C   0  0  0  0  0  0  0  0  0  0  0  0
   12.3643  -17.7868   26.4627 C   0  0  0  0  0  0  0  0  0  0  0  0
   10.8841  -17.5907   26.6495 C   0  0  2  0  0  0  0  0  0  0  0  0
   10.4207  -16.3962   25.9631 N   0  0  0  0  0  0  0  0  0  0  0  0
   10.4714  -17.4996   28.0579 C   0  0  0  0  0  0  0  0  0  0  0  0
   10.3165  -16.3463   28.5707 O   0  0  0  0  0  0  0  0  0  0  0  0
   10.2229  -18.5540   28.9155 O   0  0  0  0  0  0  0  0  0  0  0  0
  1  2  1  0
  3  2  1  0
  4  3  1  0
  5  6  1  1
  5  4  1  0
  7  5  1  0
  8  7  2  0
 10  9  1  0
 11 12  1  0
 11 10  1  0
 13 12  1  1
 13 15  1  0
 13 14  1  0
 14  7  1  0
 15 16  2  0
 18 17  1  0
 19 18  1  0
 21 20  1  1
 20 19  1  0
 22 21  1  0
 22 15  1  0
 23 21  1  0
 24 23  2  0
 25 23  1  0
M  END
$$$$
