MMM.pdb
     RDKit          3D

 25 24  0  0  1  0  0  0  0  0999 V2000
    5.2026  -11.3575   26.4971 C   0  0  0  0  0  0  0  0  0  0  0  0
    6.0913  -12.8082   27.0077 S   0  0  0  0  0  0  0  0  0  0  0  0
    5.2794  -14.3719   26.8752 C   0  0  0  0  0  0  0  0  0  0  0  0
    5.6179  -15.1911   25.6984 C   0  0  0  0  0  0  0  0  0  0  0  0
    7.0416  -15.4904   25.4904 C   0  0  2  0  0  0  0  0  0  0  0  0
    7.8819  -14.3928   25.8138 N   0  0  0  0  0  0  0  0  0  0  0  0
    7.2203  -15.9173   24.0474 C   0  0  0  0  0  0  0  0  0  0  0  0
    6.7142  -17.0282   23.7486 O   0  0  0  0  0  0  0  0  0  0  0  0
    9.4713  -11.9894   19.5753 C   0  0  0  0  0  0  0  0  0  0  0  0
    7.9758  -12.9608   19.2257 S   0  0  0  0  0  0  0  0  0  0  0  0
    7.6540  -14.1487   20.5581 C   0  0  0  0  0  0  0  0  0  0  0  0
    8.9873  -14.7038   20.9910 C   0  0  0  0  0  0  0  0  0  0  0  0
    8.8125  -15.6643   22.1822 C   0  0  2  0  0  0  0  0  0  0  0  0
    7.9113  -15.1053   23.1219 N   0  0  0  0  0  0  0  0  0  0  0  0
   10.1893  -15.8510   22.7122 C   0  0  0  0  0  0  0  0  0  0  0  0
   11.0171  -14.9253   22.5331 O   0  0  0  0  0  0  0  0  0  0  0  0
   11.0272  -13.9052   27.7190 C   0  0  0  0  0  0  0  0  0  0  0  0
    9.8963  -15.2973   27.4589 S   0  0  0  0  0  0  0  0  0  0  0  0
   10.8355  -16.6311   26.6555 C   0  0  0  0  0  0  0  0  0  0  0  0
   11.5462  -16.0798   25.4476 C   0  0  0  0  0  0  0  0  0  0  0  0
   11.7196  -17.0675   24.3256 C   0  0  2  0  0  0  0  0  0  0  0  0
   10.5979  -17.0177   23.4025 N   0  0  0  0  0  0  0  0  0  0  0  0
   11.8792  -18.4572   24.7788 C   0  0  0  0  0  0  0  0  0  0  0  0
   10.9445  -19.2848   24.5366 O   0  0  0  0  0  0  0  0  0  0  0  0
   12.9607  -18.9857   25.4569 O   0  0  0  0  0  0  0  0  0  0  0  0
  1  2  1  0
  3  2  1  0
  4  3  1  0
  5  6  1  6
  5  4  1  0
  7  5  1  0
  8  7  2  0
 10  9  1  0
 11 12  1  0
 11 10  1  0
 13 12  1  6
 13 15  1  0
 13 14  1  0
 14  7  1  0
 15 16  2  0
 18 17  1  0
 19 18  1  0
 21 20  1  1
 20 19  1  0
 22 21  1  0
 22 15  1  0
 23 21  1  0
 24 23  2  0
 25 23  1  0
M  END
$$$$
