MMM.pdb
     RDKit          3D

 25 24  0  0  1  0  0  0  0  0999 V2000
    6.3398  -20.7679   26.1359 C   0  0  0  0  0  0  0  0  0  0  0  0
    5.6186  -21.6045   24.7449 S   0  0  0  0  0  0  0  0  0  0  0  0
    5.9828  -20.9956   23.1266 C   0  0  0  0  0  0  0  0  0  0  0  0
    6.8547  -19.8104   23.0506 C   0  0  0  0  0  0  0  0  0  0  0  0
    6.4032  -18.7140   22.1824 C   0  0  2  0  0  0  0  0  0  0  0  0
    6.3790  -19.0798   20.8110 N   0  0  0  0  0  0  0  0  0  0  0  0
    7.3141  -17.5269   22.4221 C   0  0  0  0  0  0  0  0  0  0  0  0
    8.3821  -17.5259   21.7595 O   0  0  0  0  0  0  0  0  0  0  0  0
    6.0391  -12.6529   26.8432 C   0  0  0  0  0  0  0  0  0  0  0  0
    7.0877  -11.9242   25.5501 S   0  0  0  0  0  0  0  0  0  0  0  0
    8.0659  -13.2048   24.7175 C   0  0  0  0  0  0  0  0  0  0  0  0
    7.1445  -14.3693   24.4564 C   0  0  0  0  0  0  0  0  0  0  0  0
    7.8704  -15.4640   23.6522 C   0  0  2  0  0  0  0  0  0  0  0  0
    6.9644  -16.5053   23.3318 N   0  0  0  0  0  0  0  0  0  0  0  0
    8.9867  -15.8935   24.5357 C   0  0  0  0  0  0  0  0  0  0  0  0
    8.6943  -16.4539   25.6197 O   0  0  0  0  0  0  0  0  0  0  0  0
   10.5719  -12.8476   28.4869 C   0  0  0  0  0  0  0  0  0  0  0  0
   11.3724  -14.3648   29.0715 S   0  0  0  0  0  0  0  0  0  0  0  0
   11.9657  -15.2750   27.6133 C   0  0  0  0  0  0  0  0  0  0  0  0
   10.9988  -15.0753   26.4761 C   0  0  0  0  0  0  0  0  0  0  0  0
   11.4312  -15.7002   25.1773 C   0  0  2  0  0  0  0  0  0  0  0  0
   10.3497  -15.6978   24.2063 N   0  0  0  0  0  0  0  0  0  0  0  0
   11.9189  -17.0803   25.3172 C   0  0  0  0  0  0  0  0  0  0  0  0
   11.2946  -18.0080   24.7115 O   0  0  0  0  0  0  0  0  0  0  0  0
   13.0114  -17.4998   26.0516 O   0  0  0  0  0  0  0  0  0  0  0  0
  1  2  1  0
  3  2  1  0
  4  3  1  0
  5  6  1  6
  5  4  1  0
  7  5  1  0
  8  7  2  0
 10  9  1  0
 11 12  1  0
 11 10  1  0
 13 12  1  1
 13 15  1  0
 13 14  1  0
 14  7  1  0
 15 16  2  0
 18 17  1  0
 19 18  1  0
 21 20  1  1
 20 19  1  0
 22 21  1  0
 22 15  1  0
 23 21  1  0
 24 23  2  0
 25 23  1  0
M  END
$$$$
