MMM.pdb
     RDKit          3D

 25 24  0  0  1  0  0  0  0  0999 V2000
   11.0511  -19.9301   18.2306 C   0  0  0  0  0  0  0  0  0  0  0  0
    9.2989  -20.0476   17.9640 S   0  0  0  0  0  0  0  0  0  0  0  0
    8.2473  -18.9238   18.8319 C   0  0  0  0  0  0  0  0  0  0  0  0
    8.9058  -17.9978   19.7698 C   0  0  0  0  0  0  0  0  0  0  0  0
    8.3881  -17.9728   21.1449 C   0  0  2  0  0  0  0  0  0  0  0  0
    6.9704  -18.0271   21.1942 N   0  0  0  0  0  0  0  0  0  0  0  0
    8.9173  -16.7222   21.8176 C   0  0  0  0  0  0  0  0  0  0  0  0
   10.1252  -16.4595   21.5906 O   0  0  0  0  0  0  0  0  0  0  0  0
    5.4109  -13.4211   26.2385 C   0  0  0  0  0  0  0  0  0  0  0  0
    6.6145  -12.1559   25.7353 S   0  0  0  0  0  0  0  0  0  0  0  0
    8.0137  -12.9102   24.8616 C   0  0  0  0  0  0  0  0  0  0  0  0
    7.4794  -14.1057   24.1142 C   0  0  0  0  0  0  0  0  0  0  0  0
    8.6164  -14.8315   23.3709 C   0  0  2  0  0  0  0  0  0  0  0  0
    8.0904  -15.9240   22.6377 N   0  0  0  0  0  0  0  0  0  0  0  0
    9.5636  -15.2328   24.4447 C   0  0  0  0  0  0  0  0  0  0  0  0
   10.3288  -14.3541   24.9102 O   0  0  0  0  0  0  0  0  0  0  0  0
   11.5520  -12.9478   28.8370 C   0  0  0  0  0  0  0  0  0  0  0  0
   10.3954  -14.1039   28.0558 S   0  0  0  0  0  0  0  0  0  0  0  0
   11.1991  -15.7339   27.9936 C   0  0  0  0  0  0  0  0  0  0  0  0
   10.2848  -16.7122   27.3043 C   0  0  0  0  0  0  0  0  0  0  0  0
   10.6597  -17.0127   25.8783 C   0  0  2  0  0  0  0  0  0  0  0  0
    9.6353  -16.5510   24.9563 N   0  0  0  0  0  0  0  0  0  0  0  0
   10.9024  -18.4393   25.6173 C   0  0  0  0  0  0  0  0  0  0  0  0
   11.8341  -19.0224   26.2568 O   0  0  0  0  0  0  0  0  0  0  0  0
   10.2137  -19.2457   24.7318 O   0  0  0  0  0  0  0  0  0  0  0  0
  1  2  1  0
  3  2  1  0
  4  3  1  0
  5  6  1  6
  5  4  1  0
  7  5  1  0
  8  7  2  0
 10  9  1  0
 11 12  1  0
 11 10  1  0
 13 12  1  1
 13 15  1  0
 13 14  1  0
 14  7  1  0
 15 16  2  0
 18 17  1  0
 19 18  1  0
 21 20  1  1
 20 19  1  0
 22 21  1  0
 22 15  1  0
 23 21  1  0
 24 23  2  0
 25 23  1  0
M  END
$$$$
