MMM.pdb
     RDKit          3D

 25 24  0  0  1  0  0  0  0  0999 V2000
    8.3836  -18.7924   28.8775 C   0  0  0  0  0  0  0  0  0  0  0  0
    7.5217  -19.9829   27.8801 S   0  0  0  0  0  0  0  0  0  0  0  0
    7.3799  -19.6705   26.1468 C   0  0  0  0  0  0  0  0  0  0  0  0
    6.2111  -18.8850   25.7135 C   0  0  0  0  0  0  0  0  0  0  0  0
    6.1034  -18.6012   24.2756 C   0  0  2  0  0  0  0  0  0  0  0  0
    6.3307  -19.7511   23.4748 N   0  0  0  0  0  0  0  0  0  0  0  0
    7.0850  -17.4948   23.9459 C   0  0  0  0  0  0  0  0  0  0  0  0
    8.0492  -17.8319   23.2135 O   0  0  0  0  0  0  0  0  0  0  0  0
    6.5723  -10.8071   25.8397 C   0  0  0  0  0  0  0  0  0  0  0  0
    5.6848  -12.3519   26.1980 S   0  0  0  0  0  0  0  0  0  0  0  0
    5.9425  -13.5641   24.8736 C   0  0  0  0  0  0  0  0  0  0  0  0
    7.4219  -13.8485   24.8122 C   0  0  0  0  0  0  0  0  0  0  0  0
    7.6965  -15.1066   23.9674 C   0  0  2  0  0  0  0  0  0  0  0  0
    6.9065  -16.1840   24.4393 N   0  0  0  0  0  0  0  0  0  0  0  0
    9.1598  -15.3329   24.1053 C   0  0  0  0  0  0  0  0  0  0  0  0
    9.9178  -14.8003   23.2590 O   0  0  0  0  0  0  0  0  0  0  0  0
   10.7581  -13.1714   29.3494 C   0  0  0  0  0  0  0  0  0  0  0  0
   10.8162  -14.9825   29.3167 S   0  0  0  0  0  0  0  0  0  0  0  0
   10.2587  -15.5247   27.6731 C   0  0  0  0  0  0  0  0  0  0  0  0
   11.4533  -15.9412   26.8561 C   0  0  0  0  0  0  0  0  0  0  0  0
   11.1504  -16.2095   25.4067 C   0  0  2  0  0  0  0  0  0  0  0  0
    9.7245  -16.1160   25.1409 N   0  0  0  0  0  0  0  0  0  0  0  0
   11.6195  -17.5212   24.9361 C   0  0  0  0  0  0  0  0  0  0  0  0
   10.7576  -18.3626   24.5283 O   0  0  0  0  0  0  0  0  0  0  0  0
   12.9287  -17.9594   24.8821 O   0  0  0  0  0  0  0  0  0  0  0  0
  1  2  1  0
  3  2  1  0
  4  3  1  0
  5  6  1  6
  5  4  1  0
  7  5  1  0
  8  7  2  0
 10  9  1  0
 11 12  1  0
 11 10  1  0
 13 12  1  1
 13 15  1  0
 13 14  1  0
 14  7  1  0
 15 16  2  0
 18 17  1  0
 19 18  1  0
 21 20  1  1
 20 19  1  0
 22 21  1  0
 22 15  1  0
 23 21  1  0
 24 23  2  0
 25 23  1  0
M  END
$$$$
