MMM.pdb
     RDKit          3D

 25 24  0  0  1  0  0  0  0  0999 V2000
    8.2760  -11.4548   18.7285 C   0  0  0  0  0  0  0  0  0  0  0  0
    7.0954  -12.7753   18.5962 S   0  0  0  0  0  0  0  0  0  0  0  0
    7.4632  -14.3049   19.4006 C   0  0  0  0  0  0  0  0  0  0  0  0
    8.8892  -14.6154   19.6029 C   0  0  0  0  0  0  0  0  0  0  0  0
    9.1975  -15.8408   20.3530 C   0  0  2  0  0  0  0  0  0  0  0  0
    8.1685  -16.8138   20.2537 N   0  0  0  0  0  0  0  0  0  0  0  0
    9.4524  -15.4508   21.7950 C   0  0  0  0  0  0  0  0  0  0  0  0
   10.5798  -14.9447   22.0241 O   0  0  0  0  0  0  0  0  0  0  0  0
    6.2321  -11.5473   26.2795 C   0  0  0  0  0  0  0  0  0  0  0  0
    6.1399  -13.3188   26.6739 S   0  0  0  0  0  0  0  0  0  0  0  0
    7.6447  -14.1770   26.1362 C   0  0  0  0  0  0  0  0  0  0  0  0
    7.4205  -14.6185   24.7121 C   0  0  0  0  0  0  0  0  0  0  0  0
    8.6998  -15.2523   24.1343 C   0  0  2  0  0  0  0  0  0  0  0  0
    8.4747  -15.6518   22.7936 N   0  0  0  0  0  0  0  0  0  0  0  0
    9.0001  -16.3827   25.0526 C   0  0  0  0  0  0  0  0  0  0  0  0
    8.5973  -17.5256   24.7270 O   0  0  0  0  0  0  0  0  0  0  0  0
   10.7745  -13.3663   28.2702 C   0  0  0  0  0  0  0  0  0  0  0  0
   10.8256  -14.5379   29.6519 S   0  0  0  0  0  0  0  0  0  0  0  0
   10.4039  -16.1821   28.9997 C   0  0  0  0  0  0  0  0  0  0  0  0
   11.4251  -16.5840   27.9684 C   0  0  0  0  0  0  0  0  0  0  0  0
   10.8384  -17.0522   26.6641 C   0  0  2  0  0  0  0  0  0  0  0  0
    9.7139  -16.2224   26.2648 N   0  0  0  0  0  0  0  0  0  0  0  0
   10.3905  -18.4526   26.6847 C   0  0  0  0  0  0  0  0  0  0  0  0
    9.1426  -18.6908   26.6272 O   0  0  0  0  0  0  0  0  0  0  0  0
   11.1924  -19.5752   26.7600 O   0  0  0  0  0  0  0  0  0  0  0  0
  1  2  1  0
  3  2  1  0
  4  3  1  0
  5  6  1  1
  5  4  1  0
  7  5  1  0
  8  7  2  0
 10  9  1  0
 11 12  1  0
 11 10  1  0
 13 12  1  1
 13 15  1  0
 13 14  1  0
 14  7  1  0
 15 16  2  0
 18 17  1  0
 19 18  1  0
 21 20  1  1
 20 19  1  0
 22 21  1  0
 22 15  1  0
 23 21  1  0
 24 23  2  0
 25 23  1  0
M  END
$$$$
