MMM.pdb
     RDKit          3D

 25 24  0  0  1  0  0  0  0  0999 V2000
    6.4822  -24.5008   22.3597 C   0  0  0  0  0  0  0  0  0  0  0  0
    7.1132  -22.9282   22.8925 S   0  0  0  0  0  0  0  0  0  0  0  0
    6.7017  -21.4993   21.9381 C   0  0  0  0  0  0  0  0  0  0  0  0
    7.3561  -20.2378   22.3270 C   0  0  0  0  0  0  0  0  0  0  0  0
    6.9253  -19.0251   21.6176 C   0  0  2  0  0  0  0  0  0  0  0  0
    7.1005  -19.1248   20.2124 N   0  0  0  0  0  0  0  0  0  0  0  0
    7.6977  -17.8535   22.1895 C   0  0  0  0  0  0  0  0  0  0  0  0
    8.7469  -17.5468   21.5693 O   0  0  0  0  0  0  0  0  0  0  0  0
    7.0976  -11.2245   26.3520 C   0  0  0  0  0  0  0  0  0  0  0  0
    6.3597  -12.7654   25.7328 S   0  0  0  0  0  0  0  0  0  0  0  0
    7.6374  -13.8711   25.0732 C   0  0  0  0  0  0  0  0  0  0  0  0
    6.9392  -15.1115   24.5761 C   0  0  0  0  0  0  0  0  0  0  0  0
    7.9274  -16.0255   23.8277 C   0  0  2  0  0  0  0  0  0  0  0  0
    7.2486  -17.1698   23.3403 N   0  0  0  0  0  0  0  0  0  0  0  0
    8.9778  -16.3368   24.8333 C   0  0  0  0  0  0  0  0  0  0  0  0
    8.6628  -17.0680   25.8031 O   0  0  0  0  0  0  0  0  0  0  0  0
    9.7064  -13.4904   29.2597 C   0  0  0  0  0  0  0  0  0  0  0  0
   10.7350  -14.8899   29.7772 S   0  0  0  0  0  0  0  0  0  0  0  0
   11.5906  -15.5232   28.3029 C   0  0  0  0  0  0  0  0  0  0  0  0
   10.6916  -15.3725   27.1041 C   0  0  0  0  0  0  0  0  0  0  0  0
   11.2715  -15.9075   25.8228 C   0  0  2  0  0  0  0  0  0  0  0  0
   10.3029  -15.8467   24.7408 N   0  0  0  0  0  0  0  0  0  0  0  0
   11.7586  -17.2911   25.9250 C   0  0  0  0  0  0  0  0  0  0  0  0
   12.9333  -17.4888   26.3700 O   0  0  0  0  0  0  0  0  0  0  0  0
   11.0666  -18.4376   25.5848 O   0  0  0  0  0  0  0  0  0  0  0  0
  1  2  1  0
  3  2  1  0
  4  3  1  0
  5  6  1  6
  5  4  1  0
  7  5  1  0
  8  7  2  0
 10  9  1  0
 11 12  1  0
 11 10  1  0
 13 12  1  1
 13 15  1  0
 13 14  1  0
 14  7  1  0
 15 16  2  0
 18 17  1  0
 19 18  1  0
 21 20  1  1
 20 19  1  0
 22 21  1  0
 22 15  1  0
 23 21  1  0
 24 23  2  0
 25 23  1  0
M  END
$$$$
