MMM.pdb
     RDKit          3D

 25 24  0  0  1  0  0  0  0  0999 V2000
    8.0814  -11.2641   19.2945 C   0  0  0  0  0  0  0  0  0  0  0  0
    7.3692  -12.7182   18.5643 S   0  0  0  0  0  0  0  0  0  0  0  0
    7.5267  -14.2488   19.4329 C   0  0  0  0  0  0  0  0  0  0  0  0
    8.6225  -14.3387   20.4137 C   0  0  0  0  0  0  0  0  0  0  0  0
    8.7897  -15.6275   21.0996 C   0  0  2  0  0  0  0  0  0  0  0  0
    7.6163  -16.4251   21.0542 N   0  0  0  0  0  0  0  0  0  0  0  0
    9.2097  -15.3424   22.5275 C   0  0  0  0  0  0  0  0  0  0  0  0
   10.3870  -14.9259   22.6690 O   0  0  0  0  0  0  0  0  0  0  0  0
    6.0531  -12.1204   26.3225 C   0  0  0  0  0  0  0  0  0  0  0  0
    7.5297  -12.6164   27.2586 S   0  0  0  0  0  0  0  0  0  0  0  0
    7.7959  -14.4066   27.1395 C   0  0  0  0  0  0  0  0  0  0  0  0
    7.4250  -14.8193   25.7375 C   0  0  0  0  0  0  0  0  0  0  0  0
    8.6841  -15.1891   24.9313 C   0  0  2  0  0  0  0  0  0  0  0  0
    8.3211  -15.5388   23.6071 N   0  0  0  0  0  0  0  0  0  0  0  0
    9.2992  -16.3056   25.6971 C   0  0  0  0  0  0  0  0  0  0  0  0
    8.6089  -17.3359   25.8881 O   0  0  0  0  0  0  0  0  0  0  0  0
   15.7753  -18.5509   25.7275 C   0  0  0  0  0  0  0  0  0  0  0  0
   15.0399  -16.9617   25.2603 S   0  0  0  0  0  0  0  0  0  0  0  0
   13.2324  -17.1582   25.2891 C   0  0  0  0  0  0  0  0  0  0  0  0
   12.7698  -17.2879   26.7164 C   0  0  0  0  0  0  0  0  0  0  0  0
   11.2758  -17.3633   26.8798 C   0  0  2  0  0  0  0  0  0  0  0  0
   10.6167  -16.2528   26.2129 N   0  0  0  0  0  0  0  0  0  0  0  0
   10.8333  -17.3842   28.2819 C   0  0  0  0  0  0  0  0  0  0  0  0
   10.3507  -16.3188   28.7810 O   0  0  0  0  0  0  0  0  0  0  0  0
   10.8807  -18.4605   29.1470 O   0  0  0  0  0  0  0  0  0  0  0  0
  1  2  1  0
  3  2  1  0
  4  3  1  0
  5  6  1  1
  5  4  1  0
  7  5  1  0
  8  7  2  0
 10  9  1  0
 11 12  1  0
 11 10  1  0
 13 12  1  1
 13 15  1  0
 13 14  1  0
 14  7  1  0
 15 16  2  0
 18 17  1  0
 19 18  1  0
 21 20  1  1
 20 19  1  0
 22 21  1  0
 22 15  1  0
 23 21  1  0
 24 23  2  0
 25 23  1  0
M  END
$$$$
