DVN.pdb
     RDKit          3D

 24 23  0  0  1  0  0  0  0  0999 V2000
   18.6148  -12.9513  -16.9508 N   0  0  0  0  0  0  0  0  0  0  0  0
   18.7191  -11.5484  -17.2353 C   0  0  1  0  0  0  0  0  0  0  0  0
   17.3602  -10.9483  -17.3684 C   0  0  0  0  0  0  0  0  0  0  0  0
   16.6427  -11.5664  -18.5016 C   0  0  0  0  0  0  0  0  0  0  0  0
   17.1448  -11.5007  -19.6459 O   0  0  0  0  0  0  0  0  0  0  0  0
   19.5576  -10.8603  -16.2193 C   0  0  0  0  0  0  0  0  0  0  0  0
   19.2764  -11.0143  -15.0034 O   0  0  0  0  0  0  0  0  0  0  0  0
   15.4308  -12.2220  -18.3649 O   0  0  0  0  0  0  0  0  0  0  0  0
   23.0803  -11.3123  -15.3550 C   0  0  0  0  0  0  0  0  0  0  0  0
   22.9053   -9.8415  -15.6325 C   0  0  2  0  0  0  0  0  0  0  0  0
   23.8159   -9.0548  -14.7481 C   0  0  0  0  0  0  0  0  0  0  0  0
   21.4689   -9.3943  -15.5546 C   0  0  2  0  0  0  0  0  0  0  0  0
   20.6491  -10.0463  -16.5533 N   0  0  0  0  0  0  0  0  0  0  0  0
   21.3530   -7.9064  -15.6489 C   0  0  0  0  0  0  0  0  0  0  0  0
   21.6070   -7.2988  -16.7189 O   0  0  0  0  0  0  0  0  0  0  0  0
   18.6460   -2.8502  -14.0030 N   0  0  0  0  0  0  0  0  0  0  0  0
   19.5536   -3.6047  -14.8282 C   0  0  0  0  0  0  0  0  0  0  0  0
   20.2348   -2.9280  -15.6208 O   0  0  0  0  0  0  0  0  0  0  0  0
   19.6373   -5.0645  -14.7103 C   0  0  0  0  0  0  0  0  0  0  0  0
   20.9908   -5.6540  -14.6461 C   0  0  2  0  0  0  0  0  0  0  0  0
   20.9519   -7.1179  -14.5362 N   0  0  0  0  0  0  0  0  0  0  0  0
   21.8135   -5.0639  -13.5811 C   0  0  0  0  0  0  0  0  0  0  0  0
   22.2562   -3.9070  -13.6701 O   0  0  0  0  0  0  0  0  0  0  0  0
   22.1283   -5.7946  -12.4207 O   0  0  0  0  0  0  0  0  0  0  0  0
  2  1  1  1
  3  2  1  0
  4  3  1  0
  4  5  2  0
  6  2  1  0
  6  7  2  0
  8  4  1  0
 10  9  1  1
 10 12  1  0
 11 10  1  0
 12 13  1  6
 13  6  1  0
 14 12  1  0
 15 14  2  0
 16 17  1  0
 17 19  1  0
 17 18  2  0
 20 19  1  1
 20 22  1  0
 20 21  1  0
 21 14  1  0
 22 24  1  0
 23 22  2  0
M  END
$$$$
