DVN.pdb
     RDKit          3D

 24 23  0  0  1  0  0  0  0  0999 V2000
   15.1743  -12.3350  -14.7432 N   0  0  0  0  0  0  0  0  0  0  0  0
   15.5839  -11.0164  -15.1351 C   0  0  1  0  0  0  0  0  0  0  0  0
   14.8240   -9.9913  -14.3630 C   0  0  0  0  0  0  0  0  0  0  0  0
   13.3823  -10.0960  -14.6652 C   0  0  0  0  0  0  0  0  0  0  0  0
   13.0083  -10.0575  -15.8587 O   0  0  0  0  0  0  0  0  0  0  0  0
   17.0564  -10.8581  -15.0123 C   0  0  0  0  0  0  0  0  0  0  0  0
   17.6251  -11.3018  -13.9822 O   0  0  0  0  0  0  0  0  0  0  0  0
   12.4109  -10.2358  -13.6883 O   0  0  0  0  0  0  0  0  0  0  0  0
   19.7496  -12.3000  -17.0669 C   0  0  0  0  0  0  0  0  0  0  0  0
   19.9785  -10.8109  -17.0359 C   0  0  2  0  0  0  0  0  0  0  0  0
   21.4443  -10.5300  -17.0859 C   0  0  0  0  0  0  0  0  0  0  0  0
   19.2823  -10.1319  -15.8855 C   0  0  2  0  0  0  0  0  0  0  0  0
   17.8427  -10.2364  -15.9925 N   0  0  0  0  0  0  0  0  0  0  0  0
   19.7113   -8.7057  -15.7510 C   0  0  0  0  0  0  0  0  0  0  0  0
   19.3228   -7.8284  -16.5622 O   0  0  0  0  0  0  0  0  0  0  0  0
   22.0097   -4.2211  -14.2363 N   0  0  0  0  0  0  0  0  0  0  0  0
   22.0905   -5.1718  -13.1577 C   0  0  0  0  0  0  0  0  0  0  0  0
   22.6419   -4.7526  -12.1231 O   0  0  0  0  0  0  0  0  0  0  0  0
   21.5489   -6.5267  -13.3099 C   0  0  0  0  0  0  0  0  0  0  0  0
   20.9559   -6.8668  -14.6200 C   0  0  2  0  0  0  0  0  0  0  0  0
   20.5738   -8.2823  -14.7034 N   0  0  0  0  0  0  0  0  0  0  0  0
   21.8179   -6.4829  -15.7464 C   0  0  0  0  0  0  0  0  0  0  0  0
   22.8908   -7.0673  -15.9698 O   0  0  0  0  0  0  0  0  0  0  0  0
   21.4542   -5.4351  -16.6121 O   0  0  0  0  0  0  0  0  0  0  0  0
  2  1  1  1
  3  2  1  0
  4  3  1  0
  4  5  2  0
  6  2  1  0
  6  7  2  0
  8  4  1  0
 10  9  1  1
 10 12  1  0
 11 10  1  0
 12 13  1  6
 13  6  1  0
 14 12  1  0
 15 14  2  0
 16 17  1  0
 17 19  1  0
 17 18  2  0
 20 19  1  1
 20 22  1  0
 20 21  1  0
 21 14  1  0
 22 24  1  0
 23 22  2  0
M  END
$$$$
