DVN.pdb
     RDKit          3D

 24 23  0  0  1  0  0  0  0  0999 V2000
   15.4582  -13.9390  -15.8115 N   0  0  0  0  0  0  0  0  0  0  0  0
   15.5082  -12.5328  -15.5286 C   0  0  1  0  0  0  0  0  0  0  0  0
   15.5055  -12.3044  -14.0547 C   0  0  0  0  0  0  0  0  0  0  0  0
   14.2753  -12.8627  -13.4583 C   0  0  0  0  0  0  0  0  0  0  0  0
   13.1974  -12.2431  -13.5999 O   0  0  0  0  0  0  0  0  0  0  0  0
   16.6639  -11.8936  -16.2103 C   0  0  0  0  0  0  0  0  0  0  0  0
   17.2268  -12.5137  -17.1482 O   0  0  0  0  0  0  0  0  0  0  0  0
   14.2498  -14.0478  -12.7427 O   0  0  0  0  0  0  0  0  0  0  0  0
   17.3568  -10.8254  -18.8920 C   0  0  0  0  0  0  0  0  0  0  0  0
   17.5415   -9.5969  -18.0390 C   0  0  2  0  0  0  0  0  0  0  0  0
   18.3404   -8.5831  -18.7902 C   0  0  0  0  0  0  0  0  0  0  0  0
   18.1041   -9.9054  -16.6761 C   0  0  2  0  0  0  0  0  0  0  0  0
   17.1567  -10.6298  -15.8561 N   0  0  0  0  0  0  0  0  0  0  0  0
   18.5781   -8.6663  -15.9862 C   0  0  0  0  0  0  0  0  0  0  0  0
   17.7760   -7.7597  -15.6498 O   0  0  0  0  0  0  0  0  0  0  0  0
   21.1690   -5.4539  -12.8060 N   0  0  0  0  0  0  0  0  0  0  0  0
   21.9062   -6.6809  -12.9637 C   0  0  0  0  0  0  0  0  0  0  0  0
   22.9112   -6.7913  -12.2371 O   0  0  0  0  0  0  0  0  0  0  0  0
   21.4687   -7.7007  -13.9233 C   0  0  0  0  0  0  0  0  0  0  0  0
   20.3301   -7.3516  -14.7980 C   0  0  2  0  0  0  0  0  0  0  0  0
   19.9515   -8.4612  -15.6823 N   0  0  0  0  0  0  0  0  0  0  0  0
   20.5637   -6.1193  -15.5636 C   0  0  0  0  0  0  0  0  0  0  0  0
   21.1174   -6.1421  -16.6751 O   0  0  0  0  0  0  0  0  0  0  0  0
   20.1665   -4.8674  -15.0592 O   0  0  0  0  0  0  0  0  0  0  0  0
  2  1  1  1
  3  2  1  0
  4  3  1  0
  4  5  2  0
  6  2  1  0
  6  7  2  0
  8  4  1  0
 10  9  1  6
 10 12  1  0
 11 10  1  0
 12 13  1  1
 13  6  1  0
 14 12  1  0
 15 14  2  0
 16 17  1  0
 17 19  1  0
 17 18  2  0
 20 19  1  6
 20 22  1  0
 20 21  1  0
 21 14  1  0
 22 24  1  0
 23 22  2  0
M  END
$$$$
