DVN.pdb
     RDKit          3D

 24 23  0  0  1  0  0  0  0  0999 V2000
   21.1470  -12.2871  -19.8300 N   0  0  0  0  0  0  0  0  0  0  0  0
   21.9382  -11.4438  -18.9799 C   0  0  1  0  0  0  0  0  0  0  0  0
   22.9040  -10.6525  -19.7957 C   0  0  0  0  0  0  0  0  0  0  0  0
   23.8108  -11.5597  -20.5276 C   0  0  0  0  0  0  0  0  0  0  0  0
   24.4022  -12.4645  -19.8972 O   0  0  0  0  0  0  0  0  0  0  0  0
   21.0739  -10.5928  -18.1212 C   0  0  0  0  0  0  0  0  0  0  0  0
   20.0948  -10.0056  -18.6481 O   0  0  0  0  0  0  0  0  0  0  0  0
   24.0447  -11.4622  -21.8889 O   0  0  0  0  0  0  0  0  0  0  0  0
   18.8044  -11.4239  -15.4480 C   0  0  0  0  0  0  0  0  0  0  0  0
   19.7363  -10.3911  -14.8685 C   0  0  2  0  0  0  0  0  0  0  0  0
   18.9965   -9.5488  -13.8818 C   0  0  0  0  0  0  0  0  0  0  0  0
   20.4493   -9.5841  -15.9219 C   0  0  2  0  0  0  0  0  0  0  0  0
   21.2993  -10.4136  -16.7491 N   0  0  0  0  0  0  0  0  0  0  0  0
   21.2208   -8.4549  -15.3174 C   0  0  0  0  0  0  0  0  0  0  0  0
   22.2643   -8.6619  -14.6490 O   0  0  0  0  0  0  0  0  0  0  0  0
   22.9724   -3.6666  -13.9653 N   0  0  0  0  0  0  0  0  0  0  0  0
   22.6859   -3.8115  -15.3691 C   0  0  0  0  0  0  0  0  0  0  0  0
   23.0935   -2.8823  -16.0909 O   0  0  0  0  0  0  0  0  0  0  0  0
   21.9633   -4.9858  -15.8699 C   0  0  0  0  0  0  0  0  0  0  0  0
   21.6267   -6.0345  -14.8847 C   0  0  2  0  0  0  0  0  0  0  0  0
   20.8086   -7.1033  -15.4722 N   0  0  0  0  0  0  0  0  0  0  0  0
   20.9976   -5.4900  -13.6735 C   0  0  0  0  0  0  0  0  0  0  0  0
   19.7648   -5.5009  -13.5229 O   0  0  0  0  0  0  0  0  0  0  0  0
   21.7754   -4.9352  -12.6407 O   0  0  0  0  0  0  0  0  0  0  0  0
  2  1  1  6
  3  2  1  0
  4  3  1  0
  4  5  2  0
  6  2  1  0
  6  7  2  0
  8  4  1  0
 10  9  1  6
 10 12  1  0
 11 10  1  0
 12 13  1  1
 13  6  1  0
 14 12  1  0
 15 14  2  0
 16 17  1  0
 17 19  1  0
 17 18  2  0
 20 19  1  6
 20 22  1  0
 20 21  1  0
 21 14  1  0
 22 24  1  0
 23 22  2  0
M  END
$$$$
