DVN.pdb
     RDKit          3D

 24 23  0  0  1  0  0  0  0  0999 V2000
   23.0177  -16.2682  -14.9615 N   0  0  0  0  0  0  0  0  0  0  0  0
   22.7587  -15.1504  -15.8236 C   0  0  1  0  0  0  0  0  0  0  0  0
   21.2917  -15.0050  -16.0503 C   0  0  0  0  0  0  0  0  0  0  0  0
   20.7330  -16.2672  -16.5750 C   0  0  0  0  0  0  0  0  0  0  0  0
   21.4129  -16.9437  -17.3787 O   0  0  0  0  0  0  0  0  0  0  0  0
   23.3869  -13.9124  -15.2932 C   0  0  0  0  0  0  0  0  0  0  0  0
   23.1863  -13.6040  -14.0907 O   0  0  0  0  0  0  0  0  0  0  0  0
   19.4834  -16.7481  -16.2220 O   0  0  0  0  0  0  0  0  0  0  0  0
   27.0357  -12.9122  -15.1664 C   0  0  0  0  0  0  0  0  0  0  0  0
   26.2664  -11.7962  -15.8249 C   0  0  2  0  0  0  0  0  0  0  0  0
   26.8791  -10.4843  -15.4595 C   0  0  0  0  0  0  0  0  0  0  0  0
   24.7867  -11.8583  -15.5491 C   0  0  2  0  0  0  0  0  0  0  0  0
   24.1941  -13.0709  -16.0716 N   0  0  0  0  0  0  0  0  0  0  0  0
   24.0819  -10.6460  -16.0682 C   0  0  0  0  0  0  0  0  0  0  0  0
   24.0309  -10.3980  -17.2989 O   0  0  0  0  0  0  0  0  0  0  0  0
   21.2204   -6.2670  -16.5766 N   0  0  0  0  0  0  0  0  0  0  0  0
   21.0376   -6.7920  -15.2481 C   0  0  0  0  0  0  0  0  0  0  0  0
   20.2046   -6.1853  -14.5494 O   0  0  0  0  0  0  0  0  0  0  0  0
   21.7992   -7.9600  -14.7919 C   0  0  0  0  0  0  0  0  0  0  0  0
   22.7186   -8.5818  -15.7673 C   0  0  2  0  0  0  0  0  0  0  0  0
   23.4412   -9.7251  -15.1952 N   0  0  0  0  0  0  0  0  0  0  0  0
   23.6475   -7.6125  -16.3647 C   0  0  0  0  0  0  0  0  0  0  0  0
   23.4121   -7.0811  -17.4623 O   0  0  0  0  0  0  0  0  0  0  0  0
   24.8398   -7.2538  -15.7095 O   0  0  0  0  0  0  0  0  0  0  0  0
  2  1  1  1
  3  2  1  0
  4  3  1  0
  4  5  2  0
  6  2  1  0
  6  7  2  0
  8  4  1  0
 10  9  1  1
 10 12  1  0
 11 10  1  0
 12 13  1  6
 13  6  1  0
 14 12  1  0
 15 14  2  0
 16 17  1  0
 17 19  1  0
 17 18  2  0
 20 19  1  1
 20 22  1  0
 20 21  1  0
 21 14  1  0
 22 24  1  0
 23 22  2  0
M  END
$$$$
