DVN.pdb
     RDKit          3D

 24 23  0  0  1  0  0  0  0  0999 V2000
   19.4804  -14.8299  -16.7785 N   0  0  0  0  0  0  0  0  0  0  0  0
   19.7176  -13.5640  -17.4118 C   0  0  1  0  0  0  0  0  0  0  0  0
   18.5774  -13.2158  -18.3080 C   0  0  0  0  0  0  0  0  0  0  0  0
   18.5124  -14.1656  -19.4368 C   0  0  0  0  0  0  0  0  0  0  0  0
   19.5645  -14.4497  -20.0519 O   0  0  0  0  0  0  0  0  0  0  0  0
   20.0032  -12.5099  -16.4039 C   0  0  0  0  0  0  0  0  0  0  0  0
   19.3087  -12.4757  -15.3563 O   0  0  0  0  0  0  0  0  0  0  0  0
   17.3371  -14.7655  -19.8564 O   0  0  0  0  0  0  0  0  0  0  0  0
   23.2223  -12.0038  -14.6805 C   0  0  0  0  0  0  0  0  0  0  0  0
   22.7942  -10.6408  -15.1601 C   0  0  2  0  0  0  0  0  0  0  0  0
   23.1805   -9.6119  -14.1491 C   0  0  0  0  0  0  0  0  0  0  0  0
   21.3382  -10.5814  -15.5418 C   0  0  2  0  0  0  0  0  0  0  0  0
   21.0123  -11.5502  -16.5665 N   0  0  0  0  0  0  0  0  0  0  0  0
   20.9370   -9.2018  -15.9564 C   0  0  0  0  0  0  0  0  0  0  0  0
   21.4549   -8.6446  -16.9564 O   0  0  0  0  0  0  0  0  0  0  0  0
   15.8747   -7.2950  -16.6735 N   0  0  0  0  0  0  0  0  0  0  0  0
   17.2686   -7.6287  -16.5343 C   0  0  0  0  0  0  0  0  0  0  0  0
   17.6594   -8.5748  -17.2432 O   0  0  0  0  0  0  0  0  0  0  0  0
   18.1303   -6.8814  -15.6117 C   0  0  0  0  0  0  0  0  0  0  0  0
   19.5847   -7.1231  -15.7106 C   0  0  2  0  0  0  0  0  0  0  0  0
   19.9559   -8.4638  -15.2399 N   0  0  0  0  0  0  0  0  0  0  0  0
   20.3764   -6.0858  -15.0349 C   0  0  0  0  0  0  0  0  0  0  0  0
   20.3611   -4.9052  -15.4202 O   0  0  0  0  0  0  0  0  0  0  0  0
   21.1820   -6.3984  -13.9246 O   0  0  0  0  0  0  0  0  0  0  0  0
  2  1  1  1
  3  2  1  0
  4  3  1  0
  4  5  2  0
  6  2  1  0
  6  7  2  0
  8  4  1  0
 10  9  1  1
 10 12  1  0
 11 10  1  0
 12 13  1  6
 13  6  1  0
 14 12  1  0
 15 14  2  0
 16 17  1  0
 17 19  1  0
 17 18  2  0
 20 19  1  1
 20 22  1  0
 20 21  1  0
 21 14  1  0
 22 24  1  0
 23 22  2  0
M  END
$$$$
