DVN.pdb
     RDKit          3D

 24 23  0  0  1  0  0  0  0  0999 V2000
   18.0234  -12.8455  -16.5769 N   0  0  0  0  0  0  0  0  0  0  0  0
   18.4628  -11.5862  -17.1068 C   0  0  1  0  0  0  0  0  0  0  0  0
   17.2878  -10.7536  -17.4951 C   0  0  0  0  0  0  0  0  0  0  0  0
   16.5443  -11.4074  -18.5909 C   0  0  0  0  0  0  0  0  0  0  0  0
   15.3113  -11.5814  -18.4680 O   0  0  0  0  0  0  0  0  0  0  0  0
   19.3706  -10.8956  -16.1541 C   0  0  0  0  0  0  0  0  0  0  0  0
   19.0002  -10.7623  -14.9598 O   0  0  0  0  0  0  0  0  0  0  0  0
   17.1446  -11.8433  -19.7601 O   0  0  0  0  0  0  0  0  0  0  0  0
   22.9512  -11.8762  -15.4752 C   0  0  0  0  0  0  0  0  0  0  0  0
   22.9217  -10.3852  -15.6914 C   0  0  2  0  0  0  0  0  0  0  0  0
   23.9196   -9.7307  -14.7937 C   0  0  0  0  0  0  0  0  0  0  0  0
   21.5390   -9.7997  -15.5696 C   0  0  2  0  0  0  0  0  0  0  0  0
   20.6226  -10.3850  -16.5248 N   0  0  0  0  0  0  0  0  0  0  0  0
   21.5633   -8.3094  -15.6885 C   0  0  0  0  0  0  0  0  0  0  0  0
   21.4796   -7.7427  -16.8067 O   0  0  0  0  0  0  0  0  0  0  0  0
   19.2962   -3.5366  -16.3252 N   0  0  0  0  0  0  0  0  0  0  0  0
   20.2272   -4.0662  -15.3626 C   0  0  0  0  0  0  0  0  0  0  0  0
   20.8889   -3.2134  -14.7420 O   0  0  0  0  0  0  0  0  0  0  0  0
   20.3544   -5.5135  -15.1599 C   0  0  0  0  0  0  0  0  0  0  0  0
   21.6744   -6.0145  -14.7236 C   0  0  2  0  0  0  0  0  0  0  0  0
   21.6816   -7.4722  -14.5458 N   0  0  0  0  0  0  0  0  0  0  0  0
   22.1677   -5.3310  -13.5199 C   0  0  0  0  0  0  0  0  0  0  0  0
   21.9797   -5.8002  -12.3855 O   0  0  0  0  0  0  0  0  0  0  0  0
   22.8717   -4.1165  -13.6143 O   0  0  0  0  0  0  0  0  0  0  0  0
  2  1  1  1
  3  2  1  0
  4  3  1  0
  4  5  2  0
  6  2  1  0
  6  7  2  0
  8  4  1  0
 10  9  1  1
 10 12  1  0
 11 10  1  0
 12 13  1  6
 13  6  1  0
 14 12  1  0
 15 14  2  0
 16 17  1  0
 17 19  1  0
 17 18  2  0
 20 19  1  1
 20 22  1  0
 20 21  1  0
 21 14  1  0
 22 24  1  0
 23 22  2  0
M  END
$$$$
