DVN.pdb
     RDKit          3D

 24 23  0  0  1  0  0  0  0  0999 V2000
   17.0977  -12.4901  -15.7710 N   0  0  0  0  0  0  0  0  0  0  0  0
   17.6163  -11.3045  -16.3919 C   0  0  1  0  0  0  0  0  0  0  0  0
   16.4984  -10.3971  -16.7812 C   0  0  0  0  0  0  0  0  0  0  0  0
   15.6516  -11.0462  -17.8021 C   0  0  0  0  0  0  0  0  0  0  0  0
   14.4632  -11.3187  -17.5206 O   0  0  0  0  0  0  0  0  0  0  0  0
   18.6208  -10.6426  -15.5193 C   0  0  0  0  0  0  0  0  0  0  0  0
   18.3459  -10.4788  -14.3032 O   0  0  0  0  0  0  0  0  0  0  0  0
   16.1067  -11.3735  -19.0682 O   0  0  0  0  0  0  0  0  0  0  0  0
   23.2120   -9.6273  -14.3013 C   0  0  0  0  0  0  0  0  0  0  0  0
   22.1650  -10.2757  -15.1699 C   0  0  2  0  0  0  0  0  0  0  0  0
   22.6989  -10.4430  -16.5545 C   0  0  0  0  0  0  0  0  0  0  0  0
   20.8393   -9.5617  -15.1265 C   0  0  2  0  0  0  0  0  0  0  0  0
   19.8624  -10.1915  -15.9889 N   0  0  0  0  0  0  0  0  0  0  0  0
   20.9887   -8.1096  -15.4508 C   0  0  0  0  0  0  0  0  0  0  0  0
   21.1905   -7.7217  -16.6286 O   0  0  0  0  0  0  0  0  0  0  0  0
   21.3012   -2.8958  -15.3860 N   0  0  0  0  0  0  0  0  0  0  0  0
   20.0102   -3.4992  -15.1788 C   0  0  0  0  0  0  0  0  0  0  0  0
   19.0422   -2.7210  -15.2662 O   0  0  0  0  0  0  0  0  0  0  0  0
   19.8900   -4.9321  -14.8880 C   0  0  0  0  0  0  0  0  0  0  0  0
   21.1461   -5.7066  -14.8100 C   0  0  2  0  0  0  0  0  0  0  0  0
   20.9093   -7.1090  -14.4442 N   0  0  0  0  0  0  0  0  0  0  0  0
   22.1371   -5.0864  -13.9197 C   0  0  0  0  0  0  0  0  0  0  0  0
   22.1907   -5.3706  -12.7119 O   0  0  0  0  0  0  0  0  0  0  0  0
   23.0613   -4.1453  -14.4093 O   0  0  0  0  0  0  0  0  0  0  0  0
  2  1  1  1
  3  2  1  0
  4  3  1  0
  4  5  2  0
  6  2  1  0
  6  7  2  0
  8  4  1  0
 10  9  1  1
 10 12  1  0
 11 10  1  0
 12 13  1  6
 13  6  1  0
 14 12  1  0
 15 14  2  0
 16 17  1  0
 17 19  1  0
 17 18  2  0
 20 19  1  1
 20 22  1  0
 20 21  1  0
 21 14  1  0
 22 24  1  0
 23 22  2  0
M  END
$$$$
