DVN.pdb
     RDKit          3D

 24 23  0  0  1  0  0  0  0  0999 V2000
   25.5898  -22.0760  -10.1404 N   0  0  0  0  0  0  0  0  0  0  0  0
   25.9773  -20.6963  -10.2183 C   0  0  1  0  0  0  0  0  0  0  0  0
   26.9770  -20.3823   -9.1569 C   0  0  0  0  0  0  0  0  0  0  0  0
   26.3875  -20.6121   -7.8225 C   0  0  0  0  0  0  0  0  0  0  0  0
   25.2276  -21.0747   -7.7432 O   0  0  0  0  0  0  0  0  0  0  0  0
   26.4566  -20.3544  -11.5829 C   0  0  0  0  0  0  0  0  0  0  0  0
   27.5180  -20.8858  -11.9981 O   0  0  0  0  0  0  0  0  0  0  0  0
   27.0564  -20.3399   -6.6410 O   0  0  0  0  0  0  0  0  0  0  0  0
   24.4532  -21.0547  -14.5788 C   0  0  0  0  0  0  0  0  0  0  0  0
   25.8903  -20.6015  -14.5934 C   0  0  2  0  0  0  0  0  0  0  0  0
   26.7704  -21.7182  -14.1365 C   0  0  0  0  0  0  0  0  0  0  0  0
   26.1117  -19.3209  -13.8317 C   0  0  2  0  0  0  0  0  0  0  0  0
   25.7799  -19.4659  -12.4304 N   0  0  0  0  0  0  0  0  0  0  0  0
   25.3647  -18.1814  -14.4479 C   0  0  0  0  0  0  0  0  0  0  0  0
   24.1373  -18.0157  -14.2366 O   0  0  0  0  0  0  0  0  0  0  0  0
   25.7522  -12.4924  -15.8165 N   0  0  0  0  0  0  0  0  0  0  0  0
   25.6155  -13.6979  -16.5924 C   0  0  0  0  0  0  0  0  0  0  0  0
   24.9609  -13.5783  -17.6448 O   0  0  0  0  0  0  0  0  0  0  0  0
   26.2203  -14.9549  -16.1381 C   0  0  0  0  0  0  0  0  0  0  0  0
   25.2981  -16.0092  -15.6674 C   0  0  2  0  0  0  0  0  0  0  0  0
   26.0084  -17.2399  -15.2963 N   0  0  0  0  0  0  0  0  0  0  0  0
   24.2215  -16.2874  -16.6280 C   0  0  0  0  0  0  0  0  0  0  0  0
   23.1101  -15.7416  -16.5315 O   0  0  0  0  0  0  0  0  0  0  0  0
   24.4158  -17.1863  -17.6928 O   0  0  0  0  0  0  0  0  0  0  0  0
  2  1  1  6
  3  2  1  0
  4  3  1  0
  4  5  2  0
  6  2  1  0
  6  7  2  0
  8  4  1  0
 10  9  1  1
 10 12  1  0
 11 10  1  0
 12 13  1  1
 13  6  1  0
 14 12  1  0
 15 14  2  0
 16 17  1  0
 17 19  1  0
 17 18  2  0
 20 19  1  6
 20 22  1  0
 20 21  1  0
 21 14  1  0
 22 24  1  0
 23 22  2  0
M  END
$$$$
