DVN.pdb
     RDKit          3D

 24 23  0  0  1  0  0  0  0  0999 V2000
   15.9927  -14.6559  -16.8409 N   0  0  0  0  0  0  0  0  0  0  0  0
   16.5696  -13.6992  -15.9399 C   0  0  1  0  0  0  0  0  0  0  0  0
   17.5025  -14.3796  -14.9958 C   0  0  0  0  0  0  0  0  0  0  0  0
   16.7690  -15.3761  -14.1896 C   0  0  0  0  0  0  0  0  0  0  0  0
   17.1395  -16.5709  -14.2184 O   0  0  0  0  0  0  0  0  0  0  0  0
   17.2125  -12.5861  -16.6858 C   0  0  0  0  0  0  0  0  0  0  0  0
   17.2975  -12.6711  -17.9375 O   0  0  0  0  0  0  0  0  0  0  0  0
   15.6813  -15.0562  -13.3948 O   0  0  0  0  0  0  0  0  0  0  0  0
   15.9307   -9.1716  -16.9486 C   0  0  0  0  0  0  0  0  0  0  0  0
   17.1007   -9.7474  -17.7038 C   0  0  2  0  0  0  0  0  0  0  0  0
   16.6100  -10.7506  -18.6952 C   0  0  0  0  0  0  0  0  0  0  0  0
   18.1789  -10.2844  -16.7992 C   0  0  2  0  0  0  0  0  0  0  0  0
   17.7295  -11.4438  -16.0585 N   0  0  0  0  0  0  0  0  0  0  0  0
   18.7000   -9.2259  -15.8805 C   0  0  0  0  0  0  0  0  0  0  0  0
   18.1284   -8.9679  -14.7918 O   0  0  0  0  0  0  0  0  0  0  0  0
   23.3826   -9.6706  -15.4155 N   0  0  0  0  0  0  0  0  0  0  0  0
   22.4035   -8.9652  -14.6296 C   0  0  0  0  0  0  0  0  0  0  0  0
   22.0577   -9.5361  -13.5786 O   0  0  0  0  0  0  0  0  0  0  0  0
   21.8781   -7.6693  -15.0731 C   0  0  0  0  0  0  0  0  0  0  0  0
   20.4103   -7.5485  -15.1940 C   0  0  2  0  0  0  0  0  0  0  0  0
   19.8603   -8.4686  -16.1978 N   0  0  0  0  0  0  0  0  0  0  0  0
   19.9766   -6.1674  -15.4464 C   0  0  0  0  0  0  0  0  0  0  0  0
   19.4320   -5.8444  -16.5149 O   0  0  0  0  0  0  0  0  0  0  0  0
   20.1661   -5.1613  -14.4814 O   0  0  0  0  0  0  0  0  0  0  0  0
  2  1  1  6
  3  2  1  0
  4  3  1  0
  4  5  2  0
  6  2  1  0
  6  7  2  0
  8  4  1  0
 10  9  1  1
 10 12  1  0
 11 10  1  0
 12 13  1  1
 13  6  1  0
 14 12  1  0
 15 14  2  0
 16 17  1  0
 17 19  1  0
 17 18  2  0
 20 19  1  6
 20 22  1  0
 20 21  1  0
 21 14  1  0
 22 24  1  0
 23 22  2  0
M  END
$$$$
