DVN.pdb
     RDKit          3D

 24 23  0  0  1  0  0  0  0  0999 V2000
   16.2234  -13.6037  -15.6662 N   0  0  0  0  0  0  0  0  0  0  0  0
   15.5853  -12.3614  -15.3351 C   0  0  1  0  0  0  0  0  0  0  0  0
   14.3223  -12.6164  -14.5840 C   0  0  0  0  0  0  0  0  0  0  0  0
   13.3410  -13.2906  -15.4577 C   0  0  0  0  0  0  0  0  0  0  0  0
   13.1417  -12.8390  -16.6075 O   0  0  0  0  0  0  0  0  0  0  0  0
   16.5181  -11.4612  -14.6085 C   0  0  0  0  0  0  0  0  0  0  0  0
   17.3278  -11.9677  -13.7905 O   0  0  0  0  0  0  0  0  0  0  0  0
   12.6214  -14.4079  -15.0690 O   0  0  0  0  0  0  0  0  0  0  0  0
   19.2775   -9.3912  -15.7721 C   0  0  0  0  0  0  0  0  0  0  0  0
   18.3738   -8.4689  -14.9951 C   0  0  2  0  0  0  0  0  0  0  0  0
   19.1952   -7.4309  -14.3038 C   0  0  0  0  0  0  0  0  0  0  0  0
   17.4405   -9.2026  -14.0678 C   0  0  2  0  0  0  0  0  0  0  0  0
   16.5378  -10.0714  -14.7923 N   0  0  0  0  0  0  0  0  0  0  0  0
   16.6883   -8.2565  -13.1873 C   0  0  0  0  0  0  0  0  0  0  0  0
   15.9294   -7.3794  -13.6702 O   0  0  0  0  0  0  0  0  0  0  0  0
   14.5777   -6.9023   -7.7128 N   0  0  0  0  0  0  0  0  0  0  0  0
   15.6595   -6.5678   -8.6026 C   0  0  0  0  0  0  0  0  0  0  0  0
   16.0600   -5.3912   -8.5297 O   0  0  0  0  0  0  0  0  0  0  0  0
   16.2195   -7.5725   -9.5133 C   0  0  0  0  0  0  0  0  0  0  0  0
   16.0915   -7.3081  -10.9615 C   0  0  2  0  0  0  0  0  0  0  0  0
   16.7989   -8.3085  -11.7710 N   0  0  0  0  0  0  0  0  0  0  0  0
   16.5025   -5.9449  -11.3248 C   0  0  0  0  0  0  0  0  0  0  0  0
   15.6665   -5.0559  -11.5556 O   0  0  0  0  0  0  0  0  0  0  0  0
   17.8632   -5.6014  -11.4243 O   0  0  0  0  0  0  0  0  0  0  0  0
  2  1  1  1
  3  2  1  0
  4  3  1  0
  4  5  2  0
  6  2  1  0
  6  7  2  0
  8  4  1  0
 10  9  1  1
 10 12  1  0
 11 10  1  0
 12 13  1  6
 13  6  1  0
 14 12  1  0
 15 14  2  0
 16 17  1  0
 17 19  1  0
 17 18  2  0
 20 19  1  1
 20 22  1  0
 20 21  1  0
 21 14  1  0
 22 24  1  0
 23 22  2  0
M  END
$$$$
