DVN.pdb
     RDKit          3D

 24 23  0  0  1  0  0  0  0  0999 V2000
   18.6554  -12.9518  -16.1176 N   0  0  0  0  0  0  0  0  0  0  0  0
   19.1297  -11.7952  -16.8228 C   0  0  1  0  0  0  0  0  0  0  0  0
   17.9783  -10.9973  -17.3348 C   0  0  0  0  0  0  0  0  0  0  0  0
   17.3087  -11.7224  -18.4333 C   0  0  0  0  0  0  0  0  0  0  0  0
   17.7470  -12.8432  -18.7762 O   0  0  0  0  0  0  0  0  0  0  0  0
   20.0543  -10.9975  -15.9757 C   0  0  0  0  0  0  0  0  0  0  0  0
   19.7683  -10.8344  -14.7622 O   0  0  0  0  0  0  0  0  0  0  0  0
   16.2097  -11.2235  -19.1121 O   0  0  0  0  0  0  0  0  0  0  0  0
   23.7348  -11.5231  -15.2511 C   0  0  0  0  0  0  0  0  0  0  0  0
   23.5469  -10.1100  -15.7399 C   0  0  2  0  0  0  0  0  0  0  0  0
   24.5198   -9.2102  -15.0515 C   0  0  0  0  0  0  0  0  0  0  0  0
   22.1211   -9.6352  -15.6345 C   0  0  2  0  0  0  0  0  0  0  0  0
   21.2323  -10.4174  -16.4669 N   0  0  0  0  0  0  0  0  0  0  0  0
   22.0057   -8.1767  -15.9436 C   0  0  0  0  0  0  0  0  0  0  0  0
   22.2499   -7.7322  -17.0931 O   0  0  0  0  0  0  0  0  0  0  0  0
   20.8653   -3.0800  -15.9471 N   0  0  0  0  0  0  0  0  0  0  0  0
   20.0305   -3.7888  -15.0119 C   0  0  0  0  0  0  0  0  0  0  0  0
   19.1046   -3.1197  -14.5166 O   0  0  0  0  0  0  0  0  0  0  0  0
   20.2883   -5.1977  -14.6947 C   0  0  0  0  0  0  0  0  0  0  0  0
   21.4667   -5.8220  -15.3312 C   0  0  2  0  0  0  0  0  0  0  0  0
   21.6162   -7.2335  -14.9541 N   0  0  0  0  0  0  0  0  0  0  0  0
   22.7059   -5.0725  -15.0823 C   0  0  0  0  0  0  0  0  0  0  0  0
   23.1659   -4.9435  -13.9359 O   0  0  0  0  0  0  0  0  0  0  0  0
   23.4141   -4.4730  -16.1399 O   0  0  0  0  0  0  0  0  0  0  0  0
  2  1  1  1
  3  2  1  0
  4  3  1  0
  4  5  2  0
  6  2  1  0
  6  7  2  0
  8  4  1  0
 10  9  1  1
 10 12  1  0
 11 10  1  0
 12 13  1  6
 13  6  1  0
 14 12  1  0
 15 14  2  0
 16 17  1  0
 17 19  1  0
 17 18  2  0
 20 19  1  1
 20 22  1  0
 20 21  1  0
 21 14  1  0
 22 24  1  0
 23 22  2  0
M  END
$$$$
