THS.pdb
     RDKit          3D

 24 24  0  0  1  0  0  0  0  0999 V2000
    7.8712  -18.2498   21.1079 C   0  0  0  0  0  0  0  0  0  0  0  0
    8.9960  -17.8672   20.1712 C   0  0  1  0  0  0  0  0  0  0  0  0
    8.8160  -18.3856   18.9088 O   0  0  0  0  0  0  0  0  0  0  0  0
    9.0797  -16.3643   20.1429 C   0  0  2  0  0  0  0  0  0  0  0  0
   10.0545  -15.9491   19.1677 N   0  0  0  0  0  0  0  0  0  0  0  0
    9.3575  -15.7851   21.4857 C   0  0  0  0  0  0  0  0  0  0  0  0
   10.5246  -15.7959   21.9307 O   0  0  0  0  0  0  0  0  0  0  0  0
    8.2648  -15.2403   22.2059 N   0  0  0  0  0  0  0  0  0  0  0  0
    8.4536  -14.7902   23.6010 C   0  0  1  0  0  0  0  0  0  0  0  0
    7.2661  -14.0139   24.0094 C   0  0  0  0  0  0  0  0  0  0  0  0
    7.2242  -13.5668   25.4094 C   0  0  0  0  0  0  0  0  0  0  0  0
    8.0595  -13.8291   26.4487 C   0  0  0  0  0  0  0  0  0  0  0  0
    7.6419  -13.1344   27.5156 N   0  0  0  0  0  0  0  0  0  0  0  0
    6.5626  -12.4495   27.1417 C   0  0  0  0  0  0  0  0  0  0  0  0
    6.2827  -12.6920   25.8619 N   0  0  0  0  0  0  0  0  0  0  0  0
    8.6118  -16.0669   24.3502 C   0  0  0  0  0  0  0  0  0  0  0  0
    7.7863  -16.9772   24.1990 O   0  0  0  0  0  0  0  0  0  0  0  0
   11.9398  -17.6378   25.1696 O   0  0  0  0  0  0  0  0  0  0  0  0
   10.8083  -18.3701   25.5019 C   0  0  0  0  0  0  0  0  0  0  0  0
    9.7242  -17.4738   26.0696 C   0  0  2  0  0  0  0  0  0  0  0  0
    9.7071  -16.2573   25.2451 N   0  0  0  0  0  0  0  0  0  0  0  0
   10.0874  -17.1045   27.4665 C   0  0  0  0  0  0  0  0  0  0  0  0
   10.3212  -15.9037   27.7639 O   0  0  0  0  0  0  0  0  0  0  0  0
   10.1602  -18.1062   28.4185 O   0  0  0  0  0  0  0  0  0  0  0  0
  2  1  1  1
  2  4  1  0
  3  2  1  0
  4  5  1  6
  6  4  1  0
  7  6  2  0
  8  6  1  0
  9  8  1  0
  9 10  1  1
 10 11  1  0
 11 15  1  0
 11 12  2  0
 12 13  1  0
 14 13  1  0
 15 14  2  0
 16  9  1  0
 17 16  2  0
 18 19  1  0
 20 19  1  6
 20 22  1  0
 20 21  1  0
 21 16  1  0
 22 24  1  0
 23 22  2  0
M  END
$$$$
