THS.pdb
     RDKit          3D

 24 24  0  0  1  0  0  0  0  0999 V2000
   11.2818  -20.2038   16.4930 C   0  0  0  0  0  0  0  0  0  0  0  0
   11.6000  -19.2837   17.6511 C   0  0  1  0  0  0  0  0  0  0  0  0
   12.8781  -19.4734   18.1257 O   0  0  0  0  0  0  0  0  0  0  0  0
   11.3902  -17.8677   17.1845 C   0  0  2  0  0  0  0  0  0  0  0  0
   12.2179  -17.6058   16.0357 N   0  0  0  0  0  0  0  0  0  0  0  0
   11.6155  -16.8728   18.2687 C   0  0  0  0  0  0  0  0  0  0  0  0
   12.6653  -16.1959   18.2736 O   0  0  0  0  0  0  0  0  0  0  0  0
   10.6102  -16.7404   19.2592 N   0  0  0  0  0  0  0  0  0  0  0  0
   10.7546  -15.7252   20.3236 C   0  0  1  0  0  0  0  0  0  0  0  0
    9.4094  -15.2608   20.7162 C   0  0  0  0  0  0  0  0  0  0  0  0
    8.7791  -14.2610   19.8415 C   0  0  0  0  0  0  0  0  0  0  0  0
    9.2300  -13.6684   18.7048 C   0  0  0  0  0  0  0  0  0  0  0  0
    8.2627  -12.8735   18.2273 N   0  0  0  0  0  0  0  0  0  0  0  0
    7.2255  -12.9737   19.0567 C   0  0  0  0  0  0  0  0  0  0  0  0
    7.5095  -13.8132   20.0515 N   0  0  0  0  0  0  0  0  0  0  0  0
   11.4631  -16.4654   21.4036 C   0  0  0  0  0  0  0  0  0  0  0  0
   10.9281  -17.4501   21.9300 O   0  0  0  0  0  0  0  0  0  0  0  0
   15.0404  -17.4071   21.2618 O   0  0  0  0  0  0  0  0  0  0  0  0
   14.1997  -17.9260   22.2370 C   0  0  0  0  0  0  0  0  0  0  0  0
   13.4031  -16.8267   22.9134 C   0  0  2  0  0  0  0  0  0  0  0  0
   12.7570  -16.0537   21.8433 N   0  0  0  0  0  0  0  0  0  0  0  0
   14.3419  -15.9363   23.6519 C   0  0  0  0  0  0  0  0  0  0  0  0
   14.5480  -14.7609   23.2508 O   0  0  0  0  0  0  0  0  0  0  0  0
   14.9749  -16.4307   24.7788 O   0  0  0  0  0  0  0  0  0  0  0  0
  2  1  1  6
  2  4  1  0
  3  2  1  0
  4  5  1  6
  6  4  1  0
  7  6  2  0
  8  6  1  0
  9  8  1  0
  9 10  1  1
 10 11  1  0
 11 15  1  0
 11 12  2  0
 12 13  1  0
 14 13  1  0
 15 14  2  0
 16  9  1  0
 17 16  2  0
 18 19  1  0
 20 19  1  6
 20 22  1  0
 20 21  1  0
 21 16  1  0
 22 24  1  0
 23 22  2  0
M  END
$$$$
