THS.pdb
     RDKit          3D

 24 24  0  0  1  0  0  0  0  0999 V2000
    7.3542  -13.5080   19.3796 C   0  0  0  0  0  0  0  0  0  0  0  0
    8.3832  -12.8080   18.5193 C   0  0  1  0  0  0  0  0  0  0  0  0
    9.4077  -12.2759   19.2691 O   0  0  0  0  0  0  0  0  0  0  0  0
    8.8964  -13.8041   17.5138 C   0  0  2  0  0  0  0  0  0  0  0  0
    7.8192  -14.2327   16.6596 N   0  0  0  0  0  0  0  0  0  0  0  0
    9.5865  -14.9560   18.1562 C   0  0  0  0  0  0  0  0  0  0  0  0
    8.9484  -16.0052   18.3854 O   0  0  0  0  0  0  0  0  0  0  0  0
   10.9576  -14.8029   18.4819 N   0  0  0  0  0  0  0  0  0  0  0  0
   11.6851  -15.9070   19.1424 C   0  0  1  0  0  0  0  0  0  0  0  0
   12.8183  -16.3038   18.2834 C   0  0  0  0  0  0  0  0  0  0  0  0
   13.8568  -15.2880   18.0564 C   0  0  0  0  0  0  0  0  0  0  0  0
   14.0251  -14.4055   17.0369 C   0  0  0  0  0  0  0  0  0  0  0  0
   15.0850  -13.6337   17.3133 N   0  0  0  0  0  0  0  0  0  0  0  0
   15.5661  -14.0321   18.4895 C   0  0  0  0  0  0  0  0  0  0  0  0
   14.8380  -15.0397   18.9686 N   0  0  0  0  0  0  0  0  0  0  0  0
   12.1070  -15.3071   20.4380 C   0  0  0  0  0  0  0  0  0  0  0  0
   11.8696  -14.1147   20.6719 O   0  0  0  0  0  0  0  0  0  0  0  0
   10.4013  -16.4533   24.1448 O   0  0  0  0  0  0  0  0  0  0  0  0
   10.8858  -16.4135   22.8446 C   0  0  0  0  0  0  0  0  0  0  0  0
   12.3411  -15.9867   22.8163 C   0  0  2  0  0  0  0  0  0  0  0  0
   12.7848  -16.0911   21.4191 N   0  0  0  0  0  0  0  0  0  0  0  0
   13.1368  -16.9335   23.6471 C   0  0  0  0  0  0  0  0  0  0  0  0
   13.3284  -16.6974   24.8688 O   0  0  0  0  0  0  0  0  0  0  0  0
   13.6542  -18.0676   23.0462 O   0  0  0  0  0  0  0  0  0  0  0  0
  2  1  1  1
  2  4  1  0
  3  2  1  0
  4  5  1  1
  6  4  1  0
  7  6  2  0
  8  6  1  0
  9  8  1  0
  9 10  1  6
 10 11  1  0
 11 15  1  0
 11 12  2  0
 12 13  1  0
 14 13  1  0
 15 14  2  0
 16  9  1  0
 17 16  2  0
 18 19  1  0
 20 19  1  6
 20 22  1  0
 20 21  1  0
 21 16  1  0
 22 24  1  0
 23 22  2  0
M  END
$$$$
