THS.pdb
     RDKit          3D

 24 24  0  0  1  0  0  0  0  0999 V2000
    8.3103  -13.0905   19.8265 C   0  0  0  0  0  0  0  0  0  0  0  0
    7.5363  -13.7746   18.7211 C   0  0  1  0  0  0  0  0  0  0  0  0
    6.4454  -13.0365   18.3212 O   0  0  0  0  0  0  0  0  0  0  0  0
    8.4853  -14.0186   17.5782 C   0  0  2  0  0  0  0  0  0  0  0  0
    7.7780  -14.6211   16.4780 N   0  0  0  0  0  0  0  0  0  0  0  0
    9.6689  -14.8248   17.9845 C   0  0  0  0  0  0  0  0  0  0  0  0
    9.6032  -16.0719   17.9545 O   0  0  0  0  0  0  0  0  0  0  0  0
   10.8324  -14.1255   18.3925 N   0  0  0  0  0  0  0  0  0  0  0  0
   11.9977  -14.8736   18.9092 C   0  0  1  0  0  0  0  0  0  0  0  0
   13.2263  -14.1404   18.5452 C   0  0  0  0  0  0  0  0  0  0  0  0
   14.4976  -14.7262   18.9950 C   0  0  0  0  0  0  0  0  0  0  0  0
   14.7518  -15.8703   19.6825 C   0  0  0  0  0  0  0  0  0  0  0  0
   16.0793  -16.0124   19.7958 N   0  0  0  0  0  0  0  0  0  0  0  0
   16.6403  -14.9703   19.1850 C   0  0  0  0  0  0  0  0  0  0  0  0
   15.7014  -14.1676   18.6858 N   0  0  0  0  0  0  0  0  0  0  0  0
   11.7482  -14.9177   20.3763 C   0  0  0  0  0  0  0  0  0  0  0  0
   11.5345  -13.8683   20.9975 O   0  0  0  0  0  0  0  0  0  0  0  0
   10.2540  -18.0214   22.1920 O   0  0  0  0  0  0  0  0  0  0  0  0
   10.4048  -16.8583   22.9346 C   0  0  0  0  0  0  0  0  0  0  0  0
   11.6738  -16.1232   22.5475 C   0  0  2  0  0  0  0  0  0  0  0  0
   11.7520  -16.1591   21.0804 N   0  0  0  0  0  0  0  0  0  0  0  0
   12.8440  -16.8533   23.1108 C   0  0  0  0  0  0  0  0  0  0  0  0
   13.6469  -17.4494   22.3458 O   0  0  0  0  0  0  0  0  0  0  0  0
   13.0231  -16.8587   24.4830 O   0  0  0  0  0  0  0  0  0  0  0  0
  2  1  1  1
  2  4  1  0
  3  2  1  0
  4  5  1  6
  6  4  1  0
  7  6  2  0
  8  6  1  0
  9  8  1  0
  9 10  1  1
 10 11  1  0
 11 15  1  0
 11 12  2  0
 12 13  1  0
 14 13  1  0
 15 14  2  0
 16  9  1  0
 17 16  2  0
 18 19  1  0
 20 19  1  6
 20 22  1  0
 20 21  1  0
 21 16  1  0
 22 24  1  0
 23 22  2  0
M  END
$$$$
