THS.pdb
     RDKit          3D

 24 24  0  0  1  0  0  0  0  0999 V2000
   16.9300  -14.2569   19.5210 C   0  0  0  0  0  0  0  0  0  0  0  0
   16.6051  -13.3737   18.3364 C   0  0  1  0  0  0  0  0  0  0  0  0
   17.7290  -12.7722   17.8168 O   0  0  0  0  0  0  0  0  0  0  0  0
   15.9088  -14.2231   17.3067 C   0  0  2  0  0  0  0  0  0  0  0  0
   15.6728  -13.4489   16.1157 N   0  0  0  0  0  0  0  0  0  0  0  0
   14.6557  -14.8348   17.8277 C   0  0  0  0  0  0  0  0  0  0  0  0
   13.5560  -14.3056   17.5611 O   0  0  0  0  0  0  0  0  0  0  0  0
   14.7742  -16.0081   18.6142 N   0  0  0  0  0  0  0  0  0  0  0  0
   13.5601  -16.6720   19.1335 C   0  0  1  0  0  0  0  0  0  0  0  0
   13.5819  -18.0872   18.7137 C   0  0  0  0  0  0  0  0  0  0  0  0
   12.5435  -18.9573   19.2851 C   0  0  0  0  0  0  0  0  0  0  0  0
   12.6473  -20.0807   20.0425 C   0  0  0  0  0  0  0  0  0  0  0  0
   11.4140  -20.4805   20.3812 N   0  0  0  0  0  0  0  0  0  0  0  0
   10.5575  -19.6150   19.8418 C   0  0  0  0  0  0  0  0  0  0  0  0
   11.2161  -18.6737   19.1671 N   0  0  0  0  0  0  0  0  0  0  0  0
   13.6785  -16.4903   20.6064 C   0  0  0  0  0  0  0  0  0  0  0  0
   14.7947  -16.5051   21.1419 O   0  0  0  0  0  0  0  0  0  0  0  0
   11.4182  -15.4600   24.7819 O   0  0  0  0  0  0  0  0  0  0  0  0
   11.3482  -15.6877   23.4144 C   0  0  0  0  0  0  0  0  0  0  0  0
   12.7058  -16.0645   22.8527 C   0  0  2  0  0  0  0  0  0  0  0  0
   12.5176  -16.2986   21.4140 N   0  0  0  0  0  0  0  0  0  0  0  0
   13.1567  -17.3321   23.4926 C   0  0  0  0  0  0  0  0  0  0  0  0
   12.8455  -18.4424   22.9872 O   0  0  0  0  0  0  0  0  0  0  0  0
   13.9188  -17.2572   24.6452 O   0  0  0  0  0  0  0  0  0  0  0  0
  2  1  1  1
  2  4  1  0
  3  2  1  0
  4  5  1  6
  6  4  1  0
  7  6  2  0
  8  6  1  0
  9  8  1  0
  9 10  1  1
 10 11  1  0
 11 15  1  0
 11 12  2  0
 12 13  1  0
 14 13  1  0
 15 14  2  0
 16  9  1  0
 17 16  2  0
 18 19  1  0
 20 19  1  1
 20 22  1  0
 20 21  1  0
 21 16  1  0
 22 24  1  0
 23 22  2  0
M  END
$$$$
