THS.pdb
     RDKit          3D

 24 24  0  0  1  0  0  0  0  0999 V2000
    8.7636  -12.7706   19.1341 C   0  0  0  0  0  0  0  0  0  0  0  0
    8.0178  -13.2483   17.9075 C   0  0  1  0  0  0  0  0  0  0  0  0
    8.0182  -12.3067   16.9034 O   0  0  0  0  0  0  0  0  0  0  0  0
    8.6531  -14.5360   17.4554 C   0  0  2  0  0  0  0  0  0  0  0  0
    8.0249  -14.9892   16.2414 N   0  0  0  0  0  0  0  0  0  0  0  0
    8.6327  -15.5823   18.5141 C   0  0  0  0  0  0  0  0  0  0  0  0
    7.5631  -16.1726   18.7748 O   0  0  0  0  0  0  0  0  0  0  0  0
    9.8491  -15.8620   19.1859 N   0  0  0  0  0  0  0  0  0  0  0  0
    9.9028  -16.9438   20.1916 C   0  0  1  0  0  0  0  0  0  0  0  0
   10.9741  -17.8860   19.8120 C   0  0  0  0  0  0  0  0  0  0  0  0
   10.5897  -18.9940   18.9253 C   0  0  0  0  0  0  0  0  0  0  0  0
    9.5284  -19.8411   18.9749 C   0  0  0  0  0  0  0  0  0  0  0  0
    9.5727  -20.6417   17.9013 N   0  0  0  0  0  0  0  0  0  0  0  0
   10.6469  -20.2939   17.1951 C   0  0  0  0  0  0  0  0  0  0  0  0
   11.2881  -19.2912   17.7937 N   0  0  0  0  0  0  0  0  0  0  0  0
   10.1791  -16.2140   21.4595 C   0  0  0  0  0  0  0  0  0  0  0  0
   11.0580  -15.3426   21.4906 O   0  0  0  0  0  0  0  0  0  0  0  0
    7.5154  -14.7432   23.8303 O   0  0  0  0  0  0  0  0  0  0  0  0
    8.3879  -15.5337   24.5656 C   0  0  0  0  0  0  0  0  0  0  0  0
    9.7122  -15.7020   23.8455 C   0  0  2  0  0  0  0  0  0  0  0  0
    9.4414  -16.5065   22.6457 N   0  0  0  0  0  0  0  0  0  0  0  0
   10.6484  -16.4529   24.7284 C   0  0  0  0  0  0  0  0  0  0  0  0
   10.9952  -15.9716   25.8389 O   0  0  0  0  0  0  0  0  0  0  0  0
   11.1217  -17.6805   24.2997 O   0  0  0  0  0  0  0  0  0  0  0  0
  2  1  1  1
  2  4  1  0
  3  2  1  0
  4  5  1  6
  6  4  1  0
  7  6  2  0
  8  6  1  0
  9  8  1  0
  9 10  1  6
 10 11  1  0
 11 15  1  0
 11 12  2  0
 12 13  1  0
 14 13  1  0
 15 14  2  0
 16  9  1  0
 17 16  2  0
 18 19  1  0
 20 19  1  1
 20 22  1  0
 20 21  1  0
 21 16  1  0
 22 24  1  0
 23 22  2  0
M  END
$$$$
