THS.pdb
     RDKit          3D

 24 24  0  0  1  0  0  0  0  0999 V2000
    8.2355  -20.3387   17.3944 C   0  0  0  0  0  0  0  0  0  0  0  0
    8.2713  -19.7239   18.7764 C   0  0  1  0  0  0  0  0  0  0  0  0
    9.0673  -18.6018   18.8222 O   0  0  0  0  0  0  0  0  0  0  0  0
    6.8543  -19.4109   19.1773 C   0  0  2  0  0  0  0  0  0  0  0  0
    6.2510  -18.5448   18.1978 N   0  0  0  0  0  0  0  0  0  0  0  0
    6.7646  -18.8425   20.5502 C   0  0  0  0  0  0  0  0  0  0  0  0
    6.3803  -17.6639   20.7039 O   0  0  0  0  0  0  0  0  0  0  0  0
    7.1258  -19.6813   21.6343 N   0  0  0  0  0  0  0  0  0  0  0  0
    7.0714  -19.1618   23.0170 C   0  0  1  0  0  0  0  0  0  0  0  0
    6.7918  -20.2867   23.9313 C   0  0  0  0  0  0  0  0  0  0  0  0
    6.8800  -19.9999   25.3706 C   0  0  0  0  0  0  0  0  0  0  0  0
    6.5592  -18.8814   26.0724 C   0  0  0  0  0  0  0  0  0  0  0  0
    6.7501  -19.1278   27.3756 N   0  0  0  0  0  0  0  0  0  0  0  0
    7.1822  -20.3832   27.4797 C   0  0  0  0  0  0  0  0  0  0  0  0
    7.2715  -20.9421   26.2737 N   0  0  0  0  0  0  0  0  0  0  0  0
    8.4223  -18.5661   23.2082 C   0  0  0  0  0  0  0  0  0  0  0  0
    9.4141  -19.1132   22.7082 O   0  0  0  0  0  0  0  0  0  0  0  0
    9.6153  -15.0158   22.6592 O   0  0  0  0  0  0  0  0  0  0  0  0
    9.8871  -15.3517   23.9784 C   0  0  0  0  0  0  0  0  0  0  0  0
    9.9558  -16.8565   24.1563 C   0  0  2  0  0  0  0  0  0  0  0  0
    8.5912  -17.3673   23.9640 N   0  0  0  0  0  0  0  0  0  0  0  0
   10.3914  -17.1573   25.5489 C   0  0  0  0  0  0  0  0  0  0  0  0
   11.5568  -16.8649   25.9252 O   0  0  0  0  0  0  0  0  0  0  0  0
    9.4904  -17.7603   26.4089 O   0  0  0  0  0  0  0  0  0  0  0  0
  2  1  1  6
  2  4  1  0
  3  2  1  0
  4  5  1  6
  6  4  1  0
  7  6  2  0
  8  6  1  0
  9  8  1  0
  9 10  1  1
 10 11  1  0
 11 15  1  0
 11 12  2  0
 12 13  1  0
 14 13  1  0
 15 14  2  0
 16  9  1  0
 17 16  2  0
 18 19  1  0
 20 19  1  1
 20 22  1  0
 20 21  1  0
 21 16  1  0
 22 24  1  0
 23 22  2  0
M  END
$$$$
