THS.pdb
     RDKit          3D

 24 24  0  0  1  0  0  0  0  0999 V2000
   12.1087  -18.8718   15.7795 C   0  0  0  0  0  0  0  0  0  0  0  0
   12.6760  -18.2088   14.5436 C   0  0  1  0  0  0  0  0  0  0  0  0
   12.8078  -19.0933   13.4971 O   0  0  0  0  0  0  0  0  0  0  0  0
   11.7733  -17.0592   14.1829 C   0  0  2  0  0  0  0  0  0  0  0  0
   12.2094  -16.4674   12.9446 N   0  0  0  0  0  0  0  0  0  0  0  0
   11.6729  -16.0514   15.2738 C   0  0  0  0  0  0  0  0  0  0  0  0
   12.6947  -15.4282   15.6313 O   0  0  0  0  0  0  0  0  0  0  0  0
   10.4005  -15.8451   15.8636 N   0  0  0  0  0  0  0  0  0  0  0  0
   10.2549  -14.8957   16.9869 C   0  0  1  0  0  0  0  0  0  0  0  0
    8.8161  -14.6716   17.2299 C   0  0  0  0  0  0  0  0  0  0  0  0
    8.4680  -13.8520   18.3999 C   0  0  0  0  0  0  0  0  0  0  0  0
    9.2582  -13.1797   19.2773 C   0  0  0  0  0  0  0  0  0  0  0  0
    8.4717  -12.5183   20.1372 N   0  0  0  0  0  0  0  0  0  0  0  0
    7.2106  -12.7765   19.7958 C   0  0  0  0  0  0  0  0  0  0  0  0
    7.1752  -13.5871   18.7392 N   0  0  0  0  0  0  0  0  0  0  0  0
   10.9428  -15.5911   18.1093 C   0  0  0  0  0  0  0  0  0  0  0  0
   10.9405  -16.8280   18.1625 O   0  0  0  0  0  0  0  0  0  0  0  0
   14.4931  -15.3891   21.2840 O   0  0  0  0  0  0  0  0  0  0  0  0
   13.6498  -14.7558   20.3813 C   0  0  0  0  0  0  0  0  0  0  0  0
   12.4106  -15.5886   20.1140 C   0  0  2  0  0  0  0  0  0  0  0  0
   11.6082  -14.8482   19.1301 N   0  0  0  0  0  0  0  0  0  0  0  0
   11.6311  -15.7113   21.3777 C   0  0  0  0  0  0  0  0  0  0  0  0
   12.0795  -16.3955   22.3347 O   0  0  0  0  0  0  0  0  0  0  0  0
   10.4138  -15.0598   21.4706 O   0  0  0  0  0  0  0  0  0  0  0  0
  2  1  1  1
  2  4  1  0
  3  2  1  0
  4  5  1  6
  6  4  1  0
  7  6  2  0
  8  6  1  0
  9  8  1  0
  9 10  1  1
 10 11  1  0
 11 15  1  0
 11 12  2  0
 12 13  1  0
 14 13  1  0
 15 14  2  0
 16  9  1  0
 17 16  2  0
 18 19  1  0
 20 19  1  1
 20 22  1  0
 20 21  1  0
 21 16  1  0
 22 24  1  0
 23 22  2  0
M  END
$$$$
