THS.pdb
     RDKit          3D

 24 24  0  0  1  0  0  0  0  0999 V2000
    7.8914  -12.3049   19.6433 C   0  0  0  0  0  0  0  0  0  0  0  0
    8.2245  -13.4101   20.6213 C   0  0  1  0  0  0  0  0  0  0  0  0
    7.2143  -13.6142   21.5339 O   0  0  0  0  0  0  0  0  0  0  0  0
    8.5094  -14.6568   19.8269 C   0  0  2  0  0  0  0  0  0  0  0  0
    7.3975  -14.9458   18.9587 N   0  0  0  0  0  0  0  0  0  0  0  0
    8.8520  -15.8173   20.6939 C   0  0  0  0  0  0  0  0  0  0  0  0
    7.9910  -16.6947   20.9157 O   0  0  0  0  0  0  0  0  0  0  0  0
   10.1613  -15.8705   21.2346 N   0  0  0  0  0  0  0  0  0  0  0  0
   10.5450  -16.9853   22.1259 C   0  0  1  0  0  0  0  0  0  0  0  0
   11.9611  -17.3203   21.8771 C   0  0  0  0  0  0  0  0  0  0  0  0
   12.2316  -18.2415   20.7635 C   0  0  0  0  0  0  0  0  0  0  0  0
   11.5344  -19.3183   20.3153 C   0  0  0  0  0  0  0  0  0  0  0  0
   12.1465  -19.7967   19.2235 N   0  0  0  0  0  0  0  0  0  0  0  0
   13.2084  -19.0253   18.9977 C   0  0  0  0  0  0  0  0  0  0  0  0
   13.2873  -18.0672   19.9200 N   0  0  0  0  0  0  0  0  0  0  0  0
   10.2986  -16.4317   23.4858 C   0  0  0  0  0  0  0  0  0  0  0  0
   10.9568  -15.4624   23.8858 O   0  0  0  0  0  0  0  0  0  0  0  0
    7.0934  -15.4981   24.9348 O   0  0  0  0  0  0  0  0  0  0  0  0
    7.6689  -16.2791   25.9277 C   0  0  0  0  0  0  0  0  0  0  0  0
    9.1572  -16.4531   25.6926 C   0  0  2  0  0  0  0  0  0  0  0  0
    9.3093  -17.0058   24.3393 N   0  0  0  0  0  0  0  0  0  0  0  0
    9.6886  -17.4363   26.6777 C   0  0  0  0  0  0  0  0  0  0  0  0
   10.1740  -18.5290   26.2833 O   0  0  0  0  0  0  0  0  0  0  0  0
    9.6348  -17.1200   28.0238 O   0  0  0  0  0  0  0  0  0  0  0  0
  2  1  1  6
  2  4  1  0
  3  2  1  0
  4  5  1  1
  6  4  1  0
  7  6  2  0
  8  6  1  0
  9  8  1  0
  9 10  1  1
 10 11  1  0
 11 15  1  0
 11 12  2  0
 12 13  1  0
 14 13  1  0
 15 14  2  0
 16  9  1  0
 17 16  2  0
 18 19  1  0
 20 19  1  1
 20 22  1  0
 20 21  1  0
 21 16  1  0
 22 24  1  0
 23 22  2  0
M  END
$$$$
