THS.pdb
     RDKit          3D

 24 24  0  0  1  0  0  0  0  0999 V2000
    8.8084  -20.5098   18.2154 C   0  0  0  0  0  0  0  0  0  0  0  0
    9.2351  -19.5896   19.3380 C   0  0  1  0  0  0  0  0  0  0  0  0
   10.3937  -20.0183   19.9452 O   0  0  0  0  0  0  0  0  0  0  0  0
    9.3928  -18.2067   18.7643 C   0  0  2  0  0  0  0  0  0  0  0  0
   10.3637  -18.2284   17.7010 N   0  0  0  0  0  0  0  0  0  0  0  0
    9.7310  -17.1956   19.8033 C   0  0  0  0  0  0  0  0  0  0  0  0
   10.9202  -16.8455   19.9566 O   0  0  0  0  0  0  0  0  0  0  0  0
    8.6683  -16.6709   20.5809 N   0  0  0  0  0  0  0  0  0  0  0  0
    8.9498  -15.6733   21.6345 C   0  0  1  0  0  0  0  0  0  0  0  0
    7.8879  -14.6481   21.6072 C   0  0  0  0  0  0  0  0  0  0  0  0
    7.8764  -13.7458   20.4464 C   0  0  0  0  0  0  0  0  0  0  0  0
    6.9142  -13.5113   19.5160 C   0  0  0  0  0  0  0  0  0  0  0  0
    7.3458  -12.5471   18.6918 N   0  0  0  0  0  0  0  0  0  0  0  0
    8.5591  -12.1880   19.1071 C   0  0  0  0  0  0  0  0  0  0  0  0
    8.9108  -12.9011   20.1761 N   0  0  0  0  0  0  0  0  0  0  0  0
    8.9531  -16.4883   22.8803 C   0  0  0  0  0  0  0  0  0  0  0  0
    7.8867  -16.9201   23.3377 O   0  0  0  0  0  0  0  0  0  0  0  0
   11.9558  -18.7573   23.8106 O   0  0  0  0  0  0  0  0  0  0  0  0
   10.7447  -18.9224   24.4685 C   0  0  0  0  0  0  0  0  0  0  0  0
   10.1090  -17.5828   24.7880 C   0  0  2  0  0  0  0  0  0  0  0  0
   10.1744  -16.7803   23.5584 N   0  0  0  0  0  0  0  0  0  0  0  0
   10.9119  -16.9091   25.8468 C   0  0  0  0  0  0  0  0  0  0  0  0
   11.5707  -15.8706   25.5778 O   0  0  0  0  0  0  0  0  0  0  0  0
   10.9140  -17.4497   27.1207 O   0  0  0  0  0  0  0  0  0  0  0  0
  2  1  1  6
  2  4  1  0
  3  2  1  0
  4  5  1  6
  6  4  1  0
  7  6  2  0
  8  6  1  0
  9  8  1  0
  9 10  1  1
 10 11  1  0
 11 15  1  0
 11 12  2  0
 12 13  1  0
 14 13  1  0
 15 14  2  0
 16  9  1  0
 17 16  2  0
 18 19  1  0
 20 19  1  6
 20 22  1  0
 20 21  1  0
 21 16  1  0
 22 24  1  0
 23 22  2  0
M  END
$$$$
