THS.pdb
     RDKit          3D

 24 24  0  0  1  0  0  0  0  0999 V2000
    7.3961  -12.0730   19.0005 C   0  0  0  0  0  0  0  0  0  0  0  0
    8.4786  -13.0370   19.4338 C   0  0  1  0  0  0  0  0  0  0  0  0
    8.0294  -13.9248   20.3851 O   0  0  0  0  0  0  0  0  0  0  0  0
    8.9771  -13.7511   18.2057 C   0  0  2  0  0  0  0  0  0  0  0  0
    7.8996  -14.4915   17.6019 N   0  0  0  0  0  0  0  0  0  0  0  0
   10.1538  -14.6173   18.4903 C   0  0  0  0  0  0  0  0  0  0  0  0
    9.9966  -15.8517   18.5998 O   0  0  0  0  0  0  0  0  0  0  0  0
   11.4166  -13.9878   18.6253 N   0  0  0  0  0  0  0  0  0  0  0  0
   12.6208  -14.8026   18.8909 C   0  0  1  0  0  0  0  0  0  0  0  0
   13.7973  -14.0933   18.3501 C   0  0  0  0  0  0  0  0  0  0  0  0
   15.0718  -14.8260   18.3703 C   0  0  0  0  0  0  0  0  0  0  0  0
   15.3580  -16.0951   18.7629 C   0  0  0  0  0  0  0  0  0  0  0  0
   16.6558  -16.3306   18.5270 N   0  0  0  0  0  0  0  0  0  0  0  0
   17.1665  -15.2222   17.9939 C   0  0  0  0  0  0  0  0  0  0  0  0
   16.2248  -14.2861   17.8851 N   0  0  0  0  0  0  0  0  0  0  0  0
   12.6307  -14.9183   20.3751 C   0  0  0  0  0  0  0  0  0  0  0  0
   12.7301  -13.9001   21.0725 O   0  0  0  0  0  0  0  0  0  0  0  0
   10.8516  -17.8913   22.1652 O   0  0  0  0  0  0  0  0  0  0  0  0
   11.2220  -16.7917   22.9271 C   0  0  0  0  0  0  0  0  0  0  0  0
   12.5618  -16.2411   22.4771 C   0  0  2  0  0  0  0  0  0  0  0  0
   12.5270  -16.1929   21.0086 N   0  0  0  0  0  0  0  0  0  0  0  0
   13.6363  -17.1809   22.9035 C   0  0  0  0  0  0  0  0  0  0  0  0
   13.8500  -17.3856   24.1273 O   0  0  0  0  0  0  0  0  0  0  0  0
   14.3853  -17.8163   21.9288 O   0  0  0  0  0  0  0  0  0  0  0  0
  2  1  1  6
  2  4  1  0
  3  2  1  0
  4  5  1  1
  6  4  1  0
  7  6  2  0
  8  6  1  0
  9  8  1  0
  9 10  1  1
 10 11  1  0
 11 15  1  0
 11 12  2  0
 12 13  1  0
 14 13  1  0
 15 14  2  0
 16  9  1  0
 17 16  2  0
 18 19  1  0
 20 19  1  6
 20 22  1  0
 20 21  1  0
 21 16  1  0
 22 24  1  0
 23 22  2  0
M  END
$$$$
