YPE.pdb
     RDKit          3D

 29 30  0  0  1  0  0  0  0  0999 V2000
    5.6535  -10.9232   28.6402 O   0  0  0  0  0  0  0  0  0  0  0  0
    6.1897  -11.6935   27.6190 C   0  0  0  0  0  0  0  0  0  0  0  0
    5.6298  -11.7012   26.3746 C   0  0  0  0  0  0  0  0  0  0  0  0
    6.1938  -12.4776   25.3967 C   0  0  0  0  0  0  0  0  0  0  0  0
    7.3217  -13.2683   25.6091 C   0  0  0  0  0  0  0  0  0  0  0  0
    7.9060  -14.0972   24.5255 C   0  0  0  0  0  0  0  0  0  0  0  0
    6.8509  -15.0801   23.9894 C   0  0  2  0  0  0  0  0  0  0  0  0
    6.4979  -16.0243   25.0435 N   0  0  0  0  0  0  0  0  0  0  0  0
    7.3601  -15.7816   22.7902 C   0  0  0  0  0  0  0  0  0  0  0  0
    7.2002  -17.0515   22.7442 O   0  0  0  0  0  0  0  0  0  0  0  0
    7.8828  -13.2570   26.8656 C   0  0  0  0  0  0  0  0  0  0  0  0
    7.3075  -12.4708   27.8471 C   0  0  0  0  0  0  0  0  0  0  0  0
    7.9965  -15.0816   21.7367 N   0  0  0  0  0  0  0  0  0  0  0  0
    8.3425  -13.6923   21.5865 C   0  0  0  0  0  0  0  0  0  0  0  0
    7.8027  -13.4112   20.1717 C   0  0  0  0  0  0  0  0  0  0  0  0
    7.9849  -14.7305   19.4683 C   0  0  0  0  0  0  0  0  0  0  0  0
    8.4604  -15.7090   20.5155 C   0  0  1  0  0  0  0  0  0  0  0  0
    9.9244  -15.8965   20.5050 C   0  0  0  0  0  0  0  0  0  0  0  0
   10.6834  -14.9512   20.8045 O   0  0  0  0  0  0  0  0  0  0  0  0
   10.4804  -17.1440   20.1567 N   0  0  0  0  0  0  0  0  0  0  0  0
   11.9047  -17.4268   20.2331 C   0  0  1  0  0  0  0  0  0  0  0  0
   12.1468  -18.4928   21.2658 C   0  0  0  0  0  0  0  0  0  0  0  0
   11.4942  -18.1530   22.5813 C   0  0  0  0  0  0  0  0  0  0  0  0
   11.6305  -19.2609   23.5480 C   0  0  0  0  0  0  0  0  0  0  0  0
   10.6407  -20.0245   23.7299 O   0  0  0  0  0  0  0  0  0  0  0  0
   12.3719  -17.9449   18.9162 C   0  0  0  0  0  0  0  0  0  0  0  0
   11.4630  -18.2287   17.9146 O   0  0  0  0  0  0  0  0  0  0  0  0
   12.7939  -19.4982   24.2619 O   0  0  0  0  0  0  0  0  0  0  0  0
   13.5971  -18.1252   18.7135 O   0  0  0  0  0  0  0  0  0  0  0  0
  2  1  1  0
  3  2  2  0
  4  3  1  0
  5  4  2  0
  5 11  1  0
  6  5  1  0
  7  6  1  0
  7  8  1  1
  9  7  1  0
 10  9  2  0
 11 12  2  0
 12  2  1  0
 13 14  1  0
 13  9  1  0
 15 14  1  0
 16 17  1  0
 16 15  1  0
 17 13  1  0
 17 18  1  1
 19 18  2  0
 20 18  1  0
 21 22  1  1
 21 20  1  0
 22 23  1  0
 23 24  1  0
 24 28  1  0
 25 24  2  0
 26 27  1  0
 26 21  1  0
 29 26  2  0
M  END
$$$$
