YPE.pdb
     RDKit          3D

 29 30  0  0  1  0  0  0  0  0999 V2000
    5.7516  -10.1530   26.7292 O   0  0  0  0  0  0  0  0  0  0  0  0
    6.1878  -11.4618   26.5863 C   0  0  0  0  0  0  0  0  0  0  0  0
    7.4513  -11.7394   26.1520 C   0  0  0  0  0  0  0  0  0  0  0  0
    7.8384  -13.0476   26.0260 C   0  0  0  0  0  0  0  0  0  0  0  0
    7.0000  -14.1210   26.3214 C   0  0  0  0  0  0  0  0  0  0  0  0
    7.4537  -15.5263   26.1732 C   0  0  0  0  0  0  0  0  0  0  0  0
    6.6319  -16.2308   25.0800 C   0  0  2  0  0  0  0  0  0  0  0  0
    5.9040  -17.3466   25.6734 N   0  0  0  0  0  0  0  0  0  0  0  0
    7.5146  -16.6890   23.9843 C   0  0  0  0  0  0  0  0  0  0  0  0
    7.7334  -17.9479   23.8979 O   0  0  0  0  0  0  0  0  0  0  0  0
    5.7269  -13.8359   26.7591 C   0  0  0  0  0  0  0  0  0  0  0  0
    5.3438  -12.5130   26.8835 C   0  0  0  0  0  0  0  0  0  0  0  0
    8.0934  -15.7772   23.0686 N   0  0  0  0  0  0  0  0  0  0  0  0
    8.0235  -14.3420   22.9781 C   0  0  0  0  0  0  0  0  0  0  0  0
    7.6973  -14.1622   21.4836 C   0  0  0  0  0  0  0  0  0  0  0  0
    8.3986  -15.3285   20.8382 C   0  0  0  0  0  0  0  0  0  0  0  0
    8.9446  -16.1730   21.9646 C   0  0  1  0  0  0  0  0  0  0  0  0
   10.3715  -15.9137   22.2385 C   0  0  0  0  0  0  0  0  0  0  0  0
   10.7442  -14.7877   22.6290 O   0  0  0  0  0  0  0  0  0  0  0  0
   11.3278  -16.9341   22.0620 N   0  0  0  0  0  0  0  0  0  0  0  0
   12.6108  -16.9459   22.7461 C   0  0  1  0  0  0  0  0  0  0  0  0
   12.7268  -18.2007   23.5668 C   0  0  0  0  0  0  0  0  0  0  0  0
   11.7668  -18.1974   24.7289 C   0  0  0  0  0  0  0  0  0  0  0  0
   11.8125  -19.4773   25.4641 C   0  0  0  0  0  0  0  0  0  0  0  0
   12.1302  -20.5229   24.8304 O   0  0  0  0  0  0  0  0  0  0  0  0
   13.7049  -16.9532   21.7342 C   0  0  0  0  0  0  0  0  0  0  0  0
   15.0131  -16.7273   22.1178 O   0  0  0  0  0  0  0  0  0  0  0  0
   11.5228  -19.5802   26.8150 O   0  0  0  0  0  0  0  0  0  0  0  0
   13.4388  -17.1656   20.5264 O   0  0  0  0  0  0  0  0  0  0  0  0
  2  1  1  0
  3  2  2  0
  4  3  1  0
  5  4  2  0
  5 11  1  0
  6  5  1  0
  7  6  1  0
  7  8  1  1
  9  7  1  0
 10  9  2  0
 11 12  2  0
 12  2  1  0
 13 14  1  0
 13  9  1  0
 15 14  1  0
 16 17  1  0
 16 15  1  0
 17 13  1  0
 17 18  1  1
 19 18  2  0
 20 18  1  0
 21 22  1  6
 21 20  1  0
 22 23  1  0
 23 24  1  0
 24 28  1  0
 25 24  2  0
 26 27  1  0
 26 21  1  0
 29 26  2  0
M  END
$$$$
