YPE.pdb
     RDKit          3D

 29 30  0  0  1  0  0  0  0  0999 V2000
   11.1419  -14.8807   29.8535 O   0  0  0  0  0  0  0  0  0  0  0  0
   10.2335  -14.6578   28.8293 C   0  0  0  0  0  0  0  0  0  0  0  0
    8.9090  -14.4628   29.0931 C   0  0  0  0  0  0  0  0  0  0  0  0
    8.0482  -14.2462   28.0493 C   0  0  0  0  0  0  0  0  0  0  0  0
    8.4595  -14.2143   26.7180 C   0  0  0  0  0  0  0  0  0  0  0  0
    7.4985  -13.9767   25.6124 C   0  0  0  0  0  0  0  0  0  0  0  0
    6.6466  -15.2361   25.3775 C   0  0  2  0  0  0  0  0  0  0  0  0
    6.7037  -16.0803   26.5654 N   0  0  0  0  0  0  0  0  0  0  0  0
    7.1200  -15.9642   24.1795 C   0  0  0  0  0  0  0  0  0  0  0  0
    6.9665  -17.2357   24.1699 O   0  0  0  0  0  0  0  0  0  0  0  0
    9.7963  -14.4114   26.4572 C   0  0  0  0  0  0  0  0  0  0  0  0
   10.6585  -14.6295   27.5162 C   0  0  0  0  0  0  0  0  0  0  0  0
    7.7169  -15.2870   23.0885 N   0  0  0  0  0  0  0  0  0  0  0  0
    7.9843  -13.8904   22.8634 C   0  0  0  0  0  0  0  0  0  0  0  0
    7.4305  -13.7164   21.4368 C   0  0  0  0  0  0  0  0  0  0  0  0
    7.6872  -15.0592   20.8046 C   0  0  0  0  0  0  0  0  0  0  0  0
    8.2162  -15.9518   21.9016 C   0  0  1  0  0  0  0  0  0  0  0  0
    9.6884  -16.0570   21.8979 C   0  0  0  0  0  0  0  0  0  0  0  0
   10.3910  -15.0852   22.2463 O   0  0  0  0  0  0  0  0  0  0  0  0
   10.3161  -17.2550   21.5009 N   0  0  0  0  0  0  0  0  0  0  0  0
   11.7460  -17.4832   21.6335 C   0  0  1  0  0  0  0  0  0  0  0  0
   11.9790  -18.7450   22.4177 C   0  0  0  0  0  0  0  0  0  0  0  0
   11.2832  -18.7072   23.7543 C   0  0  0  0  0  0  0  0  0  0  0  0
   11.3862  -20.0067   24.4480 C   0  0  0  0  0  0  0  0  0  0  0  0
   11.8305  -20.0228   25.6305 O   0  0  0  0  0  0  0  0  0  0  0  0
   12.3402  -17.6649   20.2790 C   0  0  0  0  0  0  0  0  0  0  0  0
   13.7122  -17.6954   20.1161 O   0  0  0  0  0  0  0  0  0  0  0  0
   11.0176  -21.2055   23.8594 O   0  0  0  0  0  0  0  0  0  0  0  0
   11.5923  -17.7914   19.2793 O   0  0  0  0  0  0  0  0  0  0  0  0
  2  1  1  0
  3  2  2  0
  4  3  1  0
  5  4  2  0
  5 11  1  0
  6  5  1  0
  7  6  1  0
  7  8  1  1
  9  7  1  0
 10  9  2  0
 11 12  2  0
 12  2  1  0
 13 14  1  0
 13  9  1  0
 15 14  1  0
 16 17  1  0
 16 15  1  0
 17 13  1  0
 17 18  1  1
 19 18  2  0
 20 18  1  0
 21 22  1  1
 21 20  1  0
 22 23  1  0
 23 24  1  0
 24 28  1  0
 25 24  2  0
 26 27  1  0
 26 21  1  0
 29 26  2  0
M  END
$$$$
