YPE.pdb
     RDKit          3D

 29 30  0  0  1  0  0  0  0  0999 V2000
   11.7192  -15.2250   28.8784 O   0  0  0  0  0  0  0  0  0  0  0  0
   10.5105  -15.1799   28.1995 C   0  0  0  0  0  0  0  0  0  0  0  0
   10.2858  -14.2538   27.2229 C   0  0  0  0  0  0  0  0  0  0  0  0
    9.0765  -14.2469   26.5789 C   0  0  0  0  0  0  0  0  0  0  0  0
    8.0531  -15.1464   26.8725 C   0  0  0  0  0  0  0  0  0  0  0  0
    6.7551  -15.1096   26.1538 C   0  0  0  0  0  0  0  0  0  0  0  0
    6.5099  -16.4521   25.4438 C   0  0  2  0  0  0  0  0  0  0  0  0
    6.5092  -17.5233   26.4336 N   0  0  0  0  0  0  0  0  0  0  0  0
    7.5382  -16.6829   24.4052 C   0  0  0  0  0  0  0  0  0  0  0  0
    8.1144  -17.8268   24.3974 O   0  0  0  0  0  0  0  0  0  0  0  0
    8.2847  -16.0785   27.8580 C   0  0  0  0  0  0  0  0  0  0  0  0
    9.5078  -16.0787   28.5033 C   0  0  0  0  0  0  0  0  0  0  0  0
    7.8726  -15.6844   23.4586 N   0  0  0  0  0  0  0  0  0  0  0  0
    7.4569  -14.3118   23.3326 C   0  0  0  0  0  0  0  0  0  0  0  0
    7.0862  -14.2581   21.8387 C   0  0  0  0  0  0  0  0  0  0  0  0
    8.0441  -15.2380   21.2136 C   0  0  0  0  0  0  0  0  0  0  0  0
    8.7863  -15.8936   22.3535 C   0  0  1  0  0  0  0  0  0  0  0  0
   10.1101  -15.2896   22.6010 C   0  0  0  0  0  0  0  0  0  0  0  0
   10.2039  -14.2050   23.2129 O   0  0  0  0  0  0  0  0  0  0  0  0
   11.2814  -15.9304   22.1492 N   0  0  0  0  0  0  0  0  0  0  0  0
   12.5672  -15.7943   22.8145 C   0  0  1  0  0  0  0  0  0  0  0  0
   12.4608  -16.3229   24.2183 C   0  0  0  0  0  0  0  0  0  0  0  0
   11.9748  -17.7496   24.2414 C   0  0  0  0  0  0  0  0  0  0  0  0
   11.9973  -18.3001   25.6115 C   0  0  0  0  0  0  0  0  0  0  0  0
   12.4732  -17.5856   26.5382 O   0  0  0  0  0  0  0  0  0  0  0  0
   13.5820  -16.6101   22.0895 C   0  0  0  0  0  0  0  0  0  0  0  0
   13.2001  -17.4405   21.0529 O   0  0  0  0  0  0  0  0  0  0  0  0
   11.5203  -19.5630   25.9232 O   0  0  0  0  0  0  0  0  0  0  0  0
   14.7906  -16.5440   22.4204 O   0  0  0  0  0  0  0  0  0  0  0  0
  2  1  1  0
  3  2  2  0
  4  3  1  0
  5  4  2  0
  5 11  1  0
  6  5  1  0
  7  6  1  0
  7  8  1  1
  9  7  1  0
 10  9  2  0
 11 12  2  0
 12  2  1  0
 13 14  1  0
 13  9  1  0
 15 14  1  0
 16 17  1  0
 16 15  1  0
 17 13  1  0
 17 18  1  1
 19 18  2  0
 20 18  1  0
 21 22  1  1
 21 20  1  0
 22 23  1  0
 23 24  1  0
 24 28  1  0
 25 24  2  0
 26 27  1  0
 26 21  1  0
 29 26  2  0
M  END
$$$$
