YPE.pdb
     RDKit          3D

 29 30  0  0  1  0  0  0  0  0999 V2000
   11.3918  -15.0098   29.2394 O   0  0  0  0  0  0  0  0  0  0  0  0
   10.2706  -14.9720   28.4237 C   0  0  0  0  0  0  0  0  0  0  0  0
    9.7195  -16.1190   27.9311 C   0  0  0  0  0  0  0  0  0  0  0  0
    8.6119  -16.0331   27.1291 C   0  0  0  0  0  0  0  0  0  0  0  0
    8.0125  -14.8222   26.7869 C   0  0  0  0  0  0  0  0  0  0  0  0
    6.8125  -14.7673   25.9153 C   0  0  0  0  0  0  0  0  0  0  0  0
    6.4573  -16.1802   25.4211 C   0  0  2  0  0  0  0  0  0  0  0  0
    6.6260  -17.1267   26.5178 N   0  0  0  0  0  0  0  0  0  0  0  0
    7.2988  -16.5488   24.2611 C   0  0  0  0  0  0  0  0  0  0  0  0
    7.5664  -17.7915   24.1047 O   0  0  0  0  0  0  0  0  0  0  0  0
    8.5719  -13.6685   27.2864 C   0  0  0  0  0  0  0  0  0  0  0  0
    9.6897  -13.7637   28.0949 C   0  0  0  0  0  0  0  0  0  0  0  0
    7.7879  -15.5719   23.3603 N   0  0  0  0  0  0  0  0  0  0  0  0
    7.6481  -14.1392   23.3384 C   0  0  0  0  0  0  0  0  0  0  0  0
    7.2383  -13.9112   21.8714 C   0  0  0  0  0  0  0  0  0  0  0  0
    7.9581  -15.0138   21.1403 C   0  0  0  0  0  0  0  0  0  0  0  0
    8.5988  -15.8789   22.1992 C   0  0  1  0  0  0  0  0  0  0  0  0
   10.0246  -15.5636   22.4144 C   0  0  0  0  0  0  0  0  0  0  0  0
   10.3640  -14.7495   23.2984 O   0  0  0  0  0  0  0  0  0  0  0  0
   11.0172  -16.1779   21.6244 N   0  0  0  0  0  0  0  0  0  0  0  0
   12.4067  -16.2864   22.0391 C   0  0  1  0  0  0  0  0  0  0  0  0
   12.4902  -17.1162   23.2906 C   0  0  0  0  0  0  0  0  0  0  0  0
   11.9347  -18.5014   23.0791 C   0  0  0  0  0  0  0  0  0  0  0  0
   12.1394  -19.3476   24.2719 C   0  0  0  0  0  0  0  0  0  0  0  0
   12.7954  -18.8713   25.2407 O   0  0  0  0  0  0  0  0  0  0  0  0
   13.1829  -16.9799   20.9726 C   0  0  0  0  0  0  0  0  0  0  0  0
   14.5587  -17.0766   21.0604 O   0  0  0  0  0  0  0  0  0  0  0  0
   11.6443  -20.6376   24.3736 O   0  0  0  0  0  0  0  0  0  0  0  0
   12.5859  -17.4796   19.9885 O   0  0  0  0  0  0  0  0  0  0  0  0
  2  1  1  0
  3  2  2  0
  4  3  1  0
  5  4  2  0
  5 11  1  0
  6  5  1  0
  7  6  1  0
  7  8  1  1
  9  7  1  0
 10  9  2  0
 11 12  2  0
 12  2  1  0
 13 14  1  0
 13  9  1  0
 15 14  1  0
 16 17  1  0
 16 15  1  0
 17 13  1  0
 17 18  1  1
 19 18  2  0
 20 18  1  0
 21 22  1  1
 21 20  1  0
 22 23  1  0
 23 24  1  0
 24 28  1  0
 25 24  2  0
 26 27  1  0
 26 21  1  0
 29 26  2  0
M  END
$$$$
