YPE.pdb
     RDKit          3D

 29 30  0  0  1  0  0  0  0  0999 V2000
    5.9529  -10.4302   27.4768 O   0  0  0  0  0  0  0  0  0  0  0  0
    6.3461  -11.7101   27.1147 C   0  0  0  0  0  0  0  0  0  0  0  0
    7.6069  -11.9552   26.6539 C   0  0  0  0  0  0  0  0  0  0  0  0
    7.9509  -13.2356   26.3080 C   0  0  0  0  0  0  0  0  0  0  0  0
    7.0707  -14.3120   26.4035 C   0  0  0  0  0  0  0  0  0  0  0  0
    7.4782  -15.6865   26.0198 C   0  0  0  0  0  0  0  0  0  0  0  0
    6.6166  -16.1810   24.8451 C   0  0  2  0  0  0  0  0  0  0  0  0
    5.7807  -17.2870   25.2976 N   0  0  0  0  0  0  0  0  0  0  0  0
    7.4745  -16.5873   23.7100 C   0  0  0  0  0  0  0  0  0  0  0  0
    7.5651  -17.8413   23.4656 O   0  0  0  0  0  0  0  0  0  0  0  0
    5.8005  -14.0596   26.8689 C   0  0  0  0  0  0  0  0  0  0  0  0
    5.4611  -12.7647   27.2158 C   0  0  0  0  0  0  0  0  0  0  0  0
    8.1662  -15.6330   22.9252 N   0  0  0  0  0  0  0  0  0  0  0  0
    8.1914  -14.1945   22.9752 C   0  0  0  0  0  0  0  0  0  0  0  0
    7.9734  -13.8498   21.4900 C   0  0  0  0  0  0  0  0  0  0  0  0
    8.6410  -14.9935   20.7724 C   0  0  0  0  0  0  0  0  0  0  0  0
    9.0602  -15.9777   21.8380 C   0  0  1  0  0  0  0  0  0  0  0  0
   10.4800  -15.8437   22.2184 C   0  0  0  0  0  0  0  0  0  0  0  0
   10.8233  -15.0233   23.0951 O   0  0  0  0  0  0  0  0  0  0  0  0
   11.4626  -16.6399   21.5961 N   0  0  0  0  0  0  0  0  0  0  0  0
   12.6132  -17.1777   22.3040 C   0  0  1  0  0  0  0  0  0  0  0  0
   13.2416  -18.2670   21.4794 C   0  0  0  0  0  0  0  0  0  0  0  0
   14.4371  -18.8707   22.1712 C   0  0  0  0  0  0  0  0  0  0  0  0
   15.0311  -19.9552   21.3640 C   0  0  0  0  0  0  0  0  0  0  0  0
   14.5144  -20.2211   20.2423 O   0  0  0  0  0  0  0  0  0  0  0  0
   13.6230  -16.0974   22.4886 C   0  0  0  0  0  0  0  0  0  0  0  0
   14.5911  -16.2057   23.4688 O   0  0  0  0  0  0  0  0  0  0  0  0
   16.1275  -20.6915   21.7828 O   0  0  0  0  0  0  0  0  0  0  0  0
   13.5960  -15.0827   21.7508 O   0  0  0  0  0  0  0  0  0  0  0  0
  2  1  1  0
  3  2  2  0
  4  3  1  0
  5  4  2  0
  5 11  1  0
  6  5  1  0
  7  6  1  0
  7  8  1  1
  9  7  1  0
 10  9  2  0
 11 12  2  0
 12  2  1  0
 13 14  1  0
 13  9  1  0
 15 14  1  0
 16 17  1  0
 16 15  1  0
 17 13  1  0
 17 18  1  1
 19 18  2  0
 20 18  1  0
 21 22  1  6
 21 20  1  0
 22 23  1  0
 23 24  1  0
 24 28  1  0
 25 24  2  0
 26 27  1  0
 26 21  1  0
 29 26  2  0
M  END
$$$$
