YPE.pdb
     RDKit          3D

 29 30  0  0  1  0  0  0  0  0999 V2000
    0.3886  -20.6367   21.4072 O   0  0  0  0  0  0  0  0  0  0  0  0
    1.6309  -20.0336   21.5361 C   0  0  0  0  0  0  0  0  0  0  0  0
    2.5218  -20.4518   22.4813 C   0  0  0  0  0  0  0  0  0  0  0  0
    3.7374  -19.8262   22.5719 C   0  0  0  0  0  0  0  0  0  0  0  0
    4.1154  -18.7738   21.7399 C   0  0  0  0  0  0  0  0  0  0  0  0
    5.4414  -18.1195   21.8667 C   0  0  0  0  0  0  0  0  0  0  0  0
    6.0075  -17.8055   20.4711 C   0  0  2  0  0  0  0  0  0  0  0  0
    6.0461  -19.0324   19.6836 N   0  0  0  0  0  0  0  0  0  0  0  0
    7.3522  -17.1984   20.5834 C   0  0  0  0  0  0  0  0  0  0  0  0
    8.3131  -17.7905   19.9781 O   0  0  0  0  0  0  0  0  0  0  0  0
    3.2135  -18.3559   20.7882 C   0  0  0  0  0  0  0  0  0  0  0  0
    1.9887  -18.9924   20.7034 C   0  0  0  0  0  0  0  0  0  0  0  0
    7.5704  -16.0131   21.3268 N   0  0  0  0  0  0  0  0  0  0  0  0
    6.6827  -15.2140   22.1306 C   0  0  0  0  0  0  0  0  0  0  0  0
    7.0003  -13.8044   21.5974 C   0  0  0  0  0  0  0  0  0  0  0  0
    8.4579  -13.8984   21.2302 C   0  0  0  0  0  0  0  0  0  0  0  0
    8.8522  -15.3436   21.4202 C   0  0  1  0  0  0  0  0  0  0  0  0
    9.5196  -15.5926   22.7129 C   0  0  0  0  0  0  0  0  0  0  0  0
    8.8479  -15.8933   23.7218 O   0  0  0  0  0  0  0  0  0  0  0  0
   10.9214  -15.4934   22.8219 N   0  0  0  0  0  0  0  0  0  0  0  0
   11.7263  -16.4330   23.5857 C   0  0  1  0  0  0  0  0  0  0  0  0
   13.1831  -16.1777   23.3139 C   0  0  0  0  0  0  0  0  0  0  0  0
   14.0694  -17.0894   24.1236 C   0  0  0  0  0  0  0  0  0  0  0  0
   15.4962  -16.8492   23.8281 C   0  0  0  0  0  0  0  0  0  0  0  0
   15.7918  -15.9799   22.9605 O   0  0  0  0  0  0  0  0  0  0  0  0
   11.4829  -16.2165   25.0399 C   0  0  0  0  0  0  0  0  0  0  0  0
   10.8782  -15.0551   25.4819 O   0  0  0  0  0  0  0  0  0  0  0  0
   16.5214  -17.5343   24.4597 O   0  0  0  0  0  0  0  0  0  0  0  0
   11.8283  -17.0924   25.8695 O   0  0  0  0  0  0  0  0  0  0  0  0
  2  1  1  0
  3  2  2  0
  4  3  1  0
  5  4  2  0
  5 11  1  0
  6  5  1  0
  7  6  1  0
  7  8  1  6
  9  7  1  0
 10  9  2  0
 11 12  2  0
 12  2  1  0
 13 14  1  0
 13  9  1  0
 15 14  1  0
 16 17  1  0
 16 15  1  0
 17 13  1  0
 17 18  1  1
 19 18  2  0
 20 18  1  0
 21 22  1  1
 21 20  1  0
 22 23  1  0
 23 24  1  0
 24 28  1  0
 25 24  2  0
 26 27  1  0
 26 21  1  0
 29 26  2  0
M  END
$$$$
