YPE.pdb
     RDKit          3D

 29 30  0  0  1  0  0  0  0  0999 V2000
    5.4758  -10.7068   28.5087 O   0  0  0  0  0  0  0  0  0  0  0  0
    6.0797  -11.5834   27.6194 C   0  0  0  0  0  0  0  0  0  0  0  0
    7.1854  -12.2985   27.9772 C   0  0  0  0  0  0  0  0  0  0  0  0
    7.7482  -13.1526   27.0655 C   0  0  0  0  0  0  0  0  0  0  0  0
    7.2447  -13.3308   25.7782 C   0  0  0  0  0  0  0  0  0  0  0  0
    7.8807  -14.2654   24.8167 C   0  0  0  0  0  0  0  0  0  0  0  0
    6.9315  -15.4390   24.5192 C   0  0  2  0  0  0  0  0  0  0  0  0
    6.7778  -16.2467   25.7238 N   0  0  0  0  0  0  0  0  0  0  0  0
    7.4478  -16.2488   23.3935 C   0  0  0  0  0  0  0  0  0  0  0  0
    7.4403  -17.5214   23.5374 O   0  0  0  0  0  0  0  0  0  0  0  0
    6.1294  -12.6075   25.4223 C   0  0  0  0  0  0  0  0  0  0  0  0
    5.5674  -11.7475   26.3481 C   0  0  0  0  0  0  0  0  0  0  0  0
    7.9294  -15.6455   22.2064 N   0  0  0  0  0  0  0  0  0  0  0  0
    8.0056  -14.2665   21.8000 C   0  0  0  0  0  0  0  0  0  0  0  0
    7.4072  -14.3493   20.3833 C   0  0  0  0  0  0  0  0  0  0  0  0
    7.8274  -15.7175   19.9144 C   0  0  0  0  0  0  0  0  0  0  0  0
    8.4902  -16.3868   21.0947 C   0  0  1  0  0  0  0  0  0  0  0  0
    9.9630  -16.3011   21.0522 C   0  0  0  0  0  0  0  0  0  0  0  0
   10.5424  -15.2406   21.3670 O   0  0  0  0  0  0  0  0  0  0  0  0
   10.7304  -17.4149   20.6557 N   0  0  0  0  0  0  0  0  0  0  0  0
   12.1658  -17.5060   20.8692 C   0  0  1  0  0  0  0  0  0  0  0  0
   12.4434  -17.6423   22.3409 C   0  0  0  0  0  0  0  0  0  0  0  0
   11.6132  -18.7341   22.9660 C   0  0  0  0  0  0  0  0  0  0  0  0
   11.9937  -18.9547   24.3757 C   0  0  0  0  0  0  0  0  0  0  0  0
   13.0755  -18.4522   24.7915 O   0  0  0  0  0  0  0  0  0  0  0  0
   12.6858  -18.7242   20.1864 C   0  0  0  0  0  0  0  0  0  0  0  0
   14.0460  -18.9568   20.1121 O   0  0  0  0  0  0  0  0  0  0  0  0
   11.2173  -19.6870   25.2592 O   0  0  0  0  0  0  0  0  0  0  0  0
   11.8858  -19.5449   19.6754 O   0  0  0  0  0  0  0  0  0  0  0  0
  2  1  1  0
  3  2  2  0
  4  3  1  0
  5  4  2  0
  5 11  1  0
  6  5  1  0
  7  6  1  0
  7  8  1  1
  9  7  1  0
 10  9  2  0
 11 12  2  0
 12  2  1  0
 13 14  1  0
 13  9  1  0
 15 14  1  0
 16 17  1  0
 16 15  1  0
 17 13  1  0
 17 18  1  6
 19 18  2  0
 20 18  1  0
 21 22  1  1
 21 20  1  0
 22 23  1  0
 23 24  1  0
 24 28  1  0
 25 24  2  0
 26 27  1  0
 26 21  1  0
 29 26  2  0
M  END
$$$$
