YPE.pdb
     RDKit          3D

 29 30  0  0  1  0  0  0  0  0999 V2000
    6.2313  -10.3625   27.3895 O   0  0  0  0  0  0  0  0  0  0  0  0
    6.5884  -11.6144   26.9109 C   0  0  0  0  0  0  0  0  0  0  0  0
    5.8036  -12.7065   27.1418 C   0  0  0  0  0  0  0  0  0  0  0  0
    6.1964  -13.9233   26.6495 C   0  0  0  0  0  0  0  0  0  0  0  0
    7.3682  -14.1055   25.9173 C   0  0  0  0  0  0  0  0  0  0  0  0
    7.7623  -15.4392   25.3991 C   0  0  0  0  0  0  0  0  0  0  0  0
    6.7017  -15.9524   24.4098 C   0  0  2  0  0  0  0  0  0  0  0  0
    5.9402  -17.0253   25.0392 N   0  0  0  0  0  0  0  0  0  0  0  0
    7.3425  -16.4131   23.1581 C   0  0  0  0  0  0  0  0  0  0  0  0
    7.4080  -17.6777   22.9664 O   0  0  0  0  0  0  0  0  0  0  0  0
    8.1562  -13.0011   25.6870 C   0  0  0  0  0  0  0  0  0  0  0  0
    7.7528  -11.7766   26.1873 C   0  0  0  0  0  0  0  0  0  0  0  0
    7.8612  -15.4975   22.2107 N   0  0  0  0  0  0  0  0  0  0  0  0
    7.8537  -14.0584   22.1713 C   0  0  0  0  0  0  0  0  0  0  0  0
    7.3734  -13.8113   20.7290 C   0  0  0  0  0  0  0  0  0  0  0  0
    7.9396  -14.9854   19.9745 C   0  0  0  0  0  0  0  0  0  0  0  0
    8.5640  -15.8935   21.0068 C   0  0  1  0  0  0  0  0  0  0  0  0
   10.0237  -15.7105   21.1263 C   0  0  0  0  0  0  0  0  0  0  0  0
   10.4924  -14.9056   21.9582 O   0  0  0  0  0  0  0  0  0  0  0  0
   10.9033  -16.4419   20.3028 N   0  0  0  0  0  0  0  0  0  0  0  0
   12.0116  -17.2254   20.8245 C   0  0  1  0  0  0  0  0  0  0  0  0
   11.4812  -18.2835   21.7521 C   0  0  0  0  0  0  0  0  0  0  0  0
   12.5677  -19.2274   22.2004 C   0  0  0  0  0  0  0  0  0  0  0  0
   12.0464  -20.2303   23.1507 C   0  0  0  0  0  0  0  0  0  0  0  0
   12.1957  -21.4539   22.8744 O   0  0  0  0  0  0  0  0  0  0  0  0
   12.7038  -17.9068   19.6943 C   0  0  0  0  0  0  0  0  0  0  0  0
   14.0738  -17.7994   19.5472 O   0  0  0  0  0  0  0  0  0  0  0  0
   11.4027  -19.8879   24.3287 O   0  0  0  0  0  0  0  0  0  0  0  0
   12.0410  -18.5825   18.8704 O   0  0  0  0  0  0  0  0  0  0  0  0
  2  1  1  0
  3  2  2  0
  4  3  1  0
  5  4  2  0
  5 11  1  0
  6  5  1  0
  7  6  1  0
  7  8  1  1
  9  7  1  0
 10  9  2  0
 11 12  2  0
 12  2  1  0
 13 14  1  0
 13  9  1  0
 15 14  1  0
 16 17  1  0
 16 15  1  0
 17 13  1  0
 17 18  1  1
 19 18  2  0
 20 18  1  0
 21 22  1  1
 21 20  1  0
 22 23  1  0
 23 24  1  0
 24 28  1  0
 25 24  2  0
 26 27  1  0
 26 21  1  0
 29 26  2  0
M  END
$$$$
