YPE.pdb
     RDKit          3D

 29 30  0  0  1  0  0  0  0  0999 V2000
    7.4669  -13.0774   16.2793 O   0  0  0  0  0  0  0  0  0  0  0  0
    7.4788  -13.4311   17.6205 C   0  0  0  0  0  0  0  0  0  0  0  0
    7.0982  -14.6781   18.0230 C   0  0  0  0  0  0  0  0  0  0  0  0
    7.1261  -14.9828   19.3586 C   0  0  0  0  0  0  0  0  0  0  0  0
    7.5273  -14.0756   20.3377 C   0  0  0  0  0  0  0  0  0  0  0  0
    7.5451  -14.4408   21.7761 C   0  0  0  0  0  0  0  0  0  0  0  0
    8.9397  -14.1742   22.3683 C   0  0  2  0  0  0  0  0  0  0  0  0
    9.9472  -14.7985   21.5184 N   0  0  0  0  0  0  0  0  0  0  0  0
    9.0183  -14.6837   23.7552 C   0  0  0  0  0  0  0  0  0  0  0  0
    9.9810  -15.4821   24.0308 O   0  0  0  0  0  0  0  0  0  0  0  0
    7.9103  -12.8195   19.9266 C   0  0  0  0  0  0  0  0  0  0  0  0
    7.8793  -12.5198   18.5769 C   0  0  0  0  0  0  0  0  0  0  0  0
    8.0716  -14.3059   24.7382 N   0  0  0  0  0  0  0  0  0  0  0  0
    6.7772  -13.6854   24.6275 C   0  0  0  0  0  0  0  0  0  0  0  0
    6.8995  -12.5716   25.6841 C   0  0  0  0  0  0  0  0  0  0  0  0
    7.8034  -13.1831   26.7221 C   0  0  0  0  0  0  0  0  0  0  0  0
    8.2608  -14.5080   26.1606 C   0  0  1  0  0  0  0  0  0  0  0  0
    7.4782  -15.6504   26.6715 C   0  0  0  0  0  0  0  0  0  0  0  0
    6.3424  -15.8924   26.2124 O   0  0  0  0  0  0  0  0  0  0  0  0
    8.0046  -16.4793   27.6827 N   0  0  0  0  0  0  0  0  0  0  0  0
    7.9998  -17.9311   27.6010 C   0  0  1  0  0  0  0  0  0  0  0  0
    8.7789  -18.3650   26.3901 C   0  0  0  0  0  0  0  0  0  0  0  0
   10.2345  -17.9888   26.4995 C   0  0  0  0  0  0  0  0  0  0  0  0
   11.1026  -19.0387   25.9297 C   0  0  0  0  0  0  0  0  0  0  0  0
   10.5577  -20.0646   25.4333 O   0  0  0  0  0  0  0  0  0  0  0  0
    8.6716  -18.4913   28.8075 C   0  0  0  0  0  0  0  0  0  0  0  0
    8.5519  -19.8336   29.1140 O   0  0  0  0  0  0  0  0  0  0  0  0
   12.4850  -18.9471   25.9162 O   0  0  0  0  0  0  0  0  0  0  0  0
    9.3502  -17.7419   29.5507 O   0  0  0  0  0  0  0  0  0  0  0  0
  2  1  1  0
  3  2  2  0
  4  3  1  0
  5  4  2  0
  5 11  1  0
  6  5  1  0
  7  6  1  0
  7  8  1  6
  9  7  1  0
 10  9  2  0
 11 12  2  0
 12  2  1  0
 13 14  1  0
 13  9  1  0
 15 14  1  0
 16 17  1  0
 16 15  1  0
 17 13  1  0
 17 18  1  1
 19 18  2  0
 20 18  1  0
 21 22  1  6
 21 20  1  0
 22 23  1  0
 23 24  1  0
 24 28  1  0
 25 24  2  0
 26 27  1  0
 26 21  1  0
 29 26  2  0
M  END
$$$$
