YPE.pdb
     RDKit          3D

 29 30  0  0  1  0  0  0  0  0999 V2000
    8.0431  -11.4069   27.0070 O   0  0  0  0  0  0  0  0  0  0  0  0
    7.5635  -12.6706   26.6957 C   0  0  0  0  0  0  0  0  0  0  0  0
    6.2235  -12.9126   26.6064 C   0  0  0  0  0  0  0  0  0  0  0  0
    5.7957  -14.1768   26.2962 C   0  0  0  0  0  0  0  0  0  0  0  0
    6.6671  -15.2395   26.0646 C   0  0  0  0  0  0  0  0  0  0  0  0
    6.1676  -16.5965   25.7305 C   0  0  0  0  0  0  0  0  0  0  0  0
    5.8942  -16.6981   24.2200 C   0  0  2  0  0  0  0  0  0  0  0  0
    4.9778  -17.8056   23.9734 N   0  0  0  0  0  0  0  0  0  0  0  0
    7.1610  -16.8752   23.4762 C   0  0  0  0  0  0  0  0  0  0  0  0
    7.5362  -18.0766   23.2388 O   0  0  0  0  0  0  0  0  0  0  0  0
    8.0174  -14.9903   26.1557 C   0  0  0  0  0  0  0  0  0  0  0  0
    8.4411  -13.7118   26.4694 C   0  0  0  0  0  0  0  0  0  0  0  0
    7.9275  -15.7660   23.0434 N   0  0  0  0  0  0  0  0  0  0  0  0
    7.7916  -14.3553   23.2966 C   0  0  0  0  0  0  0  0  0  0  0  0
    7.9230  -13.7916   21.8693 C   0  0  0  0  0  0  0  0  0  0  0  0
    8.8642  -14.7614   21.2043 C   0  0  0  0  0  0  0  0  0  0  0  0
    9.0983  -15.8754   22.1965 C   0  0  1  0  0  0  0  0  0  0  0  0
   10.3539  -15.7151   22.9557 C   0  0  0  0  0  0  0  0  0  0  0  0
   10.3518  -15.1388   24.0635 O   0  0  0  0  0  0  0  0  0  0  0  0
   11.5677  -16.2106   22.4381 N   0  0  0  0  0  0  0  0  0  0  0  0
   12.2687  -17.3486   23.0108 C   0  0  1  0  0  0  0  0  0  0  0  0
   13.4255  -17.7193   22.1244 C   0  0  0  0  0  0  0  0  0  0  0  0
   14.4348  -16.6038   22.0293 C   0  0  0  0  0  0  0  0  0  0  0  0
   15.5273  -16.9489   21.0976 C   0  0  0  0  0  0  0  0  0  0  0  0
   15.4677  -18.0517   20.4843 O   0  0  0  0  0  0  0  0  0  0  0  0
   12.8127  -16.9673   24.3448 C   0  0  0  0  0  0  0  0  0  0  0  0
   12.7281  -15.6605   24.7864 O   0  0  0  0  0  0  0  0  0  0  0  0
   16.6116  -16.1176   20.8680 O   0  0  0  0  0  0  0  0  0  0  0  0
   13.3510  -17.8361   25.0728 O   0  0  0  0  0  0  0  0  0  0  0  0
  2  1  1  0
  3  2  2  0
  4  3  1  0
  5  4  2  0
  5 11  1  0
  6  5  1  0
  7  6  1  0
  7  8  1  1
  9  7  1  0
 10  9  2  0
 11 12  2  0
 12  2  1  0
 13 14  1  0
 13  9  1  0
 15 14  1  0
 16 17  1  0
 16 15  1  0
 17 13  1  0
 17 18  1  1
 19 18  2  0
 20 18  1  0
 21 22  1  6
 21 20  1  0
 22 23  1  0
 23 24  1  0
 24 28  1  0
 25 24  2  0
 26 27  1  0
 26 21  1  0
 29 26  2  0
M  END
$$$$
