YPE.pdb
     RDKit          3D

 29 30  0  0  1  0  0  0  0  0999 V2000
   11.7582  -15.2673   29.2535 O   0  0  0  0  0  0  0  0  0  0  0  0
   10.6489  -15.1776   28.4257 C   0  0  0  0  0  0  0  0  0  0  0  0
    9.9384  -16.2895   28.0778 C   0  0  0  0  0  0  0  0  0  0  0  0
    8.8494  -16.1528   27.2576 C   0  0  0  0  0  0  0  0  0  0  0  0
    8.4251  -14.9241   26.7549 C   0  0  0  0  0  0  0  0  0  0  0  0
    7.2399  -14.8137   25.8684 C   0  0  0  0  0  0  0  0  0  0  0  0
    6.7973  -16.2130   25.4071 C   0  0  2  0  0  0  0  0  0  0  0  0
    7.1195  -17.1834   26.4470 N   0  0  0  0  0  0  0  0  0  0  0  0
    7.4484  -16.5647   24.1257 C   0  0  0  0  0  0  0  0  0  0  0  0
    7.6373  -17.8090   23.8885 O   0  0  0  0  0  0  0  0  0  0  0  0
    9.1448  -13.8058   27.1087 C   0  0  0  0  0  0  0  0  0  0  0  0
   10.2427  -13.9522   27.9368 C   0  0  0  0  0  0  0  0  0  0  0  0
    7.8458  -15.5705   23.1991 N   0  0  0  0  0  0  0  0  0  0  0  0
    8.1853  -14.1827   23.3758 C   0  0  0  0  0  0  0  0  0  0  0  0
    7.3443  -13.5351   22.2598 C   0  0  0  0  0  0  0  0  0  0  0  0
    7.3258  -14.5933   21.1882 C   0  0  0  0  0  0  0  0  0  0  0  0
    8.0016  -15.8080   21.7780 C   0  0  1  0  0  0  0  0  0  0  0  0
    9.4190  -15.9261   21.3835 C   0  0  0  0  0  0  0  0  0  0  0  0
    9.7272  -16.1187   20.1888 O   0  0  0  0  0  0  0  0  0  0  0  0
   10.4389  -15.8229   22.3510 N   0  0  0  0  0  0  0  0  0  0  0  0
   11.8537  -15.8228   22.0155 C   0  0  1  0  0  0  0  0  0  0  0  0
   12.6441  -15.3098   23.1874 C   0  0  0  0  0  0  0  0  0  0  0  0
   12.4233  -16.1497   24.4194 C   0  0  0  0  0  0  0  0  0  0  0  0
   13.3826  -15.7980   25.4856 C   0  0  0  0  0  0  0  0  0  0  0  0
   14.2299  -14.8897   25.2555 O   0  0  0  0  0  0  0  0  0  0  0  0
   12.2912  -17.2205   21.7397 C   0  0  0  0  0  0  0  0  0  0  0  0
   11.4606  -18.2842   22.0368 O   0  0  0  0  0  0  0  0  0  0  0  0
   13.3931  -16.4196   26.7238 O   0  0  0  0  0  0  0  0  0  0  0  0
   13.4199  -17.4348   21.2347 O   0  0  0  0  0  0  0  0  0  0  0  0
  2  1  1  0
  3  2  2  0
  4  3  1  0
  5  4  2  0
  5 11  1  0
  6  5  1  0
  7  6  1  0
  7  8  1  1
  9  7  1  0
 10  9  2  0
 11 12  2  0
 12  2  1  0
 13 14  1  0
 13  9  1  0
 15 14  1  0
 16 17  1  0
 16 15  1  0
 17 13  1  0
 17 18  1  1
 19 18  2  0
 20 18  1  0
 21 22  1  1
 21 20  1  0
 22 23  1  0
 23 24  1  0
 24 28  1  0
 25 24  2  0
 26 27  1  0
 26 21  1  0
 29 26  2  0
M  END
$$$$
