YPE.pdb
     RDKit          3D

 29 30  0  0  1  0  0  0  0  0999 V2000
   11.2100  -14.8413   29.3625 O   0  0  0  0  0  0  0  0  0  0  0  0
   10.1422  -14.8349   28.4772 C   0  0  0  0  0  0  0  0  0  0  0  0
    9.6911  -13.6706   27.9269 C   0  0  0  0  0  0  0  0  0  0  0  0
    8.6332  -13.7127   27.0572 C   0  0  0  0  0  0  0  0  0  0  0  0
    7.9872  -14.8954   26.7015 C   0  0  0  0  0  0  0  0  0  0  0  0
    6.8437  -14.9030   25.7555 C   0  0  0  0  0  0  0  0  0  0  0  0
    6.5463  -16.3430   25.3030 C   0  0  2  0  0  0  0  0  0  0  0  0
    6.8910  -17.2635   26.3804 N   0  0  0  0  0  0  0  0  0  0  0  0
    7.2943  -16.6611   24.0665 C   0  0  0  0  0  0  0  0  0  0  0  0
    7.4303  -17.8991   23.7680 O   0  0  0  0  0  0  0  0  0  0  0  0
    8.4460  -16.0668   27.2591 C   0  0  0  0  0  0  0  0  0  0  0  0
    9.5141  -16.0159   28.1361 C   0  0  0  0  0  0  0  0  0  0  0  0
    7.8370  -15.6426   23.2460 N   0  0  0  0  0  0  0  0  0  0  0  0
    7.8017  -14.2077   23.3573 C   0  0  0  0  0  0  0  0  0  0  0  0
    7.3831  -13.8172   21.9275 C   0  0  0  0  0  0  0  0  0  0  0  0
    8.0073  -14.8961   21.0821 C   0  0  0  0  0  0  0  0  0  0  0  0
    8.6022  -15.8983   22.0422 C   0  0  1  0  0  0  0  0  0  0  0  0
   10.0509  -15.7062   22.2498 C   0  0  0  0  0  0  0  0  0  0  0  0
   10.4728  -14.7014   22.8595 O   0  0  0  0  0  0  0  0  0  0  0  0
   10.9725  -16.6545   21.7619 N   0  0  0  0  0  0  0  0  0  0  0  0
   12.3712  -16.6784   22.1586 C   0  0  1  0  0  0  0  0  0  0  0  0
   12.5869  -17.7798   23.1595 C   0  0  0  0  0  0  0  0  0  0  0  0
   11.8924  -19.0523   22.7464 C   0  0  0  0  0  0  0  0  0  0  0  0
   12.2428  -20.1694   23.6465 C   0  0  0  0  0  0  0  0  0  0  0  0
   13.1247  -19.9749   24.5298 O   0  0  0  0  0  0  0  0  0  0  0  0
   13.2137  -16.9685   20.9640 C   0  0  0  0  0  0  0  0  0  0  0  0
   14.5902  -16.8711   21.0394 O   0  0  0  0  0  0  0  0  0  0  0  0
   11.6477  -21.4178   23.5639 O   0  0  0  0  0  0  0  0  0  0  0  0
   12.6722  -17.3033   19.8826 O   0  0  0  0  0  0  0  0  0  0  0  0
  2  1  1  0
  3  2  2  0
  4  3  1  0
  5  4  2  0
  5 11  1  0
  6  5  1  0
  7  6  1  0
  7  8  1  1
  9  7  1  0
 10  9  2  0
 11 12  2  0
 12  2  1  0
 13 14  1  0
 13  9  1  0
 15 14  1  0
 16 17  1  0
 16 15  1  0
 17 13  1  0
 17 18  1  1
 19 18  2  0
 20 18  1  0
 21 22  1  1
 21 20  1  0
 22 23  1  0
 23 24  1  0
 24 28  1  0
 25 24  2  0
 26 27  1  0
 26 21  1  0
 29 26  2  0
M  END
$$$$
