YPE.pdb
     RDKit          3D

 29 30  0  0  1  0  0  0  0  0999 V2000
    6.3688  -13.6327   16.6105 O   0  0  0  0  0  0  0  0  0  0  0  0
    6.6825  -13.8875   17.9373 C   0  0  0  0  0  0  0  0  0  0  0  0
    6.7521  -15.1652   18.4114 C   0  0  0  0  0  0  0  0  0  0  0  0
    7.0655  -15.3689   19.7296 C   0  0  0  0  0  0  0  0  0  0  0  0
    7.3196  -14.3279   20.6208 C   0  0  0  0  0  0  0  0  0  0  0  0
    7.6565  -14.5862   22.0429 C   0  0  0  0  0  0  0  0  0  0  0  0
    8.9114  -13.7890   22.4384 C   0  0  2  0  0  0  0  0  0  0  0  0
    9.9460  -13.9954   21.4313 N   0  0  0  0  0  0  0  0  0  0  0  0
    9.3814  -14.1973   23.7807 C   0  0  0  0  0  0  0  0  0  0  0  0
   10.5859  -14.6225   23.8738 O   0  0  0  0  0  0  0  0  0  0  0  0
    7.2483  -13.0413   20.1379 C   0  0  0  0  0  0  0  0  0  0  0  0
    6.9313  -12.8442   18.8063 C   0  0  0  0  0  0  0  0  0  0  0  0
    8.5382  -14.1214   24.9158 N   0  0  0  0  0  0  0  0  0  0  0  0
    7.1132  -13.9560   25.0364 C   0  0  0  0  0  0  0  0  0  0  0  0
    7.0404  -12.8362   26.0913 C   0  0  0  0  0  0  0  0  0  0  0  0
    8.2508  -13.0960   26.9492 C   0  0  0  0  0  0  0  0  0  0  0  0
    9.0132  -14.2154   26.2816 C   0  0  1  0  0  0  0  0  0  0  0  0
    8.7368  -15.5362   26.8795 C   0  0  0  0  0  0  0  0  0  0  0  0
    7.5968  -16.0394   26.7979 O   0  0  0  0  0  0  0  0  0  0  0  0
    9.7564  -16.2428   27.5488 N   0  0  0  0  0  0  0  0  0  0  0  0
    9.6274  -17.6358   27.9455 C   0  0  1  0  0  0  0  0  0  0  0  0
   10.7802  -18.4225   27.3855 C   0  0  0  0  0  0  0  0  0  0  0  0
   10.9167  -18.2285   25.8969 C   0  0  0  0  0  0  0  0  0  0  0  0
   12.2886  -18.5309   25.4416 C   0  0  0  0  0  0  0  0  0  0  0  0
   13.1477  -18.8659   26.3050 O   0  0  0  0  0  0  0  0  0  0  0  0
    9.6837  -17.7285   29.4318 C   0  0  0  0  0  0  0  0  0  0  0  0
    9.9069  -16.5980   30.1945 O   0  0  0  0  0  0  0  0  0  0  0  0
   12.6726  -18.4632   24.1122 O   0  0  0  0  0  0  0  0  0  0  0  0
    9.5278  -18.8385   29.9960 O   0  0  0  0  0  0  0  0  0  0  0  0
  2  1  1  0
  3  2  2  0
  4  3  1  0
  5  4  2  0
  5 11  1  0
  6  5  1  0
  7  6  1  0
  7  8  1  6
  9  7  1  0
 10  9  2  0
 11 12  2  0
 12  2  1  0
 13 14  1  0
 13  9  1  0
 15 14  1  0
 16 17  1  0
 16 15  1  0
 17 13  1  0
 17 18  1  1
 19 18  2  0
 20 18  1  0
 21 22  1  6
 21 20  1  0
 22 23  1  0
 23 24  1  0
 24 28  1  0
 25 24  2  0
 26 27  1  0
 26 21  1  0
 29 26  2  0
M  END
$$$$
