YPE.pdb
     RDKit          3D

 29 30  0  0  1  0  0  0  0  0999 V2000
    5.3844  -10.7049   28.4906 O   0  0  0  0  0  0  0  0  0  0  0  0
    5.9910  -11.5588   27.5813 C   0  0  0  0  0  0  0  0  0  0  0  0
    5.4070  -11.8379   26.3800 C   0  0  0  0  0  0  0  0  0  0  0  0
    6.0430  -12.6873   25.5132 C   0  0  0  0  0  0  0  0  0  0  0  0
    7.2684  -13.2873   25.7976 C   0  0  0  0  0  0  0  0  0  0  0  0
    7.9286  -14.2027   24.8338 C   0  0  0  0  0  0  0  0  0  0  0  0
    6.9265  -15.2634   24.3464 C   0  0  2  0  0  0  0  0  0  0  0  0
    6.6277  -16.1782   25.4423 N   0  0  0  0  0  0  0  0  0  0  0  0
    7.4696  -15.9883   23.1763 C   0  0  0  0  0  0  0  0  0  0  0  0
    7.3656  -17.2648   23.1799 O   0  0  0  0  0  0  0  0  0  0  0  0
    7.8532  -13.0026   27.0102 C   0  0  0  0  0  0  0  0  0  0  0  0
    7.2049  -12.1445   27.8795 C   0  0  0  0  0  0  0  0  0  0  0  0
    8.0779  -15.3028   22.0969 N   0  0  0  0  0  0  0  0  0  0  0  0
    8.3341  -13.9030   21.8786 C   0  0  0  0  0  0  0  0  0  0  0  0
    7.8034  -13.7326   20.4428 C   0  0  0  0  0  0  0  0  0  0  0  0
    8.0856  -15.0714   19.8132 C   0  0  0  0  0  0  0  0  0  0  0  0
    8.6051  -15.9602   20.9179 C   0  0  1  0  0  0  0  0  0  0  0  0
   10.0782  -16.0494   20.9397 C   0  0  0  0  0  0  0  0  0  0  0  0
   10.7690  -15.0286   21.1399 O   0  0  0  0  0  0  0  0  0  0  0  0
   10.7201  -17.2874   20.7345 N   0  0  0  0  0  0  0  0  0  0  0  0
   12.1028  -17.5360   21.1097 C   0  0  1  0  0  0  0  0  0  0  0  0
   12.1380  -18.3921   22.3456 C   0  0  0  0  0  0  0  0  0  0  0  0
   11.4431  -19.7121   22.1293 C   0  0  0  0  0  0  0  0  0  0  0  0
   11.6158  -20.6045   23.2931 C   0  0  0  0  0  0  0  0  0  0  0  0
   12.1725  -21.7242   23.1140 O   0  0  0  0  0  0  0  0  0  0  0  0
   12.7812  -18.2814   20.0120 C   0  0  0  0  0  0  0  0  0  0  0  0
   14.1390  -18.5317   20.0725 O   0  0  0  0  0  0  0  0  0  0  0  0
   11.1947  -20.2674   24.5692 O   0  0  0  0  0  0  0  0  0  0  0  0
   12.1177  -18.6850   19.0264 O   0  0  0  0  0  0  0  0  0  0  0  0
  2  1  1  0
  3  2  2  0
  4  3  1  0
  5  4  2  0
  5 11  1  0
  6  5  1  0
  7  6  1  0
  7  8  1  1
  9  7  1  0
 10  9  2  0
 11 12  2  0
 12  2  1  0
 13 14  1  0
 13  9  1  0
 15 14  1  0
 16 17  1  0
 16 15  1  0
 17 13  1  0
 17 18  1  1
 19 18  2  0
 20 18  1  0
 21 22  1  1
 21 20  1  0
 22 23  1  0
 23 24  1  0
 24 28  1  0
 25 24  2  0
 26 27  1  0
 26 21  1  0
 29 26  2  0
M  END
$$$$
