ENT.pdb
     RDKit          3D

 25 24  0  0  1  0  0  0  0  0999 V2000
   25.7558  -19.4725  -17.1156 N   0  0  0  0  0  0  0  0  0  0  0  0
   25.5633  -18.1071  -16.7736 C   0  0  1  0  0  0  0  0  0  0  0  0
   25.8565  -17.0838  -17.8070 C   0  0  0  0  0  0  0  0  0  0  0  0
   25.7859  -17.4779  -19.2253 C   0  0  0  0  0  0  0  0  0  0  0  0
   26.9958  -18.1685  -19.6950 C   0  0  0  0  0  0  0  0  0  0  0  0
   27.1352  -19.3929  -19.9022 O   0  0  0  0  0  0  0  0  0  0  0  0
   24.1379  -17.9624  -16.3192 C   0  0  0  0  0  0  0  0  0  0  0  0
   23.7172  -16.8973  -15.8476 O   0  0  0  0  0  0  0  0  0  0  0  0
   28.1649  -17.4109  -19.9583 O   0  0  0  0  0  0  0  0  0  0  0  0
   19.0625  -18.6980  -15.4155 N   0  0  0  0  0  0  0  0  0  0  0  0
   19.5066  -18.7189  -16.7718 C   0  0  0  0  0  0  0  0  0  0  0  0
   18.5948  -18.6663  -17.6353 O   0  0  0  0  0  0  0  0  0  0  0  0
   20.9439  -18.7973  -17.1303 C   0  0  0  0  0  0  0  0  0  0  0  0
   21.8433  -18.9673  -15.9737 C   0  0  2  0  0  0  0  0  0  0  0  0
   23.2149  -19.0417  -16.4126 N   0  0  0  0  0  0  0  0  0  0  0  0
   21.4775  -20.0323  -15.0298 C   0  0  0  0  0  0  0  0  0  0  0  0
   21.6508  -21.2233  -15.3987 O   0  0  0  0  0  0  0  0  0  0  0  0
   22.9224  -20.5435  -11.7723 C   0  0  0  0  0  0  0  0  0  0  0  0
   21.4193  -20.5931  -11.4656 C   0  0  1  0  0  0  0  0  0  0  0  0
   21.1119  -19.3213  -10.9508 O   0  0  0  0  0  0  0  0  0  0  0  0
   20.7162  -20.8065  -12.7510 C   0  0  2  0  0  0  0  0  0  0  0  0
   20.9517  -19.8107  -13.7542 N   0  0  0  0  0  0  0  0  0  0  0  0
   19.2505  -20.9610  -12.5228 C   0  0  0  0  0  0  0  0  0  0  0  0
   18.7293  -21.9484  -11.7013 O   0  0  0  0  0  0  0  0  0  0  0  0
   18.4233  -20.1858  -13.0789 O   0  0  0  0  0  0  0  0  0  0  0  0
  2  7  1  0
  2  1  1  6
  3  2  1  0
  4  3  1  0
  5  6  2  0
  5  4  1  0
  7  8  2  0
  9  5  1  0
 10 11  1  0
 11 12  2  0
 14 13  1  6
 13 11  1  0
 15 14  1  0
 15  7  1  0
 16 17  2  0
 16 14  1  0
 19 18  1  6
 19 21  1  0
 20 19  1  0
 21 23  1  0
 21 22  1  6
 22 16  1  0
 23 24  1  0
 25 23  2  0
M  END
$$$$
