ENT.pdb
     RDKit          3D

 25 24  0  0  1  0  0  0  0  0999 V2000
   15.1198  -11.2546  -15.2796 N   0  0  0  0  0  0  0  0  0  0  0  0
   16.4819  -10.9538  -15.0106 C   0  0  1  0  0  0  0  0  0  0  0  0
   17.5199  -11.6898  -15.7736 C   0  0  0  0  0  0  0  0  0  0  0  0
   17.6260  -13.1480  -15.5881 C   0  0  0  0  0  0  0  0  0  0  0  0
   18.7406  -13.7471  -16.3364 C   0  0  0  0  0  0  0  0  0  0  0  0
   18.6749  -14.6542  -17.1934 O   0  0  0  0  0  0  0  0  0  0  0  0
   16.6589   -9.4768  -15.2257 C   0  0  0  0  0  0  0  0  0  0  0  0
   15.9157   -8.8432  -15.9873 O   0  0  0  0  0  0  0  0  0  0  0  0
   20.0593  -13.2828  -16.1003 O   0  0  0  0  0  0  0  0  0  0  0  0
   17.8670   -4.4786  -14.8591 N   0  0  0  0  0  0  0  0  0  0  0  0
   16.6748   -5.1488  -14.4508 C   0  0  0  0  0  0  0  0  0  0  0  0
   15.7023   -4.3984  -14.1852 O   0  0  0  0  0  0  0  0  0  0  0  0
   16.5957   -6.6266  -14.3493 C   0  0  0  0  0  0  0  0  0  0  0  0
   17.8569   -7.3195  -14.6730 C   0  0  2  0  0  0  0  0  0  0  0  0
   17.6862   -8.7472  -14.5640 N   0  0  0  0  0  0  0  0  0  0  0  0
   19.0551   -6.8239  -13.9819 C   0  0  0  0  0  0  0  0  0  0  0  0
   19.0385   -6.8105  -12.7232 O   0  0  0  0  0  0  0  0  0  0  0  0
   22.5280   -8.2324  -14.7496 C   0  0  0  0  0  0  0  0  0  0  0  0
   22.6434   -6.7021  -14.7785 C   0  0  1  0  0  0  0  0  0  0  0  0
   22.5382   -6.3558  -16.1372 O   0  0  0  0  0  0  0  0  0  0  0  0
   21.4904   -6.1610  -14.0235 C   0  0  2  0  0  0  0  0  0  0  0  0
   20.2074   -6.3679  -14.6275 N   0  0  0  0  0  0  0  0  0  0  0  0
   21.6896   -4.7107  -13.7385 C   0  0  0  0  0  0  0  0  0  0  0  0
   22.7350   -4.2472  -12.9550 O   0  0  0  0  0  0  0  0  0  0  0  0
   20.9008   -3.8440  -14.2085 O   0  0  0  0  0  0  0  0  0  0  0  0
  2  7  1  0
  2  1  1  6
  3  2  1  0
  4  3  1  0
  5  6  2  0
  5  4  1  0
  7  8  2  0
  9  5  1  0
 10 11  1  0
 11 12  2  0
 14 13  1  1
 13 11  1  0
 15 14  1  0
 15  7  1  0
 16 17  2  0
 16 14  1  0
 19 18  1  6
 19 21  1  0
 20 19  1  0
 21 23  1  0
 21 22  1  6
 22 16  1  0
 23 24  1  0
 25 23  2  0
M  END
$$$$
