ENT.pdb
     RDKit          3D

 25 24  0  0  1  0  0  0  0  0999 V2000
   16.3494  -11.2289  -12.3340 N   0  0  0  0  0  0  0  0  0  0  0  0
   17.1549  -10.3203  -11.5966 C   0  0  1  0  0  0  0  0  0  0  0  0
   18.4019   -9.8251  -12.2299 C   0  0  0  0  0  0  0  0  0  0  0  0
   18.3027   -9.1262  -13.5236 C   0  0  0  0  0  0  0  0  0  0  0  0
   19.6049   -8.6862  -14.0450 C   0  0  0  0  0  0  0  0  0  0  0  0
   20.4939   -9.3989  -14.5582 O   0  0  0  0  0  0  0  0  0  0  0  0
   16.2826   -9.1515  -11.2331 C   0  0  0  0  0  0  0  0  0  0  0  0
   15.4387   -8.7073  -12.0232 O   0  0  0  0  0  0  0  0  0  0  0  0
   19.9436   -7.3107  -13.9850 O   0  0  0  0  0  0  0  0  0  0  0  0
   13.8941   -5.3817   -8.4354 N   0  0  0  0  0  0  0  0  0  0  0  0
   14.5004   -6.3464   -7.5758 C   0  0  0  0  0  0  0  0  0  0  0  0
   14.1876   -6.2545   -6.3620 O   0  0  0  0  0  0  0  0  0  0  0  0
   15.4326   -7.3818   -8.0852 C   0  0  0  0  0  0  0  0  0  0  0  0
   15.5627   -7.4028   -9.5543 C   0  0  2  0  0  0  0  0  0  0  0  0
   16.3906   -8.5086   -9.9680 N   0  0  0  0  0  0  0  0  0  0  0  0
   15.9401   -6.1288  -10.1816 C   0  0  0  0  0  0  0  0  0  0  0  0
   17.1090   -5.7054   -9.9842 O   0  0  0  0  0  0  0  0  0  0  0  0
   15.6761   -5.0723  -13.9331 C   0  0  0  0  0  0  0  0  0  0  0  0
   14.9080   -4.0640  -13.0675 C   0  0  1  0  0  0  0  0  0  0  0  0
   13.5722   -4.5019  -13.0994 O   0  0  0  0  0  0  0  0  0  0  0  0
   15.4458   -4.1676  -11.6919 C   0  0  2  0  0  0  0  0  0  0  0  0
   15.0898   -5.3591  -10.9799 N   0  0  0  0  0  0  0  0  0  0  0  0
   15.0669   -2.9663  -10.8934 C   0  0  0  0  0  0  0  0  0  0  0  0
   15.4927   -1.6903  -11.2284 O   0  0  0  0  0  0  0  0  0  0  0  0
   14.3347   -3.0733   -9.8703 O   0  0  0  0  0  0  0  0  0  0  0  0
  2  7  1  0
  2  1  1  6
  3  2  1  0
  4  3  1  0
  5  6  2  0
  5  4  1  0
  7  8  2  0
  9  5  1  0
 10 11  1  0
 11 12  2  0
 14 13  1  1
 13 11  1  0
 15 14  1  0
 15  7  1  0
 16 17  2  0
 16 14  1  0
 19 18  1  6
 19 21  1  0
 20 19  1  0
 21 23  1  0
 21 22  1  1
 22 16  1  0
 23 24  1  0
 25 23  2  0
M  END
$$$$
