ENT.pdb
     RDKit          3D

 25 24  0  0  1  0  0  0  0  0999 V2000
   27.9204  -17.9895  -16.0597 N   0  0  0  0  0  0  0  0  0  0  0  0
   27.0115  -18.8100  -16.7801 C   0  0  1  0  0  0  0  0  0  0  0  0
   27.5511  -19.6428  -17.8830 C   0  0  0  0  0  0  0  0  0  0  0  0
   28.9542  -20.0869  -17.8057 C   0  0  0  0  0  0  0  0  0  0  0  0
   29.3630  -20.9151  -18.9495 C   0  0  0  0  0  0  0  0  0  0  0  0
   30.4697  -21.4681  -19.1254 O   0  0  0  0  0  0  0  0  0  0  0  0
   26.3252  -19.6948  -15.7774 C   0  0  0  0  0  0  0  0  0  0  0  0
   25.5649  -20.6046  -16.1352 O   0  0  0  0  0  0  0  0  0  0  0  0
   28.4391  -21.1459  -19.9999 O   0  0  0  0  0  0  0  0  0  0  0  0
   25.0701  -22.1026  -11.2993 N   0  0  0  0  0  0  0  0  0  0  0  0
   26.1144  -21.1619  -11.0509 C   0  0  0  0  0  0  0  0  0  0  0  0
   26.6216  -21.2150   -9.9022 O   0  0  0  0  0  0  0  0  0  0  0  0
   26.5647  -20.1929  -12.0799 C   0  0  0  0  0  0  0  0  0  0  0  0
   25.8618  -20.3171  -13.3707 C   0  0  2  0  0  0  0  0  0  0  0  0
   26.5210  -19.5236  -14.3782 N   0  0  0  0  0  0  0  0  0  0  0  0
   24.4075  -20.1116  -13.3298 C   0  0  0  0  0  0  0  0  0  0  0  0
   23.9887  -18.9731  -12.9936 O   0  0  0  0  0  0  0  0  0  0  0  0
   21.6094  -22.8233  -15.1739 C   0  0  0  0  0  0  0  0  0  0  0  0
   21.4612  -21.2998  -15.0603 C   0  0  1  0  0  0  0  0  0  0  0  0
   20.0741  -21.0694  -15.0570 O   0  0  0  0  0  0  0  0  0  0  0  0
   22.0480  -20.8977  -13.7618 C   0  0  2  0  0  0  0  0  0  0  0  0
   23.4622  -21.0934  -13.6384 N   0  0  0  0  0  0  0  0  0  0  0  0
   21.3412  -21.5782  -12.6385 C   0  0  0  0  0  0  0  0  0  0  0  0
   19.9959  -21.3705  -12.3764 O   0  0  0  0  0  0  0  0  0  0  0  0
   21.9540  -22.3781  -11.8776 O   0  0  0  0  0  0  0  0  0  0  0  0
  2  7  1  0
  2  1  1  1
  3  2  1  0
  4  3  1  0
  5  6  2  0
  5  4  1  0
  7  8  2  0
  9  5  1  0
 10 11  1  0
 11 12  2  0
 14 13  1  1
 13 11  1  0
 15 14  1  0
 15  7  1  0
 16 17  2  0
 16 14  1  0
 19 18  1  1
 19 21  1  0
 20 19  1  0
 21 23  1  0
 21 22  1  6
 22 16  1  0
 23 24  1  0
 25 23  2  0
M  END
$$$$
