ENT.pdb
     RDKit          3D

 25 24  0  0  1  0  0  0  0  0999 V2000
   17.4244  -11.9230  -15.3507 N   0  0  0  0  0  0  0  0  0  0  0  0
   18.3138  -11.0374  -16.0162 C   0  0  1  0  0  0  0  0  0  0  0  0
   17.9477  -10.5788  -17.3789 C   0  0  0  0  0  0  0  0  0  0  0  0
   17.8966  -11.5740  -18.4646 C   0  0  0  0  0  0  0  0  0  0  0  0
   16.6158  -12.2926  -18.5312 C   0  0  0  0  0  0  0  0  0  0  0  0
   16.4436  -13.5142  -18.7301 O   0  0  0  0  0  0  0  0  0  0  0  0
   18.4997   -9.8437  -15.1219 C   0  0  0  0  0  0  0  0  0  0  0  0
   17.5334   -9.2810  -14.5896 O   0  0  0  0  0  0  0  0  0  0  0  0
   15.4086  -11.5695  -18.3575 O   0  0  0  0  0  0  0  0  0  0  0  0
   20.6939   -6.0019  -12.2905 N   0  0  0  0  0  0  0  0  0  0  0  0
   20.4903   -7.3146  -11.7684 C   0  0  0  0  0  0  0  0  0  0  0  0
   20.5949   -7.4171  -10.5201 O   0  0  0  0  0  0  0  0  0  0  0  0
   20.1777   -8.4717  -12.6424 C   0  0  0  0  0  0  0  0  0  0  0  0
   20.0248   -8.1241  -14.0676 C   0  0  2  0  0  0  0  0  0  0  0  0
   19.7918   -9.3123  -14.8507 N   0  0  0  0  0  0  0  0  0  0  0  0
   21.0669   -7.2539  -14.6295 C   0  0  0  0  0  0  0  0  0  0  0  0
   22.2460   -7.6945  -14.6495 O   0  0  0  0  0  0  0  0  0  0  0  0
   20.6114   -5.0998  -17.9407 C   0  0  0  0  0  0  0  0  0  0  0  0
   21.2298   -4.2311  -16.8366 C   0  0  1  0  0  0  0  0  0  0  0  0
   20.1511   -3.5098  -16.2954 O   0  0  0  0  0  0  0  0  0  0  0  0
   21.7912   -5.1488  -15.8193 C   0  0  2  0  0  0  0  0  0  0  0  0
   20.8362   -5.9742  -15.1410 N   0  0  0  0  0  0  0  0  0  0  0  0
   22.6032   -4.3894  -14.8252 C   0  0  0  0  0  0  0  0  0  0  0  0
   23.6565   -3.5702  -15.2009 O   0  0  0  0  0  0  0  0  0  0  0  0
   22.3544   -4.4688  -13.5899 O   0  0  0  0  0  0  0  0  0  0  0  0
  2  7  1  0
  2  1  1  1
  3  2  1  0
  4  3  1  0
  5  6  2  0
  5  4  1  0
  7  8  2  0
  9  5  1  0
 10 11  1  0
 11 12  2  0
 14 13  1  1
 13 11  1  0
 15 14  1  0
 15  7  1  0
 16 17  2  0
 16 14  1  0
 19 18  1  6
 19 21  1  0
 20 19  1  0
 21 23  1  0
 21 22  1  1
 22 16  1  0
 23 24  1  0
 25 23  2  0
M  END
$$$$
