ENT.pdb
     RDKit          3D

 25 24  0  0  1  0  0  0  0  0999 V2000
   20.3913  -11.2670  -17.2342 N   0  0  0  0  0  0  0  0  0  0  0  0
   19.2334  -10.4878  -17.4996 C   0  0  1  0  0  0  0  0  0  0  0  0
   17.9075  -11.1230  -17.2999 C   0  0  0  0  0  0  0  0  0  0  0  0
   17.6382  -12.4101  -17.9652 C   0  0  0  0  0  0  0  0  0  0  0  0
   18.2898  -13.5505  -17.3047 C   0  0  0  0  0  0  0  0  0  0  0  0
   18.4015  -13.7499  -16.0762 O   0  0  0  0  0  0  0  0  0  0  0  0
   19.3275   -9.2528  -16.6482 C   0  0  0  0  0  0  0  0  0  0  0  0
   18.4488   -8.3806  -16.6791 O   0  0  0  0  0  0  0  0  0  0  0  0
   18.8738  -14.5680  -18.1010 O   0  0  0  0  0  0  0  0  0  0  0  0
   21.1748   -5.8681  -12.9945 N   0  0  0  0  0  0  0  0  0  0  0  0
   21.1394   -7.2324  -12.5767 C   0  0  0  0  0  0  0  0  0  0  0  0
   21.3295   -7.4220  -11.3489 O   0  0  0  0  0  0  0  0  0  0  0  0
   20.8951   -8.3431  -13.5290 C   0  0  0  0  0  0  0  0  0  0  0  0
   20.5437   -7.9003  -14.8914 C   0  0  2  0  0  0  0  0  0  0  0  0
   20.4286   -9.0356  -15.7730 N   0  0  0  0  0  0  0  0  0  0  0  0
   21.3679   -6.8171  -15.4447 C   0  0  0  0  0  0  0  0  0  0  0  0
   22.5894   -7.0535  -15.6363 O   0  0  0  0  0  0  0  0  0  0  0  0
   20.6118   -4.8079  -18.6053 C   0  0  0  0  0  0  0  0  0  0  0  0
   20.9013   -3.7875  -17.4958 C   0  0  1  0  0  0  0  0  0  0  0  0
   19.6357   -3.3785  -17.0398 O   0  0  0  0  0  0  0  0  0  0  0  0
   21.6243   -4.5029  -16.4198 C   0  0  2  0  0  0  0  0  0  0  0  0
   20.8869   -5.5463  -15.7710 N   0  0  0  0  0  0  0  0  0  0  0  0
   22.1364   -3.5367  -15.4057 C   0  0  0  0  0  0  0  0  0  0  0  0
   22.9492   -2.4668  -15.7470 O   0  0  0  0  0  0  0  0  0  0  0  0
   21.8423   -3.6631  -14.1843 O   0  0  0  0  0  0  0  0  0  0  0  0
  2  7  1  0
  2  1  1  1
  3  2  1  0
  4  3  1  0
  5  6  2  0
  5  4  1  0
  7  8  2  0
  9  5  1  0
 10 11  1  0
 11 12  2  0
 14 13  1  1
 13 11  1  0
 15 14  1  0
 15  7  1  0
 16 17  2  0
 16 14  1  0
 19 18  1  6
 19 21  1  0
 20 19  1  0
 21 23  1  0
 21 22  1  1
 22 16  1  0
 23 24  1  0
 25 23  2  0
M  END
$$$$
