ENT.pdb
     RDKit          3D

 25 24  0  0  1  0  0  0  0  0999 V2000
   19.1605  -11.9587  -15.4737 N   0  0  0  0  0  0  0  0  0  0  0  0
   18.6277  -10.7439  -15.9825 C   0  0  1  0  0  0  0  0  0  0  0  0
   17.1537  -10.6299  -16.1074 C   0  0  0  0  0  0  0  0  0  0  0  0
   16.4578  -11.5236  -17.0502 C   0  0  0  0  0  0  0  0  0  0  0  0
   15.0036  -11.3099  -17.0841 C   0  0  0  0  0  0  0  0  0  0  0  0
   14.1645  -11.6838  -16.2371 O   0  0  0  0  0  0  0  0  0  0  0  0
   19.1408   -9.6355  -15.1065 C   0  0  0  0  0  0  0  0  0  0  0  0
   19.2614   -9.7848  -13.8831 O   0  0  0  0  0  0  0  0  0  0  0  0
   14.4344  -10.6072  -18.1762 O   0  0  0  0  0  0  0  0  0  0  0  0
   22.7167   -5.3911  -13.9125 N   0  0  0  0  0  0  0  0  0  0  0  0
   21.7876   -6.3738  -13.4563 C   0  0  0  0  0  0  0  0  0  0  0  0
   21.4209   -6.2504  -12.2605 O   0  0  0  0  0  0  0  0  0  0  0  0
   21.2935   -7.4611  -14.3362 C   0  0  0  0  0  0  0  0  0  0  0  0
   19.9268   -7.2460  -14.8476 C   0  0  2  0  0  0  0  0  0  0  0  0
   19.5083   -8.3711  -15.6466 N   0  0  0  0  0  0  0  0  0  0  0  0
   19.6829   -5.9505  -15.4966 C   0  0  0  0  0  0  0  0  0  0  0  0
   20.3891   -5.6572  -16.4965 O   0  0  0  0  0  0  0  0  0  0  0  0
   16.0706   -4.3732  -16.2160 C   0  0  0  0  0  0  0  0  0  0  0  0
   16.9878   -3.3405  -15.5464 C   0  0  1  0  0  0  0  0  0  0  0  0
   16.6481   -3.3837  -14.1827 O   0  0  0  0  0  0  0  0  0  0  0  0
   18.3815   -3.8013  -15.7397 C   0  0  2  0  0  0  0  0  0  0  0  0
   18.7222   -5.0261  -15.0783 N   0  0  0  0  0  0  0  0  0  0  0  0
   19.3426   -2.7294  -15.3503 C   0  0  0  0  0  0  0  0  0  0  0  0
   20.3020   -2.9168  -14.3674 O   0  0  0  0  0  0  0  0  0  0  0  0
   19.3137   -1.5987  -15.9114 O   0  0  0  0  0  0  0  0  0  0  0  0
  2  7  1  0
  2  1  1  1
  3  2  1  0
  4  3  1  0
  5  6  2  0
  5  4  1  0
  7  8  2  0
  9  5  1  0
 10 11  1  0
 11 12  2  0
 14 13  1  6
 13 11  1  0
 15 14  1  0
 15  7  1  0
 16 17  2  0
 16 14  1  0
 19 18  1  6
 19 21  1  0
 20 19  1  0
 21 23  1  0
 21 22  1  1
 22 16  1  0
 23 24  1  0
 25 23  2  0
M  END
$$$$
