ENT.pdb
     RDKit          3D

 25 24  0  0  1  0  0  0  0  0999 V2000
   18.6941   -9.8195  -17.2660 N   0  0  0  0  0  0  0  0  0  0  0  0
   17.6327   -9.3418  -16.4514 C   0  0  1  0  0  0  0  0  0  0  0  0
   16.9947  -10.2959  -15.5111 C   0  0  0  0  0  0  0  0  0  0  0  0
   16.5436  -11.5989  -16.0314 C   0  0  0  0  0  0  0  0  0  0  0  0
   16.2671  -12.5806  -14.9725 C   0  0  0  0  0  0  0  0  0  0  0  0
   16.4669  -12.4466  -13.7463 O   0  0  0  0  0  0  0  0  0  0  0  0
   18.1617   -8.1634  -15.6829 C   0  0  0  0  0  0  0  0  0  0  0  0
   17.4457   -7.5383  -14.8889 O   0  0  0  0  0  0  0  0  0  0  0  0
   15.7115  -13.8368  -15.3238 O   0  0  0  0  0  0  0  0  0  0  0  0
   21.5597   -4.7217  -13.5618 N   0  0  0  0  0  0  0  0  0  0  0  0
   22.0761   -6.0453  -13.6977 C   0  0  0  0  0  0  0  0  0  0  0  0
   23.1328   -6.2767  -13.0577 O   0  0  0  0  0  0  0  0  0  0  0  0
   21.4083   -7.0707  -14.5362 C   0  0  0  0  0  0  0  0  0  0  0  0
   20.0936   -6.6552  -15.0601 C   0  0  2  0  0  0  0  0  0  0  0  0
   19.5049   -7.7186  -15.8360 N   0  0  0  0  0  0  0  0  0  0  0  0
   20.0578   -5.3528  -15.7393 C   0  0  0  0  0  0  0  0  0  0  0  0
   20.6999   -5.2390  -16.8161 O   0  0  0  0  0  0  0  0  0  0  0  0
   17.0798   -3.3674  -16.9353 C   0  0  0  0  0  0  0  0  0  0  0  0
   17.8810   -2.4199  -16.0318 C   0  0  1  0  0  0  0  0  0  0  0  0
   17.2394   -2.4812  -14.7822 O   0  0  0  0  0  0  0  0  0  0  0  0
   19.2526   -2.9679  -15.9283 C   0  0  2  0  0  0  0  0  0  0  0  0
   19.3606   -4.2363  -15.2703 N   0  0  0  0  0  0  0  0  0  0  0  0
   20.1601   -1.9793  -15.2776 C   0  0  0  0  0  0  0  0  0  0  0  0
   20.3212   -0.6910  -15.7634 O   0  0  0  0  0  0  0  0  0  0  0  0
   20.8216   -2.2876  -14.2474 O   0  0  0  0  0  0  0  0  0  0  0  0
  2  7  1  0
  2  1  1  1
  3  2  1  0
  4  3  1  0
  5  6  2  0
  5  4  1  0
  7  8  2  0
  9  5  1  0
 10 11  1  0
 11 12  2  0
 14 13  1  6
 13 11  1  0
 15 14  1  0
 15  7  1  0
 16 17  2  0
 16 14  1  0
 19 18  1  6
 19 21  1  0
 20 19  1  0
 21 23  1  0
 21 22  1  1
 22 16  1  0
 23 24  1  0
 25 23  2  0
M  END
$$$$
