ENT.pdb
     RDKit          3D

 25 24  0  0  1  0  0  0  0  0999 V2000
   16.1315  -12.4439  -15.9744 N   0  0  0  0  0  0  0  0  0  0  0  0
   17.5212  -12.1585  -16.0478 C   0  0  1  0  0  0  0  0  0  0  0  0
   18.3125  -12.8254  -17.1109 C   0  0  0  0  0  0  0  0  0  0  0  0
   18.5039  -14.2846  -17.0330 C   0  0  0  0  0  0  0  0  0  0  0  0
   19.3285  -14.6999  -15.8890 C   0  0  0  0  0  0  0  0  0  0  0  0
   20.4707  -14.2893  -15.5916 O   0  0  0  0  0  0  0  0  0  0  0  0
   17.6594  -10.6681  -16.1846 C   0  0  0  0  0  0  0  0  0  0  0  0
   17.2287  -10.0700  -17.1798 O   0  0  0  0  0  0  0  0  0  0  0  0
   18.8220  -15.6718  -14.9895 O   0  0  0  0  0  0  0  0  0  0  0  0
   16.9454   -5.3576  -15.7769 N   0  0  0  0  0  0  0  0  0  0  0  0
   17.4332   -6.2709  -14.7945 C   0  0  0  0  0  0  0  0  0  0  0  0
   18.0179   -5.7429  -13.8152 O   0  0  0  0  0  0  0  0  0  0  0  0
   17.2592   -7.7382  -14.9257 C   0  0  0  0  0  0  0  0  0  0  0  0
   18.4959   -8.4609  -15.2773 C   0  0  2  0  0  0  0  0  0  0  0  0
   18.2896   -9.8846  -15.1774 N   0  0  0  0  0  0  0  0  0  0  0  0
   19.7184   -8.0029  -14.6030 C   0  0  0  0  0  0  0  0  0  0  0  0
   19.9550   -8.4570  -13.4530 O   0  0  0  0  0  0  0  0  0  0  0  0
   23.3066   -8.2733  -15.6354 C   0  0  0  0  0  0  0  0  0  0  0  0
   23.0621   -6.7769  -15.3970 C   0  0  1  0  0  0  0  0  0  0  0  0
   22.8108   -6.2424  -16.6729 O   0  0  0  0  0  0  0  0  0  0  0  0
   21.8548   -6.6596  -14.5480 C   0  0  2  0  0  0  0  0  0  0  0  0
   20.6323   -7.0997  -15.1523 N   0  0  0  0  0  0  0  0  0  0  0  0
   21.7016   -5.2615  -14.0518 C   0  0  0  0  0  0  0  0  0  0  0  0
   22.6596   -4.6480  -13.2597 O   0  0  0  0  0  0  0  0  0  0  0  0
   20.6787   -4.5801  -14.3412 O   0  0  0  0  0  0  0  0  0  0  0  0
  2  7  1  0
  2  1  1  6
  3  2  1  0
  4  3  1  0
  5  6  2  0
  5  4  1  0
  7  8  2  0
  9  5  1  0
 10 11  1  0
 11 12  2  0
 14 13  1  1
 13 11  1  0
 15 14  1  0
 15  7  1  0
 16 17  2  0
 16 14  1  0
 19 18  1  6
 19 21  1  0
 20 19  1  0
 21 23  1  0
 21 22  1  6
 22 16  1  0
 23 24  1  0
 25 23  2  0
M  END
$$$$
