ENT.pdb
     RDKit          3D

 25 24  0  0  1  0  0  0  0  0999 V2000
   19.6081  -11.1235  -15.3894 N   0  0  0  0  0  0  0  0  0  0  0  0
   18.4230  -10.4082  -15.7093 C   0  0  1  0  0  0  0  0  0  0  0  0
   17.1227  -11.0966  -15.5181 C   0  0  0  0  0  0  0  0  0  0  0  0
   17.1153  -12.4104  -14.8506 C   0  0  0  0  0  0  0  0  0  0  0  0
   15.7695  -12.9889  -14.7261 C   0  0  0  0  0  0  0  0  0  0  0  0
   15.0577  -13.0337  -13.7000 O   0  0  0  0  0  0  0  0  0  0  0  0
   18.4399   -9.1414  -14.9005 C   0  0  0  0  0  0  0  0  0  0  0  0
   17.5546   -8.2846  -15.0271 O   0  0  0  0  0  0  0  0  0  0  0  0
   15.1619  -13.5749  -15.8652 O   0  0  0  0  0  0  0  0  0  0  0  0
   17.2031   -6.7138  -11.8435 N   0  0  0  0  0  0  0  0  0  0  0  0
   18.1496   -7.4868  -11.1061 C   0  0  0  0  0  0  0  0  0  0  0  0
   17.8559   -7.6858   -9.9004 O   0  0  0  0  0  0  0  0  0  0  0  0
   19.3899   -8.0152  -11.7248 C   0  0  0  0  0  0  0  0  0  0  0  0
   19.5386   -7.6802  -13.1535 C   0  0  2  0  0  0  0  0  0  0  0  0
   19.4722   -8.8753  -13.9577 N   0  0  0  0  0  0  0  0  0  0  0  0
   20.6766   -6.8149  -13.4928 C   0  0  0  0  0  0  0  0  0  0  0  0
   21.8263   -7.2075  -13.1629 O   0  0  0  0  0  0  0  0  0  0  0  0
   22.1306   -5.9027  -16.6416 C   0  0  0  0  0  0  0  0  0  0  0  0
   21.7870   -4.5415  -16.0212 C   0  0  1  0  0  0  0  0  0  0  0  0
   20.5439   -4.1924  -16.5777 O   0  0  0  0  0  0  0  0  0  0  0  0
   21.6525   -4.7464  -14.5610 C   0  0  2  0  0  0  0  0  0  0  0  0
   20.5670   -5.5894  -14.1551 N   0  0  0  0  0  0  0  0  0  0  0  0
   21.5674   -3.4343  -13.8571 C   0  0  0  0  0  0  0  0  0  0  0  0
   22.5953   -2.5052  -13.8966 O   0  0  0  0  0  0  0  0  0  0  0  0
   20.5407   -3.1217  -13.1919 O   0  0  0  0  0  0  0  0  0  0  0  0
  2  7  1  0
  2  1  1  1
  3  2  1  0
  4  3  1  0
  5  6  2  0
  5  4  1  0
  7  8  2  0
  9  5  1  0
 10 11  1  0
 11 12  2  0
 14 13  1  1
 13 11  1  0
 15 14  1  0
 15  7  1  0
 16 17  2  0
 16 14  1  0
 19 18  1  6
 19 21  1  0
 20 19  1  0
 21 23  1  0
 21 22  1  6
 22 16  1  0
 23 24  1  0
 25 23  2  0
M  END
$$$$
