ENT.pdb
     RDKit          3D

 25 24  0  0  1  0  0  0  0  0999 V2000
   26.1282  -22.3800  -14.7706 N   0  0  0  0  0  0  0  0  0  0  0  0
   25.9097  -21.0919  -14.2126 C   0  0  1  0  0  0  0  0  0  0  0  0
   26.1530  -19.9101  -15.0760 C   0  0  0  0  0  0  0  0  0  0  0  0
   27.4862  -19.7460  -15.6823 C   0  0  0  0  0  0  0  0  0  0  0  0
   27.4985  -19.9983  -17.1306 C   0  0  0  0  0  0  0  0  0  0  0  0
   28.3740  -20.6035  -17.7853 O   0  0  0  0  0  0  0  0  0  0  0  0
   24.4922  -21.0613  -13.7139 C   0  0  0  0  0  0  0  0  0  0  0  0
   23.6117  -21.7611  -14.2323 O   0  0  0  0  0  0  0  0  0  0  0  0
   26.4222  -19.5249  -17.9229 O   0  0  0  0  0  0  0  0  0  0  0  0
   24.4922  -20.9139   -9.0379 N   0  0  0  0  0  0  0  0  0  0  0  0
   23.2757  -20.9783   -9.7817 C   0  0  0  0  0  0  0  0  0  0  0  0
   22.6254  -22.0462   -9.6543 O   0  0  0  0  0  0  0  0  0  0  0  0
   22.8170  -19.8605  -10.6424 C   0  0  0  0  0  0  0  0  0  0  0  0
   22.7711  -20.1886  -12.0796 C   0  0  2  0  0  0  0  0  0  0  0  0
   24.1045  -20.2281  -12.6271 N   0  0  0  0  0  0  0  0  0  0  0  0
   21.8353  -19.3947  -12.8877 C   0  0  0  0  0  0  0  0  0  0  0  0
   21.8012  -18.1523  -12.6877 O   0  0  0  0  0  0  0  0  0  0  0  0
   21.7823  -18.7729  -16.4118 C   0  0  0  0  0  0  0  0  0  0  0  0
   20.3641  -19.3036  -16.1613 C   0  0  1  0  0  0  0  0  0  0  0  0
   20.4126  -20.6586  -16.5338 O   0  0  0  0  0  0  0  0  0  0  0  0
   20.1007  -19.1830  -14.7093 C   0  0  2  0  0  0  0  0  0  0  0  0
   20.9837  -19.9261  -13.8598 N   0  0  0  0  0  0  0  0  0  0  0  0
   18.6847  -19.5396  -14.4060 C   0  0  0  0  0  0  0  0  0  0  0  0
   17.6142  -18.8528  -14.9574 O   0  0  0  0  0  0  0  0  0  0  0  0
   18.4099  -20.4930  -13.6252 O   0  0  0  0  0  0  0  0  0  0  0  0
  2  7  1  0
  2  1  1  6
  3  2  1  0
  4  3  1  0
  5  6  2  0
  5  4  1  0
  7  8  2  0
  9  5  1  0
 10 11  1  0
 11 12  2  0
 14 13  1  1
 13 11  1  0
 15 14  1  0
 15  7  1  0
 16 17  2  0
 16 14  1  0
 19 18  1  1
 19 21  1  0
 20 19  1  0
 21 23  1  0
 21 22  1  1
 22 16  1  0
 23 24  1  0
 25 23  2  0
M  END
$$$$
