ENT.pdb
     RDKit          3D

 25 24  0  0  1  0  0  0  0  0999 V2000
   14.9762  -12.0541  -14.5159 N   0  0  0  0  0  0  0  0  0  0  0  0
   16.3671  -11.7806  -14.4213 C   0  0  1  0  0  0  0  0  0  0  0  0
   17.3083  -12.7388  -15.0515 C   0  0  0  0  0  0  0  0  0  0  0  0
   16.8654  -13.4722  -16.2507 C   0  0  0  0  0  0  0  0  0  0  0  0
   17.8478  -14.4597  -16.7209 C   0  0  0  0  0  0  0  0  0  0  0  0
   17.8168  -15.6973  -16.5505 O   0  0  0  0  0  0  0  0  0  0  0  0
   16.5883  -10.4112  -15.0001 C   0  0  0  0  0  0  0  0  0  0  0  0
   15.8948   -9.9872  -15.9345 O   0  0  0  0  0  0  0  0  0  0  0  0
   18.9766  -14.0152  -17.4547 O   0  0  0  0  0  0  0  0  0  0  0  0
   18.0584   -5.5573  -15.9869 N   0  0  0  0  0  0  0  0  0  0  0  0
   16.7768   -6.0849  -15.6457 C   0  0  0  0  0  0  0  0  0  0  0  0
   15.8100   -5.3019  -15.8243 O   0  0  0  0  0  0  0  0  0  0  0  0
   16.6047   -7.4607  -15.1184 C   0  0  0  0  0  0  0  0  0  0  0  0
   17.8612   -8.2263  -15.0156 C   0  0  2  0  0  0  0  0  0  0  0  0
   17.6019   -9.5472  -14.4986 N   0  0  0  0  0  0  0  0  0  0  0  0
   18.9720   -7.5450  -14.3366 C   0  0  0  0  0  0  0  0  0  0  0  0
   18.7843   -7.1619  -13.1523 O   0  0  0  0  0  0  0  0  0  0  0  0
   22.6335   -8.9577  -14.5766 C   0  0  0  0  0  0  0  0  0  0  0  0
   22.6734   -7.4355  -14.7695 C   0  0  1  0  0  0  0  0  0  0  0  0
   22.7241   -7.2475  -16.1620 O   0  0  0  0  0  0  0  0  0  0  0  0
   21.4077   -6.8914  -14.2271 C   0  0  2  0  0  0  0  0  0  0  0  0
   20.2184   -7.2953  -14.9170 N   0  0  0  0  0  0  0  0  0  0  0  0
   21.4709   -5.4032  -14.1525 C   0  0  0  0  0  0  0  0  0  0  0  0
   22.4512   -4.7393  -13.4314 O   0  0  0  0  0  0  0  0  0  0  0  0
   20.6209   -4.6880  -14.7526 O   0  0  0  0  0  0  0  0  0  0  0  0
  2  7  1  0
  2  1  1  6
  3  2  1  0
  4  3  1  0
  5  6  2  0
  5  4  1  0
  7  8  2  0
  9  5  1  0
 10 11  1  0
 11 12  2  0
 14 13  1  1
 13 11  1  0
 15 14  1  0
 15  7  1  0
 16 17  2  0
 16 14  1  0
 19 18  1  6
 19 21  1  0
 20 19  1  0
 21 23  1  0
 21 22  1  6
 22 16  1  0
 23 24  1  0
 25 23  2  0
M  END
$$$$
