ENT.pdb
     RDKit          3D

 25 24  0  0  1  0  0  0  0  0999 V2000
   20.5837  -13.7463  -16.5897 N   0  0  0  0  0  0  0  0  0  0  0  0
   20.4729  -12.4497  -17.1595 C   0  0  1  0  0  0  0  0  0  0  0  0
   19.1146  -11.8745  -17.3191 C   0  0  0  0  0  0  0  0  0  0  0  0
   18.0723  -12.7008  -17.9539 C   0  0  0  0  0  0  0  0  0  0  0  0
   17.4151  -13.6238  -17.0171 C   0  0  0  0  0  0  0  0  0  0  0  0
   16.6857  -13.3248  -16.0476 O   0  0  0  0  0  0  0  0  0  0  0  0
   21.3098  -11.5254  -16.3201 C   0  0  0  0  0  0  0  0  0  0  0  0
   21.0653  -11.3470  -15.1193 O   0  0  0  0  0  0  0  0  0  0  0  0
   17.5937  -15.0203  -17.1845 O   0  0  0  0  0  0  0  0  0  0  0  0
   26.6739   -9.9182  -14.7421 N   0  0  0  0  0  0  0  0  0  0  0  0
   25.5898   -9.3888  -15.5047 C   0  0  0  0  0  0  0  0  0  0  0  0
   25.4768   -8.1373  -15.4785 O   0  0  0  0  0  0  0  0  0  0  0  0
   24.6656  -10.2593  -16.2719 C   0  0  0  0  0  0  0  0  0  0  0  0
   23.2417   -9.9061  -16.1190 C   0  0  2  0  0  0  0  0  0  0  0  0
   22.4159  -10.8188  -16.8704 N   0  0  0  0  0  0  0  0  0  0  0  0
   22.9041   -8.4947  -16.3488 C   0  0  0  0  0  0  0  0  0  0  0  0
   23.1243   -8.0216  -17.4944 O   0  0  0  0  0  0  0  0  0  0  0  0
   19.8356   -6.8884  -16.5717 C   0  0  0  0  0  0  0  0  0  0  0  0
   20.5111   -6.0192  -15.5020 C   0  0  1  0  0  0  0  0  0  0  0  0
   19.9985   -6.4857  -14.2787 O   0  0  0  0  0  0  0  0  0  0  0  0
   21.9662   -6.2813  -15.5785 C   0  0  2  0  0  0  0  0  0  0  0  0
   22.3569   -7.6461  -15.3828 N   0  0  0  0  0  0  0  0  0  0  0  0
   22.7043   -5.4005  -14.6279 C   0  0  0  0  0  0  0  0  0  0  0  0
   22.6191   -4.0179  -14.6818 O   0  0  0  0  0  0  0  0  0  0  0  0
   23.4421   -5.8922  -13.7291 O   0  0  0  0  0  0  0  0  0  0  0  0
  2  7  1  0
  2  1  1  1
  3  2  1  0
  4  3  1  0
  5  6  2  0
  5  4  1  0
  7  8  2  0
  9  5  1  0
 10 11  1  0
 11 12  2  0
 14 13  1  6
 13 11  1  0
 15 14  1  0
 15  7  1  0
 16 17  2  0
 16 14  1  0
 19 18  1  6
 19 21  1  0
 20 19  1  0
 21 23  1  0
 21 22  1  1
 22 16  1  0
 23 24  1  0
 25 23  2  0
M  END
$$$$
