ENT.pdb
     RDKit          3D

 25 24  0  0  1  0  0  0  0  0999 V2000
   17.2020  -13.6012  -14.9954 N   0  0  0  0  0  0  0  0  0  0  0  0
   16.5153  -12.3591  -15.0570 C   0  0  1  0  0  0  0  0  0  0  0  0
   15.1574  -12.2856  -14.4638 C   0  0  0  0  0  0  0  0  0  0  0  0
   14.1329  -13.2342  -14.9354 C   0  0  0  0  0  0  0  0  0  0  0  0
   14.3154  -14.5936  -14.4063 C   0  0  0  0  0  0  0  0  0  0  0  0
   14.3536  -14.9390  -13.2060 O   0  0  0  0  0  0  0  0  0  0  0  0
   17.3996  -11.3328  -14.4060 C   0  0  0  0  0  0  0  0  0  0  0  0
   18.6256  -11.4922  -14.3330 O   0  0  0  0  0  0  0  0  0  0  0  0
   14.4705  -15.6724  -15.3132 O   0  0  0  0  0  0  0  0  0  0  0  0
   20.6157   -7.6520  -13.0293 N   0  0  0  0  0  0  0  0  0  0  0  0
   19.5175   -7.5035  -13.9289 C   0  0  0  0  0  0  0  0  0  0  0  0
   19.3168   -6.3333  -14.3413 O   0  0  0  0  0  0  0  0  0  0  0  0
   18.6765   -8.6529  -14.3438 C   0  0  0  0  0  0  0  0  0  0  0  0
   17.6719   -9.0552  -13.3416 C   0  0  2  0  0  0  0  0  0  0  0  0
   16.8650  -10.1377  -13.8480 N   0  0  0  0  0  0  0  0  0  0  0  0
   16.8794   -7.9650  -12.7567 C   0  0  0  0  0  0  0  0  0  0  0  0
   16.0013   -7.4285  -13.4818 O   0  0  0  0  0  0  0  0  0  0  0  0
   15.5337   -7.9861   -8.9711 C   0  0  0  0  0  0  0  0  0  0  0  0
   16.1542   -6.6262   -9.3198 C   0  0  1  0  0  0  0  0  0  0  0  0
   17.4599   -6.6794   -8.8010 O   0  0  0  0  0  0  0  0  0  0  0  0
   16.1957   -6.5288  -10.7966 C   0  0  2  0  0  0  0  0  0  0  0  0
   17.0358   -7.4862  -11.4532 N   0  0  0  0  0  0  0  0  0  0  0  0
   16.5740   -5.1486  -11.2165 C   0  0  0  0  0  0  0  0  0  0  0  0
   15.8155   -4.0384  -10.8794 O   0  0  0  0  0  0  0  0  0  0  0  0
   17.6134   -4.9427  -11.9032 O   0  0  0  0  0  0  0  0  0  0  0  0
  2  7  1  0
  2  1  1  1
  3  2  1  0
  4  3  1  0
  5  6  2  0
  5  4  1  0
  7  8  2  0
  9  5  1  0
 10 11  1  0
 11 12  2  0
 14 13  1  6
 13 11  1  0
 15 14  1  0
 15  7  1  0
 16 17  2  0
 16 14  1  0
 19 18  1  6
 19 21  1  0
 20 19  1  0
 21 23  1  0
 21 22  1  1
 22 16  1  0
 23 24  1  0
 25 23  2  0
M  END
$$$$
