KFP.pdb
     RDKit          3D

 28 29  0  0  1  0  0  0  0  0999 V2000
    8.7792  -16.9517   20.5688 N   0  0  0  0  0  0  0  0  0  0  0  0
    9.8034  -15.9132   20.6784 C   0  0  1  0  0  0  0  0  0  0  0  0
    9.4692  -14.8924   19.6166 C   0  0  0  0  0  0  0  0  0  0  0  0
    8.1718  -15.1502   18.9138 C   0  0  0  0  0  0  0  0  0  0  0  0
    7.9812  -14.0203   17.9046 C   0  0  0  0  0  0  0  0  0  0  0  0
    8.2444  -14.5307   16.5062 C   0  0  0  0  0  0  0  0  0  0  0  0
    7.9221  -13.4914   15.5650 N   0  0  0  0  0  0  0  0  0  0  0  0
    9.7186  -15.3482   22.0384 C   0  0  0  0  0  0  0  0  0  0  0  0
   10.5466  -14.4648   22.4325 O   0  0  0  0  0  0  0  0  0  0  0  0
    8.7184  -15.7416   23.0000 N   0  0  0  0  0  0  0  0  0  0  0  0
    8.5794  -15.0880   24.2594 C   0  0  1  0  0  0  0  0  0  0  0  0
    7.1319  -14.7912   24.6069 C   0  0  0  0  0  0  0  0  0  0  0  0
    7.0015  -13.6825   25.5742 C   0  0  0  0  0  0  0  0  0  0  0  0
    7.5274  -12.4285   25.3608 C   0  0  0  0  0  0  0  0  0  0  0  0
    7.3871  -11.4080   26.2904 C   0  0  0  0  0  0  0  0  0  0  0  0
    6.7086  -11.6214   27.4700 C   0  0  0  0  0  0  0  0  0  0  0  0
    6.1789  -12.8696   27.6945 C   0  0  0  0  0  0  0  0  0  0  0  0
    6.3293  -13.8666   26.7603 C   0  0  0  0  0  0  0  0  0  0  0  0
    9.3144  -15.6587   25.3933 C   0  0  0  0  0  0  0  0  0  0  0  0
    9.3080  -16.9539   25.4352 O   0  0  0  0  0  0  0  0  0  0  0  0
   10.0090  -15.0123   26.4231 N   0  0  0  0  0  0  0  0  0  0  0  0
   10.1773  -13.6077   26.6279 C   0  0  0  0  0  0  0  0  0  0  0  0
   11.4193  -13.5271   27.5322 C   0  0  0  0  0  0  0  0  0  0  0  0
   11.1613  -14.6738   28.4771 C   0  0  0  0  0  0  0  0  0  0  0  0
   10.6855  -15.7391   27.5113 C   0  0  1  0  0  0  0  0  0  0  0  0
    9.7697  -16.6454   28.2114 C   0  0  0  0  0  0  0  0  0  0  0  0
    8.5501  -16.6463   27.9688 O   0  0  0  0  0  0  0  0  0  0  0  0
   10.2767  -17.5141   29.1589 O   0  0  0  0  0  0  0  0  0  0  0  0
  2  1  1  1
  2  3  1  0
  4  5  1  0
  4  3  1  0
  6  5  1  0
  7  6  1  0
  8  9  2  0
  8  2  1  0
 10  8  1  0
 11 10  1  0
 12 13  1  0
 11 12  1  1
 13 14  2  0
 14 15  1  0
 16 15  2  0
 17 16  1  0
 18 13  1  0
 18 17  2  0
 19 20  2  0
 19 11  1  0
 21 19  1  0
 22 21  1  0
 23 24  1  0
 23 22  1  0
 24 25  1  0
 25 21  1  0
 25 26  1  1
 27 26  2  0
 28 26  1  0
M  END
$$$$
