KFP.pdb
     RDKit          3D

 28 29  0  0  1  0  0  0  0  0999 V2000
    9.4267  -17.1466   20.0741 N   0  0  0  0  0  0  0  0  0  0  0  0
   10.4911  -17.1779   21.0768 C   0  0  1  0  0  0  0  0  0  0  0  0
   11.7556  -16.7924   20.3463 C   0  0  0  0  0  0  0  0  0  0  0  0
   12.4943  -17.9545   19.7568 C   0  0  0  0  0  0  0  0  0  0  0  0
   12.7753  -17.6077   18.2967 C   0  0  0  0  0  0  0  0  0  0  0  0
   13.6036  -18.7001   17.6594 C   0  0  0  0  0  0  0  0  0  0  0  0
   13.8287  -18.3653   16.2784 N   0  0  0  0  0  0  0  0  0  0  0  0
   10.1386  -16.2052   22.1283 C   0  0  0  0  0  0  0  0  0  0  0  0
   10.4686  -14.9799   22.0231 O   0  0  0  0  0  0  0  0  0  0  0  0
    9.4128  -16.5573   23.3237 N   0  0  0  0  0  0  0  0  0  0  0  0
    9.0132  -15.5812   24.2830 C   0  0  1  0  0  0  0  0  0  0  0  0
    7.6125  -15.0536   24.0308 C   0  0  0  0  0  0  0  0  0  0  0  0
    7.2448  -13.9664   24.9609 C   0  0  0  0  0  0  0  0  0  0  0  0
    7.6997  -12.6740   24.8290 C   0  0  0  0  0  0  0  0  0  0  0  0
    7.3351  -11.6753   25.7206 C   0  0  0  0  0  0  0  0  0  0  0  0
    6.4963  -11.9501   26.7780 C   0  0  0  0  0  0  0  0  0  0  0  0
    6.0355  -13.2372   26.9201 C   0  0  0  0  0  0  0  0  0  0  0  0
    6.4089  -14.2118   26.0256 C   0  0  0  0  0  0  0  0  0  0  0  0
    9.2369  -15.9025   25.6966 C   0  0  0  0  0  0  0  0  0  0  0  0
    8.9227  -17.1165   26.0235 O   0  0  0  0  0  0  0  0  0  0  0  0
    9.7316  -15.0950   26.7281 N   0  0  0  0  0  0  0  0  0  0  0  0
    9.6805  -13.6706   26.8355 C   0  0  0  0  0  0  0  0  0  0  0  0
   10.8060  -13.3492   27.8338 C   0  0  0  0  0  0  0  0  0  0  0  0
   10.6219  -14.4571   28.8403 C   0  0  0  0  0  0  0  0  0  0  0  0
   10.3956  -15.6417   27.9241 C   0  0  1  0  0  0  0  0  0  0  0  0
    9.5530  -16.6250   28.6122 C   0  0  0  0  0  0  0  0  0  0  0  0
    9.9854  -17.2891   29.5703 O   0  0  0  0  0  0  0  0  0  0  0  0
    8.2529  -16.8138   28.1836 O   0  0  0  0  0  0  0  0  0  0  0  0
  2  1  1  6
  2  3  1  0
  4  5  1  0
  4  3  1  0
  6  5  1  0
  7  6  1  0
  8  9  2  0
  8  2  1  0
 10  8  1  0
 11 10  1  0
 12 13  1  0
 11 12  1  1
 13 14  2  0
 14 15  1  0
 16 15  2  0
 17 16  1  0
 18 13  1  0
 18 17  2  0
 19 20  2  0
 19 11  1  0
 21 19  1  0
 22 21  1  0
 23 24  1  0
 23 22  1  0
 24 25  1  0
 25 21  1  0
 25 26  1  1
 27 26  2  0
 28 26  1  0
M  END
$$$$
