KFP.pdb
     RDKit          3D

 28 29  0  0  1  0  0  0  0  0999 V2000
   10.4404  -16.4512   19.8122 N   0  0  0  0  0  0  0  0  0  0  0  0
   10.3977  -17.2162   21.0581 C   0  0  1  0  0  0  0  0  0  0  0  0
   11.7648  -17.8415   21.2037 C   0  0  0  0  0  0  0  0  0  0  0  0
   12.0624  -18.8950   20.1814 C   0  0  0  0  0  0  0  0  0  0  0  0
   13.4343  -19.4713   20.5239 C   0  0  0  0  0  0  0  0  0  0  0  0
   13.8538  -20.4640   19.4637 C   0  0  0  0  0  0  0  0  0  0  0  0
   15.1815  -20.9297   19.7641 N   0  0  0  0  0  0  0  0  0  0  0  0
   10.1007  -16.2698   22.1499 C   0  0  0  0  0  0  0  0  0  0  0  0
   10.8803  -15.2946   22.4004 O   0  0  0  0  0  0  0  0  0  0  0  0
    8.9362  -16.3727   22.9943 N   0  0  0  0  0  0  0  0  0  0  0  0
    8.6785  -15.4457   24.0464 C   0  0  1  0  0  0  0  0  0  0  0  0
    7.2953  -14.8275   23.9544 C   0  0  0  0  0  0  0  0  0  0  0  0
    7.1003  -13.7368   24.9313 C   0  0  0  0  0  0  0  0  0  0  0  0
    7.5651  -12.4560   24.7356 C   0  0  0  0  0  0  0  0  0  0  0  0
    7.3651  -11.4535   25.6739 C   0  0  0  0  0  0  0  0  0  0  0  0
    6.6868  -11.7126   26.8444 C   0  0  0  0  0  0  0  0  0  0  0  0
    6.2179  -12.9880   27.0512 C   0  0  0  0  0  0  0  0  0  0  0  0
    6.4269  -13.9665   26.1087 C   0  0  0  0  0  0  0  0  0  0  0  0
    9.0021  -15.8762   25.4108 C   0  0  0  0  0  0  0  0  0  0  0  0
    8.6918  -17.1077   25.6689 O   0  0  0  0  0  0  0  0  0  0  0  0
    9.5872  -15.1554   26.4591 N   0  0  0  0  0  0  0  0  0  0  0  0
    9.6985  -13.7375   26.6008 C   0  0  0  0  0  0  0  0  0  0  0  0
   10.8551  -13.5704   27.6014 C   0  0  0  0  0  0  0  0  0  0  0  0
   10.5482  -14.6743   28.5818 C   0  0  0  0  0  0  0  0  0  0  0  0
   10.1871  -15.8029   27.6385 C   0  0  1  0  0  0  0  0  0  0  0  0
    9.2395  -16.7007   28.3067 C   0  0  0  0  0  0  0  0  0  0  0  0
    8.0653  -16.8107   27.9124 O   0  0  0  0  0  0  0  0  0  0  0  0
    9.6645  -17.4371   29.3960 O   0  0  0  0  0  0  0  0  0  0  0  0
  2  1  1  6
  2  3  1  0
  4  5  1  0
  4  3  1  0
  6  5  1  0
  7  6  1  0
  8  9  2  0
  8  2  1  0
 10  8  1  0
 11 10  1  0
 12 13  1  0
 11 12  1  1
 13 14  2  0
 14 15  1  0
 16 15  2  0
 17 16  1  0
 18 13  1  0
 18 17  2  0
 19 20  2  0
 19 11  1  0
 21 19  1  0
 22 21  1  0
 23 24  1  0
 23 22  1  0
 24 25  1  0
 25 21  1  0
 25 26  1  1
 27 26  2  0
 28 26  1  0
M  END
$$$$
