KFP.pdb
     RDKit          3D

 28 29  0  0  1  0  0  0  0  0999 V2000
    4.5409  -20.4356   23.4473 N   0  0  0  0  0  0  0  0  0  0  0  0
    5.6844  -19.7978   22.7954 C   0  0  1  0  0  0  0  0  0  0  0  0
    5.4410  -19.9354   21.3112 C   0  0  0  0  0  0  0  0  0  0  0  0
    5.9185  -21.2332   20.7355 C   0  0  0  0  0  0  0  0  0  0  0  0
    7.4446  -21.1996   20.7699 C   0  0  0  0  0  0  0  0  0  0  0  0
    8.0000  -22.4775   20.1835 C   0  0  0  0  0  0  0  0  0  0  0  0
    9.4340  -22.4549   20.2972 N   0  0  0  0  0  0  0  0  0  0  0  0
    5.7102  -18.3870   23.2256 C   0  0  0  0  0  0  0  0  0  0  0  0
    5.1618  -17.4785   22.5219 O   0  0  0  0  0  0  0  0  0  0  0  0
    6.3410  -17.9402   24.4430 N   0  0  0  0  0  0  0  0  0  0  0  0
    6.7568  -16.5893   24.6297 C   0  0  1  0  0  0  0  0  0  0  0  0
    6.8956  -16.2179   26.0948 C   0  0  0  0  0  0  0  0  0  0  0  0
    7.0583  -14.7633   26.2936 C   0  0  0  0  0  0  0  0  0  0  0  0
    5.9989  -13.8866   26.3562 C   0  0  0  0  0  0  0  0  0  0  0  0
    6.1861  -12.5247   26.5441 C   0  0  0  0  0  0  0  0  0  0  0  0
    7.4537  -12.0017   26.6753 C   0  0  0  0  0  0  0  0  0  0  0  0
    8.5196  -12.8673   26.6145 C   0  0  0  0  0  0  0  0  0  0  0  0
    8.3121  -14.2132   26.4277 C   0  0  0  0  0  0  0  0  0  0  0  0
    7.8958  -16.1241   23.8311 C   0  0  0  0  0  0  0  0  0  0  0  0
    8.9817  -16.8107   24.0008 O   0  0  0  0  0  0  0  0  0  0  0  0
    7.9759  -15.0578   22.9270 N   0  0  0  0  0  0  0  0  0  0  0  0
    6.9991  -14.0477   22.6649 C   0  0  0  0  0  0  0  0  0  0  0  0
    7.3915  -13.5275   21.2712 C   0  0  0  0  0  0  0  0  0  0  0  0
    8.8942  -13.4889   21.3919 C   0  0  0  0  0  0  0  0  0  0  0  0
    9.1598  -14.8085   22.0864 C   0  0  1  0  0  0  0  0  0  0  0  0
   10.3813  -14.6898   22.8889 C   0  0  0  0  0  0  0  0  0  0  0  0
   10.3425  -14.7074   24.1317 O   0  0  0  0  0  0  0  0  0  0  0  0
   11.5976  -14.5560   22.2468 O   0  0  0  0  0  0  0  0  0  0  0  0
  2  1  1  1
  2  3  1  0
  4  5  1  0
  4  3  1  0
  6  5  1  0
  7  6  1  0
  8  9  2  0
  8  2  1  0
 10  8  1  0
 11 10  1  0
 12 13  1  0
 11 12  1  1
 13 14  2  0
 14 15  1  0
 16 15  2  0
 17 16  1  0
 18 13  1  0
 18 17  2  0
 19 20  2  0
 19 11  1  0
 21 19  1  0
 22 21  1  0
 23 24  1  0
 23 22  1  0
 24 25  1  0
 25 21  1  0
 25 26  1  1
 27 26  2  0
 28 26  1  0
M  END
$$$$
