KFP.pdb
     RDKit          3D

 28 29  0  0  1  0  0  0  0  0999 V2000
    3.9912  -19.5504   22.2092 N   0  0  0  0  0  0  0  0  0  0  0  0
    5.2964  -19.5442   22.8693 C   0  0  1  0  0  0  0  0  0  0  0  0
    6.2635  -20.1399   21.8736 C   0  0  0  0  0  0  0  0  0  0  0  0
    6.1035  -21.6166   21.6809 C   0  0  0  0  0  0  0  0  0  0  0  0
    7.1708  -22.0520   20.6795 C   0  0  0  0  0  0  0  0  0  0  0  0
    7.0630  -23.5388   20.4278 C   0  0  0  0  0  0  0  0  0  0  0  0
    7.4188  -24.2400   21.6326 N   0  0  0  0  0  0  0  0  0  0  0  0
    5.6240  -18.1425   23.1915 C   0  0  0  0  0  0  0  0  0  0  0  0
    5.3583  -17.2039   22.3731 O   0  0  0  0  0  0  0  0  0  0  0  0
    6.2528  -17.7380   24.4246 N   0  0  0  0  0  0  0  0  0  0  0  0
    6.7104  -16.4051   24.6405 C   0  0  1  0  0  0  0  0  0  0  0  0
    6.7834  -16.0437   26.1129 C   0  0  0  0  0  0  0  0  0  0  0  0
    6.9558  -14.5926   26.3282 C   0  0  0  0  0  0  0  0  0  0  0  0
    5.9023  -13.7095   26.3997 C   0  0  0  0  0  0  0  0  0  0  0  0
    6.0985  -12.3511   26.6031 C   0  0  0  0  0  0  0  0  0  0  0  0
    7.3694  -11.8383   26.7415 C   0  0  0  0  0  0  0  0  0  0  0  0
    8.4295  -12.7103   26.6719 C   0  0  0  0  0  0  0  0  0  0  0  0
    8.2131  -14.0526   26.4697 C   0  0  0  0  0  0  0  0  0  0  0  0
    7.9087  -15.9829   23.9075 C   0  0  0  0  0  0  0  0  0  0  0  0
    8.9706  -16.6747   24.1782 O   0  0  0  0  0  0  0  0  0  0  0  0
    8.0665  -14.9521   22.9729 N   0  0  0  0  0  0  0  0  0  0  0  0
    7.1392  -13.9185   22.6341 C   0  0  0  0  0  0  0  0  0  0  0  0
    7.6101  -13.4611   21.2428 C   0  0  0  0  0  0  0  0  0  0  0  0
    9.1066  -13.4705   21.4288 C   0  0  0  0  0  0  0  0  0  0  0  0
    9.2939  -14.7734   22.1780 C   0  0  1  0  0  0  0  0  0  0  0  0
   10.4830  -14.6693   23.0297 C   0  0  0  0  0  0  0  0  0  0  0  0
   10.3909  -14.6566   24.2697 O   0  0  0  0  0  0  0  0  0  0  0  0
   11.7288  -14.5839   22.4379 O   0  0  0  0  0  0  0  0  0  0  0  0
  2  1  1  6
  2  3  1  0
  4  5  1  0
  4  3  1  0
  6  5  1  0
  7  6  1  0
  8  9  2  0
  8  2  1  0
 10  8  1  0
 11 10  1  0
 12 13  1  0
 11 12  1  1
 13 14  2  0
 14 15  1  0
 16 15  2  0
 17 16  1  0
 18 13  1  0
 18 17  2  0
 19 20  2  0
 19 11  1  0
 21 19  1  0
 22 21  1  0
 23 24  1  0
 23 22  1  0
 24 25  1  0
 25 21  1  0
 25 26  1  1
 27 26  2  0
 28 26  1  0
M  END
$$$$
