KFP.pdb
     RDKit          3D

 28 29  0  0  1  0  0  0  0  0999 V2000
   10.9917  -16.3602   19.9847 N   0  0  0  0  0  0  0  0  0  0  0  0
   10.3446  -17.1581   21.0259 C   0  0  1  0  0  0  0  0  0  0  0  0
   11.3063  -18.2790   21.3420 C   0  0  0  0  0  0  0  0  0  0  0  0
   10.8528  -19.6224   20.8589 C   0  0  0  0  0  0  0  0  0  0  0  0
   11.8864  -20.6389   21.3381 C   0  0  0  0  0  0  0  0  0  0  0  0
   11.5219  -22.0177   20.8365 C   0  0  0  0  0  0  0  0  0  0  0  0
   12.4776  -22.9643   21.3468 N   0  0  0  0  0  0  0  0  0  0  0  0
   10.1198  -16.2753   22.1860 C   0  0  0  0  0  0  0  0  0  0  0  0
   11.0329  -15.4877   22.5953 O   0  0  0  0  0  0  0  0  0  0  0  0
    8.8825  -16.2367   22.9257 N   0  0  0  0  0  0  0  0  0  0  0  0
    8.6729  -15.3297   24.0056 C   0  0  1  0  0  0  0  0  0  0  0  0
    7.3107  -14.6622   23.9518 C   0  0  0  0  0  0  0  0  0  0  0  0
    7.1380  -13.6495   25.0133 C   0  0  0  0  0  0  0  0  0  0  0  0
    6.5048  -13.9083   26.2077 C   0  0  0  0  0  0  0  0  0  0  0  0
    6.3590  -12.9341   27.1849 C   0  0  0  0  0  0  0  0  0  0  0  0
    6.8496  -11.6623   26.9870 C   0  0  0  0  0  0  0  0  0  0  0  0
    7.4840  -11.3918   25.7981 C   0  0  0  0  0  0  0  0  0  0  0  0
    7.6178  -12.3715   24.8432 C   0  0  0  0  0  0  0  0  0  0  0  0
    9.0018  -15.8072   25.3529 C   0  0  0  0  0  0  0  0  0  0  0  0
    8.5773  -17.0036   25.6130 O   0  0  0  0  0  0  0  0  0  0  0  0
    9.6966  -15.1623   26.3836 N   0  0  0  0  0  0  0  0  0  0  0  0
    9.9405  -13.7629   26.5426 C   0  0  0  0  0  0  0  0  0  0  0  0
   11.1522  -13.7190   27.4895 C   0  0  0  0  0  0  0  0  0  0  0  0
   10.7933  -14.8110   28.4656 C   0  0  0  0  0  0  0  0  0  0  0  0
   10.2899  -15.8840   27.5226 C   0  0  1  0  0  0  0  0  0  0  0  0
    9.2976  -16.7077   28.2207 C   0  0  0  0  0  0  0  0  0  0  0  0
    8.1062  -16.7248   27.8651 O   0  0  0  0  0  0  0  0  0  0  0  0
    9.6994  -17.4788   29.2947 O   0  0  0  0  0  0  0  0  0  0  0  0
  2  1  1  6
  2  3  1  0
  4  5  1  0
  4  3  1  0
  6  5  1  0
  7  6  1  0
  8  9  2  0
  8  2  1  0
 10  8  1  0
 11 10  1  0
 12 13  1  0
 11 12  1  1
 13 14  2  0
 14 15  1  0
 16 15  2  0
 17 16  1  0
 18 13  1  0
 18 17  2  0
 19 20  2  0
 19 11  1  0
 21 19  1  0
 22 21  1  0
 23 24  1  0
 23 22  1  0
 24 25  1  0
 25 21  1  0
 25 26  1  1
 27 26  2  0
 28 26  1  0
M  END
$$$$
