KFP.pdb
     RDKit          3D

 28 29  0  0  1  0  0  0  0  0999 V2000
    3.9403  -19.9880   22.9647 N   0  0  0  0  0  0  0  0  0  0  0  0
    5.3836  -19.8577   23.1624 C   0  0  1  0  0  0  0  0  0  0  0  0
    6.0196  -20.3445   21.8819 C   0  0  0  0  0  0  0  0  0  0  0  0
    6.0639  -21.8364   21.7551 C   0  0  0  0  0  0  0  0  0  0  0  0
    7.1057  -22.3362   22.7533 C   0  0  0  0  0  0  0  0  0  0  0  0
    7.2630  -23.8342   22.6247 C   0  0  0  0  0  0  0  0  0  0  0  0
    8.2225  -24.2848   23.5975 N   0  0  0  0  0  0  0  0  0  0  0  0
    5.6696  -18.4333   23.4181 C   0  0  0  0  0  0  0  0  0  0  0  0
    5.4620  -17.5533   22.5216 O   0  0  0  0  0  0  0  0  0  0  0  0
    6.1916  -17.9411   24.6690 N   0  0  0  0  0  0  0  0  0  0  0  0
    6.6483  -16.5994   24.8243 C   0  0  1  0  0  0  0  0  0  0  0  0
    6.7590  -16.1848   26.2802 C   0  0  0  0  0  0  0  0  0  0  0  0
    6.9319  -14.7263   26.4384 C   0  0  0  0  0  0  0  0  0  0  0  0
    8.1614  -14.1217   26.5703 C   0  0  0  0  0  0  0  0  0  0  0  0
    8.2894  -12.7480   26.7173 C   0  0  0  0  0  0  0  0  0  0  0  0
    7.1761  -11.9371   26.7359 C   0  0  0  0  0  0  0  0  0  0  0  0
    5.9427  -12.5293   26.6050 C   0  0  0  0  0  0  0  0  0  0  0  0
    5.8381  -13.8923   26.4604 C   0  0  0  0  0  0  0  0  0  0  0  0
    7.8243  -16.1992   24.0444 C   0  0  0  0  0  0  0  0  0  0  0  0
    8.8686  -16.9425   24.2350 O   0  0  0  0  0  0  0  0  0  0  0  0
    7.9774  -15.1421   23.1388 N   0  0  0  0  0  0  0  0  0  0  0  0
    7.0815  -14.0565   22.8899 C   0  0  0  0  0  0  0  0  0  0  0  0
    7.4950  -13.5686   21.4908 C   0  0  0  0  0  0  0  0  0  0  0  0
    8.9974  -13.6511   21.5904 C   0  0  0  0  0  0  0  0  0  0  0  0
    9.1656  -14.9882   22.2817 C   0  0  1  0  0  0  0  0  0  0  0  0
   10.4038  -14.9687   23.0671 C   0  0  0  0  0  0  0  0  0  0  0  0
   11.5160  -14.8787   22.5184 O   0  0  0  0  0  0  0  0  0  0  0  0
   10.3280  -15.0524   24.4443 O   0  0  0  0  0  0  0  0  0  0  0  0
  2  1  1  6
  2  3  1  0
  4  5  1  0
  4  3  1  0
  6  5  1  0
  7  6  1  0
  8  9  2  0
  8  2  1  0
 10  8  1  0
 11 10  1  0
 12 13  1  0
 11 12  1  1
 13 14  2  0
 14 15  1  0
 16 15  2  0
 17 16  1  0
 18 13  1  0
 18 17  2  0
 19 20  2  0
 19 11  1  0
 21 19  1  0
 22 21  1  0
 23 24  1  0
 23 22  1  0
 24 25  1  0
 25 21  1  0
 25 26  1  1
 27 26  2  0
 28 26  1  0
M  END
$$$$
