KFP.pdb
     RDKit          3D

 28 29  0  0  1  0  0  0  0  0999 V2000
    4.0706  -19.9472   22.6946 N   0  0  0  0  0  0  0  0  0  0  0  0
    5.5096  -19.7043   22.7935 C   0  0  1  0  0  0  0  0  0  0  0  0
    6.0776  -20.0408   21.4351 C   0  0  0  0  0  0  0  0  0  0  0  0
    7.5713  -19.9538   21.3632 C   0  0  0  0  0  0  0  0  0  0  0  0
    7.9697  -20.3270   19.9372 C   0  0  0  0  0  0  0  0  0  0  0  0
    9.4539  -20.1125   19.7458 C   0  0  0  0  0  0  0  0  0  0  0  0
    9.7838  -20.3582   18.3671 N   0  0  0  0  0  0  0  0  0  0  0  0
    5.6968  -18.2820   23.1370 C   0  0  0  0  0  0  0  0  0  0  0  0
    5.0718  -17.3690   22.5068 O   0  0  0  0  0  0  0  0  0  0  0  0
    6.5778  -17.8282   24.1848 N   0  0  0  0  0  0  0  0  0  0  0  0
    6.8887  -16.4491   24.3693 C   0  0  1  0  0  0  0  0  0  0  0  0
    7.0403  -16.0751   25.8325 C   0  0  0  0  0  0  0  0  0  0  0  0
    6.9984  -14.6142   26.0472 C   0  0  0  0  0  0  0  0  0  0  0  0
    5.8265  -13.8985   26.1429 C   0  0  0  0  0  0  0  0  0  0  0  0
    5.8218  -12.5258   26.3448 C   0  0  0  0  0  0  0  0  0  0  0  0
    7.0045  -11.8286   26.4572 C   0  0  0  0  0  0  0  0  0  0  0  0
    8.1813  -12.5324   26.3633 C   0  0  0  0  0  0  0  0  0  0  0  0
    8.1637  -13.8922   26.1630 C   0  0  0  0  0  0  0  0  0  0  0  0
    7.9626  -15.8895   23.5415 C   0  0  0  0  0  0  0  0  0  0  0  0
    9.0759  -16.5506   23.5942 O   0  0  0  0  0  0  0  0  0  0  0  0
    7.9564  -14.7577   22.7170 N   0  0  0  0  0  0  0  0  0  0  0  0
    6.9958  -13.7000   22.6772 C   0  0  0  0  0  0  0  0  0  0  0  0
    7.2044  -13.0832   21.2834 C   0  0  0  0  0  0  0  0  0  0  0  0
    8.7090  -13.1012   21.1837 C   0  0  0  0  0  0  0  0  0  0  0  0
    9.0158  -14.4794   21.7318 C   0  0  1  0  0  0  0  0  0  0  0  0
   10.3445  -14.4630   22.3522 C   0  0  0  0  0  0  0  0  0  0  0  0
   10.4869  -14.6078   23.5790 O   0  0  0  0  0  0  0  0  0  0  0  0
   11.4575  -14.2828   21.5534 O   0  0  0  0  0  0  0  0  0  0  0  0
  2  1  1  6
  2  3  1  0
  4  5  1  0
  4  3  1  0
  6  5  1  0
  7  6  1  0
  8  9  2  0
  8  2  1  0
 10  8  1  0
 11 10  1  0
 12 13  1  0
 11 12  1  1
 13 14  2  0
 14 15  1  0
 16 15  2  0
 17 16  1  0
 18 13  1  0
 18 17  2  0
 19 20  2  0
 19 11  1  0
 21 19  1  0
 22 21  1  0
 23 24  1  0
 23 22  1  0
 24 25  1  0
 25 21  1  0
 25 26  1  1
 27 26  2  0
 28 26  1  0
M  END
$$$$
