KFP.pdb
     RDKit          3D

 28 29  0  0  1  0  0  0  0  0999 V2000
    9.1394  -16.9013   20.4777 N   0  0  0  0  0  0  0  0  0  0  0  0
   10.2816  -16.0372   20.7747 C   0  0  1  0  0  0  0  0  0  0  0  0
   10.2784  -14.9698   19.7060 C   0  0  0  0  0  0  0  0  0  0  0  0
    9.4900  -15.3347   18.4859 C   0  0  0  0  0  0  0  0  0  0  0  0
    9.2412  -14.0408   17.7144 C   0  0  0  0  0  0  0  0  0  0  0  0
    8.3826  -14.3223   16.5024 C   0  0  0  0  0  0  0  0  0  0  0  0
    7.9691  -13.0705   15.9263 N   0  0  0  0  0  0  0  0  0  0  0  0
   10.0736  -15.4746   22.1223 C   0  0  0  0  0  0  0  0  0  0  0  0
   10.8941  -14.6340   22.6140 O   0  0  0  0  0  0  0  0  0  0  0  0
    8.9555  -15.8232   22.9637 N   0  0  0  0  0  0  0  0  0  0  0  0
    8.7006  -15.1589   24.1993 C   0  0  1  0  0  0  0  0  0  0  0  0
    7.2380  -14.7930   24.3749 C   0  0  0  0  0  0  0  0  0  0  0  0
    7.0371  -13.7593   25.4108 C   0  0  0  0  0  0  0  0  0  0  0  0
    6.4332  -14.0114   26.6218 C   0  0  0  0  0  0  0  0  0  0  0  0
    6.2595  -13.0173   27.5740 C   0  0  0  0  0  0  0  0  0  0  0  0
    6.6916  -11.7316   27.3336 C   0  0  0  0  0  0  0  0  0  0  0  0
    7.2962  -11.4676   26.1278 C   0  0  0  0  0  0  0  0  0  0  0  0
    7.4584  -12.4671   25.1982 C   0  0  0  0  0  0  0  0  0  0  0  0
    9.2698  -15.7591   25.4106 C   0  0  0  0  0  0  0  0  0  0  0  0
    9.1775  -17.0508   25.4595 O   0  0  0  0  0  0  0  0  0  0  0  0
    9.8868  -15.1435   26.5066 N   0  0  0  0  0  0  0  0  0  0  0  0
    9.9296  -13.7515   26.8282 C   0  0  0  0  0  0  0  0  0  0  0  0
   11.1429  -13.6411   27.7675 C   0  0  0  0  0  0  0  0  0  0  0  0
   10.9673  -14.8795   28.6099 C   0  0  0  0  0  0  0  0  0  0  0  0
   10.6032  -15.8980   27.5496 C   0  0  1  0  0  0  0  0  0  0  0  0
    9.7560  -16.9330   28.1508 C   0  0  0  0  0  0  0  0  0  0  0  0
    8.5536  -17.0384   27.8516 O   0  0  0  0  0  0  0  0  0  0  0  0
   10.3094  -17.8064   29.0675 O   0  0  0  0  0  0  0  0  0  0  0  0
  2  1  1  6
  2  3  1  0
  4  5  1  0
  4  3  1  0
  6  5  1  0
  7  6  1  0
  8  9  2  0
  8  2  1  0
 10  8  1  0
 11 10  1  0
 12 13  1  0
 11 12  1  1
 13 14  2  0
 14 15  1  0
 16 15  2  0
 17 16  1  0
 18 13  1  0
 18 17  2  0
 19 20  2  0
 19 11  1  0
 21 19  1  0
 22 21  1  0
 23 24  1  0
 23 22  1  0
 24 25  1  0
 25 21  1  0
 25 26  1  1
 27 26  2  0
 28 26  1  0
M  END
$$$$
