KFP.pdb
     RDKit          3D

 28 29  0  0  1  0  0  0  0  0999 V2000
   11.5725  -16.1647   20.2761 N   0  0  0  0  0  0  0  0  0  0  0  0
   10.9923  -17.0320   21.3011 C   0  0  1  0  0  0  0  0  0  0  0  0
   12.0820  -18.0070   21.6796 C   0  0  0  0  0  0  0  0  0  0  0  0
   11.7160  -18.9169   22.8118 C   0  0  0  0  0  0  0  0  0  0  0  0
   11.9424  -20.3459   22.3240 C   0  0  0  0  0  0  0  0  0  0  0  0
   11.5993  -21.3246   23.4240 C   0  0  0  0  0  0  0  0  0  0  0  0
   11.9267  -22.6536   22.9809 N   0  0  0  0  0  0  0  0  0  0  0  0
   10.5954  -16.1752   22.4344 C   0  0  0  0  0  0  0  0  0  0  0  0
   11.4009  -15.3160   22.9184 O   0  0  0  0  0  0  0  0  0  0  0  0
    9.2998  -16.2425   23.0641 N   0  0  0  0  0  0  0  0  0  0  0  0
    8.9201  -15.3552   24.1135 C   0  0  1  0  0  0  0  0  0  0  0  0
    7.4871  -14.8728   23.9809 C   0  0  0  0  0  0  0  0  0  0  0  0
    7.1532  -13.8233   24.9653 C   0  0  0  0  0  0  0  0  0  0  0  0
    7.5605  -12.5143   24.8407 C   0  0  0  0  0  0  0  0  0  0  0  0
    7.2296  -11.5520   25.7840 C   0  0  0  0  0  0  0  0  0  0  0  0
    6.4741  -11.8813   26.8876 C   0  0  0  0  0  0  0  0  0  0  0  0
    6.0615  -13.1854   27.0230 C   0  0  0  0  0  0  0  0  0  0  0  0
    6.4003  -14.1232   26.0769 C   0  0  0  0  0  0  0  0  0  0  0  0
    9.2406  -15.7658   25.4848 C   0  0  0  0  0  0  0  0  0  0  0  0
    9.0636  -17.0282   25.7184 O   0  0  0  0  0  0  0  0  0  0  0  0
    9.7010  -14.9985   26.5618 N   0  0  0  0  0  0  0  0  0  0  0  0
    9.6966  -13.5755   26.6973 C   0  0  0  0  0  0  0  0  0  0  0  0
   10.7701  -13.3176   27.7687 C   0  0  0  0  0  0  0  0  0  0  0  0
   10.4834  -14.4371   28.7376 C   0  0  0  0  0  0  0  0  0  0  0  0
   10.2696  -15.5938   27.7835 C   0  0  1  0  0  0  0  0  0  0  0  0
    9.3503  -16.5572   28.3976 C   0  0  0  0  0  0  0  0  0  0  0  0
    8.2070  -16.7394   27.9438 O   0  0  0  0  0  0  0  0  0  0  0  0
    9.7673  -17.2746   29.5025 O   0  0  0  0  0  0  0  0  0  0  0  0
  2  1  1  6
  2  3  1  0
  4  5  1  0
  4  3  1  0
  6  5  1  0
  7  6  1  0
  8  9  2  0
  8  2  1  0
 10  8  1  0
 11 10  1  0
 12 13  1  0
 11 12  1  1
 13 14  2  0
 14 15  1  0
 16 15  2  0
 17 16  1  0
 18 13  1  0
 18 17  2  0
 19 20  2  0
 19 11  1  0
 21 19  1  0
 22 21  1  0
 23 24  1  0
 23 22  1  0
 24 25  1  0
 25 21  1  0
 25 26  1  1
 27 26  2  0
 28 26  1  0
M  END
$$$$
