KFP.pdb
     RDKit          3D

 28 29  0  0  1  0  0  0  0  0999 V2000
    3.9842  -20.0240   22.8870 N   0  0  0  0  0  0  0  0  0  0  0  0
    5.1505  -19.3608   22.3047 C   0  0  1  0  0  0  0  0  0  0  0  0
    4.8670  -19.2550   20.8249 C   0  0  0  0  0  0  0  0  0  0  0  0
    5.8408  -20.0011   19.9654 C   0  0  0  0  0  0  0  0  0  0  0  0
    7.1919  -19.3067   20.1193 C   0  0  0  0  0  0  0  0  0  0  0  0
    8.2012  -19.9337   19.1847 C   0  0  0  0  0  0  0  0  0  0  0  0
    9.4383  -19.2057   19.2823 N   0  0  0  0  0  0  0  0  0  0  0  0
    5.2726  -18.0366   22.9429 C   0  0  0  0  0  0  0  0  0  0  0  0
    4.5842  -17.0469   22.5330 O   0  0  0  0  0  0  0  0  0  0  0  0
    6.1563  -17.7681   24.0504 N   0  0  0  0  0  0  0  0  0  0  0  0
    6.6557  -16.4605   24.3219 C   0  0  1  0  0  0  0  0  0  0  0  0
    6.8777  -16.2159   25.8034 C   0  0  0  0  0  0  0  0  0  0  0  0
    7.0227  -14.7807   26.1212 C   0  0  0  0  0  0  0  0  0  0  0  0
    8.2392  -14.1752   26.3410 C   0  0  0  0  0  0  0  0  0  0  0  0
    8.3410  -12.8237   26.6377 C   0  0  0  0  0  0  0  0  0  0  0  0
    7.2137  -12.0366   26.7226 C   0  0  0  0  0  0  0  0  0  0  0  0
    5.9932  -12.6300   26.5051 C   0  0  0  0  0  0  0  0  0  0  0  0
    5.9145  -13.9707   26.2124 C   0  0  0  0  0  0  0  0  0  0  0  0
    7.7841  -15.9939   23.5092 C   0  0  0  0  0  0  0  0  0  0  0  0
    8.8335  -16.7520   23.5689 O   0  0  0  0  0  0  0  0  0  0  0  0
    7.8879  -14.8611   22.6926 N   0  0  0  0  0  0  0  0  0  0  0  0
    6.9869  -13.7555   22.5985 C   0  0  0  0  0  0  0  0  0  0  0  0
    7.3145  -13.1465   21.2243 C   0  0  0  0  0  0  0  0  0  0  0  0
    8.8195  -13.2413   21.2197 C   0  0  0  0  0  0  0  0  0  0  0  0
    9.0204  -14.6349   21.7780 C   0  0  1  0  0  0  0  0  0  0  0  0
   10.3061  -14.6882   22.4811 C   0  0  0  0  0  0  0  0  0  0  0  0
   11.3837  -14.6250   21.8637 O   0  0  0  0  0  0  0  0  0  0  0  0
   10.3155  -14.8112   23.8575 O   0  0  0  0  0  0  0  0  0  0  0  0
  2  1  1  1
  2  3  1  0
  4  5  1  0
  4  3  1  0
  6  5  1  0
  7  6  1  0
  8  9  2  0
  8  2  1  0
 10  8  1  0
 11 10  1  0
 12 13  1  0
 11 12  1  1
 13 14  2  0
 14 15  1  0
 16 15  2  0
 17 16  1  0
 18 13  1  0
 18 17  2  0
 19 20  2  0
 19 11  1  0
 21 19  1  0
 22 21  1  0
 23 24  1  0
 23 22  1  0
 24 25  1  0
 25 21  1  0
 25 26  1  1
 27 26  2  0
 28 26  1  0
M  END
$$$$
