KFP.pdb
     RDKit          3D

 28 29  0  0  1  0  0  0  0  0999 V2000
    4.6830  -18.6340   20.9933 N   0  0  0  0  0  0  0  0  0  0  0  0
    5.3791  -18.9662   22.2361 C   0  0  1  0  0  0  0  0  0  0  0  0
    6.4061  -20.0099   21.8657 C   0  0  0  0  0  0  0  0  0  0  0  0
    5.8205  -21.3503   21.5434 C   0  0  0  0  0  0  0  0  0  0  0  0
    6.9863  -22.2713   21.1914 C   0  0  0  0  0  0  0  0  0  0  0  0
    6.4702  -23.6582   20.8824 C   0  0  0  0  0  0  0  0  0  0  0  0
    7.5884  -24.5140   20.5872 N   0  0  0  0  0  0  0  0  0  0  0  0
    6.0023  -17.7279   22.7401 C   0  0  0  0  0  0  0  0  0  0  0  0
    6.4506  -16.8474   21.9369 O   0  0  0  0  0  0  0  0  0  0  0  0
    6.1477  -17.4270   24.1430 N   0  0  0  0  0  0  0  0  0  0  0  0
    6.8150  -16.2534   24.6013 C   0  0  1  0  0  0  0  0  0  0  0  0
    6.2413  -15.7260   25.9038 C   0  0  0  0  0  0  0  0  0  0  0  0
    6.7829  -14.3990   26.2609 C   0  0  0  0  0  0  0  0  0  0  0  0
    7.9873  -14.2233   26.9039 C   0  0  0  0  0  0  0  0  0  0  0  0
    8.4680  -12.9620   27.2253 C   0  0  0  0  0  0  0  0  0  0  0  0
    7.7458  -11.8332   26.9069 C   0  0  0  0  0  0  0  0  0  0  0  0
    6.5416  -11.9959   26.2646 C   0  0  0  0  0  0  0  0  0  0  0  0
    6.0835  -13.2545   25.9553 C   0  0  0  0  0  0  0  0  0  0  0  0
    8.2816  -16.2802   24.6138 C   0  0  0  0  0  0  0  0  0  0  0  0
    8.7928  -17.0584   25.5153 O   0  0  0  0  0  0  0  0  0  0  0  0
    9.1939  -15.5926   23.8042 N   0  0  0  0  0  0  0  0  0  0  0  0
    8.9383  -14.5023   22.9159 C   0  0  0  0  0  0  0  0  0  0  0  0
   10.1355  -14.5427   21.9505 C   0  0  0  0  0  0  0  0  0  0  0  0
   11.2643  -14.8397   22.9053 C   0  0  0  0  0  0  0  0  0  0  0  0
   10.6324  -15.9089   23.7722 C   0  0  1  0  0  0  0  0  0  0  0  0
   11.2306  -15.8561   25.1100 C   0  0  0  0  0  0  0  0  0  0  0  0
   10.5627  -15.5213   26.1040 O   0  0  0  0  0  0  0  0  0  0  0  0
   12.5636  -16.1859   25.2641 O   0  0  0  0  0  0  0  0  0  0  0  0
  2  1  1  6
  2  3  1  0
  4  5  1  0
  4  3  1  0
  6  5  1  0
  7  6  1  0
  8  9  2  0
  8  2  1  0
 10  8  1  0
 11 10  1  0
 12 13  1  0
 11 12  1  1
 13 14  2  0
 14 15  1  0
 16 15  2  0
 17 16  1  0
 18 13  1  0
 18 17  2  0
 19 20  2  0
 19 11  1  0
 21 19  1  0
 22 21  1  0
 23 24  1  0
 23 22  1  0
 24 25  1  0
 25 21  1  0
 25 26  1  1
 27 26  2  0
 28 26  1  0
M  END
$$$$
