KFP.pdb
     RDKit          3D

 28 29  0  0  1  0  0  0  0  0999 V2000
   10.2549  -16.8058   20.1101 N   0  0  0  0  0  0  0  0  0  0  0  0
    9.8121  -17.5195   21.3076 C   0  0  1  0  0  0  0  0  0  0  0  0
   10.8944  -18.5293   21.6081 C   0  0  0  0  0  0  0  0  0  0  0  0
   10.5032  -19.9446   21.3121 C   0  0  0  0  0  0  0  0  0  0  0  0
   10.7473  -20.1705   19.8219 C   0  0  0  0  0  0  0  0  0  0  0  0
   10.4565  -21.6108   19.4662 C   0  0  0  0  0  0  0  0  0  0  0  0
   10.7885  -21.8227   18.0825 N   0  0  0  0  0  0  0  0  0  0  0  0
    9.6646  -16.5254   22.3874 C   0  0  0  0  0  0  0  0  0  0  0  0
   10.5960  -15.6962   22.6448 O   0  0  0  0  0  0  0  0  0  0  0  0
    8.4863  -16.4187   23.2119 N   0  0  0  0  0  0  0  0  0  0  0  0
    8.3827  -15.4641   24.2658 C   0  0  1  0  0  0  0  0  0  0  0  0
    6.9789  -14.9055   24.4121 C   0  0  0  0  0  0  0  0  0  0  0  0
    6.9190  -13.7756   25.3616 C   0  0  0  0  0  0  0  0  0  0  0  0
    7.4928  -12.5493   25.1130 C   0  0  0  0  0  0  0  0  0  0  0  0
    7.4184  -11.5077   26.0266 C   0  0  0  0  0  0  0  0  0  0  0  0
    6.7598  -11.6710   27.2254 C   0  0  0  0  0  0  0  0  0  0  0  0
    6.1827  -12.8911   27.4850 C   0  0  0  0  0  0  0  0  0  0  0  0
    6.2681  -13.9099   26.5661 C   0  0  0  0  0  0  0  0  0  0  0  0
    8.9697  -15.8300   25.5593 C   0  0  0  0  0  0  0  0  0  0  0  0
    8.7833  -17.0668   25.8985 O   0  0  0  0  0  0  0  0  0  0  0  0
    9.6897  -15.0438   26.4672 N   0  0  0  0  0  0  0  0  0  0  0  0
    9.9180  -13.6334   26.4259 C   0  0  0  0  0  0  0  0  0  0  0  0
   11.1607  -13.4487   27.3139 C   0  0  0  0  0  0  0  0  0  0  0  0
   10.8518  -14.4012   28.4415 C   0  0  0  0  0  0  0  0  0  0  0  0
   10.3323  -15.5976   27.6716 C   0  0  1  0  0  0  0  0  0  0  0  0
    9.3769  -16.3286   28.5102 C   0  0  0  0  0  0  0  0  0  0  0  0
    8.1694  -16.3822   28.2183 O   0  0  0  0  0  0  0  0  0  0  0  0
    9.8323  -16.9691   29.6468 O   0  0  0  0  0  0  0  0  0  0  0  0
  2  1  1  6
  2  3  1  0
  4  5  1  0
  4  3  1  0
  6  5  1  0
  7  6  1  0
  8  9  2  0
  8  2  1  0
 10  8  1  0
 11 10  1  0
 12 13  1  0
 11 12  1  1
 13 14  2  0
 14 15  1  0
 16 15  2  0
 17 16  1  0
 18 13  1  0
 18 17  2  0
 19 20  2  0
 19 11  1  0
 21 19  1  0
 22 21  1  0
 23 24  1  0
 23 22  1  0
 24 25  1  0
 25 21  1  0
 25 26  1  1
 27 26  2  0
 28 26  1  0
M  END
$$$$
