KFP.pdb
     RDKit          3D

 28 29  0  0  1  0  0  0  0  0999 V2000
   11.8987  -16.5314   20.7085 N   0  0  0  0  0  0  0  0  0  0  0  0
   10.9087  -17.2095   21.5449 C   0  0  1  0  0  0  0  0  0  0  0  0
   11.6164  -18.4092   22.1289 C   0  0  0  0  0  0  0  0  0  0  0  0
   11.6966  -19.5795   21.1975 C   0  0  0  0  0  0  0  0  0  0  0  0
   10.7242  -20.6329   21.7232 C   0  0  0  0  0  0  0  0  0  0  0  0
   10.6757  -21.8073   20.7724 C   0  0  0  0  0  0  0  0  0  0  0  0
    9.8228  -22.8218   21.3320 N   0  0  0  0  0  0  0  0  0  0  0  0
   10.4799  -16.2564   22.5859 C   0  0  0  0  0  0  0  0  0  0  0  0
   11.3217  -15.4933   23.1608 O   0  0  0  0  0  0  0  0  0  0  0  0
    9.1118  -16.1188   23.0205 N   0  0  0  0  0  0  0  0  0  0  0  0
    8.7394  -15.2503   24.0882 C   0  0  1  0  0  0  0  0  0  0  0  0
    7.3455  -14.6753   23.9144 C   0  0  0  0  0  0  0  0  0  0  0  0
    7.0056  -13.6959   24.9666 C   0  0  0  0  0  0  0  0  0  0  0  0
    6.3146  -14.0260   26.1104 C   0  0  0  0  0  0  0  0  0  0  0  0
    6.0109  -13.0814   27.0803 C   0  0  0  0  0  0  0  0  0  0  0  0
    6.3964  -11.7680   26.9263 C   0  0  0  0  0  0  0  0  0  0  0  0
    7.0870  -11.4262   25.7881 C   0  0  0  0  0  0  0  0  0  0  0  0
    7.3777  -12.3776   24.8396 C   0  0  0  0  0  0  0  0  0  0  0  0
    8.9725  -15.7321   25.4539 C   0  0  0  0  0  0  0  0  0  0  0  0
    8.6322  -16.9673   25.6488 O   0  0  0  0  0  0  0  0  0  0  0  0
    9.4998  -15.0561   26.5611 N   0  0  0  0  0  0  0  0  0  0  0  0
    9.5507  -13.6465   26.7923 C   0  0  0  0  0  0  0  0  0  0  0  0
   10.6721  -13.4980   27.8350 C   0  0  0  0  0  0  0  0  0  0  0  0
   10.3829  -14.6716   28.7367 C   0  0  0  0  0  0  0  0  0  0  0  0
   10.0926  -15.7524   27.7160 C   0  0  1  0  0  0  0  0  0  0  0  0
    9.1637  -16.7253   28.2999 C   0  0  0  0  0  0  0  0  0  0  0  0
    8.0165  -16.8773   27.8449 O   0  0  0  0  0  0  0  0  0  0  0  0
    9.5760  -17.4861   29.3772 O   0  0  0  0  0  0  0  0  0  0  0  0
  2  1  1  6
  2  3  1  0
  4  5  1  0
  4  3  1  0
  6  5  1  0
  7  6  1  0
  8  9  2  0
  8  2  1  0
 10  8  1  0
 11 10  1  0
 12 13  1  0
 11 12  1  1
 13 14  2  0
 14 15  1  0
 16 15  2  0
 17 16  1  0
 18 13  1  0
 18 17  2  0
 19 20  2  0
 19 11  1  0
 21 19  1  0
 22 21  1  0
 23 24  1  0
 23 22  1  0
 24 25  1  0
 25 21  1  0
 25 26  1  1
 27 26  2  0
 28 26  1  0
M  END
$$$$
