KFP.pdb
     RDKit          3D

 28 29  0  0  1  0  0  0  0  0999 V2000
    9.5720  -16.9913   19.9906 N   0  0  0  0  0  0  0  0  0  0  0  0
   10.5731  -17.1896   21.0383 C   0  0  1  0  0  0  0  0  0  0  0  0
   11.9042  -16.8673   20.4013 C   0  0  0  0  0  0  0  0  0  0  0  0
   12.5124  -18.0136   19.6530 C   0  0  0  0  0  0  0  0  0  0  0  0
   13.8210  -18.3605   20.3592 C   0  0  0  0  0  0  0  0  0  0  0  0
   14.8989  -18.6378   19.3361 C   0  0  0  0  0  0  0  0  0  0  0  0
   16.1343  -18.9022   20.0244 N   0  0  0  0  0  0  0  0  0  0  0  0
   10.2482  -16.2674   22.1428 C   0  0  0  0  0  0  0  0  0  0  0  0
   10.9176  -15.1991   22.3214 O   0  0  0  0  0  0  0  0  0  0  0  0
    9.1764  -16.4981   23.0796 N   0  0  0  0  0  0  0  0  0  0  0  0
    8.8710  -15.5768   24.1239 C   0  0  1  0  0  0  0  0  0  0  0  0
    7.4620  -15.0221   24.0201 C   0  0  0  0  0  0  0  0  0  0  0  0
    7.2057  -13.9493   25.0027 C   0  0  0  0  0  0  0  0  0  0  0  0
    7.6577  -12.6585   24.8463 C   0  0  0  0  0  0  0  0  0  0  0  0
    7.3996  -11.6735   25.7888 C   0  0  0  0  0  0  0  0  0  0  0  0
    6.6740  -11.9607   26.9238 C   0  0  0  0  0  0  0  0  0  0  0  0
    6.2173  -13.2462   27.0911 C   0  0  0  0  0  0  0  0  0  0  0  0
    6.4842  -14.2072   26.1452 C   0  0  0  0  0  0  0  0  0  0  0  0
    9.2057  -15.9833   25.4930 C   0  0  0  0  0  0  0  0  0  0  0  0
    8.9898  -17.2361   25.7449 O   0  0  0  0  0  0  0  0  0  0  0  0
    9.7149  -15.2208   26.5513 N   0  0  0  0  0  0  0  0  0  0  0  0
    9.7160  -13.7985   26.6937 C   0  0  0  0  0  0  0  0  0  0  0  0
   10.8377  -13.5449   27.7155 C   0  0  0  0  0  0  0  0  0  0  0  0
   10.5969  -14.6693   28.6912 C   0  0  0  0  0  0  0  0  0  0  0  0
   10.3398  -15.8216   27.7424 C   0  0  1  0  0  0  0  0  0  0  0  0
    9.4505  -16.7887   28.3937 C   0  0  0  0  0  0  0  0  0  0  0  0
    8.2907  -16.9767   27.9864 O   0  0  0  0  0  0  0  0  0  0  0  0
    9.9150  -17.5031   29.4815 O   0  0  0  0  0  0  0  0  0  0  0  0
  2  1  1  6
  2  3  1  0
  4  5  1  0
  4  3  1  0
  6  5  1  0
  7  6  1  0
  8  9  2  0
  8  2  1  0
 10  8  1  0
 11 10  1  0
 12 13  1  0
 11 12  1  1
 13 14  2  0
 14 15  1  0
 16 15  2  0
 17 16  1  0
 18 13  1  0
 18 17  2  0
 19 20  2  0
 19 11  1  0
 21 19  1  0
 22 21  1  0
 23 24  1  0
 23 22  1  0
 24 25  1  0
 25 21  1  0
 25 26  1  1
 27 26  2  0
 28 26  1  0
M  END
$$$$
