SHV.pdb
     RDKit          3D

 24 24  0  0  1  0  0  0  0  0999 V2000
   25.4909  -35.8172  -15.3787 O   0  0  0  0  0  0  0  0  0  0  0  0
   26.1209  -35.1503  -14.3124 C   0  0  0  0  0  0  0  0  0  0  0  0
   25.4890  -33.7781  -14.1300 C   0  0  2  0  0  0  0  0  0  0  0  0
   25.8322  -32.9730  -15.2617 N   0  0  0  0  0  0  0  0  0  0  0  0
   25.9243  -33.1861  -12.8359 C   0  0  0  0  0  0  0  0  0  0  0  0
   26.9136  -32.4351  -12.8238 O   0  0  0  0  0  0  0  0  0  0  0  0
   25.2381  -33.4573  -11.6148 N   0  0  0  0  0  0  0  0  0  0  0  0
   25.5884  -32.8685  -10.3464 C   0  0  1  0  0  0  0  0  0  0  0  0
   24.5440  -32.0551   -9.6963 C   0  0  0  0  0  0  0  0  0  0  0  0
   23.3575  -32.7670   -9.2130 C   0  0  0  0  0  0  0  0  0  0  0  0
   23.1018  -34.1112   -9.2951 C   0  0  0  0  0  0  0  0  0  0  0  0
   21.8944  -34.3508   -8.7539 N   0  0  0  0  0  0  0  0  0  0  0  0
   21.3819  -33.1983   -8.3339 C   0  0  0  0  0  0  0  0  0  0  0  0
   22.2635  -32.2316   -8.6088 N   0  0  0  0  0  0  0  0  0  0  0  0
   26.1907  -33.8819   -9.4263 C   0  0  0  0  0  0  0  0  0  0  0  0
   26.0215  -35.1103   -9.6083 O   0  0  0  0  0  0  0  0  0  0  0  0
   29.1891  -34.8060   -5.5192 C   0  0  0  0  0  0  0  0  0  0  0  0
   28.4137  -33.7846   -6.3259 C   0  0  2  0  0  0  0  0  0  0  0  0
   27.5851  -32.8822   -5.4467 C   0  0  0  0  0  0  0  0  0  0  0  0
   27.5720  -34.4677   -7.3909 C   0  0  2  0  0  0  0  0  0  0  0  0
   26.9808  -33.5104   -8.3056 N   0  0  0  0  0  0  0  0  0  0  0  0
   26.4463  -35.1461   -6.6933 C   0  0  0  0  0  0  0  0  0  0  0  0
   26.6449  -36.4862   -6.3571 O   0  0  0  0  0  0  0  0  0  0  0  0
   25.3738  -34.5883   -6.4074 O   0  0  0  0  0  0  0  0  0  0  0  0
  2  3  1  0
  2  1  1  0
  3  4  1  6
  5  6  2  0
  5  3  1  0
  7  5  1  0
  8  7  1  0
  8 15  1  0
  8  9  1  1
 10  9  1  0
 11 10  2  0
 12 13  1  0
 12 11  1  0
 13 14  2  0
 14 10  1  0
 15 21  1  0
 16 15  2  0
 18 17  1  1
 18 20  1  0
 19 18  1  0
 20 22  1  0
 20 21  1  6
 22 24  2  0
 22 23  1  0
M  END
$$$$
