SHV.pdb
     RDKit          3D

 24 24  0  0  1  0  0  0  0  0999 V2000
   22.2557  -12.5573  -17.6050 O   0  0  0  0  0  0  0  0  0  0  0  0
   21.7593  -11.2850  -17.2679 C   0  0  0  0  0  0  0  0  0  0  0  0
   20.3603  -11.4258  -16.6860 C   0  0  2  0  0  0  0  0  0  0  0  0
   19.4677  -11.7803  -17.7463 N   0  0  0  0  0  0  0  0  0  0  0  0
   19.9716  -10.1705  -15.9876 C   0  0  0  0  0  0  0  0  0  0  0  0
   19.6456   -9.1835  -16.6676 O   0  0  0  0  0  0  0  0  0  0  0  0
   19.9637  -10.0717  -14.5644 N   0  0  0  0  0  0  0  0  0  0  0  0
   19.5860   -8.8828  -13.8418 C   0  0  1  0  0  0  0  0  0  0  0  0
   18.9561   -9.0945  -12.5252 C   0  0  0  0  0  0  0  0  0  0  0  0
   18.6907   -7.8990  -11.7199 C   0  0  0  0  0  0  0  0  0  0  0  0
   19.4384   -7.4132  -10.6789 C   0  0  0  0  0  0  0  0  0  0  0  0
   18.8367   -6.3110  -10.1977 N   0  0  0  0  0  0  0  0  0  0  0  0
   17.7326   -6.0884  -10.9039 C   0  0  0  0  0  0  0  0  0  0  0  0
   17.6362   -7.0477  -11.8300 N   0  0  0  0  0  0  0  0  0  0  0  0
   20.7093   -7.8968  -13.7955 C   0  0  0  0  0  0  0  0  0  0  0  0
   21.8643   -8.2396  -13.4502 O   0  0  0  0  0  0  0  0  0  0  0  0
   22.1048   -6.0727  -16.5801 C   0  0  0  0  0  0  0  0  0  0  0  0
   21.7885   -4.9828  -15.5765 C   0  0  2  0  0  0  0  0  0  0  0  0
   22.8166   -3.8799  -15.5983 C   0  0  0  0  0  0  0  0  0  0  0  0
   21.6140   -5.5679  -14.1848 C   0  0  2  0  0  0  0  0  0  0  0  0
   20.5299   -6.5297  -14.1375 N   0  0  0  0  0  0  0  0  0  0  0  0
   21.2339   -4.4481  -13.2817 C   0  0  0  0  0  0  0  0  0  0  0  0
   22.2852   -3.7574  -12.6769 O   0  0  0  0  0  0  0  0  0  0  0  0
   20.0598   -4.1140  -13.0515 O   0  0  0  0  0  0  0  0  0  0  0  0
  2  3  1  0
  2  1  1  0
  3  4  1  6
  5  6  2  0
  5  3  1  0
  7  5  1  0
  8  7  1  0
  8 15  1  0
  8  9  1  1
 10  9  1  0
 11 10  2  0
 12 13  1  0
 12 11  1  0
 13 14  2  0
 14 10  1  0
 15 21  1  0
 16 15  2  0
 18 17  1  6
 18 20  1  0
 19 18  1  0
 20 22  1  0
 20 21  1  6
 22 24  2  0
 22 23  1  0
M  END
$$$$
