SHV.pdb
     RDKit          3D

 24 24  0  0  1  0  0  0  0  0999 V2000
   10.9647   -7.3966  -12.3397 O   0  0  0  0  0  0  0  0  0  0  0  0
   11.6519   -8.0389  -13.3855 C   0  0  0  0  0  0  0  0  0  0  0  0
   12.8555   -8.7790  -12.8203 C   0  0  2  0  0  0  0  0  0  0  0  0
   12.4019   -9.6316  -11.7648 N   0  0  0  0  0  0  0  0  0  0  0  0
   13.8915   -7.8045  -12.3824 C   0  0  0  0  0  0  0  0  0  0  0  0
   13.9939   -7.5429  -11.1725 O   0  0  0  0  0  0  0  0  0  0  0  0
   14.7659   -7.1663  -13.3116 N   0  0  0  0  0  0  0  0  0  0  0  0
   15.8373   -6.2800  -12.9309 C   0  0  1  0  0  0  0  0  0  0  0  0
   16.7973   -6.8069  -11.9430 C   0  0  0  0  0  0  0  0  0  0  0  0
   16.2712   -7.1166  -10.6106 C   0  0  0  0  0  0  0  0  0  0  0  0
   16.1392   -6.2611   -9.5478 C   0  0  0  0  0  0  0  0  0  0  0  0
   15.6373   -6.9474   -8.5059 N   0  0  0  0  0  0  0  0  0  0  0  0
   15.4498   -8.2091   -8.8804 C   0  0  0  0  0  0  0  0  0  0  0  0
   15.8320   -8.3206  -10.1565 N   0  0  0  0  0  0  0  0  0  0  0  0
   16.5057   -5.6905  -14.1317 C   0  0  0  0  0  0  0  0  0  0  0  0
   16.6803   -6.3609  -15.1760 O   0  0  0  0  0  0  0  0  0  0  0  0
   16.9060   -2.4437  -17.4267 C   0  0  0  0  0  0  0  0  0  0  0  0
   16.3554   -3.2228  -16.2499 C   0  0  2  0  0  0  0  0  0  0  0  0
   15.3171   -2.4373  -15.4891 C   0  0  0  0  0  0  0  0  0  0  0  0
   17.4809   -3.6987  -15.3465 C   0  0  2  0  0  0  0  0  0  0  0  0
   16.9749   -4.3497  -14.1537 N   0  0  0  0  0  0  0  0  0  0  0  0
   18.2222   -2.4904  -14.8942 C   0  0  0  0  0  0  0  0  0  0  0  0
   19.2422   -2.0404  -15.7340 O   0  0  0  0  0  0  0  0  0  0  0  0
   17.9792   -1.8863  -13.8363 O   0  0  0  0  0  0  0  0  0  0  0  0
  2  3  1  0
  2  1  1  0
  3  4  1  1
  5  6  2  0
  5  3  1  0
  7  5  1  0
  8  7  1  0
  8 15  1  0
  8  9  1  6
 10  9  1  0
 11 10  2  0
 12 13  1  0
 12 11  1  0
 13 14  2  0
 14 10  1  0
 15 21  1  0
 16 15  2  0
 18 17  1  6
 18 20  1  0
 19 18  1  0
 20 22  1  0
 20 21  1  1
 22 24  2  0
 22 23  1  0
M  END
$$$$
