SHV.pdb
     RDKit          3D

 24 24  0  0  1  0  0  0  0  0999 V2000
   18.4499  -11.9207  -18.4017 O   0  0  0  0  0  0  0  0  0  0  0  0
   19.1483  -11.0730  -17.5229 C   0  0  0  0  0  0  0  0  0  0  0  0
   20.5277  -11.6544  -17.2489 C   0  0  2  0  0  0  0  0  0  0  0  0
   20.3599  -12.9450  -16.6549 N   0  0  0  0  0  0  0  0  0  0  0  0
   21.3151  -10.7174  -16.4022 C   0  0  0  0  0  0  0  0  0  0  0  0
   21.0369  -10.6234  -15.1954 O   0  0  0  0  0  0  0  0  0  0  0  0
   22.3759   -9.9282  -16.9381 N   0  0  0  0  0  0  0  0  0  0  0  0
   23.1635   -9.0038  -16.1613 C   0  0  1  0  0  0  0  0  0  0  0  0
   24.6249   -9.0808  -16.3445 C   0  0  0  0  0  0  0  0  0  0  0  0
   25.2710  -10.3444  -15.9783 C   0  0  0  0  0  0  0  0  0  0  0  0
   24.7015  -11.4175  -15.3435 C   0  0  0  0  0  0  0  0  0  0  0  0
   25.6422  -12.3635  -15.1751 N   0  0  0  0  0  0  0  0  0  0  0  0
   26.7868  -11.9184  -15.6842 C   0  0  0  0  0  0  0  0  0  0  0  0
   26.5704  -10.6934  -16.1738 N   0  0  0  0  0  0  0  0  0  0  0  0
   22.6368   -7.6093  -16.2807 C   0  0  0  0  0  0  0  0  0  0  0  0
   22.6237   -7.0089  -17.3807 O   0  0  0  0  0  0  0  0  0  0  0  0
   19.3132   -6.3665  -15.8223 C   0  0  0  0  0  0  0  0  0  0  0  0
   20.1251   -5.4940  -14.8870 C   0  0  2  0  0  0  0  0  0  0  0  0
   19.6071   -4.0784  -14.8437 C   0  0  0  0  0  0  0  0  0  0  0  0
   21.6005   -5.5472  -15.2477 C   0  0  2  0  0  0  0  0  0  0  0  0
   22.1268   -6.8956  -15.1632 N   0  0  0  0  0  0  0  0  0  0  0  0
   22.3300   -4.7376  -14.2345 C   0  0  0  0  0  0  0  0  0  0  0  0
   22.7974   -5.4253  -13.1134 O   0  0  0  0  0  0  0  0  0  0  0  0
   22.5334   -3.5168  -14.3415 O   0  0  0  0  0  0  0  0  0  0  0  0
  2  3  1  0
  2  1  1  0
  3  4  1  1
  5  6  2  0
  5  3  1  0
  7  5  1  0
  8  7  1  0
  8 15  1  0
  8  9  1  6
 10  9  1  0
 11 10  2  0
 12 13  1  0
 12 11  1  0
 13 14  2  0
 14 10  1  0
 15 21  1  0
 16 15  2  0
 18 17  1  6
 18 20  1  0
 19 18  1  0
 20 22  1  0
 20 21  1  1
 22 24  2  0
 22 23  1  0
M  END
$$$$
