SHV.pdb
     RDKit          3D

 24 24  0  0  1  0  0  0  0  0999 V2000
   41.1080   -9.3565   -5.1314 O   0  0  0  0  0  0  0  0  0  0  0  0
   42.4764   -9.5963   -5.3520 C   0  0  0  0  0  0  0  0  0  0  0  0
   42.6451  -10.4547   -6.5972 C   0  0  2  0  0  0  0  0  0  0  0  0
   44.0284  -10.7978   -6.7207 N   0  0  0  0  0  0  0  0  0  0  0  0
   42.1110   -9.7361   -7.7860 C   0  0  0  0  0  0  0  0  0  0  0  0
   42.8774   -9.0106   -8.4411 O   0  0  0  0  0  0  0  0  0  0  0  0
   40.7484   -9.8582   -8.1907 N   0  0  0  0  0  0  0  0  0  0  0  0
   40.1810   -9.1734   -9.3253 C   0  0  1  0  0  0  0  0  0  0  0  0
   39.5431  -10.0250  -10.3466 C   0  0  0  0  0  0  0  0  0  0  0  0
   40.4353  -10.8210  -11.1942 C   0  0  0  0  0  0  0  0  0  0  0  0
   41.8052  -10.8558  -11.1596 C   0  0  0  0  0  0  0  0  0  0  0  0
   42.2361  -11.6959  -12.1171 N   0  0  0  0  0  0  0  0  0  0  0  0
   41.1792  -12.1906  -12.7539 C   0  0  0  0  0  0  0  0  0  0  0  0
   40.0820  -11.6647  -12.2001 N   0  0  0  0  0  0  0  0  0  0  0  0
   39.3113   -8.0364   -8.8928 C   0  0  0  0  0  0  0  0  0  0  0  0
   38.4453   -8.1810   -7.9985 O   0  0  0  0  0  0  0  0  0  0  0  0
   40.4991   -4.0691   -9.7544 C   0  0  0  0  0  0  0  0  0  0  0  0
   39.5911   -4.4461   -8.6017 C   0  0  2  0  0  0  0  0  0  0  0  0
   40.3695   -4.7526   -7.3471 C   0  0  0  0  0  0  0  0  0  0  0  0
   38.6728   -5.5918   -8.9936 C   0  0  2  0  0  0  0  0  0  0  0  0
   39.4188   -6.7415   -9.4673 N   0  0  0  0  0  0  0  0  0  0  0  0
   37.8427   -5.1192  -10.1345 C   0  0  0  0  0  0  0  0  0  0  0  0
   36.8019   -4.2436   -9.8210 O   0  0  0  0  0  0  0  0  0  0  0  0
   38.0312   -5.4600  -11.3141 O   0  0  0  0  0  0  0  0  0  0  0  0
  2  3  1  0
  2  1  1  0
  3  4  1  6
  5  6  2  0
  5  3  1  0
  7  5  1  0
  8  7  1  0
  8 15  1  0
  8  9  1  1
 10  9  1  0
 11 10  2  0
 12 13  1  0
 12 11  1  0
 13 14  2  0
 14 10  1  0
 15 21  1  0
 16 15  2  0
 18 17  1  6
 18 20  1  0
 19 18  1  0
 20 22  1  0
 20 21  1  6
 22 24  2  0
 22 23  1  0
M  END
$$$$
