SHV.pdb
     RDKit          3D

 24 24  0  0  1  0  0  0  0  0999 V2000
   12.8453  -12.4790  -11.3050 O   0  0  0  0  0  0  0  0  0  0  0  0
   13.7612  -11.5893  -10.7150 C   0  0  0  0  0  0  0  0  0  0  0  0
   14.8367  -11.2250  -11.7281 C   0  0  2  0  0  0  0  0  0  0  0  0
   15.5927  -12.4033  -12.0221 N   0  0  0  0  0  0  0  0  0  0  0  0
   15.6706  -10.1089  -11.2049 C   0  0  0  0  0  0  0  0  0  0  0  0
   16.6089  -10.3727  -10.4351 O   0  0  0  0  0  0  0  0  0  0  0  0
   15.4214   -8.7505  -11.5629 N   0  0  0  0  0  0  0  0  0  0  0  0
   16.1644   -7.6309  -11.0406 C   0  0  1  0  0  0  0  0  0  0  0  0
   17.2163   -7.0828  -11.9171 C   0  0  0  0  0  0  0  0  0  0  0  0
   18.1971   -8.0344  -12.4468 C   0  0  0  0  0  0  0  0  0  0  0  0
   19.4268   -8.3405  -11.9243 C   0  0  0  0  0  0  0  0  0  0  0  0
   20.0195   -9.2431  -12.7257 N   0  0  0  0  0  0  0  0  0  0  0  0
   19.2005   -9.5143  -13.7371 C   0  0  0  0  0  0  0  0  0  0  0  0
   18.0919   -8.7847  -13.5758 N   0  0  0  0  0  0  0  0  0  0  0  0
   15.2500   -6.5769  -10.5031 C   0  0  0  0  0  0  0  0  0  0  0  0
   14.2890   -6.1405  -11.1788 O   0  0  0  0  0  0  0  0  0  0  0  0
   13.0382   -4.4507   -6.7117 C   0  0  0  0  0  0  0  0  0  0  0  0
   13.9139   -5.5226   -7.3278 C   0  0  2  0  0  0  0  0  0  0  0  0
   14.9696   -6.0097   -6.3675 C   0  0  0  0  0  0  0  0  0  0  0  0
   14.5172   -5.0376   -8.6356 C   0  0  2  0  0  0  0  0  0  0  0  0
   15.4195   -6.0177   -9.2081 N   0  0  0  0  0  0  0  0  0  0  0  0
   15.3338   -3.8336   -8.3231 C   0  0  0  0  0  0  0  0  0  0  0  0
   14.6517   -2.6164   -8.2862 O   0  0  0  0  0  0  0  0  0  0  0  0
   16.5556   -3.8658   -8.1014 O   0  0  0  0  0  0  0  0  0  0  0  0
  2  3  1  0
  2  1  1  0
  3  4  1  1
  5  6  2  0
  5  3  1  0
  7  5  1  0
  8  7  1  0
  8 15  1  0
  8  9  1  6
 10  9  1  0
 11 10  2  0
 12 13  1  0
 12 11  1  0
 13 14  2  0
 14 10  1  0
 15 21  1  0
 16 15  2  0
 18 17  1  1
 18 20  1  0
 19 18  1  0
 20 22  1  0
 20 21  1  1
 22 24  2  0
 22 23  1  0
M  END
$$$$
