SHV.pdb
     RDKit          3D

 24 24  0  0  1  0  0  0  0  0999 V2000
   18.7121  -16.7992  -15.4890 O   0  0  0  0  0  0  0  0  0  0  0  0
   19.0364  -15.5822  -16.1154 C   0  0  0  0  0  0  0  0  0  0  0  0
   17.7898  -15.0005  -16.7661 C   0  0  2  0  0  0  0  0  0  0  0  0
   17.4244  -15.8407  -17.8648 N   0  0  0  0  0  0  0  0  0  0  0  0
   18.0368  -13.5882  -17.1651 C   0  0  0  0  0  0  0  0  0  0  0  0
   17.7274  -13.2275  -18.3126 O   0  0  0  0  0  0  0  0  0  0  0  0
   18.6168  -12.6425  -16.2681 N   0  0  0  0  0  0  0  0  0  0  0  0
   18.7849  -11.2431  -16.5714 C   0  0  1  0  0  0  0  0  0  0  0  0
   17.5952  -10.5427  -17.0901 C   0  0  0  0  0  0  0  0  0  0  0  0
   17.1694  -10.8824  -18.4508 C   0  0  0  0  0  0  0  0  0  0  0  0
   17.8428  -10.6385  -19.6195 C   0  0  0  0  0  0  0  0  0  0  0  0
   17.0970  -11.0871  -20.6446 N   0  0  0  0  0  0  0  0  0  0  0  0
   15.9743  -11.6057  -20.1568 C   0  0  0  0  0  0  0  0  0  0  0  0
   16.0100  -11.4855  -18.8258 N   0  0  0  0  0  0  0  0  0  0  0  0
   19.4370  -10.5174  -15.4382 C   0  0  0  0  0  0  0  0  0  0  0  0
   18.9650  -10.5607  -14.2780 O   0  0  0  0  0  0  0  0  0  0  0  0
   23.4238   -9.0850  -15.9456 C   0  0  0  0  0  0  0  0  0  0  0  0
   22.8566   -9.5441  -14.6179 C   0  0  2  0  0  0  0  0  0  0  0  0
   23.1037  -11.0118  -14.3758 C   0  0  0  0  0  0  0  0  0  0  0  0
   21.3819   -9.1924  -14.5132 C   0  0  2  0  0  0  0  0  0  0  0  0
   20.6171   -9.7461  -15.6137 N   0  0  0  0  0  0  0  0  0  0  0  0
   21.2745   -7.7120  -14.6182 C   0  0  0  0  0  0  0  0  0  0  0  0
   20.7725   -7.2122  -15.8208 O   0  0  0  0  0  0  0  0  0  0  0  0
   21.6020   -6.9293  -13.7109 O   0  0  0  0  0  0  0  0  0  0  0  0
  2  3  1  0
  2  1  1  0
  3  4  1  6
  5  6  2  0
  5  3  1  0
  7  5  1  0
  8  7  1  0
  8 15  1  0
  8  9  1  1
 10  9  1  0
 11 10  2  0
 12 13  1  0
 12 11  1  0
 13 14  2  0
 14 10  1  0
 15 21  1  0
 16 15  2  0
 18 17  1  6
 18 20  1  0
 19 18  1  0
 20 22  1  0
 20 21  1  6
 22 24  2  0
 22 23  1  0
M  END
$$$$
