SHV.pdb
     RDKit          3D

 24 24  0  0  1  0  0  0  0  0999 V2000
   20.4564  -13.1475  -20.4680 O   0  0  0  0  0  0  0  0  0  0  0  0
   20.5671  -12.2747  -19.3704 C   0  0  0  0  0  0  0  0  0  0  0  0
   21.9982  -12.2917  -18.8532 C   0  0  2  0  0  0  0  0  0  0  0  0
   22.2894  -13.6115  -18.3844 N   0  0  0  0  0  0  0  0  0  0  0  0
   22.1733  -11.2466  -17.8083 C   0  0  0  0  0  0  0  0  0  0  0  0
   21.7559  -11.4719  -16.6604 O   0  0  0  0  0  0  0  0  0  0  0  0
   22.8051   -9.9987  -18.0894 N   0  0  0  0  0  0  0  0  0  0  0  0
   22.9296   -8.9260  -17.1344 C   0  0  1  0  0  0  0  0  0  0  0  0
   24.3024   -8.4785  -16.8343 C   0  0  0  0  0  0  0  0  0  0  0  0
   25.2156   -9.4785  -16.2737 C   0  0  0  0  0  0  0  0  0  0  0  0
   24.9290  -10.7791  -15.9497 C   0  0  0  0  0  0  0  0  0  0  0  0
   26.0373  -11.3481  -15.4436 N   0  0  0  0  0  0  0  0  0  0  0  0
   27.0128  -10.4451  -15.4386 C   0  0  0  0  0  0  0  0  0  0  0  0
   26.5227   -9.3072  -15.9408 N   0  0  0  0  0  0  0  0  0  0  0  0
   22.0106   -7.7943  -17.4674 C   0  0  0  0  0  0  0  0  0  0  0  0
   21.9658   -7.3084  -18.6218 O   0  0  0  0  0  0  0  0  0  0  0  0
   17.7628   -5.7045  -17.3039 C   0  0  0  0  0  0  0  0  0  0  0  0
   18.7671   -6.7842  -16.9560 C   0  0  2  0  0  0  0  0  0  0  0  0
   18.3592   -7.5602  -15.7290 C   0  0  0  0  0  0  0  0  0  0  0  0
   20.1617   -6.1964  -16.8177 C   0  0  2  0  0  0  0  0  0  0  0  0
   21.1455   -7.2137  -16.5016 N   0  0  0  0  0  0  0  0  0  0  0  0
   20.1303   -5.2569  -15.6643 C   0  0  0  0  0  0  0  0  0  0  0  0
   19.6897   -3.9604  -15.9347 O   0  0  0  0  0  0  0  0  0  0  0  0
   20.4683   -5.5680  -14.5101 O   0  0  0  0  0  0  0  0  0  0  0  0
  2  3  1  0
  2  1  1  0
  3  4  1  1
  5  6  2  0
  5  3  1  0
  7  5  1  0
  8  7  1  0
  8 15  1  0
  8  9  1  6
 10  9  1  0
 11 10  2  0
 12 13  1  0
 12 11  1  0
 13 14  2  0
 14 10  1  0
 15 21  1  0
 16 15  2  0
 18 17  1  1
 18 20  1  0
 19 18  1  0
 20 22  1  0
 20 21  1  1
 22 24  2  0
 22 23  1  0
M  END
$$$$
