SHV.pdb
     RDKit          3D

 24 24  0  0  1  0  0  0  0  0999 V2000
   28.2762  -19.4370  -16.9991 O   0  0  0  0  0  0  0  0  0  0  0  0
   27.1028  -20.1297  -16.6499 C   0  0  0  0  0  0  0  0  0  0  0  0
   27.3580  -20.9584  -15.3993 C   0  0  2  0  0  0  0  0  0  0  0  0
   28.3328  -21.9569  -15.7148 N   0  0  0  0  0  0  0  0  0  0  0  0
   26.0780  -21.5272  -14.8966 C   0  0  0  0  0  0  0  0  0  0  0  0
   25.9893  -22.7563  -14.7409 O   0  0  0  0  0  0  0  0  0  0  0  0
   24.9555  -20.7014  -14.5905 N   0  0  0  0  0  0  0  0  0  0  0  0
   23.7087  -21.1997  -14.0656 C   0  0  1  0  0  0  0  0  0  0  0  0
   23.7995  -22.0237  -12.8459 C   0  0  0  0  0  0  0  0  0  0  0  0
   24.4153  -21.3998  -11.6713 C   0  0  0  0  0  0  0  0  0  0  0  0
   25.0365  -20.1797  -11.6060 C   0  0  0  0  0  0  0  0  0  0  0  0
   25.4833  -19.9937  -10.3514 N   0  0  0  0  0  0  0  0  0  0  0  0
   25.1627  -21.0599   -9.6250 C   0  0  0  0  0  0  0  0  0  0  0  0
   24.5143  -21.9185  -10.4184 N   0  0  0  0  0  0  0  0  0  0  0  0
   22.6929  -20.1080  -13.9536 C   0  0  0  0  0  0  0  0  0  0  0  0
   22.9258  -19.0649  -13.2990 O   0  0  0  0  0  0  0  0  0  0  0  0
   20.1691  -19.8310  -17.1672 C   0  0  0  0  0  0  0  0  0  0  0  0
   20.5788  -18.6557  -16.3034 C   0  0  2  0  0  0  0  0  0  0  0  0
   21.9041  -18.0767  -16.7301 C   0  0  0  0  0  0  0  0  0  0  0  0
   20.5755  -19.0422  -14.8337 C   0  0  2  0  0  0  0  0  0  0  0  0
   21.4196  -20.1931  -14.5780 N   0  0  0  0  0  0  0  0  0  0  0  0
   19.1853  -19.4445  -14.4881 C   0  0  0  0  0  0  0  0  0  0  0  0
   18.9741  -20.8050  -14.2590 O   0  0  0  0  0  0  0  0  0  0  0  0
   18.2372  -18.6469  -14.3982 O   0  0  0  0  0  0  0  0  0  0  0  0
  2  3  1  0
  2  1  1  0
  3  4  1  6
  5  6  2  0
  5  3  1  0
  7  5  1  0
  8  7  1  0
  8 15  1  0
  8  9  1  1
 10  9  1  0
 11 10  2  0
 12 13  1  0
 12 11  1  0
 13 14  2  0
 14 10  1  0
 15 21  1  0
 16 15  2  0
 18 17  1  6
 18 20  1  0
 19 18  1  0
 20 22  1  0
 20 21  1  6
 22 24  2  0
 22 23  1  0
M  END
$$$$
