SHV.pdb
     RDKit          3D

 24 24  0  0  1  0  0  0  0  0999 V2000
   25.0582  -36.6129  -10.9547 O   0  0  0  0  0  0  0  0  0  0  0  0
   23.9087  -35.9901  -11.4737 C   0  0  0  0  0  0  0  0  0  0  0  0
   24.2389  -34.5536  -11.8519 C   0  0  2  0  0  0  0  0  0  0  0  0
   25.1162  -34.5782  -12.9816 N   0  0  0  0  0  0  0  0  0  0  0  0
   24.8127  -33.8385  -10.6796 C   0  0  0  0  0  0  0  0  0  0  0  0
   25.9235  -33.2949  -10.7950 O   0  0  0  0  0  0  0  0  0  0  0  0
   24.1234  -33.7616   -9.4329 N   0  0  0  0  0  0  0  0  0  0  0  0
   24.6416  -33.0914   -8.2664 C   0  0  1  0  0  0  0  0  0  0  0  0
   23.7052  -32.1968   -7.5607 C   0  0  0  0  0  0  0  0  0  0  0  0
   23.2263  -31.0256   -8.3003 C   0  0  0  0  0  0  0  0  0  0  0  0
   23.9829  -30.0705   -8.9282 C   0  0  0  0  0  0  0  0  0  0  0  0
   23.1569  -29.1567   -9.4676 N   0  0  0  0  0  0  0  0  0  0  0  0
   21.9032  -29.5072   -9.1980 C   0  0  0  0  0  0  0  0  0  0  0  0
   21.9361  -30.6405   -8.4897 N   0  0  0  0  0  0  0  0  0  0  0  0
   25.3278  -34.0526   -7.3491 C   0  0  0  0  0  0  0  0  0  0  0  0
   24.8888  -35.2132   -7.1733 O   0  0  0  0  0  0  0  0  0  0  0  0
   29.5150  -35.5056   -5.1978 C   0  0  0  0  0  0  0  0  0  0  0  0
   28.7519  -34.5331   -6.0736 C   0  0  2  0  0  0  0  0  0  0  0  0
   29.2447  -33.1176   -5.9074 C   0  0  0  0  0  0  0  0  0  0  0  0
   27.2568  -34.6459   -5.8257 C   0  0  2  0  0  0  0  0  0  0  0  0
   26.5049  -33.7053   -6.6334 N   0  0  0  0  0  0  0  0  0  0  0  0
   27.0180  -34.2774   -4.4040 C   0  0  0  0  0  0  0  0  0  0  0  0
   26.6605  -32.9503   -4.1609 O   0  0  0  0  0  0  0  0  0  0  0  0
   27.1201  -35.0747   -3.4569 O   0  0  0  0  0  0  0  0  0  0  0  0
  2  3  1  0
  2  1  1  0
  3  4  1  6
  5  6  2  0
  5  3  1  0
  7  5  1  0
  8  7  1  0
  8 15  1  0
  8  9  1  1
 10  9  1  0
 11 10  2  0
 12 13  1  0
 12 11  1  0
 13 14  2  0
 14 10  1  0
 15 21  1  0
 16 15  2  0
 18 17  1  1
 18 20  1  0
 19 18  1  0
 20 22  1  0
 20 21  1  6
 22 24  2  0
 22 23  1  0
M  END
$$$$
