SHV.pdb
     RDKit          3D

 24 24  0  0  1  0  0  0  0  0999 V2000
   30.1877  -21.7011  -18.1451 O   0  0  0  0  0  0  0  0  0  0  0  0
   28.9302  -22.1594  -18.5780 C   0  0  0  0  0  0  0  0  0  0  0  0
   28.2003  -22.8102  -17.4120 C   0  0  2  0  0  0  0  0  0  0  0  0
   27.0235  -23.4463  -17.9191 N   0  0  0  0  0  0  0  0  0  0  0  0
   27.9121  -21.7950  -16.3627 C   0  0  0  0  0  0  0  0  0  0  0  0
   28.8609  -21.2979  -15.7340 O   0  0  0  0  0  0  0  0  0  0  0  0
   26.5807  -21.3801  -16.0615 N   0  0  0  0  0  0  0  0  0  0  0  0
   26.2470  -20.4325  -15.0275 C   0  0  1  0  0  0  0  0  0  0  0  0
   25.6634  -19.1557  -15.4793 C   0  0  0  0  0  0  0  0  0  0  0  0
   26.5490  -18.2476  -16.2136 C   0  0  0  0  0  0  0  0  0  0  0  0
   27.8958  -18.3885  -16.4258 C   0  0  0  0  0  0  0  0  0  0  0  0
   28.3322  -17.3262  -17.1253 N   0  0  0  0  0  0  0  0  0  0  0  0
   27.3010  -16.5205  -17.3596 C   0  0  0  0  0  0  0  0  0  0  0  0
   26.2146  -17.0721  -16.8096 N   0  0  0  0  0  0  0  0  0  0  0  0
   25.4549  -21.0781  -13.9358 C   0  0  0  0  0  0  0  0  0  0  0  0
   24.5765  -21.9360  -14.1869 O   0  0  0  0  0  0  0  0  0  0  0  0
   25.4655  -19.6054   -9.7723 C   0  0  0  0  0  0  0  0  0  0  0  0
   25.4956  -21.0765  -10.1330 C   0  0  2  0  0  0  0  0  0  0  0  0
   26.8902  -21.6460  -10.0642 C   0  0  0  0  0  0  0  0  0  0  0  0
   24.8539  -21.3101  -11.4906 C   0  0  2  0  0  0  0  0  0  0  0  0
   25.6537  -20.7570  -12.5662 N   0  0  0  0  0  0  0  0  0  0  0  0
   23.5596  -20.5761  -11.4972 C   0  0  0  0  0  0  0  0  0  0  0  0
   23.5162  -19.4059  -12.2568 O   0  0  0  0  0  0  0  0  0  0  0  0
   22.5506  -20.9488  -10.8758 O   0  0  0  0  0  0  0  0  0  0  0  0
  2  3  1  0
  2  1  1  0
  3  4  1  6
  5  6  2  0
  5  3  1  0
  7  5  1  0
  8  7  1  0
  8 15  1  0
  8  9  1  6
 10  9  1  0
 11 10  2  0
 12 13  1  0
 12 11  1  0
 13 14  2  0
 14 10  1  0
 15 21  1  0
 16 15  2  0
 18 17  1  6
 18 20  1  0
 19 18  1  0
 20 22  1  0
 20 21  1  6
 22 24  2  0
 22 23  1  0
M  END
$$$$
