AAH.pdb
     RDKit          3D

 21 21  0  0  1  0  0  0  0  0999 V2000
    7.3708  -18.4648   20.1084 C   0  0  0  0  0  0  0  0  0  0  0  0
    7.2546  -17.5823   18.8735 C   0  0  2  0  0  0  0  0  0  0  0  0
    7.8180  -18.3355   17.7681 N   0  0  0  0  0  0  0  0  0  0  0  0
    8.0135  -16.3393   19.1377 C   0  0  0  0  0  0  0  0  0  0  0  0
    9.2603  -16.3703   18.9889 O   0  0  0  0  0  0  0  0  0  0  0  0
    7.3030  -12.7413   19.8985 C   0  0  0  0  0  0  0  0  0  0  0  0
    8.2170  -13.9507   19.9102 C   0  0  2  0  0  0  0  0  0  0  0  0
    7.4210  -15.1135   19.5489 N   0  0  0  0  0  0  0  0  0  0  0  0
    8.8592  -14.1230   21.2426 C   0  0  0  0  0  0  0  0  0  0  0  0
    9.7405  -13.2939   21.5584 O   0  0  0  0  0  0  0  0  0  0  0  0
    8.5233  -15.1593   22.1449 N   0  0  0  0  0  0  0  0  0  0  0  0
    9.2326  -15.3778   23.3890 C   0  0  1  0  0  0  0  0  0  0  0  0
    8.1998  -15.5993   24.4663 C   0  0  0  0  0  0  0  0  0  0  0  0
    7.6199  -14.3579   25.0127 C   0  0  0  0  0  0  0  0  0  0  0  0
    8.0152  -13.0655   24.7501 C   0  0  0  0  0  0  0  0  0  0  0  0
    7.2264  -12.2462   25.4670 N   0  0  0  0  0  0  0  0  0  0  0  0
    6.3752  -13.0266   26.1463 C   0  0  0  0  0  0  0  0  0  0  0  0
    6.5977  -14.3097   25.8845 N   0  0  0  0  0  0  0  0  0  0  0  0
   10.1202  -16.5675   23.3035 C   0  0  0  0  0  0  0  0  0  0  0  0
   10.1057  -17.3477   22.3166 O   0  0  0  0  0  0  0  0  0  0  0  0
   11.0338  -16.9103   24.3085 O   0  0  0  0  0  0  0  0  0  0  0  0
  2  1  1  1
  2  4  1  0
  2  3  1  0
  4  5  2  0
  7  6  1  1
  8  7  1  0
  8  4  1  0
  9 10  2  0
  9  7  1  0
 11  9  1  0
 12 11  1  0
 12 13  1  1
 13 14  1  0
 14 15  2  0
 14 18  1  0
 15 16  1  0
 16 17  1  0
 18 17  2  0
 19 12  1  0
 20 19  2  0
 21 19  1  0
M  END
$$$$
