AAH.pdb
     RDKit          3D

 21 21  0  0  1  0  0  0  0  0999 V2000
    8.7490  -12.1559   19.8886 C   0  0  0  0  0  0  0  0  0  0  0  0
    8.6464  -13.6034   19.4289 C   0  0  2  0  0  0  0  0  0  0  0  0
    7.6505  -13.6362   18.3735 N   0  0  0  0  0  0  0  0  0  0  0  0
    8.2397  -14.4170   20.5965 C   0  0  0  0  0  0  0  0  0  0  0  0
    7.0985  -14.9412   20.5776 O   0  0  0  0  0  0  0  0  0  0  0  0
    9.0743  -17.0424   21.7971 C   0  0  0  0  0  0  0  0  0  0  0  0
    8.8645  -15.7846   22.6171 C   0  0  2  0  0  0  0  0  0  0  0  0
    9.0585  -14.6424   21.7374 N   0  0  0  0  0  0  0  0  0  0  0  0
    9.7955  -15.7418   23.7785 C   0  0  0  0  0  0  0  0  0  0  0  0
   10.7961  -16.4903   23.7307 O   0  0  0  0  0  0  0  0  0  0  0  0
    9.6014  -14.9108   24.9067 N   0  0  0  0  0  0  0  0  0  0  0  0
    9.4654  -15.4317   26.2516 C   0  0  1  0  0  0  0  0  0  0  0  0
    7.9915  -15.4857   26.5695 C   0  0  0  0  0  0  0  0  0  0  0  0
    7.2902  -14.1982   26.4076 C   0  0  0  0  0  0  0  0  0  0  0  0
    7.6505  -12.9789   26.9357 C   0  0  0  0  0  0  0  0  0  0  0  0
    6.7269  -12.0809   26.5510 N   0  0  0  0  0  0  0  0  0  0  0  0
    5.8302  -12.7437   25.8081 C   0  0  0  0  0  0  0  0  0  0  0  0
    6.1539  -14.0280   25.7094 N   0  0  0  0  0  0  0  0  0  0  0  0
   10.0455  -16.7959   26.3642 C   0  0  0  0  0  0  0  0  0  0  0  0
    9.8384  -17.6879   25.5015 O   0  0  0  0  0  0  0  0  0  0  0  0
   10.8604  -17.1916   27.4327 O   0  0  0  0  0  0  0  0  0  0  0  0
  2  1  1  1
  2  4  1  0
  2  3  1  0
  4  5  2  0
  7  6  1  6
  8  7  1  0
  8  4  1  0
  9 10  2  0
  9  7  1  0
 11  9  1  0
 12 11  1  0
 12 13  1  6
 13 14  1  0
 14 15  2  0
 14 18  1  0
 15 16  1  0
 16 17  1  0
 18 17  2  0
 19 12  1  0
 20 19  2  0
 21 19  1  0
M  END
$$$$
