AAH.pdb
     RDKit          3D

 21 21  0  0  1  0  0  0  0  0999 V2000
   13.5239  -17.8391   15.9711 C   0  0  0  0  0  0  0  0  0  0  0  0
   13.0322  -16.4309   15.6669 C   0  0  2  0  0  0  0  0  0  0  0  0
   13.8125  -15.9509   14.5411 N   0  0  0  0  0  0  0  0  0  0  0  0
   13.2485  -15.6089   16.8785 C   0  0  0  0  0  0  0  0  0  0  0  0
   14.4184  -15.2241   17.1254 O   0  0  0  0  0  0  0  0  0  0  0  0
   11.1545  -13.9686   19.5266 C   0  0  0  0  0  0  0  0  0  0  0  0
   12.4842  -14.4495   18.9798 C   0  0  2  0  0  0  0  0  0  0  0  0
   12.2167  -15.2275   17.7800 N   0  0  0  0  0  0  0  0  0  0  0  0
   13.2218  -15.2509   19.9953 C   0  0  0  0  0  0  0  0  0  0  0  0
   13.2124  -16.4932   19.8528 O   0  0  0  0  0  0  0  0  0  0  0  0
   13.9161  -14.6810   21.0880 N   0  0  0  0  0  0  0  0  0  0  0  0
   14.6409  -15.4757   22.0584 C   0  0  1  0  0  0  0  0  0  0  0  0
   13.9199  -16.7942   22.1933 C   0  0  0  0  0  0  0  0  0  0  0  0
   12.6048  -16.6995   22.8547 C   0  0  0  0  0  0  0  0  0  0  0  0
   12.0787  -15.6121   23.5153 C   0  0  0  0  0  0  0  0  0  0  0  0
   10.8658  -15.9647   23.9757 N   0  0  0  0  0  0  0  0  0  0  0  0
   10.6653  -17.2355   23.6015 C   0  0  0  0  0  0  0  0  0  0  0  0
   11.7078  -17.6987   22.9211 N   0  0  0  0  0  0  0  0  0  0  0  0
   16.0402  -15.7205   21.6199 C   0  0  0  0  0  0  0  0  0  0  0  0
   16.4370  -16.8517   21.2380 O   0  0  0  0  0  0  0  0  0  0  0  0
   17.0187  -14.7183   21.5995 O   0  0  0  0  0  0  0  0  0  0  0  0
  2  1  1  1
  2  4  1  0
  2  3  1  0
  4  5  2  0
  7  6  1  1
  8  7  1  0
  8  4  1  0
  9 10  2  0
  9  7  1  0
 11  9  1  0
 12 11  1  0
 12 13  1  6
 13 14  1  0
 14 15  2  0
 14 18  1  0
 15 16  1  0
 16 17  1  0
 18 17  2  0
 19 12  1  0
 20 19  2  0
 21 19  1  0
M  END
$$$$
