AAH.pdb
     RDKit          3D

 21 21  0  0  1  0  0  0  0  0999 V2000
   11.2885  -21.8397   18.8390 C   0  0  0  0  0  0  0  0  0  0  0  0
    9.9558  -22.4840   19.1943 C   0  0  2  0  0  0  0  0  0  0  0  0
    8.9532  -21.8610   18.3498 N   0  0  0  0  0  0  0  0  0  0  0  0
    9.7034  -22.2294   20.6303 C   0  0  0  0  0  0  0  0  0  0  0  0
    9.3387  -21.0754   20.9663 O   0  0  0  0  0  0  0  0  0  0  0  0
    9.2905  -24.2411   23.7467 C   0  0  0  0  0  0  0  0  0  0  0  0
    9.5483  -22.9211   23.0471 C   0  0  2  0  0  0  0  0  0  0  0  0
    9.8474  -23.2076   21.6526 N   0  0  0  0  0  0  0  0  0  0  0  0
   10.6604  -22.1774   23.7009 C   0  0  0  0  0  0  0  0  0  0  0  0
   11.8187  -22.4190   23.2963 O   0  0  0  0  0  0  0  0  0  0  0  0
   10.4677  -21.2319   24.7352 N   0  0  0  0  0  0  0  0  0  0  0  0
   11.5651  -20.5489   25.3893 C   0  0  1  0  0  0  0  0  0  0  0  0
   11.3368  -19.0663   25.2274 C   0  0  0  0  0  0  0  0  0  0  0  0
   11.3993  -18.5936   23.8316 C   0  0  0  0  0  0  0  0  0  0  0  0
   12.5276  -18.3803   23.0719 C   0  0  0  0  0  0  0  0  0  0  0  0
   12.1279  -17.9390   21.8665 N   0  0  0  0  0  0  0  0  0  0  0  0
   10.7895  -17.8873   21.8987 C   0  0  0  0  0  0  0  0  0  0  0  0
   10.3289  -18.2800   23.0810 N   0  0  0  0  0  0  0  0  0  0  0  0
   11.6250  -20.8843   26.8365 C   0  0  0  0  0  0  0  0  0  0  0  0
   10.6207  -21.2943   27.4738 O   0  0  0  0  0  0  0  0  0  0  0  0
   12.7954  -20.7694   27.5975 O   0  0  0  0  0  0  0  0  0  0  0  0
  2  1  1  6
  2  4  1  0
  2  3  1  0
  4  5  2  0
  7  6  1  1
  8  7  1  0
  8  4  1  0
  9 10  2  0
  9  7  1  0
 11  9  1  0
 12 11  1  0
 12 13  1  1
 13 14  1  0
 14 15  2  0
 14 18  1  0
 15 16  1  0
 16 17  1  0
 18 17  2  0
 19 12  1  0
 20 19  2  0
 21 19  1  0
M  END
$$$$
