AAH.pdb
     RDKit          3D

 21 21  0  0  1  0  0  0  0  0999 V2000
    8.5726  -18.9228   16.0399 C   0  0  0  0  0  0  0  0  0  0  0  0
    7.7322  -19.8920   16.8595 C   0  0  2  0  0  0  0  0  0  0  0  0
    6.4055  -19.8943   16.2708 N   0  0  0  0  0  0  0  0  0  0  0  0
    7.7154  -19.4011   18.2557 C   0  0  0  0  0  0  0  0  0  0  0  0
    7.2417  -18.2577   18.4700 O   0  0  0  0  0  0  0  0  0  0  0  0
    8.4341  -20.7573   21.6774 C   0  0  0  0  0  0  0  0  0  0  0  0
    8.1833  -19.6074   20.7218 C   0  0  2  0  0  0  0  0  0  0  0  0
    8.2012  -20.1413   19.3688 N   0  0  0  0  0  0  0  0  0  0  0  0
    9.2009  -18.5345   20.8974 C   0  0  0  0  0  0  0  0  0  0  0  0
   10.2711  -18.6589   20.2626 O   0  0  0  0  0  0  0  0  0  0  0  0
    9.0136  -17.4074   21.7314 N   0  0  0  0  0  0  0  0  0  0  0  0
    9.9949  -16.3487   21.8530 C   0  0  1  0  0  0  0  0  0  0  0  0
    9.2439  -15.0573   22.0647 C   0  0  0  0  0  0  0  0  0  0  0  0
    8.6066  -14.5216   20.8471 C   0  0  0  0  0  0  0  0  0  0  0  0
    8.7461  -14.9856   19.5583 C   0  0  0  0  0  0  0  0  0  0  0  0
    8.0026  -14.1989   18.7609 N   0  0  0  0  0  0  0  0  0  0  0  0
    7.4282  -13.2816   19.5507 C   0  0  0  0  0  0  0  0  0  0  0  0
    7.7818  -13.4603   20.8184 N   0  0  0  0  0  0  0  0  0  0  0  0
   10.9055  -16.5850   23.0042 C   0  0  0  0  0  0  0  0  0  0  0  0
   10.6221  -17.3859   23.9322 O   0  0  0  0  0  0  0  0  0  0  0  0
   12.1400  -15.9381   23.1446 O   0  0  0  0  0  0  0  0  0  0  0  0
  2  1  1  6
  2  4  1  0
  2  3  1  0
  4  5  2  0
  7  6  1  1
  8  7  1  0
  8  4  1  0
  9 10  2  0
  9  7  1  0
 11  9  1  0
 12 11  1  0
 12 13  1  1
 13 14  1  0
 14 15  2  0
 14 18  1  0
 15 16  1  0
 16 17  1  0
 18 17  2  0
 19 12  1  0
 20 19  2  0
 21 19  1  0
M  END
$$$$
