AAH.pdb
     RDKit          3D

 21 21  0  0  1  0  0  0  0  0999 V2000
    7.4738  -18.5734   18.8337 C   0  0  0  0  0  0  0  0  0  0  0  0
    7.8176  -18.5952   20.3165 C   0  0  2  0  0  0  0  0  0  0  0  0
    6.5637  -18.7395   21.0331 N   0  0  0  0  0  0  0  0  0  0  0  0
    8.4936  -17.3187   20.6390 C   0  0  0  0  0  0  0  0  0  0  0  0
    9.7188  -17.2219   20.3801 O   0  0  0  0  0  0  0  0  0  0  0  0
    7.5374  -13.8210   21.3938 C   0  0  0  0  0  0  0  0  0  0  0  0
    8.5445  -14.9498   21.4929 C   0  0  2  0  0  0  0  0  0  0  0  0
    7.8443  -16.1959   21.2227 N   0  0  0  0  0  0  0  0  0  0  0  0
    9.1950  -14.9701   22.8323 C   0  0  0  0  0  0  0  0  0  0  0  0
    9.9218  -13.9952   23.1242 O   0  0  0  0  0  0  0  0  0  0  0  0
    9.0303  -16.0195   23.7664 N   0  0  0  0  0  0  0  0  0  0  0  0
    9.6482  -16.0089   25.0766 C   0  0  1  0  0  0  0  0  0  0  0  0
    8.5397  -16.0225   26.1001 C   0  0  0  0  0  0  0  0  0  0  0  0
    7.7290  -14.7906   26.1302 C   0  0  0  0  0  0  0  0  0  0  0  0
    8.1845  -13.4918   26.1659 C   0  0  0  0  0  0  0  0  0  0  0  0
    7.1094  -12.6853   26.1980 N   0  0  0  0  0  0  0  0  0  0  0  0
    6.0305  -13.4796   26.1822 C   0  0  0  0  0  0  0  0  0  0  0  0
    6.3850  -14.7589   26.1412 N   0  0  0  0  0  0  0  0  0  0  0  0
   10.5176  -17.1986   25.2740 C   0  0  0  0  0  0  0  0  0  0  0  0
   10.6315  -18.1000   24.4038 O   0  0  0  0  0  0  0  0  0  0  0  0
   11.2708  -17.4074   26.4365 O   0  0  0  0  0  0  0  0  0  0  0  0
  2  1  1  6
  2  4  1  0
  2  3  1  0
  4  5  2  0
  7  6  1  1
  8  7  1  0
  8  4  1  0
  9 10  2  0
  9  7  1  0
 11  9  1  0
 12 11  1  0
 12 13  1  1
 13 14  1  0
 14 15  2  0
 14 18  1  0
 15 16  1  0
 16 17  1  0
 18 17  2  0
 19 12  1  0
 20 19  2  0
 21 19  1  0
M  END
$$$$
