AAH.pdb
     RDKit          3D

 21 21  0  0  1  0  0  0  0  0999 V2000
    6.4740  -12.9895   26.9398 C   0  0  0  0  0  0  0  0  0  0  0  0
    7.6939  -13.2297   26.0614 C   0  0  2  0  0  0  0  0  0  0  0  0
    7.8661  -12.0373   25.2519 N   0  0  0  0  0  0  0  0  0  0  0  0
    7.4209  -14.4248   25.2320 C   0  0  0  0  0  0  0  0  0  0  0  0
    7.3792  -15.5408   25.8069 O   0  0  0  0  0  0  0  0  0  0  0  0
    5.8493  -15.3040   22.0679 C   0  0  0  0  0  0  0  0  0  0  0  0
    6.9678  -15.5959   23.0487 C   0  0  2  0  0  0  0  0  0  0  0  0
    7.2032  -14.3896   23.8270 N   0  0  0  0  0  0  0  0  0  0  0  0
    8.2008  -16.0351   22.3387 C   0  0  0  0  0  0  0  0  0  0  0  0
    8.1190  -17.0777   21.6530 O   0  0  0  0  0  0  0  0  0  0  0  0
    9.4313  -15.3405   22.4048 N   0  0  0  0  0  0  0  0  0  0  0  0
   10.6147  -15.7695   21.6879 C   0  0  1  0  0  0  0  0  0  0  0  0
   11.1097  -14.5919   20.8850 C   0  0  0  0  0  0  0  0  0  0  0  0
   10.1983  -14.1707   19.8044 C   0  0  0  0  0  0  0  0  0  0  0  0
    9.0505  -14.8051   19.3853 C   0  0  0  0  0  0  0  0  0  0  0  0
    8.5387  -14.0889   18.3691 N   0  0  0  0  0  0  0  0  0  0  0  0
    9.3592  -13.0467   18.1798 C   0  0  0  0  0  0  0  0  0  0  0  0
   10.3709  -13.0785   19.0397 N   0  0  0  0  0  0  0  0  0  0  0  0
   11.6820  -16.2135   22.6229 C   0  0  0  0  0  0  0  0  0  0  0  0
   12.8191  -16.5741   22.2229 O   0  0  0  0  0  0  0  0  0  0  0  0
   11.5052  -16.2658   24.0115 O   0  0  0  0  0  0  0  0  0  0  0  0
  2  1  1  1
  2  4  1  0
  2  3  1  0
  4  5  2  0
  7  6  1  6
  8  7  1  0
  8  4  1  0
  9 10  2  0
  9  7  1  0
 11  9  1  0
 12 11  1  0
 12 13  1  1
 13 14  1  0
 14 15  2  0
 14 18  1  0
 15 16  1  0
 16 17  1  0
 18 17  2  0
 19 12  1  0
 20 19  2  0
 21 19  1  0
M  END
$$$$
