AAH.pdb
     RDKit          3D

 21 21  0  0  1  0  0  0  0  0999 V2000
    7.4150  -19.2963   18.7325 C   0  0  0  0  0  0  0  0  0  0  0  0
    7.6833  -18.9898   20.1993 C   0  0  2  0  0  0  0  0  0  0  0  0
    6.3949  -18.9896   20.8676 N   0  0  0  0  0  0  0  0  0  0  0  0
    8.3405  -17.6655   20.2677 C   0  0  0  0  0  0  0  0  0  0  0  0
    9.5429  -17.5881   19.9127 O   0  0  0  0  0  0  0  0  0  0  0  0
    7.3900  -14.0967   20.6285 C   0  0  0  0  0  0  0  0  0  0  0  0
    8.4028  -15.2086   20.8186 C   0  0  2  0  0  0  0  0  0  0  0  0
    7.6976  -16.4763   20.7096 N   0  0  0  0  0  0  0  0  0  0  0  0
    9.0961  -15.0822   22.1304 C   0  0  0  0  0  0  0  0  0  0  0  0
    9.8447  -14.0921   22.2827 O   0  0  0  0  0  0  0  0  0  0  0  0
    8.9478  -16.0114   23.1866 N   0  0  0  0  0  0  0  0  0  0  0  0
    9.6334  -15.8743   24.4553 C   0  0  1  0  0  0  0  0  0  0  0  0
    8.5955  -15.9821   25.5450 C   0  0  0  0  0  0  0  0  0  0  0  0
    7.6875  -14.8229   25.6323 C   0  0  0  0  0  0  0  0  0  0  0  0
    7.9639  -13.5181   25.2909 C   0  0  0  0  0  0  0  0  0  0  0  0
    6.8614  -12.7907   25.5411 N   0  0  0  0  0  0  0  0  0  0  0  0
    5.9413  -13.6374   26.0225 C   0  0  0  0  0  0  0  0  0  0  0  0
    6.4228  -14.8737   26.0854 N   0  0  0  0  0  0  0  0  0  0  0  0
   10.6530  -16.9410   24.6369 C   0  0  0  0  0  0  0  0  0  0  0  0
   10.8246  -17.8578   23.7926 O   0  0  0  0  0  0  0  0  0  0  0  0
   11.4945  -17.0083   25.7547 O   0  0  0  0  0  0  0  0  0  0  0  0
  2  1  1  6
  2  4  1  0
  2  3  1  0
  4  5  2  0
  7  6  1  1
  8  7  1  0
  8  4  1  0
  9 10  2  0
  9  7  1  0
 11  9  1  0
 12 11  1  0
 12 13  1  1
 13 14  1  0
 14 15  2  0
 14 18  1  0
 15 16  1  0
 16 17  1  0
 18 17  2  0
 19 12  1  0
 20 19  2  0
 21 19  1  0
M  END
$$$$
