AAH.pdb
     RDKit          3D

 21 21  0  0  1  0  0  0  0  0999 V2000
    9.0713  -19.5770   19.1539 C   0  0  0  0  0  0  0  0  0  0  0  0
    8.9956  -18.0755   18.9149 C   0  0  2  0  0  0  0  0  0  0  0  0
    9.5561  -17.8341   17.5981 N   0  0  0  0  0  0  0  0  0  0  0  0
    9.7815  -17.4119   19.9792 C   0  0  0  0  0  0  0  0  0  0  0  0
   11.0338  -17.4346   19.8846 O   0  0  0  0  0  0  0  0  0  0  0  0
    9.1453  -15.3043   23.0159 C   0  0  0  0  0  0  0  0  0  0  0  0
   10.0207  -16.2235   22.1869 C   0  0  2  0  0  0  0  0  0  0  0  0
    9.2091  -16.7508   21.1009 N   0  0  0  0  0  0  0  0  0  0  0  0
   10.5897  -17.3171   23.0222 C   0  0  0  0  0  0  0  0  0  0  0  0
    9.8362  -18.2798   23.2854 O   0  0  0  0  0  0  0  0  0  0  0  0
   11.9141  -17.3140   23.5189 N   0  0  0  0  0  0  0  0  0  0  0  0
   12.3987  -18.2942   24.4692 C   0  0  1  0  0  0  0  0  0  0  0  0
   13.9017  -18.3404   24.3454 C   0  0  0  0  0  0  0  0  0  0  0  0
   14.3884  -19.0508   23.1478 C   0  0  0  0  0  0  0  0  0  0  0  0
   13.6379  -19.7481   22.2279 C   0  0  0  0  0  0  0  0  0  0  0  0
   14.4830  -20.2466   21.3088 N   0  0  0  0  0  0  0  0  0  0  0  0
   15.7146  -19.8589   21.6663 C   0  0  0  0  0  0  0  0  0  0  0  0
   15.6784  -19.1334   22.7782 N   0  0  0  0  0  0  0  0  0  0  0  0
   12.0288  -17.9263   25.8614 C   0  0  0  0  0  0  0  0  0  0  0  0
   11.8371  -16.7338   26.2134 O   0  0  0  0  0  0  0  0  0  0  0  0
   11.8675  -18.8721   26.8821 O   0  0  0  0  0  0  0  0  0  0  0  0
  2  1  1  1
  2  4  1  0
  2  3  1  0
  4  5  2  0
  7  6  1  1
  8  7  1  0
  8  4  1  0
  9 10  2  0
  9  7  1  0
 11  9  1  0
 12 11  1  0
 12 13  1  1
 13 14  1  0
 14 15  2  0
 14 18  1  0
 15 16  1  0
 16 17  1  0
 18 17  2  0
 19 12  1  0
 20 19  2  0
 21 19  1  0
M  END
$$$$
