AAH.pdb
     RDKit          3D

 21 21  0  0  1  0  0  0  0  0999 V2000
    8.8678  -17.0397   12.7830 C   0  0  0  0  0  0  0  0  0  0  0  0
    9.7560  -16.1270   13.6171 C   0  0  2  0  0  0  0  0  0  0  0  0
   11.0687  -16.1433   12.9980 N   0  0  0  0  0  0  0  0  0  0  0  0
    9.7885  -16.6690   14.9939 C   0  0  0  0  0  0  0  0  0  0  0  0
    8.7166  -16.6727   15.6486 O   0  0  0  0  0  0  0  0  0  0  0  0
   11.8991  -18.8329   17.0914 C   0  0  0  0  0  0  0  0  0  0  0  0
   10.9518  -17.6528   16.9996 C   0  0  2  0  0  0  0  0  0  0  0  0
   10.9554  -17.1854   15.6220 N   0  0  0  0  0  0  0  0  0  0  0  0
   11.3512  -16.5717   17.9425 C   0  0  0  0  0  0  0  0  0  0  0  0
   12.2394  -15.7813   17.5550 O   0  0  0  0  0  0  0  0  0  0  0  0
   10.7828  -16.4042   19.2269 N   0  0  0  0  0  0  0  0  0  0  0  0
   11.2046  -15.3642   20.1428 C   0  0  1  0  0  0  0  0  0  0  0  0
    9.9616  -14.7759   20.7636 C   0  0  0  0  0  0  0  0  0  0  0  0
    9.1278  -13.9986   19.8276 C   0  0  0  0  0  0  0  0  0  0  0  0
    9.4281  -13.6567   18.5282 C   0  0  0  0  0  0  0  0  0  0  0  0
    8.3982  -12.9372   18.0494 N   0  0  0  0  0  0  0  0  0  0  0  0
    7.4978  -12.8473   19.0375 C   0  0  0  0  0  0  0  0  0  0  0  0
    7.9215  -13.4840   20.1234 N   0  0  0  0  0  0  0  0  0  0  0  0
   12.0810  -15.9090   21.2131 C   0  0  0  0  0  0  0  0  0  0  0  0
   12.1879  -17.1435   21.4311 O   0  0  0  0  0  0  0  0  0  0  0  0
   12.8489  -15.0961   22.0566 O   0  0  0  0  0  0  0  0  0  0  0  0
  2  1  1  6
  2  4  1  0
  2  3  1  0
  4  5  2  0
  7  6  1  6
  8  7  1  0
  8  4  1  0
  9 10  2  0
  9  7  1  0
 11  9  1  0
 12 11  1  0
 12 13  1  1
 13 14  1  0
 14 15  2  0
 14 18  1  0
 15 16  1  0
 16 17  1  0
 18 17  2  0
 19 12  1  0
 20 19  2  0
 21 19  1  0
M  END
$$$$
