YTC.pdb
     RDKit          3D

 26 26  0  0  1  0  0  0  0  0999 V2000
   18.5361  -19.6965  -10.3115 O   0  0  0  0  0  0  0  0  0  0  0  0
   19.5001  -20.1781  -11.1884 C   0  0  0  0  0  0  0  0  0  0  0  0
   20.1840  -19.3122  -12.0175 C   0  0  0  0  0  0  0  0  0  0  0  0
   21.1296  -19.8255  -12.8707 C   0  0  0  0  0  0  0  0  0  0  0  0
   21.4177  -21.1839  -12.9246 C   0  0  0  0  0  0  0  0  0  0  0  0
   22.4491  -21.6805  -13.8661 C   0  0  0  0  0  0  0  0  0  0  0  0
   21.8377  -21.8689  -15.2482 C   0  0  2  0  0  0  0  0  0  0  0  0
   20.8966  -22.9665  -15.1689 N   0  0  0  0  0  0  0  0  0  0  0  0
   22.9011  -22.2396  -16.2073 C   0  0  0  0  0  0  0  0  0  0  0  0
   23.3196  -23.4186  -16.2791 O   0  0  0  0  0  0  0  0  0  0  0  0
   20.7267  -22.0210  -12.0934 C   0  0  0  0  0  0  0  0  0  0  0  0
   19.7709  -21.5243  -11.2272 C   0  0  0  0  0  0  0  0  0  0  0  0
   22.6070  -22.1910  -19.6654 C   0  0  0  0  0  0  0  0  0  0  0  0
   23.8243  -21.3173  -19.4853 C   0  0  1  0  0  0  0  0  0  0  0  0
   23.4369  -19.9605  -19.4552 O   0  0  0  0  0  0  0  0  0  0  0  0
   24.4229  -21.5947  -18.1129 C   0  0  2  0  0  0  0  0  0  0  0  0
   23.4760  -21.2703  -17.0717 N   0  0  0  0  0  0  0  0  0  0  0  0
   25.7063  -20.8434  -17.9295 C   0  0  0  0  0  0  0  0  0  0  0  0
   25.6420  -19.6871  -17.4449 O   0  0  0  0  0  0  0  0  0  0  0  0
   26.9563  -21.3841  -18.2772 N   0  0  0  0  0  0  0  0  0  0  0  0
   28.0122  -21.7682  -17.3914 C   0  0  1  0  0  0  0  0  0  0  0  0
   27.5849  -22.3255  -16.0792 C   0  0  0  0  0  0  0  0  0  0  0  0
   28.9765  -22.7117  -14.9935 S   0  0  0  0  0  0  0  0  0  0  0  0
   29.0204  -22.6232  -18.0848 C   0  0  0  0  0  0  0  0  0  0  0  0
   30.3407  -22.2064  -18.2438 O   0  0  0  0  0  0  0  0  0  0  0  0
   28.7166  -23.7241  -18.5382 O   0  0  0  0  0  0  0  0  0  0  0  0
  2  1  1  0
  2  3  2  0
  4  3  1  0
  5  4  2  0
  6  5  1  0
  7  6  1  0
  7  9  1  0
  7  8  1  1
  9 17  1  0
  9 10  2  0
 11 12  2  0
 11  5  1  0
 12  2  1  0
 14 13  1  1
 14 15  1  0
 16 14  1  0
 16 17  1  1
 18 16  1  0
 18 19  2  0
 20 18  1  0
 21 20  1  0
 21 22  1  1
 23 22  1  0
 24 21  1  0
 25 24  1  0
 26 24  2  0
M  END
$$$$
