YTC.pdb
     RDKit          3D

 26 26  0  0  1  0  0  0  0  0999 V2000
   28.1504  -19.6469   -5.3172 O   0  0  0  0  0  0  0  0  0  0  0  0
   27.9368  -19.8530   -6.6744 C   0  0  0  0  0  0  0  0  0  0  0  0
   28.8953  -20.4806   -7.4442 C   0  0  0  0  0  0  0  0  0  0  0  0
   28.6482  -20.6665   -8.7820 C   0  0  0  0  0  0  0  0  0  0  0  0
   27.4680  -20.2439   -9.3820 C   0  0  0  0  0  0  0  0  0  0  0  0
   27.2567  -20.4720  -10.8312 C   0  0  0  0  0  0  0  0  0  0  0  0
   25.9203  -21.1680  -11.0540 C   0  0  2  0  0  0  0  0  0  0  0  0
   26.0895  -22.5665  -10.7188 N   0  0  0  0  0  0  0  0  0  0  0  0
   25.5533  -21.0760  -12.4841 C   0  0  0  0  0  0  0  0  0  0  0  0
   26.3082  -21.5359  -13.3724 O   0  0  0  0  0  0  0  0  0  0  0  0
   26.5344  -19.6249   -8.5982 C   0  0  0  0  0  0  0  0  0  0  0  0
   26.7638  -19.4282   -7.2494 C   0  0  0  0  0  0  0  0  0  0  0  0
   25.1626  -22.5066  -14.7479 C   0  0  0  0  0  0  0  0  0  0  0  0
   23.7756  -21.9123  -14.7696 C   0  0  1  0  0  0  0  0  0  0  0  0
   22.9484  -22.5992  -13.8552 O   0  0  0  0  0  0  0  0  0  0  0  0
   23.8507  -20.4835  -14.2484 C   0  0  2  0  0  0  0  0  0  0  0  0
   24.3368  -20.4647  -12.8885 N   0  0  0  0  0  0  0  0  0  0  0  0
   22.5183  -19.8064  -14.3555 C   0  0  0  0  0  0  0  0  0  0  0  0
   21.8134  -19.7371  -13.3189 O   0  0  0  0  0  0  0  0  0  0  0  0
   22.0429  -19.2569  -15.5587 N   0  0  0  0  0  0  0  0  0  0  0  0
   20.8308  -18.5235  -15.7586 C   0  0  1  0  0  0  0  0  0  0  0  0
   20.7472  -17.7453  -17.0244 C   0  0  0  0  0  0  0  0  0  0  0  0
   22.1333  -16.6068  -17.2417 S   0  0  0  0  0  0  0  0  0  0  0  0
   19.6312  -19.3800  -15.5231 C   0  0  0  0  0  0  0  0  0  0  0  0
   18.5073  -18.8906  -14.8603 O   0  0  0  0  0  0  0  0  0  0  0  0
   19.5975  -20.5467  -15.9076 O   0  0  0  0  0  0  0  0  0  0  0  0
  2  1  1  0
  2  3  2  0
  4  3  1  0
  5  4  2  0
  6  5  1  0
  7  6  1  0
  7  9  1  0
  7  8  1  6
  9 17  1  0
  9 10  2  0
 11 12  2  0
 11  5  1  0
 12  2  1  0
 14 13  1  1
 14 15  1  0
 16 14  1  0
 16 17  1  1
 18 16  1  0
 18 19  2  0
 20 18  1  0
 21 20  1  0
 21 22  1  6
 23 22  1  0
 24 21  1  0
 25 24  1  0
 26 24  2  0
M  END
$$$$
