YTC.pdb
     RDKit          3D

 26 26  0  0  1  0  0  0  0  0999 V2000
   15.8852  -17.8587  -17.7148 O   0  0  0  0  0  0  0  0  0  0  0  0
   16.7754  -16.8325  -17.4240 C   0  0  0  0  0  0  0  0  0  0  0  0
   17.5216  -16.8641  -16.2633 C   0  0  0  0  0  0  0  0  0  0  0  0
   18.3909  -15.8318  -16.0103 C   0  0  0  0  0  0  0  0  0  0  0  0
   18.5418  -14.7611  -16.8833 C   0  0  0  0  0  0  0  0  0  0  0  0
   19.4962  -13.6749  -16.5573 C   0  0  0  0  0  0  0  0  0  0  0  0
   20.5559  -13.5756  -17.6468 C   0  0  2  0  0  0  0  0  0  0  0  0
   21.3438  -14.7898  -17.6084 N   0  0  0  0  0  0  0  0  0  0  0  0
   21.4506  -12.4339  -17.3565 C   0  0  0  0  0  0  0  0  0  0  0  0
   22.4708  -12.5817  -16.6438 O   0  0  0  0  0  0  0  0  0  0  0  0
   17.7915  -14.7529  -18.0261 C   0  0  0  0  0  0  0  0  0  0  0  0
   16.9106  -15.7825  -18.2994 C   0  0  0  0  0  0  0  0  0  0  0  0
   23.5982  -10.7169  -19.4158 C   0  0  0  0  0  0  0  0  0  0  0  0
   22.7162   -9.5834  -18.9523 C   0  0  1  0  0  0  0  0  0  0  0  0
   21.6695   -9.3846  -19.8781 O   0  0  0  0  0  0  0  0  0  0  0  0
   22.0328   -9.9980  -17.6562 C   0  0  2  0  0  0  0  0  0  0  0  0
   21.1779  -11.1409  -17.8769 N   0  0  0  0  0  0  0  0  0  0  0  0
   21.2642   -8.8534  -17.0692 C   0  0  0  0  0  0  0  0  0  0  0  0
   20.0735   -8.7001  -17.4364 O   0  0  0  0  0  0  0  0  0  0  0  0
   21.8256   -7.9631  -16.1376 N   0  0  0  0  0  0  0  0  0  0  0  0
   21.1610   -6.9077  -15.4365 C   0  0  1  0  0  0  0  0  0  0  0  0
   21.5337   -6.7477  -14.0045 C   0  0  0  0  0  0  0  0  0  0  0  0
   21.4680   -8.3012  -13.0841 S   0  0  0  0  0  0  0  0  0  0  0  0
   21.2208   -5.6257  -16.1989 C   0  0  0  0  0  0  0  0  0  0  0  0
   22.0117   -5.4940  -17.3387 O   0  0  0  0  0  0  0  0  0  0  0  0
   20.5725   -4.6440  -15.8439 O   0  0  0  0  0  0  0  0  0  0  0  0
  2  1  1  0
  2  3  2  0
  4  3  1  0
  5  4  2  0
  6  5  1  0
  7  6  1  0
  7  9  1  0
  7  8  1  1
  9 17  1  0
  9 10  2  0
 11 12  2  0
 11  5  1  0
 12  2  1  0
 14 13  1  6
 14 15  1  0
 16 14  1  0
 16 17  1  6
 18 16  1  0
 18 19  2  0
 20 18  1  0
 21 20  1  0
 21 22  1  1
 23 22  1  0
 24 21  1  0
 25 24  1  0
 26 24  2  0
M  END
$$$$
