YTC.pdb
     RDKit          3D

 26 26  0  0  1  0  0  0  0  0999 V2000
   23.5749  -21.7590   -6.8367 O   0  0  0  0  0  0  0  0  0  0  0  0
   23.8904  -21.2894   -8.1056 C   0  0  0  0  0  0  0  0  0  0  0  0
   25.1343  -20.7481   -8.3601 C   0  0  0  0  0  0  0  0  0  0  0  0
   25.4091  -20.2945   -9.6266 C   0  0  0  0  0  0  0  0  0  0  0  0
   24.4775  -20.3634  -10.6554 C   0  0  0  0  0  0  0  0  0  0  0  0
   24.8309  -19.8578  -12.0031 C   0  0  0  0  0  0  0  0  0  0  0  0
   25.0880  -21.0291  -12.9421 C   0  0  2  0  0  0  0  0  0  0  0  0
   26.3817  -21.5871  -12.6078 N   0  0  0  0  0  0  0  0  0  0  0  0
   25.1428  -20.5361  -14.3357 C   0  0  0  0  0  0  0  0  0  0  0  0
   26.1054  -19.8392  -14.7337 O   0  0  0  0  0  0  0  0  0  0  0  0
   23.2526  -20.9037  -10.3781 C   0  0  0  0  0  0  0  0  0  0  0  0
   22.9560  -21.3661   -9.1097 C   0  0  0  0  0  0  0  0  0  0  0  0
   24.3428  -21.0037  -18.9945 C   0  0  0  0  0  0  0  0  0  0  0  0
   24.2288  -21.5454  -17.5905 C   0  0  1  0  0  0  0  0  0  0  0  0
   25.4301  -22.1930  -17.2305 O   0  0  0  0  0  0  0  0  0  0  0  0
   24.0996  -20.3737  -16.6265 C   0  0  2  0  0  0  0  0  0  0  0  0
   24.1072  -20.8388  -15.2592 N   0  0  0  0  0  0  0  0  0  0  0  0
   22.8652  -19.5763  -16.9193 C   0  0  0  0  0  0  0  0  0  0  0  0
   21.8894  -19.7032  -16.1398 O   0  0  0  0  0  0  0  0  0  0  0  0
   22.7688  -18.7070  -18.0197 N   0  0  0  0  0  0  0  0  0  0  0  0
   21.9977  -17.5053  -18.1112 C   0  0  1  0  0  0  0  0  0  0  0  0
   22.1027  -16.5797  -16.9505 C   0  0  0  0  0  0  0  0  0  0  0  0
   20.6151  -15.5826  -16.7107 S   0  0  0  0  0  0  0  0  0  0  0  0
   22.2096  -16.8210  -19.4208 C   0  0  0  0  0  0  0  0  0  0  0  0
   23.4583  -16.8056  -20.0393 O   0  0  0  0  0  0  0  0  0  0  0  0
   21.2868  -16.2483  -19.9957 O   0  0  0  0  0  0  0  0  0  0  0  0
  2  1  1  0
  2  3  2  0
  4  3  1  0
  5  4  2  0
  6  5  1  0
  7  6  1  0
  7  9  1  0
  7  8  1  1
  9 17  1  0
  9 10  2  0
 11 12  2  0
 11  5  1  0
 12  2  1  0
 14 13  1  6
 14 15  1  0
 16 14  1  0
 16 17  1  1
 18 16  1  0
 18 19  2  0
 20 18  1  0
 21 20  1  0
 21 22  1  1
 23 22  1  0
 24 21  1  0
 25 24  1  0
 26 24  2  0
M  END
$$$$
