YTC.pdb
     RDKit          3D

 26 26  0  0  1  0  0  0  0  0999 V2000
   16.5816  -18.5153  -17.5925 O   0  0  0  0  0  0  0  0  0  0  0  0
   17.3444  -17.3699  -17.4018 C   0  0  0  0  0  0  0  0  0  0  0  0
   18.6632  -17.4677  -17.0065 C   0  0  0  0  0  0  0  0  0  0  0  0
   19.3852  -16.3134  -16.8282 C   0  0  0  0  0  0  0  0  0  0  0  0
   18.8311  -15.0554  -17.0328 C   0  0  0  0  0  0  0  0  0  0  0  0
   19.6595  -13.8440  -16.8248 C   0  0  0  0  0  0  0  0  0  0  0  0
   19.9736  -13.1975  -18.1676 C   0  0  2  0  0  0  0  0  0  0  0  0
   20.8801  -14.0746  -18.8787 N   0  0  0  0  0  0  0  0  0  0  0  0
   20.6608  -11.9074  -17.9406 C   0  0  0  0  0  0  0  0  0  0  0  0
   21.8957  -11.8648  -17.7315 O   0  0  0  0  0  0  0  0  0  0  0  0
   17.5231  -14.9851  -17.4240 C   0  0  0  0  0  0  0  0  0  0  0  0
   16.7790  -16.1352  -17.6090 C   0  0  0  0  0  0  0  0  0  0  0  0
   21.1919   -9.3555  -20.2011 C   0  0  0  0  0  0  0  0  0  0  0  0
   20.4561   -8.6038  -19.1189 C   0  0  1  0  0  0  0  0  0  0  0  0
   19.0767   -8.5695  -19.4158 O   0  0  0  0  0  0  0  0  0  0  0  0
   20.5679   -9.3896  -17.8193 C   0  0  2  0  0  0  0  0  0  0  0  0
   19.9404  -10.6834  -17.9536 N   0  0  0  0  0  0  0  0  0  0  0  0
   19.9778   -8.6185  -16.6780 C   0  0  0  0  0  0  0  0  0  0  0  0
   18.7562   -8.7768  -16.4358 O   0  0  0  0  0  0  0  0  0  0  0  0
   20.7366   -7.7401  -15.8853 N   0  0  0  0  0  0  0  0  0  0  0  0
   20.2788   -6.9502  -14.7837 C   0  0  1  0  0  0  0  0  0  0  0  0
   21.1158   -7.0081  -13.5545 C   0  0  0  0  0  0  0  0  0  0  0  0
   20.9191   -8.5558  -12.6432 S   0  0  0  0  0  0  0  0  0  0  0  0
   19.9660   -5.5537  -15.2081 C   0  0  0  0  0  0  0  0  0  0  0  0
   19.0816   -4.7552  -14.4855 O   0  0  0  0  0  0  0  0  0  0  0  0
   20.4802   -5.0635  -16.2107 O   0  0  0  0  0  0  0  0  0  0  0  0
  2  1  1  0
  2  3  2  0
  4  3  1  0
  5  4  2  0
  6  5  1  0
  7  6  1  0
  7  9  1  0
  7  8  1  6
  9 17  1  0
  9 10  2  0
 11 12  2  0
 11  5  1  0
 12  2  1  0
 14 13  1  6
 14 15  1  0
 16 14  1  0
 16 17  1  6
 18 16  1  0
 18 19  2  0
 20 18  1  0
 21 20  1  0
 21 22  1  1
 23 22  1  0
 24 21  1  0
 25 24  1  0
 26 24  2  0
M  END
$$$$
