YTC.pdb
     RDKit          3D

 26 26  0  0  1  0  0  0  0  0999 V2000
   16.4161  -17.0158  -17.4026 O   0  0  0  0  0  0  0  0  0  0  0  0
   17.2066  -15.8824  -17.2586 C   0  0  0  0  0  0  0  0  0  0  0  0
   16.6286  -14.6298  -17.2128 C   0  0  0  0  0  0  0  0  0  0  0  0
   17.4425  -13.5333  -17.0697 C   0  0  0  0  0  0  0  0  0  0  0  0
   18.8240  -13.6455  -16.9698 C   0  0  0  0  0  0  0  0  0  0  0  0
   19.6521  -12.4258  -16.8165 C   0  0  0  0  0  0  0  0  0  0  0  0
   19.6358  -11.6254  -18.1123 C   0  0  2  0  0  0  0  0  0  0  0  0
   20.3657  -12.3823  -19.1079 N   0  0  0  0  0  0  0  0  0  0  0  0
   20.3371  -10.3400  -17.9023 C   0  0  0  0  0  0  0  0  0  0  0  0
   21.5871  -10.2726  -17.9610 O   0  0  0  0  0  0  0  0  0  0  0  0
   19.3723  -14.8969  -17.0178 C   0  0  0  0  0  0  0  0  0  0  0  0
   18.5705  -16.0136  -17.1615 C   0  0  0  0  0  0  0  0  0  0  0  0
   19.5058   -7.1985  -19.6813 C   0  0  0  0  0  0  0  0  0  0  0  0
   19.5249   -6.7867  -18.2295 C   0  0  1  0  0  0  0  0  0  0  0  0
   18.2075   -6.7618  -17.7237 O   0  0  0  0  0  0  0  0  0  0  0  0
   20.2426   -7.8644  -17.4280 C   0  0  2  0  0  0  0  0  0  0  0  0
   19.6136   -9.1489  -17.6287 N   0  0  0  0  0  0  0  0  0  0  0  0
   20.2875   -7.5059  -15.9738 C   0  0  0  0  0  0  0  0  0  0  0  0
   19.5895   -8.1864  -15.1827 O   0  0  0  0  0  0  0  0  0  0  0  0
   21.0729   -6.4508  -15.4781 N   0  0  0  0  0  0  0  0  0  0  0  0
   21.2637   -6.0797  -14.1096 C   0  0  1  0  0  0  0  0  0  0  0  0
   21.7552   -7.1584  -13.2097 C   0  0  0  0  0  0  0  0  0  0  0  0
   21.9579   -6.6090  -11.5004 S   0  0  0  0  0  0  0  0  0  0  0  0
   22.0557   -4.8199  -13.9925 C   0  0  0  0  0  0  0  0  0  0  0  0
   21.7096   -3.8259  -13.0791 O   0  0  0  0  0  0  0  0  0  0  0  0
   23.0403   -4.6197  -14.6999 O   0  0  0  0  0  0  0  0  0  0  0  0
  2  1  1  0
  2  3  2  0
  4  3  1  0
  5  4  2  0
  6  5  1  0
  7  6  1  0
  7  9  1  0
  7  8  1  6
  9 17  1  0
  9 10  2  0
 11 12  2  0
 11  5  1  0
 12  2  1  0
 14 13  1  6
 14 15  1  0
 16 14  1  0
 16 17  1  1
 18 16  1  0
 18 19  2  0
 20 18  1  0
 21 20  1  0
 21 22  1  1
 23 22  1  0
 24 21  1  0
 25 24  1  0
 26 24  2  0
M  END
$$$$
