YTC.pdb
     RDKit          3D

 26 26  0  0  1  0  0  0  0  0999 V2000
   23.6291  -20.7048   -7.7450 O   0  0  0  0  0  0  0  0  0  0  0  0
   24.2557  -20.6161   -8.9818 C   0  0  0  0  0  0  0  0  0  0  0  0
   25.5957  -20.9217   -9.1087 C   0  0  0  0  0  0  0  0  0  0  0  0
   26.1799  -20.8222  -10.3473 C   0  0  0  0  0  0  0  0  0  0  0  0
   25.4666  -20.4252  -11.4719 C   0  0  0  0  0  0  0  0  0  0  0  0
   26.1510  -20.3362  -12.7836 C   0  0  0  0  0  0  0  0  0  0  0  0
   25.4344  -21.2159  -13.7997 C   0  0  2  0  0  0  0  0  0  0  0  0
   25.5975  -22.5934  -13.3840 N   0  0  0  0  0  0  0  0  0  0  0  0
   26.0730  -21.0536  -15.1241 C   0  0  0  0  0  0  0  0  0  0  0  0
   27.1956  -21.5571  -15.3626 O   0  0  0  0  0  0  0  0  0  0  0  0
   24.1408  -20.1281  -11.3203 C   0  0  0  0  0  0  0  0  0  0  0  0
   23.5338  -20.2218  -10.0821 C   0  0  0  0  0  0  0  0  0  0  0  0
   24.9534  -22.1533  -18.3738 C   0  0  0  0  0  0  0  0  0  0  0  0
   25.0856  -20.6604  -18.5507 C   0  0  1  0  0  0  0  0  0  0  0  0
   23.8394  -20.0405  -18.3169 O   0  0  0  0  0  0  0  0  0  0  0  0
   26.0112  -20.1227  -17.4677 C   0  0  2  0  0  0  0  0  0  0  0  0
   25.4320  -20.3235  -16.1600 N   0  0  0  0  0  0  0  0  0  0  0  0
   26.3242  -18.6765  -17.7039 C   0  0  0  0  0  0  0  0  0  0  0  0
   26.0621  -17.8643  -16.7832 O   0  0  0  0  0  0  0  0  0  0  0  0
   26.8918  -18.2108  -18.9025 N   0  0  0  0  0  0  0  0  0  0  0  0
   27.5171  -16.9445  -19.1320 C   0  0  1  0  0  0  0  0  0  0  0  0
   28.6070  -16.5807  -18.1861 C   0  0  0  0  0  0  0  0  0  0  0  0
   29.3582  -14.9810  -18.5620 S   0  0  0  0  0  0  0  0  0  0  0  0
   27.9119  -16.7836  -20.5625 C   0  0  0  0  0  0  0  0  0  0  0  0
   27.7203  -15.5802  -21.2386 O   0  0  0  0  0  0  0  0  0  0  0  0
   28.4195  -17.7101  -21.1901 O   0  0  0  0  0  0  0  0  0  0  0  0
  2  1  1  0
  2  3  2  0
  4  3  1  0
  5  4  2  0
  6  5  1  0
  7  6  1  0
  7  9  1  0
  7  8  1  1
  9 17  1  0
  9 10  2  0
 11 12  2  0
 11  5  1  0
 12  2  1  0
 14 13  1  1
 14 15  1  0
 16 14  1  0
 16 17  1  1
 18 16  1  0
 18 19  2  0
 20 18  1  0
 21 20  1  0
 21 22  1  1
 23 22  1  0
 24 21  1  0
 25 24  1  0
 26 24  2  0
M  END
$$$$
