YTC.pdb
     RDKit          3D

 26 26  0  0  1  0  0  0  0  0999 V2000
   21.4213  -21.9045   -6.0117 O   0  0  0  0  0  0  0  0  0  0  0  0
   22.2052  -21.4196   -7.0511 C   0  0  0  0  0  0  0  0  0  0  0  0
   23.4803  -20.9525   -6.8041 C   0  0  0  0  0  0  0  0  0  0  0  0
   24.2250  -20.4810   -7.8570 C   0  0  0  0  0  0  0  0  0  0  0  0
   23.7363  -20.4599   -9.1578 C   0  0  0  0  0  0  0  0  0  0  0  0
   24.5863  -19.9392  -10.2547 C   0  0  0  0  0  0  0  0  0  0  0  0
   24.9408  -21.0688  -11.2129 C   0  0  2  0  0  0  0  0  0  0  0  0
   26.0792  -21.7742  -10.6621 N   0  0  0  0  0  0  0  0  0  0  0  0
   25.3380  -20.4968  -12.5180 C   0  0  0  0  0  0  0  0  0  0  0  0
   26.4272  -19.8911  -12.6497 O   0  0  0  0  0  0  0  0  0  0  0  0
   22.4706  -20.9280   -9.3766 C   0  0  0  0  0  0  0  0  0  0  0  0
   21.7046  -21.4068   -8.3303 C   0  0  0  0  0  0  0  0  0  0  0  0
   26.4709  -21.9220  -15.3186 C   0  0  0  0  0  0  0  0  0  0  0  0
   25.2493  -21.2447  -15.8898 C   0  0  1  0  0  0  0  0  0  0  0  0
   24.1586  -22.1404  -15.8785 O   0  0  0  0  0  0  0  0  0  0  0  0
   24.8450  -20.1077  -14.9609 C   0  0  2  0  0  0  0  0  0  0  0  0
   24.4968  -20.6186  -13.6558 N   0  0  0  0  0  0  0  0  0  0  0  0
   23.7181  -19.3142  -15.5491 C   0  0  0  0  0  0  0  0  0  0  0  0
   22.5548  -19.5690  -15.1518 O   0  0  0  0  0  0  0  0  0  0  0  0
   23.9206  -18.3122  -16.5138 N   0  0  0  0  0  0  0  0  0  0  0  0
   22.9297  -17.4722  -17.1136 C   0  0  1  0  0  0  0  0  0  0  0  0
   23.3750  -16.0962  -17.4647 C   0  0  0  0  0  0  0  0  0  0  0  0
   22.0420  -14.8805  -17.3675 S   0  0  0  0  0  0  0  0  0  0  0  0
   22.2393  -18.1647  -18.2415 C   0  0  0  0  0  0  0  0  0  0  0  0
   20.9482  -17.8123  -18.6296 O   0  0  0  0  0  0  0  0  0  0  0  0
   22.7898  -19.0696  -18.8644 O   0  0  0  0  0  0  0  0  0  0  0  0
  2  1  1  0
  2  3  2  0
  4  3  1  0
  5  4  2  0
  6  5  1  0
  7  6  1  0
  7  9  1  0
  7  8  1  1
  9 17  1  0
  9 10  2  0
 11 12  2  0
 11  5  1  0
 12  2  1  0
 14 13  1  1
 14 15  1  0
 16 14  1  0
 16 17  1  1
 18 16  1  0
 18 19  2  0
 20 18  1  0
 21 20  1  0
 21 22  1  6
 23 22  1  0
 24 21  1  0
 25 24  1  0
 26 24  2  0
M  END
$$$$
