YTC.pdb
     RDKit          3D

 26 26  0  0  1  0  0  0  0  0999 V2000
   27.2254  -18.8371   -4.6353 O   0  0  0  0  0  0  0  0  0  0  0  0
   27.2308  -19.3119   -5.9409 C   0  0  0  0  0  0  0  0  0  0  0  0
   26.9403  -20.6355   -6.2033 C   0  0  0  0  0  0  0  0  0  0  0  0
   26.9556  -21.0678   -7.5065 C   0  0  0  0  0  0  0  0  0  0  0  0
   27.2531  -20.2173   -8.5645 C   0  0  0  0  0  0  0  0  0  0  0  0
   27.2542  -20.7406   -9.9512 C   0  0  0  0  0  0  0  0  0  0  0  0
   25.9274  -20.4170  -10.6254 C   0  0  2  0  0  0  0  0  0  0  0  0
   24.9210  -21.2929  -10.0627 N   0  0  0  0  0  0  0  0  0  0  0  0
   26.0318  -20.7022  -12.0732 C   0  0  0  0  0  0  0  0  0  0  0  0
   26.2610  -21.8635  -12.4847 O   0  0  0  0  0  0  0  0  0  0  0  0
   27.5373  -18.9109   -8.2787 C   0  0  0  0  0  0  0  0  0  0  0  0
   27.5273  -18.4558   -6.9736 C   0  0  0  0  0  0  0  0  0  0  0  0
   25.1654  -22.2402  -14.2370 C   0  0  0  0  0  0  0  0  0  0  0  0
   24.8230  -20.9062  -14.8541 C   0  0  1  0  0  0  0  0  0  0  0  0
   23.6255  -20.4143  -14.2918 O   0  0  0  0  0  0  0  0  0  0  0  0
   25.8951  -19.8990  -14.4604 C   0  0  2  0  0  0  0  0  0  0  0  0
   25.8754  -19.6688  -13.0347 N   0  0  0  0  0  0  0  0  0  0  0  0
   25.7255  -18.6169  -15.2173 C   0  0  0  0  0  0  0  0  0  0  0  0
   24.8328  -17.8238  -14.8301 O   0  0  0  0  0  0  0  0  0  0  0  0
   26.5209  -18.2821  -16.3268 N   0  0  0  0  0  0  0  0  0  0  0  0
   26.5352  -17.0428  -17.0418 C   0  0  1  0  0  0  0  0  0  0  0  0
   27.8488  -16.6426  -17.6157 C   0  0  0  0  0  0  0  0  0  0  0  0
   29.1971  -16.7376  -16.4168 S   0  0  0  0  0  0  0  0  0  0  0  0
   25.4226  -16.9743  -18.0346 C   0  0  0  0  0  0  0  0  0  0  0  0
   24.9395  -15.7535  -18.5019 O   0  0  0  0  0  0  0  0  0  0  0  0
   24.8967  -17.9952  -18.4718 O   0  0  0  0  0  0  0  0  0  0  0  0
  2  1  1  0
  2  3  2  0
  4  3  1  0
  5  4  2  0
  6  5  1  0
  7  6  1  0
  7  9  1  0
  7  8  1  1
  9 17  1  0
  9 10  2  0
 11 12  2  0
 11  5  1  0
 12  2  1  0
 14 13  1  1
 14 15  1  0
 16 14  1  0
 16 17  1  1
 18 16  1  0
 18 19  2  0
 20 18  1  0
 21 20  1  0
 21 22  1  6
 23 22  1  0
 24 21  1  0
 25 24  1  0
 26 24  2  0
M  END
$$$$
