YTC.pdb
     RDKit          3D

 26 26  0  0  1  0  0  0  0  0999 V2000
   20.6324  -22.2235   -7.5304 O   0  0  0  0  0  0  0  0  0  0  0  0
   21.5479  -21.6519   -8.4052 C   0  0  0  0  0  0  0  0  0  0  0  0
   22.6820  -21.0318   -7.9212 C   0  0  0  0  0  0  0  0  0  0  0  0
   23.5636  -20.4783   -8.8167 C   0  0  0  0  0  0  0  0  0  0  0  0
   23.3499  -20.5233  -10.1891 C   0  0  0  0  0  0  0  0  0  0  0  0
   24.3370  -19.9084  -11.1080 C   0  0  0  0  0  0  0  0  0  0  0  0
   25.2081  -20.9924  -11.7291 C   0  0  2  0  0  0  0  0  0  0  0  0
   26.1303  -21.4542  -10.7126 N   0  0  0  0  0  0  0  0  0  0  0  0
   25.9954  -20.4114  -12.8386 C   0  0  0  0  0  0  0  0  0  0  0  0
   26.9486  -19.6305  -12.6104 O   0  0  0  0  0  0  0  0  0  0  0  0
   22.2192  -21.1431  -10.6435 C   0  0  0  0  0  0  0  0  0  0  0  0
   21.3191  -21.7065   -9.7586 C   0  0  0  0  0  0  0  0  0  0  0  0
   28.2922  -21.7858  -14.7083 C   0  0  0  0  0  0  0  0  0  0  0  0
   27.3882  -21.3405  -15.8317 C   0  0  1  0  0  0  0  0  0  0  0  0
   26.5316  -22.3992  -16.2023 O   0  0  0  0  0  0  0  0  0  0  0  0
   26.4693  -20.2438  -15.3104 C   0  0  2  0  0  0  0  0  0  0  0  0
   25.6927  -20.7227  -14.1908 N   0  0  0  0  0  0  0  0  0  0  0  0
   25.5821  -19.7282  -16.4024 C   0  0  0  0  0  0  0  0  0  0  0  0
   24.3436  -19.7275  -16.1973 O   0  0  0  0  0  0  0  0  0  0  0  0
   26.0855  -19.2542  -17.6262 N   0  0  0  0  0  0  0  0  0  0  0  0
   25.3737  -18.5327  -18.6361 C   0  0  1  0  0  0  0  0  0  0  0  0
   24.7454  -17.2567  -18.1977 C   0  0  0  0  0  0  0  0  0  0  0  0
   23.8659  -16.4125  -19.5313 S   0  0  0  0  0  0  0  0  0  0  0  0
   26.1915  -18.3815  -19.8757 C   0  0  0  0  0  0  0  0  0  0  0  0
   25.5951  -18.2283  -21.1258 O   0  0  0  0  0  0  0  0  0  0  0  0
   27.4195  -18.3874  -19.8320 O   0  0  0  0  0  0  0  0  0  0  0  0
  2  1  1  0
  2  3  2  0
  4  3  1  0
  5  4  2  0
  6  5  1  0
  7  6  1  0
  7  9  1  0
  7  8  1  1
  9 17  1  0
  9 10  2  0
 11 12  2  0
 11  5  1  0
 12  2  1  0
 14 13  1  1
 14 15  1  0
 16 14  1  0
 16 17  1  1
 18 16  1  0
 18 19  2  0
 20 18  1  0
 21 20  1  0
 21 22  1  1
 23 22  1  0
 24 21  1  0
 25 24  1  0
 26 24  2  0
M  END
$$$$
