YTC.pdb
     RDKit          3D

 26 26  0  0  1  0  0  0  0  0999 V2000
   30.2706  -27.0086  -16.6944 O   0  0  0  0  0  0  0  0  0  0  0  0
   29.3121  -26.0099  -16.8125 C   0  0  0  0  0  0  0  0  0  0  0  0
   28.0468  -26.1922  -16.2922 C   0  0  0  0  0  0  0  0  0  0  0  0
   27.1264  -25.1824  -16.4285 C   0  0  0  0  0  0  0  0  0  0  0  0
   27.4286  -23.9879  -17.0712 C   0  0  0  0  0  0  0  0  0  0  0  0
   26.3939  -22.9330  -17.1880 C   0  0  0  0  0  0  0  0  0  0  0  0
   25.2453  -23.4314  -18.0553 C   0  0  2  0  0  0  0  0  0  0  0  0
   25.7744  -23.7029  -19.3755 N   0  0  0  0  0  0  0  0  0  0  0  0
   24.2253  -22.3668  -18.1754 C   0  0  0  0  0  0  0  0  0  0  0  0
   24.2016  -21.6088  -19.1731 O   0  0  0  0  0  0  0  0  0  0  0  0
   28.6887  -23.8316  -17.5779 C   0  0  0  0  0  0  0  0  0  0  0  0
   29.6298  -24.8360  -17.4513 C   0  0  0  0  0  0  0  0  0  0  0  0
   22.1103  -21.6475  -19.7254 C   0  0  0  0  0  0  0  0  0  0  0  0
   21.2610  -21.6441  -18.4779 C   0  0  1  0  0  0  0  0  0  0  0  0
   20.8162  -22.9545  -18.2006 O   0  0  0  0  0  0  0  0  0  0  0  0
   22.1378  -21.2585  -17.2941 C   0  0  2  0  0  0  0  0  0  0  0  0
   23.2464  -22.1751  -17.1644 N   0  0  0  0  0  0  0  0  0  0  0  0
   21.3332  -21.2014  -16.0313 C   0  0  0  0  0  0  0  0  0  0  0  0
   21.3179  -22.2231  -15.3018 O   0  0  0  0  0  0  0  0  0  0  0  0
   20.6088  -20.0601  -15.6462 N   0  0  0  0  0  0  0  0  0  0  0  0
   19.8663  -19.8704  -14.4380 C   0  0  1  0  0  0  0  0  0  0  0  0
   19.5224  -18.4612  -14.1049 C   0  0  0  0  0  0  0  0  0  0  0  0
   20.9704  -17.3830  -14.0339 S   0  0  0  0  0  0  0  0  0  0  0  0
   18.6894  -20.7863  -14.3728 C   0  0  0  0  0  0  0  0  0  0  0  0
   18.1073  -21.1365  -13.1560 O   0  0  0  0  0  0  0  0  0  0  0  0
   18.1960  -21.2613  -15.3931 O   0  0  0  0  0  0  0  0  0  0  0  0
  2  1  1  0
  2  3  2  0
  4  3  1  0
  5  4  2  0
  6  5  1  0
  7  6  1  0
  7  9  1  0
  7  8  1  6
  9 17  1  0
  9 10  2  0
 11 12  2  0
 11  5  1  0
 12  2  1  0
 14 13  1  6
 14 15  1  0
 16 14  1  0
 16 17  1  1
 18 16  1  0
 18 19  2  0
 20 18  1  0
 21 20  1  0
 21 22  1  6
 23 22  1  0
 24 21  1  0
 25 24  1  0
 26 24  2  0
M  END
$$$$
