YTC.pdb
     RDKit          3D

 26 26  0  0  1  0  0  0  0  0999 V2000
   22.0507  -21.6908   -7.7314 O   0  0  0  0  0  0  0  0  0  0  0  0
   22.9877  -21.2293   -8.6474 C   0  0  0  0  0  0  0  0  0  0  0  0
   24.2576  -20.8828   -8.2322 C   0  0  0  0  0  0  0  0  0  0  0  0
   25.1562  -20.4307   -9.1669 C   0  0  0  0  0  0  0  0  0  0  0  0
   24.8277  -20.3119  -10.5119 C   0  0  0  0  0  0  0  0  0  0  0  0
   25.8397  -19.8178  -11.4756 C   0  0  0  0  0  0  0  0  0  0  0  0
   25.9997  -20.8178  -12.6132 C   0  0  2  0  0  0  0  0  0  0  0  0
   26.6571  -21.9924  -12.0794 N   0  0  0  0  0  0  0  0  0  0  0  0
   26.8697  -20.2352  -13.6580 C   0  0  0  0  0  0  0  0  0  0  0  0
   28.1163  -20.2338  -13.5294 O   0  0  0  0  0  0  0  0  0  0  0  0
   23.5636  -20.6613  -10.8981 C   0  0  0  0  0  0  0  0  0  0  0  0
   22.6442  -21.1187   -9.9729 C   0  0  0  0  0  0  0  0  0  0  0  0
   28.6665  -21.0837  -15.4501 C   0  0  0  0  0  0  0  0  0  0  0  0
   27.8688  -20.4295  -16.5516 C   0  0  1  0  0  0  0  0  0  0  0  0
   26.8733  -21.3181  -17.0114 O   0  0  0  0  0  0  0  0  0  0  0  0
   27.1111  -19.2457  -15.9657 C   0  0  2  0  0  0  0  0  0  0  0  0
   26.3165  -19.6622  -14.8339 N   0  0  0  0  0  0  0  0  0  0  0  0
   26.2614  -18.5873  -17.0097 C   0  0  0  0  0  0  0  0  0  0  0  0
   25.0151  -18.6468  -16.8711 O   0  0  0  0  0  0  0  0  0  0  0  0
   26.8075  -17.9180  -18.1185 N   0  0  0  0  0  0  0  0  0  0  0  0
   26.2138  -16.8538  -18.8684 C   0  0  1  0  0  0  0  0  0  0  0  0
   25.7843  -15.6677  -18.0788 C   0  0  0  0  0  0  0  0  0  0  0  0
   26.1723  -14.1030  -18.8947 S   0  0  0  0  0  0  0  0  0  0  0  0
   27.0468  -16.4922  -20.0531 C   0  0  0  0  0  0  0  0  0  0  0  0
   26.4669  -16.1763  -21.2803 O   0  0  0  0  0  0  0  0  0  0  0  0
   28.2732  -16.4616  -19.9828 O   0  0  0  0  0  0  0  0  0  0  0  0
  2  1  1  0
  2  3  2  0
  4  3  1  0
  5  4  2  0
  6  5  1  0
  7  6  1  0
  7  9  1  0
  7  8  1  1
  9 17  1  0
  9 10  2  0
 11 12  2  0
 11  5  1  0
 12  2  1  0
 14 13  1  1
 14 15  1  0
 16 14  1  0
 16 17  1  1
 18 16  1  0
 18 19  2  0
 20 18  1  0
 21 20  1  0
 21 22  1  1
 23 22  1  0
 24 21  1  0
 25 24  1  0
 26 24  2  0
M  END
$$$$
