YTC.pdb
     RDKit          3D

 26 26  0  0  1  0  0  0  0  0999 V2000
   31.3899  -10.1827  -17.5004 O   0  0  0  0  0  0  0  0  0  0  0  0
   30.0480   -9.9945  -17.8069 C   0  0  0  0  0  0  0  0  0  0  0  0
   29.3996  -10.8615  -18.6631 C   0  0  0  0  0  0  0  0  0  0  0  0
   28.0731  -10.6431  -18.9422 C   0  0  0  0  0  0  0  0  0  0  0  0
   27.3665   -9.5807  -18.3915 C   0  0  0  0  0  0  0  0  0  0  0  0
   25.9353   -9.3950  -18.7293 C   0  0  0  0  0  0  0  0  0  0  0  0
   25.0660  -10.0967  -17.6941 C   0  0  2  0  0  0  0  0  0  0  0  0
   25.2315  -11.5240  -17.8730 N   0  0  0  0  0  0  0  0  0  0  0  0
   23.6463   -9.7612  -17.9392 C   0  0  0  0  0  0  0  0  0  0  0  0
   23.0476  -10.1981  -18.9497 O   0  0  0  0  0  0  0  0  0  0  0  0
   28.0310   -8.7361  -17.5464 C   0  0  0  0  0  0  0  0  0  0  0  0
   29.3664   -8.9385  -17.2526 C   0  0  0  0  0  0  0  0  0  0  0  0
   20.8355  -10.9593  -17.1625 C   0  0  0  0  0  0  0  0  0  0  0  0
   20.6424   -9.6145  -16.5053 C   0  0  1  0  0  0  0  0  0  0  0  0
   21.1127   -9.6621  -15.1754 O   0  0  0  0  0  0  0  0  0  0  0  0
   21.5306   -8.5975  -17.2093 C   0  0  2  0  0  0  0  0  0  0  0  0
   22.9241   -8.9358  -17.0368 N   0  0  0  0  0  0  0  0  0  0  0  0
   21.2462   -7.2109  -16.7177 C   0  0  0  0  0  0  0  0  0  0  0  0
   21.8989   -6.7966  -15.7285 O   0  0  0  0  0  0  0  0  0  0  0  0
   20.2889   -6.3759  -17.3194 N   0  0  0  0  0  0  0  0  0  0  0  0
   19.9604   -5.0311  -16.9577 C   0  0  1  0  0  0  0  0  0  0  0  0
   19.6770   -4.1078  -18.0900 C   0  0  0  0  0  0  0  0  0  0  0  0
   19.1392   -2.4715  -17.5442 S   0  0  0  0  0  0  0  0  0  0  0  0
   18.9075   -4.9935  -15.9002 C   0  0  0  0  0  0  0  0  0  0  0  0
   19.0015   -4.1292  -14.8111 O   0  0  0  0  0  0  0  0  0  0  0  0
   17.9223   -5.7257  -15.9575 O   0  0  0  0  0  0  0  0  0  0  0  0
  2  1  1  0
  2  3  2  0
  4  3  1  0
  5  4  2  0
  6  5  1  0
  7  6  1  0
  7  9  1  0
  7  8  1  6
  9 17  1  0
  9 10  2  0
 11 12  2  0
 11  5  1  0
 12  2  1  0
 14 13  1  6
 14 15  1  0
 16 14  1  0
 16 17  1  1
 18 16  1  0
 18 19  2  0
 20 18  1  0
 21 20  1  0
 21 22  1  6
 23 22  1  0
 24 21  1  0
 25 24  1  0
 26 24  2  0
M  END
$$$$
