ARI.pdb
     RDKit          3D

 25 24  0  0  1  0  0  0  0  0999 V2000
   22.5672  -26.4351  -18.2301 C   0  0  0  0  0  0  0  0  0  0  0  0
   23.3055  -26.5034  -16.8991 C   0  0  2  0  0  0  0  0  0  0  0  0
   23.0129  -27.7772  -16.3139 N   0  0  0  0  0  0  0  0  0  0  0  0
   22.8839  -25.3670  -16.0359 C   0  0  0  0  0  0  0  0  0  0  0  0
   21.7277  -25.3733  -15.5599 O   0  0  0  0  0  0  0  0  0  0  0  0
   24.3269  -20.4042  -10.4540 N   0  0  0  0  0  0  0  0  0  0  0  0
   25.5700  -21.0129  -10.7096 C   0  0  0  0  0  0  0  0  0  0  0  0
   26.2415  -21.4781   -9.7048 N   0  0  0  0  0  0  0  0  0  0  0  0
   26.1204  -21.1410  -12.0065 N   0  0  0  0  0  0  0  0  0  0  0  0
   25.5224  -20.5423  -13.1684 C   0  0  0  0  0  0  0  0  0  0  0  0
   24.2601  -21.2391  -13.5893 C   0  0  0  0  0  0  0  0  0  0  0  0
   24.5745  -22.4455  -14.4512 C   0  0  0  0  0  0  0  0  0  0  0  0
   23.3295  -23.1508  -14.9060 C   0  0  2  0  0  0  0  0  0  0  0  0
   23.7211  -24.2706  -15.7193 N   0  0  0  0  0  0  0  0  0  0  0  0
   22.3760  -22.2539  -15.5826 C   0  0  0  0  0  0  0  0  0  0  0  0
   22.7263  -21.7303  -16.6704 O   0  0  0  0  0  0  0  0  0  0  0  0
   27.1699  -21.9266   -9.8099 C   0  0  0  0  0  0  0  0  0  0  0  0
   16.5795  -21.5070  -16.7681 C   0  0  0  0  0  0  0  0  0  0  0  0
   17.8416  -20.7019  -16.5263 C   0  0  2  0  0  0  0  0  0  0  0  0
   18.8418  -21.6248  -15.8756 C   0  0  0  0  0  0  0  0  0  0  0  0
   18.3289  -21.9424  -14.4862 C   0  0  2  0  0  0  0  0  0  0  0  0
   20.1969  -20.9839  -15.7172 N   0  0  0  0  0  0  0  0  0  0  0  0
   21.0912  -21.9550  -15.0694 C   0  0  0  0  0  0  0  0  0  0  0  0
   20.0332  -19.7904  -14.8702 O   0  0  0  0  0  0  0  0  0  0  0  0
   19.5713  -18.6230  -15.4288 O   0  0  0  0  0  0  0  0  0  0  0  0
  2  1  1  6
  3  2  1  0
  4  5  2  0
  4  2  1  0
  6  7  1  0
  7  9  1  0
  7  8  2  0
  9 10  1  0
 10 11  1  0
 11 12  1  0
 13 12  1  6
 13 14  1  0
 14  4  1  0
 15 22  1  0
 15 13  1  0
 16 15  2  0
 18 17  1  0
 19 18  1  0
 19 21  1  0
 19 20  1  6
 21 22  1  1
 21 23  1  0
 23 24  1  0
 25 23  2  0
M  END
$$$$
