ARI.pdb
     RDKit          3D

 25 24  0  0  1  0  0  0  0  0999 V2000
   26.4138  -24.3624  -17.3185 C   0  0  0  0  0  0  0  0  0  0  0  0
   27.7334  -23.6213  -17.1429 C   0  0  2  0  0  0  0  0  0  0  0  0
   28.7419  -24.6030  -16.8783 N   0  0  0  0  0  0  0  0  0  0  0  0
   27.6036  -22.6246  -16.0456 C   0  0  0  0  0  0  0  0  0  0  0  0
   27.7024  -23.0192  -14.8632 O   0  0  0  0  0  0  0  0  0  0  0  0
   26.0819  -16.3645  -18.3865 N   0  0  0  0  0  0  0  0  0  0  0  0
   25.1148  -16.2216  -17.3738 C   0  0  0  0  0  0  0  0  0  0  0  0
   23.8785  -16.0662  -17.7261 N   0  0  0  0  0  0  0  0  0  0  0  0
   25.4262  -16.2396  -15.9939 N   0  0  0  0  0  0  0  0  0  0  0  0
   26.7534  -16.4834  -15.4986 C   0  0  0  0  0  0  0  0  0  0  0  0
   26.8805  -17.8220  -14.8293 C   0  0  0  0  0  0  0  0  0  0  0  0
   27.1171  -18.9141  -15.8533 C   0  0  0  0  0  0  0  0  0  0  0  0
   27.1804  -20.2739  -15.2198 C   0  0  2  0  0  0  0  0  0  0  0  0
   27.3729  -21.2452  -16.2630 N   0  0  0  0  0  0  0  0  0  0  0  0
   26.0127  -20.5664  -14.3699 C   0  0  0  0  0  0  0  0  0  0  0  0
   24.9757  -21.0129  -14.9227 O   0  0  0  0  0  0  0  0  0  0  0  0
   23.1016  -16.0199  -17.0416 C   0  0  0  0  0  0  0  0  0  0  0  0
   26.6054  -20.6449   -8.7813 C   0  0  0  0  0  0  0  0  0  0  0  0
   26.1357  -21.2924  -10.0696 C   0  0  2  0  0  0  0  0  0  0  0  0
   25.1512  -20.3465  -10.7113 C   0  0  0  0  0  0  0  0  0  0  0  0
   23.8572  -20.4396   -9.9294 C   0  0  2  0  0  0  0  0  0  0  0  0
   24.8405  -20.7211  -12.1379 N   0  0  0  0  0  0  0  0  0  0  0  0
   26.0023  -20.3699  -12.9682 C   0  0  0  0  0  0  0  0  0  0  0  0
   23.6571  -19.9514  -12.5570 O   0  0  0  0  0  0  0  0  0  0  0  0
   23.8173  -18.6763  -13.0433 O   0  0  0  0  0  0  0  0  0  0  0  0
  2  1  1  1
  3  2  1  0
  4  5  2  0
  4  2  1  0
  6  7  1  0
  7  9  1  0
  7  8  2  0
  9 10  1  0
 10 11  1  0
 11 12  1  0
 13 12  1  6
 13 14  1  0
 14  4  1  0
 15 22  1  0
 15 13  1  0
 16 15  2  0
 18 17  1  0
 19 18  1  0
 19 21  1  0
 19 20  1  6
 21 22  1  6
 21 23  1  0
 23 24  1  0
 25 23  2  0
M  END
$$$$
