ARI.pdb
     RDKit          3D

 25 24  0  0  1  0  0  0  0  0999 V2000
   29.2371  -19.4786  -10.7583 C   0  0  0  0  0  0  0  0  0  0  0  0
   28.8111  -20.8889  -11.1471 C   0  0  2  0  0  0  0  0  0  0  0  0
   30.0043  -21.6499  -11.3653 N   0  0  0  0  0  0  0  0  0  0  0  0
   27.9401  -20.8324  -12.3523 C   0  0  0  0  0  0  0  0  0  0  0  0
   28.4767  -20.6901  -13.4728 O   0  0  0  0  0  0  0  0  0  0  0  0
   21.0841  -25.1353  -13.6344 N   0  0  0  0  0  0  0  0  0  0  0  0
   21.4254  -24.0962  -14.5204 C   0  0  0  0  0  0  0  0  0  0  0  0
   20.4714  -23.3648  -15.0020 N   0  0  0  0  0  0  0  0  0  0  0  0
   22.7555  -23.8123  -14.9094 N   0  0  0  0  0  0  0  0  0  0  0  0
   23.8953  -24.1941  -14.1213 C   0  0  0  0  0  0  0  0  0  0  0  0
   24.9958  -23.1729  -14.1691 C   0  0  0  0  0  0  0  0  0  0  0  0
   24.6428  -21.9634  -13.3266 C   0  0  0  0  0  0  0  0  0  0  0  0
   25.6661  -20.8721  -13.4541 C   0  0  2  0  0  0  0  0  0  0  0  0
   26.5291  -20.9311  -12.3049 N   0  0  0  0  0  0  0  0  0  0  0  0
   25.0650  -19.5418  -13.6544 C   0  0  0  0  0  0  0  0  0  0  0  0
   24.4511  -19.0188  -12.6901 O   0  0  0  0  0  0  0  0  0  0  0  0
   20.6395  -22.5967  -15.6771 C   0  0  0  0  0  0  0  0  0  0  0  0
   27.8021  -15.8704  -16.3078 C   0  0  0  0  0  0  0  0  0  0  0  0
   26.9362  -16.6164  -15.3110 C   0  0  2  0  0  0  0  0  0  0  0  0
   25.5429  -16.6747  -15.8862 C   0  0  0  0  0  0  0  0  0  0  0  0
   25.0152  -15.2560  -15.9413 C   0  0  2  0  0  0  0  0  0  0  0  0
   24.5978  -17.4710  -15.0232 N   0  0  0  0  0  0  0  0  0  0  0  0
   25.1450  -18.8278  -14.8740 C   0  0  0  0  0  0  0  0  0  0  0  0
   23.2940  -17.5143  -15.7063 O   0  0  0  0  0  0  0  0  0  0  0  0
   22.2839  -16.6816  -15.2887 O   0  0  0  0  0  0  0  0  0  0  0  0
  2  1  1  6
  3  2  1  0
  4  5  2  0
  4  2  1  0
  6  7  1  0
  7  9  1  0
  7  8  2  0
  9 10  1  0
 10 11  1  0
 11 12  1  0
 13 12  1  1
 13 14  1  0
 14  4  1  0
 15 22  1  0
 15 13  1  0
 16 15  2  0
 18 17  1  0
 19 18  1  0
 19 21  1  0
 19 20  1  6
 21 22  1  1
 21 23  1  0
 23 24  1  0
 25 23  2  0
M  END
$$$$
