ARI.pdb
     RDKit          3D

 25 24  0  0  1  0  0  0  0  0999 V2000
   29.1894  -19.1009  -14.1520 C   0  0  0  0  0  0  0  0  0  0  0  0
   27.8221  -19.6452  -14.5466 C   0  0  2  0  0  0  0  0  0  0  0  0
   27.4373  -18.9917  -15.7614 N   0  0  0  0  0  0  0  0  0  0  0  0
   26.8543  -19.4124  -13.4405 C   0  0  0  0  0  0  0  0  0  0  0  0
   26.4159  -18.2551  -13.2619 O   0  0  0  0  0  0  0  0  0  0  0  0
   19.0395  -21.3265  -12.9917 N   0  0  0  0  0  0  0  0  0  0  0  0
   20.2331  -20.9520  -13.6370 C   0  0  0  0  0  0  0  0  0  0  0  0
   20.2447  -20.9201  -14.9315 N   0  0  0  0  0  0  0  0  0  0  0  0
   21.4172  -20.6098  -12.9428 N   0  0  0  0  0  0  0  0  0  0  0  0
   21.6704  -21.0168  -11.5877 C   0  0  0  0  0  0  0  0  0  0  0  0
   22.9727  -20.4850  -11.0612 C   0  0  0  0  0  0  0  0  0  0  0  0
   24.0901  -20.7178  -12.0583 C   0  0  0  0  0  0  0  0  0  0  0  0
   25.4162  -20.2448  -11.5364 C   0  0  2  0  0  0  0  0  0  0  0  0
   26.3972  -20.4318  -12.5716 N   0  0  0  0  0  0  0  0  0  0  0  0
   25.7938  -20.8846  -10.2638 C   0  0  0  0  0  0  0  0  0  0  0  0
   26.0866  -22.1070  -10.2802 O   0  0  0  0  0  0  0  0  0  0  0  0
   21.0857  -20.6611  -15.4788 C   0  0  0  0  0  0  0  0  0  0  0  0
   28.4443  -18.2373   -6.2930 C   0  0  0  0  0  0  0  0  0  0  0  0
   28.0676  -19.3740   -7.2235 C   0  0  2  0  0  0  0  0  0  0  0  0
   26.7045  -19.8631   -6.8013 C   0  0  0  0  0  0  0  0  0  0  0  0
   26.8647  -20.5524   -5.4620 C   0  0  2  0  0  0  0  0  0  0  0  0
   26.1347  -20.8761   -7.7611 N   0  0  0  0  0  0  0  0  0  0  0  0
   25.8425  -20.1926   -9.0300 C   0  0  0  0  0  0  0  0  0  0  0  0
   24.8975  -21.4109   -7.1679 O   0  0  0  0  0  0  0  0  0  0  0  0
   23.7201  -20.7193   -7.3216 O   0  0  0  0  0  0  0  0  0  0  0  0
  2  1  1  1
  3  2  1  0
  4  5  2  0
  4  2  1  0
  6  7  1  0
  7  9  1  0
  7  8  2  0
  9 10  1  0
 10 11  1  0
 11 12  1  0
 13 12  1  6
 13 14  1  0
 14  4  1  0
 15 22  1  0
 15 13  1  0
 16 15  2  0
 18 17  1  0
 19 18  1  0
 19 21  1  0
 19 20  1  6
 21 22  1  6
 21 23  1  0
 23 24  1  0
 25 23  2  0
M  END
$$$$
