ARI.pdb
     RDKit          3D

 25 24  0  0  1  0  0  0  0  0999 V2000
   24.1200  -18.0007  -16.7647 C   0  0  0  0  0  0  0  0  0  0  0  0
   25.1002  -19.0887  -17.1853 C   0  0  2  0  0  0  0  0  0  0  0  0
   24.4259  -19.9285  -18.1291 N   0  0  0  0  0  0  0  0  0  0  0  0
   25.5627  -19.8350  -15.9838 C   0  0  0  0  0  0  0  0  0  0  0  0
   24.7332  -20.5238  -15.3506 O   0  0  0  0  0  0  0  0  0  0  0  0
   30.5527  -20.7569  -10.1149 N   0  0  0  0  0  0  0  0  0  0  0  0
   31.3681  -21.7294  -10.7237 C   0  0  0  0  0  0  0  0  0  0  0  0
   31.9651  -22.5906   -9.9629 N   0  0  0  0  0  0  0  0  0  0  0  0
   31.5668  -21.8121  -12.1219 N   0  0  0  0  0  0  0  0  0  0  0  0
   30.9297  -20.9211  -13.0526 C   0  0  0  0  0  0  0  0  0  0  0  0
   29.4533  -21.1711  -13.1696 C   0  0  0  0  0  0  0  0  0  0  0  0
   28.8305  -20.2409  -14.1914 C   0  0  0  0  0  0  0  0  0  0  0  0
   27.3453  -20.4349  -14.2958 C   0  0  2  0  0  0  0  0  0  0  0  0
   26.8967  -19.8111  -15.5118 N   0  0  0  0  0  0  0  0  0  0  0  0
   26.6190  -19.9611  -13.1045 C   0  0  0  0  0  0  0  0  0  0  0  0
   26.6937  -18.7407  -12.8126 O   0  0  0  0  0  0  0  0  0  0  0  0
   32.6453  -23.2833  -10.3257 C   0  0  0  0  0  0  0  0  0  0  0  0
   21.3797  -19.7232  -10.7470 C   0  0  0  0  0  0  0  0  0  0  0  0
   22.8247  -19.7280  -10.2870 C   0  0  2  0  0  0  0  0  0  0  0  0
   23.6569  -20.2417  -11.4355 C   0  0  0  0  0  0  0  0  0  0  0  0
   23.1997  -21.6554  -11.7302 C   0  0  2  0  0  0  0  0  0  0  0  0
   25.1245  -20.3068  -11.0977 N   0  0  0  0  0  0  0  0  0  0  0  0
   25.8452  -20.8096  -12.2769 C   0  0  0  0  0  0  0  0  0  0  0  0
   25.2839  -21.2328   -9.9638 O   0  0  0  0  0  0  0  0  0  0  0  0
   25.8280  -22.4763  -10.1777 O   0  0  0  0  0  0  0  0  0  0  0  0
  2  1  1  1
  3  2  1  0
  4  5  2  0
  4  2  1  0
  6  7  1  0
  7  9  1  0
  7  8  2  0
  9 10  1  0
 10 11  1  0
 11 12  1  0
 13 12  1  1
 13 14  1  0
 14  4  1  0
 15 22  1  0
 15 13  1  0
 16 15  2  0
 18 17  1  0
 19 18  1  0
 19 21  1  0
 19 20  1  6
 21 22  1  1
 21 23  1  0
 23 24  1  0
 25 23  2  0
M  END
$$$$
