ARI.pdb
     RDKit          3D

 25 24  0  0  1  0  0  0  0  0999 V2000
   21.0190  -18.4742  -14.5553 C   0  0  0  0  0  0  0  0  0  0  0  0
   21.6627  -19.3983  -15.5815 C   0  0  2  0  0  0  0  0  0  0  0  0
   20.6726  -20.3556  -15.9738 N   0  0  0  0  0  0  0  0  0  0  0  0
   22.8714  -20.0346  -14.9910 C   0  0  0  0  0  0  0  0  0  0  0  0
   22.7185  -20.8997  -14.1012 O   0  0  0  0  0  0  0  0  0  0  0  0
   29.7763  -23.6898  -16.6310 N   0  0  0  0  0  0  0  0  0  0  0  0
   29.2199  -23.2159  -17.8338 C   0  0  0  0  0  0  0  0  0  0  0  0
   29.1709  -24.0232  -18.8451 N   0  0  0  0  0  0  0  0  0  0  0  0
   28.7129  -21.9047  -17.9918 N   0  0  0  0  0  0  0  0  0  0  0  0
   28.5259  -21.0041  -16.8873 C   0  0  0  0  0  0  0  0  0  0  0  0
   27.2957  -21.3232  -16.0868 C   0  0  0  0  0  0  0  0  0  0  0  0
   26.5165  -20.0614  -15.7737 C   0  0  0  0  0  0  0  0  0  0  0  0
   25.3769  -20.3241  -14.8322 C   0  0  2  0  0  0  0  0  0  0  0  0
   24.1942  -19.7157  -15.3801 N   0  0  0  0  0  0  0  0  0  0  0  0
   25.6602  -19.8909  -13.4526 C   0  0  0  0  0  0  0  0  0  0  0  0
   25.8302  -18.6635  -13.2411 O   0  0  0  0  0  0  0  0  0  0  0  0
   28.7554  -23.7565  -19.7563 C   0  0  0  0  0  0  0  0  0  0  0  0
   22.9541  -20.8651   -9.1198 C   0  0  0  0  0  0  0  0  0  0  0  0
   23.8515  -20.2515  -10.1772 C   0  0  2  0  0  0  0  0  0  0  0  0
   25.2217  -20.8590  -10.0068 C   0  0  0  0  0  0  0  0  0  0  0  0
   25.7357  -20.4437   -8.6438 C   0  0  2  0  0  0  0  0  0  0  0  0
   26.2060  -20.3528  -11.0301 N   0  0  0  0  0  0  0  0  0  0  0  0
   25.7498  -20.7856  -12.3594 C   0  0  0  0  0  0  0  0  0  0  0  0
   27.5195  -20.9420  -10.7199 O   0  0  0  0  0  0  0  0  0  0  0  0
   28.2731  -20.4146   -9.6991 O   0  0  0  0  0  0  0  0  0  0  0  0
  2  1  1  1
  3  2  1  0
  4  5  2  0
  4  2  1  0
  6  7  1  0
  7  9  1  0
  7  8  2  0
  9 10  1  0
 10 11  1  0
 11 12  1  0
 13 12  1  6
 13 14  1  0
 14  4  1  0
 15 22  1  0
 15 13  1  0
 16 15  2  0
 18 17  1  0
 19 18  1  0
 19 21  1  0
 19 20  1  6
 21 22  1  6
 21 23  1  0
 23 24  1  0
 25 23  2  0
M  END
$$$$
