ARI.pdb
     RDKit          3D

 25 24  0  0  1  0  0  0  0  0999 V2000
   28.6038  -18.3245  -16.1621 C   0  0  0  0  0  0  0  0  0  0  0  0
   27.3696  -19.1044  -16.5980 C   0  0  2  0  0  0  0  0  0  0  0  0
   26.8572  -18.4691  -17.7746 N   0  0  0  0  0  0  0  0  0  0  0  0
   26.3802  -19.1341  -15.4869 C   0  0  0  0  0  0  0  0  0  0  0  0
   26.1235  -18.0686  -14.8849 O   0  0  0  0  0  0  0  0  0  0  0  0
   18.7281  -20.6592  -13.3467 N   0  0  0  0  0  0  0  0  0  0  0  0
   19.3439  -20.5660  -14.6090 C   0  0  0  0  0  0  0  0  0  0  0  0
   18.7809  -19.8272  -15.5112 N   0  0  0  0  0  0  0  0  0  0  0  0
   20.5442  -21.2378  -14.9394 N   0  0  0  0  0  0  0  0  0  0  0  0
   21.2880  -22.0163  -13.9871 C   0  0  0  0  0  0  0  0  0  0  0  0
   22.4787  -21.2780  -13.4456 C   0  0  0  0  0  0  0  0  0  0  0  0
   23.5114  -21.0542  -14.5321 C   0  0  0  0  0  0  0  0  0  0  0  0
   24.7343  -20.3570  -14.0097 C   0  0  2  0  0  0  0  0  0  0  0  0
   25.7072  -20.3066  -15.0679 N   0  0  0  0  0  0  0  0  0  0  0  0
   25.2588  -20.9659  -12.7746 C   0  0  0  0  0  0  0  0  0  0  0  0
   25.6521  -22.1588  -12.8239 O   0  0  0  0  0  0  0  0  0  0  0  0
   19.1413  -19.7523  -16.4800 C   0  0  0  0  0  0  0  0  0  0  0  0
   28.7750  -19.0713   -9.3248 C   0  0  0  0  0  0  0  0  0  0  0  0
   27.9415  -20.0391  -10.1424 C   0  0  2  0  0  0  0  0  0  0  0  0
   26.5884  -20.1309   -9.4820 C   0  0  0  0  0  0  0  0  0  0  0  0
   26.7825  -20.8120   -8.1431 C   0  0  2  0  0  0  0  0  0  0  0  0
   25.6179  -20.9689  -10.2744 N   0  0  0  0  0  0  0  0  0  0  0  0
   25.3408  -20.2758  -11.5415 C   0  0  0  0  0  0  0  0  0  0  0  0
   24.3851  -21.1008   -9.4798 O   0  0  0  0  0  0  0  0  0  0  0  0
   23.3206  -20.2720   -9.7407 O   0  0  0  0  0  0  0  0  0  0  0  0
  2  1  1  1
  3  2  1  0
  4  5  2  0
  4  2  1  0
  6  7  1  0
  7  9  1  0
  7  8  2  0
  9 10  1  0
 10 11  1  0
 11 12  1  0
 13 12  1  6
 13 14  1  0
 14  4  1  0
 15 22  1  0
 15 13  1  0
 16 15  2  0
 18 17  1  0
 19 18  1  0
 19 21  1  0
 19 20  1  6
 21 22  1  6
 21 23  1  0
 23 24  1  0
 25 23  2  0
M  END
$$$$
