ARI.pdb
     RDKit          3D

 25 24  0  0  1  0  0  0  0  0999 V2000
   28.1465  -18.4684  -16.3528 C   0  0  0  0  0  0  0  0  0  0  0  0
   28.2668  -19.6619  -15.4133 C   0  0  2  0  0  0  0  0  0  0  0  0
   28.0465  -20.8425  -16.1932 N   0  0  0  0  0  0  0  0  0  0  0  0
   27.2894  -19.5209  -14.3001 C   0  0  0  0  0  0  0  0  0  0  0  0
   27.4265  -18.5703  -13.4995 O   0  0  0  0  0  0  0  0  0  0  0  0
   19.2542  -19.8909  -12.7385 N   0  0  0  0  0  0  0  0  0  0  0  0
   19.9307  -20.2134  -13.9300 C   0  0  0  0  0  0  0  0  0  0  0  0
   19.4559  -19.7582  -15.0454 N   0  0  0  0  0  0  0  0  0  0  0  0
   21.1004  -21.0081  -13.9686 N   0  0  0  0  0  0  0  0  0  0  0  0
   21.6755  -21.6044  -12.7939 C   0  0  0  0  0  0  0  0  0  0  0  0
   22.9294  -20.9068  -12.3500 C   0  0  0  0  0  0  0  0  0  0  0  0
   23.9726  -20.9261  -13.4493 C   0  0  0  0  0  0  0  0  0  0  0  0
   25.2683  -20.3114  -13.0051 C   0  0  2  0  0  0  0  0  0  0  0  0
   26.2050  -20.4064  -14.0925 N   0  0  0  0  0  0  0  0  0  0  0  0
   25.7805  -20.8938  -11.7521 C   0  0  0  0  0  0  0  0  0  0  0  0
   26.1575  -22.0929  -11.7680 O   0  0  0  0  0  0  0  0  0  0  0  0
   19.8705  -19.9882  -15.9670 C   0  0  0  0  0  0  0  0  0  0  0  0
   28.7245  -19.3538   -6.7131 C   0  0  0  0  0  0  0  0  0  0  0  0
   27.8122  -20.4078   -7.3101 C   0  0  2  0  0  0  0  0  0  0  0  0
   27.2917  -19.8598   -8.6156 C   0  0  0  0  0  0  0  0  0  0  0  0
   26.5398  -18.5824   -8.3037 C   0  0  2  0  0  0  0  0  0  0  0  0
   26.3216  -20.7981   -9.2868 N   0  0  0  0  0  0  0  0  0  0  0  0
   25.8680  -20.1720  -10.5377 C   0  0  0  0  0  0  0  0  0  0  0  0
   25.1859  -21.0005   -8.3715 O   0  0  0  0  0  0  0  0  0  0  0  0
   25.3119  -21.8776   -7.3212 O   0  0  0  0  0  0  0  0  0  0  0  0
  2  1  1  6
  3  2  1  0
  4  5  2  0
  4  2  1  0
  6  7  1  0
  7  9  1  0
  7  8  2  0
  9 10  1  0
 10 11  1  0
 11 12  1  0
 13 12  1  6
 13 14  1  0
 14  4  1  0
 15 22  1  0
 15 13  1  0
 16 15  2  0
 18 17  1  0
 19 18  1  0
 19 21  1  0
 19 20  1  6
 21 22  1  1
 21 23  1  0
 23 24  1  0
 25 23  2  0
M  END
$$$$
