ARI.pdb
     RDKit          3D

 25 24  0  0  1  0  0  0  0  0999 V2000
   20.2478  -23.4909  -18.4380 C   0  0  0  0  0  0  0  0  0  0  0  0
   21.6292  -24.0577  -18.1349 C   0  0  2  0  0  0  0  0  0  0  0  0
   21.4944  -25.4799  -18.0361 N   0  0  0  0  0  0  0  0  0  0  0  0
   22.1567  -23.4450  -16.8857 C   0  0  0  0  0  0  0  0  0  0  0  0
   21.7633  -23.8929  -15.7865 O   0  0  0  0  0  0  0  0  0  0  0  0
   28.7638  -21.4106  -12.6833 N   0  0  0  0  0  0  0  0  0  0  0  0
   28.4239  -20.9323  -13.9628 C   0  0  0  0  0  0  0  0  0  0  0  0
   28.7831  -21.6309  -14.9923 N   0  0  0  0  0  0  0  0  0  0  0  0
   27.7113  -19.7295  -14.1786 N   0  0  0  0  0  0  0  0  0  0  0  0
   26.7053  -19.5927  -15.1961 C   0  0  0  0  0  0  0  0  0  0  0  0
   25.4194  -20.2769  -14.8291 C   0  0  0  0  0  0  0  0  0  0  0  0
   24.8437  -21.0134  -16.0221 C   0  0  0  0  0  0  0  0  0  0  0  0
   23.5763  -21.7399  -15.6755 C   0  0  2  0  0  0  0  0  0  0  0  0
   23.0848  -22.3766  -16.8680 N   0  0  0  0  0  0  0  0  0  0  0  0
   22.5743  -20.8718  -15.0323 C   0  0  0  0  0  0  0  0  0  0  0  0
   21.9132  -20.0902  -15.7618 O   0  0  0  0  0  0  0  0  0  0  0  0
   28.4762  -21.4074  -15.9566 C   0  0  0  0  0  0  0  0  0  0  0  0
   19.9720  -20.1827   -9.4611 C   0  0  0  0  0  0  0  0  0  0  0  0
   19.9987  -19.7117  -10.9023 C   0  0  2  0  0  0  0  0  0  0  0  0
   21.1164  -20.4525  -11.5932 C   0  0  0  0  0  0  0  0  0  0  0  0
   22.4030  -20.1071  -10.8724 C   0  0  2  0  0  0  0  0  0  0  0  0
   21.2818  -20.0321  -13.0313 N   0  0  0  0  0  0  0  0  0  0  0  0
   22.3215  -20.8755  -13.6396 C   0  0  0  0  0  0  0  0  0  0  0  0
   21.6948  -18.6186  -13.0414 O   0  0  0  0  0  0  0  0  0  0  0  0
   20.7364  -17.6343  -13.0684 O   0  0  0  0  0  0  0  0  0  0  0  0
  2  1  1  1
  3  2  1  0
  4  5  2  0
  4  2  1  0
  6  7  1  0
  7  9  1  0
  7  8  2  0
  9 10  1  0
 10 11  1  0
 11 12  1  0
 13 12  1  6
 13 14  1  0
 14  4  1  0
 15 22  1  0
 15 13  1  0
 16 15  2  0
 18 17  1  0
 19 18  1  0
 19 21  1  0
 19 20  1  6
 21 22  1  6
 21 23  1  0
 23 24  1  0
 25 23  2  0
M  END
$$$$
