ARI.pdb
     RDKit          3D

 25 24  0  0  1  0  0  0  0  0999 V2000
   39.4963   -8.7514   -7.4399 C   0  0  0  0  0  0  0  0  0  0  0  0
   39.9358   -9.6913   -8.5556 C   0  0  2  0  0  0  0  0  0  0  0  0
   41.3449   -9.8995   -8.4077 N   0  0  0  0  0  0  0  0  0  0  0  0
   39.5802   -9.1008   -9.8744 C   0  0  0  0  0  0  0  0  0  0  0  0
   40.4295   -8.3981  -10.4646 O   0  0  0  0  0  0  0  0  0  0  0  0
   36.0973   -8.9601  -16.9886 N   0  0  0  0  0  0  0  0  0  0  0  0
   36.2261  -10.2740  -16.5004 C   0  0  0  0  0  0  0  0  0  0  0  0
   36.7535  -11.1661  -17.2767 N   0  0  0  0  0  0  0  0  0  0  0  0
   35.8090  -10.6665  -15.2069 N   0  0  0  0  0  0  0  0  0  0  0  0
   35.2615   -9.7424  -14.2517 C   0  0  0  0  0  0  0  0  0  0  0  0
   36.3124   -8.8672  -13.6307 C   0  0  0  0  0  0  0  0  0  0  0  0
   36.8768   -9.5108  -12.3799 C   0  0  0  0  0  0  0  0  0  0  0  0
   37.9255   -8.6539  -11.7316 C   0  0  2  0  0  0  0  0  0  0  0  0
   38.3273   -9.2892  -10.5052 N   0  0  0  0  0  0  0  0  0  0  0  0
   37.4902   -7.2591  -11.5410 C   0  0  0  0  0  0  0  0  0  0  0  0
   36.5911   -7.0306  -10.6927 O   0  0  0  0  0  0  0  0  0  0  0  0
   36.9041  -12.1481  -16.9817 C   0  0  0  0  0  0  0  0  0  0  0  0
   40.8953   -3.0607  -12.0602 C   0  0  0  0  0  0  0  0  0  0  0  0
   39.8203   -4.0043  -11.5566 C   0  0  2  0  0  0  0  0  0  0  0  0
   38.6228   -3.8387  -12.4589 C   0  0  0  0  0  0  0  0  0  0  0  0
   38.0848   -2.4389  -12.2461 C   0  0  2  0  0  0  0  0  0  0  0  0
   37.5125   -4.8013  -12.1228 N   0  0  0  0  0  0  0  0  0  0  0  0
   38.0329   -6.1695  -12.2634 C   0  0  0  0  0  0  0  0  0  0  0  0
   36.4129   -4.5686  -13.0742 O   0  0  0  0  0  0  0  0  0  0  0  0
   35.3394   -3.8007  -12.6922 O   0  0  0  0  0  0  0  0  0  0  0  0
  2  1  1  1
  3  2  1  0
  4  5  2  0
  4  2  1  0
  6  7  1  0
  7  9  1  0
  7  8  2  0
  9 10  1  0
 10 11  1  0
 11 12  1  0
 13 12  1  1
 13 14  1  0
 14  4  1  0
 15 22  1  0
 15 13  1  0
 16 15  2  0
 18 17  1  0
 19 18  1  0
 19 21  1  0
 19 20  1  6
 21 22  1  1
 21 23  1  0
 23 24  1  0
 25 23  2  0
M  END
$$$$
