HMM.pdb
     RDKit          3D

 27 27  0  0  1  0  0  0  0  0999 V2000
   27.8578  -19.5126  -16.0162 N   0  0  0  0  0  0  0  0  0  0  0  0
   26.7234  -18.9974  -15.3023 C   0  0  1  0  0  0  0  0  0  0  0  0
   25.8884  -18.1174  -16.1940 C   0  0  0  0  0  0  0  0  0  0  0  0
   26.4702  -16.7473  -16.2658 C   0  0  0  0  0  0  0  0  0  0  0  0
   26.9787  -16.0298  -15.2128 C   0  0  0  0  0  0  0  0  0  0  0  0
   27.4020  -14.8468  -15.7005 N   0  0  0  0  0  0  0  0  0  0  0  0
   27.1604  -14.8415  -17.0071 C   0  0  0  0  0  0  0  0  0  0  0  0
   26.5910  -15.9951  -17.3708 N   0  0  0  0  0  0  0  0  0  0  0  0
   25.9247  -20.0432  -14.6454 C   0  0  0  0  0  0  0  0  0  0  0  0
   25.6273  -21.0620  -15.3252 O   0  0  0  0  0  0  0  0  0  0  0  0
   25.0339  -20.8427   -8.2905 C   0  0  0  0  0  0  0  0  0  0  0  0
   26.6418  -21.2368   -9.0745 S   0  0  0  0  0  0  0  0  0  0  0  0
   26.3580  -21.3991  -10.8349 C   0  0  0  0  0  0  0  0  0  0  0  0
   24.9523  -21.0216  -11.2391 C   0  0  0  0  0  0  0  0  0  0  0  0
   24.7505  -21.1022  -12.7297 C   0  0  2  0  0  0  0  0  0  0  0  0
   25.4698  -19.9893  -13.3172 N   0  0  0  0  0  0  0  0  0  0  0  0
   23.3055  -20.9564  -13.0690 C   0  0  0  0  0  0  0  0  0  0  0  0
   22.7403  -19.8175  -13.0270 O   0  0  0  0  0  0  0  0  0  0  0  0
   19.8402  -24.1473  -17.6261 C   0  0  0  0  0  0  0  0  0  0  0  0
   18.6088  -23.9259  -16.3401 S   0  0  0  0  0  0  0  0  0  0  0  0
   19.1825  -22.6846  -15.1469 C   0  0  0  0  0  0  0  0  0  0  0  0
   20.6471  -22.8469  -14.8452 C   0  0  0  0  0  0  0  0  0  0  0  0
   21.0732  -21.8780  -13.8019 C   0  0  2  0  0  0  0  0  0  0  0  0
   22.4877  -22.0535  -13.4514 N   0  0  0  0  0  0  0  0  0  0  0  0
   20.2458  -21.8492  -12.5761 C   0  0  0  0  0  0  0  0  0  0  0  0
   20.4784  -22.4703  -11.5164 O   0  0  0  0  0  0  0  0  0  0  0  0
   19.0653  -21.0687  -12.5211 O   0  0  0  0  0  0  0  0  0  0  0  0
  2  1  1  6
  2  3  1  0
  4  3  1  0
  5  4  2  0
  6  5  1  0
  7  6  1  0
  7  8  2  0
  8  4  1  0
  9  2  1  0
  9 10  2  0
 12 11  1  0
 13 14  1  0
 13 12  1  0
 15 14  1  1
 15 16  1  0
 16  9  1  0
 17 24  1  0
 17 15  1  0
 18 17  2  0
 20 19  1  0
 21 20  1  0
 22 21  1  0
 23 22  1  6
 23 24  1  0
 23 25  1  0
 25 27  1  0
 26 25  2  0
M  END
$$$$
