HMM.pdb
     RDKit          3D

 27 27  0  0  1  0  0  0  0  0999 V2000
   18.2640  -12.7826  -16.8470 N   0  0  0  0  0  0  0  0  0  0  0  0
   18.8275  -11.5848  -17.4037 C   0  0  1  0  0  0  0  0  0  0  0  0
   17.7480  -10.5801  -17.7071 C   0  0  0  0  0  0  0  0  0  0  0  0
   16.7759  -11.1406  -18.6878 C   0  0  0  0  0  0  0  0  0  0  0  0
   15.4090  -11.1176  -18.5729 C   0  0  0  0  0  0  0  0  0  0  0  0
   14.9043  -11.7248  -19.6653 N   0  0  0  0  0  0  0  0  0  0  0  0
   15.9279  -12.1059  -20.4219 C   0  0  0  0  0  0  0  0  0  0  0  0
   17.0802  -11.7573  -19.8404 N   0  0  0  0  0  0  0  0  0  0  0  0
   19.9064  -11.0132  -16.5838 C   0  0  0  0  0  0  0  0  0  0  0  0
   19.6846  -10.8626  -15.3524 O   0  0  0  0  0  0  0  0  0  0  0  0
   27.4557  -10.4614  -14.9690 C   0  0  0  0  0  0  0  0  0  0  0  0
   26.1647  -11.1550  -16.0677 S   0  0  0  0  0  0  0  0  0  0  0  0
   24.6348  -10.2958  -15.7114 C   0  0  0  0  0  0  0  0  0  0  0  0
   23.4731  -10.8022  -16.5335 C   0  0  0  0  0  0  0  0  0  0  0  0
   22.1840  -10.1074  -16.1806 C   0  0  2  0  0  0  0  0  0  0  0  0
   21.1646  -10.6234  -17.0728 N   0  0  0  0  0  0  0  0  0  0  0  0
   22.3042   -8.6383  -16.4080 C   0  0  0  0  0  0  0  0  0  0  0  0
   22.4443   -8.1724  -17.5835 O   0  0  0  0  0  0  0  0  0  0  0  0
   19.8746   -4.5084  -19.2920 C   0  0  0  0  0  0  0  0  0  0  0  0
   19.7103   -3.8049  -17.6497 S   0  0  0  0  0  0  0  0  0  0  0  0
   21.1008   -4.3364  -16.6115 C   0  0  0  0  0  0  0  0  0  0  0  0
   21.1210   -5.8307  -16.4415 C   0  0  0  0  0  0  0  0  0  0  0  0
   22.2824   -6.2437  -15.6113 C   0  0  2  0  0  0  0  0  0  0  0  0
   22.2709   -7.6883  -15.3521 N   0  0  0  0  0  0  0  0  0  0  0  0
   22.4621   -5.5016  -14.3444 C   0  0  0  0  0  0  0  0  0  0  0  0
   22.2339   -5.9399  -13.1960 O   0  0  0  0  0  0  0  0  0  0  0  0
   22.9327   -4.1658  -14.3515 O   0  0  0  0  0  0  0  0  0  0  0  0
  2  1  1  1
  2  3  1  0
  4  3  1  0
  5  4  2  0
  6  5  1  0
  7  6  1  0
  7  8  2  0
  8  4  1  0
  9  2  1  0
  9 10  2  0
 12 11  1  0
 13 14  1  0
 13 12  1  0
 15 14  1  6
 15 16  1  0
 16  9  1  0
 17 24  1  0
 17 15  1  0
 18 17  2  0
 20 19  1  0
 21 20  1  0
 22 21  1  0
 23 22  1  1
 23 24  1  0
 23 25  1  0
 25 27  1  0
 26 25  2  0
M  END
$$$$
