HMM.pdb
     RDKit          3D

 27 27  0  0  1  0  0  0  0  0999 V2000
   34.3236  -31.2498  -18.5119 N   0  0  0  0  0  0  0  0  0  0  0  0
   33.2614  -30.2847  -18.4639 C   0  0  1  0  0  0  0  0  0  0  0  0
   33.5886  -29.0903  -19.3201 C   0  0  0  0  0  0  0  0  0  0  0  0
   34.7150  -28.3166  -18.7257 C   0  0  0  0  0  0  0  0  0  0  0  0
   35.3256  -28.5731  -17.5243 C   0  0  0  0  0  0  0  0  0  0  0  0
   36.2906  -27.6469  -17.3587 N   0  0  0  0  0  0  0  0  0  0  0  0
   36.2705  -26.8513  -18.4227 C   0  0  0  0  0  0  0  0  0  0  0  0
   35.3137  -27.2453  -19.2694 N   0  0  0  0  0  0  0  0  0  0  0  0
   31.9429  -30.8536  -18.7813 C   0  0  0  0  0  0  0  0  0  0  0  0
   31.8837  -31.7034  -19.7103 O   0  0  0  0  0  0  0  0  0  0  0  0
   28.8232  -35.2655  -16.8962 C   0  0  0  0  0  0  0  0  0  0  0  0
   29.5881  -35.2953  -18.5603 S   0  0  0  0  0  0  0  0  0  0  0  0
   29.8319  -33.5969  -19.0722 C   0  0  0  0  0  0  0  0  0  0  0  0
   29.6299  -32.6107  -17.9460 C   0  0  0  0  0  0  0  0  0  0  0  0
   29.5053  -31.1958  -18.4476 C   0  0  2  0  0  0  0  0  0  0  0  0
   30.7462  -30.5193  -18.1255 N   0  0  0  0  0  0  0  0  0  0  0  0
   28.3930  -30.4905  -17.7478 C   0  0  0  0  0  0  0  0  0  0  0  0
   28.5414  -30.0626  -16.5590 O   0  0  0  0  0  0  0  0  0  0  0  0
   25.4180  -24.7224  -15.3969 C   0  0  0  0  0  0  0  0  0  0  0  0
   26.6356  -25.9448  -15.8891 S   0  0  0  0  0  0  0  0  0  0  0  0
   26.1130  -26.7466  -17.4312 C   0  0  0  0  0  0  0  0  0  0  0  0
   27.0298  -27.8805  -17.8001 C   0  0  0  0  0  0  0  0  0  0  0  0
   26.2637  -29.1475  -17.9281 C   0  0  2  0  0  0  0  0  0  0  0  0
   27.1272  -30.2572  -18.3494 N   0  0  0  0  0  0  0  0  0  0  0  0
   25.0602  -29.0862  -18.7858 C   0  0  0  0  0  0  0  0  0  0  0  0
   24.9937  -29.4294  -19.9861 O   0  0  0  0  0  0  0  0  0  0  0  0
   23.8314  -28.6056  -18.2711 O   0  0  0  0  0  0  0  0  0  0  0  0
  2  1  1  6
  2  3  1  0
  4  3  1  0
  5  4  2  0
  6  5  1  0
  7  6  1  0
  7  8  2  0
  8  4  1  0
  9  2  1  0
  9 10  2  0
 12 11  1  0
 13 14  1  0
 13 12  1  0
 15 14  1  1
 15 16  1  0
 16  9  1  0
 17 24  1  0
 17 15  1  0
 18 17  2  0
 20 19  1  0
 21 20  1  0
 22 21  1  0
 23 22  1  6
 23 24  1  0
 23 25  1  0
 25 27  1  0
 26 25  2  0
M  END
$$$$
