HMM.pdb
     RDKit          3D

 27 27  0  0  1  0  0  0  0  0999 V2000
   21.4213  -13.8265  -18.1588 N   0  0  0  0  0  0  0  0  0  0  0  0
   21.7715  -12.6164  -18.8480 C   0  0  1  0  0  0  0  0  0  0  0  0
   20.7319  -12.2729  -19.8815 C   0  0  0  0  0  0  0  0  0  0  0  0
   20.6300  -13.3577  -20.8982 C   0  0  0  0  0  0  0  0  0  0  0  0
   19.5003  -14.0726  -21.2057 C   0  0  0  0  0  0  0  0  0  0  0  0
   19.8324  -14.9519  -22.1717 N   0  0  0  0  0  0  0  0  0  0  0  0
   21.1213  -14.7801  -22.4452 C   0  0  0  0  0  0  0  0  0  0  0  0
   21.6258  -13.8097  -21.6764 N   0  0  0  0  0  0  0  0  0  0  0  0
   22.0513  -11.4911  -17.9435 C   0  0  0  0  0  0  0  0  0  0  0  0
   21.2380  -11.2835  -17.0033 O   0  0  0  0  0  0  0  0  0  0  0  0
   27.3045  -12.0220  -14.2204 C   0  0  0  0  0  0  0  0  0  0  0  0
   27.0074  -10.6819  -15.4333 S   0  0  0  0  0  0  0  0  0  0  0  0
   25.2415  -10.5906  -15.7143 C   0  0  0  0  0  0  0  0  0  0  0  0
   24.8684   -9.5829  -16.7759 C   0  0  0  0  0  0  0  0  0  0  0  0
   23.3910   -9.5904  -17.0698 C   0  0  2  0  0  0  0  0  0  0  0  0
   23.1577  -10.6318  -18.0509 N   0  0  0  0  0  0  0  0  0  0  0  0
   22.9704   -8.2877  -17.6618 C   0  0  0  0  0  0  0  0  0  0  0  0
   23.0609   -8.0841  -18.9143 O   0  0  0  0  0  0  0  0  0  0  0  0
   19.7574   -6.3716  -21.6957 C   0  0  0  0  0  0  0  0  0  0  0  0
   19.0023   -5.4713  -20.3397 S   0  0  0  0  0  0  0  0  0  0  0  0
   20.2539   -5.0916  -19.0815 C   0  0  0  0  0  0  0  0  0  0  0  0
   20.8828   -6.3440  -18.5353 C   0  0  0  0  0  0  0  0  0  0  0  0
   21.8987   -6.0082  -17.5039 C   0  0  2  0  0  0  0  0  0  0  0  0
   22.4544   -7.2168  -16.8836 N   0  0  0  0  0  0  0  0  0  0  0  0
   21.4628   -5.0556  -16.4596 C   0  0  0  0  0  0  0  0  0  0  0  0
   21.3493   -5.3025  -15.2393 O   0  0  0  0  0  0  0  0  0  0  0  0
   21.1255   -3.7217  -16.7955 O   0  0  0  0  0  0  0  0  0  0  0  0
  2  1  1  1
  2  3  1  0
  4  3  1  0
  5  4  2  0
  6  5  1  0
  7  6  1  0
  7  8  2  0
  8  4  1  0
  9  2  1  0
  9 10  2  0
 12 11  1  0
 13 14  1  0
 13 12  1  0
 15 14  1  6
 15 16  1  0
 16  9  1  0
 17 24  1  0
 17 15  1  0
 18 17  2  0
 20 19  1  0
 21 20  1  0
 22 21  1  0
 23 22  1  1
 23 24  1  0
 23 25  1  0
 25 27  1  0
 26 25  2  0
M  END
$$$$
