HMM.pdb
     RDKit          3D

 27 27  0  0  1  0  0  0  0  0999 V2000
   14.2221  -19.2548    3.2941 N   0  0  0  0  0  0  0  0  0  0  0  0
   14.7554  -18.3175    4.2422 C   0  0  1  0  0  0  0  0  0  0  0  0
   13.6631  -17.7721    5.1232 C   0  0  0  0  0  0  0  0  0  0  0  0
   12.6832  -16.9924    4.3154 C   0  0  0  0  0  0  0  0  0  0  0  0
   11.4371  -17.4162    3.9284 C   0  0  0  0  0  0  0  0  0  0  0  0
   10.8767  -16.4179    3.2170 N   0  0  0  0  0  0  0  0  0  0  0  0
   11.7506  -15.4181    3.1708 C   0  0  0  0  0  0  0  0  0  0  0  0
   12.8610  -15.7510    3.8369 N   0  0  0  0  0  0  0  0  0  0  0  0
   15.8832  -18.8531    5.0194 C   0  0  0  0  0  0  0  0  0  0  0  0
   15.9472  -20.1032    5.1669 O   0  0  0  0  0  0  0  0  0  0  0  0
   22.0361  -16.0637    7.4611 C   0  0  0  0  0  0  0  0  0  0  0  0
   21.9368  -17.3467    6.1575 S   0  0  0  0  0  0  0  0  0  0  0  0
   20.5115  -18.3696    6.5151 C   0  0  0  0  0  0  0  0  0  0  0  0
   19.2471  -17.8613    5.8632 C   0  0  0  0  0  0  0  0  0  0  0  0
   18.0467  -18.6943    6.2295 C   0  0  2  0  0  0  0  0  0  0  0  0
   16.8929  -18.0740    5.6088 N   0  0  0  0  0  0  0  0  0  0  0  0
   17.8410  -18.6912    7.7067 C   0  0  0  0  0  0  0  0  0  0  0  0
   17.4343  -17.6440    8.3036 O   0  0  0  0  0  0  0  0  0  0  0  0
   18.8450  -23.6725   12.4374 C   0  0  0  0  0  0  0  0  0  0  0  0
   17.4047  -22.6697   12.8106 S   0  0  0  0  0  0  0  0  0  0  0  0
   17.5872  -21.0279   12.0588 C   0  0  0  0  0  0  0  0  0  0  0  0
   17.8075  -21.1240   10.5740 C   0  0  0  0  0  0  0  0  0  0  0  0
   17.9733  -19.7699    9.9846 C   0  0  2  0  0  0  0  0  0  0  0  0
   18.0803  -19.8300    8.5220 N   0  0  0  0  0  0  0  0  0  0  0  0
   19.0769  -18.9578   10.5419 C   0  0  0  0  0  0  0  0  0  0  0  0
   19.0116  -18.2194   11.5486 O   0  0  0  0  0  0  0  0  0  0  0  0
   20.3560  -18.9650    9.9337 O   0  0  0  0  0  0  0  0  0  0  0  0
  2  1  1  1
  2  3  1  0
  4  3  1  0
  5  4  2  0
  6  5  1  0
  7  6  1  0
  7  8  2  0
  8  4  1  0
  9  2  1  0
  9 10  2  0
 12 11  1  0
 13 14  1  0
 13 12  1  0
 15 14  1  1
 15 16  1  0
 16  9  1  0
 17 24  1  0
 17 15  1  0
 18 17  2  0
 20 19  1  0
 21 20  1  0
 22 21  1  0
 23 22  1  1
 23 24  1  0
 23 25  1  0
 25 27  1  0
 26 25  2  0
M  END
$$$$
