HMM.pdb
     RDKit          3D

 27 27  0  0  1  0  0  0  0  0999 V2000
   25.2705  -20.3715  -16.4301 N   0  0  0  0  0  0  0  0  0  0  0  0
   25.4237  -19.7233  -15.1580 C   0  0  1  0  0  0  0  0  0  0  0  0
   24.1169  -19.1308  -14.7020 C   0  0  0  0  0  0  0  0  0  0  0  0
   23.6655  -18.0735  -15.6501 C   0  0  0  0  0  0  0  0  0  0  0  0
   22.5045  -18.0864  -16.3810 C   0  0  0  0  0  0  0  0  0  0  0  0
   22.4755  -16.9519  -17.1081 N   0  0  0  0  0  0  0  0  0  0  0  0
   23.5810  -16.2689  -16.8310 C   0  0  0  0  0  0  0  0  0  0  0  0
   24.3208  -16.9390  -15.9416 N   0  0  0  0  0  0  0  0  0  0  0  0
   26.0319  -20.5862  -14.1341 C   0  0  0  0  0  0  0  0  0  0  0  0
   25.6051  -21.7684  -14.0405 O   0  0  0  0  0  0  0  0  0  0  0  0
   31.9107  -22.3042  -12.4413 C   0  0  0  0  0  0  0  0  0  0  0  0
   31.3361  -21.6343  -10.8363 S   0  0  0  0  0  0  0  0  0  0  0  0
   29.5459  -21.6274  -10.8646 C   0  0  0  0  0  0  0  0  0  0  0  0
   28.9813  -20.8554  -12.0338 C   0  0  0  0  0  0  0  0  0  0  0  0
   27.4969  -21.0622  -12.1853 C   0  0  2  0  0  0  0  0  0  0  0  0
   27.0526  -20.1893  -13.2540 N   0  0  0  0  0  0  0  0  0  0  0  0
   26.7854  -20.6696  -10.9347 C   0  0  0  0  0  0  0  0  0  0  0  0
   26.4558  -19.4584  -10.7279 O   0  0  0  0  0  0  0  0  0  0  0  0
   28.3761  -18.2677   -6.5181 C   0  0  0  0  0  0  0  0  0  0  0  0
   26.7073  -18.3712   -5.8671 S   0  0  0  0  0  0  0  0  0  0  0  0
   25.7650  -19.6199   -6.7872 C   0  0  0  0  0  0  0  0  0  0  0  0
   26.5329  -20.1206   -7.9797 C   0  0  0  0  0  0  0  0  0  0  0  0
   25.7664  -21.1817   -8.6833 C   0  0  2  0  0  0  0  0  0  0  0  0
   26.4387  -21.6005   -9.9190 N   0  0  0  0  0  0  0  0  0  0  0  0
   24.3459  -20.8732   -8.9572 C   0  0  0  0  0  0  0  0  0  0  0  0
   23.4122  -20.9058   -8.1264 O   0  0  0  0  0  0  0  0  0  0  0  0
   23.9270  -20.4983  -10.2571 O   0  0  0  0  0  0  0  0  0  0  0  0
  2  1  1  6
  2  3  1  0
  4  3  1  0
  5  4  2  0
  6  5  1  0
  7  6  1  0
  7  8  2  0
  8  4  1  0
  9  2  1  0
  9 10  2  0
 12 11  1  0
 13 14  1  0
 13 12  1  0
 15 14  1  1
 15 16  1  0
 16  9  1  0
 17 24  1  0
 17 15  1  0
 18 17  2  0
 20 19  1  0
 21 20  1  0
 22 21  1  0
 23 22  1  6
 23 24  1  0
 23 25  1  0
 25 27  1  0
 26 25  2  0
M  END
$$$$
