HMM.pdb
     RDKit          3D

 27 27  0  0  1  0  0  0  0  0999 V2000
   27.1512  -20.4467  -17.6163 N   0  0  0  0  0  0  0  0  0  0  0  0
   26.6293  -19.6284  -16.5580 C   0  0  1  0  0  0  0  0  0  0  0  0
   25.7547  -18.5355  -17.1124 C   0  0  0  0  0  0  0  0  0  0  0  0
   26.5488  -17.6255  -17.9853 C   0  0  0  0  0  0  0  0  0  0  0  0
   26.3458  -17.4112  -19.3251 C   0  0  0  0  0  0  0  0  0  0  0  0
   27.2730  -16.5226  -19.7343 N   0  0  0  0  0  0  0  0  0  0  0  0
   28.0172  -16.2048  -18.6805 C   0  0  0  0  0  0  0  0  0  0  0  0
   27.5894  -16.8693  -17.6022 N   0  0  0  0  0  0  0  0  0  0  0  0
   25.9555  -20.4005  -15.5032 C   0  0  0  0  0  0  0  0  0  0  0  0
   25.1892  -21.3339  -15.8640 O   0  0  0  0  0  0  0  0  0  0  0  0
   25.5115  -19.4240   -8.5883 C   0  0  0  0  0  0  0  0  0  0  0  0
   25.9634  -21.1263   -9.0912 S   0  0  0  0  0  0  0  0  0  0  0  0
   25.2433  -21.4215  -10.7036 C   0  0  0  0  0  0  0  0  0  0  0  0
   26.0036  -20.7423  -11.8183 C   0  0  0  0  0  0  0  0  0  0  0  0
   25.3419  -20.9388  -13.1571 C   0  0  2  0  0  0  0  0  0  0  0  0
   26.1034  -20.1737  -14.1245 N   0  0  0  0  0  0  0  0  0  0  0  0
   23.9485  -20.4074  -13.1331 C   0  0  0  0  0  0  0  0  0  0  0  0
   23.6788  -19.2691  -13.6328 O   0  0  0  0  0  0  0  0  0  0  0  0
   18.6822  -21.0609  -17.7621 C   0  0  0  0  0  0  0  0  0  0  0  0
   20.3146  -21.3427  -17.0727 S   0  0  0  0  0  0  0  0  0  0  0  0
   20.2330  -21.2950  -15.2602 C   0  0  0  0  0  0  0  0  0  0  0  0
   21.6049  -21.3488  -14.6460 C   0  0  0  0  0  0  0  0  0  0  0  0
   21.5272  -21.1182  -13.1799 C   0  0  2  0  0  0  0  0  0  0  0  0
   22.8596  -21.1212  -12.5642 N   0  0  0  0  0  0  0  0  0  0  0  0
   20.6214  -22.0198  -12.4352 C   0  0  0  0  0  0  0  0  0  0  0  0
   20.8561  -23.2083  -12.1268 O   0  0  0  0  0  0  0  0  0  0  0  0
   19.3529  -21.5669  -11.9974 O   0  0  0  0  0  0  0  0  0  0  0  0
  2  1  1  6
  2  3  1  0
  4  3  1  0
  5  4  2  0
  6  5  1  0
  7  6  1  0
  7  8  2  0
  8  4  1  0
  9  2  1  0
  9 10  2  0
 12 11  1  0
 13 14  1  0
 13 12  1  0
 15 14  1  1
 15 16  1  0
 16  9  1  0
 17 24  1  0
 17 15  1  0
 18 17  2  0
 20 19  1  0
 21 20  1  0
 22 21  1  0
 23 22  1  6
 23 24  1  0
 23 25  1  0
 25 27  1  0
 26 25  2  0
M  END
$$$$
