HMM.pdb
     RDKit          3D

 27 27  0  0  1  0  0  0  0  0999 V2000
   27.6230  -21.2082  -15.8289 N   0  0  0  0  0  0  0  0  0  0  0  0
   27.2395  -20.2668  -14.8147 C   0  0  1  0  0  0  0  0  0  0  0  0
   26.5364  -19.0838  -15.4252 C   0  0  0  0  0  0  0  0  0  0  0  0
   27.4722  -18.3117  -16.2907 C   0  0  0  0  0  0  0  0  0  0  0  0
   28.8174  -18.1457  -16.0785 C   0  0  0  0  0  0  0  0  0  0  0  0
   29.2918  -17.3862  -17.0859 N   0  0  0  0  0  0  0  0  0  0  0  0
   28.2712  -17.0978  -17.8863 C   0  0  0  0  0  0  0  0  0  0  0  0
   27.1505  -17.6550  -17.4163 N   0  0  0  0  0  0  0  0  0  0  0  0
   26.4646  -20.8723  -13.7211 C   0  0  0  0  0  0  0  0  0  0  0  0
   25.6416  -21.7780  -14.0227 O   0  0  0  0  0  0  0  0  0  0  0  0
   26.6620  -19.0712   -7.3359 C   0  0  0  0  0  0  0  0  0  0  0  0
   25.9415  -20.7545   -7.2861 S   0  0  0  0  0  0  0  0  0  0  0  0
   25.2686  -21.1013   -8.9087 C   0  0  0  0  0  0  0  0  0  0  0  0
   26.1577  -20.6135  -10.0283 C   0  0  0  0  0  0  0  0  0  0  0  0
   25.6449  -21.0312  -11.3817 C   0  0  2  0  0  0  0  0  0  0  0  0
   26.5747  -20.5152  -12.3668 N   0  0  0  0  0  0  0  0  0  0  0  0
   24.3060  -20.4274  -11.6411 C   0  0  0  0  0  0  0  0  0  0  0  0
   24.2018  -19.3184  -12.2555 O   0  0  0  0  0  0  0  0  0  0  0  0
   22.1133  -21.0343  -16.3036 C   0  0  0  0  0  0  0  0  0  0  0  0
   20.6264  -21.6887  -15.5420 S   0  0  0  0  0  0  0  0  0  0  0  0
   20.8328  -21.7453  -13.7397 C   0  0  0  0  0  0  0  0  0  0  0  0
   21.7859  -20.6845  -13.2614 C   0  0  0  0  0  0  0  0  0  0  0  0
   21.7935  -20.6241  -11.7765 C   0  0  2  0  0  0  0  0  0  0  0  0
   23.0909  -21.0374  -11.2286 N   0  0  0  0  0  0  0  0  0  0  0  0
   20.7000  -21.3540  -11.0986 C   0  0  0  0  0  0  0  0  0  0  0  0
   20.8289  -22.3606  -10.3686 O   0  0  0  0  0  0  0  0  0  0  0  0
   19.3551  -20.9337  -11.2419 O   0  0  0  0  0  0  0  0  0  0  0  0
  2  1  1  6
  2  3  1  0
  4  3  1  0
  5  4  2  0
  6  5  1  0
  7  6  1  0
  7  8  2  0
  8  4  1  0
  9  2  1  0
  9 10  2  0
 12 11  1  0
 13 14  1  0
 13 12  1  0
 15 14  1  1
 15 16  1  0
 16  9  1  0
 17 24  1  0
 17 15  1  0
 18 17  2  0
 20 19  1  0
 21 20  1  0
 22 21  1  0
 23 22  1  6
 23 24  1  0
 23 25  1  0
 25 27  1  0
 26 25  2  0
M  END
$$$$
