HMM.pdb
     RDKit          3D

 27 27  0  0  1  0  0  0  0  0999 V2000
   24.7790  -20.7715  -16.6719 N   0  0  0  0  0  0  0  0  0  0  0  0
   24.6066  -20.1714  -15.3788 C   0  0  1  0  0  0  0  0  0  0  0  0
   23.1446  -20.0352  -15.0460 C   0  0  0  0  0  0  0  0  0  0  0  0
   22.4598  -19.1746  -16.0515 C   0  0  0  0  0  0  0  0  0  0  0  0
   21.6020  -19.6046  -17.0321 C   0  0  0  0  0  0  0  0  0  0  0  0
   21.2051  -18.5175  -17.7230 N   0  0  0  0  0  0  0  0  0  0  0  0
   21.7999  -17.4592  -17.1830 C   0  0  0  0  0  0  0  0  0  0  0  0
   22.5709  -17.8414  -16.1598 N   0  0  0  0  0  0  0  0  0  0  0  0
   25.3592  -20.8535  -14.3152 C   0  0  0  0  0  0  0  0  0  0  0  0
   25.1551  -22.0871  -14.1567 O   0  0  0  0  0  0  0  0  0  0  0  0
   31.7320  -22.0014  -12.3633 C   0  0  0  0  0  0  0  0  0  0  0  0
   30.9099  -20.7505  -11.3076 S   0  0  0  0  0  0  0  0  0  0  0  0
   29.1647  -21.1478  -11.2600 C   0  0  0  0  0  0  0  0  0  0  0  0
   28.4007  -20.5729  -12.4294 C   0  0  0  0  0  0  0  0  0  0  0  0
   26.9493  -20.9754  -12.4106 C   0  0  2  0  0  0  0  0  0  0  0  0
   26.2877  -20.2311  -13.4640 N   0  0  0  0  0  0  0  0  0  0  0  0
   26.3217  -20.6029  -11.1099 C   0  0  0  0  0  0  0  0  0  0  0  0
   25.9242  -19.4132  -10.8977 O   0  0  0  0  0  0  0  0  0  0  0  0
   28.3302  -19.9785   -4.3236 C   0  0  0  0  0  0  0  0  0  0  0  0
   27.8778  -19.0917   -5.8164 S   0  0  0  0  0  0  0  0  0  0  0  0
   26.5133  -19.9493   -6.6511 C   0  0  0  0  0  0  0  0  0  0  0  0
   26.9003  -20.3777   -8.0400 C   0  0  0  0  0  0  0  0  0  0  0  0
   25.7749  -21.0938   -8.6954 C   0  0  2  0  0  0  0  0  0  0  0  0
   26.1323  -21.5304  -10.0504 N   0  0  0  0  0  0  0  0  0  0  0  0
   24.4825  -20.3747   -8.7176 C   0  0  0  0  0  0  0  0  0  0  0  0
   24.1094  -19.5583   -9.5878 O   0  0  0  0  0  0  0  0  0  0  0  0
   23.5267  -20.5773   -7.6923 O   0  0  0  0  0  0  0  0  0  0  0  0
  2  1  1  6
  2  3  1  0
  4  3  1  0
  5  4  2  0
  6  5  1  0
  7  6  1  0
  7  8  2  0
  8  4  1  0
  9  2  1  0
  9 10  2  0
 12 11  1  0
 13 14  1  0
 13 12  1  0
 15 14  1  1
 15 16  1  0
 16  9  1  0
 17 24  1  0
 17 15  1  0
 18 17  2  0
 20 19  1  0
 21 20  1  0
 22 21  1  0
 23 22  1  6
 23 24  1  0
 23 25  1  0
 25 27  1  0
 26 25  2  0
M  END
$$$$
