HMM.pdb
     RDKit          3D

 27 27  0  0  1  0  0  0  0  0999 V2000
   26.4758  -15.2832  -15.9908 N   0  0  0  0  0  0  0  0  0  0  0  0
   26.3105  -14.0979  -16.7844 C   0  0  1  0  0  0  0  0  0  0  0  0
   24.8560  -13.8642  -17.0951 C   0  0  0  0  0  0  0  0  0  0  0  0
   24.2818  -15.0375  -17.8123 C   0  0  0  0  0  0  0  0  0  0  0  0
   23.3069  -15.8771  -17.3360 C   0  0  0  0  0  0  0  0  0  0  0  0
   23.0738  -16.8023  -18.2881 N   0  0  0  0  0  0  0  0  0  0  0  0
   23.8789  -16.5372  -19.3113 C   0  0  0  0  0  0  0  0  0  0  0  0
   24.6249  -15.4617  -19.0386 N   0  0  0  0  0  0  0  0  0  0  0  0
   26.9532  -12.9113  -16.1997 C   0  0  0  0  0  0  0  0  0  0  0  0
   26.9870  -12.8273  -14.9426 O   0  0  0  0  0  0  0  0  0  0  0  0
   32.2698   -9.3730  -17.4979 C   0  0  0  0  0  0  0  0  0  0  0  0
   31.8635  -11.1213  -17.8634 S   0  0  0  0  0  0  0  0  0  0  0  0
   30.3383  -11.5102  -17.0100 C   0  0  0  0  0  0  0  0  0  0  0  0
   29.3657  -10.3546  -16.9920 C   0  0  0  0  0  0  0  0  0  0  0  0
   28.0863  -10.7021  -16.2770 C   0  0  2  0  0  0  0  0  0  0  0  0
   27.5313  -11.8660  -16.9393 N   0  0  0  0  0  0  0  0  0  0  0  0
   27.1042   -9.5856  -16.3930 C   0  0  0  0  0  0  0  0  0  0  0  0
   27.3754   -8.4316  -15.9314 O   0  0  0  0  0  0  0  0  0  0  0  0
   24.6408   -7.1020  -21.5540 C   0  0  0  0  0  0  0  0  0  0  0  0
   23.1686   -7.0133  -20.5323 S   0  0  0  0  0  0  0  0  0  0  0  0
   23.6128   -7.2668  -18.7909 C   0  0  0  0  0  0  0  0  0  0  0  0
   24.5949   -8.3950  -18.6321 C   0  0  0  0  0  0  0  0  0  0  0  0
   24.9254   -8.5981  -17.1975 C   0  0  2  0  0  0  0  0  0  0  0  0
   25.8339   -9.7358  -17.0113 N   0  0  0  0  0  0  0  0  0  0  0  0
   23.7691   -8.7163  -16.2827 C   0  0  0  0  0  0  0  0  0  0  0  0
   23.3635   -9.7677  -15.7413 O   0  0  0  0  0  0  0  0  0  0  0  0
   23.0005   -7.5769  -15.9407 O   0  0  0  0  0  0  0  0  0  0  0  0
  2  1  1  1
  2  3  1  0
  4  3  1  0
  5  4  2  0
  6  5  1  0
  7  6  1  0
  7  8  2  0
  8  4  1  0
  9  2  1  0
  9 10  2  0
 12 11  1  0
 13 14  1  0
 13 12  1  0
 15 14  1  6
 15 16  1  0
 16  9  1  0
 17 24  1  0
 17 15  1  0
 18 17  2  0
 20 19  1  0
 21 20  1  0
 22 21  1  0
 23 22  1  6
 23 24  1  0
 23 25  1  0
 25 27  1  0
 26 25  2  0
M  END
$$$$
