HMM.pdb
     RDKit          3D

 27 27  0  0  1  0  0  0  0  0999 V2000
   21.3523  -11.1966  -20.0239 N   0  0  0  0  0  0  0  0  0  0  0  0
   22.1239  -10.0449  -19.6495 C   0  0  1  0  0  0  0  0  0  0  0  0
   22.2851   -9.1096  -20.8183 C   0  0  0  0  0  0  0  0  0  0  0  0
   23.0121   -9.7856  -21.9297 C   0  0  0  0  0  0  0  0  0  0  0  0
   24.3716   -9.8024  -22.1128 C   0  0  0  0  0  0  0  0  0  0  0  0
   24.6174  -10.5181  -23.2282 N   0  0  0  0  0  0  0  0  0  0  0  0
   23.4479  -10.9247  -23.7103 C   0  0  0  0  0  0  0  0  0  0  0  0
   22.4549  -10.4865  -22.9297 N   0  0  0  0  0  0  0  0  0  0  0  0
   21.6066   -9.3605  -18.4551 C   0  0  0  0  0  0  0  0  0  0  0  0
   20.3883   -9.0376  -18.4508 O   0  0  0  0  0  0  0  0  0  0  0  0
   21.6125   -8.7290  -10.7488 C   0  0  0  0  0  0  0  0  0  0  0  0
   22.5600   -9.3071  -12.2058 S   0  0  0  0  0  0  0  0  0  0  0  0
   21.8734   -8.5015  -13.6499 C   0  0  0  0  0  0  0  0  0  0  0  0
   22.4460   -9.0304  -14.9438 C   0  0  0  0  0  0  0  0  0  0  0  0
   21.7540   -8.4492  -16.1489 C   0  0  2  0  0  0  0  0  0  0  0  0
   22.3703   -9.0407  -17.3200 N   0  0  0  0  0  0  0  0  0  0  0  0
   21.9601   -6.9732  -16.2073 C   0  0  0  0  0  0  0  0  0  0  0  0
   22.9138   -6.4770  -16.8874 O   0  0  0  0  0  0  0  0  0  0  0  0
   23.0869   -3.0113  -19.8884 C   0  0  0  0  0  0  0  0  0  0  0  0
   21.4480   -2.5394  -19.3311 S   0  0  0  0  0  0  0  0  0  0  0  0
   21.2806   -2.8802  -17.5563 C   0  0  0  0  0  0  0  0  0  0  0  0
   21.2646   -4.3584  -17.2789 C   0  0  0  0  0  0  0  0  0  0  0  0
   21.1585   -4.6119  -15.8184 C   0  0  2  0  0  0  0  0  0  0  0  0
   21.1248   -6.0494  -15.5236 N   0  0  0  0  0  0  0  0  0  0  0  0
   20.0457   -3.9252  -15.1268 C   0  0  0  0  0  0  0  0  0  0  0  0
   18.9293   -4.4196  -14.8581 O   0  0  0  0  0  0  0  0  0  0  0  0
   20.1819   -2.5821  -14.6987 O   0  0  0  0  0  0  0  0  0  0  0  0
  2  1  1  6
  2  3  1  0
  4  3  1  0
  5  4  2  0
  6  5  1  0
  7  6  1  0
  7  8  2  0
  8  4  1  0
  9  2  1  0
  9 10  2  0
 12 11  1  0
 13 14  1  0
 13 12  1  0
 15 14  1  1
 15 16  1  0
 16  9  1  0
 17 24  1  0
 17 15  1  0
 18 17  2  0
 20 19  1  0
 21 20  1  0
 22 21  1  0
 23 22  1  6
 23 24  1  0
 23 25  1  0
 25 27  1  0
 26 25  2  0
M  END
$$$$
