HMM.pdb
     RDKit          3D

 27 27  0  0  1  0  0  0  0  0999 V2000
   17.2812  -10.6359  -16.1614 N   0  0  0  0  0  0  0  0  0  0  0  0
   18.2673  -10.3629  -15.1539 C   0  0  1  0  0  0  0  0  0  0  0  0
   19.6564  -10.4990  -15.7183 C   0  0  0  0  0  0  0  0  0  0  0  0
   19.8805  -11.8835  -16.2219 C   0  0  0  0  0  0  0  0  0  0  0  0
   19.8920  -13.0266  -15.4634 C   0  0  0  0  0  0  0  0  0  0  0  0
   20.1265  -14.0592  -16.2973 N   0  0  0  0  0  0  0  0  0  0  0  0
   20.2539  -13.5640  -17.5237 C   0  0  0  0  0  0  0  0  0  0  0  0
   20.1066  -12.2354  -17.4972 N   0  0  0  0  0  0  0  0  0  0  0  0
   18.0652   -9.0739  -14.4753 C   0  0  0  0  0  0  0  0  0  0  0  0
   17.8133   -8.0702  -15.1948 O   0  0  0  0  0  0  0  0  0  0  0  0
   15.8645   -5.2062   -8.0562 C   0  0  0  0  0  0  0  0  0  0  0  0
   16.1496   -6.8428   -8.8278 S   0  0  0  0  0  0  0  0  0  0  0  0
   16.9806   -6.5654  -10.3894 C   0  0  0  0  0  0  0  0  0  0  0  0
   17.1179   -7.8248  -11.2120 C   0  0  0  0  0  0  0  0  0  0  0  0
   17.8611   -7.5822  -12.4995 C   0  0  2  0  0  0  0  0  0  0  0  0
   18.1323   -8.8801  -13.0853 N   0  0  0  0  0  0  0  0  0  0  0  0
   19.1645   -6.9091  -12.2304 C   0  0  0  0  0  0  0  0  0  0  0  0
   20.1866   -7.5855  -11.8894 O   0  0  0  0  0  0  0  0  0  0  0  0
   24.1123   -5.2020  -17.0119 C   0  0  0  0  0  0  0  0  0  0  0  0
   22.6329   -5.9464  -16.3213 S   0  0  0  0  0  0  0  0  0  0  0  0
   22.1208   -5.0340  -14.8383 C   0  0  0  0  0  0  0  0  0  0  0  0
   20.8849   -5.6320  -14.2238 C   0  0  0  0  0  0  0  0  0  0  0  0
   20.5332   -4.9207  -12.9672 C   0  0  2  0  0  0  0  0  0  0  0  0
   19.3437   -5.5035  -12.3348 N   0  0  0  0  0  0  0  0  0  0  0  0
   20.3811   -3.4538  -13.0807 C   0  0  0  0  0  0  0  0  0  0  0  0
   19.3090   -2.8369  -13.2624 O   0  0  0  0  0  0  0  0  0  0  0  0
   21.5087   -2.6022  -12.9851 O   0  0  0  0  0  0  0  0  0  0  0  0
  2  1  1  6
  2  3  1  0
  4  3  1  0
  5  4  2  0
  6  5  1  0
  7  6  1  0
  7  8  2  0
  8  4  1  0
  9  2  1  0
  9 10  2  0
 12 11  1  0
 13 14  1  0
 13 12  1  0
 15 14  1  1
 15 16  1  0
 16  9  1  0
 17 24  1  0
 17 15  1  0
 18 17  2  0
 20 19  1  0
 21 20  1  0
 22 21  1  0
 23 22  1  6
 23 24  1  0
 23 25  1  0
 25 27  1  0
 26 25  2  0
M  END
$$$$
