MPW.pdb
     RDKit          3D

 30 32  0  0  1  0  0  0  0  0999 V2000
   31.3660  -21.6290  -20.9668 C   0  0  0  0  0  0  0  0  0  0  0  0
   30.3731  -21.8191  -19.4546 S   0  0  0  0  0  0  0  0  0  0  0  0
   28.6905  -21.1891  -19.6895 C   0  0  0  0  0  0  0  0  0  0  0  0
   27.8827  -21.3926  -18.4451 C   0  0  0  0  0  0  0  0  0  0  0  0
   28.5198  -20.7897  -17.2099 C   0  0  2  0  0  0  0  0  0  0  0  0
   29.5951  -21.6060  -16.7642 N   0  0  0  0  0  0  0  0  0  0  0  0
   27.5547  -20.3400  -16.2243 C   0  0  0  0  0  0  0  0  0  0  0  0
   27.3013  -21.1822  -15.2845 O   0  0  0  0  0  0  0  0  0  0  0  0
   26.8546  -19.0865  -16.1701 N   0  0  0  0  0  0  0  0  0  0  0  0
   27.1531  -18.0123  -17.0673 C   0  0  0  0  0  0  0  0  0  0  0  0
   26.7105  -16.7605  -16.2800 C   0  0  0  0  0  0  0  0  0  0  0  0
   25.5305  -17.2600  -15.4938 C   0  0  0  0  0  0  0  0  0  0  0  0
   25.8309  -18.7011  -15.2790 C   0  0  1  0  0  0  0  0  0  0  0  0
   24.6054  -19.5410  -15.3489 C   0  0  0  0  0  0  0  0  0  0  0  0
   24.4595  -20.4909  -16.1264 O   0  0  0  0  0  0  0  0  0  0  0  0
   23.5563  -19.2127  -14.4600 N   0  0  0  0  0  0  0  0  0  0  0  0
   22.3839  -20.0525  -14.2316 C   0  0  1  0  0  0  0  0  0  0  0  0
   22.9012  -21.2772  -13.5286 C   0  0  0  0  0  0  0  0  0  0  0  0
   23.3501  -21.0625  -12.1419 C   0  0  0  0  0  0  0  0  0  0  0  0
   22.5199  -20.6710  -11.1048 C   0  0  0  0  0  0  0  0  0  0  0  0
   23.2602  -20.5393   -9.9932 N   0  0  0  0  0  0  0  0  0  0  0  0
   24.5457  -20.8273  -10.2476 C   0  0  0  0  0  0  0  0  0  0  0  0
   25.6567  -20.8431   -9.4237 C   0  0  0  0  0  0  0  0  0  0  0  0
   26.8734  -21.2003   -9.9571 C   0  0  0  0  0  0  0  0  0  0  0  0
   26.9399  -21.5283  -11.2899 C   0  0  0  0  0  0  0  0  0  0  0  0
   25.8320  -21.5106  -12.1066 C   0  0  0  0  0  0  0  0  0  0  0  0
   24.6117  -21.1574  -11.5949 C   0  0  0  0  0  0  0  0  0  0  0  0
   21.2834  -19.3473  -13.6229 C   0  0  0  0  0  0  0  0  0  0  0  0
   21.4550  -18.2695  -13.0125 O   0  0  0  0  0  0  0  0  0  0  0  0
   19.9915  -19.8452  -13.6956 O   0  0  0  0  0  0  0  0  0  0  0  0
  1  2  1  0
  2  3  1  0
  4  3  1  0
  4  5  1  0
  5  7  1  0
  5  6  1  1
  7  8  2  0
  9 13  1  0
  9  7  1  0
 10  9  1  0
 11 10  1  0
 11 12  1  0
 12 13  1  0
 13 14  1  6
 14 15  2  0
 16 14  1  0
 16 17  1  0
 17 28  1  0
 17 18  1  1
 19 18  1  0
 20 19  2  0
 21 20  1  0
 22 21  1  0
 22 27  2  0
 23 22  1  0
 24 23  2  0
 24 25  1  0
 25 26  2  0
 26 27  1  0
 27 19  1  0
 28 29  2  0
 28 30  1  0
M  END
$$$$
