MPW.pdb
     RDKit          3D

 30 32  0  0  1  0  0  0  0  0999 V2000
   23.4622  -23.3825  -17.4386 C   0  0  0  0  0  0  0  0  0  0  0  0
   24.6217  -23.7534  -18.7903 S   0  0  0  0  0  0  0  0  0  0  0  0
   26.2168  -22.9337  -18.5314 C   0  0  0  0  0  0  0  0  0  0  0  0
   26.4451  -22.6941  -17.0709 C   0  0  0  0  0  0  0  0  0  0  0  0
   27.7264  -21.9405  -16.7789 C   0  0  2  0  0  0  0  0  0  0  0  0
   28.8477  -22.6790  -17.2463 N   0  0  0  0  0  0  0  0  0  0  0  0
   27.7829  -21.3983  -15.4343 C   0  0  0  0  0  0  0  0  0  0  0  0
   28.2947  -22.1820  -14.5507 O   0  0  0  0  0  0  0  0  0  0  0  0
   27.3416  -20.1110  -14.9733 N   0  0  0  0  0  0  0  0  0  0  0  0
   26.8283  -19.1203  -15.8693 C   0  0  0  0  0  0  0  0  0  0  0  0
   27.1119  -17.7947  -15.1310 C   0  0  0  0  0  0  0  0  0  0  0  0
   26.9561  -18.1772  -13.6854 C   0  0  0  0  0  0  0  0  0  0  0  0
   27.3470  -19.6122  -13.6536 C   0  0  1  0  0  0  0  0  0  0  0  0
   26.5181  -20.3932  -12.6970 C   0  0  0  0  0  0  0  0  0  0  0  0
   25.4154  -20.8797  -12.9719 O   0  0  0  0  0  0  0  0  0  0  0  0
   27.0465  -20.5774  -11.3987 N   0  0  0  0  0  0  0  0  0  0  0  0
   26.3264  -21.2253  -10.3061 C   0  0  1  0  0  0  0  0  0  0  0  0
   27.3755  -21.5676   -9.2844 C   0  0  0  0  0  0  0  0  0  0  0  0
   27.4939  -20.6184   -8.1640 C   0  0  0  0  0  0  0  0  0  0  0  0
   26.7896  -19.4296   -8.0706 C   0  0  0  0  0  0  0  0  0  0  0  0
   27.1629  -18.8007   -6.9453 N   0  0  0  0  0  0  0  0  0  0  0  0
   28.0839  -19.5212   -6.2875 C   0  0  0  0  0  0  0  0  0  0  0  0
   28.7418  -19.2874   -5.0933 C   0  0  0  0  0  0  0  0  0  0  0  0
   29.6414  -20.2229   -4.6372 C   0  0  0  0  0  0  0  0  0  0  0  0
   29.8533  -21.3558   -5.3856 C   0  0  0  0  0  0  0  0  0  0  0  0
   29.1971  -21.5842   -6.5739 C   0  0  0  0  0  0  0  0  0  0  0  0
   28.2980  -20.6650   -7.0453 C   0  0  0  0  0  0  0  0  0  0  0  0
   25.1747  -20.4822   -9.8583 C   0  0  0  0  0  0  0  0  0  0  0  0
   25.0630  -19.2559  -10.0757 O   0  0  0  0  0  0  0  0  0  0  0  0
   24.1480  -21.1080   -9.1681 O   0  0  0  0  0  0  0  0  0  0  0  0
  1  2  1  0
  2  3  1  0
  4  3  1  0
  4  5  1  0
  5  7  1  0
  5  6  1  1
  7  8  2  0
  9 13  1  0
  9  7  1  0
 10  9  1  0
 11 10  1  0
 11 12  1  0
 12 13  1  0
 13 14  1  1
 14 15  2  0
 16 14  1  0
 16 17  1  0
 17 28  1  0
 17 18  1  1
 19 18  1  0
 20 19  2  0
 21 20  1  0
 22 21  1  0
 22 27  2  0
 23 22  1  0
 24 23  2  0
 24 25  1  0
 25 26  2  0
 26 27  1  0
 27 19  1  0
 28 29  2  0
 28 30  1  0
M  END
$$$$
