MPW.pdb
     RDKit          3D

 30 32  0  0  1  0  0  0  0  0999 V2000
   25.7818  -15.2702  -14.8672 C   0  0  0  0  0  0  0  0  0  0  0  0
   26.5751  -15.7651  -16.4275 S   0  0  0  0  0  0  0  0  0  0  0  0
   27.1610  -17.4781  -16.3526 C   0  0  0  0  0  0  0  0  0  0  0  0
   26.1894  -18.3251  -15.5902 C   0  0  0  0  0  0  0  0  0  0  0  0
   26.5915  -19.7839  -15.5181 C   0  0  2  0  0  0  0  0  0  0  0  0
   26.8562  -20.2850  -16.8219 N   0  0  0  0  0  0  0  0  0  0  0  0
   25.7424  -20.5738  -14.6464 C   0  0  0  0  0  0  0  0  0  0  0  0
   24.7370  -21.1328  -15.2237 O   0  0  0  0  0  0  0  0  0  0  0  0
   25.8832  -20.8043  -13.2352 N   0  0  0  0  0  0  0  0  0  0  0  0
   27.0988  -20.5153  -12.5376 C   0  0  0  0  0  0  0  0  0  0  0  0
   27.0478  -21.4716  -11.3270 C   0  0  0  0  0  0  0  0  0  0  0  0
   25.5779  -21.5447  -11.0203 C   0  0  0  0  0  0  0  0  0  0  0  0
   24.9284  -21.3348  -12.3422 C   0  0  1  0  0  0  0  0  0  0  0  0
   23.6806  -20.5335  -12.2276 C   0  0  0  0  0  0  0  0  0  0  0  0
   23.6463  -19.3521  -11.8655 O   0  0  0  0  0  0  0  0  0  0  0  0
   22.4713  -21.1862  -12.5597 N   0  0  0  0  0  0  0  0  0  0  0  0
   21.1536  -20.5637  -12.4696 C   0  0  1  0  0  0  0  0  0  0  0  0
   21.2638  -19.2819  -13.2484 C   0  0  0  0  0  0  0  0  0  0  0  0
   21.3527  -19.4411  -14.7103 C   0  0  0  0  0  0  0  0  0  0  0  0
   20.6272  -20.3683  -15.4398 C   0  0  0  0  0  0  0  0  0  0  0  0
   20.9762  -20.2615  -16.7313 N   0  0  0  0  0  0  0  0  0  0  0  0
   21.9015  -19.3029  -16.8904 C   0  0  0  0  0  0  0  0  0  0  0  0
   22.5410  -18.8324  -18.0231 C   0  0  0  0  0  0  0  0  0  0  0  0
   23.4509  -17.8086  -17.8944 C   0  0  0  0  0  0  0  0  0  0  0  0
   23.6910  -17.2912  -16.6442 C   0  0  0  0  0  0  0  0  0  0  0  0
   23.0529  -17.7629  -15.5194 C   0  0  0  0  0  0  0  0  0  0  0  0
   22.1440  -18.7818  -15.6263 C   0  0  0  0  0  0  0  0  0  0  0  0
   20.0731  -21.4580  -12.8038 C   0  0  0  0  0  0  0  0  0  0  0  0
   18.8787  -21.1390  -12.6163 O   0  0  0  0  0  0  0  0  0  0  0  0
   20.3260  -22.7082  -13.3473 O   0  0  0  0  0  0  0  0  0  0  0  0
  1  2  1  0
  2  3  1  0
  4  3  1  0
  4  5  1  0
  5  7  1  0
  5  6  1  6
  7  8  2  0
  9 13  1  0
  9  7  1  0
 10  9  1  0
 11 10  1  0
 11 12  1  0
 12 13  1  0
 13 14  1  1
 14 15  2  0
 16 14  1  0
 16 17  1  0
 17 28  1  0
 17 18  1  6
 19 18  1  0
 20 19  2  0
 21 20  1  0
 22 21  1  0
 22 27  2  0
 23 22  1  0
 24 23  2  0
 24 25  1  0
 25 26  2  0
 26 27  1  0
 27 19  1  0
 28 29  2  0
 28 30  1  0
M  END
$$$$
