MPW.pdb
     RDKit          3D

 30 32  0  0  1  0  0  0  0  0999 V2000
   24.4305  -16.0060  -16.5074 C   0  0  0  0  0  0  0  0  0  0  0  0
   23.9353  -17.0699  -17.8973 S   0  0  0  0  0  0  0  0  0  0  0  0
   24.9215  -18.5892  -17.9458 C   0  0  0  0  0  0  0  0  0  0  0  0
   25.0142  -19.1906  -16.5774 C   0  0  0  0  0  0  0  0  0  0  0  0
   25.7684  -20.5041  -16.5482 C   0  0  2  0  0  0  0  0  0  0  0  0
   25.1858  -21.4250  -17.4613 N   0  0  0  0  0  0  0  0  0  0  0  0
   26.0610  -20.9715  -15.2062 C   0  0  0  0  0  0  0  0  0  0  0  0
   25.2481  -21.8578  -14.7474 O   0  0  0  0  0  0  0  0  0  0  0  0
   27.1321  -20.5701  -14.3367 N   0  0  0  0  0  0  0  0  0  0  0  0
   28.2147  -19.7540  -14.7946 C   0  0  0  0  0  0  0  0  0  0  0  0
   29.3651  -20.1201  -13.8328 C   0  0  0  0  0  0  0  0  0  0  0  0
   28.6464  -20.3954  -12.5413 C   0  0  0  0  0  0  0  0  0  0  0  0
   27.3140  -20.8945  -12.9757 C   0  0  1  0  0  0  0  0  0  0  0  0
   26.2245  -20.4233  -12.0796 C   0  0  0  0  0  0  0  0  0  0  0  0
   25.4938  -19.4571  -12.3256 O   0  0  0  0  0  0  0  0  0  0  0  0
   26.0320  -21.1424  -10.8777 N   0  0  0  0  0  0  0  0  0  0  0  0
   25.0692  -20.7689   -9.8455 C   0  0  1  0  0  0  0  0  0  0  0  0
   25.0305  -21.9342   -8.8956 C   0  0  0  0  0  0  0  0  0  0  0  0
   25.4393  -21.6311   -7.5131 C   0  0  0  0  0  0  0  0  0  0  0  0
   24.8951  -22.2301   -6.3893 C   0  0  0  0  0  0  0  0  0  0  0  0
   25.4727  -21.6980   -5.3010 N   0  0  0  0  0  0  0  0  0  0  0  0
   26.3774  -20.7722   -5.6542 C   0  0  0  0  0  0  0  0  0  0  0  0
   27.2171  -19.9807   -4.8914 C   0  0  0  0  0  0  0  0  0  0  0  0
   28.0723  -19.1130   -5.5301 C   0  0  0  0  0  0  0  0  0  0  0  0
   28.0606  -19.0646   -6.9034 C   0  0  0  0  0  0  0  0  0  0  0  0
   27.2228  -19.8535   -7.6587 C   0  0  0  0  0  0  0  0  0  0  0  0
   26.3636  -20.7235   -7.0419 C   0  0  0  0  0  0  0  0  0  0  0  0
   25.3049  -19.4601   -9.2883 C   0  0  0  0  0  0  0  0  0  0  0  0
   24.4037  -18.8319   -8.6909 O   0  0  0  0  0  0  0  0  0  0  0  0
   26.5463  -18.8527   -9.3981 O   0  0  0  0  0  0  0  0  0  0  0  0
  1  2  1  0
  2  3  1  0
  4  3  1  0
  4  5  1  0
  5  7  1  0
  5  6  1  1
  7  8  2  0
  9 13  1  0
  9  7  1  0
 10  9  1  0
 11 10  1  0
 11 12  1  0
 12 13  1  0
 13 14  1  1
 14 15  2  0
 16 14  1  0
 16 17  1  0
 17 28  1  0
 17 18  1  1
 19 18  1  0
 20 19  2  0
 21 20  1  0
 22 21  1  0
 22 27  2  0
 23 22  1  0
 24 23  2  0
 24 25  1  0
 25 26  2  0
 26 27  1  0
 27 19  1  0
 28 29  2  0
 28 30  1  0
M  END
$$$$
