MPW.pdb
     RDKit          3D

 30 32  0  0  1  0  0  0  0  0999 V2000
   21.6914  -16.3454  -14.7597 C   0  0  0  0  0  0  0  0  0  0  0  0
   20.2135  -17.0966  -15.5082 S   0  0  0  0  0  0  0  0  0  0  0  0
   20.3937  -18.8933  -15.6581 C   0  0  0  0  0  0  0  0  0  0  0  0
   21.2178  -19.4275  -14.5274 C   0  0  0  0  0  0  0  0  0  0  0  0
   21.4543  -20.9215  -14.6099 C   0  0  2  0  0  0  0  0  0  0  0  0
   20.2134  -21.6154  -14.6155 N   0  0  0  0  0  0  0  0  0  0  0  0
   22.4912  -21.3917  -13.7106 C   0  0  0  0  0  0  0  0  0  0  0  0
   22.1367  -21.5011  -12.4781 O   0  0  0  0  0  0  0  0  0  0  0  0
   23.8488  -21.7442  -14.0227 N   0  0  0  0  0  0  0  0  0  0  0  0
   24.3255  -21.8043  -15.3706 C   0  0  0  0  0  0  0  0  0  0  0  0
   25.5021  -22.7998  -15.2856 C   0  0  0  0  0  0  0  0  0  0  0  0
   26.0639  -22.5372  -13.9160 C   0  0  0  0  0  0  0  0  0  0  0  0
   24.8844  -22.0882  -13.1284 C   0  0  1  0  0  0  0  0  0  0  0  0
   25.2389  -21.0195  -12.1566 C   0  0  0  0  0  0  0  0  0  0  0  0
   25.0370  -19.8149  -12.3468 O   0  0  0  0  0  0  0  0  0  0  0  0
   25.8427  -21.4328  -10.9470 N   0  0  0  0  0  0  0  0  0  0  0  0
   26.7139  -20.5870  -10.1361 C   0  0  1  0  0  0  0  0  0  0  0  0
   26.2512  -20.7808   -8.7183 C   0  0  0  0  0  0  0  0  0  0  0  0
   26.9607  -19.9738   -7.7105 C   0  0  0  0  0  0  0  0  0  0  0  0
   26.9892  -18.5893   -7.6985 C   0  0  0  0  0  0  0  0  0  0  0  0
   27.7494  -18.1878   -6.6679 N   0  0  0  0  0  0  0  0  0  0  0  0
   28.2261  -19.2462   -5.9951 C   0  0  0  0  0  0  0  0  0  0  0  0
   29.0302  -19.3258   -4.8724 C   0  0  0  0  0  0  0  0  0  0  0  0
   29.3562  -20.5669   -4.3764 C   0  0  0  0  0  0  0  0  0  0  0  0
   28.8706  -21.6823   -5.0155 C   0  0  0  0  0  0  0  0  0  0  0  0
   28.0713  -21.5987   -6.1330 C   0  0  0  0  0  0  0  0  0  0  0  0
   27.7356  -20.3725   -6.6425 C   0  0  0  0  0  0  0  0  0  0  0  0
   28.1162  -20.7761  -10.4132 C   0  0  0  0  0  0  0  0  0  0  0  0
   28.9047  -19.8083  -10.4854 O   0  0  0  0  0  0  0  0  0  0  0  0
   28.6381  -22.0455  -10.6095 O   0  0  0  0  0  0  0  0  0  0  0  0
  1  2  1  0
  2  3  1  0
  4  3  1  0
  4  5  1  0
  5  7  1  0
  5  6  1  1
  7  8  2  0
  9 13  1  0
  9  7  1  0
 10  9  1  0
 11 10  1  0
 11 12  1  0
 12 13  1  0
 13 14  1  6
 14 15  2  0
 16 14  1  0
 16 17  1  0
 17 28  1  0
 17 18  1  1
 19 18  1  0
 20 19  2  0
 21 20  1  0
 22 21  1  0
 22 27  2  0
 23 22  1  0
 24 23  2  0
 24 25  1  0
 25 26  2  0
 26 27  1  0
 27 19  1  0
 28 29  2  0
 28 30  1  0
M  END
$$$$
