MPW.pdb
     RDKit          3D

 30 32  0  0  1  0  0  0  0  0999 V2000
   26.0300  -15.7992  -15.3673 C   0  0  0  0  0  0  0  0  0  0  0  0
   24.2211  -15.6481  -15.2497 S   0  0  0  0  0  0  0  0  0  0  0  0
   23.3983  -17.1731  -15.7793 C   0  0  0  0  0  0  0  0  0  0  0  0
   23.7316  -18.2936  -14.8431 C   0  0  0  0  0  0  0  0  0  0  0  0
   24.6375  -19.3407  -15.4578 C   0  0  2  0  0  0  0  0  0  0  0  0
   23.9573  -20.0272  -16.5005 N   0  0  0  0  0  0  0  0  0  0  0  0
   25.3515  -20.1341  -14.4751 C   0  0  0  0  0  0  0  0  0  0  0  0
   24.6671  -21.0825  -13.9376 O   0  0  0  0  0  0  0  0  0  0  0  0
   26.7110  -19.9920  -14.0325 N   0  0  0  0  0  0  0  0  0  0  0  0
   27.6322  -19.1121  -14.6845 C   0  0  0  0  0  0  0  0  0  0  0  0
   29.0064  -19.7374  -14.3630 C   0  0  0  0  0  0  0  0  0  0  0  0
   28.7983  -20.3142  -12.9904 C   0  0  0  0  0  0  0  0  0  0  0  0
   27.3505  -20.6552  -12.9641 C   0  0  1  0  0  0  0  0  0  0  0  0
   26.7436  -20.4012  -11.6302 C   0  0  0  0  0  0  0  0  0  0  0  0
   26.1306  -19.3699  -11.3326 O   0  0  0  0  0  0  0  0  0  0  0  0
   26.8901  -21.4183  -10.6593 N   0  0  0  0  0  0  0  0  0  0  0  0
   26.7185  -21.2109   -9.2242 C   0  0  1  0  0  0  0  0  0  0  0  0
   27.8542  -20.3155   -8.8118 C   0  0  0  0  0  0  0  0  0  0  0  0
   27.7450  -19.7464   -7.4573 C   0  0  0  0  0  0  0  0  0  0  0  0
   26.8140  -18.7911   -7.0851 C   0  0  0  0  0  0  0  0  0  0  0  0
   27.0184  -18.4766   -5.7965 N   0  0  0  0  0  0  0  0  0  0  0  0
   28.0445  -19.1824   -5.2974 C   0  0  0  0  0  0  0  0  0  0  0  0
   28.6049  -19.2065   -4.0329 C   0  0  0  0  0  0  0  0  0  0  0  0
   29.6594  -20.0560   -3.7906 C   0  0  0  0  0  0  0  0  0  0  0  0
   30.1173  -20.8498   -4.8146 C   0  0  0  0  0  0  0  0  0  0  0  0
   29.5573  -20.8222   -6.0717 C   0  0  0  0  0  0  0  0  0  0  0  0
   28.5071  -19.9831   -6.3334 C   0  0  0  0  0  0  0  0  0  0  0  0
   25.3831  -20.8079   -8.8588 C   0  0  0  0  0  0  0  0  0  0  0  0
   24.6228  -20.2461   -9.6773 O   0  0  0  0  0  0  0  0  0  0  0  0
   24.8967  -21.0321   -7.5800 O   0  0  0  0  0  0  0  0  0  0  0  0
  1  2  1  0
  2  3  1  0
  4  3  1  0
  4  5  1  0
  5  7  1  0
  5  6  1  1
  7  8  2  0
  9 13  1  0
  9  7  1  0
 10  9  1  0
 11 10  1  0
 11 12  1  0
 12 13  1  0
 13 14  1  1
 14 15  2  0
 16 14  1  0
 16 17  1  0
 17 28  1  0
 17 18  1  6
 19 18  1  0
 20 19  2  0
 21 20  1  0
 22 21  1  0
 22 27  2  0
 23 22  1  0
 24 23  2  0
 24 25  1  0
 25 26  2  0
 26 27  1  0
 27 19  1  0
 28 29  2  0
 28 30  1  0
M  END
$$$$
