MPW.pdb
     RDKit          3D

 30 32  0  0  1  0  0  0  0  0999 V2000
   30.1347  -21.6671   -5.4605 C   0  0  0  0  0  0  0  0  0  0  0  0
   29.0871  -20.1870   -5.3159 S   0  0  0  0  0  0  0  0  0  0  0  0
   27.3576  -20.5658   -5.7010 C   0  0  0  0  0  0  0  0  0  0  0  0
   27.2073  -20.8765   -7.1583 C   0  0  0  0  0  0  0  0  0  0  0  0
   26.8610  -19.6644   -7.9984 C   0  0  2  0  0  0  0  0  0  0  0  0
   25.8543  -18.8932   -7.3558 N   0  0  0  0  0  0  0  0  0  0  0  0
   26.6881  -19.9689   -9.4064 C   0  0  0  0  0  0  0  0  0  0  0  0
   25.4987  -19.7848   -9.8627 O   0  0  0  0  0  0  0  0  0  0  0  0
   27.6686  -20.4465  -10.3417 N   0  0  0  0  0  0  0  0  0  0  0  0
   28.9992  -20.7851   -9.9382 C   0  0  0  0  0  0  0  0  0  0  0  0
   29.8209  -20.5908  -11.2304 C   0  0  0  0  0  0  0  0  0  0  0  0
   28.8489  -20.9857  -12.3072 C   0  0  0  0  0  0  0  0  0  0  0  0
   27.5214  -20.6404  -11.7314 C   0  0  1  0  0  0  0  0  0  0  0  0
   26.4776  -21.6309  -12.1076 C   0  0  0  0  0  0  0  0  0  0  0  0
   26.1977  -22.6313  -11.4375 O   0  0  0  0  0  0  0  0  0  0  0  0
   25.7751  -21.3907  -13.3107 N   0  0  0  0  0  0  0  0  0  0  0  0
   24.6518  -22.1980  -13.7780 C   0  0  1  0  0  0  0  0  0  0  0  0
   23.6291  -22.1338  -12.6772 C   0  0  0  0  0  0  0  0  0  0  0  0
   22.8466  -20.8869  -12.6192 C   0  0  0  0  0  0  0  0  0  0  0  0
   22.8233  -19.9329  -13.6229 C   0  0  0  0  0  0  0  0  0  0  0  0
   22.0389  -18.9181  -13.2278 N   0  0  0  0  0  0  0  0  0  0  0  0
   21.5401  -19.1579  -12.0055 C   0  0  0  0  0  0  0  0  0  0  0  0
   20.6862  -18.4173  -11.2081 C   0  0  0  0  0  0  0  0  0  0  0  0
   20.3181  -18.9222   -9.9825 C   0  0  0  0  0  0  0  0  0  0  0  0
   20.8128  -20.1444   -9.5956 C   0  0  0  0  0  0  0  0  0  0  0  0
   21.6630  -20.8778  -10.3919 C   0  0  0  0  0  0  0  0  0  0  0  0
   22.0418  -20.3925  -11.6153 C   0  0  0  0  0  0  0  0  0  0  0  0
   24.2199  -21.8618  -15.1120 C   0  0  0  0  0  0  0  0  0  0  0  0
   23.3483  -22.5336  -15.7057 O   0  0  0  0  0  0  0  0  0  0  0  0
   24.7609  -20.7758  -15.7828 O   0  0  0  0  0  0  0  0  0  0  0  0
  1  2  1  0
  2  3  1  0
  4  3  1  0
  4  5  1  0
  5  7  1  0
  5  6  1  1
  7  8  2  0
  9 13  1  0
  9  7  1  0
 10  9  1  0
 11 10  1  0
 11 12  1  0
 12 13  1  0
 13 14  1  1
 14 15  2  0
 16 14  1  0
 16 17  1  0
 17 28  1  0
 17 18  1  1
 19 18  1  0
 20 19  2  0
 21 20  1  0
 22 21  1  0
 22 27  2  0
 23 22  1  0
 24 23  2  0
 24 25  1  0
 25 26  2  0
 26 27  1  0
 27 19  1  0
 28 29  2  0
 28 30  1  0
M  END
$$$$
