MPW.pdb
     RDKit          3D

 30 32  0  0  1  0  0  0  0  0999 V2000
   27.6939  -15.7401  -15.1161 C   0  0  0  0  0  0  0  0  0  0  0  0
   27.9137  -15.0770  -16.7956 S   0  0  0  0  0  0  0  0  0  0  0  0
   28.6210  -16.3217  -17.9063 C   0  0  0  0  0  0  0  0  0  0  0  0
   28.1844  -17.6932  -17.4925 C   0  0  0  0  0  0  0  0  0  0  0  0
   27.9771  -18.6356  -18.6603 C   0  0  2  0  0  0  0  0  0  0  0  0
   27.2305  -17.9913  -19.6843 N   0  0  0  0  0  0  0  0  0  0  0  0
   27.5700  -19.9693  -18.2598 C   0  0  0  0  0  0  0  0  0  0  0  0
   26.3002  -20.1378  -18.1336 O   0  0  0  0  0  0  0  0  0  0  0  0
   28.3999  -21.1104  -17.9883 N   0  0  0  0  0  0  0  0  0  0  0  0
   29.7833  -21.1453  -18.3529 C   0  0  0  0  0  0  0  0  0  0  0  0
   30.0722  -22.6544  -18.5006 C   0  0  0  0  0  0  0  0  0  0  0  0
   29.1786  -23.2693  -17.4596 C   0  0  0  0  0  0  0  0  0  0  0  0
   28.0316  -22.3258  -17.3738 C   0  0  1  0  0  0  0  0  0  0  0  0
   27.5312  -22.1843  -15.9804 C   0  0  0  0  0  0  0  0  0  0  0  0
   28.0899  -21.5093  -15.1084 O   0  0  0  0  0  0  0  0  0  0  0  0
   26.3399  -22.8739  -15.6580 N   0  0  0  0  0  0  0  0  0  0  0  0
   25.7120  -22.8511  -14.3400 C   0  0  1  0  0  0  0  0  0  0  0  0
   25.4644  -21.3982  -14.0410 C   0  0  0  0  0  0  0  0  0  0  0  0
   24.7043  -21.1317  -12.8074 C   0  0  0  0  0  0  0  0  0  0  0  0
   23.3230  -21.0546  -12.7432 C   0  0  0  0  0  0  0  0  0  0  0  0
   22.9707  -20.7677  -11.4804 N   0  0  0  0  0  0  0  0  0  0  0  0
   24.0586  -20.6517  -10.7037 C   0  0  0  0  0  0  0  0  0  0  0  0
   24.1900  -20.3820   -9.3533 C   0  0  0  0  0  0  0  0  0  0  0  0
   25.4510  -20.3383   -8.8051 C   0  0  0  0  0  0  0  0  0  0  0  0
   26.5341  -20.5643   -9.6200 C   0  0  0  0  0  0  0  0  0  0  0  0
   26.3990  -20.8316  -10.9635 C   0  0  0  0  0  0  0  0  0  0  0  0
   25.1523  -20.8791  -11.5286 C   0  0  0  0  0  0  0  0  0  0  0  0
   24.5969  -23.7575  -14.2205 C   0  0  0  0  0  0  0  0  0  0  0  0
   24.4583  -24.4952  -13.2203 O   0  0  0  0  0  0  0  0  0  0  0  0
   23.6369  -23.8403  -15.2173 O   0  0  0  0  0  0  0  0  0  0  0  0
  1  2  1  0
  2  3  1  0
  4  3  1  0
  4  5  1  0
  5  7  1  0
  5  6  1  6
  7  8  2  0
  9 13  1  0
  9  7  1  0
 10  9  1  0
 11 10  1  0
 11 12  1  0
 12 13  1  0
 13 14  1  1
 14 15  2  0
 16 14  1  0
 16 17  1  0
 17 28  1  0
 17 18  1  6
 19 18  1  0
 20 19  2  0
 21 20  1  0
 22 21  1  0
 22 27  2  0
 23 22  1  0
 24 23  2  0
 24 25  1  0
 25 26  2  0
 26 27  1  0
 27 19  1  0
 28 29  2  0
 28 30  1  0
M  END
$$$$
