MPW.pdb
     RDKit          3D

 30 32  0  0  1  0  0  0  0  0999 V2000
   29.8184  -18.7924   -8.3373 C   0  0  0  0  0  0  0  0  0  0  0  0
   28.5159  -19.5785   -9.3344 S   0  0  0  0  0  0  0  0  0  0  0  0
   28.7206  -19.2046  -11.0955 C   0  0  0  0  0  0  0  0  0  0  0  0
   27.5955  -19.7987  -11.8854 C   0  0  0  0  0  0  0  0  0  0  0  0
   27.6714  -19.4881  -13.3662 C   0  0  2  0  0  0  0  0  0  0  0  0
   27.9364  -18.1055  -13.5647 N   0  0  0  0  0  0  0  0  0  0  0  0
   26.6014  -20.0920  -14.1378 C   0  0  0  0  0  0  0  0  0  0  0  0
   25.5683  -19.3453  -14.3163 O   0  0  0  0  0  0  0  0  0  0  0  0
   26.5532  -21.4055  -14.7182 N   0  0  0  0  0  0  0  0  0  0  0  0
   27.6733  -22.2951  -14.6743 C   0  0  0  0  0  0  0  0  0  0  0  0
   27.4470  -23.2094  -15.8973 C   0  0  0  0  0  0  0  0  0  0  0  0
   25.9485  -23.3076  -15.9685 C   0  0  0  0  0  0  0  0  0  0  0  0
   25.4804  -22.0133  -15.4040 C   0  0  1  0  0  0  0  0  0  0  0  0
   24.2441  -22.1750  -14.5931 C   0  0  0  0  0  0  0  0  0  0  0  0
   24.2274  -22.5970  -13.4314 O   0  0  0  0  0  0  0  0  0  0  0  0
   23.0247  -21.8163  -15.2119 N   0  0  0  0  0  0  0  0  0  0  0  0
   21.8043  -21.4818  -14.4833 C   0  0  1  0  0  0  0  0  0  0  0  0
   22.1949  -20.3824  -13.5343 C   0  0  0  0  0  0  0  0  0  0  0  0
   22.2055  -20.7571  -12.1096 C   0  0  0  0  0  0  0  0  0  0  0  0
   21.0672  -20.9808  -11.3531 C   0  0  0  0  0  0  0  0  0  0  0  0
   21.4407  -21.2687  -10.0966 N   0  0  0  0  0  0  0  0  0  0  0  0
   22.7777  -21.2465   -9.9868 C   0  0  0  0  0  0  0  0  0  0  0  0
   23.6078  -21.4890   -8.9072 C   0  0  0  0  0  0  0  0  0  0  0  0
   24.9696  -21.4118   -9.0868 C   0  0  0  0  0  0  0  0  0  0  0  0
   25.4549  -21.0962  -10.3331 C   0  0  0  0  0  0  0  0  0  0  0  0
   24.6253  -20.8549  -11.4046 C   0  0  0  0  0  0  0  0  0  0  0  0
   23.2668  -20.9263  -11.2465 C   0  0  0  0  0  0  0  0  0  0  0  0
   20.6689  -21.2516  -15.3418 C   0  0  0  0  0  0  0  0  0  0  0  0
   20.8051  -20.7920  -16.4967 O   0  0  0  0  0  0  0  0  0  0  0  0
   19.3819  -21.5344  -14.9110 O   0  0  0  0  0  0  0  0  0  0  0  0
  1  2  1  0
  2  3  1  0
  4  3  1  0
  4  5  1  0
  5  7  1  0
  5  6  1  1
  7  8  2  0
  9 13  1  0
  9  7  1  0
 10  9  1  0
 11 10  1  0
 11 12  1  0
 12 13  1  0
 13 14  1  1
 14 15  2  0
 16 14  1  0
 16 17  1  0
 17 28  1  0
 17 18  1  6
 19 18  1  0
 20 19  2  0
 21 20  1  0
 22 21  1  0
 22 27  2  0
 23 22  1  0
 24 23  2  0
 24 25  1  0
 25 26  2  0
 26 27  1  0
 27 19  1  0
 28 29  2  0
 28 30  1  0
M  END
$$$$
