MPW.pdb
     RDKit          3D

 30 32  0  0  1  0  0  0  0  0999 V2000
   26.6776  -21.7078  -20.9360 C   0  0  0  0  0  0  0  0  0  0  0  0
   25.5337  -20.8018  -19.8501 S   0  0  0  0  0  0  0  0  0  0  0  0
   26.3712  -19.4325  -19.0094 C   0  0  0  0  0  0  0  0  0  0  0  0
   25.3994  -18.6756  -18.1575 C   0  0  0  0  0  0  0  0  0  0  0  0
   25.7474  -18.6994  -16.6833 C   0  0  2  0  0  0  0  0  0  0  0  0
   25.6150  -20.0182  -16.1689 N   0  0  0  0  0  0  0  0  0  0  0  0
   25.1467  -17.6138  -15.9314 C   0  0  0  0  0  0  0  0  0  0  0  0
   24.1501  -17.9496  -15.1892 O   0  0  0  0  0  0  0  0  0  0  0  0
   25.5217  -16.2269  -15.9150 N   0  0  0  0  0  0  0  0  0  0  0  0
   26.8275  -15.7902  -16.3051 C   0  0  0  0  0  0  0  0  0  0  0  0
   26.9986  -14.4599  -15.5410 C   0  0  0  0  0  0  0  0  0  0  0  0
   25.6007  -13.9072  -15.5149 C   0  0  0  0  0  0  0  0  0  0  0  0
   24.7390  -15.1199  -15.5245 C   0  0  1  0  0  0  0  0  0  0  0  0
   23.5074  -14.9205  -16.3342 C   0  0  0  0  0  0  0  0  0  0  0  0
   23.2565  -15.5348  -17.3771 O   0  0  0  0  0  0  0  0  0  0  0  0
   22.5811  -13.9636  -15.8600 N   0  0  0  0  0  0  0  0  0  0  0  0
   21.3062  -13.6675  -16.5074 C   0  0  1  0  0  0  0  0  0  0  0  0
   20.5315  -14.9560  -16.4708 C   0  0  0  0  0  0  0  0  0  0  0  0
   20.0710  -15.3739  -15.1353 C   0  0  0  0  0  0  0  0  0  0  0  0
   19.7562  -14.4987  -14.1091 C   0  0  0  0  0  0  0  0  0  0  0  0
   19.4071  -15.2157  -13.0298 N   0  0  0  0  0  0  0  0  0  0  0  0
   19.4758  -16.5291  -13.2956 C   0  0  0  0  0  0  0  0  0  0  0  0
   19.2010  -17.6337  -12.5097 C   0  0  0  0  0  0  0  0  0  0  0  0
   19.3433  -18.8884  -13.0557 C   0  0  0  0  0  0  0  0  0  0  0  0
   19.7536  -18.9977  -14.3626 C   0  0  0  0  0  0  0  0  0  0  0  0
   20.0268  -17.8958  -15.1410 C   0  0  0  0  0  0  0  0  0  0  0  0
   19.8917  -16.6381  -14.6160 C   0  0  0  0  0  0  0  0  0  0  0  0
   20.6620  -12.4854  -15.9911 C   0  0  0  0  0  0  0  0  0  0  0  0
   19.6329  -12.0160  -16.5243 O   0  0  0  0  0  0  0  0  0  0  0  0
   21.1665  -11.8275  -14.8799 O   0  0  0  0  0  0  0  0  0  0  0  0
  1  2  1  0
  2  3  1  0
  4  3  1  0
  4  5  1  0
  5  7  1  0
  5  6  1  1
  7  8  2  0
  9 13  1  0
  9  7  1  0
 10  9  1  0
 11 10  1  0
 11 12  1  0
 12 13  1  0
 13 14  1  6
 14 15  2  0
 16 14  1  0
 16 17  1  0
 17 28  1  0
 17 18  1  1
 19 18  1  0
 20 19  2  0
 21 20  1  0
 22 21  1  0
 22 27  2  0
 23 22  1  0
 24 23  2  0
 24 25  1  0
 25 26  2  0
 26 27  1  0
 27 19  1  0
 28 29  2  0
 28 30  1  0
M  END
$$$$
