MPW.pdb
     RDKit          3D

 30 32  0  0  1  0  0  0  0  0999 V2000
   24.8847  -21.5849  -10.0630 C   0  0  0  0  0  0  0  0  0  0  0  0
   26.4884  -20.7348   -9.9423 S   0  0  0  0  0  0  0  0  0  0  0  0
   27.0861  -20.2242  -11.5748 C   0  0  0  0  0  0  0  0  0  0  0  0
   26.2144  -20.7984  -12.6486 C   0  0  0  0  0  0  0  0  0  0  0  0
   26.6682  -20.4373  -14.0481 C   0  0  2  0  0  0  0  0  0  0  0  0
   26.8767  -19.0346  -14.1499 N   0  0  0  0  0  0  0  0  0  0  0  0
   25.8955  -21.0864  -15.0905 C   0  0  0  0  0  0  0  0  0  0  0  0
   24.8614  -20.4329  -15.4908 O   0  0  0  0  0  0  0  0  0  0  0  0
   26.1389  -22.3540  -15.7217 N   0  0  0  0  0  0  0  0  0  0  0  0
   27.3431  -23.0938  -15.4970 C   0  0  0  0  0  0  0  0  0  0  0  0
   27.4781  -23.9467  -16.7764 C   0  0  0  0  0  0  0  0  0  0  0  0
   26.0477  -24.2311  -17.1412 C   0  0  0  0  0  0  0  0  0  0  0  0
   25.3078  -23.0475  -16.6267 C   0  0  1  0  0  0  0  0  0  0  0  0
   23.9761  -23.4194  -16.0785 C   0  0  0  0  0  0  0  0  0  0  0  0
   23.8090  -24.1898  -15.1264 O   0  0  0  0  0  0  0  0  0  0  0  0
   22.8464  -22.8418  -16.7021 N   0  0  0  0  0  0  0  0  0  0  0  0
   21.4660  -23.1278  -16.3218 C   0  0  1  0  0  0  0  0  0  0  0  0
   21.3489  -22.6923  -14.8871 C   0  0  0  0  0  0  0  0  0  0  0  0
   21.3345  -21.2349  -14.6726 C   0  0  0  0  0  0  0  0  0  0  0  0
   21.3863  -20.2959  -15.6893 C   0  0  0  0  0  0  0  0  0  0  0  0
   21.3882  -19.0719  -15.1390 N   0  0  0  0  0  0  0  0  0  0  0  0
   21.3392  -19.1580  -13.8009 C   0  0  0  0  0  0  0  0  0  0  0  0
   21.3084  -18.1782  -12.8249 C   0  0  0  0  0  0  0  0  0  0  0  0
   21.2399  -18.5588  -11.5047 C   0  0  0  0  0  0  0  0  0  0  0  0
   21.2047  -19.8992  -11.2043 C   0  0  0  0  0  0  0  0  0  0  0  0
   21.2362  -20.8711  -12.1786 C   0  0  0  0  0  0  0  0  0  0  0  0
   21.3048  -20.5130  -13.4988 C   0  0  0  0  0  0  0  0  0  0  0  0
   20.4957  -22.6150  -17.2572 C   0  0  0  0  0  0  0  0  0  0  0  0
   19.2758  -22.8605  -17.1342 O   0  0  0  0  0  0  0  0  0  0  0  0
   20.8874  -21.8284  -18.3295 O   0  0  0  0  0  0  0  0  0  0  0  0
  1  2  1  0
  2  3  1  0
  4  3  1  0
  4  5  1  0
  5  7  1  0
  5  6  1  6
  7  8  2  0
  9 13  1  0
  9  7  1  0
 10  9  1  0
 11 10  1  0
 11 12  1  0
 12 13  1  0
 13 14  1  1
 14 15  2  0
 16 14  1  0
 16 17  1  0
 17 28  1  0
 17 18  1  1
 19 18  1  0
 20 19  2  0
 21 20  1  0
 22 21  1  0
 22 27  2  0
 23 22  1  0
 24 23  2  0
 24 25  1  0
 25 26  2  0
 26 27  1  0
 27 19  1  0
 28 29  2  0
 28 30  1  0
M  END
$$$$
