MPW.pdb
     RDKit          3D

 30 32  0  0  1  0  0  0  0  0999 V2000
   27.6928  -14.8213  -13.8991 C   0  0  0  0  0  0  0  0  0  0  0  0
   26.1675  -14.6211  -14.8698 S   0  0  0  0  0  0  0  0  0  0  0  0
   25.5135  -16.2242  -15.4043 C   0  0  0  0  0  0  0  0  0  0  0  0
   25.6639  -17.2359  -14.3105 C   0  0  0  0  0  0  0  0  0  0  0  0
   25.1075  -18.5979  -14.6712 C   0  0  2  0  0  0  0  0  0  0  0  0
   23.7322  -18.4909  -15.0152 N   0  0  0  0  0  0  0  0  0  0  0  0
   25.4962  -19.6438  -13.7438 C   0  0  0  0  0  0  0  0  0  0  0  0
   24.6452  -19.8892  -12.8098 O   0  0  0  0  0  0  0  0  0  0  0  0
   26.7000  -20.4281  -13.7388 N   0  0  0  0  0  0  0  0  0  0  0  0
   27.6398  -20.3809  -14.8170 C   0  0  0  0  0  0  0  0  0  0  0  0
   28.3416  -21.7532  -14.7349 C   0  0  0  0  0  0  0  0  0  0  0  0
   28.3537  -22.0347  -13.2581 C   0  0  0  0  0  0  0  0  0  0  0  0
   27.1409  -21.3366  -12.7535 C   0  0  1  0  0  0  0  0  0  0  0  0
   27.3650  -20.7307  -11.4137 C   0  0  0  0  0  0  0  0  0  0  0  0
   28.3793  -20.0976  -11.1002 O   0  0  0  0  0  0  0  0  0  0  0  0
   26.3389  -20.9031  -10.4567 N   0  0  0  0  0  0  0  0  0  0  0  0
   26.5446  -20.8264   -9.0131 C   0  0  1  0  0  0  0  0  0  0  0  0
   27.3032  -19.5480   -8.7855 C   0  0  0  0  0  0  0  0  0  0  0  0
   27.4875  -19.1702   -7.3735 C   0  0  0  0  0  0  0  0  0  0  0  0
   26.8329  -18.1178   -6.7556 C   0  0  0  0  0  0  0  0  0  0  0  0
   27.2592  -18.0378   -5.4855 N   0  0  0  0  0  0  0  0  0  0  0  0
   28.1680  -18.9923   -5.2338 C   0  0  0  0  0  0  0  0  0  0  0  0
   28.8650  -19.3060   -4.0809 C   0  0  0  0  0  0  0  0  0  0  0  0
   29.7388  -20.3683   -4.1021 C   0  0  0  0  0  0  0  0  0  0  0  0
   29.8869  -21.0789   -5.2690 C   0  0  0  0  0  0  0  0  0  0  0  0
   29.1919  -20.7629   -6.4143 C   0  0  0  0  0  0  0  0  0  0  0  0
   28.3176  -19.7087   -6.4139 C   0  0  0  0  0  0  0  0  0  0  0  0
   25.3384  -21.0327   -8.2504 C   0  0  0  0  0  0  0  0  0  0  0  0
   24.2077  -20.9227   -8.7729 O   0  0  0  0  0  0  0  0  0  0  0  0
   25.3946  -21.3616   -6.9048 O   0  0  0  0  0  0  0  0  0  0  0  0
  1  2  1  0
  2  3  1  0
  4  3  1  0
  4  5  1  0
  5  7  1  0
  5  6  1  1
  7  8  2  0
  9 13  1  0
  9  7  1  0
 10  9  1  0
 11 10  1  0
 11 12  1  0
 12 13  1  0
 13 14  1  1
 14 15  2  0
 16 14  1  0
 16 17  1  0
 17 28  1  0
 17 18  1  6
 19 18  1  0
 20 19  2  0
 21 20  1  0
 22 21  1  0
 22 27  2  0
 23 22  1  0
 24 23  2  0
 24 25  1  0
 25 26  2  0
 26 27  1  0
 27 19  1  0
 28 29  2  0
 28 30  1  0
M  END
$$$$
