QET.pdb
     RDKit          3D

 26 25  0  0  1  0  0  0  0  0999 V2000
    8.1075  -12.4945   19.9908 N   0  0  0  0  0  0  0  0  0  0  0  0
    7.6712  -13.7390   19.4528 C   0  0  0  0  0  0  0  0  0  0  0  0
    6.4829  -14.0576   19.6209 O   0  0  0  0  0  0  0  0  0  0  0  0
    8.6197  -14.5890   18.7308 C   0  0  0  0  0  0  0  0  0  0  0  0
    9.2818  -13.9331   17.5710 C   0  0  0  0  0  0  0  0  0  0  0  0
   10.2550  -14.7895   16.8293 C   0  0  2  0  0  0  0  0  0  0  0  0
    9.5144  -15.8901   16.2193 N   0  0  0  0  0  0  0  0  0  0  0  0
   11.2746  -15.3324   17.7890 C   0  0  0  0  0  0  0  0  0  0  0  0
   11.1077  -16.5096   18.2041 O   0  0  0  0  0  0  0  0  0  0  0  0
   12.3781  -14.5510   18.2092 N   0  0  0  0  0  0  0  0  0  0  0  0
   13.2652  -15.1321   19.2275 C   0  0  1  0  0  0  0  0  0  0  0  0
   14.6002  -14.4455   19.1114 C   0  0  0  0  0  0  0  0  0  0  0  0
   15.4068  -14.8409   17.9305 C   0  0  0  0  0  0  0  0  0  0  0  0
   16.7261  -14.1987   17.8634 C   0  0  0  0  0  0  0  0  0  0  0  0
   16.8913  -12.9984   17.5917 O   0  0  0  0  0  0  0  0  0  0  0  0
   12.6644  -14.9764   20.5718 C   0  0  0  0  0  0  0  0  0  0  0  0
   12.2729  -13.8612   20.9755 O   0  0  0  0  0  0  0  0  0  0  0  0
   17.8480  -14.9881   18.1203 O   0  0  0  0  0  0  0  0  0  0  0  0
   10.2388  -17.8163   22.1575 C   0  0  0  0  0  0  0  0  0  0  0  0
   10.3880  -16.4013   22.6599 C   0  0  1  0  0  0  0  0  0  0  0  0
    9.8847  -16.3597   23.9584 O   0  0  0  0  0  0  0  0  0  0  0  0
   11.8409  -15.9880   22.7364 C   0  0  2  0  0  0  0  0  0  0  0  0
   12.5097  -16.0863   21.4536 N   0  0  0  0  0  0  0  0  0  0  0  0
   12.5895  -16.7729   23.7407 C   0  0  0  0  0  0  0  0  0  0  0  0
   12.2743  -16.7376   25.0888 O   0  0  0  0  0  0  0  0  0  0  0  0
   13.5499  -17.5070   23.3924 O   0  0  0  0  0  0  0  0  0  0  0  0
  1  2  1  0
  2  4  1  0
  3  2  2  0
  4  5  1  0
  5  6  1  0
  6  7  1  1
  6  8  1  0
  8 10  1  0
  8  9  2  0
 10 11  1  0
 11 16  1  0
 11 12  1  1
 13 12  1  0
 13 14  1  0
 14 15  2  0
 16 17  2  0
 18 14  1  0
 20 19  1  1
 20 21  1  0
 20 22  1  0
 22 24  1  0
 22 23  1  6
 23 16  1  0
 24 25  1  0
 26 24  2  0
M  END
$$$$
