QET.pdb
     RDKit          3D

 26 25  0  0  1  0  0  0  0  0999 V2000
   10.1230  -13.2595   19.0491 N   0  0  0  0  0  0  0  0  0  0  0  0
    8.9024  -12.9543   18.3815 C   0  0  0  0  0  0  0  0  0  0  0  0
    8.9722  -12.4149   17.2653 O   0  0  0  0  0  0  0  0  0  0  0  0
    7.6258  -13.2801   19.0200 C   0  0  0  0  0  0  0  0  0  0  0  0
    7.7463  -13.8863   20.3735 C   0  0  0  0  0  0  0  0  0  0  0  0
    8.1216  -15.3319   20.3892 C   0  0  2  0  0  0  0  0  0  0  0  0
    7.1037  -16.0705   19.6476 N   0  0  0  0  0  0  0  0  0  0  0  0
    8.1710  -15.8192   21.8088 C   0  0  0  0  0  0  0  0  0  0  0  0
    7.1171  -16.3172   22.2855 O   0  0  0  0  0  0  0  0  0  0  0  0
    9.3553  -15.7220   22.5788 N   0  0  0  0  0  0  0  0  0  0  0  0
    9.3347  -16.3172   23.9230 C   0  0  1  0  0  0  0  0  0  0  0  0
   10.3495  -17.4294   23.9424 C   0  0  0  0  0  0  0  0  0  0  0  0
   11.4920  -17.2504   23.0127 C   0  0  0  0  0  0  0  0  0  0  0  0
   12.4573  -18.3574   23.0291 C   0  0  0  0  0  0  0  0  0  0  0  0
   12.5876  -19.1674   22.0971 O   0  0  0  0  0  0  0  0  0  0  0  0
    9.6140  -15.2793   24.9413 C   0  0  0  0  0  0  0  0  0  0  0  0
   10.5889  -14.5078   24.8221 O   0  0  0  0  0  0  0  0  0  0  0  0
   13.2669  -18.4982   24.1572 O   0  0  0  0  0  0  0  0  0  0  0  0
    7.6374  -12.2687   26.0442 C   0  0  0  0  0  0  0  0  0  0  0  0
    7.8044  -13.1765   27.2379 C   0  0  1  0  0  0  0  0  0  0  0  0
    6.6798  -13.9962   27.3049 O   0  0  0  0  0  0  0  0  0  0  0  0
    9.0039  -14.0847   27.0832 C   0  0  2  0  0  0  0  0  0  0  0  0
    8.7865  -15.1201   26.0917 N   0  0  0  0  0  0  0  0  0  0  0  0
    9.3974  -14.7081   28.3645 C   0  0  0  0  0  0  0  0  0  0  0  0
    9.8007  -13.9580   29.4565 O   0  0  0  0  0  0  0  0  0  0  0  0
    9.3762  -15.9586   28.5004 O   0  0  0  0  0  0  0  0  0  0  0  0
  1  2  1  0
  2  4  1  0
  3  2  2  0
  4  5  1  0
  5  6  1  0
  6  7  1  6
  6  8  1  0
  8 10  1  0
  8  9  2  0
 10 11  1  0
 11 16  1  0
 11 12  1  6
 13 12  1  0
 13 14  1  0
 14 15  2  0
 16 17  2  0
 18 14  1  0
 20 19  1  6
 20 21  1  0
 20 22  1  0
 22 24  1  0
 22 23  1  6
 23 16  1  0
 24 25  1  0
 26 24  2  0
M  END
$$$$
