QET.pdb
     RDKit          3D

 26 25  0  0  1  0  0  0  0  0999 V2000
    6.6570  -13.1440   17.0788 N   0  0  0  0  0  0  0  0  0  0  0  0
    7.7371  -14.0081   16.7391 C   0  0  0  0  0  0  0  0  0  0  0  0
    7.7296  -14.5286   15.6118 O   0  0  0  0  0  0  0  0  0  0  0  0
    8.8040  -14.2517   17.7118 C   0  0  0  0  0  0  0  0  0  0  0  0
    8.3407  -14.3883   19.1191 C   0  0  0  0  0  0  0  0  0  0  0  0
    9.4257  -14.3958   20.1455 C   0  0  2  0  0  0  0  0  0  0  0  0
   10.5088  -15.2410   19.6512 N   0  0  0  0  0  0  0  0  0  0  0  0
    8.8911  -14.9544   21.4328 C   0  0  0  0  0  0  0  0  0  0  0  0
    7.7450  -14.5777   21.7941 O   0  0  0  0  0  0  0  0  0  0  0  0
    9.6463  -15.8675   22.2080 N   0  0  0  0  0  0  0  0  0  0  0  0
    9.0661  -16.3060   23.4857 C   0  0  1  0  0  0  0  0  0  0  0  0
    9.8780  -17.4760   23.9749 C   0  0  0  0  0  0  0  0  0  0  0  0
    9.9322  -18.6320   23.0463 C   0  0  0  0  0  0  0  0  0  0  0  0
   10.7311  -19.7611   23.5408 C   0  0  0  0  0  0  0  0  0  0  0  0
   10.4359  -20.9502   23.3393 O   0  0  0  0  0  0  0  0  0  0  0  0
    9.0558  -15.1825   24.4500 C   0  0  0  0  0  0  0  0  0  0  0  0
   10.0890  -14.5169   24.6724 O   0  0  0  0  0  0  0  0  0  0  0  0
   11.8819  -19.4716   24.2755 O   0  0  0  0  0  0  0  0  0  0  0  0
    6.4146  -11.8440   26.9970 C   0  0  0  0  0  0  0  0  0  0  0  0
    6.4218  -13.1253   26.2000 C   0  0  1  0  0  0  0  0  0  0  0  0
    5.9896  -12.8222   24.9106 O   0  0  0  0  0  0  0  0  0  0  0  0
    7.8171  -13.6954   26.0752 C   0  0  2  0  0  0  0  0  0  0  0  0
    7.8735  -14.8177   25.1588 N   0  0  0  0  0  0  0  0  0  0  0  0
    8.3695  -14.1034   27.3842 C   0  0  0  0  0  0  0  0  0  0  0  0
    8.7111  -15.4160   27.6638 O   0  0  0  0  0  0  0  0  0  0  0  0
    8.5474  -13.2547   28.2957 O   0  0  0  0  0  0  0  0  0  0  0  0
  1  2  1  0
  2  4  1  0
  3  2  2  0
  4  5  1  0
  5  6  1  0
  6  7  1  6
  6  8  1  0
  8 10  1  0
  8  9  2  0
 10 11  1  0
 11 16  1  0
 11 12  1  1
 13 12  1  0
 13 14  1  0
 14 15  2  0
 16 17  2  0
 18 14  1  0
 20 19  1  1
 20 21  1  0
 20 22  1  0
 22 24  1  0
 22 23  1  6
 23 16  1  0
 24 25  1  0
 26 24  2  0
M  END
$$$$
