QET.pdb
     RDKit          3D

 26 25  0  0  1  0  0  0  0  0999 V2000
    6.9499  -12.7669   18.4574 N   0  0  0  0  0  0  0  0  0  0  0  0
    7.5190  -13.6794   17.5234 C   0  0  0  0  0  0  0  0  0  0  0  0
    7.5155  -13.3578   16.3241 O   0  0  0  0  0  0  0  0  0  0  0  0
    8.0807  -14.9457   17.9974 C   0  0  0  0  0  0  0  0  0  0  0  0
    7.9668  -15.1639   19.4648 C   0  0  0  0  0  0  0  0  0  0  0  0
    9.2400  -15.0058   20.2295 C   0  0  2  0  0  0  0  0  0  0  0  0
   10.2918  -15.7149   19.5065 N   0  0  0  0  0  0  0  0  0  0  0  0
    9.0760  -15.5982   21.5997 C   0  0  0  0  0  0  0  0  0  0  0  0
    8.0319  -15.2988   22.2372 O   0  0  0  0  0  0  0  0  0  0  0  0
   10.0564  -16.4582   22.1511 N   0  0  0  0  0  0  0  0  0  0  0  0
    9.8558  -16.9059   23.5371 C   0  0  1  0  0  0  0  0  0  0  0  0
   10.9023  -17.9472   23.8334 C   0  0  0  0  0  0  0  0  0  0  0  0
   10.7411  -19.2243   23.0953 C   0  0  0  0  0  0  0  0  0  0  0  0
   11.9126  -20.1077   23.1630 C   0  0  0  0  0  0  0  0  0  0  0  0
   12.7276  -20.2379   22.2354 O   0  0  0  0  0  0  0  0  0  0  0  0
    9.9315  -15.7500   24.4593 C   0  0  0  0  0  0  0  0  0  0  0  0
   10.8479  -14.9073   24.3597 O   0  0  0  0  0  0  0  0  0  0  0  0
   12.1117  -20.8357   24.3370 O   0  0  0  0  0  0  0  0  0  0  0  0
    7.6297  -12.3762   27.0699 C   0  0  0  0  0  0  0  0  0  0  0  0
    7.6088  -13.6554   26.2698 C   0  0  1  0  0  0  0  0  0  0  0  0
    7.3915  -13.3152   24.9363 O   0  0  0  0  0  0  0  0  0  0  0  0
    8.9392  -14.3723   26.3312 C   0  0  2  0  0  0  0  0  0  0  0  0
    8.9674  -15.5540   25.4915 N   0  0  0  0  0  0  0  0  0  0  0  0
    9.3061  -14.7448   27.7139 C   0  0  0  0  0  0  0  0  0  0  0  0
    9.4945  -16.0620   28.0975 O   0  0  0  0  0  0  0  0  0  0  0  0
    9.4597  -13.8602   28.5951 O   0  0  0  0  0  0  0  0  0  0  0  0
  1  2  1  0
  2  4  1  0
  3  2  2  0
  4  5  1  0
  5  6  1  0
  6  7  1  6
  6  8  1  0
  8 10  1  0
  8  9  2  0
 10 11  1  0
 11 16  1  0
 11 12  1  1
 13 12  1  0
 13 14  1  0
 14 15  2  0
 16 17  2  0
 18 14  1  0
 20 19  1  1
 20 21  1  0
 20 22  1  0
 22 24  1  0
 22 23  1  6
 23 16  1  0
 24 25  1  0
 26 24  2  0
M  END
$$$$
