QET.pdb
     RDKit          3D

 26 25  0  0  1  0  0  0  0  0999 V2000
    8.1907  -12.9027   16.9081 N   0  0  0  0  0  0  0  0  0  0  0  0
    7.9257  -14.2996   16.8238 C   0  0  0  0  0  0  0  0  0  0  0  0
    7.8947  -14.8160   15.6950 O   0  0  0  0  0  0  0  0  0  0  0  0
    7.7021  -15.0703   18.0484 C   0  0  0  0  0  0  0  0  0  0  0  0
    7.5102  -14.2469   19.2728 C   0  0  0  0  0  0  0  0  0  0  0  0
    8.7193  -14.1073   20.1384 C   0  0  2  0  0  0  0  0  0  0  0  0
    9.8196  -14.8197   19.4953 N   0  0  0  0  0  0  0  0  0  0  0  0
    8.4410  -14.7100   21.4854 C   0  0  0  0  0  0  0  0  0  0  0  0
    7.3483  -14.4128   22.0365 O   0  0  0  0  0  0  0  0  0  0  0  0
    9.3705  -15.5770   22.1093 N   0  0  0  0  0  0  0  0  0  0  0  0
    9.0031  -16.1243   23.4234 C   0  0  1  0  0  0  0  0  0  0  0  0
    9.9595  -17.2457   23.7314 C   0  0  0  0  0  0  0  0  0  0  0  0
    9.8016  -18.4535   22.8840 C   0  0  0  0  0  0  0  0  0  0  0  0
   10.7523  -19.5300   23.1916 C   0  0  0  0  0  0  0  0  0  0  0  0
   10.8137  -20.5935   22.5537 O   0  0  0  0  0  0  0  0  0  0  0  0
    9.0384  -15.0543   24.4461 C   0  0  0  0  0  0  0  0  0  0  0  0
   10.0371  -14.3142   24.5678 O   0  0  0  0  0  0  0  0  0  0  0  0
   11.6296  -19.3379   24.2600 O   0  0  0  0  0  0  0  0  0  0  0  0
    6.6249  -11.7877   27.1693 C   0  0  0  0  0  0  0  0  0  0  0  0
    6.5848  -13.0123   26.2885 C   0  0  1  0  0  0  0  0  0  0  0  0
    6.3542  -12.5850   24.9825 O   0  0  0  0  0  0  0  0  0  0  0  0
    7.9104  -13.7405   26.2870 C   0  0  2  0  0  0  0  0  0  0  0  0
    7.9407  -14.8272   25.3276 N   0  0  0  0  0  0  0  0  0  0  0  0
    8.2606  -14.2593   27.6262 C   0  0  0  0  0  0  0  0  0  0  0  0
    8.5201  -13.4206   28.6973 O   0  0  0  0  0  0  0  0  0  0  0  0
    8.3336  -15.4980   27.8331 O   0  0  0  0  0  0  0  0  0  0  0  0
  1  2  1  0
  2  4  1  0
  3  2  2  0
  4  5  1  0
  5  6  1  0
  6  7  1  6
  6  8  1  0
  8 10  1  0
  8  9  2  0
 10 11  1  0
 11 16  1  0
 11 12  1  1
 13 12  1  0
 13 14  1  0
 14 15  2  0
 16 17  2  0
 18 14  1  0
 20 19  1  1
 20 21  1  0
 20 22  1  0
 22 24  1  0
 22 23  1  6
 23 16  1  0
 24 25  1  0
 26 24  2  0
M  END
$$$$
