QET.pdb
     RDKit          3D

 26 25  0  0  1  0  0  0  0  0999 V2000
    8.7626  -12.6790   17.8798 N   0  0  0  0  0  0  0  0  0  0  0  0
    8.9132  -12.9808   19.2637 C   0  0  0  0  0  0  0  0  0  0  0  0
   10.0642  -13.0064   19.7288 O   0  0  0  0  0  0  0  0  0  0  0  0
    7.7277  -13.2465   20.0808 C   0  0  0  0  0  0  0  0  0  0  0  0
    6.9482  -14.4457   19.6709 C   0  0  0  0  0  0  0  0  0  0  0  0
    7.6003  -15.7566   19.9658 C   0  0  2  0  0  0  0  0  0  0  0  0
    6.7477  -16.8150   19.4322 N   0  0  0  0  0  0  0  0  0  0  0  0
    7.7442  -15.9194   21.4516 C   0  0  0  0  0  0  0  0  0  0  0  0
    6.6889  -15.9066   22.1389 O   0  0  0  0  0  0  0  0  0  0  0  0
    9.0154  -16.0807   22.0541 N   0  0  0  0  0  0  0  0  0  0  0  0
    9.0438  -16.4645   23.4730 C   0  0  1  0  0  0  0  0  0  0  0  0
   10.2993  -17.2636   23.7019 C   0  0  0  0  0  0  0  0  0  0  0  0
   10.4039  -18.5079   22.9004 C   0  0  0  0  0  0  0  0  0  0  0  0
   11.6403  -19.2669   23.1304 C   0  0  0  0  0  0  0  0  0  0  0  0
   11.8706  -19.9030   24.1716 O   0  0  0  0  0  0  0  0  0  0  0  0
    8.9793  -15.2563   24.3265 C   0  0  0  0  0  0  0  0  0  0  0  0
    9.6384  -14.2337   24.0437 O   0  0  0  0  0  0  0  0  0  0  0  0
   12.6016  -19.2670   22.1187 O   0  0  0  0  0  0  0  0  0  0  0  0
    6.5275  -12.3148   27.3159 C   0  0  0  0  0  0  0  0  0  0  0  0
    6.6262  -13.5460   26.4491 C   0  0  1  0  0  0  0  0  0  0  0  0
    6.2137  -13.1925   25.1661 O   0  0  0  0  0  0  0  0  0  0  0  0
    8.0533  -14.0337   26.3352 C   0  0  2  0  0  0  0  0  0  0  0  0
    8.1674  -15.2120   25.4979 N   0  0  0  0  0  0  0  0  0  0  0  0
    8.6522  -14.3123   27.6576 C   0  0  0  0  0  0  0  0  0  0  0  0
    8.8858  -13.3125   28.5868 O   0  0  0  0  0  0  0  0  0  0  0  0
    8.9716  -15.4855   27.9806 O   0  0  0  0  0  0  0  0  0  0  0  0
  1  2  1  0
  2  4  1  0
  3  2  2  0
  4  5  1  0
  5  6  1  0
  6  7  1  1
  6  8  1  0
  8 10  1  0
  8  9  2  0
 10 11  1  0
 11 16  1  0
 11 12  1  6
 13 12  1  0
 13 14  1  0
 14 15  2  0
 16 17  2  0
 18 14  1  0
 20 19  1  1
 20 21  1  0
 20 22  1  0
 22 24  1  0
 22 23  1  6
 23 16  1  0
 24 25  1  0
 26 24  2  0
M  END
$$$$
