QET.pdb
     RDKit          3D

 26 25  0  0  1  0  0  0  0  0999 V2000
    9.9684  -13.3544   18.7556 N   0  0  0  0  0  0  0  0  0  0  0  0
    8.7277  -12.9775   18.1664 C   0  0  0  0  0  0  0  0  0  0  0  0
    8.7317  -12.6469   16.9696 O   0  0  0  0  0  0  0  0  0  0  0  0
    7.5073  -12.9911   18.9754 C   0  0  0  0  0  0  0  0  0  0  0  0
    7.6841  -13.5185   20.3554 C   0  0  0  0  0  0  0  0  0  0  0  0
    8.0363  -14.9674   20.4398 C   0  0  2  0  0  0  0  0  0  0  0  0
    6.9888  -15.7267   19.7631 N   0  0  0  0  0  0  0  0  0  0  0  0
    8.1127  -15.3793   21.8819 C   0  0  0  0  0  0  0  0  0  0  0  0
    7.0307  -15.4388   22.5236 O   0  0  0  0  0  0  0  0  0  0  0  0
    9.3518  -15.6879   22.4939 N   0  0  0  0  0  0  0  0  0  0  0  0
    9.3174  -16.1397   23.8925 C   0  0  1  0  0  0  0  0  0  0  0  0
   10.5157  -17.0242   24.1132 C   0  0  0  0  0  0  0  0  0  0  0  0
   10.6113  -18.1882   23.1980 C   0  0  0  0  0  0  0  0  0  0  0  0
   11.7641  -19.0610   23.4566 C   0  0  0  0  0  0  0  0  0  0  0  0
   12.5416  -19.4506   22.5704 O   0  0  0  0  0  0  0  0  0  0  0  0
    9.3018  -14.9716   24.8024 C   0  0  0  0  0  0  0  0  0  0  0  0
    9.9979  -13.9623   24.5645 O   0  0  0  0  0  0  0  0  0  0  0  0
   11.9893  -19.4689   24.7722 O   0  0  0  0  0  0  0  0  0  0  0  0
    6.9926  -12.3692   25.3865 C   0  0  0  0  0  0  0  0  0  0  0  0
    7.0991  -13.0672   26.7201 C   0  0  1  0  0  0  0  0  0  0  0  0
    6.0884  -14.0245   26.7770 O   0  0  0  0  0  0  0  0  0  0  0  0
    8.4129  -13.8036   26.8596 C   0  0  2  0  0  0  0  0  0  0  0  0
    8.4965  -14.9524   25.9790 N   0  0  0  0  0  0  0  0  0  0  0  0
    8.6632  -14.2337   28.2515 C   0  0  0  0  0  0  0  0  0  0  0  0
    8.7586  -15.5694   28.6048 O   0  0  0  0  0  0  0  0  0  0  0  0
    8.7989  -13.3837   29.1690 O   0  0  0  0  0  0  0  0  0  0  0  0
  1  2  1  0
  2  4  1  0
  3  2  2  0
  4  5  1  0
  5  6  1  0
  6  7  1  6
  6  8  1  0
  8 10  1  0
  8  9  2  0
 10 11  1  0
 11 16  1  0
 11 12  1  1
 13 12  1  0
 13 14  1  0
 14 15  2  0
 16 17  2  0
 18 14  1  0
 20 19  1  6
 20 21  1  0
 20 22  1  0
 22 24  1  0
 22 23  1  6
 23 16  1  0
 24 25  1  0
 26 24  2  0
M  END
$$$$
