QET.pdb
     RDKit          3D

 26 25  0  0  1  0  0  0  0  0999 V2000
    7.9016  -11.9399   18.6081 N   0  0  0  0  0  0  0  0  0  0  0  0
    7.8891  -12.4869   19.9231 C   0  0  0  0  0  0  0  0  0  0  0  0
    8.1033  -11.7162   20.8728 O   0  0  0  0  0  0  0  0  0  0  0  0
    7.6286  -13.9153   20.1117 C   0  0  0  0  0  0  0  0  0  0  0  0
    7.4908  -14.6922   18.8502 C   0  0  0  0  0  0  0  0  0  0  0  0
    8.7521  -14.8594   18.0680 C   0  0  2  0  0  0  0  0  0  0  0  0
    8.4679  -15.7356   16.9351 N   0  0  0  0  0  0  0  0  0  0  0  0
    9.8026  -15.4820   18.9420 C   0  0  0  0  0  0  0  0  0  0  0  0
    9.5891  -16.6514   19.3578 O   0  0  0  0  0  0  0  0  0  0  0  0
   10.9846  -14.7813   19.2839 N   0  0  0  0  0  0  0  0  0  0  0  0
   11.9575  -15.4792   20.1371 C   0  0  1  0  0  0  0  0  0  0  0  0
   13.3111  -14.8770   19.8680 C   0  0  0  0  0  0  0  0  0  0  0  0
   13.8046  -15.0424   18.4785 C   0  0  0  0  0  0  0  0  0  0  0  0
   15.1028  -14.4044   18.2235 C   0  0  0  0  0  0  0  0  0  0  0  0
   15.5875  -13.5220   18.9502 O   0  0  0  0  0  0  0  0  0  0  0  0
   11.5599  -15.3636   21.5587 C   0  0  0  0  0  0  0  0  0  0  0  0
   10.7922  -14.4550   21.9395 O   0  0  0  0  0  0  0  0  0  0  0  0
   15.8226  -14.8189   17.1019 O   0  0  0  0  0  0  0  0  0  0  0  0
    9.7505  -18.1339   22.8385 C   0  0  0  0  0  0  0  0  0  0  0  0
    9.9080  -16.8627   23.6361 C   0  0  1  0  0  0  0  0  0  0  0  0
    9.3920  -17.0970   24.9089 O   0  0  0  0  0  0  0  0  0  0  0  0
   11.3639  -16.4922   23.8114 C   0  0  2  0  0  0  0  0  0  0  0  0
   12.0344  -16.2791   22.5436 N   0  0  0  0  0  0  0  0  0  0  0  0
   12.1044  -17.5049   24.5933 C   0  0  0  0  0  0  0  0  0  0  0  0
   11.8854  -17.6961   25.9473 O   0  0  0  0  0  0  0  0  0  0  0  0
   12.9686  -18.2332   24.0406 O   0  0  0  0  0  0  0  0  0  0  0  0
  1  2  1  0
  2  4  1  0
  3  2  2  0
  4  5  1  0
  5  6  1  0
  6  7  1  6
  6  8  1  0
  8 10  1  0
  8  9  2  0
 10 11  1  0
 11 16  1  0
 11 12  1  1
 13 12  1  0
 13 14  1  0
 14 15  2  0
 16 17  2  0
 18 14  1  0
 20 19  1  6
 20 21  1  0
 20 22  1  0
 22 24  1  0
 22 23  1  6
 23 16  1  0
 24 25  1  0
 26 24  2  0
M  END
$$$$
