QET.pdb
     RDKit          3D

 26 25  0  0  1  0  0  0  0  0999 V2000
    9.3899  -13.7013   17.8744 N   0  0  0  0  0  0  0  0  0  0  0  0
    8.0239  -14.0951   17.7865 C   0  0  0  0  0  0  0  0  0  0  0  0
    7.6264  -14.5701   16.7103 O   0  0  0  0  0  0  0  0  0  0  0  0
    7.1461  -13.9309   18.9467 C   0  0  0  0  0  0  0  0  0  0  0  0
    7.7702  -13.2318   20.1024 C   0  0  0  0  0  0  0  0  0  0  0  0
    8.8523  -13.9937   20.7947 C   0  0  2  0  0  0  0  0  0  0  0  0
    9.2345  -15.1133   19.9389 N   0  0  0  0  0  0  0  0  0  0  0  0
    8.3380  -14.5094   22.1079 C   0  0  0  0  0  0  0  0  0  0  0  0
    7.8065  -13.6754   22.8876 O   0  0  0  0  0  0  0  0  0  0  0  0
    8.4471  -15.8780   22.4541 N   0  0  0  0  0  0  0  0  0  0  0  0
    7.9815  -16.2730   23.7915 C   0  0  1  0  0  0  0  0  0  0  0  0
    7.7786  -17.7649   23.7790 C   0  0  0  0  0  0  0  0  0  0  0  0
    7.3852  -18.3540   25.0828 C   0  0  0  0  0  0  0  0  0  0  0  0
    7.1270  -19.7991   25.0342 C   0  0  0  0  0  0  0  0  0  0  0  0
    6.4464  -20.4028   25.8792 O   0  0  0  0  0  0  0  0  0  0  0  0
    8.9604  -15.8443   24.8162 C   0  0  0  0  0  0  0  0  0  0  0  0
   10.1644  -15.6815   24.5267 O   0  0  0  0  0  0  0  0  0  0  0  0
    7.6808  -20.5239   23.9778 O   0  0  0  0  0  0  0  0  0  0  0  0
    9.8168  -13.2572   28.8734 C   0  0  0  0  0  0  0  0  0  0  0  0
    8.8372  -13.8951   27.9192 C   0  0  1  0  0  0  0  0  0  0  0  0
    8.4763  -12.9322   26.9791 O   0  0  0  0  0  0  0  0  0  0  0  0
    9.4669  -15.0406   27.1582 C   0  0  2  0  0  0  0  0  0  0  0  0
    8.5704  -15.6015   26.1662 N   0  0  0  0  0  0  0  0  0  0  0  0
    9.9350  -16.1150   28.0590 C   0  0  0  0  0  0  0  0  0  0  0  0
   11.0084  -15.9428   28.9169 O   0  0  0  0  0  0  0  0  0  0  0  0
    9.3612  -17.2345   28.0712 O   0  0  0  0  0  0  0  0  0  0  0  0
  1  2  1  0
  2  4  1  0
  3  2  2  0
  4  5  1  0
  5  6  1  0
  6  7  1  6
  6  8  1  0
  8 10  1  0
  8  9  2  0
 10 11  1  0
 11 16  1  0
 11 12  1  6
 13 12  1  0
 13 14  1  0
 14 15  2  0
 16 17  2  0
 18 14  1  0
 20 19  1  1
 20 21  1  0
 20 22  1  0
 22 24  1  0
 22 23  1  6
 23 16  1  0
 24 25  1  0
 26 24  2  0
M  END
$$$$
