QET.pdb
     RDKit          3D

 26 25  0  0  1  0  0  0  0  0999 V2000
    8.1775  -12.5254   18.7181 N   0  0  0  0  0  0  0  0  0  0  0  0
    8.2509  -13.3329   17.5471 C   0  0  0  0  0  0  0  0  0  0  0  0
    8.1018  -12.7742   16.4482 O   0  0  0  0  0  0  0  0  0  0  0  0
    8.4958  -14.7709   17.6724 C   0  0  0  0  0  0  0  0  0  0  0  0
    8.6623  -15.2520   19.0705 C   0  0  0  0  0  0  0  0  0  0  0  0
    8.9862  -16.7036   19.2067 C   0  0  2  0  0  0  0  0  0  0  0  0
    7.8476  -17.4690   18.7071 N   0  0  0  0  0  0  0  0  0  0  0  0
    9.2224  -17.0286   20.6537 C   0  0  0  0  0  0  0  0  0  0  0  0
    8.2315  -17.4154   21.3280 O   0  0  0  0  0  0  0  0  0  0  0  0
   10.5076  -16.9046   21.2349 N   0  0  0  0  0  0  0  0  0  0  0  0
   10.6633  -17.3544   22.6259 C   0  0  1  0  0  0  0  0  0  0  0  0
   12.0689  -17.8713   22.7810 C   0  0  0  0  0  0  0  0  0  0  0  0
   12.4091  -18.3617   24.1395 C   0  0  0  0  0  0  0  0  0  0  0  0
   13.8105  -18.7732   24.2947 C   0  0  0  0  0  0  0  0  0  0  0  0
   14.6920  -18.0394   24.7703 O   0  0  0  0  0  0  0  0  0  0  0  0
   10.3647  -16.2411   23.5552 C   0  0  0  0  0  0  0  0  0  0  0  0
   10.9466  -15.1412   23.4485 O   0  0  0  0  0  0  0  0  0  0  0  0
   14.1603  -20.0600   23.8826 O   0  0  0  0  0  0  0  0  0  0  0  0
    7.4649  -14.1439   24.0092 C   0  0  0  0  0  0  0  0  0  0  0  0
    7.6613  -14.8125   25.3476 C   0  0  1  0  0  0  0  0  0  0  0  0
    6.8345  -15.9334   25.3843 O   0  0  0  0  0  0  0  0  0  0  0  0
    9.0808  -15.3053   25.5207 C   0  0  2  0  0  0  0  0  0  0  0  0
    9.4068  -16.3792   24.6025 N   0  0  0  0  0  0  0  0  0  0  0  0
    9.3506  -15.7459   26.9057 C   0  0  0  0  0  0  0  0  0  0  0  0
    9.2863  -14.8767   27.9819 O   0  0  0  0  0  0  0  0  0  0  0  0
    9.6513  -16.9431   27.1488 O   0  0  0  0  0  0  0  0  0  0  0  0
  1  2  1  0
  2  4  1  0
  3  2  2  0
  4  5  1  0
  5  6  1  0
  6  7  1  1
  6  8  1  0
  8 10  1  0
  8  9  2  0
 10 11  1  0
 11 16  1  0
 11 12  1  6
 13 12  1  0
 13 14  1  0
 14 15  2  0
 16 17  2  0
 18 14  1  0
 20 19  1  6
 20 21  1  0
 20 22  1  0
 22 24  1  0
 22 23  1  6
 23 16  1  0
 24 25  1  0
 26 24  2  0
M  END
$$$$
