QET.pdb
     RDKit          3D

 26 25  0  0  1  0  0  0  0  0999 V2000
    9.2355  -12.4653   19.7270 N   0  0  0  0  0  0  0  0  0  0  0  0
    8.6484  -13.0650   18.5762 C   0  0  0  0  0  0  0  0  0  0  0  0
    8.8221  -12.5076   17.4804 O   0  0  0  0  0  0  0  0  0  0  0  0
    7.8721  -14.2983   18.7179 C   0  0  0  0  0  0  0  0  0  0  0  0
    7.8048  -14.8327   20.1049 C   0  0  0  0  0  0  0  0  0  0  0  0
    8.3591  -16.2083   20.2815 C   0  0  2  0  0  0  0  0  0  0  0  0
    7.5006  -17.1379   19.5530 N   0  0  0  0  0  0  0  0  0  0  0  0
    8.3663  -16.5598   21.7415 C   0  0  0  0  0  0  0  0  0  0  0  0
    7.3010  -17.0207   22.2299 O   0  0  0  0  0  0  0  0  0  0  0  0
    9.5248  -16.3796   22.5355 N   0  0  0  0  0  0  0  0  0  0  0  0
    9.4441  -16.7872   23.9457 C   0  0  1  0  0  0  0  0  0  0  0  0
   10.5102  -17.8244   24.1799 C   0  0  0  0  0  0  0  0  0  0  0  0
   11.8992  -17.3583   23.9453 C   0  0  0  0  0  0  0  0  0  0  0  0
   12.7095  -18.2745   23.1319 C   0  0  0  0  0  0  0  0  0  0  0  0
   12.8741  -19.4737   23.4086 O   0  0  0  0  0  0  0  0  0  0  0  0
    9.6018  -15.6061   24.8247 C   0  0  0  0  0  0  0  0  0  0  0  0
   10.3979  -14.6892   24.5325 O   0  0  0  0  0  0  0  0  0  0  0  0
   13.3233  -17.7601   21.9889 O   0  0  0  0  0  0  0  0  0  0  0  0
    7.5562  -12.3480   27.7523 C   0  0  0  0  0  0  0  0  0  0  0  0
    7.5137  -13.6104   26.9266 C   0  0  1  0  0  0  0  0  0  0  0  0
    7.1500  -13.2539   25.6297 O   0  0  0  0  0  0  0  0  0  0  0  0
    8.8745  -14.2646   26.8392 C   0  0  2  0  0  0  0  0  0  0  0  0
    8.8558  -15.4691   26.0322 N   0  0  0  0  0  0  0  0  0  0  0  0
    9.4269  -14.5777   28.1741 C   0  0  0  0  0  0  0  0  0  0  0  0
    9.8945  -13.5930   29.0283 O   0  0  0  0  0  0  0  0  0  0  0  0
    9.4884  -15.7677   28.5778 O   0  0  0  0  0  0  0  0  0  0  0  0
  1  2  1  0
  2  4  1  0
  3  2  2  0
  4  5  1  0
  5  6  1  0
  6  7  1  6
  6  8  1  0
  8 10  1  0
  8  9  2  0
 10 11  1  0
 11 16  1  0
 11 12  1  1
 13 12  1  0
 13 14  1  0
 14 15  2  0
 16 17  2  0
 18 14  1  0
 20 19  1  1
 20 21  1  0
 20 22  1  0
 22 24  1  0
 22 23  1  6
 23 16  1  0
 24 25  1  0
 26 24  2  0
M  END
$$$$
