QET.pdb
     RDKit          3D

 26 25  0  0  1  0  0  0  0  0999 V2000
    9.2991  -15.3780   13.7249 N   0  0  0  0  0  0  0  0  0  0  0  0
    8.0329  -14.7257   13.7197 C   0  0  0  0  0  0  0  0  0  0  0  0
    7.5457  -14.4157   12.6205 O   0  0  0  0  0  0  0  0  0  0  0  0
    7.3566  -14.4457   14.9878 C   0  0  0  0  0  0  0  0  0  0  0  0
    8.0399  -14.9958   16.1896 C   0  0  0  0  0  0  0  0  0  0  0  0
    8.5173  -13.9751   17.1698 C   0  0  2  0  0  0  0  0  0  0  0  0
    9.4282  -13.0715   16.4729 N   0  0  0  0  0  0  0  0  0  0  0  0
    9.2412  -14.6614   18.2923 C   0  0  0  0  0  0  0  0  0  0  0  0
    8.5890  -15.4931   18.9771 O   0  0  0  0  0  0  0  0  0  0  0  0
   10.6020  -14.3836   18.5684 N   0  0  0  0  0  0  0  0  0  0  0  0
   11.2389  -15.1489   19.6501 C   0  0  1  0  0  0  0  0  0  0  0  0
   12.7288  -14.9882   19.5031 C   0  0  0  0  0  0  0  0  0  0  0  0
   13.3064  -15.5982   18.2800 C   0  0  0  0  0  0  0  0  0  0  0  0
   14.7602  -15.4297   18.1553 C   0  0  0  0  0  0  0  0  0  0  0  0
   15.5108  -16.2903   17.6678 O   0  0  0  0  0  0  0  0  0  0  0  0
   10.7463  -14.6759   20.9639 C   0  0  0  0  0  0  0  0  0  0  0  0
   11.0225  -13.5310   21.3797 O   0  0  0  0  0  0  0  0  0  0  0  0
   15.3184  -14.2349   18.6121 O   0  0  0  0  0  0  0  0  0  0  0  0
    7.6449  -13.6044   22.0226 C   0  0  0  0  0  0  0  0  0  0  0  0
    7.9168  -14.7427   22.9750 C   0  0  1  0  0  0  0  0  0  0  0  0
    7.2950  -15.8792   22.4623 O   0  0  0  0  0  0  0  0  0  0  0  0
    9.3947  -15.0514   23.0661 C   0  0  2  0  0  0  0  0  0  0  0  0
    9.9419  -15.5032   21.8016 N   0  0  0  0  0  0  0  0  0  0  0  0
    9.6895  -16.0522   24.1133 C   0  0  0  0  0  0  0  0  0  0  0  0
    9.4054  -15.8267   25.4498 O   0  0  0  0  0  0  0  0  0  0  0  0
   10.2156  -17.1550   23.8139 O   0  0  0  0  0  0  0  0  0  0  0  0
  1  2  1  0
  2  4  1  0
  3  2  2  0
  4  5  1  0
  5  6  1  0
  6  7  1  6
  6  8  1  0
  8 10  1  0
  8  9  2  0
 10 11  1  0
 11 16  1  0
 11 12  1  1
 13 12  1  0
 13 14  1  0
 14 15  2  0
 16 17  2  0
 18 14  1  0
 20 19  1  6
 20 21  1  0
 20 22  1  0
 22 24  1  0
 22 23  1  6
 23 16  1  0
 24 25  1  0
 26 24  2  0
M  END
$$$$
