QET.pdb
     RDKit          3D

 26 25  0  0  1  0  0  0  0  0999 V2000
    9.9807  -13.3281   19.1737 N   0  0  0  0  0  0  0  0  0  0  0  0
    8.7452  -12.8339   18.6658 C   0  0  0  0  0  0  0  0  0  0  0  0
    8.7428  -12.3436   17.5251 O   0  0  0  0  0  0  0  0  0  0  0  0
    7.5375  -12.9178   19.4893 C   0  0  0  0  0  0  0  0  0  0  0  0
    7.7268  -13.5959   20.8001 C   0  0  0  0  0  0  0  0  0  0  0  0
    8.0587  -15.0499   20.7193 C   0  0  2  0  0  0  0  0  0  0  0  0
    6.9580  -15.7270   20.0395 N   0  0  0  0  0  0  0  0  0  0  0  0
    8.2178  -15.6034   22.1061 C   0  0  0  0  0  0  0  0  0  0  0  0
    7.1662  -15.8655   22.7476 O   0  0  0  0  0  0  0  0  0  0  0  0
    9.4989  -15.8210   22.6685 N   0  0  0  0  0  0  0  0  0  0  0  0
    9.5514  -16.3917   24.0224 C   0  0  1  0  0  0  0  0  0  0  0  0
   10.6454  -17.4261   24.0367 C   0  0  0  0  0  0  0  0  0  0  0  0
   10.8895  -18.0606   25.3556 C   0  0  0  0  0  0  0  0  0  0  0  0
   11.9846  -19.0396   25.3563 C   0  0  0  0  0  0  0  0  0  0  0  0
   12.8905  -19.0544   26.2052 O   0  0  0  0  0  0  0  0  0  0  0  0
    9.7756  -15.3179   25.0169 C   0  0  0  0  0  0  0  0  0  0  0  0
   10.7603  -14.5548   24.9278 O   0  0  0  0  0  0  0  0  0  0  0  0
   11.9989  -20.0007   24.3444 O   0  0  0  0  0  0  0  0  0  0  0  0
    7.6104  -12.3246   25.9335 C   0  0  0  0  0  0  0  0  0  0  0  0
    7.7994  -13.1730   27.1670 C   0  0  1  0  0  0  0  0  0  0  0  0
    6.7097  -14.0366   27.2558 O   0  0  0  0  0  0  0  0  0  0  0  0
    9.0383  -14.0347   27.0655 C   0  0  2  0  0  0  0  0  0  0  0  0
    8.8820  -15.1133   26.1092 N   0  0  0  0  0  0  0  0  0  0  0  0
    9.4343  -14.5943   28.3751 C   0  0  0  0  0  0  0  0  0  0  0  0
    9.8123  -13.7898   29.4370 O   0  0  0  0  0  0  0  0  0  0  0  0
    9.4389  -15.8380   28.5640 O   0  0  0  0  0  0  0  0  0  0  0  0
  1  2  1  0
  2  4  1  0
  3  2  2  0
  4  5  1  0
  5  6  1  0
  6  7  1  1
  6  8  1  0
  8 10  1  0
  8  9  2  0
 10 11  1  0
 11 16  1  0
 11 12  1  6
 13 12  1  0
 13 14  1  0
 14 15  2  0
 16 17  2  0
 18 14  1  0
 20 19  1  6
 20 21  1  0
 20 22  1  0
 22 24  1  0
 22 23  1  6
 23 16  1  0
 24 25  1  0
 26 24  2  0
M  END
$$$$
