ITA.pdb
     RDKit          3D

 21 20  0  0  1  0  0  0  0  0999 V2000
   16.1563  -14.5626  -14.6487 C   0  0  0  0  0  0  0  0  0  0  0  0
   16.8058  -14.2750  -15.9706 C   0  0  0  0  0  0  0  0  0  0  0  0
   17.8739  -13.2676  -15.9483 C   0  0  2  0  0  0  0  0  0  0  0  0
   17.3189  -12.0031  -15.2525 C   0  0  0  0  0  0  0  0  0  0  0  0
   18.6182  -12.8924  -17.1489 C   0  0  2  0  0  0  0  0  0  0  0  0
   19.1792  -14.1788  -17.6715 N   0  0  0  0  0  0  0  0  0  0  0  0
   19.6361  -11.8654  -17.1164 C   0  0  0  0  0  0  0  0  0  0  0  0
   20.8100  -12.1074  -16.7340 O   0  0  0  0  0  0  0  0  0  0  0  0
   21.4494   -7.5415  -18.7139 C   0  0  0  0  0  0  0  0  0  0  0  0
   20.4055   -8.6276  -18.7192 C   0  0  1  0  0  0  0  0  0  0  0  0
   20.5325   -9.3329  -19.8981 O   0  0  0  0  0  0  0  0  0  0  0  0
   20.4482   -9.4797  -17.4763 C   0  0  2  0  0  0  0  0  0  0  0  0
   19.4179  -10.4986  -17.5072 N   0  0  0  0  0  0  0  0  0  0  0  0
   20.3412   -8.6052  -16.3000 C   0  0  0  0  0  0  0  0  0  0  0  0
   19.2657   -8.0839  -15.9003 O   0  0  0  0  0  0  0  0  0  0  0  0
   22.7668   -7.6751  -13.6301 C   0  0  0  0  0  0  0  0  0  0  0  0
   21.4527   -7.4878  -14.3564 C   0  0  2  0  0  0  0  0  0  0  0  0
   21.5094   -8.3204  -15.5541 N   0  0  0  0  0  0  0  0  0  0  0  0
   21.3918   -6.0638  -14.7909 C   0  0  0  0  0  0  0  0  0  0  0  0
   21.8712   -5.6954  -15.8943 O   0  0  0  0  0  0  0  0  0  0  0  0
   20.8059   -5.0830  -14.0013 O   0  0  0  0  0  0  0  0  0  0  0  0
  2  1  1  0
  2  3  1  0
  3  5  1  0
  3  4  1  6
  5  6  1  1
  5  7  1  0
  7 13  1  0
  7  8  2  0
 10  9  1  1
 10 11  1  0
 12 10  1  0
 12 13  1  6
 14 15  2  0
 14 12  1  0
 17 16  1  1
 17 18  1  0
 18 14  1  0
 19 21  1  0
 19 17  1  0
 20 19  2  0
M  END
$$$$
