ITA.pdb
     RDKit          3D

 21 20  0  0  1  0  0  0  0  0999 V2000
   17.1643  -13.9057  -14.2476 C   0  0  0  0  0  0  0  0  0  0  0  0
   17.1901  -13.1668  -15.5535 C   0  0  0  0  0  0  0  0  0  0  0  0
   18.0842  -12.0032  -15.6078 C   0  0  2  0  0  0  0  0  0  0  0  0
   17.7228  -11.0717  -14.4276 C   0  0  0  0  0  0  0  0  0  0  0  0
   18.2702  -11.2180  -16.8265 C   0  0  2  0  0  0  0  0  0  0  0  0
   18.6781  -12.2141  -17.8675 N   0  0  0  0  0  0  0  0  0  0  0  0
   19.1392  -10.0622  -16.8550 C   0  0  0  0  0  0  0  0  0  0  0  0
   20.3917  -10.1753  -16.8951 O   0  0  0  0  0  0  0  0  0  0  0  0
   19.9910   -5.3460  -17.9960 C   0  0  0  0  0  0  0  0  0  0  0  0
   19.1379   -6.5871  -17.9642 C   0  0  1  0  0  0  0  0  0  0  0  0
   19.1252   -7.1264  -19.2340 O   0  0  0  0  0  0  0  0  0  0  0  0
   19.5555   -7.5509  -16.8827 C   0  0  2  0  0  0  0  0  0  0  0  0
   18.6747   -8.7012  -16.8410 N   0  0  0  0  0  0  0  0  0  0  0  0
   19.6046   -6.8316  -15.6021 C   0  0  0  0  0  0  0  0  0  0  0  0
   18.5877   -6.5104  -14.9306 O   0  0  0  0  0  0  0  0  0  0  0  0
   22.4118   -5.6906  -13.4282 C   0  0  0  0  0  0  0  0  0  0  0  0
   20.9681   -5.6362  -13.8778 C   0  0  2  0  0  0  0  0  0  0  0  0
   20.8655   -6.4700  -15.0715 N   0  0  0  0  0  0  0  0  0  0  0  0
   20.6866   -4.2284  -14.2767 C   0  0  0  0  0  0  0  0  0  0  0  0
   20.9180   -3.8205  -15.4442 O   0  0  0  0  0  0  0  0  0  0  0  0
   20.1585   -3.3068  -13.3821 O   0  0  0  0  0  0  0  0  0  0  0  0
  2  1  1  0
  2  3  1  0
  3  5  1  0
  3  4  1  1
  5  6  1  6
  5  7  1  0
  7 13  1  0
  7  8  2  0
 10  9  1  6
 10 11  1  0
 12 10  1  0
 12 13  1  1
 14 15  2  0
 14 12  1  0
 17 16  1  6
 17 18  1  0
 18 14  1  0
 19 21  1  0
 19 17  1  0
 20 19  2  0
M  END
$$$$
