ITA.pdb
     RDKit          3D

 21 20  0  0  1  0  0  0  0  0999 V2000
   17.8097  -14.4200  -18.1813 C   0  0  0  0  0  0  0  0  0  0  0  0
   18.7025  -13.7823  -17.1575 C   0  0  0  0  0  0  0  0  0  0  0  0
   18.9950  -12.3587  -17.3675 C   0  0  2  0  0  0  0  0  0  0  0  0
   19.5525  -12.1953  -18.8005 C   0  0  0  0  0  0  0  0  0  0  0  0
   19.7973  -11.5796  -16.4264 C   0  0  2  0  0  0  0  0  0  0  0  0
   19.1784  -11.8380  -15.0874 N   0  0  0  0  0  0  0  0  0  0  0  0
   20.0268  -10.1648  -16.6202 C   0  0  0  0  0  0  0  0  0  0  0  0
   20.5229   -9.7134  -17.6847 O   0  0  0  0  0  0  0  0  0  0  0  0
   17.5051   -7.3785  -16.6724 C   0  0  0  0  0  0  0  0  0  0  0  0
   18.5558   -7.0127  -15.6568 C   0  0  1  0  0  0  0  0  0  0  0  0
   18.0156   -7.1984  -14.4010 O   0  0  0  0  0  0  0  0  0  0  0  0
   19.8602   -7.7329  -15.8860 C   0  0  2  0  0  0  0  0  0  0  0  0
   19.7202   -9.1550  -15.6432 N   0  0  0  0  0  0  0  0  0  0  0  0
   20.8947   -7.1164  -15.0437 C   0  0  0  0  0  0  0  0  0  0  0  0
   21.2710   -7.5769  -13.9326 O   0  0  0  0  0  0  0  0  0  0  0  0
   23.1566   -4.1924  -15.5755 C   0  0  0  0  0  0  0  0  0  0  0  0
   22.5917   -5.3059  -14.7209 C   0  0  2  0  0  0  0  0  0  0  0  0
   21.5219   -5.9303  -15.4932 N   0  0  0  0  0  0  0  0  0  0  0  0
   21.9789   -4.6690  -13.5212 C   0  0  0  0  0  0  0  0  0  0  0  0
   20.7580   -4.3666  -13.4927 O   0  0  0  0  0  0  0  0  0  0  0  0
   22.7242   -4.3815  -12.3852 O   0  0  0  0  0  0  0  0  0  0  0  0
  2  1  1  0
  2  3  1  0
  3  5  1  0
  3  4  1  6
  5  6  1  1
  5  7  1  0
  7 13  1  0
  7  8  2  0
 10  9  1  6
 10 11  1  0
 12 10  1  0
 12 13  1  1
 14 15  2  0
 14 12  1  0
 17 16  1  6
 17 18  1  0
 18 14  1  0
 19 21  1  0
 19 17  1  0
 20 19  2  0
M  END
$$$$
