ITA.pdb
     RDKit          3D

 21 20  0  0  1  0  0  0  0  0999 V2000
   15.6135  -14.1234  -16.9654 C   0  0  0  0  0  0  0  0  0  0  0  0
   16.6375  -13.5436  -16.0342 C   0  0  0  0  0  0  0  0  0  0  0  0
   17.0646  -12.1710  -16.3341 C   0  0  2  0  0  0  0  0  0  0  0  0
   17.5067  -12.1247  -17.8151 C   0  0  0  0  0  0  0  0  0  0  0  0
   18.0281  -11.4538  -15.5013 C   0  0  2  0  0  0  0  0  0  0  0  0
   17.4119  -11.4266  -14.1367 N   0  0  0  0  0  0  0  0  0  0  0  0
   18.5161  -10.1429  -15.8692 C   0  0  0  0  0  0  0  0  0  0  0  0
   19.1442   -9.9463  -16.9415 O   0  0  0  0  0  0  0  0  0  0  0  0
   16.6614   -6.7404  -16.2769 C   0  0  0  0  0  0  0  0  0  0  0  0
   17.7819   -6.5963  -15.2804 C   0  0  1  0  0  0  0  0  0  0  0  0
   17.2244   -6.5383  -14.0198 O   0  0  0  0  0  0  0  0  0  0  0  0
   18.8433   -7.6545  -15.4435 C   0  0  2  0  0  0  0  0  0  0  0  0
   18.3389   -8.9608  -15.0696 N   0  0  0  0  0  0  0  0  0  0  0  0
   20.0254   -7.2621  -14.6635 C   0  0  0  0  0  0  0  0  0  0  0  0
   20.2434   -7.6251  -13.4765 O   0  0  0  0  0  0  0  0  0  0  0  0
   23.1576   -5.4704  -15.5890 C   0  0  0  0  0  0  0  0  0  0  0  0
   22.2161   -6.0573  -14.5602 C   0  0  2  0  0  0  0  0  0  0  0  0
   20.9934   -6.4254  -15.2676 N   0  0  0  0  0  0  0  0  0  0  0  0
   21.8803   -4.9670  -13.6017 C   0  0  0  0  0  0  0  0  0  0  0  0
   20.8270   -4.2898  -13.7239 O   0  0  0  0  0  0  0  0  0  0  0  0
   22.7109   -4.6500  -12.5348 O   0  0  0  0  0  0  0  0  0  0  0  0
  2  1  1  0
  2  3  1  0
  3  5  1  0
  3  4  1  6
  5  6  1  1
  5  7  1  0
  7 13  1  0
  7  8  2  0
 10  9  1  6
 10 11  1  0
 12 10  1  0
 12 13  1  1
 14 15  2  0
 14 12  1  0
 17 16  1  6
 17 18  1  0
 18 14  1  0
 19 21  1  0
 19 17  1  0
 20 19  2  0
M  END
$$$$
