ITA.pdb
     RDKit          3D

 21 20  0  0  1  0  0  0  0  0999 V2000
   21.2433  -14.7242  -14.6823 C   0  0  0  0  0  0  0  0  0  0  0  0
   21.6047  -14.0780  -15.9876 C   0  0  0  0  0  0  0  0  0  0  0  0
   21.8602  -12.6330  -15.9323 C   0  0  2  0  0  0  0  0  0  0  0  0
   20.6402  -11.9608  -15.2609 C   0  0  0  0  0  0  0  0  0  0  0  0
   22.2697  -11.8672  -17.1079 C   0  0  2  0  0  0  0  0  0  0  0  0
   23.4728  -12.5860  -17.6355 N   0  0  0  0  0  0  0  0  0  0  0  0
   22.5150  -10.4437  -17.0343 C   0  0  0  0  0  0  0  0  0  0  0  0
   23.6012   -9.9797  -16.6009 O   0  0  0  0  0  0  0  0  0  0  0  0
   21.5811   -5.8024  -18.4895 C   0  0  0  0  0  0  0  0  0  0  0  0
   21.3458   -7.2884  -18.5655 C   0  0  1  0  0  0  0  0  0  0  0  0
   21.9031   -7.7470  -19.7413 O   0  0  0  0  0  0  0  0  0  0  0  0
   21.8143   -8.0142  -17.3300 C   0  0  2  0  0  0  0  0  0  0  0  0
   21.5687   -9.4386  -17.4376 N   0  0  0  0  0  0  0  0  0  0  0  0
   21.1631   -7.4169  -16.1557 C   0  0  0  0  0  0  0  0  0  0  0  0
   19.9752   -7.6535  -15.8075 O   0  0  0  0  0  0  0  0  0  0  0  0
   22.4473   -5.2401  -13.4093 C   0  0  0  0  0  0  0  0  0  0  0  0
   21.3248   -5.9462  -14.1377 C   0  0  2  0  0  0  0  0  0  0  0  0
   21.9017   -6.5179  -15.3506 N   0  0  0  0  0  0  0  0  0  0  0  0
   20.3428   -4.9023  -14.5455 C   0  0  0  0  0  0  0  0  0  0  0  0
   20.4725   -4.2679  -15.6243 O   0  0  0  0  0  0  0  0  0  0  0  0
   19.2449   -4.5836  -13.7571 O   0  0  0  0  0  0  0  0  0  0  0  0
  2  1  1  0
  2  3  1  0
  3  5  1  0
  3  4  1  6
  5  6  1  1
  5  7  1  0
  7 13  1  0
  7  8  2  0
 10  9  1  1
 10 11  1  0
 12 10  1  0
 12 13  1  6
 14 15  2  0
 14 12  1  0
 17 16  1  1
 17 18  1  0
 18 14  1  0
 19 21  1  0
 19 17  1  0
 20 19  2  0
M  END
$$$$
