ITA.pdb
     RDKit          3D

 21 20  0  0  1  0  0  0  0  0999 V2000
   25.6459  -13.8988  -16.4816 C   0  0  0  0  0  0  0  0  0  0  0  0
   24.2173  -13.6319  -16.1076 C   0  0  0  0  0  0  0  0  0  0  0  0
   23.7675  -12.2431  -16.2666 C   0  0  2  0  0  0  0  0  0  0  0  0
   24.7484  -11.3348  -15.4895 C   0  0  0  0  0  0  0  0  0  0  0  0
   22.3896  -11.8338  -16.0018 C   0  0  2  0  0  0  0  0  0  0  0  0
   21.5461  -12.7972  -16.7783 N   0  0  0  0  0  0  0  0  0  0  0  0
   21.9497  -10.4739  -16.2234 C   0  0  0  0  0  0  0  0  0  0  0  0
   22.0970   -9.9023  -17.3346 O   0  0  0  0  0  0  0  0  0  0  0  0
   18.6839   -9.0542  -16.4551 C   0  0  0  0  0  0  0  0  0  0  0  0
   19.3578   -8.2145  -15.4015 C   0  0  1  0  0  0  0  0  0  0  0  0
   18.8182   -8.5545  -14.1782 O   0  0  0  0  0  0  0  0  0  0  0  0
   20.8615   -8.3012  -15.4643 C   0  0  2  0  0  0  0  0  0  0  0  0
   21.3160   -9.6564  -15.2242 N   0  0  0  0  0  0  0  0  0  0  0  0
   21.4306   -7.3384  -14.5110 C   0  0  0  0  0  0  0  0  0  0  0  0
   22.1464   -7.6575  -13.5240 O   0  0  0  0  0  0  0  0  0  0  0  0
   23.1531   -4.6817  -14.3266 C   0  0  0  0  0  0  0  0  0  0  0  0
   21.7570   -4.9578  -13.8127 C   0  0  2  0  0  0  0  0  0  0  0  0
   21.1713   -5.9601  -14.6977 N   0  0  0  0  0  0  0  0  0  0  0  0
   20.9766   -3.6980  -13.9673 C   0  0  0  0  0  0  0  0  0  0  0  0
   20.1965   -3.5267  -14.9395 O   0  0  0  0  0  0  0  0  0  0  0  0
   21.0742   -2.6602  -13.0496 O   0  0  0  0  0  0  0  0  0  0  0  0
  2  1  1  0
  2  3  1  0
  3  5  1  0
  3  4  1  1
  5  6  1  6
  5  7  1  0
  7 13  1  0
  7  8  2  0
 10  9  1  6
 10 11  1  0
 12 10  1  0
 12 13  1  1
 14 15  2  0
 14 12  1  0
 17 16  1  6
 17 18  1  0
 18 14  1  0
 19 21  1  0
 19 17  1  0
 20 19  2  0
M  END
$$$$
