ITA.pdb
     RDKit          3D

 21 20  0  0  1  0  0  0  0  0999 V2000
   25.7536  -13.8695  -16.8354 C   0  0  0  0  0  0  0  0  0  0  0  0
   24.4535  -13.2674  -16.3892 C   0  0  0  0  0  0  0  0  0  0  0  0
   24.4083  -11.7999  -16.3630 C   0  0  2  0  0  0  0  0  0  0  0  0
   25.5959  -11.3040  -15.5058 C   0  0  0  0  0  0  0  0  0  0  0  0
   23.1959  -11.0624  -16.0131 C   0  0  2  0  0  0  0  0  0  0  0  0
   22.1246  -11.6505  -16.8785 N   0  0  0  0  0  0  0  0  0  0  0  0
   23.1523   -9.6173  -16.0548 C   0  0  0  0  0  0  0  0  0  0  0  0
   23.7433   -8.9113  -15.1974 O   0  0  0  0  0  0  0  0  0  0  0  0
   21.9790   -5.4065  -18.5326 C   0  0  0  0  0  0  0  0  0  0  0  0
   21.9678   -6.9099  -18.4379 C   0  0  1  0  0  0  0  0  0  0  0  0
   22.6919   -7.4078  -19.5013 O   0  0  0  0  0  0  0  0  0  0  0  0
   22.4189   -7.4098  -17.0891 C   0  0  2  0  0  0  0  0  0  0  0  0
   22.4483   -8.8585  -17.0532 N   0  0  0  0  0  0  0  0  0  0  0  0
   21.5437   -6.8379  -16.0563 C   0  0  0  0  0  0  0  0  0  0  0  0
   20.3578   -7.2097  -15.8473 O   0  0  0  0  0  0  0  0  0  0  0  0
   22.2273   -4.6491  -13.1505 C   0  0  0  0  0  0  0  0  0  0  0  0
   21.2541   -5.2649  -14.1318 C   0  0  2  0  0  0  0  0  0  0  0  0
   22.0477   -5.8042  -15.2319 N   0  0  0  0  0  0  0  0  0  0  0  0
   20.4165   -4.1570  -14.6713 C   0  0  0  0  0  0  0  0  0  0  0  0
   20.7313   -3.5545  -15.7301 O   0  0  0  0  0  0  0  0  0  0  0  0
   19.2555   -3.7408  -14.0330 O   0  0  0  0  0  0  0  0  0  0  0  0
  2  1  1  0
  2  3  1  0
  3  5  1  0
  3  4  1  1
  5  6  1  6
  5  7  1  0
  7 13  1  0
  7  8  2  0
 10  9  1  1
 10 11  1  0
 12 10  1  0
 12 13  1  6
 14 15  2  0
 14 12  1  0
 17 16  1  1
 17 18  1  0
 18 14  1  0
 19 21  1  0
 19 17  1  0
 20 19  2  0
M  END
$$$$
