ITA.pdb
     RDKit          3D

 21 20  0  0  1  0  0  0  0  0999 V2000
   17.5843  -17.2295  -14.4826 C   0  0  0  0  0  0  0  0  0  0  0  0
   18.3397  -16.8379  -15.7186 C   0  0  0  0  0  0  0  0  0  0  0  0
   19.0996  -15.5846  -15.6289 C   0  0  2  0  0  0  0  0  0  0  0  0
   18.1389  -14.4824  -15.1254 C   0  0  0  0  0  0  0  0  0  0  0  0
   19.9043  -15.0784  -16.7391 C   0  0  2  0  0  0  0  0  0  0  0  0
   20.7483  -16.2404  -17.1635 N   0  0  0  0  0  0  0  0  0  0  0  0
   20.7078  -13.8832  -16.6061 C   0  0  0  0  0  0  0  0  0  0  0  0
   21.8869  -13.9222  -16.1688 O   0  0  0  0  0  0  0  0  0  0  0  0
   22.1836  -11.6458  -19.0729 C   0  0  0  0  0  0  0  0  0  0  0  0
   21.3379  -10.7644  -18.1912 C   0  0  1  0  0  0  0  0  0  0  0  0
   20.1982  -10.4300  -18.8931 O   0  0  0  0  0  0  0  0  0  0  0  0
   21.0787  -11.3753  -16.8376 C   0  0  2  0  0  0  0  0  0  0  0  0
   20.2548  -12.5624  -16.9505 N   0  0  0  0  0  0  0  0  0  0  0  0
   20.4806  -10.3548  -15.9654 C   0  0  0  0  0  0  0  0  0  0  0  0
   19.2410  -10.2121  -15.7888 O   0  0  0  0  0  0  0  0  0  0  0  0
   21.9417   -7.9067  -13.5677 C   0  0  0  0  0  0  0  0  0  0  0  0
   20.7927   -8.4229  -14.4061 C   0  0  2  0  0  0  0  0  0  0  0  0
   21.3351   -9.4678  -15.2690 N   0  0  0  0  0  0  0  0  0  0  0  0
   20.3448   -7.2980  -15.2747 C   0  0  0  0  0  0  0  0  0  0  0  0
   20.7480   -7.1872  -16.4613 O   0  0  0  0  0  0  0  0  0  0  0  0
   19.4661   -6.3253  -14.8161 O   0  0  0  0  0  0  0  0  0  0  0  0
  2  1  1  0
  2  3  1  0
  3  5  1  0
  3  4  1  6
  5  6  1  1
  5  7  1  0
  7 13  1  0
  7  8  2  0
 10  9  1  6
 10 11  1  0
 12 10  1  0
 12 13  1  6
 14 15  2  0
 14 12  1  0
 17 16  1  1
 17 18  1  0
 18 14  1  0
 19 21  1  0
 19 17  1  0
 20 19  2  0
M  END
$$$$
