ITA.pdb
     RDKit          3D

 21 20  0  0  1  0  0  0  0  0999 V2000
   16.7787  -13.9800  -19.1715 C   0  0  0  0  0  0  0  0  0  0  0  0
   18.1375  -13.5964  -18.6632 C   0  0  0  0  0  0  0  0  0  0  0  0
   18.1692  -12.4710  -17.7204 C   0  0  2  0  0  0  0  0  0  0  0  0
   17.4140  -11.2876  -18.3689 C   0  0  0  0  0  0  0  0  0  0  0  0
   19.4104  -11.9987  -17.1101 C   0  0  2  0  0  0  0  0  0  0  0  0
   20.0551  -13.2281  -16.5485 N   0  0  0  0  0  0  0  0  0  0  0  0
   19.4142  -10.9284  -16.1373 C   0  0  0  0  0  0  0  0  0  0  0  0
   18.8631  -11.0524  -15.0131 O   0  0  0  0  0  0  0  0  0  0  0  0
   21.8927   -9.5138  -14.0020 C   0  0  0  0  0  0  0  0  0  0  0  0
   21.3880   -8.3401  -14.7999 C   0  0  1  0  0  0  0  0  0  0  0  0
   22.3480   -8.0195  -15.7374 O   0  0  0  0  0  0  0  0  0  0  0  0
   20.0132   -8.5754  -15.3722 C   0  0  2  0  0  0  0  0  0  0  0  0
   20.0313   -9.6465  -16.3484 N   0  0  0  0  0  0  0  0  0  0  0  0
   19.5113   -7.3121  -15.9305 C   0  0  0  0  0  0  0  0  0  0  0  0
   19.7136   -6.9310  -17.1146 O   0  0  0  0  0  0  0  0  0  0  0  0
   17.1707   -4.7163  -14.6728 C   0  0  0  0  0  0  0  0  0  0  0  0
   18.3056   -5.1483  -15.5754 C   0  0  2  0  0  0  0  0  0  0  0  0
   18.7479   -6.4563  -15.1017 N   0  0  0  0  0  0  0  0  0  0  0  0
   19.4222   -4.1840  -15.3667 C   0  0  0  0  0  0  0  0  0  0  0  0
   20.3952   -4.4615  -14.6189 O   0  0  0  0  0  0  0  0  0  0  0  0
   19.4397   -2.9408  -15.9855 O   0  0  0  0  0  0  0  0  0  0  0  0
  2  1  1  0
  2  3  1  0
  3  5  1  0
  3  4  1  6
  5  6  1  1
  5  7  1  0
  7 13  1  0
  7  8  2  0
 10  9  1  6
 10 11  1  0
 12 10  1  0
 12 13  1  6
 14 15  2  0
 14 12  1  0
 17 16  1  1
 17 18  1  0
 18 14  1  0
 19 21  1  0
 19 17  1  0
 20 19  2  0
M  END
$$$$
