ITA.pdb
     RDKit          3D

 21 20  0  0  1  0  0  0  0  0999 V2000
   18.1936  -14.6549  -17.7535 C   0  0  0  0  0  0  0  0  0  0  0  0
   17.9344  -13.5179  -16.8091 C   0  0  0  0  0  0  0  0  0  0  0  0
   18.9243  -12.4336  -16.8329 C   0  0  2  0  0  0  0  0  0  0  0  0
   20.3223  -13.0629  -16.6308 C   0  0  0  0  0  0  0  0  0  0  0  0
   18.7902  -11.2359  -16.0058 C   0  0  2  0  0  0  0  0  0  0  0  0
   17.4222  -10.7089  -16.3111 N   0  0  0  0  0  0  0  0  0  0  0  0
   19.7703  -10.1733  -16.0508 C   0  0  0  0  0  0  0  0  0  0  0  0
   20.9718  -10.3657  -15.7308 O   0  0  0  0  0  0  0  0  0  0  0  0
   21.1902   -8.0777  -18.8619 C   0  0  0  0  0  0  0  0  0  0  0  0
   20.5682   -7.1479  -17.8530 C   0  0  1  0  0  0  0  0  0  0  0  0
   19.3668   -6.7056  -18.3672 O   0  0  0  0  0  0  0  0  0  0  0  0
   20.4690   -7.7633  -16.4804 C   0  0  2  0  0  0  0  0  0  0  0  0
   19.4812   -8.8236  -16.4547 N   0  0  0  0  0  0  0  0  0  0  0  0
   20.1817   -6.7013  -15.5061 C   0  0  0  0  0  0  0  0  0  0  0  0
   19.0215   -6.3168  -15.1987 O   0  0  0  0  0  0  0  0  0  0  0  0
   22.2059   -4.9588  -12.9615 C   0  0  0  0  0  0  0  0  0  0  0  0
   21.0367   -4.9633  -13.9218 C   0  0  2  0  0  0  0  0  0  0  0  0
   21.2638   -6.0590  -14.8592 N   0  0  0  0  0  0  0  0  0  0  0  0
   21.0940   -3.6862  -14.6873 C   0  0  0  0  0  0  0  0  0  0  0  0
   21.5524   -3.6454  -15.8583 O   0  0  0  0  0  0  0  0  0  0  0  0
   20.6463   -2.4885  -14.1456 O   0  0  0  0  0  0  0  0  0  0  0  0
  2  1  1  0
  2  3  1  0
  3  5  1  0
  3  4  1  1
  5  6  1  6
  5  7  1  0
  7 13  1  0
  7  8  2  0
 10  9  1  6
 10 11  1  0
 12 10  1  0
 12 13  1  6
 14 15  2  0
 14 12  1  0
 17 16  1  1
 17 18  1  0
 18 14  1  0
 19 21  1  0
 19 17  1  0
 20 19  2  0
M  END
$$$$
