MGS.pdb
     RDKit          3D

 19 18  0  0  1  0  0  0  0  0999 V2000
   17.8150  -13.8478  -14.5805 C   0  0  0  0  0  0  0  0  0  0  0  0
   18.8398  -12.6584  -15.4147 S   0  0  0  0  0  0  0  0  0  0  0  0
   18.3652  -10.9632  -15.2709 C   0  0  0  0  0  0  0  0  0  0  0  0
   18.1761  -10.4185  -13.9086 C   0  0  0  0  0  0  0  0  0  0  0  0
   17.7519   -9.0237  -13.7198 C   0  0  2  0  0  0  0  0  0  0  0  0
   18.7535   -8.0923  -14.1681 N   0  0  0  0  0  0  0  0  0  0  0  0
   17.3681   -8.6984  -12.3217 C   0  0  0  0  0  0  0  0  0  0  0  0
   16.4772   -9.3445  -11.7496 O   0  0  0  0  0  0  0  0  0  0  0  0
   18.0071   -7.6356  -11.5883 N   0  0  0  0  0  0  0  0  0  0  0  0
   17.7031   -7.4306  -10.1945 C   0  0  0  0  0  0  0  0  0  0  0  0
   16.5433   -6.6240   -9.8923 C   0  0  0  0  0  0  0  0  0  0  0  0
   15.9718   -6.0547  -10.8903 O   0  0  0  0  0  0  0  0  0  0  0  0
   13.3292   -4.8068   -6.7694 O   0  0  0  0  0  0  0  0  0  0  0  0
   14.3996   -5.6988   -6.9497 C   0  0  0  0  0  0  0  0  0  0  0  0
   14.9103   -5.5667   -8.3553 C   0  0  2  0  0  0  0  0  0  0  0  0
   16.0307   -6.4415   -8.5968 N   0  0  0  0  0  0  0  0  0  0  0  0
   15.2805   -4.1360   -8.6392 C   0  0  0  0  0  0  0  0  0  0  0  0
   14.3837   -3.2391   -9.1506 O   0  0  0  0  0  0  0  0  0  0  0  0
   16.4595   -3.7695   -8.3911 O   0  0  0  0  0  0  0  0  0  0  0  0
  1  2  1  0
  3  2  1  0
  4  5  1  0
  4  3  1  0
  5  6  1  1
  7  9  1  0
  7  5  1  0
  8  7  2  0
 10 11  1  0
 10  9  1  0
 11 16  1  0
 12 11  2  0
 13 14  1  0
 15 14  1  1
 15 17  1  0
 16 15  1  0
 17 19  2  0
 17 18  1  0
M  END
$$$$
