MGS.pdb
     RDKit          3D

 19 18  0  0  1  0  0  0  0  0999 V2000
   25.0511  -17.1315  -14.3120 C   0  0  0  0  0  0  0  0  0  0  0  0
   26.6997  -16.9083  -14.9388 S   0  0  0  0  0  0  0  0  0  0  0  0
   26.8546  -16.0517  -16.4756 C   0  0  0  0  0  0  0  0  0  0  0  0
   26.5557  -14.6028  -16.4850 C   0  0  0  0  0  0  0  0  0  0  0  0
   25.1711  -14.1302  -16.3418 C   0  0  2  0  0  0  0  0  0  0  0  0
   24.3468  -14.5391  -17.4486 N   0  0  0  0  0  0  0  0  0  0  0  0
   25.0559  -12.6602  -16.1591 C   0  0  0  0  0  0  0  0  0  0  0  0
   25.6266  -12.0995  -15.2113 O   0  0  0  0  0  0  0  0  0  0  0  0
   24.2878  -11.8422  -17.0629 N   0  0  0  0  0  0  0  0  0  0  0  0
   24.1747  -10.4229  -16.8394 C   0  0  0  0  0  0  0  0  0  0  0  0
   22.8976   -9.9371  -16.3699 C   0  0  0  0  0  0  0  0  0  0  0  0
   21.8775  -10.6665  -16.6422 O   0  0  0  0  0  0  0  0  0  0  0  0
   20.2336   -6.9973  -13.6465 O   0  0  0  0  0  0  0  0  0  0  0  0
   21.5225   -7.2680  -14.1359 C   0  0  0  0  0  0  0  0  0  0  0  0
   21.4254   -8.3178  -15.2046 C   0  0  2  0  0  0  0  0  0  0  0  0
   22.7291   -8.7408  -15.6524 N   0  0  0  0  0  0  0  0  0  0  0  0
   20.6054   -7.8076  -16.3587 C   0  0  0  0  0  0  0  0  0  0  0  0
   21.1782   -7.3457  -17.5114 O   0  0  0  0  0  0  0  0  0  0  0  0
   19.3516   -7.8139  -16.2421 O   0  0  0  0  0  0  0  0  0  0  0  0
  1  2  1  0
  3  2  1  0
  4  5  1  0
  4  3  1  0
  5  6  1  6
  7  9  1  0
  7  5  1  0
  8  7  2  0
 10 11  1  0
 10  9  1  0
 11 16  1  0
 12 11  2  0
 13 14  1  0
 15 14  1  1
 15 17  1  0
 16 15  1  0
 17 19  2  0
 17 18  1  0
M  END
$$$$
