MGS.pdb
     RDKit          3D

 19 18  0  0  1  0  0  0  0  0999 V2000
   20.7387  -16.7129  -20.2424 C   0  0  0  0  0  0  0  0  0  0  0  0
   20.4374  -15.0230  -19.7800 S   0  0  0  0  0  0  0  0  0  0  0  0
   19.7704  -14.7487  -18.1677 C   0  0  0  0  0  0  0  0  0  0  0  0
   19.4538  -13.3550  -17.7858 C   0  0  0  0  0  0  0  0  0  0  0  0
   20.4435  -12.2873  -17.9890 C   0  0  2  0  0  0  0  0  0  0  0  0
   21.6942  -12.5837  -17.3412 N   0  0  0  0  0  0  0  0  0  0  0  0
   19.9730  -10.9449  -17.5596 C   0  0  0  0  0  0  0  0  0  0  0  0
   18.9510  -10.4496  -18.0582 O   0  0  0  0  0  0  0  0  0  0  0  0
   20.6761  -10.1788  -16.5623 N   0  0  0  0  0  0  0  0  0  0  0  0
   20.1799   -8.8884  -16.1551 C   0  0  0  0  0  0  0  0  0  0  0  0
   20.9570   -8.1731  -15.1694 C   0  0  0  0  0  0  0  0  0  0  0  0
   21.8812   -8.8410  -14.5808 O   0  0  0  0  0  0  0  0  0  0  0  0
   23.7266   -4.8993  -15.7098 O   0  0  0  0  0  0  0  0  0  0  0  0
   22.6720   -5.8011  -15.9303 C   0  0  0  0  0  0  0  0  0  0  0  0
   21.8633   -5.9197  -14.6710 C   0  0  2  0  0  0  0  0  0  0  0  0
   20.7519   -6.8230  -14.8378 N   0  0  0  0  0  0  0  0  0  0  0  0
   21.3851   -4.5618  -14.2330 C   0  0  0  0  0  0  0  0  0  0  0  0
   22.0507   -3.8229  -13.2944 O   0  0  0  0  0  0  0  0  0  0  0  0
   20.3357   -4.1060  -14.7591 O   0  0  0  0  0  0  0  0  0  0  0  0
  1  2  1  0
  3  2  1  0
  4  5  1  0
  4  3  1  0
  5  6  1  1
  7  9  1  0
  7  5  1  0
  8  7  2  0
 10 11  1  0
 10  9  1  0
 11 16  1  0
 12 11  2  0
 13 14  1  0
 15 14  1  6
 15 17  1  0
 16 15  1  0
 17 19  2  0
 17 18  1  0
M  END
$$$$
