MGS.pdb
     RDKit          3D

 19 18  0  0  1  0  0  0  0  0999 V2000
   29.0947  -18.6421   -4.7375 C   0  0  0  0  0  0  0  0  0  0  0  0
   28.1983  -19.9640   -5.5183 S   0  0  0  0  0  0  0  0  0  0  0  0
   26.4775  -19.6918   -5.8090 C   0  0  0  0  0  0  0  0  0  0  0  0
   25.9473  -20.0312   -7.1478 C   0  0  0  0  0  0  0  0  0  0  0  0
   26.8284  -20.6187   -8.1674 C   0  0  2  0  0  0  0  0  0  0  0  0
   27.8683  -19.7078   -8.5681 N   0  0  0  0  0  0  0  0  0  0  0  0
   26.1086  -21.1047   -9.3729 C   0  0  0  0  0  0  0  0  0  0  0  0
   25.2405  -21.9849   -9.2724 O   0  0  0  0  0  0  0  0  0  0  0  0
   26.3878  -20.5797  -10.6852 N   0  0  0  0  0  0  0  0  0  0  0  0
   25.7179  -21.1205  -11.8410 C   0  0  0  0  0  0  0  0  0  0  0  0
   24.4579  -20.5154  -12.2063 C   0  0  0  0  0  0  0  0  0  0  0  0
   23.9834  -19.6514  -11.3847 O   0  0  0  0  0  0  0  0  0  0  0  0
   23.2712  -19.7860  -15.9407 O   0  0  0  0  0  0  0  0  0  0  0  0
   22.2000  -20.2794  -15.1772 C   0  0  0  0  0  0  0  0  0  0  0  0
   22.5329  -20.1309  -13.7208 C   0  0  2  0  0  0  0  0  0  0  0  0
   23.7526  -20.8214  -13.3825 N   0  0  0  0  0  0  0  0  0  0  0  0
   21.3896  -20.6238  -12.8755 C   0  0  0  0  0  0  0  0  0  0  0  0
   20.3277  -19.8261  -12.5496 O   0  0  0  0  0  0  0  0  0  0  0  0
   21.4281  -21.8132  -12.4637 O   0  0  0  0  0  0  0  0  0  0  0  0
  1  2  1  0
  3  2  1  0
  4  5  1  0
  4  3  1  0
  5  6  1  6
  7  9  1  0
  7  5  1  0
  8  7  2  0
 10 11  1  0
 10  9  1  0
 11 16  1  0
 12 11  2  0
 13 14  1  0
 15 14  1  6
 15 17  1  0
 16 15  1  0
 17 19  2  0
 17 18  1  0
M  END
$$$$
