MGS.pdb
     RDKit          3D

 19 18  0  0  1  0  0  0  0  0999 V2000
   26.3540  -18.9506   -8.3552 C   0  0  0  0  0  0  0  0  0  0  0  0
   25.7464  -20.6212   -8.3737 S   0  0  0  0  0  0  0  0  0  0  0  0
   24.6722  -21.0597   -9.7053 C   0  0  0  0  0  0  0  0  0  0  0  0
   24.6714  -20.1873  -10.9000 C   0  0  0  0  0  0  0  0  0  0  0  0
   25.1419  -20.7016  -12.1943 C   0  0  2  0  0  0  0  0  0  0  0  0
   25.5276  -22.0859  -12.1141 N   0  0  0  0  0  0  0  0  0  0  0  0
   26.2559  -19.9137  -12.7826 C   0  0  0  0  0  0  0  0  0  0  0  0
   27.3579  -20.4439  -12.9893 O   0  0  0  0  0  0  0  0  0  0  0  0
   26.1002  -18.5243  -13.1303 N   0  0  0  0  0  0  0  0  0  0  0  0
   27.0644  -17.8772  -13.9840 C   0  0  0  0  0  0  0  0  0  0  0  0
   26.9412  -18.1154  -15.4036 C   0  0  0  0  0  0  0  0  0  0  0  0
   27.5947  -17.3218  -16.1715 O   0  0  0  0  0  0  0  0  0  0  0  0
   24.9391  -21.3664  -17.0016 O   0  0  0  0  0  0  0  0  0  0  0  0
   26.0027  -20.8083  -17.7305 C   0  0  0  0  0  0  0  0  0  0  0  0
   26.1141  -19.3508  -17.3878 C   0  0  2  0  0  0  0  0  0  0  0  0
   26.1629  -19.1437  -15.9617 N   0  0  0  0  0  0  0  0  0  0  0  0
   24.9706  -18.5865  -17.9983 C   0  0  0  0  0  0  0  0  0  0  0  0
   24.8076  -18.4772  -19.3517 O   0  0  0  0  0  0  0  0  0  0  0  0
   24.1455  -18.0362  -17.2224 O   0  0  0  0  0  0  0  0  0  0  0  0
  1  2  1  0
  3  2  1  0
  4  5  1  0
  4  3  1  0
  5  6  1  1
  7  9  1  0
  7  5  1  0
  8  7  2  0
 10 11  1  0
 10  9  1  0
 11 16  1  0
 12 11  2  0
 13 14  1  0
 15 14  1  1
 15 17  1  0
 16 15  1  0
 17 19  2  0
 17 18  1  0
M  END
$$$$
