MGS.pdb
     RDKit          3D

 19 18  0  0  1  0  0  0  0  0999 V2000
   30.3425  -21.0606  -10.9860 C   0  0  0  0  0  0  0  0  0  0  0  0
   29.0033  -21.3329   -9.8489 S   0  0  0  0  0  0  0  0  0  0  0  0
   27.8590  -20.0041   -9.6384 C   0  0  0  0  0  0  0  0  0  0  0  0
   26.4280  -20.2876   -9.8841 C   0  0  0  0  0  0  0  0  0  0  0  0
   26.0198  -21.0902  -11.0460 C   0  0  2  0  0  0  0  0  0  0  0  0
   26.5151  -20.5394  -12.2801 N   0  0  0  0  0  0  0  0  0  0  0  0
   24.5510  -21.2890  -11.1504 C   0  0  0  0  0  0  0  0  0  0  0  0
   23.9148  -21.7730  -10.2020 O   0  0  0  0  0  0  0  0  0  0  0  0
   23.8207  -20.9325  -12.3401 N   0  0  0  0  0  0  0  0  0  0  0  0
   22.3953  -21.1349  -12.4049 C   0  0  0  0  0  0  0  0  0  0  0  0
   21.7182  -20.6301  -13.5770 C   0  0  0  0  0  0  0  0  0  0  0  0
   22.2678  -19.6299  -14.1638 O   0  0  0  0  0  0  0  0  0  0  0  0
   19.9256  -22.9117  -16.1764 O   0  0  0  0  0  0  0  0  0  0  0  0
   19.1376  -21.7625  -15.9962 C   0  0  0  0  0  0  0  0  0  0  0  0
   19.9688  -20.7030  -15.3325 C   0  0  2  0  0  0  0  0  0  0  0  0
   20.5239  -21.1682  -14.0857 N   0  0  0  0  0  0  0  0  0  0  0  0
   19.1486  -19.4594  -15.1195 C   0  0  0  0  0  0  0  0  0  0  0  0
   18.9779  -18.5224  -16.1008 O   0  0  0  0  0  0  0  0  0  0  0  0
   18.6082  -19.2925  -13.9943 O   0  0  0  0  0  0  0  0  0  0  0  0
  1  2  1  0
  3  2  1  0
  4  5  1  0
  4  3  1  0
  5  6  1  6
  7  9  1  0
  7  5  1  0
  8  7  2  0
 10 11  1  0
 10  9  1  0
 11 16  1  0
 12 11  2  0
 13 14  1  0
 15 14  1  1
 15 17  1  0
 16 15  1  0
 17 19  2  0
 17 18  1  0
M  END
$$$$
