MGS.pdb
     RDKit          3D

 19 18  0  0  1  0  0  0  0  0999 V2000
   23.6958  -13.3268  -19.1880 C   0  0  0  0  0  0  0  0  0  0  0  0
   24.0666  -12.1091  -17.9469 S   0  0  0  0  0  0  0  0  0  0  0  0
   22.7680  -11.7039  -16.8204 C   0  0  0  0  0  0  0  0  0  0  0  0
   23.0416  -10.6620  -15.8064 C   0  0  0  0  0  0  0  0  0  0  0  0
   21.9631  -10.1737  -14.9351 C   0  0  2  0  0  0  0  0  0  0  0  0
   20.7465   -9.9377  -15.6671 N   0  0  0  0  0  0  0  0  0  0  0  0
   22.3200   -8.9527  -14.1672 C   0  0  0  0  0  0  0  0  0  0  0  0
   23.3257   -8.9402  -13.4414 O   0  0  0  0  0  0  0  0  0  0  0  0
   21.5228   -7.7546  -14.2356 N   0  0  0  0  0  0  0  0  0  0  0  0
   21.9901   -6.5359  -13.6244 C   0  0  0  0  0  0  0  0  0  0  0  0
   21.7158   -5.3059  -14.3310 C   0  0  0  0  0  0  0  0  0  0  0  0
   22.0094   -4.2193  -13.7148 O   0  0  0  0  0  0  0  0  0  0  0  0
   20.5493   -2.8885  -18.3331 O   0  0  0  0  0  0  0  0  0  0  0  0
   20.7159   -4.1554  -17.7490 C   0  0  0  0  0  0  0  0  0  0  0  0
   20.9132   -3.9861  -16.2704 C   0  0  2  0  0  0  0  0  0  0  0  0
   21.1601   -5.2492  -15.6204 N   0  0  0  0  0  0  0  0  0  0  0  0
   19.7193   -3.2994  -15.6640 C   0  0  0  0  0  0  0  0  0  0  0  0
   19.6970   -1.9531  -15.4248 O   0  0  0  0  0  0  0  0  0  0  0  0
   18.7160   -4.0030  -15.3740 O   0  0  0  0  0  0  0  0  0  0  0  0
  1  2  1  0
  3  2  1  0
  4  5  1  0
  4  3  1  0
  5  6  1  6
  7  9  1  0
  7  5  1  0
  8  7  2  0
 10 11  1  0
 10  9  1  0
 11 16  1  0
 12 11  2  0
 13 14  1  0
 15 14  1  6
 15 17  1  0
 16 15  1  0
 17 19  2  0
 17 18  1  0
M  END
$$$$
