MGS.pdb
     RDKit          3D

 19 18  0  0  1  0  0  0  0  0999 V2000
   27.6840  -16.1190  -15.0093 C   0  0  0  0  0  0  0  0  0  0  0  0
   26.2882  -15.0924  -15.4072 S   0  0  0  0  0  0  0  0  0  0  0  0
   25.8744  -14.9449  -17.1180 C   0  0  0  0  0  0  0  0  0  0  0  0
   24.7699  -14.0291  -17.4786 C   0  0  0  0  0  0  0  0  0  0  0  0
   23.4785  -14.1141  -16.7816 C   0  0  2  0  0  0  0  0  0  0  0  0
   22.8898  -15.4223  -16.8990 N   0  0  0  0  0  0  0  0  0  0  0  0
   22.4938  -13.0905  -17.2180 C   0  0  0  0  0  0  0  0  0  0  0  0
   21.5831  -13.3917  -18.0043 O   0  0  0  0  0  0  0  0  0  0  0  0
   22.5588  -11.7291  -16.7511 N   0  0  0  0  0  0  0  0  0  0  0  0
   21.5201  -10.7922  -17.0984 C   0  0  0  0  0  0  0  0  0  0  0  0
   21.6282   -9.4637  -16.5412 C   0  0  0  0  0  0  0  0  0  0  0  0
   22.5805   -9.2755  -15.7019 O   0  0  0  0  0  0  0  0  0  0  0  0
   20.3162   -4.8111  -16.4265 O   0  0  0  0  0  0  0  0  0  0  0  0
   20.0058   -6.0916  -16.9142 C   0  0  0  0  0  0  0  0  0  0  0  0
   20.9788   -7.0795  -16.3385 C   0  0  2  0  0  0  0  0  0  0  0  0
   20.7650   -8.4038  -16.8670 N   0  0  0  0  0  0  0  0  0  0  0  0
   20.8847   -7.0837  -14.8366 C   0  0  0  0  0  0  0  0  0  0  0  0
   20.2866   -8.1019  -14.1470 O   0  0  0  0  0  0  0  0  0  0  0  0
   21.3790   -6.1096  -14.2100 O   0  0  0  0  0  0  0  0  0  0  0  0
  1  2  1  0
  3  2  1  0
  4  5  1  0
  4  3  1  0
  5  6  1  6
  7  9  1  0
  7  5  1  0
  8  7  2  0
 10 11  1  0
 10  9  1  0
 11 16  1  0
 12 11  2  0
 13 14  1  0
 15 14  1  6
 15 17  1  0
 16 15  1  0
 17 19  2  0
 17 18  1  0
M  END
$$$$
