MGS.pdb
     RDKit          3D

 19 18  0  0  1  0  0  0  0  0999 V2000
   15.3315  -21.9961    1.5622 C   0  0  0  0  0  0  0  0  0  0  0  0
   16.4084  -20.7866    2.2956 S   0  0  0  0  0  0  0  0  0  0  0  0
   15.6488  -19.5688    3.3249 C   0  0  0  0  0  0  0  0  0  0  0  0
   16.5347  -18.6005    4.0078 C   0  0  0  0  0  0  0  0  0  0  0  0
   15.9687  -17.5791    4.9007 C   0  0  2  0  0  0  0  0  0  0  0  0
   14.9646  -16.7862    4.2415 N   0  0  0  0  0  0  0  0  0  0  0  0
   16.9867  -16.6810    5.5046 C   0  0  0  0  0  0  0  0  0  0  0  0
   17.0647  -15.4946    5.1513 O   0  0  0  0  0  0  0  0  0  0  0  0
   17.9085  -17.1475    6.5089 N   0  0  0  0  0  0  0  0  0  0  0  0
   18.8866  -16.2497    7.0695 C   0  0  0  0  0  0  0  0  0  0  0  0
   19.7349  -16.7793    8.1122 C   0  0  0  0  0  0  0  0  0  0  0  0
   19.4188  -17.9361    8.5688 O   0  0  0  0  0  0  0  0  0  0  0  0
   23.3882  -17.0459    8.1001 O   0  0  0  0  0  0  0  0  0  0  0  0
   23.1253  -16.5461    9.3865 C   0  0  0  0  0  0  0  0  0  0  0  0
   21.6589  -16.6917    9.6736 C   0  0  2  0  0  0  0  0  0  0  0  0
   20.8537  -16.1056    8.6310 N   0  0  0  0  0  0  0  0  0  0  0  0
   21.3295  -16.0801   11.0085 C   0  0  0  0  0  0  0  0  0  0  0  0
   20.6485  -14.8996   11.1208 O   0  0  0  0  0  0  0  0  0  0  0  0
   21.7003  -16.6895   12.0463 O   0  0  0  0  0  0  0  0  0  0  0  0
  1  2  1  0
  3  2  1  0
  4  5  1  0
  4  3  1  0
  5  6  1  6
  7  9  1  0
  7  5  1  0
  8  7  2  0
 10 11  1  0
 10  9  1  0
 11 16  1  0
 12 11  2  0
 13 14  1  0
 15 14  1  6
 15 17  1  0
 16 15  1  0
 17 19  2  0
 17 18  1  0
M  END
$$$$
