MGS.pdb
     RDKit          3D

 19 18  0  0  1  0  0  0  0  0999 V2000
   32.1496  -22.2263   -8.8845 C   0  0  0  0  0  0  0  0  0  0  0  0
   30.4834  -21.6523   -9.1182 S   0  0  0  0  0  0  0  0  0  0  0  0
   30.1094  -20.9178  -10.6804 C   0  0  0  0  0  0  0  0  0  0  0  0
   28.7675  -20.3188  -10.8515 C   0  0  0  0  0  0  0  0  0  0  0  0
   27.5662  -21.0622  -10.4452 C   0  0  2  0  0  0  0  0  0  0  0  0
   27.4374  -22.3059  -11.1581 N   0  0  0  0  0  0  0  0  0  0  0  0
   26.3069  -20.2852  -10.5799 C   0  0  0  0  0  0  0  0  0  0  0  0
   26.1677  -19.2081   -9.9808 O   0  0  0  0  0  0  0  0  0  0  0  0
   25.2157  -20.7468  -11.3996 N   0  0  0  0  0  0  0  0  0  0  0  0
   24.1586  -19.8429  -11.7772 C   0  0  0  0  0  0  0  0  0  0  0  0
   23.1287  -20.3702  -12.6424 C   0  0  0  0  0  0  0  0  0  0  0  0
   22.3177  -19.5135  -13.1476 O   0  0  0  0  0  0  0  0  0  0  0  0
   21.0470  -24.0133  -15.0362 O   0  0  0  0  0  0  0  0  0  0  0  0
   22.0900  -23.6379  -14.1729 C   0  0  0  0  0  0  0  0  0  0  0  0
   21.9065  -22.1987  -13.7870 C   0  0  2  0  0  0  0  0  0  0  0  0
   22.9808  -21.7344  -12.9448 N   0  0  0  0  0  0  0  0  0  0  0  0
   20.5772  -22.0104  -13.1071 C   0  0  0  0  0  0  0  0  0  0  0  0
   19.4289  -21.7646  -13.8079 O   0  0  0  0  0  0  0  0  0  0  0  0
   20.5393  -22.0856  -11.8507 O   0  0  0  0  0  0  0  0  0  0  0  0
  1  2  1  0
  3  2  1  0
  4  5  1  0
  4  3  1  0
  5  6  1  6
  7  9  1  0
  7  5  1  0
  8  7  2  0
 10 11  1  0
 10  9  1  0
 11 16  1  0
 12 11  2  0
 13 14  1  0
 15 14  1  1
 15 17  1  0
 16 15  1  0
 17 19  2  0
 17 18  1  0
M  END
$$$$
