MGS.pdb
     RDKit          3D

 19 18  0  0  1  0  0  0  0  0999 V2000
   21.3489  -15.2301  -22.1005 C   0  0  0  0  0  0  0  0  0  0  0  0
   21.0675  -14.3639  -20.5737 S   0  0  0  0  0  0  0  0  0  0  0  0
   21.9612  -12.8586  -20.3395 C   0  0  0  0  0  0  0  0  0  0  0  0
   21.6831  -12.0813  -19.1119 C   0  0  0  0  0  0  0  0  0  0  0  0
   22.4150  -10.8354  -18.8413 C   0  0  2  0  0  0  0  0  0  0  0  0
   23.8355  -11.0533  -18.7620 N   0  0  0  0  0  0  0  0  0  0  0  0
   21.9571  -10.1253  -17.6190 C   0  0  0  0  0  0  0  0  0  0  0  0
   20.7632   -9.8184  -17.4824 O   0  0  0  0  0  0  0  0  0  0  0  0
   22.8696   -9.7715  -16.5617 N   0  0  0  0  0  0  0  0  0  0  0  0
   22.4083   -9.0072  -15.4302 C   0  0  0  0  0  0  0  0  0  0  0  0
   22.2230   -7.5890  -15.6339 C   0  0  0  0  0  0  0  0  0  0  0  0
   22.7906   -7.0849  -16.6685 O   0  0  0  0  0  0  0  0  0  0  0  0
   19.5564   -5.2505  -13.4430 O   0  0  0  0  0  0  0  0  0  0  0  0
   19.8392   -4.9611  -14.7884 C   0  0  0  0  0  0  0  0  0  0  0  0
   21.2512   -5.3744  -15.0875 C   0  0  2  0  0  0  0  0  0  0  0  0
   21.4737   -6.7648  -14.7773 N   0  0  0  0  0  0  0  0  0  0  0  0
   22.2171   -4.4995  -14.3352 C   0  0  0  0  0  0  0  0  0  0  0  0
   23.0230   -4.9883  -13.3443 O   0  0  0  0  0  0  0  0  0  0  0  0
   22.2725   -3.2794  -14.6416 O   0  0  0  0  0  0  0  0  0  0  0  0
  1  2  1  0
  3  2  1  0
  4  5  1  0
  4  3  1  0
  5  6  1  1
  7  9  1  0
  7  5  1  0
  8  7  2  0
 10 11  1  0
 10  9  1  0
 11 16  1  0
 12 11  2  0
 13 14  1  0
 15 14  1  1
 15 17  1  0
 16 15  1  0
 17 19  2  0
 17 18  1  0
M  END
$$$$
