MGS.pdb
     RDKit          3D

 19 18  0  0  1  0  0  0  0  0999 V2000
   35.7124   -1.9955  -14.5832 C   0  0  0  0  0  0  0  0  0  0  0  0
   35.5297   -3.6833  -15.1110 S   0  0  0  0  0  0  0  0  0  0  0  0
   34.9593   -4.8356  -13.9000 C   0  0  0  0  0  0  0  0  0  0  0  0
   34.8319   -6.2516  -14.3089 C   0  0  0  0  0  0  0  0  0  0  0  0
   34.1158   -6.6056  -15.5430 C   0  0  2  0  0  0  0  0  0  0  0  0
   32.6916   -6.4543  -15.3998 N   0  0  0  0  0  0  0  0  0  0  0  0
   34.4179   -7.9731  -16.0394 C   0  0  0  0  0  0  0  0  0  0  0  0
   35.5668   -8.2692  -16.4011 O   0  0  0  0  0  0  0  0  0  0  0  0
   33.4024   -8.9920  -16.1185 N   0  0  0  0  0  0  0  0  0  0  0  0
   33.7514  -10.3363  -16.5037 C   0  0  0  0  0  0  0  0  0  0  0  0
   33.4193  -10.7346  -17.8522 C   0  0  0  0  0  0  0  0  0  0  0  0
   32.8413   -9.8495  -18.5798 O   0  0  0  0  0  0  0  0  0  0  0  0
   33.6316  -13.8736  -21.5167 O   0  0  0  0  0  0  0  0  0  0  0  0
   33.9404  -13.6469  -20.1650 C   0  0  0  0  0  0  0  0  0  0  0  0
   33.3430  -12.3356  -19.7438 C   0  0  2  0  0  0  0  0  0  0  0  0
   33.6921  -12.0062  -18.3842 N   0  0  0  0  0  0  0  0  0  0  0  0
   31.8485  -12.3680  -19.9171 C   0  0  0  0  0  0  0  0  0  0  0  0
   31.2373  -11.9200  -21.0554 O   0  0  0  0  0  0  0  0  0  0  0  0
   31.1531  -12.8268  -18.9728 O   0  0  0  0  0  0  0  0  0  0  0  0
  1  2  1  0
  3  2  1  0
  4  5  1  0
  4  3  1  0
  5  6  1  1
  7  9  1  0
  7  5  1  0
  8  7  2  0
 10 11  1  0
 10  9  1  0
 11 16  1  0
 12 11  2  0
 13 14  1  0
 15 14  1  1
 15 17  1  0
 16 15  1  0
 17 19  2  0
 17 18  1  0
M  END
$$$$
