CQT.pdb
     RDKit          3D

 23 22  0  0  1  0  0  0  0  0999 V2000
   26.2307  -18.0073  -17.9433 N   0  0  0  0  0  0  0  0  0  0  0  0
   26.1396  -19.3427  -17.4119 C   0  0  1  0  0  0  0  0  0  0  0  0
   27.5787  -19.8032  -17.1589 C   0  0  0  0  0  0  0  0  0  0  0  0
   28.3608  -20.3192  -18.7110 S   0  0  0  0  0  0  0  0  0  0  0  0
   25.3856  -19.4058  -16.1486 C   0  0  0  0  0  0  0  0  0  0  0  0
   25.5337  -18.4534  -15.3322 O   0  0  0  0  0  0  0  0  0  0  0  0
   19.9765  -22.3915  -15.0051 N   0  0  0  0  0  0  0  0  0  0  0  0
   20.2744  -21.7867  -13.7355 C   0  0  0  0  0  0  0  0  0  0  0  0
   19.3790  -21.8898  -12.8691 O   0  0  0  0  0  0  0  0  0  0  0  0
   21.5608  -21.1001  -13.5173 C   0  0  0  0  0  0  0  0  0  0  0  0
   22.4154  -21.1268  -14.7433 C   0  0  0  0  0  0  0  0  0  0  0  0
   23.7185  -20.4580  -14.5513 C   0  0  2  0  0  0  0  0  0  0  0  0
   24.5142  -20.4433  -15.7807 N   0  0  0  0  0  0  0  0  0  0  0  0
   24.4921  -21.1432  -13.4661 C   0  0  0  0  0  0  0  0  0  0  0  0
   24.9287  -22.2967  -13.5604 O   0  0  0  0  0  0  0  0  0  0  0  0
   27.6388  -20.9297  -12.3902 C   0  0  0  0  0  0  0  0  0  0  0  0
   26.9398  -20.6070  -11.0748 C   0  0  1  0  0  0  0  0  0  0  0  0
   26.9638  -19.1966  -10.9209 O   0  0  0  0  0  0  0  0  0  0  0  0
   25.5287  -21.1035  -11.1968 C   0  0  2  0  0  0  0  0  0  0  0  0
   24.7716  -20.4793  -12.2339 N   0  0  0  0  0  0  0  0  0  0  0  0
   24.8628  -20.9520   -9.8648 C   0  0  0  0  0  0  0  0  0  0  0  0
   25.3115  -21.5200   -8.6929 O   0  0  0  0  0  0  0  0  0  0  0  0
   23.7967  -20.2548   -9.7561 O   0  0  0  0  0  0  0  0  0  0  0  0
  2  3  1  0
  2  1  1  1
  2  5  1  0
  3  4  1  0
  5  6  2  0
  7  8  1  0
  8  9  2  0
 10  8  1  0
 10 11  1  0
 12 11  1  6
 12 14  1  0
 13  5  1  0
 13 12  1  0
 14 20  1  0
 14 15  2  0
 17 16  1  6
 17 19  1  0
 18 17  1  0
 19 21  1  0
 19 20  1  6
 21 23  2  0
 21 22  1  0
M  END
$$$$
