CQT.pdb
     RDKit          3D

 23 22  0  0  1  0  0  0  0  0999 V2000
   27.8714  -20.9484  -10.3948 N   0  0  0  0  0  0  0  0  0  0  0  0
   26.4318  -20.9238  -10.3639 C   0  0  1  0  0  0  0  0  0  0  0  0
   26.0414  -19.7202   -9.5003 C   0  0  0  0  0  0  0  0  0  0  0  0
   25.8844  -20.2119   -7.7622 S   0  0  0  0  0  0  0  0  0  0  0  0
   25.8331  -20.7707  -11.7005 C   0  0  0  0  0  0  0  0  0  0  0  0
   26.2550  -19.8253  -12.4242 O   0  0  0  0  0  0  0  0  0  0  0  0
   25.3282  -25.1448  -15.6780 N   0  0  0  0  0  0  0  0  0  0  0  0
   26.2280  -24.0320  -15.8141 C   0  0  0  0  0  0  0  0  0  0  0  0
   27.2190  -24.2306  -16.5500 O   0  0  0  0  0  0  0  0  0  0  0  0
   25.9604  -22.7632  -15.1124 C   0  0  0  0  0  0  0  0  0  0  0  0
   24.6838  -22.8202  -14.3369 C   0  0  0  0  0  0  0  0  0  0  0  0
   24.3841  -21.5593  -13.6282 C   0  0  2  0  0  0  0  0  0  0  0  0
   24.8289  -21.5946  -12.2334 N   0  0  0  0  0  0  0  0  0  0  0  0
   22.9120  -21.2822  -13.6741 C   0  0  0  0  0  0  0  0  0  0  0  0
   22.1103  -21.6995  -12.8295 O   0  0  0  0  0  0  0  0  0  0  0  0
   21.0961  -17.8033  -14.6439 C   0  0  0  0  0  0  0  0  0  0  0  0
   20.5968  -18.9548  -15.5087 C   0  0  1  0  0  0  0  0  0  0  0  0
   21.2812  -18.8765  -16.7492 O   0  0  0  0  0  0  0  0  0  0  0  0
   20.9462  -20.2248  -14.7891 C   0  0  2  0  0  0  0  0  0  0  0  0
   22.3456  -20.5004  -14.7253 N   0  0  0  0  0  0  0  0  0  0  0  0
   20.1949  -21.3485  -15.4320 C   0  0  0  0  0  0  0  0  0  0  0  0
   18.8227  -21.4672  -15.4502 O   0  0  0  0  0  0  0  0  0  0  0  0
   20.8286  -22.2910  -16.0190 O   0  0  0  0  0  0  0  0  0  0  0  0
  2  3  1  0
  2  1  1  6
  2  5  1  0
  3  4  1  0
  5  6  2  0
  7  8  1  0
  8  9  2  0
 10  8  1  0
 10 11  1  0
 12 11  1  1
 12 14  1  0
 13  5  1  0
 13 12  1  0
 14 20  1  0
 14 15  2  0
 17 16  1  1
 17 19  1  0
 18 17  1  0
 19 21  1  0
 19 20  1  6
 21 23  2  0
 21 22  1  0
M  END
$$$$
