CQT.pdb
     RDKit          3D

 23 22  0  0  1  0  0  0  0  0999 V2000
   19.4796  -23.1447   -9.3503 N   0  0  0  0  0  0  0  0  0  0  0  0
   20.3484  -22.0142   -9.5530 C   0  0  1  0  0  0  0  0  0  0  0  0
   21.5632  -22.2384   -8.6468 C   0  0  0  0  0  0  0  0  0  0  0  0
   21.0781  -22.1445   -6.9024 S   0  0  0  0  0  0  0  0  0  0  0  0
   20.8057  -21.8864  -10.9469 C   0  0  0  0  0  0  0  0  0  0  0  0
   21.5373  -22.8071  -11.4079 O   0  0  0  0  0  0  0  0  0  0  0  0
   18.6843  -17.8773  -15.3621 N   0  0  0  0  0  0  0  0  0  0  0  0
   18.7128  -19.2346  -15.8345 C   0  0  0  0  0  0  0  0  0  0  0  0
   18.0483  -19.4561  -16.8701 O   0  0  0  0  0  0  0  0  0  0  0  0
   19.4853  -20.2621  -15.1125 C   0  0  0  0  0  0  0  0  0  0  0  0
   20.2163  -19.6833  -13.9443 C   0  0  0  0  0  0  0  0  0  0  0  0
   20.9746  -20.6954  -13.1808 C   0  0  2  0  0  0  0  0  0  0  0  0
   20.4914  -20.8197  -11.8040 N   0  0  0  0  0  0  0  0  0  0  0  0
   22.4310  -20.3427  -13.1670 C   0  0  0  0  0  0  0  0  0  0  0  0
   22.9181  -19.4740  -12.4333 O   0  0  0  0  0  0  0  0  0  0  0  0
   25.5348  -22.9516  -14.0723 C   0  0  0  0  0  0  0  0  0  0  0  0
   25.6455  -21.6133  -13.3513 C   0  0  1  0  0  0  0  0  0  0  0  0
   26.9969  -21.1926  -13.4510 O   0  0  0  0  0  0  0  0  0  0  0  0
   24.7375  -20.6557  -14.0661 C   0  0  2  0  0  0  0  0  0  0  0  0
   23.3553  -21.0113  -14.0247 N   0  0  0  0  0  0  0  0  0  0  0  0
   25.2245  -20.5117  -15.4741 C   0  0  0  0  0  0  0  0  0  0  0  0
   26.4816  -20.0750  -15.8299 O   0  0  0  0  0  0  0  0  0  0  0  0
   24.4543  -20.8022  -16.4524 O   0  0  0  0  0  0  0  0  0  0  0  0
  2  3  1  0
  2  1  1  6
  2  5  1  0
  3  4  1  0
  5  6  2  0
  7  8  1  0
  8  9  2  0
 10  8  1  0
 10 11  1  0
 12 11  1  1
 12 14  1  0
 13  5  1  0
 13 12  1  0
 14 20  1  0
 14 15  2  0
 17 16  1  6
 17 19  1  0
 18 17  1  0
 19 21  1  0
 19 20  1  6
 21 23  2  0
 21 22  1  0
M  END
$$$$
