CQT.pdb
     RDKit          3D

 23 22  0  0  1  0  0  0  0  0999 V2000
   15.8261  -11.0565  -15.0809 N   0  0  0  0  0  0  0  0  0  0  0  0
   16.9620  -10.7438  -14.2526 C   0  0  1  0  0  0  0  0  0  0  0  0
   18.2027  -10.9689  -15.1226 C   0  0  0  0  0  0  0  0  0  0  0  0
   18.5905  -12.7369  -15.2276 S   0  0  0  0  0  0  0  0  0  0  0  0
   16.9561   -9.3509  -13.7751 C   0  0  0  0  0  0  0  0  0  0  0  0
   16.4739   -8.4723  -14.5439 O   0  0  0  0  0  0  0  0  0  0  0  0
   15.6477   -7.1458   -8.2120 N   0  0  0  0  0  0  0  0  0  0  0  0
   15.9221   -5.9475   -8.9570 C   0  0  0  0  0  0  0  0  0  0  0  0
   15.5691   -4.8816   -8.4073 O   0  0  0  0  0  0  0  0  0  0  0  0
   16.5751   -6.0201  -10.2770 C   0  0  0  0  0  0  0  0  0  0  0  0
   16.7555   -7.4342  -10.7262 C   0  0  0  0  0  0  0  0  0  0  0  0
   17.3951   -7.5394  -12.0536 C   0  0  2  0  0  0  0  0  0  0  0  0
   17.4453   -8.9231  -12.5305 N   0  0  0  0  0  0  0  0  0  0  0  0
   18.7847   -6.9811  -11.9994 C   0  0  0  0  0  0  0  0  0  0  0  0
   19.5814   -7.2157  -11.0827 O   0  0  0  0  0  0  0  0  0  0  0  0
   21.6343   -7.7126  -13.7845 C   0  0  0  0  0  0  0  0  0  0  0  0
   21.4860   -6.2298  -14.1047 C   0  0  1  0  0  0  0  0  0  0  0  0
   20.8597   -6.1345  -15.3743 O   0  0  0  0  0  0  0  0  0  0  0  0
   20.6136   -5.6375  -13.0367 C   0  0  2  0  0  0  0  0  0  0  0  0
   19.2720   -6.1260  -13.0331 N   0  0  0  0  0  0  0  0  0  0  0  0
   20.6540   -4.1474  -13.1727 C   0  0  0  0  0  0  0  0  0  0  0  0
   19.5739   -3.3591  -13.5035 O   0  0  0  0  0  0  0  0  0  0  0  0
   21.7479   -3.5147  -12.9783 O   0  0  0  0  0  0  0  0  0  0  0  0
  2  3  1  0
  2  1  1  6
  2  5  1  0
  3  4  1  0
  5  6  2  0
  7  8  1  0
  8  9  2  0
 10  8  1  0
 10 11  1  0
 12 11  1  1
 12 14  1  0
 13  5  1  0
 13 12  1  0
 14 20  1  0
 14 15  2  0
 17 16  1  1
 17 19  1  0
 18 17  1  0
 19 21  1  0
 19 20  1  6
 21 23  2  0
 21 22  1  0
M  END
$$$$
