CQT.pdb
     RDKit          3D

 23 22  0  0  1  0  0  0  0  0999 V2000
   17.7204  -14.9844  -15.9995 N   0  0  0  0  0  0  0  0  0  0  0  0
   17.4633  -13.7948  -15.2296 C   0  0  1  0  0  0  0  0  0  0  0  0
   18.1148  -14.0198  -13.8614 C   0  0  0  0  0  0  0  0  0  0  0  0
   17.1621  -15.2233  -12.8964 S   0  0  0  0  0  0  0  0  0  0  0  0
   18.0347  -12.5830  -15.8405 C   0  0  0  0  0  0  0  0  0  0  0  0
   19.1869  -12.6740  -16.3503 O   0  0  0  0  0  0  0  0  0  0  0  0
   17.3778  -11.6932  -20.0093 N   0  0  0  0  0  0  0  0  0  0  0  0
   16.8574  -10.4222  -19.5847 C   0  0  0  0  0  0  0  0  0  0  0  0
   17.0541   -9.4718  -20.3728 O   0  0  0  0  0  0  0  0  0  0  0  0
   16.1487  -10.2960  -18.2979 C   0  0  0  0  0  0  0  0  0  0  0  0
   16.8974   -9.4281  -17.3386 C   0  0  0  0  0  0  0  0  0  0  0  0
   17.9398  -10.1614  -16.5918 C   0  0  2  0  0  0  0  0  0  0  0  0
   17.3979  -11.3332  -15.9005 N   0  0  0  0  0  0  0  0  0  0  0  0
   18.5917   -9.2527  -15.5943 C   0  0  0  0  0  0  0  0  0  0  0  0
   18.2552   -9.1871  -14.4057 O   0  0  0  0  0  0  0  0  0  0  0  0
   22.1480   -6.0913  -14.3793 C   0  0  0  0  0  0  0  0  0  0  0  0
   21.5748   -6.9046  -15.5339 C   0  0  1  0  0  0  0  0  0  0  0  0
   22.5187   -7.9177  -15.8438 O   0  0  0  0  0  0  0  0  0  0  0  0
   20.2894   -7.5077  -15.0475 C   0  0  2  0  0  0  0  0  0  0  0  0
   19.6644   -8.3926  -15.9774 N   0  0  0  0  0  0  0  0  0  0  0  0
   19.3719   -6.3945  -14.6486 C   0  0  0  0  0  0  0  0  0  0  0  0
   19.3701   -5.7817  -13.4149 O   0  0  0  0  0  0  0  0  0  0  0  0
   18.5091   -5.9455  -15.4783 O   0  0  0  0  0  0  0  0  0  0  0  0
  2  3  1  0
  2  1  1  6
  2  5  1  0
  3  4  1  0
  5  6  2  0
  7  8  1  0
  8  9  2  0
 10  8  1  0
 10 11  1  0
 12 11  1  1
 12 14  1  0
 13  5  1  0
 13 12  1  0
 14 20  1  0
 14 15  2  0
 17 16  1  1
 17 19  1  0
 18 17  1  0
 19 21  1  0
 19 20  1  6
 21 23  2  0
 21 22  1  0
M  END
$$$$
