CQT.pdb
     RDKit          3D

 23 22  0  0  1  0  0  0  0  0999 V2000
   20.5822  -28.3197  -10.5139 N   0  0  0  0  0  0  0  0  0  0  0  0
   20.2609  -26.9164  -10.5520 C   0  0  1  0  0  0  0  0  0  0  0  0
   19.9949  -26.5767  -12.0220 C   0  0  0  0  0  0  0  0  0  0  0  0
   21.5447  -26.1629  -12.8670 S   0  0  0  0  0  0  0  0  0  0  0  0
   19.0674  -26.5807   -9.7576 C   0  0  0  0  0  0  0  0  0  0  0  0
   18.1697  -27.4631   -9.6514 O   0  0  0  0  0  0  0  0  0  0  0  0
   18.3540  -27.0284   -5.2036 N   0  0  0  0  0  0  0  0  0  0  0  0
   17.9577  -25.6504   -5.3055 C   0  0  0  0  0  0  0  0  0  0  0  0
   16.8950  -25.3531   -4.7179 O   0  0  0  0  0  0  0  0  0  0  0  0
   18.7794  -24.6896   -6.0642 C   0  0  0  0  0  0  0  0  0  0  0  0
   18.0164  -24.0866   -7.1992 C   0  0  0  0  0  0  0  0  0  0  0  0
   17.6927  -25.0636   -8.2588 C   0  0  2  0  0  0  0  0  0  0  0  0
   18.8494  -25.3551   -9.1084 N   0  0  0  0  0  0  0  0  0  0  0  0
   16.5700  -24.5479   -9.1068 C   0  0  0  0  0  0  0  0  0  0  0  0
   16.7153  -23.6932   -9.9892 O   0  0  0  0  0  0  0  0  0  0  0  0
   11.9784  -24.9432  -10.7677 C   0  0  0  0  0  0  0  0  0  0  0  0
   12.9371  -25.4544   -9.6989 C   0  0  1  0  0  0  0  0  0  0  0  0
   13.2533  -26.7985  -10.0257 O   0  0  0  0  0  0  0  0  0  0  0  0
   14.1627  -24.5905   -9.7622 C   0  0  2  0  0  0  0  0  0  0  0  0
   15.2383  -25.0314   -8.9333 N   0  0  0  0  0  0  0  0  0  0  0  0
   13.7617  -23.1852   -9.4384 C   0  0  0  0  0  0  0  0  0  0  0  0
   13.4113  -22.2336  -10.3706 O   0  0  0  0  0  0  0  0  0  0  0  0
   13.7272  -22.7917   -8.2225 O   0  0  0  0  0  0  0  0  0  0  0  0
  2  3  1  0
  2  1  1  6
  2  5  1  0
  3  4  1  0
  5  6  2  0
  7  8  1  0
  8  9  2  0
 10  8  1  0
 10 11  1  0
 12 11  1  1
 12 14  1  0
 13  5  1  0
 13 12  1  0
 14 20  1  0
 14 15  2  0
 17 16  1  6
 17 19  1  0
 18 17  1  0
 19 21  1  0
 19 20  1  1
 21 23  2  0
 21 22  1  0
M  END
$$$$
