CQT.pdb
     RDKit          3D

 23 22  0  0  1  0  0  0  0  0999 V2000
   15.5925  -12.2654  -14.8073 N   0  0  0  0  0  0  0  0  0  0  0  0
   15.4495  -10.8556  -14.5505 C   0  0  1  0  0  0  0  0  0  0  0  0
   13.9436  -10.5819  -14.4839 C   0  0  0  0  0  0  0  0  0  0  0  0
   13.2319  -10.5464  -16.1511 S   0  0  0  0  0  0  0  0  0  0  0  0
   16.0702  -10.4389  -13.2818 C   0  0  0  0  0  0  0  0  0  0  0  0
   16.0695  -11.2703  -12.3309 O   0  0  0  0  0  0  0  0  0  0  0  0
   21.4944   -8.6569  -12.0996 N   0  0  0  0  0  0  0  0  0  0  0  0
   20.7229   -7.8310  -12.9879 C   0  0  0  0  0  0  0  0  0  0  0  0
   21.3880   -7.1182  -13.7705 O   0  0  0  0  0  0  0  0  0  0  0  0
   19.2494   -7.8547  -12.9410 C   0  0  0  0  0  0  0  0  0  0  0  0
   18.7462   -8.7513  -11.8561 C   0  0  0  0  0  0  0  0  0  0  0  0
   17.2716   -8.7872  -11.7766 C   0  0  2  0  0  0  0  0  0  0  0  0
   16.6632   -9.1882  -13.0469 N   0  0  0  0  0  0  0  0  0  0  0  0
   16.7464   -7.4420  -11.3761 C   0  0  0  0  0  0  0  0  0  0  0  0
   16.6434   -6.4874  -12.1561 O   0  0  0  0  0  0  0  0  0  0  0  0
   13.4709   -6.5390  -10.1670 C   0  0  0  0  0  0  0  0  0  0  0  0
   14.3871   -6.0259   -9.0623 C   0  0  1  0  0  0  0  0  0  0  0  0
   14.3501   -6.9769   -8.0099 O   0  0  0  0  0  0  0  0  0  0  0  0
   15.7666   -5.9340   -9.6464 C   0  0  2  0  0  0  0  0  0  0  0  0
   16.3267   -7.1883  -10.0357 N   0  0  0  0  0  0  0  0  0  0  0  0
   16.6441   -5.2231   -8.6640 C   0  0  0  0  0  0  0  0  0  0  0  0
   16.4761   -3.9161   -8.2627 O   0  0  0  0  0  0  0  0  0  0  0  0
   17.6350   -5.8308   -8.1317 O   0  0  0  0  0  0  0  0  0  0  0  0
  2  3  1  0
  2  1  1  1
  2  5  1  0
  3  4  1  0
  5  6  2  0
  7  8  1  0
  8  9  2  0
 10  8  1  0
 10 11  1  0
 12 11  1  6
 12 14  1  0
 13  5  1  0
 13 12  1  0
 14 20  1  0
 14 15  2  0
 17 16  1  6
 17 19  1  0
 18 17  1  0
 19 21  1  0
 19 20  1  1
 21 23  2  0
 21 22  1  0
M  END
$$$$
