CQT.pdb
     RDKit          3D

 23 22  0  0  1  0  0  0  0  0999 V2000
   15.4675  -12.4667  -14.6528 N   0  0  0  0  0  0  0  0  0  0  0  0
   15.3575  -11.1362  -15.1926 C   0  0  1  0  0  0  0  0  0  0  0  0
   14.0277  -10.5737  -14.6805 C   0  0  0  0  0  0  0  0  0  0  0  0
   12.6348  -11.3942  -15.5013 S   0  0  0  0  0  0  0  0  0  0  0  0
   16.4520  -10.2508  -14.7607 C   0  0  0  0  0  0  0  0  0  0  0  0
   16.4694   -9.8924  -13.5496 O   0  0  0  0  0  0  0  0  0  0  0  0
   22.3891  -10.6735  -15.8332 N   0  0  0  0  0  0  0  0  0  0  0  0
   22.3439   -9.3650  -15.2397 C   0  0  0  0  0  0  0  0  0  0  0  0
   23.4555   -8.8555  -14.9792 O   0  0  0  0  0  0  0  0  0  0  0  0
   21.0508   -8.7088  -14.9726 C   0  0  0  0  0  0  0  0  0  0  0  0
   19.9000   -9.5697  -15.3830 C   0  0  0  0  0  0  0  0  0  0  0  0
   18.5892   -8.9355  -15.1345 C   0  0  2  0  0  0  0  0  0  0  0  0
   17.4786   -9.7738  -15.5912 N   0  0  0  0  0  0  0  0  0  0  0  0
   18.5241   -7.6056  -15.8220 C   0  0  0  0  0  0  0  0  0  0  0  0
   18.5210   -7.4699  -17.0516 O   0  0  0  0  0  0  0  0  0  0  0  0
   16.1005   -4.5876  -15.3556 C   0  0  0  0  0  0  0  0  0  0  0  0
   17.5218   -4.1182  -15.0683 C   0  0  1  0  0  0  0  0  0  0  0  0
   17.6847   -4.1092  -13.6588 O   0  0  0  0  0  0  0  0  0  0  0  0
   18.4476   -5.1143  -15.7032 C   0  0  2  0  0  0  0  0  0  0  0  0
   18.4606   -6.3940  -15.0702 N   0  0  0  0  0  0  0  0  0  0  0  0
   19.8177   -4.5137  -15.7535 C   0  0  0  0  0  0  0  0  0  0  0  0
   20.1353   -3.3336  -16.3889 O   0  0  0  0  0  0  0  0  0  0  0  0
   20.7975   -5.1019  -15.1803 O   0  0  0  0  0  0  0  0  0  0  0  0
  2  3  1  0
  2  1  1  1
  2  5  1  0
  3  4  1  0
  5  6  2  0
  7  8  1  0
  8  9  2  0
 10  8  1  0
 10 11  1  0
 12 11  1  6
 12 14  1  0
 13  5  1  0
 13 12  1  0
 14 20  1  0
 14 15  2  0
 17 16  1  1
 17 19  1  0
 18 17  1  0
 19 21  1  0
 19 20  1  1
 21 23  2  0
 21 22  1  0
M  END
$$$$
