CQT.pdb
     RDKit          3D

 23 22  0  0  1  0  0  0  0  0999 V2000
   15.9111  -11.6811  -12.3462 N   0  0  0  0  0  0  0  0  0  0  0  0
   15.9329  -10.8097  -13.4926 C   0  0  1  0  0  0  0  0  0  0  0  0
   14.4956  -10.7585  -14.0204 C   0  0  0  0  0  0  0  0  0  0  0  0
   13.9873  -12.3876  -14.6328 S   0  0  0  0  0  0  0  0  0  0  0  0
   16.3735   -9.4434  -13.1648 C   0  0  0  0  0  0  0  0  0  0  0  0
   16.3306   -8.5796  -14.0854 O   0  0  0  0  0  0  0  0  0  0  0  0
   15.7849   -6.5342   -7.7448 N   0  0  0  0  0  0  0  0  0  0  0  0
   14.8171   -6.7962   -8.7748 C   0  0  0  0  0  0  0  0  0  0  0  0
   13.6226   -6.6395   -8.4406 O   0  0  0  0  0  0  0  0  0  0  0  0
   15.2507   -7.2211  -10.1184 C   0  0  0  0  0  0  0  0  0  0  0  0
   16.7407   -7.2562  -10.2319 C   0  0  0  0  0  0  0  0  0  0  0  0
   17.2064   -7.6473  -11.5781 C   0  0  2  0  0  0  0  0  0  0  0  0
   16.8378   -9.0258  -11.9074 N   0  0  0  0  0  0  0  0  0  0  0  0
   18.6943   -7.4944  -11.6708 C   0  0  0  0  0  0  0  0  0  0  0  0
   19.4911   -8.0964  -10.9409 O   0  0  0  0  0  0  0  0  0  0  0  0
   20.7226   -7.0160  -15.1157 C   0  0  0  0  0  0  0  0  0  0  0  0
   21.3382   -7.3664  -13.7661 C   0  0  1  0  0  0  0  0  0  0  0  0
   22.7301   -7.1072  -13.8589 O   0  0  0  0  0  0  0  0  0  0  0  0
   20.6979   -6.4689  -12.7477 C   0  0  2  0  0  0  0  0  0  0  0  0
   19.2829   -6.6212  -12.6342 N   0  0  0  0  0  0  0  0  0  0  0  0
   21.0732   -5.0557  -13.0679 C   0  0  0  0  0  0  0  0  0  0  0  0
   22.3640   -4.5769  -13.1144 O   0  0  0  0  0  0  0  0  0  0  0  0
   20.1651   -4.1927  -13.3232 O   0  0  0  0  0  0  0  0  0  0  0  0
  2  3  1  0
  2  1  1  1
  2  5  1  0
  3  4  1  0
  5  6  2  0
  7  8  1  0
  8  9  2  0
 10  8  1  0
 10 11  1  0
 12 11  1  1
 12 14  1  0
 13  5  1  0
 13 12  1  0
 14 20  1  0
 14 15  2  0
 17 16  1  6
 17 19  1  0
 18 17  1  0
 19 21  1  0
 19 20  1  6
 21 23  2  0
 21 22  1  0
M  END
$$$$
