CQT.pdb
     RDKit          3D

 23 22  0  0  1  0  0  0  0  0999 V2000
   26.4793  -34.3498  -12.3363 N   0  0  0  0  0  0  0  0  0  0  0  0
   25.6551  -34.6338  -11.1901 C   0  0  1  0  0  0  0  0  0  0  0  0
   25.0318  -36.0108  -11.4401 C   0  0  0  0  0  0  0  0  0  0  0  0
   23.8630  -36.4265  -10.1179 S   0  0  0  0  0  0  0  0  0  0  0  0
   26.4186  -34.6732   -9.9316 C   0  0  0  0  0  0  0  0  0  0  0  0
   27.6331  -35.0143   -9.9961 O   0  0  0  0  0  0  0  0  0  0  0  0
   25.1128  -31.9832   -4.3350 N   0  0  0  0  0  0  0  0  0  0  0  0
   26.3878  -32.6108   -4.1184 C   0  0  0  0  0  0  0  0  0  0  0  0
   26.9216  -32.3732   -3.0131 O   0  0  0  0  0  0  0  0  0  0  0  0
   26.9871  -33.4664   -5.1590 C   0  0  0  0  0  0  0  0  0  0  0  0
   26.1521  -33.4945   -6.3984 C   0  0  0  0  0  0  0  0  0  0  0  0
   26.6669  -34.4311   -7.4182 C   0  0  2  0  0  0  0  0  0  0  0  0
   25.9010  -34.3608   -8.6644 N   0  0  0  0  0  0  0  0  0  0  0  0
   26.6319  -35.8335   -6.8912 C   0  0  0  0  0  0  0  0  0  0  0  0
   25.5936  -36.4962   -6.7771 O   0  0  0  0  0  0  0  0  0  0  0  0
   28.6911  -38.7669   -8.1653 C   0  0  0  0  0  0  0  0  0  0  0  0
   28.9496  -38.6782   -6.6659 C   0  0  1  0  0  0  0  0  0  0  0  0
   30.1963  -38.0234   -6.4922 O   0  0  0  0  0  0  0  0  0  0  0  0
   27.8353  -37.8625   -6.0780 C   0  0  2  0  0  0  0  0  0  0  0  0
   27.8298  -36.4934   -6.4828 N   0  0  0  0  0  0  0  0  0  0  0  0
   27.8954  -37.9934   -4.5881 C   0  0  0  0  0  0  0  0  0  0  0  0
   28.1293  -36.9524   -3.7169 O   0  0  0  0  0  0  0  0  0  0  0  0
   27.7242  -39.1341   -4.0367 O   0  0  0  0  0  0  0  0  0  0  0  0
  2  3  1  0
  2  1  1  6
  2  5  1  0
  3  4  1  0
  5  6  2  0
  7  8  1  0
  8  9  2  0
 10  8  1  0
 10 11  1  0
 12 11  1  1
 12 14  1  0
 13  5  1  0
 13 12  1  0
 14 20  1  0
 14 15  2  0
 17 16  1  6
 17 19  1  0
 18 17  1  0
 19 21  1  0
 19 20  1  1
 21 23  2  0
 21 22  1  0
M  END
$$$$
