CQT.pdb
     RDKit          3D

 23 22  0  0  1  0  0  0  0  0999 V2000
   30.9986  -22.5549  -12.2214 N   0  0  0  0  0  0  0  0  0  0  0  0
   30.2502  -21.5006  -11.5872 C   0  0  1  0  0  0  0  0  0  0  0  0
   30.8044  -20.1855  -12.1445 C   0  0  0  0  0  0  0  0  0  0  0  0
   32.5128  -19.9336  -11.5922 S   0  0  0  0  0  0  0  0  0  0  0  0
   28.8070  -21.5724  -11.8710 C   0  0  0  0  0  0  0  0  0  0  0  0
   28.4511  -22.1238  -12.9503 O   0  0  0  0  0  0  0  0  0  0  0  0
   24.1454  -21.1284   -7.6730 N   0  0  0  0  0  0  0  0  0  0  0  0
   25.3238  -20.3108   -7.7681 C   0  0  0  0  0  0  0  0  0  0  0  0
   25.5718  -19.6085   -6.7639 O   0  0  0  0  0  0  0  0  0  0  0  0
   26.1516  -20.3302   -8.9881 C   0  0  0  0  0  0  0  0  0  0  0  0
   25.5790  -21.2374  -10.0289 C   0  0  0  0  0  0  0  0  0  0  0  0
   26.3613  -21.2420  -11.2819 C   0  0  2  0  0  0  0  0  0  0  0  0
   27.7951  -21.0753  -11.0344 N   0  0  0  0  0  0  0  0  0  0  0  0
   25.8829  -20.1499  -12.1897 C   0  0  0  0  0  0  0  0  0  0  0  0
   26.1604  -18.9552  -12.0288 O   0  0  0  0  0  0  0  0  0  0  0  0
   26.7787  -19.3829  -15.4346 C   0  0  0  0  0  0  0  0  0  0  0  0
   25.2748  -19.5608  -15.6063 C   0  0  1  0  0  0  0  0  0  0  0  0
   25.0625  -20.8624  -16.1299 O   0  0  0  0  0  0  0  0  0  0  0  0
   24.6610  -19.4306  -14.2429 C   0  0  2  0  0  0  0  0  0  0  0  0
   25.0592  -20.4427  -13.3180 N   0  0  0  0  0  0  0  0  0  0  0  0
   23.1732  -19.3878  -14.4018 C   0  0  0  0  0  0  0  0  0  0  0  0
   22.4954  -18.5112  -15.2200 O   0  0  0  0  0  0  0  0  0  0  0  0
   22.4348  -20.2039  -13.7512 O   0  0  0  0  0  0  0  0  0  0  0  0
  2  3  1  0
  2  1  1  6
  2  5  1  0
  3  4  1  0
  5  6  2  0
  7  8  1  0
  8  9  2  0
 10  8  1  0
 10 11  1  0
 12 11  1  1
 12 14  1  0
 13  5  1  0
 13 12  1  0
 14 20  1  0
 14 15  2  0
 17 16  1  1
 17 19  1  0
 18 17  1  0
 19 21  1  0
 19 20  1  1
 21 23  2  0
 21 22  1  0
M  END
$$$$
