SRP.pdb
     RDKit          3D

 25 25  0  0  1  0  0  0  0  0999 V2000
   17.0719  -11.9704  -18.4640 O   0  0  0  0  0  0  0  0  0  0  0  0
   17.8303  -11.7658  -17.3114 C   0  0  0  0  0  0  0  0  0  0  0  0
   19.2978  -12.1333  -17.5438 C   0  0  2  0  0  0  0  0  0  0  0  0
   19.3992  -13.5649  -17.3925 N   0  0  0  0  0  0  0  0  0  0  0  0
   20.0880  -11.4029  -16.5277 C   0  0  0  0  0  0  0  0  0  0  0  0
   20.1054  -11.8131  -15.3424 O   0  0  0  0  0  0  0  0  0  0  0  0
   27.0409  -12.6585  -17.0377 N   0  0  0  0  0  0  0  0  0  0  0  0
   27.4054  -11.3743  -16.5714 C   0  0  0  0  0  0  0  0  0  0  0  0
   28.4891  -10.7971  -16.9810 N   0  0  0  0  0  0  0  0  0  0  0  0
   26.6069  -10.6493  -15.6320 N   0  0  0  0  0  0  0  0  0  0  0  0
   25.2735  -11.0646  -15.2743 C   0  0  0  0  0  0  0  0  0  0  0  0
   24.2931  -10.3663  -16.2213 C   0  0  0  0  0  0  0  0  0  0  0  0
   22.9225  -10.8073  -15.8605 C   0  0  0  0  0  0  0  0  0  0  0  0
   21.8600   -9.7210  -15.9279 C   0  0  2  0  0  0  0  0  0  0  0  0
   20.8512  -10.2274  -16.8284 N   0  0  0  0  0  0  0  0  0  0  0  0
   22.3712   -8.3881  -16.2156 C   0  0  0  0  0  0  0  0  0  0  0  0
   22.9423   -8.2034  -17.3663 O   0  0  0  0  0  0  0  0  0  0  0  0
   28.7410   -9.8486  -16.6159 N   0  0  0  0  0  0  0  0  0  0  0  0
   22.3354   -7.2346  -15.4045 C   0  0  0  0  0  0  0  0  0  0  0  0
   21.8973   -7.1757  -14.0455 C   0  0  0  0  0  0  0  0  0  0  0  0
   22.3908   -5.8505  -13.5304 C   0  0  0  0  0  0  0  0  0  0  0  0
   22.2758   -4.9670  -14.7502 C   0  0  2  0  0  0  0  0  0  0  0  0
   22.7298   -5.9135  -15.8412 C   0  0  0  0  0  0  0  0  0  0  0  0
   24.1912   -5.7724  -15.9683 O   0  0  0  0  0  0  0  0  0  0  0  0
   24.7434   -4.6792  -16.5924 O   0  0  0  0  0  0  0  0  0  0  0  0
  1  2  1  0
  3  4  1  1
  3  2  1  0
  5  3  1  0
  6  5  2  0
  7  8  1  0
  8  9  2  0
  8 10  1  0
 10 11  1  0
 11 12  1  0
 14 13  1  6
 13 12  1  0
 14 15  1  0
 15  5  1  0
 16 18  1  0
 16 14  1  0
 17 16  2  0
 18 19  1  0
 20 19  1  0
 21 20  1  0
 22 18  1  0
 22 21  1  0
 22 23  1  1
 24 23  1  0
 25 23  2  0
M  END
$$$$
