SRP.pdb
     RDKit          3D

 25 25  0  0  1  0  0  0  0  0999 V2000
   10.0948  -17.2253   -1.7439 O   0  0  0  0  0  0  0  0  0  0  0  0
   10.4031  -18.4331   -1.1182 C   0  0  0  0  0  0  0  0  0  0  0  0
   10.2225  -19.6131   -2.0763 C   0  0  2  0  0  0  0  0  0  0  0  0
    8.8044  -19.8661   -2.1650 N   0  0  0  0  0  0  0  0  0  0  0  0
   10.9622  -20.7547   -1.4935 C   0  0  0  0  0  0  0  0  0  0  0  0
   10.4675  -21.3882   -0.5305 O   0  0  0  0  0  0  0  0  0  0  0  0
   17.4086  -25.1298   -5.4167 N   0  0  0  0  0  0  0  0  0  0  0  0
   16.0077  -25.3201   -5.3928 C   0  0  0  0  0  0  0  0  0  0  0  0
   15.3800  -25.7950   -6.4202 N   0  0  0  0  0  0  0  0  0  0  0  0
   15.2147  -25.0023   -4.2457 N   0  0  0  0  0  0  0  0  0  0  0  0
   15.7212  -24.2027   -3.1583 C   0  0  0  0  0  0  0  0  0  0  0  0
   14.6067  -24.0640   -2.1172 C   0  0  0  0  0  0  0  0  0  0  0  0
   13.7597  -22.9102   -2.5109 C   0  0  0  0  0  0  0  0  0  0  0  0
   12.9485  -22.2944   -1.3813 C   0  0  2  0  0  0  0  0  0  0  0  0
   12.2402  -21.1867   -1.9782 N   0  0  0  0  0  0  0  0  0  0  0  0
   13.7114  -21.9983   -0.1766 C   0  0  0  0  0  0  0  0  0  0  0  0
   14.5579  -21.0160   -0.2326 O   0  0  0  0  0  0  0  0  0  0  0  0
   14.3507  -25.9777   -6.3599 N   0  0  0  0  0  0  0  0  0  0  0  0
   13.6641  -22.6401    1.0785 C   0  0  0  0  0  0  0  0  0  0  0  0
   12.8247  -23.7426    1.4279 C   0  0  0  0  0  0  0  0  0  0  0  0
   13.3988  -24.2833    2.7098 C   0  0  0  0  0  0  0  0  0  0  0  0
   13.8926  -23.0313    3.3956 C   0  0  2  0  0  0  0  0  0  0  0  0
   14.4621  -22.2605    2.2234 C   0  0  0  0  0  0  0  0  0  0  0  0
   15.8758  -22.6517    2.0825 O   0  0  0  0  0  0  0  0  0  0  0  0
   16.2864  -23.4540    1.0446 O   0  0  0  0  0  0  0  0  0  0  0  0
  1  2  1  0
  3  4  1  1
  3  2  1  0
  5  3  1  0
  6  5  2  0
  7  8  1  0
  8  9  2  0
  8 10  1  0
 10 11  1  0
 11 12  1  0
 14 13  1  6
 13 12  1  0
 14 15  1  0
 15  5  1  0
 16 18  1  0
 16 14  1  0
 17 16  2  0
 18 19  1  0
 20 19  1  0
 21 20  1  0
 22 18  1  0
 22 21  1  0
 22 23  1  1
 24 23  1  0
 25 23  2  0
M  END
$$$$
