SRP.pdb
     RDKit          3D

 25 25  0  0  1  0  0  0  0  0999 V2000
   18.7959  -10.9296  -14.7520 O   0  0  0  0  0  0  0  0  0  0  0  0
   18.5807  -10.8807  -16.1292 C   0  0  0  0  0  0  0  0  0  0  0  0
   19.1517  -12.1206  -16.8215 C   0  0  2  0  0  0  0  0  0  0  0  0
   18.7228  -13.2637  -16.0519 N   0  0  0  0  0  0  0  0  0  0  0  0
   20.6236  -11.9673  -16.8283 C   0  0  0  0  0  0  0  0  0  0  0  0
   21.2784  -12.2165  -15.7879 O   0  0  0  0  0  0  0  0  0  0  0  0
   25.7365  -15.3942  -19.7494 N   0  0  0  0  0  0  0  0  0  0  0  0
   25.6204  -15.1078  -21.1292 C   0  0  0  0  0  0  0  0  0  0  0  0
   26.5034  -15.5298  -21.9762 N   0  0  0  0  0  0  0  0  0  0  0  0
   24.5337  -14.3446  -21.6606 N   0  0  0  0  0  0  0  0  0  0  0  0
   24.2592  -12.9958  -21.2317 C   0  0  0  0  0  0  0  0  0  0  0  0
   23.6860  -13.0606  -19.8130 C   0  0  0  0  0  0  0  0  0  0  0  0
   23.1874  -11.7069  -19.4634 C   0  0  0  0  0  0  0  0  0  0  0  0
   22.8029  -11.5217  -18.0035 C   0  0  2  0  0  0  0  0  0  0  0  0
   21.3592  -11.5405  -17.9823 N   0  0  0  0  0  0  0  0  0  0  0  0
   23.4430  -10.3913  -17.3452 C   0  0  0  0  0  0  0  0  0  0  0  0
   22.8934   -9.2249  -17.4932 O   0  0  0  0  0  0  0  0  0  0  0  0
   26.4028  -15.2930  -22.9912 N   0  0  0  0  0  0  0  0  0  0  0  0
   24.6058  -10.3772  -16.5469 C   0  0  0  0  0  0  0  0  0  0  0  0
   25.4061  -11.5113  -16.2069 C   0  0  0  0  0  0  0  0  0  0  0  0
   26.6926  -10.9396  -15.6749 C   0  0  0  0  0  0  0  0  0  0  0  0
   26.2230   -9.6886  -14.9707 C   0  0  2  0  0  0  0  0  0  0  0  0
   25.1619   -9.1930  -15.9304 C   0  0  0  0  0  0  0  0  0  0  0  0
   25.8254   -8.3070  -16.9032 O   0  0  0  0  0  0  0  0  0  0  0  0
   26.1238   -7.0041  -16.5825 O   0  0  0  0  0  0  0  0  0  0  0  0
  1  2  1  0
  3  4  1  1
  3  2  1  0
  5  3  1  0
  6  5  2  0
  7  8  1  0
  8  9  2  0
  8 10  1  0
 10 11  1  0
 11 12  1  0
 14 13  1  6
 13 12  1  0
 14 15  1  0
 15  5  1  0
 16 18  1  0
 16 14  1  0
 17 16  2  0
 18 19  1  0
 20 19  1  0
 21 20  1  0
 22 18  1  0
 22 21  1  0
 22 23  1  6
 24 23  1  0
 25 23  2  0
M  END
$$$$
