SRP.pdb
     RDKit          3D

 25 25  0  0  1  0  0  0  0  0999 V2000
   28.1661  -18.1151  -16.9545 O   0  0  0  0  0  0  0  0  0  0  0  0
   27.2872  -19.1726  -16.7205 C   0  0  0  0  0  0  0  0  0  0  0  0
   27.9630  -20.2841  -15.9140 C   0  0  2  0  0  0  0  0  0  0  0  0
   28.7879  -21.0271  -16.8362 N   0  0  0  0  0  0  0  0  0  0  0  0
   26.8811  -21.1113  -15.3350 C   0  0  0  0  0  0  0  0  0  0  0  0
   26.4685  -22.1184  -15.9585 O   0  0  0  0  0  0  0  0  0  0  0  0
   22.0160  -20.2138   -8.5868 N   0  0  0  0  0  0  0  0  0  0  0  0
   23.2333  -20.9204   -8.4512 C   0  0  0  0  0  0  0  0  0  0  0  0
   23.5177  -21.5592   -7.3621 N   0  0  0  0  0  0  0  0  0  0  0  0
   24.2073  -20.9686   -9.4975 N   0  0  0  0  0  0  0  0  0  0  0  0
   24.2608  -19.9789  -10.5444 C   0  0  0  0  0  0  0  0  0  0  0  0
   25.4635  -20.3015  -11.4360 C   0  0  0  0  0  0  0  0  0  0  0  0
   25.1869  -21.5885  -12.1219 C   0  0  0  0  0  0  0  0  0  0  0  0
   25.0668  -21.4964  -13.6353 C   0  0  2  0  0  0  0  0  0  0  0  0
   26.2646  -20.8197  -14.0741 N   0  0  0  0  0  0  0  0  0  0  0  0
   23.8047  -20.9485  -14.1126 C   0  0  0  0  0  0  0  0  0  0  0  0
   23.6757  -19.6571  -14.1098 O   0  0  0  0  0  0  0  0  0  0  0  0
   24.4208  -22.0842   -7.2899 N   0  0  0  0  0  0  0  0  0  0  0  0
   22.6693  -21.6346  -14.5917 C   0  0  0  0  0  0  0  0  0  0  0  0
   22.5307  -23.0522  -14.7088 C   0  0  0  0  0  0  0  0  0  0  0  0
   21.0573  -23.2885  -14.9039 C   0  0  0  0  0  0  0  0  0  0  0  0
   20.6418  -22.0838  -15.7149 C   0  0  2  0  0  0  0  0  0  0  0  0
   21.4604  -20.9923  -15.0584 C   0  0  0  0  0  0  0  0  0  0  0  0
   20.6536  -20.4368  -13.9574 O   0  0  0  0  0  0  0  0  0  0  0  0
   19.5788  -19.6189  -14.2127 O   0  0  0  0  0  0  0  0  0  0  0  0
  1  2  1  0
  3  4  1  6
  3  2  1  0
  5  3  1  0
  6  5  2  0
  7  8  1  0
  8  9  2  0
  8 10  1  0
 10 11  1  0
 11 12  1  0
 14 13  1  1
 13 12  1  0
 14 15  1  0
 15  5  1  0
 16 18  1  0
 16 14  1  0
 17 16  2  0
 18 19  1  0
 20 19  1  0
 21 20  1  0
 22 18  1  0
 22 21  1  0
 22 23  1  1
 24 23  1  0
 25 23  2  0
M  END
$$$$
