SRP.pdb
     RDKit          3D

 25 25  0  0  1  0  0  0  0  0999 V2000
   16.8521  -14.9639    5.1712 O   0  0  0  0  0  0  0  0  0  0  0  0
   16.4445  -16.2966    5.2297 C   0  0  0  0  0  0  0  0  0  0  0  0
   15.2354  -16.5442    4.3245 C   0  0  2  0  0  0  0  0  0  0  0  0
   14.1046  -15.9051    4.9535 N   0  0  0  0  0  0  0  0  0  0  0  0
   15.0686  -18.0114    4.2249 C   0  0  0  0  0  0  0  0  0  0  0  0
   14.6589  -18.6583    5.2184 O   0  0  0  0  0  0  0  0  0  0  0  0
   13.8556  -23.4079   -2.9319 N   0  0  0  0  0  0  0  0  0  0  0  0
   14.7586  -23.9806   -2.0067 C   0  0  0  0  0  0  0  0  0  0  0  0
   15.5330  -24.9602   -2.3471 N   0  0  0  0  0  0  0  0  0  0  0  0
   14.8661  -23.5152   -0.6585 N   0  0  0  0  0  0  0  0  0  0  0  0
   15.1542  -22.1388   -0.3408 C   0  0  0  0  0  0  0  0  0  0  0  0
   14.9954  -21.9619    1.1721 C   0  0  0  0  0  0  0  0  0  0  0  0
   15.2056  -20.5261    1.4851 C   0  0  0  0  0  0  0  0  0  0  0  0
   15.2076  -20.1859    2.9675 C   0  0  2  0  0  0  0  0  0  0  0  0
   15.3553  -18.7508    3.0308 N   0  0  0  0  0  0  0  0  0  0  0  0
   16.1401  -20.9663    3.7689 C   0  0  0  0  0  0  0  0  0  0  0  0
   17.3999  -20.6678    3.6784 O   0  0  0  0  0  0  0  0  0  0  0  0
   16.1398  -25.4160   -1.6257 N   0  0  0  0  0  0  0  0  0  0  0  0
   15.8676  -22.0294    4.6551 C   0  0  0  0  0  0  0  0  0  0  0  0
   14.5813  -22.5910    4.9242 C   0  0  0  0  0  0  0  0  0  0  0  0
   14.8598  -23.8951    5.6218 C   0  0  0  0  0  0  0  0  0  0  0  0
   16.0966  -23.5729    6.4268 C   0  0  2  0  0  0  0  0  0  0  0  0
   16.8663  -22.7109    5.4486 C   0  0  0  0  0  0  0  0  0  0  0  0
   17.7145  -23.6070    4.6427 O   0  0  0  0  0  0  0  0  0  0  0  0
   18.8078  -24.2304    5.1955 O   0  0  0  0  0  0  0  0  0  0  0  0
  1  2  1  0
  3  4  1  1
  3  2  1  0
  5  3  1  0
  6  5  2  0
  7  8  1  0
  8  9  2  0
  8 10  1  0
 10 11  1  0
 11 12  1  0
 14 13  1  6
 13 12  1  0
 14 15  1  0
 15  5  1  0
 16 18  1  0
 16 14  1  0
 17 16  2  0
 18 19  1  0
 20 19  1  0
 21 20  1  0
 22 18  1  0
 22 21  1  0
 22 23  1  1
 24 23  1  0
 25 23  2  0
M  END
$$$$
