SRP.pdb
     RDKit          3D

 25 25  0  0  1  0  0  0  0  0999 V2000
   27.8935  -11.8252  -15.6609 O   0  0  0  0  0  0  0  0  0  0  0  0
   26.9343  -10.8547  -15.9499 C   0  0  0  0  0  0  0  0  0  0  0  0
   25.7050  -11.4752  -16.6182 C   0  0  2  0  0  0  0  0  0  0  0  0
   26.1223  -11.9261  -17.9241 N   0  0  0  0  0  0  0  0  0  0  0  0
   24.6763  -10.4139  -16.6916 C   0  0  0  0  0  0  0  0  0  0  0  0
   24.7131   -9.5774  -17.6256 O   0  0  0  0  0  0  0  0  0  0  0  0
   17.3943  -13.5756  -14.9090 N   0  0  0  0  0  0  0  0  0  0  0  0
   18.0845  -13.6848  -16.1383 C   0  0  0  0  0  0  0  0  0  0  0  0
   17.6808  -14.4969  -17.0617 N   0  0  0  0  0  0  0  0  0  0  0  0
   19.2537  -12.9133  -16.4273 N   0  0  0  0  0  0  0  0  0  0  0  0
   19.6486  -11.7847  -15.6220 C   0  0  0  0  0  0  0  0  0  0  0  0
   20.8885  -11.1577  -16.2663 C   0  0  0  0  0  0  0  0  0  0  0  0
   21.2952   -9.9986  -15.4329 C   0  0  0  0  0  0  0  0  0  0  0  0
   22.5703   -9.3013  -15.8817 C   0  0  2  0  0  0  0  0  0  0  0  0
   23.6169  -10.2853  -15.7345 N   0  0  0  0  0  0  0  0  0  0  0  0
   22.8082   -8.0080  -15.2560 C   0  0  0  0  0  0  0  0  0  0  0  0
   23.3189   -8.0071  -14.0629 O   0  0  0  0  0  0  0  0  0  0  0  0
   18.2224  -14.5773  -17.9543 N   0  0  0  0  0  0  0  0  0  0  0  0
   22.5586   -6.7188  -15.7711 C   0  0  0  0  0  0  0  0  0  0  0  0
   22.1421   -6.4117  -17.1032 C   0  0  0  0  0  0  0  0  0  0  0  0
   21.6642   -4.9857  -17.0469 C   0  0  0  0  0  0  0  0  0  0  0  0
   22.5975   -4.3724  -16.0298 C   0  0  1  0  0  0  0  0  0  0  0  0
   22.7046   -5.4931  -15.0174 C   0  0  0  0  0  0  0  0  0  0  0  0
   21.6254   -5.3027  -14.0321 O   0  0  0  0  0  0  0  0  0  0  0  0
   21.7229   -4.3407  -13.0552 O   0  0  0  0  0  0  0  0  0  0  0  0
  1  2  1  0
  3  4  1  6
  3  2  1  0
  5  3  1  0
  6  5  2  0
  7  8  1  0
  8  9  2  0
  8 10  1  0
 10 11  1  0
 11 12  1  0
 14 13  1  1
 13 12  1  0
 14 15  1  0
 15  5  1  0
 16 18  1  0
 16 14  1  0
 17 16  2  0
 18 19  1  0
 20 19  1  0
 21 20  1  0
 22 18  1  0
 22 21  1  0
 22 23  1  1
 24 23  1  0
 25 23  2  0
M  END
$$$$
