SRP.pdb
     RDKit          3D

 25 25  0  0  1  0  0  0  0  0999 V2000
   23.4357  -16.6468  -17.6207 O   0  0  0  0  0  0  0  0  0  0  0  0
   22.7164  -16.6885  -16.4264 C   0  0  0  0  0  0  0  0  0  0  0  0
   23.5752  -16.2227  -15.2482 C   0  0  2  0  0  0  0  0  0  0  0  0
   24.0040  -14.8781  -15.5495 N   0  0  0  0  0  0  0  0  0  0  0  0
   24.7111  -17.1660  -15.1472 C   0  0  0  0  0  0  0  0  0  0  0  0
   25.8258  -16.8488  -15.6268 O   0  0  0  0  0  0  0  0  0  0  0  0
   24.7492  -20.4509   -8.2311 N   0  0  0  0  0  0  0  0  0  0  0  0
   23.9480  -20.7130   -9.3664 C   0  0  0  0  0  0  0  0  0  0  0  0
   22.6879  -20.4178   -9.3780 N   0  0  0  0  0  0  0  0  0  0  0  0
   24.4786  -21.3119  -10.5520 N   0  0  0  0  0  0  0  0  0  0  0  0
   25.8105  -21.0297  -11.0261 C   0  0  0  0  0  0  0  0  0  0  0  0
   25.7303  -19.8211  -11.9633 C   0  0  0  0  0  0  0  0  0  0  0  0
   25.3984  -20.3214  -13.3208 C   0  0  0  0  0  0  0  0  0  0  0  0
   25.7239  -19.3625  -14.4557 C   0  0  2  0  0  0  0  0  0  0  0  0
   24.6066  -18.4500  -14.5184 N   0  0  0  0  0  0  0  0  0  0  0  0
   26.1017  -20.0066  -15.7060 C   0  0  0  0  0  0  0  0  0  0  0  0
   25.1629  -20.5958  -16.3813 O   0  0  0  0  0  0  0  0  0  0  0  0
   22.1061  -20.6614  -10.2138 N   0  0  0  0  0  0  0  0  0  0  0  0
   27.3745  -20.0862  -16.3088 C   0  0  0  0  0  0  0  0  0  0  0  0
   28.5614  -19.4311  -15.8568 C   0  0  0  0  0  0  0  0  0  0  0  0
   29.6881  -20.1102  -16.5876 C   0  0  0  0  0  0  0  0  0  0  0  0
   29.0614  -20.4257  -17.9253 C   0  0  1  0  0  0  0  0  0  0  0  0
   27.6686  -20.8447  -17.5046 C   0  0  0  0  0  0  0  0  0  0  0  0
   27.6994  -22.2975  -17.2599 O   0  0  0  0  0  0  0  0  0  0  0  0
   27.6532  -22.7993  -15.9810 O   0  0  0  0  0  0  0  0  0  0  0  0
  1  2  1  0
  3  4  1  6
  3  2  1  0
  5  3  1  0
  6  5  2  0
  7  8  1  0
  8  9  2  0
  8 10  1  0
 10 11  1  0
 11 12  1  0
 14 13  1  1
 13 12  1  0
 14 15  1  0
 15  5  1  0
 16 18  1  0
 16 14  1  0
 17 16  2  0
 18 19  1  0
 20 19  1  0
 21 20  1  0
 22 18  1  0
 22 21  1  0
 22 23  1  1
 24 23  1  0
 25 23  2  0
M  END
$$$$
