SRP.pdb
     RDKit          3D

 25 25  0  0  1  0  0  0  0  0999 V2000
   21.4593  -20.2176  -18.2034 O   0  0  0  0  0  0  0  0  0  0  0  0
   20.7993  -19.0280  -17.8956 C   0  0  0  0  0  0  0  0  0  0  0  0
   20.7554  -18.7965  -16.3832 C   0  0  2  0  0  0  0  0  0  0  0  0
   20.0366  -17.5633  -16.1700 N   0  0  0  0  0  0  0  0  0  0  0  0
   22.1591  -18.7164  -15.9215 C   0  0  0  0  0  0  0  0  0  0  0  0
   22.8259  -17.6766  -16.1396 O   0  0  0  0  0  0  0  0  0  0  0  0
   25.8446  -20.5217   -8.9191 N   0  0  0  0  0  0  0  0  0  0  0  0
   24.5683  -20.7281   -9.4917 C   0  0  0  0  0  0  0  0  0  0  0  0
   23.4922  -20.6288   -8.7795 N   0  0  0  0  0  0  0  0  0  0  0  0
   24.3965  -21.0541  -10.8737 N   0  0  0  0  0  0  0  0  0  0  0  0
   25.4712  -21.5772  -11.6797 C   0  0  0  0  0  0  0  0  0  0  0  0
   25.5970  -20.6956  -12.9257 C   0  0  0  0  0  0  0  0  0  0  0  0
   24.2354  -20.5041  -13.4847 C   0  0  0  0  0  0  0  0  0  0  0  0
   24.1741  -19.6670  -14.7532 C   0  0  2  0  0  0  0  0  0  0  0  0
   22.8140  -19.7838  -15.2238 N   0  0  0  0  0  0  0  0  0  0  0  0
   25.2199  -19.9575  -15.7241 C   0  0  0  0  0  0  0  0  0  0  0  0
   25.0695  -21.0118  -16.4658 O   0  0  0  0  0  0  0  0  0  0  0  0
   22.5577  -20.7726   -9.2295 N   0  0  0  0  0  0  0  0  0  0  0  0
   26.4064  -19.2406  -15.9849 C   0  0  0  0  0  0  0  0  0  0  0  0
   26.8811  -18.1067  -15.2560 C   0  0  0  0  0  0  0  0  0  0  0  0
   28.3192  -17.9470  -15.6701 C   0  0  0  0  0  0  0  0  0  0  0  0
   28.2873  -18.3741  -17.1186 C   0  0  1  0  0  0  0  0  0  0  0  0
   27.3274  -19.5434  -17.0580 C   0  0  0  0  0  0  0  0  0  0  0  0
   28.1236  -20.7553  -16.7953 O   0  0  0  0  0  0  0  0  0  0  0  0
   28.9274  -21.2971  -17.7699 O   0  0  0  0  0  0  0  0  0  0  0  0
  1  2  1  0
  3  4  1  6
  3  2  1  0
  5  3  1  0
  6  5  2  0
  7  8  1  0
  8  9  2  0
  8 10  1  0
 10 11  1  0
 11 12  1  0
 14 13  1  1
 13 12  1  0
 14 15  1  0
 15  5  1  0
 16 18  1  0
 16 14  1  0
 17 16  2  0
 18 19  1  0
 20 19  1  0
 21 20  1  0
 22 18  1  0
 22 21  1  0
 22 23  1  1
 24 23  1  0
 25 23  2  0
M  END
$$$$
