SRP.pdb
     RDKit          3D

 25 25  0  0  1  0  0  0  0  0999 V2000
   13.5959  -20.9947  -17.7989 O   0  0  0  0  0  0  0  0  0  0  0  0
   14.9639  -20.9543  -17.5293 C   0  0  0  0  0  0  0  0  0  0  0  0
   15.2448  -20.2389  -16.2057 C   0  0  2  0  0  0  0  0  0  0  0  0
   15.0571  -18.8281  -16.4451 N   0  0  0  0  0  0  0  0  0  0  0  0
   16.6386  -20.5651  -15.8302 C   0  0  0  0  0  0  0  0  0  0  0  0
   17.5893  -20.0538  -16.4691 O   0  0  0  0  0  0  0  0  0  0  0  0
   18.5137  -24.7877   -8.6527 N   0  0  0  0  0  0  0  0  0  0  0  0
   18.4175  -25.2952   -9.9691 C   0  0  0  0  0  0  0  0  0  0  0  0
   18.0653  -26.5210  -10.1888 N   0  0  0  0  0  0  0  0  0  0  0  0
   18.7005  -24.4920  -11.1182 N   0  0  0  0  0  0  0  0  0  0  0  0
   19.3789  -23.2236  -11.0217 C   0  0  0  0  0  0  0  0  0  0  0  0
   19.6138  -22.7062  -12.4439 C   0  0  0  0  0  0  0  0  0  0  0  0
   18.3060  -22.2585  -12.9850 C   0  0  0  0  0  0  0  0  0  0  0  0
   18.3389  -21.7778  -14.4277 C   0  0  2  0  0  0  0  0  0  0  0  0
   16.9705  -21.4519  -14.7540 N   0  0  0  0  0  0  0  0  0  0  0  0
   19.0270  -22.6703  -15.3501 C   0  0  0  0  0  0  0  0  0  0  0  0
   18.4898  -23.8311  -15.5700 O   0  0  0  0  0  0  0  0  0  0  0  0
   17.9186  -26.8499  -11.1721 N   0  0  0  0  0  0  0  0  0  0  0  0
   20.2259  -22.4523  -16.0606 C   0  0  0  0  0  0  0  0  0  0  0  0
   21.0338  -21.2748  -16.0053 C   0  0  0  0  0  0  0  0  0  0  0  0
   22.3475  -21.6698  -16.6245 C   0  0  0  0  0  0  0  0  0  0  0  0
   21.9193  -22.6465  -17.6941 C   0  0  2  0  0  0  0  0  0  0  0  0
   20.8178  -23.3999  -16.9789 C   0  0  0  0  0  0  0  0  0  0  0  0
   21.4409  -24.5432  -16.2887 O   0  0  0  0  0  0  0  0  0  0  0  0
   21.9118  -25.6237  -16.9960 O   0  0  0  0  0  0  0  0  0  0  0  0
  1  2  1  0
  3  4  1  6
  3  2  1  0
  5  3  1  0
  6  5  2  0
  7  8  1  0
  8  9  2  0
  8 10  1  0
 10 11  1  0
 11 12  1  0
 14 13  1  1
 13 12  1  0
 14 15  1  0
 15  5  1  0
 16 18  1  0
 16 14  1  0
 17 16  2  0
 18 19  1  0
 20 19  1  0
 21 20  1  0
 22 18  1  0
 22 21  1  0
 22 23  1  1
 24 23  1  0
 25 23  2  0
M  END
$$$$
