SRP.pdb
     RDKit          3D

 25 25  0  0  1  0  0  0  0  0999 V2000
   40.9824   -7.8258   -9.7980 O   0  0  0  0  0  0  0  0  0  0  0  0
   41.8484   -8.8132   -9.3282 C   0  0  0  0  0  0  0  0  0  0  0  0
   41.0770   -9.9437   -8.6432 C   0  0  2  0  0  0  0  0  0  0  0  0
   40.5167   -9.3935   -7.4324 N   0  0  0  0  0  0  0  0  0  0  0  0
   42.0516  -11.0238   -8.3718 C   0  0  0  0  0  0  0  0  0  0  0  0
   42.7918  -10.9525   -7.3617 O   0  0  0  0  0  0  0  0  0  0  0  0
   44.1533  -19.3330  -11.1319 N   0  0  0  0  0  0  0  0  0  0  0  0
   43.3763  -19.0898   -9.9758 C   0  0  0  0  0  0  0  0  0  0  0  0
   43.1544  -20.0262   -9.1103 N   0  0  0  0  0  0  0  0  0  0  0  0
   42.7985  -17.8106   -9.7008 N   0  0  0  0  0  0  0  0  0  0  0  0
   42.9980  -16.6748  -10.5660 C   0  0  0  0  0  0  0  0  0  0  0  0
   43.6416  -15.5593   -9.7372 C   0  0  0  0  0  0  0  0  0  0  0  0
   42.6652  -14.4453   -9.6409 C   0  0  0  0  0  0  0  0  0  0  0  0
   43.1850  -13.1941   -8.9497 C   0  0  2  0  0  0  0  0  0  0  0  0
   42.2005  -12.1721   -9.2169 N   0  0  0  0  0  0  0  0  0  0  0  0
   44.5666  -12.8566   -9.2626 C   0  0  0  0  0  0  0  0  0  0  0  0
   44.8077  -12.3551  -10.4351 O   0  0  0  0  0  0  0  0  0  0  0  0
   42.6314  -19.8055   -8.2304 N   0  0  0  0  0  0  0  0  0  0  0  0
   45.7146  -12.9980   -8.4552 C   0  0  0  0  0  0  0  0  0  0  0  0
   45.7540  -13.5549   -7.1397 C   0  0  0  0  0  0  0  0  0  0  0  0
   47.2104  -13.8194   -6.8680 C   0  0  0  0  0  0  0  0  0  0  0  0
   47.8857  -12.6746   -7.5858 C   0  0  2  0  0  0  0  0  0  0  0  0
   47.0439  -12.5785   -8.8407 C   0  0  0  0  0  0  0  0  0  0  0  0
   47.6486  -13.4689   -9.8473 O   0  0  0  0  0  0  0  0  0  0  0  0
   47.1534  -14.7334  -10.0600 O   0  0  0  0  0  0  0  0  0  0  0  0
  1  2  1  0
  3  4  1  1
  3  2  1  0
  5  3  1  0
  6  5  2  0
  7  8  1  0
  8  9  2  0
  8 10  1  0
 10 11  1  0
 11 12  1  0
 14 13  1  6
 13 12  1  0
 14 15  1  0
 15  5  1  0
 16 18  1  0
 16 14  1  0
 17 16  2  0
 18 19  1  0
 20 19  1  0
 21 20  1  0
 22 18  1  0
 22 21  1  0
 22 23  1  6
 24 23  1  0
 25 23  2  0
M  END
$$$$
