SRP.pdb
     RDKit          3D

 25 25  0  0  1  0  0  0  0  0999 V2000
   14.2466   -4.4758   -8.3079 O   0  0  0  0  0  0  0  0  0  0  0  0
   15.4386   -5.0509   -8.7484 C   0  0  0  0  0  0  0  0  0  0  0  0
   15.2621   -6.5466   -9.0213 C   0  0  2  0  0  0  0  0  0  0  0  0
   15.2129   -7.2028   -7.7369 N   0  0  0  0  0  0  0  0  0  0  0  0
   16.4269   -6.9748   -9.8276 C   0  0  0  0  0  0  0  0  0  0  0  0
   17.5211   -7.2099   -9.2611 O   0  0  0  0  0  0  0  0  0  0  0  0
   16.2379  -12.8264  -16.2413 N   0  0  0  0  0  0  0  0  0  0  0  0
   17.5542  -12.3101  -16.2561 C   0  0  0  0  0  0  0  0  0  0  0  0
   18.4721  -12.8405  -16.9987 N   0  0  0  0  0  0  0  0  0  0  0  0
   17.9411  -11.1860  -15.4608 N   0  0  0  0  0  0  0  0  0  0  0  0
   17.0207  -10.5173  -14.5753 C   0  0  0  0  0  0  0  0  0  0  0  0
   17.8088   -9.4741  -13.7778 C   0  0  0  0  0  0  0  0  0  0  0  0
   16.8595   -8.7897  -12.8646 C   0  0  0  0  0  0  0  0  0  0  0  0
   17.4748   -7.7037  -11.9954 C   0  0  2  0  0  0  0  0  0  0  0  0
   16.3738   -7.1397  -11.2505 N   0  0  0  0  0  0  0  0  0  0  0  0
   18.3206   -6.7588  -12.7113 C   0  0  0  0  0  0  0  0  0  0  0  0
   17.7355   -5.9235  -13.5140 O   0  0  0  0  0  0  0  0  0  0  0  0
   19.4567  -12.4898  -16.9355 N   0  0  0  0  0  0  0  0  0  0  0  0
   19.7226   -6.6132  -12.6588 C   0  0  0  0  0  0  0  0  0  0  0  0
   20.6183   -7.3828  -11.8539 C   0  0  0  0  0  0  0  0  0  0  0  0
   21.9868   -7.1102  -12.4178 C   0  0  0  0  0  0  0  0  0  0  0  0
   21.8770   -5.6662  -12.8473 C   0  0  2  0  0  0  0  0  0  0  0  0
   20.4736   -5.6352  -13.4145 C   0  0  0  0  0  0  0  0  0  0  0  0
   20.5678   -5.9762  -14.8451 O   0  0  0  0  0  0  0  0  0  0  0  0
   20.1526   -7.2023  -15.3075 O   0  0  0  0  0  0  0  0  0  0  0  0
  1  2  1  0
  3  4  1  1
  3  2  1  0
  5  3  1  0
  6  5  2  0
  7  8  1  0
  8  9  2  0
  8 10  1  0
 10 11  1  0
 11 12  1  0
 14 13  1  6
 13 12  1  0
 14 15  1  0
 15  5  1  0
 16 18  1  0
 16 14  1  0
 17 16  2  0
 18 19  1  0
 20 19  1  0
 21 20  1  0
 22 18  1  0
 22 21  1  0
 22 23  1  6
 24 23  1  0
 25 23  2  0
M  END
$$$$
