SRP.pdb
     RDKit          3D

 25 25  0  0  1  0  0  0  0  0999 V2000
   20.7044  -17.8149  -16.5678 O   0  0  0  0  0  0  0  0  0  0  0  0
   21.0052  -19.1750  -16.6385 C   0  0  0  0  0  0  0  0  0  0  0  0
   21.6801  -19.6587  -15.3528 C   0  0  2  0  0  0  0  0  0  0  0  0
   20.7173  -19.4985  -14.2897 N   0  0  0  0  0  0  0  0  0  0  0  0
   22.8805  -18.8158  -15.1563 C   0  0  0  0  0  0  0  0  0  0  0  0
   22.8055  -17.7850  -14.4456 O   0  0  0  0  0  0  0  0  0  0  0  0
   25.9366  -20.6910  -10.3232 N   0  0  0  0  0  0  0  0  0  0  0  0
   26.3466  -21.1743  -11.5872 C   0  0  0  0  0  0  0  0  0  0  0  0
   25.7905  -22.2160  -12.1170 N   0  0  0  0  0  0  0  0  0  0  0  0
   27.3864  -20.5468  -12.3426 N   0  0  0  0  0  0  0  0  0  0  0  0
   27.1173  -19.5111  -13.3087 C   0  0  0  0  0  0  0  0  0  0  0  0
   26.5604  -20.1774  -14.5702 C   0  0  0  0  0  0  0  0  0  0  0  0
   26.5081  -19.1499  -15.6401 C   0  0  0  0  0  0  0  0  0  0  0  0
   25.2895  -18.2407  -15.5978 C   0  0  2  0  0  0  0  0  0  0  0  0
   24.1519  -19.1179  -15.7454 N   0  0  0  0  0  0  0  0  0  0  0  0
   25.3485  -17.1027  -16.5047 C   0  0  0  0  0  0  0  0  0  0  0  0
   25.1326  -17.3312  -17.7639 O   0  0  0  0  0  0  0  0  0  0  0  0
   26.0778  -22.5261  -13.0750 N   0  0  0  0  0  0  0  0  0  0  0  0
   25.6130  -15.7495  -16.2072 C   0  0  0  0  0  0  0  0  0  0  0  0
   25.8892  -15.2117  -14.9123 C   0  0  0  0  0  0  0  0  0  0  0  0
   26.4546  -13.8406  -15.1683 C   0  0  0  0  0  0  0  0  0  0  0  0
   25.6842  -13.3967  -16.3894 C   0  0  1  0  0  0  0  0  0  0  0  0
   25.6290  -14.6838  -17.1848 C   0  0  0  0  0  0  0  0  0  0  0  0
   26.8249  -14.7230  -18.0450 O   0  0  0  0  0  0  0  0  0  0  0  0
   26.9462  -13.8804  -19.1243 O   0  0  0  0  0  0  0  0  0  0  0  0
  1  2  1  0
  3  4  1  1
  3  2  1  0
  5  3  1  0
  6  5  2  0
  7  8  1  0
  8  9  2  0
  8 10  1  0
 10 11  1  0
 11 12  1  0
 14 13  1  6
 13 12  1  0
 14 15  1  0
 15  5  1  0
 16 18  1  0
 16 14  1  0
 17 16  2  0
 18 19  1  0
 20 19  1  0
 21 20  1  0
 22 18  1  0
 22 21  1  0
 22 23  1  6
 24 23  1  0
 25 23  2  0
M  END
$$$$
