SRP.pdb
     RDKit          3D

 25 25  0  0  1  0  0  0  0  0999 V2000
   29.2030  -20.6518  -20.3931 O   0  0  0  0  0  0  0  0  0  0  0  0
   28.9484  -19.5235  -19.6135 C   0  0  0  0  0  0  0  0  0  0  0  0
   27.4600  -19.1670  -19.6280 C   0  0  2  0  0  0  0  0  0  0  0  0
   27.3045  -18.0590  -20.5396 N   0  0  0  0  0  0  0  0  0  0  0  0
   27.0921  -18.8092  -18.2399 C   0  0  0  0  0  0  0  0  0  0  0  0
   27.7679  -17.9537  -17.6196 O   0  0  0  0  0  0  0  0  0  0  0  0
   21.5068  -21.4924  -15.4331 N   0  0  0  0  0  0  0  0  0  0  0  0
   20.7704  -20.5187  -14.7196 C   0  0  0  0  0  0  0  0  0  0  0  0
   19.8764  -20.8620  -13.8490 N   0  0  0  0  0  0  0  0  0  0  0  0
   20.9694  -19.1162  -14.9174 N   0  0  0  0  0  0  0  0  0  0  0  0
   21.9438  -18.6014  -15.8470 C   0  0  0  0  0  0  0  0  0  0  0  0
   23.3333  -18.8189  -15.2408 C   0  0  0  0  0  0  0  0  0  0  0  0
   24.3371  -18.3462  -16.2269 C   0  0  0  0  0  0  0  0  0  0  0  0
   25.6748  -19.0683  -16.1776 C   0  0  2  0  0  0  0  0  0  0  0  0
   25.9826  -19.3982  -17.5493 N   0  0  0  0  0  0  0  0  0  0  0  0
   25.7390  -20.1641  -15.2206 C   0  0  0  0  0  0  0  0  0  0  0  0
   25.0325  -21.2223  -15.4766 O   0  0  0  0  0  0  0  0  0  0  0  0
   19.3729  -20.1231  -13.3040 N   0  0  0  0  0  0  0  0  0  0  0  0
   26.4778  -20.2473  -14.0219 C   0  0  0  0  0  0  0  0  0  0  0  0
   27.3295  -19.2321  -13.4870 C   0  0  0  0  0  0  0  0  0  0  0  0
   27.5785  -19.6394  -12.0597 C   0  0  0  0  0  0  0  0  0  0  0  0
   27.6088  -21.1466  -12.1548 C   0  0  2  0  0  0  0  0  0  0  0  0
   26.4947  -21.3998  -13.1484 C   0  0  0  0  0  0  0  0  0  0  0  0
   25.2447  -21.5475  -12.3820 O   0  0  0  0  0  0  0  0  0  0  0  0
   24.9982  -22.6811  -11.6448 O   0  0  0  0  0  0  0  0  0  0  0  0
  1  2  1  0
  3  4  1  6
  3  2  1  0
  5  3  1  0
  6  5  2  0
  7  8  1  0
  8  9  2  0
  8 10  1  0
 10 11  1  0
 11 12  1  0
 14 13  1  6
 13 12  1  0
 14 15  1  0
 15  5  1  0
 16 18  1  0
 16 14  1  0
 17 16  2  0
 18 19  1  0
 20 19  1  0
 21 20  1  0
 22 18  1  0
 22 21  1  0
 22 23  1  1
 24 23  1  0
 25 23  2  0
M  END
$$$$
