SRP.pdb
     RDKit          3D

 25 25  0  0  1  0  0  0  0  0999 V2000
   21.3893  -16.1511  -18.4379 O   0  0  0  0  0  0  0  0  0  0  0  0
   21.0482  -17.4833  -18.6712 C   0  0  0  0  0  0  0  0  0  0  0  0
   20.7259  -18.2080  -17.3622 C   0  0  2  0  0  0  0  0  0  0  0  0
   19.5524  -17.5738  -16.8114 N   0  0  0  0  0  0  0  0  0  0  0  0
   21.9098  -18.0576  -16.4870 C   0  0  0  0  0  0  0  0  0  0  0  0
   21.8152  -17.4010  -15.4225 O   0  0  0  0  0  0  0  0  0  0  0  0
   25.9082  -21.5499  -10.7018 N   0  0  0  0  0  0  0  0  0  0  0  0
   24.6783  -20.9211  -10.3994 C   0  0  0  0  0  0  0  0  0  0  0  0
   24.2568  -20.8290   -9.1791 N   0  0  0  0  0  0  0  0  0  0  0  0
   23.8406  -20.3580  -11.4128 N   0  0  0  0  0  0  0  0  0  0  0  0
   23.9330  -20.7559  -12.7954 C   0  0  0  0  0  0  0  0  0  0  0  0
   22.9392  -19.9092  -13.5961 C   0  0  0  0  0  0  0  0  0  0  0  0
   23.1492  -20.2043  -15.0356 C   0  0  0  0  0  0  0  0  0  0  0  0
   24.0303  -19.2078  -15.7732 C   0  0  2  0  0  0  0  0  0  0  0  0
   23.1864  -18.6328  -16.7942 N   0  0  0  0  0  0  0  0  0  0  0  0
   25.3098  -19.7415  -16.2190 C   0  0  0  0  0  0  0  0  0  0  0  0
   25.2858  -20.7980  -16.9725 O   0  0  0  0  0  0  0  0  0  0  0  0
   23.3385  -20.3664   -8.9815 N   0  0  0  0  0  0  0  0  0  0  0  0
   26.6089  -19.2652  -15.9450 C   0  0  0  0  0  0  0  0  0  0  0  0
   26.9467  -18.2278  -15.0219 C   0  0  0  0  0  0  0  0  0  0  0  0
   28.4334  -18.3487  -14.8214 C   0  0  0  0  0  0  0  0  0  0  0  0
   28.9085  -18.7883  -16.1862 C   0  0  2  0  0  0  0  0  0  0  0  0
   27.8120  -19.7550  -16.5806 C   0  0  0  0  0  0  0  0  0  0  0  0
   28.2049  -21.0900  -16.0957 O   0  0  0  0  0  0  0  0  0  0  0  0
   29.2245  -21.7881  -16.6979 O   0  0  0  0  0  0  0  0  0  0  0  0
  1  2  1  0
  3  4  1  1
  3  2  1  0
  5  3  1  0
  6  5  2  0
  7  8  1  0
  8  9  2  0
  8 10  1  0
 10 11  1  0
 11 12  1  0
 14 13  1  6
 13 12  1  0
 14 15  1  0
 15  5  1  0
 16 18  1  0
 16 14  1  0
 17 16  2  0
 18 19  1  0
 20 19  1  0
 21 20  1  0
 22 18  1  0
 22 21  1  0
 22 23  1  1
 24 23  1  0
 25 23  2  0
M  END
$$$$
