GII.pdb
     RDKit          3D

 21 20  0  0  1  0  0  0  0  0999 V2000
   25.9423  -24.9698  -15.6058 N   0  0  0  0  0  0  0  0  0  0  0  0
   26.1124  -23.5662  -15.3018 C   0  0  0  0  0  0  0  0  0  0  0  0
   25.3155  -23.1621  -14.1137 C   0  0  0  0  0  0  0  0  0  0  0  0
   24.3854  -23.9043  -13.7084 O   0  0  0  0  0  0  0  0  0  0  0  0
   27.6236  -20.6165   -9.8286 C   0  0  0  0  0  0  0  0  0  0  0  0
   26.7742  -21.4762  -10.7277 C   0  0  0  0  0  0  0  0  0  0  0  0
   25.5150  -20.8137  -11.1971 C   0  0  2  0  0  0  0  0  0  0  0  0
   24.6307  -20.3575  -10.0865 C   0  0  0  0  0  0  0  0  0  0  0  0
   24.7671  -21.5298  -12.2763 C   0  0  2  0  0  0  0  0  0  0  0  0
   25.5476  -21.9636  -13.3957 N   0  0  0  0  0  0  0  0  0  0  0  0
   23.6955  -20.6055  -12.7579 C   0  0  0  0  0  0  0  0  0  0  0  0
   24.0205  -19.5441  -13.3868 O   0  0  0  0  0  0  0  0  0  0  0  0
   19.0849  -21.6843  -16.1303 C   0  0  0  0  0  0  0  0  0  0  0  0
   19.6854  -20.7033  -15.2034 C   0  0  0  0  0  0  0  0  0  0  0  0
   20.7936  -21.0761  -14.3232 C   0  0  2  0  0  0  0  0  0  0  0  0
   20.5189  -22.4301  -13.6282 C   0  0  0  0  0  0  0  0  0  0  0  0
   21.2788  -20.0787  -13.3265 C   0  0  2  0  0  0  0  0  0  0  0  0
   22.3244  -20.8512  -12.5493 N   0  0  0  0  0  0  0  0  0  0  0  0
   20.2651  -19.6306  -12.3848 C   0  0  0  0  0  0  0  0  0  0  0  0
   19.3984  -18.5832  -12.5570 O   0  0  0  0  0  0  0  0  0  0  0  0
   20.1486  -20.2504  -11.2678 O   0  0  0  0  0  0  0  0  0  0  0  0
  1  2  1  0
  2  3  1  0
  3 10  1  0
  4  3  2  0
  5  6  1  0
  7  8  1  1
  7  6  1  0
  9  7  1  0
  9 10  1  6
 11  9  1  0
 12 11  2  0
 13 14  1  0
 15 17  1  0
 15 14  1  0
 15 16  1  1
 17 18  1  1
 18 11  1  0
 19 17  1  0
 20 19  1  0
 21 19  2  0
M  END
$$$$
