GII.pdb
     RDKit          3D

 21 20  0  0  1  0  0  0  0  0999 V2000
   31.2789  -22.0878  -11.4754 N   0  0  0  0  0  0  0  0  0  0  0  0
   30.5087  -20.9189  -11.1122 C   0  0  0  0  0  0  0  0  0  0  0  0
   29.2470  -21.2878  -10.4181 C   0  0  0  0  0  0  0  0  0  0  0  0
   28.7132  -22.4018  -10.6509 O   0  0  0  0  0  0  0  0  0  0  0  0
   27.8552  -19.2862   -5.3903 C   0  0  0  0  0  0  0  0  0  0  0  0
   28.0573  -20.1704   -6.5928 C   0  0  0  0  0  0  0  0  0  0  0  0
   26.9936  -20.0336   -7.6391 C   0  0  2  0  0  0  0  0  0  0  0  0
   25.6226  -20.3416   -7.1402 C   0  0  0  0  0  0  0  0  0  0  0  0
   27.2896  -20.6789   -8.9554 C   0  0  2  0  0  0  0  0  0  0  0  0
   28.5965  -20.4391   -9.4892 N   0  0  0  0  0  0  0  0  0  0  0  0
   26.2675  -20.1854   -9.9281 C   0  0  0  0  0  0  0  0  0  0  0  0
   26.1631  -18.9324  -10.1446 O   0  0  0  0  0  0  0  0  0  0  0  0
   26.9580  -21.6187  -14.4826 C   0  0  0  0  0  0  0  0  0  0  0  0
   26.3532  -20.8899  -13.3490 C   0  0  0  0  0  0  0  0  0  0  0  0
   24.9707  -21.1417  -12.9405 C   0  0  2  0  0  0  0  0  0  0  0  0
   23.9899  -20.8717  -14.1053 C   0  0  0  0  0  0  0  0  0  0  0  0
   24.4689  -20.5019  -11.6905 C   0  0  2  0  0  0  0  0  0  0  0  0
   25.4007  -21.0470  -10.6282 N   0  0  0  0  0  0  0  0  0  0  0  0
   23.1117  -20.8783  -11.3278 C   0  0  0  0  0  0  0  0  0  0  0  0
   22.6797  -22.1298  -10.9741 O   0  0  0  0  0  0  0  0  0  0  0  0
   22.2011  -19.9749  -11.3374 O   0  0  0  0  0  0  0  0  0  0  0  0
  1  2  1  0
  2  3  1  0
  3 10  1  0
  4  3  2  0
  5  6  1  0
  7  8  1  1
  7  6  1  0
  9  7  1  0
  9 10  1  6
 11  9  1  0
 12 11  2  0
 13 14  1  0
 15 17  1  0
 15 14  1  0
 15 16  1  6
 17 18  1  1
 18 11  1  0
 19 17  1  0
 20 19  1  0
 21 19  2  0
M  END
$$$$
