GII.pdb
     RDKit          3D

 21 20  0  0  1  0  0  0  0  0999 V2000
   31.2079  -21.9169  -11.4202 N   0  0  0  0  0  0  0  0  0  0  0  0
   30.2702  -20.8506  -11.6946 C   0  0  0  0  0  0  0  0  0  0  0  0
   28.8786  -21.2418  -11.3480 C   0  0  0  0  0  0  0  0  0  0  0  0
   28.3898  -22.2929  -11.8340 O   0  0  0  0  0  0  0  0  0  0  0  0
   26.8095  -19.3905   -6.5914 C   0  0  0  0  0  0  0  0  0  0  0  0
   27.0402  -20.4167   -7.6697 C   0  0  0  0  0  0  0  0  0  0  0  0
   26.1747  -20.2386   -8.8796 C   0  0  2  0  0  0  0  0  0  0  0  0
   24.7408  -20.5712   -8.6420 C   0  0  0  0  0  0  0  0  0  0  0  0
   26.7033  -20.8266  -10.1492 C   0  0  2  0  0  0  0  0  0  0  0  0
   28.0526  -20.4829  -10.4830 N   0  0  0  0  0  0  0  0  0  0  0  0
   25.7989  -20.3792  -11.2522 C   0  0  0  0  0  0  0  0  0  0  0  0
   25.7476  -19.1412  -11.5562 O   0  0  0  0  0  0  0  0  0  0  0  0
   26.2539  -22.5312  -15.8102 C   0  0  0  0  0  0  0  0  0  0  0  0
   25.8222  -21.6241  -14.7272 C   0  0  0  0  0  0  0  0  0  0  0  0
   24.4405  -21.6279  -14.2446 C   0  0  2  0  0  0  0  0  0  0  0  0
   23.4464  -21.3965  -15.4064 C   0  0  0  0  0  0  0  0  0  0  0  0
   24.0872  -20.7562  -13.0876 C   0  0  2  0  0  0  0  0  0  0  0  0
   24.9885  -21.2690  -11.9838 N   0  0  0  0  0  0  0  0  0  0  0  0
   22.7110  -20.8884  -12.6360 C   0  0  0  0  0  0  0  0  0  0  0  0
   22.1946  -21.9105  -11.8833 O   0  0  0  0  0  0  0  0  0  0  0  0
   21.8676  -19.9793  -12.9640 O   0  0  0  0  0  0  0  0  0  0  0  0
  1  2  1  0
  2  3  1  0
  3 10  1  0
  4  3  2  0
  5  6  1  0
  7  8  1  1
  7  6  1  0
  9  7  1  0
  9 10  1  6
 11  9  1  0
 12 11  2  0
 13 14  1  0
 15 17  1  0
 15 14  1  0
 15 16  1  6
 17 18  1  1
 18 11  1  0
 19 17  1  0
 20 19  1  0
 21 19  2  0
M  END
$$$$
