GII.pdb
     RDKit          3D

 21 20  0  0  1  0  0  0  0  0999 V2000
   29.1967  -20.6964  -16.3728 N   0  0  0  0  0  0  0  0  0  0  0  0
   28.2500  -19.8819  -15.6436 C   0  0  0  0  0  0  0  0  0  0  0  0
   27.5339  -20.6698  -14.6062 C   0  0  0  0  0  0  0  0  0  0  0  0
   26.7953  -21.6261  -14.9528 O   0  0  0  0  0  0  0  0  0  0  0  0
   29.9205  -20.7920  -11.1333 C   0  0  0  0  0  0  0  0  0  0  0  0
   28.7804  -21.6656  -10.6794 C   0  0  0  0  0  0  0  0  0  0  0  0
   27.4292  -21.0361  -10.8300 C   0  0  2  0  0  0  0  0  0  0  0  0
   26.4495  -21.4701   -9.7931 C   0  0  0  0  0  0  0  0  0  0  0  0
   26.8556  -21.0506  -12.2111 C   0  0  2  0  0  0  0  0  0  0  0  0
   27.6372  -20.4005  -13.2195 N   0  0  0  0  0  0  0  0  0  0  0  0
   25.5131  -20.3972  -12.1379 C   0  0  0  0  0  0  0  0  0  0  0  0
   25.4382  -19.1462  -11.8985 O   0  0  0  0  0  0  0  0  0  0  0  0
   21.8574  -18.8985  -15.9542 C   0  0  0  0  0  0  0  0  0  0  0  0
   21.8874  -19.2831  -14.5283 C   0  0  0  0  0  0  0  0  0  0  0  0
   23.0223  -20.0179  -13.9680 C   0  0  2  0  0  0  0  0  0  0  0  0
   23.3346  -21.2797  -14.8059 C   0  0  0  0  0  0  0  0  0  0  0  0
   23.0039  -20.3593  -12.5166 C   0  0  2  0  0  0  0  0  0  0  0  0
   24.3087  -21.1035  -12.3226 N   0  0  0  0  0  0  0  0  0  0  0  0
   21.9218  -21.2482  -12.1237 C   0  0  0  0  0  0  0  0  0  0  0  0
   20.7067  -20.8762  -11.6110 O   0  0  0  0  0  0  0  0  0  0  0  0
   22.0912  -22.5134  -12.2489 O   0  0  0  0  0  0  0  0  0  0  0  0
  1  2  1  0
  2  3  1  0
  3 10  1  0
  4  3  2  0
  5  6  1  0
  7  8  1  1
  7  6  1  0
  9  7  1  0
  9 10  1  6
 11  9  1  0
 12 11  2  0
 13 14  1  0
 15 17  1  0
 15 14  1  0
 15 16  1  6
 17 18  1  6
 18 11  1  0
 19 17  1  0
 20 19  1  0
 21 19  2  0
M  END
$$$$
