GII.pdb
     RDKit          3D

 21 20  0  0  1  0  0  0  0  0999 V2000
   29.4125  -22.6549  -16.6782 N   0  0  0  0  0  0  0  0  0  0  0  0
   27.9912  -22.5788  -16.4221 C   0  0  0  0  0  0  0  0  0  0  0  0
   27.6709  -21.5334  -15.4149 C   0  0  0  0  0  0  0  0  0  0  0  0
   28.0698  -20.3550  -15.5949 O   0  0  0  0  0  0  0  0  0  0  0  0
   22.6173  -19.2583  -14.3771 C   0  0  0  0  0  0  0  0  0  0  0  0
   23.8949  -19.5394  -13.6302 C   0  0  0  0  0  0  0  0  0  0  0  0
   24.7591  -20.5845  -14.2671 C   0  0  2  0  0  0  0  0  0  0  0  0
   24.0285  -21.8405  -14.6016 C   0  0  0  0  0  0  0  0  0  0  0  0
   26.0721  -20.8386  -13.5976 C   0  0  2  0  0  0  0  0  0  0  0  0
   26.9262  -21.7927  -14.2384 N   0  0  0  0  0  0  0  0  0  0  0  0
   25.7757  -21.3049  -12.2086 C   0  0  0  0  0  0  0  0  0  0  0  0
   25.3676  -22.4994  -12.0231 O   0  0  0  0  0  0  0  0  0  0  0  0
   27.7021  -19.7010   -6.5718 C   0  0  0  0  0  0  0  0  0  0  0  0
   26.8537  -20.5352   -7.4473 C   0  0  0  0  0  0  0  0  0  0  0  0
   26.7149  -20.2352   -8.8729 C   0  0  2  0  0  0  0  0  0  0  0  0
   26.4494  -18.7286   -9.0997 C   0  0  0  0  0  0  0  0  0  0  0  0
   25.7647  -21.0498   -9.6836 C   0  0  2  0  0  0  0  0  0  0  0  0
   25.9266  -20.4796  -11.0774 N   0  0  0  0  0  0  0  0  0  0  0  0
   24.3696  -20.9002   -9.3008 C   0  0  0  0  0  0  0  0  0  0  0  0
   23.6973  -21.6409   -8.3641 O   0  0  0  0  0  0  0  0  0  0  0  0
   23.6665  -19.9999   -9.8841 O   0  0  0  0  0  0  0  0  0  0  0  0
  1  2  1  0
  2  3  1  0
  3 10  1  0
  4  3  2  0
  5  6  1  0
  7  8  1  1
  7  6  1  0
  9  7  1  0
  9 10  1  6
 11  9  1  0
 12 11  2  0
 13 14  1  0
 15 17  1  0
 15 14  1  0
 15 16  1  1
 17 18  1  6
 18 11  1  0
 19 17  1  0
 20 19  1  0
 21 19  2  0
M  END
$$$$
