GII.pdb
     RDKit          3D

 21 20  0  0  1  0  0  0  0  0999 V2000
   18.8072  -14.2948  -18.6915 N   0  0  0  0  0  0  0  0  0  0  0  0
   19.0597  -12.8887  -18.9164 C   0  0  0  0  0  0  0  0  0  0  0  0
   19.5171  -12.2087  -17.6762 C   0  0  0  0  0  0  0  0  0  0  0  0
   18.7354  -12.1123  -16.6965 O   0  0  0  0  0  0  0  0  0  0  0  0
   24.5350  -12.7449  -15.4892 C   0  0  0  0  0  0  0  0  0  0  0  0
   23.0649  -12.5537  -15.7558 C   0  0  0  0  0  0  0  0  0  0  0  0
   22.6608  -11.1257  -15.9619 C   0  0  2  0  0  0  0  0  0  0  0  0
   23.0785  -10.2211  -14.8527 C   0  0  0  0  0  0  0  0  0  0  0  0
   21.2435  -10.9060  -16.3862 C   0  0  2  0  0  0  0  0  0  0  0  0
   20.8108  -11.6509  -17.5300 N   0  0  0  0  0  0  0  0  0  0  0  0
   21.0889   -9.4461  -16.6679 C   0  0  0  0  0  0  0  0  0  0  0  0
   21.7256   -8.9261  -17.6437 O   0  0  0  0  0  0  0  0  0  0  0  0
   16.6871   -7.1402  -17.7583 C   0  0  0  0  0  0  0  0  0  0  0  0
   18.1501   -7.2444  -17.5824 C   0  0  0  0  0  0  0  0  0  0  0  0
   18.7936   -6.8180  -16.3391 C   0  0  2  0  0  0  0  0  0  0  0  0
   18.5109   -5.3250  -16.0517 C   0  0  0  0  0  0  0  0  0  0  0  0
   20.2437   -7.1096  -16.1506 C   0  0  2  0  0  0  0  0  0  0  0  0
   20.2635   -8.6030  -15.8988 N   0  0  0  0  0  0  0  0  0  0  0  0
   20.8414   -6.4559  -14.9971 C   0  0  0  0  0  0  0  0  0  0  0  0
   20.8233   -6.9080  -13.7036 O   0  0  0  0  0  0  0  0  0  0  0  0
   21.4469   -5.3385  -15.1706 O   0  0  0  0  0  0  0  0  0  0  0  0
  1  2  1  0
  2  3  1  0
  3 10  1  0
  4  3  2  0
  5  6  1  0
  7  8  1  1
  7  6  1  0
  9  7  1  0
  9 10  1  6
 11  9  1  0
 12 11  2  0
 13 14  1  0
 15 17  1  0
 15 14  1  0
 15 16  1  6
 17 18  1  1
 18 11  1  0
 19 17  1  0
 20 19  1  0
 21 19  2  0
M  END
$$$$
