GII.pdb
     RDKit          3D

 21 20  0  0  1  0  0  0  0  0999 V2000
   21.3891   -9.9544  -21.3293 N   0  0  0  0  0  0  0  0  0  0  0  0
   21.9433   -9.9289  -19.9937 C   0  0  0  0  0  0  0  0  0  0  0  0
   20.8913   -9.7032  -18.9679 C   0  0  0  0  0  0  0  0  0  0  0  0
   20.1835   -8.6659  -19.0223 O   0  0  0  0  0  0  0  0  0  0  0  0
   17.9667  -13.7988  -16.6290 C   0  0  0  0  0  0  0  0  0  0  0  0
   18.3330  -12.4522  -17.1960 C   0  0  0  0  0  0  0  0  0  0  0  0
   19.0679  -11.5643  -16.2388 C   0  0  2  0  0  0  0  0  0  0  0  0
   18.2954  -11.2502  -15.0027 C   0  0  0  0  0  0  0  0  0  0  0  0
   19.7168  -10.3577  -16.8387 C   0  0  2  0  0  0  0  0  0  0  0  0
   20.6339  -10.6084  -17.9094 N   0  0  0  0  0  0  0  0  0  0  0  0
   20.4362   -9.6498  -15.7360 C   0  0  0  0  0  0  0  0  0  0  0  0
   21.4103  -10.2298  -15.1508 O   0  0  0  0  0  0  0  0  0  0  0  0
   22.5303   -4.2011  -14.4221 C   0  0  0  0  0  0  0  0  0  0  0  0
   22.0412   -5.4904  -13.8923 C   0  0  0  0  0  0  0  0  0  0  0  0
   21.3730   -6.4595  -14.7618 C   0  0  2  0  0  0  0  0  0  0  0  0
   20.2918   -5.7737  -15.6292 C   0  0  0  0  0  0  0  0  0  0  0  0
   20.8254   -7.7053  -14.1522 C   0  0  2  0  0  0  0  0  0  0  0  0
   20.0876   -8.3553  -15.3042 N   0  0  0  0  0  0  0  0  0  0  0  0
   19.8674   -7.4777  -13.0818 C   0  0  0  0  0  0  0  0  0  0  0  0
   20.1269   -7.5030  -11.7365 O   0  0  0  0  0  0  0  0  0  0  0  0
   18.6469   -7.2343  -13.3924 O   0  0  0  0  0  0  0  0  0  0  0  0
  1  2  1  0
  2  3  1  0
  3 10  1  0
  4  3  2  0
  5  6  1  0
  7  8  1  1
  7  6  1  0
  9  7  1  0
  9 10  1  6
 11  9  1  0
 12 11  2  0
 13 14  1  0
 15 17  1  0
 15 14  1  0
 15 16  1  1
 17 18  1  6
 18 11  1  0
 19 17  1  0
 20 19  1  0
 21 19  2  0
M  END
$$$$
