GII.pdb
     RDKit          3D

 21 20  0  0  1  0  0  0  0  0999 V2000
   28.8164  -21.7821  -15.6845 N   0  0  0  0  0  0  0  0  0  0  0  0
   28.1888  -20.7199  -14.9301 C   0  0  0  0  0  0  0  0  0  0  0  0
   26.9696  -21.1950  -14.2246 C   0  0  0  0  0  0  0  0  0  0  0  0
   26.3664  -22.2144  -14.6454 O   0  0  0  0  0  0  0  0  0  0  0  0
   26.4005  -20.3091   -8.7381 C   0  0  0  0  0  0  0  0  0  0  0  0
   26.4023  -20.9385  -10.1066 C   0  0  0  0  0  0  0  0  0  0  0  0
   25.1957  -20.6114  -10.9324 C   0  0  2  0  0  0  0  0  0  0  0  0
   23.9091  -21.0124  -10.2944 C   0  0  0  0  0  0  0  0  0  0  0  0
   25.2717  -20.9969  -12.3755 C   0  0  2  0  0  0  0  0  0  0  0  0
   26.4359  -20.5524  -13.0808 N   0  0  0  0  0  0  0  0  0  0  0  0
   24.0550  -20.4430  -13.0445 C   0  0  0  0  0  0  0  0  0  0  0  0
   23.9048  -19.1784  -13.1227 O   0  0  0  0  0  0  0  0  0  0  0  0
   20.7829  -19.7333  -17.3180 C   0  0  0  0  0  0  0  0  0  0  0  0
   20.8787  -21.0446  -16.6446 C   0  0  0  0  0  0  0  0  0  0  0  0
   21.9399  -21.3201  -15.6753 C   0  0  2  0  0  0  0  0  0  0  0  0
   22.1373  -22.8423  -15.4862 C   0  0  0  0  0  0  0  0  0  0  0  0
   21.8867  -20.6425  -14.3481 C   0  0  2  0  0  0  0  0  0  0  0  0
   23.0511  -21.2590  -13.6011 N   0  0  0  0  0  0  0  0  0  0  0  0
   20.6771  -20.9108  -13.5864 C   0  0  0  0  0  0  0  0  0  0  0  0
   20.4655  -21.9653  -12.7371 O   0  0  0  0  0  0  0  0  0  0  0  0
   19.6865  -20.1044  -13.7039 O   0  0  0  0  0  0  0  0  0  0  0  0
  1  2  1  0
  2  3  1  0
  3 10  1  0
  4  3  2  0
  5  6  1  0
  7  8  1  1
  7  6  1  0
  9  7  1  0
  9 10  1  6
 11  9  1  0
 12 11  2  0
 13 14  1  0
 15 17  1  0
 15 14  1  0
 15 16  1  1
 17 18  1  1
 18 11  1  0
 19 17  1  0
 20 19  1  0
 21 19  2  0
M  END
$$$$
