GII.pdb
     RDKit          3D

 21 20  0  0  1  0  0  0  0  0999 V2000
   18.0880  -11.0828  -16.7186 N   0  0  0  0  0  0  0  0  0  0  0  0
   18.1208   -9.6895  -16.3325 C   0  0  0  0  0  0  0  0  0  0  0  0
   18.5904   -9.5196  -14.9324 C   0  0  0  0  0  0  0  0  0  0  0  0
   18.2258  -10.3390  -14.0516 O   0  0  0  0  0  0  0  0  0  0  0  0
   22.2955  -10.2306  -12.9312 C   0  0  0  0  0  0  0  0  0  0  0  0
   22.2489   -8.8738  -13.5837 C   0  0  0  0  0  0  0  0  0  0  0  0
   21.2820   -7.9218  -12.9483 C   0  0  2  0  0  0  0  0  0  0  0  0
   21.5987   -7.6108  -11.5248 C   0  0  0  0  0  0  0  0  0  0  0  0
   19.8337   -8.2238  -13.1670 C   0  0  2  0  0  0  0  0  0  0  0  0
   19.4434   -8.4655  -14.5234 N   0  0  0  0  0  0  0  0  0  0  0  0
   19.0561   -7.0631  -12.6352 C   0  0  0  0  0  0  0  0  0  0  0  0
   19.3123   -5.8891  -13.0638 O   0  0  0  0  0  0  0  0  0  0  0  0
   14.1044   -6.5970  -13.2671 C   0  0  0  0  0  0  0  0  0  0  0  0
   15.4660   -6.1927  -12.8612 C   0  0  0  0  0  0  0  0  0  0  0  0
   15.8901   -6.2659  -11.4624 C   0  0  2  0  0  0  0  0  0  0  0  0
   14.9612   -5.4246  -10.5562 C   0  0  0  0  0  0  0  0  0  0  0  0
   17.3171   -5.9839  -11.1345 C   0  0  2  0  0  0  0  0  0  0  0  0
   18.0396   -7.2025  -11.6704 N   0  0  0  0  0  0  0  0  0  0  0  0
   17.5976   -5.8908   -9.7104 C   0  0  0  0  0  0  0  0  0  0  0  0
   17.6216   -4.7461   -8.9574 O   0  0  0  0  0  0  0  0  0  0  0  0
   17.8610   -6.9676   -9.0653 O   0  0  0  0  0  0  0  0  0  0  0  0
  1  2  1  0
  2  3  1  0
  3 10  1  0
  4  3  2  0
  5  6  1  0
  7  8  1  1
  7  6  1  0
  9  7  1  0
  9 10  1  6
 11  9  1  0
 12 11  2  0
 13 14  1  0
 15 17  1  0
 15 14  1  0
 15 16  1  1
 17 18  1  1
 18 11  1  0
 19 17  1  0
 20 19  1  0
 21 19  2  0
M  END
$$$$
