GII.pdb
     RDKit          3D

 21 20  0  0  1  0  0  0  0  0999 V2000
   26.6715  -16.1236  -15.5131 N   0  0  0  0  0  0  0  0  0  0  0  0
   27.3777  -17.0658  -14.6733 C   0  0  0  0  0  0  0  0  0  0  0  0
   26.4395  -17.9259  -13.9054 C   0  0  0  0  0  0  0  0  0  0  0  0
   25.3703  -17.4362  -13.4615 O   0  0  0  0  0  0  0  0  0  0  0  0
   24.4458  -22.5414  -15.6595 C   0  0  0  0  0  0  0  0  0  0  0  0
   24.8103  -21.2455  -14.9837 C   0  0  0  0  0  0  0  0  0  0  0  0
   25.3911  -21.4122  -13.6127 C   0  0  2  0  0  0  0  0  0  0  0  0
   24.6043  -22.3288  -12.7385 C   0  0  0  0  0  0  0  0  0  0  0  0
   25.7900  -20.1494  -12.9177 C   0  0  2  0  0  0  0  0  0  0  0  0
   26.6849  -19.2951  -13.6385 N   0  0  0  0  0  0  0  0  0  0  0  0
   26.4263  -20.5409  -11.6229 C   0  0  0  0  0  0  0  0  0  0  0  0
   27.5181  -21.2008  -11.6364 O   0  0  0  0  0  0  0  0  0  0  0  0
   28.2680  -18.8470   -6.3132 C   0  0  0  0  0  0  0  0  0  0  0  0
   27.6622  -19.9490   -7.0882 C   0  0  0  0  0  0  0  0  0  0  0  0
   27.0221  -19.7007   -8.3806 C   0  0  2  0  0  0  0  0  0  0  0  0
   26.0130  -18.5327   -8.2847 C   0  0  0  0  0  0  0  0  0  0  0  0
   26.4068  -20.8503   -9.1040 C   0  0  2  0  0  0  0  0  0  0  0  0
   25.8729  -20.2129  -10.3700 N   0  0  0  0  0  0  0  0  0  0  0  0
   25.2870  -21.4654   -8.4090 C   0  0  0  0  0  0  0  0  0  0  0  0
   25.3574  -22.4654   -7.4747 O   0  0  0  0  0  0  0  0  0  0  0  0
   24.1002  -21.0611   -8.6794 O   0  0  0  0  0  0  0  0  0  0  0  0
  1  2  1  0
  2  3  1  0
  3 10  1  0
  4  3  2  0
  5  6  1  0
  7  8  1  1
  7  6  1  0
  9  7  1  0
  9 10  1  6
 11  9  1  0
 12 11  2  0
 13 14  1  0
 15 17  1  0
 15 14  1  0
 15 16  1  1
 17 18  1  6
 18 11  1  0
 19 17  1  0
 20 19  1  0
 21 19  2  0
M  END
$$$$
