GII.pdb
     RDKit          3D

 21 20  0  0  1  0  0  0  0  0999 V2000
   28.4164  -22.1962  -15.7953 N   0  0  0  0  0  0  0  0  0  0  0  0
   27.9290  -21.0392  -15.0775 C   0  0  0  0  0  0  0  0  0  0  0  0
   26.7381  -21.3686  -14.2509 C   0  0  0  0  0  0  0  0  0  0  0  0
   26.0267  -22.3596  -14.5542 O   0  0  0  0  0  0  0  0  0  0  0  0
   26.6961  -20.3892   -8.7840 C   0  0  0  0  0  0  0  0  0  0  0  0
   26.5324  -20.9682  -10.1649 C   0  0  0  0  0  0  0  0  0  0  0  0
   25.2915  -20.5186  -10.8741 C   0  0  2  0  0  0  0  0  0  0  0  0
   24.0372  -20.7991  -10.1182 C   0  0  0  0  0  0  0  0  0  0  0  0
   25.1948  -20.8966  -12.3179 C   0  0  2  0  0  0  0  0  0  0  0  0
   26.3493  -20.6148  -13.1166 N   0  0  0  0  0  0  0  0  0  0  0  0
   24.0191  -20.1691  -12.8863 C   0  0  0  0  0  0  0  0  0  0  0  0
   23.9822  -18.8952  -12.8254 O   0  0  0  0  0  0  0  0  0  0  0  0
   23.0778  -20.4674  -17.6874 C   0  0  0  0  0  0  0  0  0  0  0  0
   22.9564  -20.0443  -16.2773 C   0  0  0  0  0  0  0  0  0  0  0  0
   21.7685  -20.3754  -15.4891 C   0  0  2  0  0  0  0  0  0  0  0  0
   20.4861  -19.8373  -16.1654 C   0  0  0  0  0  0  0  0  0  0  0  0
   21.7605  -20.0390  -14.0364 C   0  0  2  0  0  0  0  0  0  0  0  0
   22.9338  -20.8290  -13.4948 N   0  0  0  0  0  0  0  0  0  0  0  0
   20.5668  -20.4726  -13.3275 C   0  0  0  0  0  0  0  0  0  0  0  0
   20.2407  -21.7606  -12.9917 O   0  0  0  0  0  0  0  0  0  0  0  0
   19.7082  -19.5879  -12.9736 O   0  0  0  0  0  0  0  0  0  0  0  0
  1  2  1  0
  2  3  1  0
  3 10  1  0
  4  3  2  0
  5  6  1  0
  7  8  1  1
  7  6  1  0
  9  7  1  0
  9 10  1  6
 11  9  1  0
 12 11  2  0
 13 14  1  0
 15 17  1  0
 15 14  1  0
 15 16  1  6
 17 18  1  1
 18 11  1  0
 19 17  1  0
 20 19  1  0
 21 19  2  0
M  END
$$$$
