GII.pdb
     RDKit          3D

 21 20  0  0  1  0  0  0  0  0999 V2000
   14.7897  -13.0444  -13.4283 N   0  0  0  0  0  0  0  0  0  0  0  0
   15.1940  -12.6548  -12.0955 C   0  0  0  0  0  0  0  0  0  0  0  0
   15.0016  -11.1985  -11.8680 C   0  0  0  0  0  0  0  0  0  0  0  0
   14.7175  -10.4508  -12.8378 O   0  0  0  0  0  0  0  0  0  0  0  0
   11.8485   -9.3101   -7.9839 C   0  0  0  0  0  0  0  0  0  0  0  0
   12.6612   -9.5170   -9.2352 C   0  0  0  0  0  0  0  0  0  0  0  0
   14.0084   -8.8618   -9.2055 C   0  0  2  0  0  0  0  0  0  0  0  0
   13.9549   -7.3998   -8.9174 C   0  0  0  0  0  0  0  0  0  0  0  0
   14.9185   -9.1950  -10.3445 C   0  0  2  0  0  0  0  0  0  0  0  0
   15.1221  -10.5902  -10.5946 N   0  0  0  0  0  0  0  0  0  0  0  0
   16.2377   -8.5535  -10.0570 C   0  0  0  0  0  0  0  0  0  0  0  0
   16.9543   -8.9979   -9.0995 O   0  0  0  0  0  0  0  0  0  0  0  0
   21.4551   -7.2917  -11.8296 C   0  0  0  0  0  0  0  0  0  0  0  0
   20.2412   -6.4670  -11.6612 C   0  0  0  0  0  0  0  0  0  0  0  0
   18.9130   -7.0795  -11.6108 C   0  0  2  0  0  0  0  0  0  0  0  0
   18.1236   -6.8005  -12.9110 C   0  0  0  0  0  0  0  0  0  0  0  0
   18.0513   -6.8162  -10.4227 C   0  0  2  0  0  0  0  0  0  0  0  0
   16.7370   -7.4669  -10.8011 N   0  0  0  0  0  0  0  0  0  0  0  0
   17.7938   -5.4073  -10.1696 C   0  0  0  0  0  0  0  0  0  0  0  0
   18.2926   -4.6605   -9.1346 O   0  0  0  0  0  0  0  0  0  0  0  0
   17.0202   -4.7714  -10.9711 O   0  0  0  0  0  0  0  0  0  0  0  0
  1  2  1  0
  2  3  1  0
  3 10  1  0
  4  3  2  0
  5  6  1  0
  7  8  1  6
  7  6  1  0
  9  7  1  0
  9 10  1  1
 11  9  1  0
 12 11  2  0
 13 14  1  0
 15 17  1  0
 15 14  1  0
 15 16  1  6
 17 18  1  6
 18 11  1  0
 19 17  1  0
 20 19  1  0
 21 19  2  0
M  END
$$$$
