GII.pdb
     RDKit          3D

 21 20  0  0  1  0  0  0  0  0999 V2000
   16.5984  -11.1308  -14.0295 N   0  0  0  0  0  0  0  0  0  0  0  0
   17.0283  -10.5552  -12.7743 C   0  0  0  0  0  0  0  0  0  0  0  0
   16.0301   -9.5900  -12.2435 C   0  0  0  0  0  0  0  0  0  0  0  0
   15.4694   -8.7828  -13.0272 O   0  0  0  0  0  0  0  0  0  0  0  0
   12.2999  -10.9866   -8.4958 C   0  0  0  0  0  0  0  0  0  0  0  0
   13.0447  -10.3613   -9.6461 C   0  0  0  0  0  0  0  0  0  0  0  0
   13.8073   -9.1242   -9.2815 C   0  0  2  0  0  0  0  0  0  0  0  0
   12.9629   -8.0639   -8.6603 C   0  0  0  0  0  0  0  0  0  0  0  0
   14.7239   -8.5912  -10.3362 C   0  0  2  0  0  0  0  0  0  0  0  0
   15.6655   -9.5250  -10.8764 N   0  0  0  0  0  0  0  0  0  0  0  0
   15.4671   -7.4420   -9.7348 C   0  0  0  0  0  0  0  0  0  0  0  0
   16.4141   -7.6715   -8.9111 O   0  0  0  0  0  0  0  0  0  0  0  0
   17.4651   -2.0089  -11.4171 C   0  0  0  0  0  0  0  0  0  0  0  0
   17.0330   -2.8711  -10.2981 C   0  0  0  0  0  0  0  0  0  0  0  0
   16.4569   -4.1940  -10.5429 C   0  0  2  0  0  0  0  0  0  0  0  0
   15.3844   -4.1350  -11.6555 C   0  0  0  0  0  0  0  0  0  0  0  0
   15.9454   -4.9750   -9.3801 C   0  0  2  0  0  0  0  0  0  0  0  0
   15.1701   -6.0986  -10.0360 N   0  0  0  0  0  0  0  0  0  0  0  0
   15.0272   -4.2417   -8.5231 C   0  0  0  0  0  0  0  0  0  0  0  0
   15.3435   -3.5846   -7.3629 O   0  0  0  0  0  0  0  0  0  0  0  0
   13.7884   -4.1916   -8.8521 O   0  0  0  0  0  0  0  0  0  0  0  0
  1  2  1  0
  2  3  1  0
  3 10  1  0
  4  3  2  0
  5  6  1  0
  7  8  1  6
  7  6  1  0
  9  7  1  0
  9 10  1  1
 11  9  1  0
 12 11  2  0
 13 14  1  0
 15 17  1  0
 15 14  1  0
 15 16  1  6
 17 18  1  6
 18 11  1  0
 19 17  1  0
 20 19  1  0
 21 19  2  0
M  END
$$$$
