PAG.pdb
     RDKit          3D

 17 17  0  0  1  0  0  0  0  0999 V2000
   20.0955  -12.2461  -17.1799 N   0  0  0  0  0  0  0  0  0  0  0  0
   19.3913  -13.5242  -17.0024 C   0  0  0  0  0  0  0  0  0  0  0  0
   18.9954  -13.4352  -15.5432 C   0  0  0  0  0  0  0  0  0  0  0  0
   18.8256  -11.9402  -15.2650 C   0  0  0  0  0  0  0  0  0  0  0  0
   19.1508  -11.3282  -16.5905 C   0  0  1  0  0  0  0  0  0  0  0  0
   19.7097   -9.9554  -16.4729 C   0  0  0  0  0  0  0  0  0  0  0  0
   20.9292   -9.7399  -16.3457 O   0  0  0  0  0  0  0  0  0  0  0  0
   18.0588   -6.5975  -16.7877 C   0  0  0  0  0  0  0  0  0  0  0  0
   19.2597   -7.4694  -16.3991 C   0  0  2  0  0  0  0  0  0  0  0  0
   18.8427   -8.8278  -16.5037 N   0  0  0  0  0  0  0  0  0  0  0  0
   19.7782   -7.1044  -15.0650 C   0  0  0  0  0  0  0  0  0  0  0  0
   19.3625   -7.7411  -14.0615 O   0  0  0  0  0  0  0  0  0  0  0  0
   20.7207   -6.0756  -14.8427 N   0  0  0  0  0  0  0  0  0  0  0  0
   21.3061   -5.7969  -13.5447 C   0  0  0  0  0  0  0  0  0  0  0  0
   22.1594   -4.6061  -13.6788 C   0  0  0  0  0  0  0  0  0  0  0  0
   23.3974   -4.7224  -13.5767 O   0  0  0  0  0  0  0  0  0  0  0  0
   21.6109   -3.3695  -13.9146 O   0  0  0  0  0  0  0  0  0  0  0  0
  1  2  1  0
  1  5  1  0
  2  3  1  0
  3  4  1  0
  5  6  1  1
  5  4  1  0
  6  7  2  0
  9  8  1  1
 10  9  1  0
 10  6  1  0
 11  9  1  0
 12 11  2  0
 13 11  1  0
 14 13  1  0
 15 17  1  0
 15 14  1  0
 16 15  2  0
M  END
$$$$
