PAG.pdb
     RDKit          3D

 17 17  0  0  1  0  0  0  0  0999 V2000
   18.6206  -11.1271  -17.4701 N   0  0  0  0  0  0  0  0  0  0  0  0
   18.1809  -11.0882  -18.8722 C   0  0  0  0  0  0  0  0  0  0  0  0
   18.0358   -9.5961  -19.0878 C   0  0  0  0  0  0  0  0  0  0  0  0
   19.0597   -8.9546  -18.1489 C   0  0  0  0  0  0  0  0  0  0  0  0
   19.6777  -10.1449  -17.4867 C   0  0  1  0  0  0  0  0  0  0  0  0
   20.1832   -9.8498  -16.1200 C   0  0  0  0  0  0  0  0  0  0  0  0
   19.4255   -9.7311  -15.1393 O   0  0  0  0  0  0  0  0  0  0  0  0
   23.4645  -10.2848  -14.5669 C   0  0  0  0  0  0  0  0  0  0  0  0
   22.1828   -9.4440  -14.6284 C   0  0  2  0  0  0  0  0  0  0  0  0
   21.5790   -9.6921  -15.8949 N   0  0  0  0  0  0  0  0  0  0  0  0
   22.4644   -8.0172  -14.3697 C   0  0  0  0  0  0  0  0  0  0  0  0
   22.9909   -7.6958  -13.2720 O   0  0  0  0  0  0  0  0  0  0  0  0
   22.1770   -6.9808  -15.2859 N   0  0  0  0  0  0  0  0  0  0  0  0
   22.5344   -5.5931  -15.0583 C   0  0  0  0  0  0  0  0  0  0  0  0
   21.4785   -4.9824  -14.2361 C   0  0  0  0  0  0  0  0  0  0  0  0
   21.7553   -4.5579  -13.0960 O   0  0  0  0  0  0  0  0  0  0  0  0
   20.1932   -4.8737  -14.7072 O   0  0  0  0  0  0  0  0  0  0  0  0
  1  2  1  0
  1  5  1  0
  2  3  1  0
  3  4  1  0
  5  6  1  1
  5  4  1  0
  6  7  2  0
  9  8  1  6
 10  9  1  0
 10  6  1  0
 11  9  1  0
 12 11  2  0
 13 11  1  0
 14 13  1  0
 15 17  1  0
 15 14  1  0
 16 15  2  0
M  END
$$$$
