PAG.pdb
     RDKit          3D

 17 17  0  0  1  0  0  0  0  0999 V2000
   31.5011  -24.9382  -15.5394 N   0  0  0  0  0  0  0  0  0  0  0  0
   32.9362  -24.9410  -15.2210 C   0  0  0  0  0  0  0  0  0  0  0  0
   33.5017  -25.6318  -16.4444 C   0  0  0  0  0  0  0  0  0  0  0  0
   32.5412  -25.2803  -17.5825 C   0  0  0  0  0  0  0  0  0  0  0  0
   31.5209  -24.4330  -16.8910 C   0  0  1  0  0  0  0  0  0  0  0  0
   30.1803  -24.5037  -17.5301 C   0  0  0  0  0  0  0  0  0  0  0  0
   29.9732  -24.1083  -18.6922 O   0  0  0  0  0  0  0  0  0  0  0  0
   27.1341  -26.4115  -16.6872 C   0  0  0  0  0  0  0  0  0  0  0  0
   27.7472  -25.1528  -17.3142 C   0  0  2  0  0  0  0  0  0  0  0  0
   29.0752  -25.0380  -16.8109 N   0  0  0  0  0  0  0  0  0  0  0  0
   26.9075  -23.9641  -17.0615 C   0  0  0  0  0  0  0  0  0  0  0  0
   25.8537  -24.1026  -16.3864 O   0  0  0  0  0  0  0  0  0  0  0  0
   27.2159  -22.6691  -17.5346 N   0  0  0  0  0  0  0  0  0  0  0  0
   26.5101  -21.4751  -17.1086 C   0  0  0  0  0  0  0  0  0  0  0  0
   27.1636  -20.3151  -17.7341 C   0  0  0  0  0  0  0  0  0  0  0  0
   26.4729  -19.4798  -18.3522 O   0  0  0  0  0  0  0  0  0  0  0  0
   28.5227  -20.1401  -17.6465 O   0  0  0  0  0  0  0  0  0  0  0  0
  1  2  1  0
  1  5  1  0
  2  3  1  0
  3  4  1  0
  5  6  1  6
  5  4  1  0
  6  7  2  0
  9  8  1  1
 10  9  1  0
 10  6  1  0
 11  9  1  0
 12 11  2  0
 13 11  1  0
 14 13  1  0
 15 17  1  0
 15 14  1  0
 16 15  2  0
M  END
$$$$
