PAG.pdb
     RDKit          3D

 17 17  0  0  1  0  0  0  0  0999 V2000
   20.3507  -11.6763  -18.5653 N   0  0  0  0  0  0  0  0  0  0  0  0
   19.4396  -12.3359  -19.5117 C   0  0  0  0  0  0  0  0  0  0  0  0
   18.9442  -13.4963  -18.6740 C   0  0  0  0  0  0  0  0  0  0  0  0
   18.9923  -12.9960  -17.2288 C   0  0  0  0  0  0  0  0  0  0  0  0
   19.5190  -11.6052  -17.3881 C   0  0  1  0  0  0  0  0  0  0  0  0
   20.2778  -11.1337  -16.1996 C   0  0  0  0  0  0  0  0  0  0  0  0
   19.7299  -10.9055  -15.1053 O   0  0  0  0  0  0  0  0  0  0  0  0
   23.8976  -11.1533  -15.4426 C   0  0  0  0  0  0  0  0  0  0  0  0
   22.5204  -10.5194  -15.2088 C   0  0  2  0  0  0  0  0  0  0  0  0
   21.6827  -10.9271  -16.2868 N   0  0  0  0  0  0  0  0  0  0  0  0
   22.6238   -9.0540  -15.0535 C   0  0  0  0  0  0  0  0  0  0  0  0
   23.3970   -8.5940  -14.1727 O   0  0  0  0  0  0  0  0  0  0  0  0
   21.9022   -8.1276  -15.8392 N   0  0  0  0  0  0  0  0  0  0  0  0
   22.1462   -6.6976  -15.8116 C   0  0  0  0  0  0  0  0  0  0  0  0
   21.4974   -6.1505  -14.6100 C   0  0  0  0  0  0  0  0  0  0  0  0
   21.5957   -4.9322  -14.3591 O   0  0  0  0  0  0  0  0  0  0  0  0
   20.7859   -6.9629  -13.7619 O   0  0  0  0  0  0  0  0  0  0  0  0
  1  2  1  0
  1  5  1  0
  2  3  1  0
  3  4  1  0
  5  6  1  1
  5  4  1  0
  6  7  2  0
  9  8  1  6
 10  9  1  0
 10  6  1  0
 11  9  1  0
 12 11  2  0
 13 11  1  0
 14 13  1  0
 15 17  1  0
 15 14  1  0
 16 15  2  0
M  END
$$$$
