PAG.pdb
     RDKit          3D

 17 17  0  0  1  0  0  0  0  0999 V2000
   26.2537  -20.4136  -15.5132 N   0  0  0  0  0  0  0  0  0  0  0  0
   27.3228  -21.3346  -15.1013 C   0  0  0  0  0  0  0  0  0  0  0  0
   28.5393  -20.4424  -15.2345 C   0  0  0  0  0  0  0  0  0  0  0  0
   28.0277  -19.0254  -14.9667 C   0  0  0  0  0  0  0  0  0  0  0  0
   26.5705  -19.2522  -14.7175 C   0  0  1  0  0  0  0  0  0  0  0  0
   25.7311  -18.0813  -15.0851 C   0  0  0  0  0  0  0  0  0  0  0  0
   25.7928  -16.9980  -14.4749 O   0  0  0  0  0  0  0  0  0  0  0  0
   24.3359  -16.6707  -17.9533 C   0  0  0  0  0  0  0  0  0  0  0  0
   23.9032  -17.1514  -16.5623 C   0  0  2  0  0  0  0  0  0  0  0  0
   24.8149  -18.1735  -16.1696 N   0  0  0  0  0  0  0  0  0  0  0  0
   22.4890  -17.5782  -16.5581 C   0  0  0  0  0  0  0  0  0  0  0  0
   21.6116  -16.7619  -16.9444 O   0  0  0  0  0  0  0  0  0  0  0  0
   22.0554  -18.8574  -16.1437 N   0  0  0  0  0  0  0  0  0  0  0  0
   20.6643  -19.1862  -15.8948 C   0  0  0  0  0  0  0  0  0  0  0  0
   20.5240  -19.5109  -14.4669 C   0  0  0  0  0  0  0  0  0  0  0  0
   19.4408  -19.2878  -13.8893 O   0  0  0  0  0  0  0  0  0  0  0  0
   21.5692  -20.0560  -13.7625 O   0  0  0  0  0  0  0  0  0  0  0  0
  1  2  1  0
  1  5  1  0
  2  3  1  0
  3  4  1  0
  5  6  1  6
  5  4  1  0
  6  7  2  0
  9  8  1  6
 10  9  1  0
 10  6  1  0
 11  9  1  0
 12 11  2  0
 13 11  1  0
 14 13  1  0
 15 17  1  0
 15 14  1  0
 16 15  2  0
M  END
$$$$
