PAG.pdb
     RDKit          3D

 17 17  0  0  1  0  0  0  0  0999 V2000
   26.7222  -11.8926  -17.9675 N   0  0  0  0  0  0  0  0  0  0  0  0
   27.8568  -12.6580  -17.4311 C   0  0  0  0  0  0  0  0  0  0  0  0
   28.4838  -11.6349  -16.5070 C   0  0  0  0  0  0  0  0  0  0  0  0
   27.3239  -10.7523  -16.0412 C   0  0  0  0  0  0  0  0  0  0  0  0
   26.1554  -11.3555  -16.7540 C   0  0  1  0  0  0  0  0  0  0  0  0
   25.0765  -10.3713  -17.0331 C   0  0  0  0  0  0  0  0  0  0  0  0
   25.0596   -9.6739  -18.0641 O   0  0  0  0  0  0  0  0  0  0  0  0
   21.6861   -9.9575  -15.6547 C   0  0  0  0  0  0  0  0  0  0  0  0
   22.9260   -9.2896  -16.2628 C   0  0  2  0  0  0  0  0  0  0  0  0
   24.0116  -10.1989  -16.1056 N   0  0  0  0  0  0  0  0  0  0  0  0
   23.1676   -7.9611  -15.6639 C   0  0  0  0  0  0  0  0  0  0  0  0
   23.9662   -7.8728  -14.6945 O   0  0  0  0  0  0  0  0  0  0  0  0
   22.5527   -6.7719  -16.1155 N   0  0  0  0  0  0  0  0  0  0  0  0
   22.8732   -5.4585  -15.5889 C   0  0  0  0  0  0  0  0  0  0  0  0
   22.0621   -5.2446  -14.3804 C   0  0  0  0  0  0  0  0  0  0  0  0
   21.2285   -6.1078  -14.0389 O   0  0  0  0  0  0  0  0  0  0  0  0
   22.2107   -4.1080  -13.6243 O   0  0  0  0  0  0  0  0  0  0  0  0
  1  2  1  0
  1  5  1  0
  2  3  1  0
  3  4  1  0
  5  6  1  6
  5  4  1  0
  6  7  2  0
  9  8  1  1
 10  9  1  0
 10  6  1  0
 11  9  1  0
 12 11  2  0
 13 11  1  0
 14 13  1  0
 15 17  1  0
 15 14  1  0
 16 15  2  0
M  END
$$$$
