PAG.pdb
     RDKit          3D

 17 17  0  0  1  0  0  0  0  0999 V2000
   29.2206  -20.1881  -11.2410 N   0  0  0  0  0  0  0  0  0  0  0  0
   30.6709  -20.1405  -11.4761 C   0  0  0  0  0  0  0  0  0  0  0  0
   30.9465  -21.5765  -11.8706 C   0  0  0  0  0  0  0  0  0  0  0  0
   29.6548  -22.0656  -12.5292 C   0  0  0  0  0  0  0  0  0  0  0  0
   28.7712  -20.8625  -12.4350 C   0  0  1  0  0  0  0  0  0  0  0  0
   27.3269  -21.2088  -12.3669 C   0  0  0  0  0  0  0  0  0  0  0  0
   26.7489  -21.8414  -13.2700 O   0  0  0  0  0  0  0  0  0  0  0  0
   24.8380  -20.8463   -9.5879 C   0  0  0  0  0  0  0  0  0  0  0  0
   25.1619  -21.0774  -11.0695 C   0  0  2  0  0  0  0  0  0  0  0  0
   26.5520  -20.8159  -11.2404 N   0  0  0  0  0  0  0  0  0  0  0  0
   24.2892  -20.2657  -11.9422 C   0  0  0  0  0  0  0  0  0  0  0  0
   24.5445  -19.0403  -12.0785 O   0  0  0  0  0  0  0  0  0  0  0  0
   23.1754  -20.7836  -12.6402 N   0  0  0  0  0  0  0  0  0  0  0  0
   22.3550  -19.9891  -13.5351 C   0  0  0  0  0  0  0  0  0  0  0  0
   21.2958  -20.8583  -14.0704 C   0  0  0  0  0  0  0  0  0  0  0  0
   21.4930  -22.0875  -14.1539 O   0  0  0  0  0  0  0  0  0  0  0  0
   20.0940  -20.3344  -14.4789 O   0  0  0  0  0  0  0  0  0  0  0  0
  1  2  1  0
  1  5  1  0
  2  3  1  0
  3  4  1  0
  5  6  1  1
  5  4  1  0
  6  7  2  0
  9  8  1  1
 10  9  1  0
 10  6  1  0
 11  9  1  0
 12 11  2  0
 13 11  1  0
 14 13  1  0
 15 17  1  0
 15 14  1  0
 16 15  2  0
M  END
$$$$
