PAG.pdb
     RDKit          3D

 17 17  0  0  1  0  0  0  0  0999 V2000
   26.9895  -19.2114  -14.2970 N   0  0  0  0  0  0  0  0  0  0  0  0
   27.8928  -18.8545  -15.4005 C   0  0  0  0  0  0  0  0  0  0  0  0
   28.9471  -19.9340  -15.2708 C   0  0  0  0  0  0  0  0  0  0  0  0
   28.2135  -21.1416  -14.6835 C   0  0  0  0  0  0  0  0  0  0  0  0
   26.8182  -20.6254  -14.5291 C   0  0  1  0  0  0  0  0  0  0  0  0
   26.0764  -21.2841  -13.4217 C   0  0  0  0  0  0  0  0  0  0  0  0
   25.6544  -22.4525  -13.5032 O   0  0  0  0  0  0  0  0  0  0  0  0
   25.7719  -20.5007   -9.8335 C   0  0  0  0  0  0  0  0  0  0  0  0
   25.1235  -21.0998  -11.0880 C   0  0  2  0  0  0  0  0  0  0  0  0
   25.8250  -20.5775  -12.2128 N   0  0  0  0  0  0  0  0  0  0  0  0
   23.6697  -20.8395  -11.1168 C   0  0  0  0  0  0  0  0  0  0  0  0
   22.9694  -21.2206  -10.1423 O   0  0  0  0  0  0  0  0  0  0  0  0
   23.0098  -20.1832  -12.1798 N   0  0  0  0  0  0  0  0  0  0  0  0
   21.5796  -19.9400  -12.2020 C   0  0  0  0  0  0  0  0  0  0  0  0
   20.9830  -20.8368  -13.2039 C   0  0  0  0  0  0  0  0  0  0  0  0
   21.6883  -21.7153  -13.7401 O   0  0  0  0  0  0  0  0  0  0  0  0
   19.6610  -20.7192  -13.5563 O   0  0  0  0  0  0  0  0  0  0  0  0
  1  2  1  0
  1  5  1  0
  2  3  1  0
  3  4  1  0
  5  6  1  1
  5  4  1  0
  6  7  2  0
  9  8  1  1
 10  9  1  0
 10  6  1  0
 11  9  1  0
 12 11  2  0
 13 11  1  0
 14 13  1  0
 15 17  1  0
 15 14  1  0
 16 15  2  0
M  END
$$$$
