PAG.pdb
     RDKit          3D

 17 17  0  0  1  0  0  0  0  0999 V2000
   22.3338  -12.2898  -14.7200 N   0  0  0  0  0  0  0  0  0  0  0  0
   22.9506  -13.6216  -14.6371 C   0  0  0  0  0  0  0  0  0  0  0  0
   23.8499  -13.5993  -15.8555 C   0  0  0  0  0  0  0  0  0  0  0  0
   24.2269  -12.1289  -16.0480 C   0  0  0  0  0  0  0  0  0  0  0  0
   23.4971  -11.4611  -14.9262 C   0  0  1  0  0  0  0  0  0  0  0  0
   23.1290  -10.0533  -15.2316 C   0  0  0  0  0  0  0  0  0  0  0  0
   23.9818   -9.1633  -15.4061 O   0  0  0  0  0  0  0  0  0  0  0  0
   19.8229   -8.5295  -16.1039 C   0  0  0  0  0  0  0  0  0  0  0  0
   21.2868   -8.3795  -15.6706 C   0  0  2  0  0  0  0  0  0  0  0  0
   21.7599   -9.6808  -15.3344 N   0  0  0  0  0  0  0  0  0  0  0  0
   21.4251   -7.3930  -14.5800 C   0  0  0  0  0  0  0  0  0  0  0  0
   21.5320   -7.8122  -13.3975 O   0  0  0  0  0  0  0  0  0  0  0  0
   21.4451   -5.9949  -14.7828 N   0  0  0  0  0  0  0  0  0  0  0  0
   21.6108   -5.0351  -13.7074 C   0  0  0  0  0  0  0  0  0  0  0  0
   22.1317   -3.7884  -14.2890 C   0  0  0  0  0  0  0  0  0  0  0  0
   22.8712   -3.8403  -15.2926 O   0  0  0  0  0  0  0  0  0  0  0  0
   21.8147   -2.5695  -13.7419 O   0  0  0  0  0  0  0  0  0  0  0  0
  1  2  1  0
  1  5  1  0
  2  3  1  0
  3  4  1  0
  5  6  1  6
  5  4  1  0
  6  7  2  0
  9  8  1  1
 10  9  1  0
 10  6  1  0
 11  9  1  0
 12 11  2  0
 13 11  1  0
 14 13  1  0
 15 17  1  0
 15 14  1  0
 16 15  2  0
M  END
$$$$
