PAG.pdb
     RDKit          3D

 17 17  0  0  1  0  0  0  0  0999 V2000
   25.9756  -10.7682  -15.7022 N   0  0  0  0  0  0  0  0  0  0  0  0
   27.3246  -11.3325  -15.8529 C   0  0  0  0  0  0  0  0  0  0  0  0
   27.0595  -12.4558  -16.8335 C   0  0  0  0  0  0  0  0  0  0  0  0
   25.8731  -11.9810  -17.6750 C   0  0  0  0  0  0  0  0  0  0  0  0
   25.5762  -10.6399  -17.0830 C   0  0  1  0  0  0  0  0  0  0  0  0
   24.1466  -10.2528  -17.2140 C   0  0  0  0  0  0  0  0  0  0  0  0
   23.6165  -10.0196  -18.3159 O   0  0  0  0  0  0  0  0  0  0  0  0
   21.2621  -10.5048  -14.9337 C   0  0  0  0  0  0  0  0  0  0  0  0
   21.9673   -9.7224  -16.0489 C   0  0  2  0  0  0  0  0  0  0  0  0
   23.3305  -10.1369  -16.0545 N   0  0  0  0  0  0  0  0  0  0  0  0
   21.7861   -8.2662  -15.8797 C   0  0  0  0  0  0  0  0  0  0  0  0
   20.6303   -7.7834  -16.0078 O   0  0  0  0  0  0  0  0  0  0  0  0
   22.8388   -7.3728  -15.5801 N   0  0  0  0  0  0  0  0  0  0  0  0
   22.6476   -5.9456  -15.4022 C   0  0  0  0  0  0  0  0  0  0  0  0
   22.4131   -5.6947  -13.9719 C   0  0  0  0  0  0  0  0  0  0  0  0
   22.2538   -6.6592  -13.1966 O   0  0  0  0  0  0  0  0  0  0  0  0
   22.3673   -4.4136  -13.4796 O   0  0  0  0  0  0  0  0  0  0  0  0
  1  2  1  0
  1  5  1  0
  2  3  1  0
  3  4  1  0
  5  6  1  1
  5  4  1  0
  6  7  2  0
  9  8  1  1
 10  9  1  0
 10  6  1  0
 11  9  1  0
 12 11  2  0
 13 11  1  0
 14 13  1  0
 15 17  1  0
 15 14  1  0
 16 15  2  0
M  END
$$$$
