PAG.pdb
     RDKit          3D

 17 17  0  0  1  0  0  0  0  0999 V2000
   20.0056  -10.8404  -18.1538 N   0  0  0  0  0  0  0  0  0  0  0  0
   19.2625  -11.4197  -19.2821 C   0  0  0  0  0  0  0  0  0  0  0  0
   18.8678  -12.7642  -18.7076 C   0  0  0  0  0  0  0  0  0  0  0  0
   18.7432  -12.5343  -17.1999 C   0  0  0  0  0  0  0  0  0  0  0  0
   19.0885  -11.0852  -17.0668 C   0  0  1  0  0  0  0  0  0  0  0  0
   19.6888  -10.7518  -15.7480 C   0  0  0  0  0  0  0  0  0  0  0  0
   19.0575  -10.8610  -14.6806 O   0  0  0  0  0  0  0  0  0  0  0  0
   23.2070  -10.2877  -14.7041 C   0  0  0  0  0  0  0  0  0  0  0  0
   21.7243   -9.9724  -14.4684 C   0  0  2  0  0  0  0  0  0  0  0  0
   21.0318  -10.2886  -15.6728 N   0  0  0  0  0  0  0  0  0  0  0  0
   21.5372   -8.5775  -14.0200 C   0  0  0  0  0  0  0  0  0  0  0  0
   22.0341   -8.2265  -12.9176 O   0  0  0  0  0  0  0  0  0  0  0  0
   20.8286   -7.6031  -14.7580 N   0  0  0  0  0  0  0  0  0  0  0  0
   20.6665   -6.2303  -14.3171 C   0  0  0  0  0  0  0  0  0  0  0  0
   21.6991   -5.4173  -14.9781 C   0  0  0  0  0  0  0  0  0  0  0  0
   22.7251   -5.9702  -15.4234 O   0  0  0  0  0  0  0  0  0  0  0  0
   21.5481   -4.0589  -15.1110 O   0  0  0  0  0  0  0  0  0  0  0  0
  1  2  1  0
  1  5  1  0
  2  3  1  0
  3  4  1  0
  5  6  1  1
  5  4  1  0
  6  7  2  0
  9  8  1  6
 10  9  1  0
 10  6  1  0
 11  9  1  0
 12 11  2  0
 13 11  1  0
 14 13  1  0
 15 17  1  0
 15 14  1  0
 16 15  2  0
M  END
$$$$
