PAG.pdb
     RDKit          3D

 17 17  0  0  1  0  0  0  0  0999 V2000
   24.9916  -17.9934  -15.8869 N   0  0  0  0  0  0  0  0  0  0  0  0
   24.1504  -17.2587  -16.8426 C   0  0  0  0  0  0  0  0  0  0  0  0
   24.1694  -18.2014  -18.0277 C   0  0  0  0  0  0  0  0  0  0  0  0
   24.3356  -19.5982  -17.4255 C   0  0  0  0  0  0  0  0  0  0  0  0
   24.4041  -19.3095  -15.9595 C   0  0  1  0  0  0  0  0  0  0  0  0
   25.2001  -20.3154  -15.2078 C   0  0  0  0  0  0  0  0  0  0  0  0
   24.7780  -21.4636  -14.9771 O   0  0  0  0  0  0  0  0  0  0  0  0
   28.7944  -20.4825  -14.3595 C   0  0  0  0  0  0  0  0  0  0  0  0
   27.3519  -20.8605  -13.9993 C   0  0  2  0  0  0  0  0  0  0  0  0
   26.4951  -19.9814  -14.7225 N   0  0  0  0  0  0  0  0  0  0  0  0
   27.1395  -20.8340  -12.5377 C   0  0  0  0  0  0  0  0  0  0  0  0
   27.7028  -21.7102  -11.8304 O   0  0  0  0  0  0  0  0  0  0  0  0
   26.3359  -19.8776  -11.8777 N   0  0  0  0  0  0  0  0  0  0  0  0
   26.1224  -19.8691  -10.4426 C   0  0  0  0  0  0  0  0  0  0  0  0
   24.7761  -20.4014  -10.1816 C   0  0  0  0  0  0  0  0  0  0  0  0
   24.1189  -20.8975  -11.1190 O   0  0  0  0  0  0  0  0  0  0  0  0
   24.2341  -20.3591   -8.9207 O   0  0  0  0  0  0  0  0  0  0  0  0
  1  2  1  0
  1  5  1  0
  2  3  1  0
  3  4  1  0
  5  6  1  1
  5  4  1  0
  6  7  2  0
  9  8  1  1
 10  9  1  0
 10  6  1  0
 11  9  1  0
 12 11  2  0
 13 11  1  0
 14 13  1  0
 15 17  1  0
 15 14  1  0
 16 15  2  0
M  END
$$$$
