PAG.pdb
     RDKit          3D

 17 17  0  0  1  0  0  0  0  0999 V2000
   18.3972  -10.0476  -16.6345 N   0  0  0  0  0  0  0  0  0  0  0  0
   17.1986  -10.8934  -16.5414 C   0  0  0  0  0  0  0  0  0  0  0  0
   17.6959  -11.9997  -15.6346 C   0  0  0  0  0  0  0  0  0  0  0  0
   18.7548  -11.3435  -14.7461 C   0  0  0  0  0  0  0  0  0  0  0  0
   18.7606   -9.9326  -15.2426 C   0  0  1  0  0  0  0  0  0  0  0  0
   20.0756   -9.2618  -15.0655 C   0  0  0  0  0  0  0  0  0  0  0  0
   20.5464   -9.0019  -13.9428 O   0  0  0  0  0  0  0  0  0  0  0  0
   22.8570   -8.6601  -17.4566 C   0  0  0  0  0  0  0  0  0  0  0  0
   22.1323   -8.2807  -16.1589 C   0  0  2  0  0  0  0  0  0  0  0  0
   20.8460   -8.8920  -16.2029 N   0  0  0  0  0  0  0  0  0  0  0  0
   22.0917   -6.8154  -15.9759 C   0  0  0  0  0  0  0  0  0  0  0  0
   23.1799   -6.1889  -15.8831 O   0  0  0  0  0  0  0  0  0  0  0  0
   20.8965   -6.0660  -15.8977 N   0  0  0  0  0  0  0  0  0  0  0  0
   20.8660   -4.6164  -15.8439 C   0  0  0  0  0  0  0  0  0  0  0  0
   20.7764   -4.2174  -14.4308 C   0  0  0  0  0  0  0  0  0  0  0  0
   20.1740   -4.9517  -13.6217 O   0  0  0  0  0  0  0  0  0  0  0  0
   21.3466   -3.0480  -13.9915 O   0  0  0  0  0  0  0  0  0  0  0  0
  1  2  1  0
  1  5  1  0
  2  3  1  0
  3  4  1  0
  5  6  1  6
  5  4  1  0
  6  7  2  0
  9  8  1  6
 10  9  1  0
 10  6  1  0
 11  9  1  0
 12 11  2  0
 13 11  1  0
 14 13  1  0
 15 17  1  0
 15 14  1  0
 16 15  2  0
M  END
$$$$
