CCY.pdb
     RDKit          3D

 25 25  0  0  1  0  0  0  0  0999 V2000
    7.7002  -16.1457   18.6419 N   0  0  0  0  0  0  0  0  0  0  0  0
    7.7842  -15.4986   19.9331 C   0  0  1  0  0  0  0  0  0  0  0  0
    6.4567  -14.9800   20.4010 C   0  0  0  0  0  0  0  0  0  0  0  0
    6.6390  -14.3803   22.1027 S   0  0  0  0  0  0  0  0  0  0  0  0
    8.3764  -16.3784   20.9646 C   0  0  0  0  0  0  0  0  0  0  0  0
    7.9935  -17.5758   20.9891 O   0  0  0  0  0  0  0  0  0  0  0  0
    9.3335  -15.9873   21.9219 N   0  0  0  0  0  0  0  0  0  0  0  0
   10.0051  -16.8787   22.8208 C   0  0  1  0  0  0  0  0  0  0  0  0
   11.2852  -17.4436   22.2649 C   0  0  0  0  0  0  0  0  0  0  0  0
   12.4791  -16.1560   21.8404 S   0  0  0  0  0  0  0  0  0  0  0  0
   10.2255  -16.2687   24.1546 C   0  0  0  0  0  0  0  0  0  0  0  0
   10.2523  -15.0194   24.2535 O   0  0  0  0  0  0  0  0  0  0  0  0
    6.0843  -11.2973   26.4252 O   0  0  0  0  0  0  0  0  0  0  0  0
    6.6530  -12.5681   26.4471 C   0  0  0  0  0  0  0  0  0  0  0  0
    5.9854  -13.6136   25.8511 C   0  0  0  0  0  0  0  0  0  0  0  0
    6.5173  -14.8854   25.8526 C   0  0  0  0  0  0  0  0  0  0  0  0
    7.7489  -15.1715   26.4542 C   0  0  0  0  0  0  0  0  0  0  0  0
    8.3000  -16.5425   26.4583 C   0  0  0  0  0  0  0  0  0  0  0  0
    9.7891  -16.6185   26.5800 C   0  0  2  0  0  0  0  0  0  0  0  0
   10.4087  -17.0353   25.3312 N   0  0  0  0  0  0  0  0  0  0  0  0
   10.1715  -17.5531   27.6623 C   0  0  0  0  0  0  0  0  0  0  0  0
   10.2061  -17.2560   28.9979 O   0  0  0  0  0  0  0  0  0  0  0  0
    8.3951  -14.1071   27.0433 C   0  0  0  0  0  0  0  0  0  0  0  0
    7.8536  -12.8170   27.0404 C   0  0  0  0  0  0  0  0  0  0  0  0
   10.5051  -18.7499   27.3547 O   0  0  0  0  0  0  0  0  0  0  0  0
  2  3  1  0
  2  5  1  0
  2  1  1  6
  4  3  1  0
  5  6  2  0
  7  8  1  0
  7  5  1  0
  8 11  1  0
  8  9  1  6
 10  9  1  0
 11 20  1  0
 12 11  2  0
 14 15  2  0
 14 13  1  0
 16 15  1  0
 17 16  2  0
 18 17  1  0
 19 18  1  6
 20 19  1  0
 21 22  1  0
 21 19  1  0
 23 17  1  0
 23 24  2  0
 24 14  1  0
 25 21  2  0
M  END
$$$$
