CCY.pdb
     RDKit          3D

 25 25  0  0  1  0  0  0  0  0999 V2000
    7.1408  -16.9021   18.3532 N   0  0  0  0  0  0  0  0  0  0  0  0
    7.5096  -16.0616   19.4715 C   0  0  1  0  0  0  0  0  0  0  0  0
    6.3387  -15.3121   20.0349 C   0  0  0  0  0  0  0  0  0  0  0  0
    6.9109  -14.3216   21.4422 S   0  0  0  0  0  0  0  0  0  0  0  0
    8.1890  -16.8205   20.5443 C   0  0  0  0  0  0  0  0  0  0  0  0
    8.1336  -18.0752   20.4859 O   0  0  0  0  0  0  0  0  0  0  0  0
    8.8929  -16.2553   21.6262 N   0  0  0  0  0  0  0  0  0  0  0  0
    9.7048  -16.9914   22.5497 C   0  0  1  0  0  0  0  0  0  0  0  0
   10.7363  -17.8627   21.8836 C   0  0  0  0  0  0  0  0  0  0  0  0
   12.0474  -16.8997   21.0979 S   0  0  0  0  0  0  0  0  0  0  0  0
   10.3260  -16.1147   23.5721 C   0  0  0  0  0  0  0  0  0  0  0  0
   10.5294  -14.9092   23.2950 O   0  0  0  0  0  0  0  0  0  0  0  0
    5.8528  -11.1930   26.9283 O   0  0  0  0  0  0  0  0  0  0  0  0
    6.5374  -12.3797   26.6789 C   0  0  0  0  0  0  0  0  0  0  0  0
    5.8518  -13.4552   26.1619 C   0  0  0  0  0  0  0  0  0  0  0  0
    6.4958  -14.6460   25.9019 C   0  0  0  0  0  0  0  0  0  0  0  0
    7.8635  -14.8167   26.1487 C   0  0  0  0  0  0  0  0  0  0  0  0
    8.5369  -16.1034   25.8763 C   0  0  0  0  0  0  0  0  0  0  0  0
   10.0235  -16.0797   26.0425 C   0  0  2  0  0  0  0  0  0  0  0  0
   10.7037  -16.5771   24.8563 N   0  0  0  0  0  0  0  0  0  0  0  0
   10.4241  -16.8821   27.2200 C   0  0  0  0  0  0  0  0  0  0  0  0
   10.7789  -18.2039   27.2016 O   0  0  0  0  0  0  0  0  0  0  0  0
    8.5247  -13.7246   26.6662 C   0  0  0  0  0  0  0  0  0  0  0  0
    7.8692  -12.5168   26.9293 C   0  0  0  0  0  0  0  0  0  0  0  0
   10.4497  -16.3202   28.3697 O   0  0  0  0  0  0  0  0  0  0  0  0
  2  3  1  0
  2  5  1  0
  2  1  1  6
  4  3  1  0
  5  6  2  0
  7  8  1  0
  7  5  1  0
  8 11  1  0
  8  9  1  6
 10  9  1  0
 11 20  1  0
 12 11  2  0
 14 15  2  0
 14 13  1  0
 16 15  1  0
 17 16  2  0
 18 17  1  0
 19 18  1  6
 20 19  1  0
 21 22  1  0
 21 19  1  0
 23 17  1  0
 23 24  2  0
 24 14  1  0
 25 21  2  0
M  END
$$$$
