CCY.pdb
     RDKit          3D

 25 25  0  0  1  0  0  0  0  0999 V2000
    8.5409  -16.9191   17.5168 N   0  0  0  0  0  0  0  0  0  0  0  0
    8.3731  -16.1556   18.7341 C   0  0  1  0  0  0  0  0  0  0  0  0
    6.9647  -15.6730   18.9177 C   0  0  0  0  0  0  0  0  0  0  0  0
    6.8472  -14.8327   20.5205 S   0  0  0  0  0  0  0  0  0  0  0  0
    8.8119  -16.9047   19.9319 C   0  0  0  0  0  0  0  0  0  0  0  0
    8.1031  -17.8780   20.2941 O   0  0  0  0  0  0  0  0  0  0  0  0
    9.9576  -16.6193   20.7010 N   0  0  0  0  0  0  0  0  0  0  0  0
   10.3784  -17.3630   21.8515 C   0  0  1  0  0  0  0  0  0  0  0  0
   11.7167  -18.0312   21.6807 C   0  0  0  0  0  0  0  0  0  0  0  0
   12.8819  -17.0113   20.7502 S   0  0  0  0  0  0  0  0  0  0  0  0
   10.3429  -16.5474   23.0898 C   0  0  0  0  0  0  0  0  0  0  0  0
   10.6769  -15.3406   23.0312 O   0  0  0  0  0  0  0  0  0  0  0  0
    5.9894  -10.9138   27.0585 O   0  0  0  0  0  0  0  0  0  0  0  0
    6.4530  -12.0956   26.4862 C   0  0  0  0  0  0  0  0  0  0  0  0
    7.4812  -12.0420   25.5730 C   0  0  0  0  0  0  0  0  0  0  0  0
    7.9665  -13.1909   24.9858 C   0  0  0  0  0  0  0  0  0  0  0  0
    7.4424  -14.4539   25.2870 C   0  0  0  0  0  0  0  0  0  0  0  0
    7.9652  -15.6750   24.6398 C   0  0  0  0  0  0  0  0  0  0  0  0
    9.1933  -16.2445   25.2766 C   0  0  2  0  0  0  0  0  0  0  0  0
    9.9468  -17.0700   24.3450 N   0  0  0  0  0  0  0  0  0  0  0  0
    8.8332  -17.0421   26.4704 C   0  0  0  0  0  0  0  0  0  0  0  0
    9.0241  -16.6620   27.7713 O   0  0  0  0  0  0  0  0  0  0  0  0
    6.4144  -14.4783   26.2035 C   0  0  0  0  0  0  0  0  0  0  0  0
    5.9233  -13.3110   26.7985 C   0  0  0  0  0  0  0  0  0  0  0  0
    8.2961  -18.1921   26.3050 O   0  0  0  0  0  0  0  0  0  0  0  0
  2  3  1  0
  2  5  1  0
  2  1  1  6
  4  3  1  0
  5  6  2  0
  7  8  1  0
  7  5  1  0
  8 11  1  0
  8  9  1  6
 10  9  1  0
 11 20  1  0
 12 11  2  0
 14 15  2  0
 14 13  1  0
 16 15  1  0
 17 16  2  0
 18 17  1  0
 19 18  1  6
 20 19  1  0
 21 22  1  0
 21 19  1  0
 23 17  1  0
 23 24  2  0
 24 14  1  0
 25 21  2  0
M  END
$$$$
