CCY.pdb
     RDKit          3D

 25 25  0  0  1  0  0  0  0  0999 V2000
    7.9773  -18.2593   16.9828 N   0  0  0  0  0  0  0  0  0  0  0  0
    9.1111  -17.9451   17.8246 C   0  0  1  0  0  0  0  0  0  0  0  0
   10.2107  -17.2573   17.0710 C   0  0  0  0  0  0  0  0  0  0  0  0
   11.5962  -16.9713   18.2055 S   0  0  0  0  0  0  0  0  0  0  0  0
    8.7276  -17.1418   19.0063 C   0  0  0  0  0  0  0  0  0  0  0  0
    7.5930  -16.6003   18.9909 O   0  0  0  0  0  0  0  0  0  0  0  0
    9.5270  -16.9325   20.1476 N   0  0  0  0  0  0  0  0  0  0  0  0
    9.0263  -16.7750   21.4811 C   0  0  1  0  0  0  0  0  0  0  0  0
    8.0180  -17.8219   21.8738 C   0  0  0  0  0  0  0  0  0  0  0  0
    8.7290  -19.0985   22.9361 S   0  0  0  0  0  0  0  0  0  0  0  0
   10.1169  -16.6820   22.4819 C   0  0  0  0  0  0  0  0  0  0  0  0
   10.7593  -17.7171   22.7773 O   0  0  0  0  0  0  0  0  0  0  0  0
   10.4301  -15.4073   31.0089 O   0  0  0  0  0  0  0  0  0  0  0  0
   10.2249  -15.3835   29.6319 C   0  0  0  0  0  0  0  0  0  0  0  0
   10.2002  -14.1735   28.9768 C   0  0  0  0  0  0  0  0  0  0  0  0
    9.9998  -14.1106   27.6143 C   0  0  0  0  0  0  0  0  0  0  0  0
    9.8138  -15.2623   26.8400 C   0  0  0  0  0  0  0  0  0  0  0  0
    9.5877  -15.1776   25.3822 C   0  0  0  0  0  0  0  0  0  0  0  0
   10.7935  -15.4629   24.5439 C   0  0  2  0  0  0  0  0  0  0  0  0
   10.4706  -15.4709   23.1251 N   0  0  0  0  0  0  0  0  0  0  0  0
   11.3923  -16.7615   24.9260 C   0  0  0  0  0  0  0  0  0  0  0  0
   12.6884  -16.9575   25.3198 O   0  0  0  0  0  0  0  0  0  0  0  0
    9.8429  -16.4592   27.5211 C   0  0  0  0  0  0  0  0  0  0  0  0
   10.0466  -16.5209   28.9039 C   0  0  0  0  0  0  0  0  0  0  0  0
   10.6607  -17.8113   24.8947 O   0  0  0  0  0  0  0  0  0  0  0  0
  2  3  1  0
  2  5  1  0
  2  1  1  6
  4  3  1  0
  5  6  2  0
  7  8  1  0
  7  5  1  0
  8 11  1  0
  8  9  1  1
 10  9  1  0
 11 20  1  0
 12 11  2  0
 14 15  2  0
 14 13  1  0
 16 15  1  0
 17 16  2  0
 18 17  1  0
 19 18  1  1
 20 19  1  0
 21 22  1  0
 21 19  1  0
 23 17  1  0
 23 24  2  0
 24 14  1  0
 25 21  2  0
M  END
$$$$
