CCY.pdb
     RDKit          3D

 25 25  0  0  1  0  0  0  0  0999 V2000
    7.8151  -15.0511   17.1367 N   0  0  0  0  0  0  0  0  0  0  0  0
    8.5048  -14.6076   18.3286 C   0  0  1  0  0  0  0  0  0  0  0  0
    7.8297  -13.4361   18.9782 C   0  0  0  0  0  0  0  0  0  0  0  0
    8.9834  -12.0368   18.9856 S   0  0  0  0  0  0  0  0  0  0  0  0
    8.6842  -15.6981   19.3121 C   0  0  0  0  0  0  0  0  0  0  0  0
    8.0555  -16.7675   19.1073 O   0  0  0  0  0  0  0  0  0  0  0  0
    9.5005  -15.6390   20.4591 N   0  0  0  0  0  0  0  0  0  0  0  0
    9.7302  -16.7308   21.3585 C   0  0  1  0  0  0  0  0  0  0  0  0
   10.3264  -17.9434   20.6944 C   0  0  0  0  0  0  0  0  0  0  0  0
   11.5967  -17.5115   19.4848 S   0  0  0  0  0  0  0  0  0  0  0  0
   10.5267  -16.3242   22.5417 C   0  0  0  0  0  0  0  0  0  0  0  0
   11.5088  -15.5623   22.3793 O   0  0  0  0  0  0  0  0  0  0  0  0
    6.1340  -11.2089   27.6445 O   0  0  0  0  0  0  0  0  0  0  0  0
    6.6585  -12.2009   26.8201 C   0  0  0  0  0  0  0  0  0  0  0  0
    7.9969  -12.1712   26.5007 C   0  0  0  0  0  0  0  0  0  0  0  0
    8.5517  -13.1363   25.6876 C   0  0  0  0  0  0  0  0  0  0  0  0
    7.7886  -14.1817   25.1534 C   0  0  0  0  0  0  0  0  0  0  0  0
    8.3955  -15.2017   24.2732 C   0  0  0  0  0  0  0  0  0  0  0  0
    9.6366  -15.8377   24.8147 C   0  0  2  0  0  0  0  0  0  0  0  0
   10.2293  -16.7584   23.8564 N   0  0  0  0  0  0  0  0  0  0  0  0
    9.3415  -16.5533   26.0764 C   0  0  0  0  0  0  0  0  0  0  0  0
    9.8239  -16.2213   27.3136 O   0  0  0  0  0  0  0  0  0  0  0  0
    6.4526  -14.1869   25.4889 C   0  0  0  0  0  0  0  0  0  0  0  0
    5.8914  -13.2065   26.3144 C   0  0  0  0  0  0  0  0  0  0  0  0
    8.5729  -17.5760   26.0404 O   0  0  0  0  0  0  0  0  0  0  0  0
  2  3  1  0
  2  5  1  0
  2  1  1  6
  4  3  1  0
  5  6  2  0
  7  8  1  0
  7  5  1  0
  8 11  1  0
  8  9  1  6
 10  9  1  0
 11 20  1  0
 12 11  2  0
 14 15  2  0
 14 13  1  0
 16 15  1  0
 17 16  2  0
 18 17  1  0
 19 18  1  6
 20 19  1  0
 21 22  1  0
 21 19  1  0
 23 17  1  0
 23 24  2  0
 24 14  1  0
 25 21  2  0
M  END
$$$$
