CCY.pdb
     RDKit          3D

 25 25  0  0  1  0  0  0  0  0999 V2000
    5.9048  -16.3775   20.3852 N   0  0  0  0  0  0  0  0  0  0  0  0
    6.0691  -16.4635   21.8200 C   0  0  1  0  0  0  0  0  0  0  0  0
    6.5417  -17.8169   22.2620 C   0  0  0  0  0  0  0  0  0  0  0  0
    5.1006  -18.7931   22.7711 S   0  0  0  0  0  0  0  0  0  0  0  0
    6.9712  -15.4154   22.3457 C   0  0  0  0  0  0  0  0  0  0  0  0
    7.9656  -15.1053   21.6417 O   0  0  0  0  0  0  0  0  0  0  0  0
    6.8096  -14.7355   23.5693 N   0  0  0  0  0  0  0  0  0  0  0  0
    7.6772  -13.7028   24.0537 C   0  0  1  0  0  0  0  0  0  0  0  0
    7.0282  -12.7957   25.0651 C   0  0  0  0  0  0  0  0  0  0  0  0
    5.9728  -13.6970   26.2215 S   0  0  0  0  0  0  0  0  0  0  0  0
    8.9597  -14.2432   24.5664 C   0  0  0  0  0  0  0  0  0  0  0  0
    9.5052  -13.6838   25.5467 O   0  0  0  0  0  0  0  0  0  0  0  0
   10.6886  -14.2749   30.9779 O   0  0  0  0  0  0  0  0  0  0  0  0
   10.4464  -14.8695   29.7423 C   0  0  0  0  0  0  0  0  0  0  0  0
   10.9229  -16.1381   29.5020 C   0  0  0  0  0  0  0  0  0  0  0  0
   10.7027  -16.7589   28.2910 C   0  0  0  0  0  0  0  0  0  0  0  0
    9.9914  -16.1355   27.2586 C   0  0  0  0  0  0  0  0  0  0  0  0
    9.7743  -16.8093   25.9616 C   0  0  0  0  0  0  0  0  0  0  0  0
   10.4933  -16.1891   24.8055 C   0  0  2  0  0  0  0  0  0  0  0  0
    9.6031  -15.3693   23.9977 N   0  0  0  0  0  0  0  0  0  0  0  0
   11.1112  -17.2356   23.9605 C   0  0  0  0  0  0  0  0  0  0  0  0
   10.7273  -17.5634   22.6882 O   0  0  0  0  0  0  0  0  0  0  0  0
    9.5264  -14.8667   27.5259 C   0  0  0  0  0  0  0  0  0  0  0  0
    9.7509  -14.2384   28.7558 C   0  0  0  0  0  0  0  0  0  0  0  0
   12.0907  -17.9110   24.4323 O   0  0  0  0  0  0  0  0  0  0  0  0
  2  3  1  0
  2  5  1  0
  2  1  1  6
  4  3  1  0
  5  6  2  0
  7  8  1  0
  7  5  1  0
  8 11  1  0
  8  9  1  1
 10  9  1  0
 11 20  1  0
 12 11  2  0
 14 15  2  0
 14 13  1  0
 16 15  1  0
 17 16  2  0
 18 17  1  0
 19 18  1  1
 20 19  1  0
 21 22  1  0
 21 19  1  0
 23 17  1  0
 23 24  2  0
 24 14  1  0
 25 21  2  0
M  END
$$$$
