CCY.pdb
     RDKit          3D

 25 25  0  0  1  0  0  0  0  0999 V2000
    8.3039  -14.4271   17.5875 N   0  0  0  0  0  0  0  0  0  0  0  0
    8.6747  -14.0546   18.9353 C   0  0  1  0  0  0  0  0  0  0  0  0
    8.0978  -12.7313   19.3429 C   0  0  0  0  0  0  0  0  0  0  0  0
    8.5907  -12.3896   21.0543 S   0  0  0  0  0  0  0  0  0  0  0  0
    8.3105  -15.0922   19.9249 C   0  0  0  0  0  0  0  0  0  0  0  0
    7.4473  -15.9390   19.5804 O   0  0  0  0  0  0  0  0  0  0  0  0
    8.8498  -15.2115   21.2213 N   0  0  0  0  0  0  0  0  0  0  0  0
    8.8287  -16.4073   22.0108 C   0  0  1  0  0  0  0  0  0  0  0  0
    9.4715  -17.5882   21.3331 C   0  0  0  0  0  0  0  0  0  0  0  0
   11.2655  -17.4174   21.2071 S   0  0  0  0  0  0  0  0  0  0  0  0
    9.3956  -16.1949   23.3648 C   0  0  0  0  0  0  0  0  0  0  0  0
   10.4227  -15.4870   23.4884 O   0  0  0  0  0  0  0  0  0  0  0  0
    5.9049  -10.8800   25.8331 O   0  0  0  0  0  0  0  0  0  0  0  0
    6.4317  -12.1490   26.0595 C   0  0  0  0  0  0  0  0  0  0  0  0
    7.7690  -12.2783   26.3577 C   0  0  0  0  0  0  0  0  0  0  0  0
    8.3258  -13.5181   26.5881 C   0  0  0  0  0  0  0  0  0  0  0  0
    7.5658  -14.6927   26.5303 C   0  0  0  0  0  0  0  0  0  0  0  0
    8.1800  -16.0155   26.7675 C   0  0  0  0  0  0  0  0  0  0  0  0
    9.3093  -16.3558   25.8472 C   0  0  2  0  0  0  0  0  0  0  0  0
    8.8283  -16.7577   24.5340 N   0  0  0  0  0  0  0  0  0  0  0  0
   10.1393  -17.4361   26.4260 C   0  0  0  0  0  0  0  0  0  0  0  0
   10.9066  -17.3349   27.5549 O   0  0  0  0  0  0  0  0  0  0  0  0
    6.2309  -14.5342   26.2297 C   0  0  0  0  0  0  0  0  0  0  0  0
    5.6677  -13.2749   25.9964 C   0  0  0  0  0  0  0  0  0  0  0  0
   10.1637  -18.5751   25.8428 O   0  0  0  0  0  0  0  0  0  0  0  0
  2  3  1  0
  2  5  1  0
  2  1  1  6
  4  3  1  0
  5  6  2  0
  7  8  1  0
  7  5  1  0
  8 11  1  0
  8  9  1  6
 10  9  1  0
 11 20  1  0
 12 11  2  0
 14 15  2  0
 14 13  1  0
 16 15  1  0
 17 16  2  0
 18 17  1  0
 19 18  1  1
 20 19  1  0
 21 22  1  0
 21 19  1  0
 23 17  1  0
 23 24  2  0
 24 14  1  0
 25 21  2  0
M  END
$$$$
