CCY.pdb
     RDKit          3D

 25 25  0  0  1  0  0  0  0  0999 V2000
    7.4031  -14.9151   17.6452 N   0  0  0  0  0  0  0  0  0  0  0  0
    8.5147  -14.7465   18.5556 C   0  0  1  0  0  0  0  0  0  0  0  0
    8.5640  -13.3703   19.1504 C   0  0  0  0  0  0  0  0  0  0  0  0
    8.6827  -12.1632   17.8021 S   0  0  0  0  0  0  0  0  0  0  0  0
    8.5195  -15.7632   19.6303 C   0  0  0  0  0  0  0  0  0  0  0  0
    7.6735  -16.6899   19.5503 O   0  0  0  0  0  0  0  0  0  0  0  0
    9.3926  -15.7804   20.7362 N   0  0  0  0  0  0  0  0  0  0  0  0
    9.7176  -16.9449   21.5057 C   0  0  1  0  0  0  0  0  0  0  0  0
   10.3879  -18.0289   20.7043 C   0  0  0  0  0  0  0  0  0  0  0  0
   10.7992  -19.4733   21.7084 S   0  0  0  0  0  0  0  0  0  0  0  0
   10.5041  -16.6135   22.7187 C   0  0  0  0  0  0  0  0  0  0  0  0
   11.5951  -16.0102   22.5883 O   0  0  0  0  0  0  0  0  0  0  0  0
    5.7871  -11.3670   27.5566 O   0  0  0  0  0  0  0  0  0  0  0  0
    6.4408  -12.2904   26.7448 C   0  0  0  0  0  0  0  0  0  0  0  0
    5.8211  -13.4831   26.4496 C   0  0  0  0  0  0  0  0  0  0  0  0
    6.4371  -14.4214   25.6493 C   0  0  0  0  0  0  0  0  0  0  0  0
    7.7091  -14.2082   25.1042 C   0  0  0  0  0  0  0  0  0  0  0  0
    8.3615  -15.2289   24.2581 C   0  0  0  0  0  0  0  0  0  0  0  0
    9.5194  -15.9266   24.8990 C   0  0  2  0  0  0  0  0  0  0  0  0
   10.0790  -16.9485   24.0274 N   0  0  0  0  0  0  0  0  0  0  0  0
    9.1075  -16.5377   26.1828 C   0  0  0  0  0  0  0  0  0  0  0  0
    8.6850  -17.8284   26.3529 O   0  0  0  0  0  0  0  0  0  0  0  0
    8.3062  -13.0066   25.4160 C   0  0  0  0  0  0  0  0  0  0  0  0
    7.6791  -12.0556   26.2283 C   0  0  0  0  0  0  0  0  0  0  0  0
    9.1366  -15.8225   27.2439 O   0  0  0  0  0  0  0  0  0  0  0  0
  2  3  1  0
  2  5  1  0
  2  1  1  1
  4  3  1  0
  5  6  2  0
  7  8  1  0
  7  5  1  0
  8 11  1  0
  8  9  1  6
 10  9  1  0
 11 20  1  0
 12 11  2  0
 14 15  2  0
 14 13  1  0
 16 15  1  0
 17 16  2  0
 18 17  1  0
 19 18  1  6
 20 19  1  0
 21 22  1  0
 21 19  1  0
 23 17  1  0
 23 24  2  0
 24 14  1  0
 25 21  2  0
M  END
$$$$
