CCY.pdb
     RDKit          3D

 25 25  0  0  1  0  0  0  0  0999 V2000
    5.7788  -20.6794   21.1973 N   0  0  0  0  0  0  0  0  0  0  0  0
    5.3059  -19.3267   21.3957 C   0  0  1  0  0  0  0  0  0  0  0  0
    4.5725  -19.1612   22.6938 C   0  0  0  0  0  0  0  0  0  0  0  0
    2.8331  -18.7980   22.3313 S   0  0  0  0  0  0  0  0  0  0  0  0
    6.3957  -18.3310   21.2992 C   0  0  0  0  0  0  0  0  0  0  0  0
    7.5758  -18.7634   21.3352 O   0  0  0  0  0  0  0  0  0  0  0  0
    6.2225  -16.9385   21.1704 N   0  0  0  0  0  0  0  0  0  0  0  0
    7.2878  -15.9888   21.0406 C   0  0  1  0  0  0  0  0  0  0  0  0
    6.9193  -14.7774   20.2259 C   0  0  0  0  0  0  0  0  0  0  0  0
    6.1609  -13.4789   21.2269 S   0  0  0  0  0  0  0  0  0  0  0  0
    7.8523  -15.5967   22.3549 C   0  0  0  0  0  0  0  0  0  0  0  0
    7.2598  -14.7257   23.0343 O   0  0  0  0  0  0  0  0  0  0  0  0
   10.4549  -14.7038   30.4844 O   0  0  0  0  0  0  0  0  0  0  0  0
    9.9764  -14.9497   29.2000 C   0  0  0  0  0  0  0  0  0  0  0  0
    9.8925  -16.2479   28.7511 C   0  0  0  0  0  0  0  0  0  0  0  0
    9.4235  -16.5301   27.4859 C   0  0  0  0  0  0  0  0  0  0  0  0
    9.0145  -15.5203   26.6062 C   0  0  0  0  0  0  0  0  0  0  0  0
    8.5258  -15.8380   25.2485 C   0  0  0  0  0  0  0  0  0  0  0  0
    9.5534  -15.7145   24.1682 C   0  0  2  0  0  0  0  0  0  0  0  0
    9.0377  -16.1631   22.8837 N   0  0  0  0  0  0  0  0  0  0  0  0
   10.7649  -16.4900   24.5172 C   0  0  0  0  0  0  0  0  0  0  0  0
   10.8272  -17.8494   24.6645 O   0  0  0  0  0  0  0  0  0  0  0  0
    9.1093  -14.2307   27.0811 C   0  0  0  0  0  0  0  0  0  0  0  0
    9.5854  -13.9465   28.3657 C   0  0  0  0  0  0  0  0  0  0  0  0
   11.8653  -15.8640   24.7051 O   0  0  0  0  0  0  0  0  0  0  0  0
  2  3  1  0
  2  5  1  0
  2  1  1  1
  4  3  1  0
  5  6  2  0
  7  8  1  0
  7  5  1  0
  8 11  1  0
  8  9  1  1
 10  9  1  0
 11 20  1  0
 12 11  2  0
 14 15  2  0
 14 13  1  0
 16 15  1  0
 17 16  2  0
 18 17  1  0
 19 18  1  1
 20 19  1  0
 21 22  1  0
 21 19  1  0
 23 17  1  0
 23 24  2  0
 24 14  1  0
 25 21  2  0
M  END
$$$$
