KAY.pdb
     RDKit          3D

 27 27  0  0  1  0  0  0  0  0999 V2000
   16.8554  -11.8961  -18.4797 N   0  0  0  0  0  0  0  0  0  0  0  0
   17.9636  -11.5346  -19.3370 C   0  0  1  0  0  0  0  0  0  0  0  0
   17.8467  -12.2418  -20.6402 C   0  0  0  0  0  0  0  0  0  0  0  0
   17.1992  -13.6019  -20.5101 C   0  0  0  0  0  0  0  0  0  0  0  0
   16.9539  -14.2635  -21.8451 C   0  0  0  0  0  0  0  0  0  0  0  0
   16.2046  -15.5731  -21.5627 C   0  0  0  0  0  0  0  0  0  0  0  0
   15.8350  -16.1342  -22.8446 N   0  0  0  0  0  0  0  0  0  0  0  0
   18.0892  -10.0937  -19.3881 C   0  0  0  0  0  0  0  0  0  0  0  0
   19.0735   -9.5896  -19.9855 O   0  0  0  0  0  0  0  0  0  0  0  0
   16.0512   -7.0072  -18.4978 C   0  0  0  0  0  0  0  0  0  0  0  0
   17.2939   -7.7412  -18.8725 C   0  0  2  0  0  0  0  0  0  0  0  0
   17.1736   -9.1673  -18.8068 N   0  0  0  0  0  0  0  0  0  0  0  0
   18.4723   -7.2531  -18.0746 C   0  0  0  0  0  0  0  0  0  0  0  0
   18.7415   -7.7624  -16.9590 O   0  0  0  0  0  0  0  0  0  0  0  0
   25.2570   -2.2807  -15.4343 O   0  0  0  0  0  0  0  0  0  0  0  0
   24.3553   -3.0206  -16.1840 C   0  0  0  0  0  0  0  0  0  0  0  0
   24.3681   -4.4083  -16.1985 C   0  0  0  0  0  0  0  0  0  0  0  0
   23.4471   -5.0925  -16.9631 C   0  0  0  0  0  0  0  0  0  0  0  0
   22.4963   -4.4528  -17.7285 C   0  0  0  0  0  0  0  0  0  0  0  0
   21.5097   -5.1710  -18.5591 C   0  0  0  0  0  0  0  0  0  0  0  0
   20.4052   -5.6938  -17.7150 C   0  0  2  0  0  0  0  0  0  0  0  0
   19.3082   -6.2126  -18.5524 N   0  0  0  0  0  0  0  0  0  0  0  0
   19.8044   -4.6625  -16.8467 C   0  0  0  0  0  0  0  0  0  0  0  0
   18.7705   -3.8131  -17.2879 O   0  0  0  0  0  0  0  0  0  0  0  0
   22.4993   -3.0771  -17.7011 C   0  0  0  0  0  0  0  0  0  0  0  0
   23.4208   -2.3685  -16.9354 C   0  0  0  0  0  0  0  0  0  0  0  0
   20.1628   -4.4552  -15.6439 O   0  0  0  0  0  0  0  0  0  0  0  0
  2  3  1  0
  2  1  1  1
  4  5  1  0
  4  3  1  0
  6  5  1  0
  7  6  1  0
  8  2  1  0
  9  8  2  0
 11 10  1  1
 11 12  1  0
 12  8  1  0
 13 22  1  0
 13 11  1  0
 14 13  2  0
 16 15  1  0
 17 16  2  0
 18 17  1  0
 19 18  2  0
 19 25  1  0
 21 20  1  6
 20 19  1  0
 21 22  1  0
 23 21  1  0
 24 23  1  0
 25 26  2  0
 26 16  1  0
 27 23  2  0
M  END
$$$$
