KAY.pdb
     RDKit          3D

 27 27  0  0  1  0  0  0  0  0999 V2000
   23.7202  -17.9744  -18.0254 N   0  0  0  0  0  0  0  0  0  0  0  0
   24.4672  -18.6763  -19.0466 C   0  0  1  0  0  0  0  0  0  0  0  0
   24.3879  -17.9331  -20.3323 C   0  0  0  0  0  0  0  0  0  0  0  0
   23.2160  -16.9792  -20.3837 C   0  0  0  0  0  0  0  0  0  0  0  0
   23.6186  -15.5438  -20.1433 C   0  0  0  0  0  0  0  0  0  0  0  0
   22.3490  -14.6938  -20.2910 C   0  0  0  0  0  0  0  0  0  0  0  0
   22.6892  -13.3493  -19.8771 N   0  0  0  0  0  0  0  0  0  0  0  0
   25.7929  -18.9843  -18.5542 C   0  0  0  0  0  0  0  0  0  0  0  0
   26.5593  -19.6818  -19.2655 O   0  0  0  0  0  0  0  0  0  0  0  0
   28.3736  -17.7839  -16.1946 C   0  0  0  0  0  0  0  0  0  0  0  0
   27.6119  -18.9203  -16.7879 C   0  0  2  0  0  0  0  0  0  0  0  0
   26.3246  -18.5572  -17.3014 N   0  0  0  0  0  0  0  0  0  0  0  0
   27.5125  -20.0688  -15.8210 C   0  0  0  0  0  0  0  0  0  0  0  0
   28.5404  -20.5174  -15.2567 O   0  0  0  0  0  0  0  0  0  0  0  0
   24.0898  -21.3802   -8.0907 O   0  0  0  0  0  0  0  0  0  0  0  0
   24.6376  -21.0569   -9.3227 C   0  0  0  0  0  0  0  0  0  0  0  0
   25.9946  -21.1833   -9.5854 C   0  0  0  0  0  0  0  0  0  0  0  0
   26.4843  -20.8468  -10.8295 C   0  0  0  0  0  0  0  0  0  0  0  0
   25.6761  -20.3818  -11.8443 C   0  0  0  0  0  0  0  0  0  0  0  0
   26.1868  -20.0089  -13.1781 C   0  0  0  0  0  0  0  0  0  0  0  0
   25.9656  -21.1146  -14.1448 C   0  0  2  0  0  0  0  0  0  0  0  0
   26.2671  -20.6750  -15.5195 N   0  0  0  0  0  0  0  0  0  0  0  0
   24.5695  -21.5928  -14.1652 C   0  0  0  0  0  0  0  0  0  0  0  0
   24.1552  -22.7428  -13.4646 O   0  0  0  0  0  0  0  0  0  0  0  0
   24.3340  -20.2635  -11.5649 C   0  0  0  0  0  0  0  0  0  0  0  0
   23.8205  -20.5983  -10.3152 C   0  0  0  0  0  0  0  0  0  0  0  0
   23.6346  -21.0167  -14.8073 O   0  0  0  0  0  0  0  0  0  0  0  0
  2  3  1  0
  2  1  1  1
  4  5  1  0
  4  3  1  0
  6  5  1  0
  7  6  1  0
  8  2  1  0
  9  8  2  0
 11 10  1  1
 11 12  1  0
 12  8  1  0
 13 22  1  0
 13 11  1  0
 14 13  2  0
 16 15  1  0
 17 16  2  0
 18 17  1  0
 19 18  2  0
 19 25  1  0
 21 20  1  1
 20 19  1  0
 21 22  1  0
 23 21  1  0
 24 23  1  0
 25 26  2  0
 26 16  1  0
 27 23  2  0
M  END
$$$$
