KAY.pdb
     RDKit          3D

 27 27  0  0  1  0  0  0  0  0999 V2000
   25.0777  -25.2618  -20.4606 N   0  0  0  0  0  0  0  0  0  0  0  0
   25.2876  -25.6457  -19.0814 C   0  0  1  0  0  0  0  0  0  0  0  0
   24.1983  -26.5561  -18.6382 C   0  0  0  0  0  0  0  0  0  0  0  0
   22.8275  -25.9307  -18.7643 C   0  0  0  0  0  0  0  0  0  0  0  0
   21.7262  -26.8253  -18.2476 C   0  0  0  0  0  0  0  0  0  0  0  0
   20.4099  -26.0533  -18.4134 C   0  0  0  0  0  0  0  0  0  0  0  0
   19.3495  -26.9187  -17.9431 N   0  0  0  0  0  0  0  0  0  0  0  0
   26.6433  -26.1222  -18.9102 C   0  0  0  0  0  0  0  0  0  0  0  0
   27.1846  -26.7657  -19.8444 O   0  0  0  0  0  0  0  0  0  0  0  0
   29.5642  -25.7555  -16.5226 C   0  0  0  0  0  0  0  0  0  0  0  0
   28.7502  -26.4761  -17.5431 C   0  0  2  0  0  0  0  0  0  0  0  0
   27.4442  -25.9235  -17.7466 N   0  0  0  0  0  0  0  0  0  0  0  0
   28.6815  -27.9482  -17.2398 C   0  0  0  0  0  0  0  0  0  0  0  0
   29.7304  -28.6047  -17.0276 O   0  0  0  0  0  0  0  0  0  0  0  0
   27.1638  -35.7803  -14.0875 O   0  0  0  0  0  0  0  0  0  0  0  0
   27.3415  -34.4490  -14.4320 C   0  0  0  0  0  0  0  0  0  0  0  0
   28.5249  -33.9791  -14.9841 C   0  0  0  0  0  0  0  0  0  0  0  0
   28.6457  -32.6443  -15.3074 C   0  0  0  0  0  0  0  0  0  0  0  0
   27.6287  -31.7366  -15.1047 C   0  0  0  0  0  0  0  0  0  0  0  0
   27.7462  -30.3032  -15.4372 C   0  0  0  0  0  0  0  0  0  0  0  0
   27.4000  -30.0724  -16.8629 C   0  0  2  0  0  0  0  0  0  0  0  0
   27.4422  -28.6341  -17.1847 N   0  0  0  0  0  0  0  0  0  0  0  0
   26.0396  -30.5290  -17.2079 C   0  0  0  0  0  0  0  0  0  0  0  0
   25.7541  -31.8685  -17.5386 O   0  0  0  0  0  0  0  0  0  0  0  0
   26.4634  -32.2213  -14.5567 C   0  0  0  0  0  0  0  0  0  0  0  0
   26.3222  -33.5655  -14.2238 C   0  0  0  0  0  0  0  0  0  0  0  0
   25.0235  -29.7641  -17.2359 O   0  0  0  0  0  0  0  0  0  0  0  0
  2  3  1  0
  2  1  1  6
  4  5  1  0
  4  3  1  0
  6  5  1  0
  7  6  1  0
  8  2  1  0
  9  8  2  0
 11 10  1  1
 11 12  1  0
 12  8  1  0
 13 22  1  0
 13 11  1  0
 14 13  2  0
 16 15  1  0
 17 16  2  0
 18 17  1  0
 19 18  2  0
 19 25  1  0
 21 20  1  1
 20 19  1  0
 21 22  1  0
 23 21  1  0
 24 23  1  0
 25 26  2  0
 26 16  1  0
 27 23  2  0
M  END
$$$$
