KAY.pdb
     RDKit          3D

 27 27  0  0  1  0  0  0  0  0999 V2000
   24.9467  -20.5101  -18.2809 N   0  0  0  0  0  0  0  0  0  0  0  0
   23.9909  -21.5241  -18.6706 C   0  0  1  0  0  0  0  0  0  0  0  0
   23.1018  -20.9970  -19.7400 C   0  0  0  0  0  0  0  0  0  0  0  0
   22.9982  -19.4886  -19.7221 C   0  0  0  0  0  0  0  0  0  0  0  0
   22.2111  -18.9420  -20.8890 C   0  0  0  0  0  0  0  0  0  0  0  0
   22.2599  -17.4115  -20.7821 C   0  0  0  0  0  0  0  0  0  0  0  0
   21.5651  -16.8841  -21.9369 N   0  0  0  0  0  0  0  0  0  0  0  0
   24.6840  -22.7628  -18.9531 C   0  0  0  0  0  0  0  0  0  0  0  0
   24.0100  -23.7921  -19.2103 O   0  0  0  0  0  0  0  0  0  0  0  0
   28.1471  -24.0074  -19.7843 C   0  0  0  0  0  0  0  0  0  0  0  0
   26.7821  -24.1653  -19.2052 C   0  0  2  0  0  0  0  0  0  0  0  0
   26.1007  -22.9278  -18.9670 N   0  0  0  0  0  0  0  0  0  0  0  0
   26.8146  -25.0204  -17.9676 C   0  0  0  0  0  0  0  0  0  0  0  0
   27.8259  -25.0263  -17.2236 O   0  0  0  0  0  0  0  0  0  0  0  0
   20.7577  -23.5661  -13.7912 O   0  0  0  0  0  0  0  0  0  0  0  0
   21.9891  -24.1149  -14.1150 C   0  0  0  0  0  0  0  0  0  0  0  0
   22.3411  -25.4079  -13.7538 C   0  0  0  0  0  0  0  0  0  0  0  0
   23.5800  -25.9019  -14.1028 C   0  0  0  0  0  0  0  0  0  0  0  0
   24.5038  -25.1596  -14.8062 C   0  0  0  0  0  0  0  0  0  0  0  0
   25.8372  -25.6712  -15.1792 C   0  0  0  0  0  0  0  0  0  0  0  0
   25.7322  -26.5929  -16.3391 C   0  0  2  0  0  0  0  0  0  0  0  0
   25.7151  -25.8386  -17.6059 N   0  0  0  0  0  0  0  0  0  0  0  0
   24.4958  -27.3987  -16.3261 C   0  0  0  0  0  0  0  0  0  0  0  0
   23.4248  -27.1521  -17.2076 O   0  0  0  0  0  0  0  0  0  0  0  0
   24.1366  -23.8803  -15.1555 C   0  0  0  0  0  0  0  0  0  0  0  0
   22.8904  -23.3637  -14.8125 C   0  0  0  0  0  0  0  0  0  0  0  0
   24.2941  -28.3702  -15.5300 O   0  0  0  0  0  0  0  0  0  0  0  0
  2  3  1  0
  2  1  1  6
  4  5  1  0
  4  3  1  0
  6  5  1  0
  7  6  1  0
  8  2  1  0
  9  8  2  0
 11 10  1  1
 11 12  1  0
 12  8  1  0
 13 22  1  0
 13 11  1  0
 14 13  2  0
 16 15  1  0
 17 16  2  0
 18 17  1  0
 19 18  2  0
 19 25  1  0
 21 20  1  1
 20 19  1  0
 21 22  1  0
 23 21  1  0
 24 23  1  0
 25 26  2  0
 26 16  1  0
 27 23  2  0
M  END
$$$$
