KAY.pdb
     RDKit          3D

 27 27  0  0  1  0  0  0  0  0999 V2000
   21.1666  -14.4017  -18.5306 N   0  0  0  0  0  0  0  0  0  0  0  0
   20.1053  -13.7455  -17.7980 C   0  0  1  0  0  0  0  0  0  0  0  0
   19.1588  -14.7596  -17.2616 C   0  0  0  0  0  0  0  0  0  0  0  0
   18.7969  -15.8166  -18.2803 C   0  0  0  0  0  0  0  0  0  0  0  0
   19.7217  -17.0097  -18.2398 C   0  0  0  0  0  0  0  0  0  0  0  0
   19.1776  -18.0301  -19.2490 C   0  0  0  0  0  0  0  0  0  0  0  0
   19.0865  -19.2997  -18.5600 N   0  0  0  0  0  0  0  0  0  0  0  0
   20.6743  -12.8181  -16.8438 C   0  0  0  0  0  0  0  0  0  0  0  0
   19.9122  -12.2399  -16.0285 O   0  0  0  0  0  0  0  0  0  0  0  0
   24.0997  -11.5013  -15.8038 C   0  0  0  0  0  0  0  0  0  0  0  0
   22.6092  -11.5198  -15.8420 C   0  0  2  0  0  0  0  0  0  0  0  0
   22.0588  -12.4908  -16.7402 N   0  0  0  0  0  0  0  0  0  0  0  0
   22.0575  -10.1467  -16.1138 C   0  0  0  0  0  0  0  0  0  0  0  0
   22.1315   -9.6462  -17.2629 O   0  0  0  0  0  0  0  0  0  0  0  0
   18.4320   -9.8184  -20.9264 O   0  0  0  0  0  0  0  0  0  0  0  0
   18.6951   -9.3526  -19.6472 C   0  0  0  0  0  0  0  0  0  0  0  0
   19.1614   -8.0673  -19.4090 C   0  0  0  0  0  0  0  0  0  0  0  0
   19.4061   -7.6577  -18.1155 C   0  0  0  0  0  0  0  0  0  0  0  0
   19.2066   -8.4786  -17.0267 C   0  0  0  0  0  0  0  0  0  0  0  0
   19.4727   -8.0577  -15.6371 C   0  0  0  0  0  0  0  0  0  0  0  0
   20.9345   -8.0273  -15.3764 C   0  0  2  0  0  0  0  0  0  0  0  0
   21.4426   -9.3817  -15.0910 N   0  0  0  0  0  0  0  0  0  0  0  0
   21.2955   -7.2005  -14.2083 C   0  0  0  0  0  0  0  0  0  0  0  0
   20.9949   -5.8260  -14.1346 O   0  0  0  0  0  0  0  0  0  0  0  0
   18.7440   -9.7489  -17.2830 C   0  0  0  0  0  0  0  0  0  0  0  0
   18.4909  -10.1809  -18.5818 C   0  0  0  0  0  0  0  0  0  0  0  0
   21.8999   -7.6509  -13.1836 O   0  0  0  0  0  0  0  0  0  0  0  0
  2  3  1  0
  2  1  1  1
  4  5  1  0
  4  3  1  0
  6  5  1  0
  7  6  1  0
  8  2  1  0
  9  8  2  0
 11 10  1  6
 11 12  1  0
 12  8  1  0
 13 22  1  0
 13 11  1  0
 14 13  2  0
 16 15  1  0
 17 16  2  0
 18 17  1  0
 19 18  2  0
 19 25  1  0
 21 20  1  1
 20 19  1  0
 21 22  1  0
 23 21  1  0
 24 23  1  0
 25 26  2  0
 26 16  1  0
 27 23  2  0
M  END
$$$$
