KAY.pdb
     RDKit          3D

 27 27  0  0  1  0  0  0  0  0999 V2000
   26.4701  -17.5440  -15.0163 N   0  0  0  0  0  0  0  0  0  0  0  0
   26.2077  -18.7810  -15.7197 C   0  0  1  0  0  0  0  0  0  0  0  0
   26.6975  -18.6802  -17.1203 C   0  0  0  0  0  0  0  0  0  0  0  0
   26.1612  -17.4635  -17.8400 C   0  0  0  0  0  0  0  0  0  0  0  0
   27.1789  -16.8308  -18.7588 C   0  0  0  0  0  0  0  0  0  0  0  0
   26.5403  -15.5522  -19.3186 C   0  0  0  0  0  0  0  0  0  0  0  0
   27.5308  -14.9190  -20.1629 N   0  0  0  0  0  0  0  0  0  0  0  0
   26.6960  -19.8974  -14.9388 C   0  0  0  0  0  0  0  0  0  0  0  0
   26.5717  -21.0611  -15.3972 O   0  0  0  0  0  0  0  0  0  0  0  0
   29.1661  -20.6976  -12.3161 C   0  0  0  0  0  0  0  0  0  0  0  0
   27.8066  -20.9039  -12.8927 C   0  0  2  0  0  0  0  0  0  0  0  0
   27.3227  -19.7960  -13.6614 N   0  0  0  0  0  0  0  0  0  0  0  0
   26.8219  -21.3040  -11.8278 C   0  0  0  0  0  0  0  0  0  0  0  0
   26.9337  -22.4070  -11.2386 O   0  0  0  0  0  0  0  0  0  0  0  0
   29.3098  -19.6223   -6.1046 O   0  0  0  0  0  0  0  0  0  0  0  0
   28.1747  -19.7095   -6.8961 C   0  0  0  0  0  0  0  0  0  0  0  0
   27.5653  -20.9225   -7.1849 C   0  0  0  0  0  0  0  0  0  0  0  0
   26.4379  -20.9493   -7.9781 C   0  0  0  0  0  0  0  0  0  0  0  0
   25.8763  -19.8081   -8.5085 C   0  0  0  0  0  0  0  0  0  0  0  0
   24.6753  -19.8215   -9.3666 C   0  0  0  0  0  0  0  0  0  0  0  0
   24.7968  -20.8707  -10.4108 C   0  0  2  0  0  0  0  0  0  0  0  0
   25.7468  -20.4566  -11.4596 N   0  0  0  0  0  0  0  0  0  0  0  0
   23.5221  -21.1493  -11.1005 C   0  0  0  0  0  0  0  0  0  0  0  0
   22.3723  -21.5869  -10.4138 O   0  0  0  0  0  0  0  0  0  0  0  0
   26.4945  -18.6153   -8.2110 C   0  0  0  0  0  0  0  0  0  0  0  0
   27.6333  -18.5677   -7.4119 C   0  0  0  0  0  0  0  0  0  0  0  0
   23.3546  -21.0203  -12.3549 O   0  0  0  0  0  0  0  0  0  0  0  0
  2  3  1  0
  2  1  1  1
  4  5  1  0
  4  3  1  0
  6  5  1  0
  7  6  1  0
  8  2  1  0
  9  8  2  0
 11 10  1  1
 11 12  1  0
 12  8  1  0
 13 22  1  0
 13 11  1  0
 14 13  2  0
 16 15  1  0
 17 16  2  0
 18 17  1  0
 19 18  2  0
 19 25  1  0
 21 20  1  1
 20 19  1  0
 21 22  1  0
 23 21  1  0
 24 23  1  0
 25 26  2  0
 26 16  1  0
 27 23  2  0
M  END
$$$$
