KAY.pdb
     RDKit          3D

 27 27  0  0  1  0  0  0  0  0999 V2000
   24.8992  -12.1825  -16.8677 N   0  0  0  0  0  0  0  0  0  0  0  0
   23.7914  -11.8580  -17.7401 C   0  0  1  0  0  0  0  0  0  0  0  0
   22.6961  -12.8472  -17.5562 C   0  0  0  0  0  0  0  0  0  0  0  0
   23.1494  -14.2703  -17.7913 C   0  0  0  0  0  0  0  0  0  0  0  0
   22.8751  -14.7473  -19.1975 C   0  0  0  0  0  0  0  0  0  0  0  0
   23.2156  -16.2435  -19.2353 C   0  0  0  0  0  0  0  0  0  0  0  0
   22.9940  -16.6939  -20.5928 N   0  0  0  0  0  0  0  0  0  0  0  0
   23.4407  -10.4628  -17.5825 C   0  0  0  0  0  0  0  0  0  0  0  0
   22.9559  -10.0770  -16.4889 O   0  0  0  0  0  0  0  0  0  0  0  0
   23.6710   -7.1991  -19.5394 C   0  0  0  0  0  0  0  0  0  0  0  0
   23.1913   -8.0905  -18.4446 C   0  0  2  0  0  0  0  0  0  0  0  0
   23.5990   -9.4571  -18.5817 N   0  0  0  0  0  0  0  0  0  0  0  0
   21.7014   -7.9778  -18.2683 C   0  0  0  0  0  0  0  0  0  0  0  0
   20.9386   -8.8748  -18.7039 O   0  0  0  0  0  0  0  0  0  0  0  0
   13.4639   -7.3698  -16.3327 O   0  0  0  0  0  0  0  0  0  0  0  0
   14.8449   -7.4850  -16.3782 C   0  0  0  0  0  0  0  0  0  0  0  0
   15.6410   -7.2917  -15.2579 C   0  0  0  0  0  0  0  0  0  0  0  0
   17.0099   -7.4191  -15.3619 C   0  0  0  0  0  0  0  0  0  0  0  0
   17.6380   -7.7349  -16.5471 C   0  0  0  0  0  0  0  0  0  0  0  0
   19.1027   -7.8658  -16.6762 C   0  0  0  0  0  0  0  0  0  0  0  0
   19.6516   -6.7546  -17.4946 C   0  0  2  0  0  0  0  0  0  0  0  0
   21.1172   -6.8660  -17.6111 N   0  0  0  0  0  0  0  0  0  0  0  0
   19.3874   -5.4242  -16.9131 C   0  0  0  0  0  0  0  0  0  0  0  0
   20.3494   -4.7268  -16.1559 O   0  0  0  0  0  0  0  0  0  0  0  0
   16.8321   -7.9229  -17.6465 C   0  0  0  0  0  0  0  0  0  0  0  0
   15.4483   -7.7988  -17.5616 C   0  0  0  0  0  0  0  0  0  0  0  0
   18.2854   -4.8023  -17.0434 O   0  0  0  0  0  0  0  0  0  0  0  0
  2  3  1  0
  2  1  1  1
  4  5  1  0
  4  3  1  0
  6  5  1  0
  7  6  1  0
  8  2  1  0
  9  8  2  0
 11 10  1  6
 11 12  1  0
 12  8  1  0
 13 22  1  0
 13 11  1  0
 14 13  2  0
 16 15  1  0
 17 16  2  0
 18 17  1  0
 19 18  2  0
 19 25  1  0
 21 20  1  1
 20 19  1  0
 21 22  1  0
 23 21  1  0
 24 23  1  0
 25 26  2  0
 26 16  1  0
 27 23  2  0
M  END
$$$$
