KAY.pdb
     RDKit          3D

 27 27  0  0  1  0  0  0  0  0999 V2000
   18.4029  -11.7923  -17.3826 N   0  0  0  0  0  0  0  0  0  0  0  0
   19.8109  -11.4585  -17.3808 C   0  0  1  0  0  0  0  0  0  0  0  0
   20.4716  -12.0463  -18.5765 C   0  0  0  0  0  0  0  0  0  0  0  0
   19.9706  -13.4367  -18.8959 C   0  0  0  0  0  0  0  0  0  0  0  0
   21.0500  -14.4871  -18.7877 C   0  0  0  0  0  0  0  0  0  0  0  0
   20.4408  -15.8053  -19.2850 C   0  0  0  0  0  0  0  0  0  0  0  0
   21.4533  -16.8269  -19.1241 N   0  0  0  0  0  0  0  0  0  0  0  0
   19.9727  -10.0341  -17.1829 C   0  0  0  0  0  0  0  0  0  0  0  0
   21.1283   -9.5714  -17.0088 O   0  0  0  0  0  0  0  0  0  0  0  0
   17.8519   -6.8770  -17.3724 C   0  0  0  0  0  0  0  0  0  0  0  0
   19.0841   -7.6611  -17.0719 C   0  0  2  0  0  0  0  0  0  0  0  0
   18.9122   -9.0803  -17.1666 N   0  0  0  0  0  0  0  0  0  0  0  0
   19.6657   -7.2668  -15.7415 C   0  0  0  0  0  0  0  0  0  0  0  0
   19.1214   -7.6382  -14.6729 O   0  0  0  0  0  0  0  0  0  0  0  0
   26.2218   -5.9359  -18.5019 O   0  0  0  0  0  0  0  0  0  0  0  0
   25.3554   -6.2303  -17.4603 C   0  0  0  0  0  0  0  0  0  0  0  0
   24.6554   -7.4270  -17.3957 C   0  0  0  0  0  0  0  0  0  0  0  0
   23.8067   -7.6661  -16.3357 C   0  0  0  0  0  0  0  0  0  0  0  0
   23.6160   -6.7568  -15.3179 C   0  0  0  0  0  0  0  0  0  0  0  0
   22.7043   -6.9946  -14.1816 C   0  0  0  0  0  0  0  0  0  0  0  0
   21.4578   -6.2034  -14.3437 C   0  0  2  0  0  0  0  0  0  0  0  0
   20.8356   -6.4711  -15.6533 N   0  0  0  0  0  0  0  0  0  0  0  0
   21.6877   -4.7465  -14.2903 C   0  0  0  0  0  0  0  0  0  0  0  0
   21.3529   -3.8899  -15.3577 O   0  0  0  0  0  0  0  0  0  0  0  0
   24.3187   -5.5766  -15.3994 C   0  0  0  0  0  0  0  0  0  0  0  0
   25.1802   -5.3168  -16.4613 C   0  0  0  0  0  0  0  0  0  0  0  0
   22.2001   -4.1482  -13.2914 O   0  0  0  0  0  0  0  0  0  0  0  0
  2  3  1  0
  2  1  1  6
  4  5  1  0
  4  3  1  0
  6  5  1  0
  7  6  1  0
  8  2  1  0
  9  8  2  0
 11 10  1  1
 11 12  1  0
 12  8  1  0
 13 22  1  0
 13 11  1  0
 14 13  2  0
 16 15  1  0
 17 16  2  0
 18 17  1  0
 19 18  2  0
 19 25  1  0
 21 20  1  6
 20 19  1  0
 21 22  1  0
 23 21  1  0
 24 23  1  0
 25 26  2  0
 26 16  1  0
 27 23  2  0
M  END
$$$$
