KAY.pdb
     RDKit          3D

 27 27  0  0  1  0  0  0  0  0999 V2000
   20.6626  -15.7134  -17.8053 N   0  0  0  0  0  0  0  0  0  0  0  0
   21.9629  -15.4382  -17.2333 C   0  0  1  0  0  0  0  0  0  0  0  0
   22.9721  -16.3734  -17.7977 C   0  0  0  0  0  0  0  0  0  0  0  0
   22.3442  -17.5269  -18.5469 C   0  0  0  0  0  0  0  0  0  0  0  0
   22.2532  -18.7844  -17.7158 C   0  0  0  0  0  0  0  0  0  0  0  0
   21.6743  -19.8782  -18.6240 C   0  0  0  0  0  0  0  0  0  0  0  0
   21.4665  -21.0482  -17.7979 N   0  0  0  0  0  0  0  0  0  0  0  0
   22.2532  -14.0246  -17.3431 C   0  0  0  0  0  0  0  0  0  0  0  0
   23.3291  -13.5854  -16.8642 O   0  0  0  0  0  0  0  0  0  0  0  0
   20.8629  -10.9337  -19.0647 C   0  0  0  0  0  0  0  0  0  0  0  0
   21.6945  -11.6568  -18.0602 C   0  0  2  0  0  0  0  0  0  0  0  0
   21.4073  -13.0569  -17.9618 N   0  0  0  0  0  0  0  0  0  0  0  0
   21.6232  -10.9866  -16.7151 C   0  0  0  0  0  0  0  0  0  0  0  0
   20.6526  -11.1995  -15.9478 O   0  0  0  0  0  0  0  0  0  0  0  0
   28.3625  -10.9893  -17.0797 O   0  0  0  0  0  0  0  0  0  0  0  0
   27.2158  -10.7021  -16.3552 C   0  0  0  0  0  0  0  0  0  0  0  0
   26.7057   -9.4152  -16.2565 C   0  0  0  0  0  0  0  0  0  0  0  0
   25.5613   -9.1880  -15.5219 C   0  0  0  0  0  0  0  0  0  0  0  0
   24.8866  -10.1962  -14.8682 C   0  0  0  0  0  0  0  0  0  0  0  0
   23.6657   -9.9672  -14.0707 C   0  0  0  0  0  0  0  0  0  0  0  0
   22.5630   -9.4828  -14.9397 C   0  0  2  0  0  0  0  0  0  0  0  0
   22.6400  -10.1020  -16.2756 N   0  0  0  0  0  0  0  0  0  0  0  0
   22.6014   -8.0243  -15.1621 C   0  0  0  0  0  0  0  0  0  0  0  0
   22.8253   -7.4603  -16.4337 O   0  0  0  0  0  0  0  0  0  0  0  0
   25.4074  -11.4651  -14.9779 C   0  0  0  0  0  0  0  0  0  0  0  0
   26.5615  -11.7146  -15.7150 C   0  0  0  0  0  0  0  0  0  0  0  0
   22.4383   -7.1643  -14.2391 O   0  0  0  0  0  0  0  0  0  0  0  0
  2  3  1  0
  2  1  1  6
  4  5  1  0
  4  3  1  0
  6  5  1  0
  7  6  1  0
  8  2  1  0
  9  8  2  0
 11 10  1  6
 11 12  1  0
 12  8  1  0
 13 22  1  0
 13 11  1  0
 14 13  2  0
 16 15  1  0
 17 16  2  0
 18 17  1  0
 19 18  2  0
 19 25  1  0
 21 20  1  1
 20 19  1  0
 21 22  1  0
 23 21  1  0
 24 23  1  0
 25 26  2  0
 26 16  1  0
 27 23  2  0
M  END
$$$$
