KAY.pdb
     RDKit          3D

 27 27  0  0  1  0  0  0  0  0999 V2000
   27.4516  -22.0690  -16.8084 N   0  0  0  0  0  0  0  0  0  0  0  0
   26.0097  -22.1878  -16.8254 C   0  0  1  0  0  0  0  0  0  0  0  0
   25.5997  -23.4649  -16.1828 C   0  0  0  0  0  0  0  0  0  0  0  0
   25.9158  -24.6742  -17.0335 C   0  0  0  0  0  0  0  0  0  0  0  0
   25.3315  -25.9504  -16.4769 C   0  0  0  0  0  0  0  0  0  0  0  0
   25.5812  -27.0477  -17.5208 C   0  0  0  0  0  0  0  0  0  0  0  0
   24.9892  -28.2640  -17.0064 N   0  0  0  0  0  0  0  0  0  0  0  0
   25.4156  -20.9764  -16.3019 C   0  0  0  0  0  0  0  0  0  0  0  0
   26.0985  -20.2422  -15.5440 O   0  0  0  0  0  0  0  0  0  0  0  0
   22.7295  -18.5930  -17.2325 C   0  0  0  0  0  0  0  0  0  0  0  0
   23.5562  -19.2555  -16.1832 C   0  0  2  0  0  0  0  0  0  0  0  0
   24.0898  -20.5263  -16.5744 N   0  0  0  0  0  0  0  0  0  0  0  0
   22.8048  -19.3531  -14.8834 C   0  0  0  0  0  0  0  0  0  0  0  0
   22.2654  -18.3365  -14.3814 O   0  0  0  0  0  0  0  0  0  0  0  0
   27.5528  -20.5861   -9.8249 O   0  0  0  0  0  0  0  0  0  0  0  0
   26.2857  -20.3322  -10.3274 C   0  0  0  0  0  0  0  0  0  0  0  0
   25.1357  -20.5586   -9.5840 C   0  0  0  0  0  0  0  0  0  0  0  0
   23.9012  -20.2879  -10.1350 C   0  0  0  0  0  0  0  0  0  0  0  0
   23.7509  -19.7943  -11.4129 C   0  0  0  0  0  0  0  0  0  0  0  0
   22.4361  -19.5082  -12.0197 C   0  0  0  0  0  0  0  0  0  0  0  0
   22.0068  -20.6390  -12.8818 C   0  0  2  0  0  0  0  0  0  0  0  0
   22.6830  -20.5839  -14.1909 N   0  0  0  0  0  0  0  0  0  0  0  0
   20.5591  -20.6291  -13.1685 C   0  0  0  0  0  0  0  0  0  0  0  0
   19.5875  -20.6981  -12.1505 O   0  0  0  0  0  0  0  0  0  0  0  0
   24.9023  -19.5763  -12.1341 C   0  0  0  0  0  0  0  0  0  0  0  0
   26.1577  -19.8432  -11.5953 C   0  0  0  0  0  0  0  0  0  0  0  0
   20.0716  -20.5586  -14.3413 O   0  0  0  0  0  0  0  0  0  0  0  0
  2  3  1  0
  2  1  1  1
  4  5  1  0
  4  3  1  0
  6  5  1  0
  7  6  1  0
  8  2  1  0
  9  8  2  0
 11 10  1  6
 11 12  1  0
 12  8  1  0
 13 22  1  0
 13 11  1  0
 14 13  2  0
 16 15  1  0
 17 16  2  0
 18 17  1  0
 19 18  2  0
 19 25  1  0
 21 20  1  1
 20 19  1  0
 21 22  1  0
 23 21  1  0
 24 23  1  0
 25 26  2  0
 26 16  1  0
 27 23  2  0
M  END
$$$$
