KAY.pdb
     RDKit          3D

 27 27  0  0  1  0  0  0  0  0999 V2000
   20.9975  -15.9167  -16.2231 N   0  0  0  0  0  0  0  0  0  0  0  0
   21.6443  -14.8352  -16.9343 C   0  0  1  0  0  0  0  0  0  0  0  0
   20.9250  -14.5657  -18.2078 C   0  0  0  0  0  0  0  0  0  0  0  0
   20.4539  -15.8297  -18.8908 C   0  0  0  0  0  0  0  0  0  0  0  0
   19.8600  -15.5715  -20.2549 C   0  0  0  0  0  0  0  0  0  0  0  0
   19.4165  -16.9309  -20.8128 C   0  0  0  0  0  0  0  0  0  0  0  0
   18.7088  -16.6710  -22.0482 N   0  0  0  0  0  0  0  0  0  0  0  0
   21.8320  -13.7106  -16.0429 C   0  0  0  0  0  0  0  0  0  0  0  0
   20.8651  -13.3242  -15.3389 O   0  0  0  0  0  0  0  0  0  0  0  0
   24.6243  -11.4754  -14.7587 C   0  0  0  0  0  0  0  0  0  0  0  0
   23.2054  -11.8147  -15.0672 C   0  0  2  0  0  0  0  0  0  0  0  0
   23.0470  -12.9800  -15.8853 N   0  0  0  0  0  0  0  0  0  0  0  0
   22.4806  -10.6324  -15.6508 C   0  0  0  0  0  0  0  0  0  0  0  0
   22.5693  -10.3718  -16.8757 O   0  0  0  0  0  0  0  0  0  0  0  0
   17.8146  -12.0488  -19.6118 O   0  0  0  0  0  0  0  0  0  0  0  0
   18.2476  -11.2557  -18.5601 C   0  0  0  0  0  0  0  0  0  0  0  0
   18.4042  -11.7530  -17.2739 C   0  0  0  0  0  0  0  0  0  0  0  0
   18.8381  -10.9180  -16.2663 C   0  0  0  0  0  0  0  0  0  0  0  0
   19.1293   -9.5878  -16.4785 C   0  0  0  0  0  0  0  0  0  0  0  0
   19.5859   -8.6793  -15.4084 C   0  0  0  0  0  0  0  0  0  0  0  0
   21.0672   -8.5722  -15.4175 C   0  0  2  0  0  0  0  0  0  0  0  0
   21.6822   -9.7833  -14.8439 N   0  0  0  0  0  0  0  0  0  0  0  0
   21.5690   -7.4395  -14.6153 C   0  0  0  0  0  0  0  0  0  0  0  0
   22.5012   -7.6076  -13.5723 O   0  0  0  0  0  0  0  0  0  0  0  0
   18.9681   -9.1133  -17.7600 C   0  0  0  0  0  0  0  0  0  0  0  0
   18.5312   -9.9406  -18.7906 C   0  0  0  0  0  0  0  0  0  0  0  0
   21.2086   -6.2327  -14.7939 O   0  0  0  0  0  0  0  0  0  0  0  0
  2  3  1  0
  2  1  1  1
  4  5  1  0
  4  3  1  0
  6  5  1  0
  7  6  1  0
  8  2  1  0
  9  8  2  0
 11 10  1  6
 11 12  1  0
 12  8  1  0
 13 22  1  0
 13 11  1  0
 14 13  2  0
 16 15  1  0
 17 16  2  0
 18 17  1  0
 19 18  2  0
 19 25  1  0
 21 20  1  1
 20 19  1  0
 21 22  1  0
 23 21  1  0
 24 23  1  0
 25 26  2  0
 26 16  1  0
 27 23  2  0
M  END
$$$$
