KAY.pdb
     RDKit          3D

 27 27  0  0  1  0  0  0  0  0999 V2000
   20.1978  -21.0757  -15.5608 N   0  0  0  0  0  0  0  0  0  0  0  0
   21.2532  -20.2040  -15.0917 C   0  0  1  0  0  0  0  0  0  0  0  0
   20.6711  -19.0796  -14.3113 C   0  0  0  0  0  0  0  0  0  0  0  0
   19.1636  -19.1513  -14.2202 C   0  0  0  0  0  0  0  0  0  0  0  0
   18.6859  -20.1570  -13.2002 C   0  0  0  0  0  0  0  0  0  0  0  0
   17.1555  -20.0496  -13.1509 C   0  0  0  0  0  0  0  0  0  0  0  0
   16.6858  -21.0972  -12.2697 N   0  0  0  0  0  0  0  0  0  0  0  0
   22.2770  -20.9891  -14.4360 C   0  0  0  0  0  0  0  0  0  0  0  0
   21.9317  -21.8708  -13.6095 O   0  0  0  0  0  0  0  0  0  0  0  0
   25.8673  -21.9568  -14.7798 C   0  0  0  0  0  0  0  0  0  0  0  0
   24.6942  -21.5769  -13.9413 C   0  0  2  0  0  0  0  0  0  0  0  0
   23.6809  -20.8507  -14.6473 N   0  0  0  0  0  0  0  0  0  0  0  0
   25.1295  -20.8452  -12.7008 C   0  0  0  0  0  0  0  0  0  0  0  0
   25.1583  -19.5903  -12.6784 O   0  0  0  0  0  0  0  0  0  0  0  0
   29.1516  -18.7290   -5.2510 O   0  0  0  0  0  0  0  0  0  0  0  0
   28.4617  -19.4431   -6.2186 C   0  0  0  0  0  0  0  0  0  0  0  0
   29.0254  -20.5227   -6.8843 C   0  0  0  0  0  0  0  0  0  0  0  0
   28.2922  -21.1963   -7.8379 C   0  0  0  0  0  0  0  0  0  0  0  0
   27.0020  -20.8427   -8.1688 C   0  0  0  0  0  0  0  0  0  0  0  0
   26.2078  -21.5482   -9.1937 C   0  0  0  0  0  0  0  0  0  0  0  0
   26.3584  -20.8837  -10.5134 C   0  0  2  0  0  0  0  0  0  0  0  0
   25.5174  -21.5428  -11.5294 N   0  0  0  0  0  0  0  0  0  0  0  0
   27.7397  -20.9338  -11.0308 C   0  0  0  0  0  0  0  0  0  0  0  0
   28.5504  -19.7859  -11.1308 O   0  0  0  0  0  0  0  0  0  0  0  0
   26.4604  -19.7702   -7.4982 C   0  0  0  0  0  0  0  0  0  0  0  0
   27.1845  -19.0775   -6.5321 C   0  0  0  0  0  0  0  0  0  0  0  0
   28.3082  -22.0014  -11.4248 O   0  0  0  0  0  0  0  0  0  0  0  0
  2  3  1  0
  2  1  1  1
  4  5  1  0
  4  3  1  0
  6  5  1  0
  7  6  1  0
  8  2  1  0
  9  8  2  0
 11 10  1  6
 11 12  1  0
 12  8  1  0
 13 22  1  0
 13 11  1  0
 14 13  2  0
 16 15  1  0
 17 16  2  0
 18 17  1  0
 19 18  2  0
 19 25  1  0
 21 20  1  1
 20 19  1  0
 21 22  1  0
 23 21  1  0
 24 23  1  0
 25 26  2  0
 26 16  1  0
 27 23  2  0
M  END
$$$$
