DGQ.pdb
     RDKit          3D

 22 21  0  0  1  0  0  0  0  0999 V2000
   11.4123  -17.5363   18.8604 N   0  0  0  0  0  0  0  0  0  0  0  0
   11.2549  -18.5329   19.9020 C   0  0  1  0  0  0  0  0  0  0  0  0
   12.5787  -18.5862   20.6540 C   0  0  0  0  0  0  0  0  0  0  0  0
   13.6161  -19.0212   19.6970 C   0  0  0  0  0  0  0  0  0  0  0  0
   13.7477  -20.2033   19.2997 O   0  0  0  0  0  0  0  0  0  0  0  0
   10.1908  -18.0787   20.8329 C   0  0  0  0  0  0  0  0  0  0  0  0
    9.7533  -18.8477   21.7250 O   0  0  0  0  0  0  0  0  0  0  0  0
   14.4970  -18.0639   19.2091 O   0  0  0  0  0  0  0  0  0  0  0  0
    9.6270  -16.7713   20.7576 N   0  0  0  0  0  0  0  0  0  0  0  0
    8.5035  -16.3403   21.5253 C   0  0  0  0  0  0  0  0  0  0  0  0
    8.9199  -15.7689   22.8540 C   0  0  0  0  0  0  0  0  0  0  0  0
   10.1251  -15.8201   23.2059 O   0  0  0  0  0  0  0  0  0  0  0  0
    5.0708  -11.6366   26.1904 N   0  0  0  0  0  0  0  0  0  0  0  0
    6.3501  -11.6912   26.7881 C   0  0  0  0  0  0  0  0  0  0  0  0
    6.5621  -10.8737   27.7550 O   0  0  0  0  0  0  0  0  0  0  0  0
    7.4459  -12.5812   26.4265 C   0  0  0  0  0  0  0  0  0  0  0  0
    7.2404  -13.5238   25.3176 C   0  0  0  0  0  0  0  0  0  0  0  0
    8.3614  -14.4356   24.9447 C   0  0  2  0  0  0  0  0  0  0  0  0
    7.9670  -15.1724   23.7154 N   0  0  0  0  0  0  0  0  0  0  0  0
    8.8047  -15.3654   25.9649 C   0  0  0  0  0  0  0  0  0  0  0  0
    8.5085  -16.7082   26.0650 O   0  0  0  0  0  0  0  0  0  0  0  0
    9.5566  -14.9050   26.8986 O   0  0  0  0  0  0  0  0  0  0  0  0
  2  1  1  6
  2  3  1  0
  3  4  1  0
  4  8  1  0
  5  4  2  0
  6  7  2  0
  6  2  1  0
  9  6  1  0
 10  9  1  0
 10 11  1  0
 11 12  2  0
 13 14  1  0
 14 16  1  0
 14 15  2  0
 16 17  1  0
 18 17  1  1
 18 20  1  0
 19 11  1  0
 19 18  1  0
 20 21  1  0
 22 20  2  0
M  END
$$$$
