DGQ.pdb
     RDKit          3D

 22 21  0  0  1  0  0  0  0  0999 V2000
    6.5135  -19.4430   23.6812 N   0  0  0  0  0  0  0  0  0  0  0  0
    6.4252  -19.5830   22.2406 C   0  0  1  0  0  0  0  0  0  0  0  0
    4.9606  -19.3790   21.8746 C   0  0  0  0  0  0  0  0  0  0  0  0
    4.1992  -20.5105   22.4414 C   0  0  0  0  0  0  0  0  0  0  0  0
    4.7284  -21.5654   22.8654 O   0  0  0  0  0  0  0  0  0  0  0  0
    7.2326  -18.5072   21.6114 C   0  0  0  0  0  0  0  0  0  0  0  0
    7.2798  -18.3939   20.3609 O   0  0  0  0  0  0  0  0  0  0  0  0
    2.8159  -20.3986   22.5081 O   0  0  0  0  0  0  0  0  0  0  0  0
    7.9783  -17.5700   22.3849 N   0  0  0  0  0  0  0  0  0  0  0  0
    8.7231  -16.4873   21.8277 C   0  0  0  0  0  0  0  0  0  0  0  0
    9.3417  -15.6257   22.8956 C   0  0  0  0  0  0  0  0  0  0  0  0
   10.1681  -14.7341   22.5779 O   0  0  0  0  0  0  0  0  0  0  0  0
    9.1473  -16.2412   29.1633 N   0  0  0  0  0  0  0  0  0  0  0  0
    9.4048  -14.8713   28.9310 C   0  0  0  0  0  0  0  0  0  0  0  0
    9.7688  -14.1797   29.9495 O   0  0  0  0  0  0  0  0  0  0  0  0
    9.3075  -14.1678   27.6585 C   0  0  0  0  0  0  0  0  0  0  0  0
    8.8175  -14.9099   26.4883 C   0  0  0  0  0  0  0  0  0  0  0  0
    9.7607  -15.1555   25.3582 C   0  0  2  0  0  0  0  0  0  0  0  0
    9.0027  -15.8082   24.2585 N   0  0  0  0  0  0  0  0  0  0  0  0
   10.9534  -15.9199   25.6663 C   0  0  0  0  0  0  0  0  0  0  0  0
   11.0725  -17.2901   25.7629 O   0  0  0  0  0  0  0  0  0  0  0  0
   12.0358  -15.2648   25.8855 O   0  0  0  0  0  0  0  0  0  0  0  0
  2  1  1  1
  2  3  1  0
  3  4  1  0
  4  8  1  0
  5  4  2  0
  6  7  2  0
  6  2  1  0
  9  6  1  0
 10  9  1  0
 10 11  1  0
 11 12  2  0
 13 14  1  0
 14 16  1  0
 14 15  2  0
 16 17  1  0
 18 17  1  1
 18 20  1  0
 19 11  1  0
 19 18  1  0
 20 21  1  0
 22 20  2  0
M  END
$$$$
