DGQ.pdb
     RDKit          3D

 22 21  0  0  1  0  0  0  0  0999 V2000
   10.1403  -17.0863   18.9456 N   0  0  0  0  0  0  0  0  0  0  0  0
    8.7882  -17.0127   18.4267 C   0  0  1  0  0  0  0  0  0  0  0  0
    8.3463  -18.4469   18.1647 C   0  0  0  0  0  0  0  0  0  0  0  0
    8.9964  -18.8909   16.9151 C   0  0  0  0  0  0  0  0  0  0  0  0
    8.4052  -18.9754   15.8124 O   0  0  0  0  0  0  0  0  0  0  0  0
    7.9131  -16.4229   19.4714 C   0  0  0  0  0  0  0  0  0  0  0  0
    6.6760  -16.3146   19.2802 O   0  0  0  0  0  0  0  0  0  0  0  0
   10.3416  -19.2348   16.9654 O   0  0  0  0  0  0  0  0  0  0  0  0
    8.4285  -15.9606   20.7177 N   0  0  0  0  0  0  0  0  0  0  0  0
    7.6174  -15.4736   21.7865 C   0  0  0  0  0  0  0  0  0  0  0  0
    8.4237  -15.2276   23.0334 C   0  0  0  0  0  0  0  0  0  0  0  0
    9.6666  -15.4114   23.0199 O   0  0  0  0  0  0  0  0  0  0  0  0
    5.1720  -10.9301   26.7402 N   0  0  0  0  0  0  0  0  0  0  0  0
    6.0541  -12.0035   26.9982 C   0  0  0  0  0  0  0  0  0  0  0  0
    6.0326  -12.4846   28.1883 O   0  0  0  0  0  0  0  0  0  0  0  0
    6.9760  -12.6226   26.0546 C   0  0  0  0  0  0  0  0  0  0  0  0
    7.6419  -13.8719   26.4495 C   0  0  0  0  0  0  0  0  0  0  0  0
    8.5614  -14.5252   25.4724 C   0  0  2  0  0  0  0  0  0  0  0  0
    7.7966  -14.7900   24.2255 N   0  0  0  0  0  0  0  0  0  0  0  0
    9.2253  -15.7343   25.9185 C   0  0  0  0  0  0  0  0  0  0  0  0
   10.3931  -15.8335   26.6448 O   0  0  0  0  0  0  0  0  0  0  0  0
    8.6842  -16.8562   25.6062 O   0  0  0  0  0  0  0  0  0  0  0  0
  2  1  1  1
  2  3  1  0
  3  4  1  0
  4  8  1  0
  5  4  2  0
  6  7  2  0
  6  2  1  0
  9  6  1  0
 10  9  1  0
 10 11  1  0
 11 12  2  0
 13 14  1  0
 14 16  1  0
 14 15  2  0
 16 17  1  0
 18 17  1  1
 18 20  1  0
 19 11  1  0
 19 18  1  0
 20 21  1  0
 22 20  2  0
M  END
$$$$
