DGQ.pdb
     RDKit          3D

 22 21  0  0  1  0  0  0  0  0999 V2000
   10.0272  -19.0876   19.2531 N   0  0  0  0  0  0  0  0  0  0  0  0
    9.8350  -17.7875   18.6401 C   0  0  1  0  0  0  0  0  0  0  0  0
    9.1859  -18.0393   17.2851 C   0  0  0  0  0  0  0  0  0  0  0  0
   10.2612  -18.3917   16.3359 C   0  0  0  0  0  0  0  0  0  0  0  0
   11.4168  -18.7313   16.6849 O   0  0  0  0  0  0  0  0  0  0  0  0
    8.8988  -17.0017   19.4835 C   0  0  0  0  0  0  0  0  0  0  0  0
    8.6260  -15.8101   19.1929 O   0  0  0  0  0  0  0  0  0  0  0  0
    9.9744  -18.3437   14.9773 O   0  0  0  0  0  0  0  0  0  0  0  0
    8.2777  -17.5547   20.6415 N   0  0  0  0  0  0  0  0  0  0  0  0
    7.3508  -16.8480   21.4654 C   0  0  0  0  0  0  0  0  0  0  0  0
    8.0479  -16.0490   22.5336 C   0  0  0  0  0  0  0  0  0  0  0  0
    9.3034  -16.0301   22.5802 O   0  0  0  0  0  0  0  0  0  0  0  0
    6.4534  -10.9776   27.9289 N   0  0  0  0  0  0  0  0  0  0  0  0
    6.2629  -11.9865   26.9579 C   0  0  0  0  0  0  0  0  0  0  0  0
    5.0475  -12.2391   26.6303 O   0  0  0  0  0  0  0  0  0  0  0  0
    7.2997  -12.7607   26.2878 C   0  0  0  0  0  0  0  0  0  0  0  0
    6.8960  -13.6918   25.2246 C   0  0  0  0  0  0  0  0  0  0  0  0
    7.9569  -14.4792   24.5306 C   0  0  2  0  0  0  0  0  0  0  0  0
    7.3038  -15.3158   23.4898 N   0  0  0  0  0  0  0  0  0  0  0  0
    8.8071  -15.2992   25.3710 C   0  0  0  0  0  0  0  0  0  0  0  0
   10.0202  -14.9561   25.9292 O   0  0  0  0  0  0  0  0  0  0  0  0
    8.4070  -16.4907   25.6339 O   0  0  0  0  0  0  0  0  0  0  0  0
  2  1  1  1
  2  3  1  0
  3  4  1  0
  4  8  1  0
  5  4  2  0
  6  7  2  0
  6  2  1  0
  9  6  1  0
 10  9  1  0
 10 11  1  0
 11 12  2  0
 13 14  1  0
 14 16  1  0
 14 15  2  0
 16 17  1  0
 18 17  1  1
 18 20  1  0
 19 11  1  0
 19 18  1  0
 20 21  1  0
 22 20  2  0
M  END
$$$$
