DGQ.pdb
     RDKit          3D

 22 21  0  0  1  0  0  0  0  0999 V2000
    9.8877  -18.5503   19.6222 N   0  0  0  0  0  0  0  0  0  0  0  0
    9.4007  -17.7118   18.5439 C   0  0  1  0  0  0  0  0  0  0  0  0
    8.6355  -18.6263   17.5959 C   0  0  0  0  0  0  0  0  0  0  0  0
    9.4835  -18.8428   16.4063 C   0  0  0  0  0  0  0  0  0  0  0  0
   10.7100  -19.0984   16.4605 O   0  0  0  0  0  0  0  0  0  0  0  0
    8.4607  -16.7119   19.1112 C   0  0  0  0  0  0  0  0  0  0  0  0
    7.8729  -15.8925   18.3618 O   0  0  0  0  0  0  0  0  0  0  0  0
    8.8864  -18.7582   15.1546 O   0  0  0  0  0  0  0  0  0  0  0  0
    8.1873  -16.6379   20.5086 N   0  0  0  0  0  0  0  0  0  0  0  0
    7.4166  -15.6026   21.1182 C   0  0  0  0  0  0  0  0  0  0  0  0
    7.9396  -15.2460   22.4837 C   0  0  0  0  0  0  0  0  0  0  0  0
    9.1785  -15.1605   22.6753 O   0  0  0  0  0  0  0  0  0  0  0  0
    6.3945  -11.0811   25.9841 N   0  0  0  0  0  0  0  0  0  0  0  0
    6.5101  -11.9960   27.0550 C   0  0  0  0  0  0  0  0  0  0  0  0
    6.6444  -11.4875   28.2262 O   0  0  0  0  0  0  0  0  0  0  0  0
    6.4849  -13.4503   26.9678 C   0  0  0  0  0  0  0  0  0  0  0  0
    6.2940  -14.0656   25.6467 C   0  0  0  0  0  0  0  0  0  0  0  0
    7.5036  -14.4196   24.8475 C   0  0  2  0  0  0  0  0  0  0  0  0
    7.0497  -15.0050   23.5587 N   0  0  0  0  0  0  0  0  0  0  0  0
    8.4652  -15.2975   25.4849 C   0  0  0  0  0  0  0  0  0  0  0  0
    8.3590  -16.6576   25.6845 O   0  0  0  0  0  0  0  0  0  0  0  0
    9.5467  -14.7670   25.9296 O   0  0  0  0  0  0  0  0  0  0  0  0
  2  1  1  1
  2  3  1  0
  3  4  1  0
  4  8  1  0
  5  4  2  0
  6  7  2  0
  6  2  1  0
  9  6  1  0
 10  9  1  0
 10 11  1  0
 11 12  2  0
 13 14  1  0
 14 16  1  0
 14 15  2  0
 16 17  1  0
 18 17  1  1
 18 20  1  0
 19 11  1  0
 19 18  1  0
 20 21  1  0
 22 20  2  0
M  END
$$$$
