DGQ.pdb
     RDKit          3D

 22 21  0  0  1  0  0  0  0  0999 V2000
   11.4007  -17.2685   19.6441 N   0  0  0  0  0  0  0  0  0  0  0  0
   11.5142  -18.5422   20.3280 C   0  0  1  0  0  0  0  0  0  0  0  0
   12.9814  -18.7015   20.7058 C   0  0  0  0  0  0  0  0  0  0  0  0
   13.7568  -18.7846   19.4516 C   0  0  0  0  0  0  0  0  0  0  0  0
   13.2898  -19.2123   18.3692 O   0  0  0  0  0  0  0  0  0  0  0  0
   10.7012  -18.4856   21.5693 C   0  0  0  0  0  0  0  0  0  0  0  0
    9.9949  -19.4659   21.9140 O   0  0  0  0  0  0  0  0  0  0  0  0
   15.0808  -18.3639   19.4734 O   0  0  0  0  0  0  0  0  0  0  0  0
   10.6855  -17.3356   22.4119 N   0  0  0  0  0  0  0  0  0  0  0  0
    9.9590  -17.2530   23.6377 C   0  0  0  0  0  0  0  0  0  0  0  0
   10.8756  -17.1073   24.8226 C   0  0  0  0  0  0  0  0  0  0  0  0
   12.1167  -17.2323   24.6713 O   0  0  0  0  0  0  0  0  0  0  0  0
   10.0420  -12.4745   28.6940 N   0  0  0  0  0  0  0  0  0  0  0  0
    9.1948  -13.3591   27.9892 C   0  0  0  0  0  0  0  0  0  0  0  0
    8.0289  -12.9129   27.6891 O   0  0  0  0  0  0  0  0  0  0  0  0
    9.5096  -14.7166   27.5633 C   0  0  0  0  0  0  0  0  0  0  0  0
   10.8478  -15.2470   27.8605 C   0  0  0  0  0  0  0  0  0  0  0  0
   11.2326  -16.5671   27.2805 C   0  0  2  0  0  0  0  0  0  0  0  0
   10.3548  -16.8300   26.1101 N   0  0  0  0  0  0  0  0  0  0  0  0
   11.2141  -17.7002   28.1846 C   0  0  0  0  0  0  0  0  0  0  0  0
   10.3589  -18.7814   28.1605 O   0  0  0  0  0  0  0  0  0  0  0  0
   12.0824  -17.7167   29.1305 O   0  0  0  0  0  0  0  0  0  0  0  0
  2  1  1  1
  2  3  1  0
  3  4  1  0
  4  8  1  0
  5  4  2  0
  6  7  2  0
  6  2  1  0
  9  6  1  0
 10  9  1  0
 10 11  1  0
 11 12  2  0
 13 14  1  0
 14 16  1  0
 14 15  2  0
 16 17  1  0
 18 17  1  1
 18 20  1  0
 19 11  1  0
 19 18  1  0
 20 21  1  0
 22 20  2  0
M  END
$$$$
