DGQ.pdb
     RDKit          3D

 22 21  0  0  1  0  0  0  0  0999 V2000
   10.0654  -13.6343   18.2748 N   0  0  0  0  0  0  0  0  0  0  0  0
    8.8367  -13.0586   18.7865 C   0  0  1  0  0  0  0  0  0  0  0  0
    7.8187  -13.1355   17.6559 C   0  0  0  0  0  0  0  0  0  0  0  0
    8.1045  -14.3612   16.8832 C   0  0  0  0  0  0  0  0  0  0  0  0
    7.3159  -15.3325   16.7978 O   0  0  0  0  0  0  0  0  0  0  0  0
    8.3611  -13.8921   19.9197 C   0  0  0  0  0  0  0  0  0  0  0  0
    7.3574  -13.5434   20.5903 O   0  0  0  0  0  0  0  0  0  0  0  0
    9.3184  -14.4418   16.2120 O   0  0  0  0  0  0  0  0  0  0  0  0
    9.0110  -15.1054   20.2917 N   0  0  0  0  0  0  0  0  0  0  0  0
    8.5335  -15.9891   21.3058 C   0  0  0  0  0  0  0  0  0  0  0  0
    8.9323  -15.5288   22.6822 C   0  0  0  0  0  0  0  0  0  0  0  0
   10.0295  -15.8980   23.1707 O   0  0  0  0  0  0  0  0  0  0  0  0
    5.0005  -11.9049   26.5640 N   0  0  0  0  0  0  0  0  0  0  0  0
    6.1956  -12.2173   27.2504 C   0  0  0  0  0  0  0  0  0  0  0  0
    6.2912  -11.7820   28.4544 O   0  0  0  0  0  0  0  0  0  0  0  0
    7.3223  -12.9858   26.7370 C   0  0  0  0  0  0  0  0  0  0  0  0
    7.2649  -13.4624   25.3478 C   0  0  0  0  0  0  0  0  0  0  0  0
    8.4053  -14.2725   24.8280 C   0  0  2  0  0  0  0  0  0  0  0  0
    8.0834  -14.6820   23.4358 N   0  0  0  0  0  0  0  0  0  0  0  0
    8.7877  -15.4291   25.6141 C   0  0  0  0  0  0  0  0  0  0  0  0
    8.2449  -16.6956   25.5657 O   0  0  0  0  0  0  0  0  0  0  0  0
    9.7359  -15.2778   26.4667 O   0  0  0  0  0  0  0  0  0  0  0  0
  2  1  1  6
  2  3  1  0
  3  4  1  0
  4  8  1  0
  5  4  2  0
  6  7  2  0
  6  2  1  0
  9  6  1  0
 10  9  1  0
 10 11  1  0
 11 12  2  0
 13 14  1  0
 14 16  1  0
 14 15  2  0
 16 17  1  0
 18 17  1  1
 18 20  1  0
 19 11  1  0
 19 18  1  0
 20 21  1  0
 22 20  2  0
M  END
$$$$
