DGQ.pdb
     RDKit          3D

 22 21  0  0  1  0  0  0  0  0999 V2000
    9.9350  -18.8262   20.1961 N   0  0  0  0  0  0  0  0  0  0  0  0
   10.3870  -17.5281   19.7340 C   0  0  1  0  0  0  0  0  0  0  0  0
   10.0435  -17.4524   18.2518 C   0  0  0  0  0  0  0  0  0  0  0  0
   11.2278  -17.9098   17.4973 C   0  0  0  0  0  0  0  0  0  0  0  0
   12.4100  -17.7072   17.8636 O   0  0  0  0  0  0  0  0  0  0  0  0
    9.6265  -16.4782   20.4583 C   0  0  0  0  0  0  0  0  0  0  0  0
    9.9796  -15.2743   20.3910 O   0  0  0  0  0  0  0  0  0  0  0  0
   11.0189  -18.6051   16.3127 O   0  0  0  0  0  0  0  0  0  0  0  0
    8.4805  -16.7839   21.2496 N   0  0  0  0  0  0  0  0  0  0  0  0
    7.7987  -15.8343   22.0685 C   0  0  0  0  0  0  0  0  0  0  0  0
    8.5600  -15.5366   23.3323 C   0  0  0  0  0  0  0  0  0  0  0  0
    9.7630  -15.8850   23.4336 O   0  0  0  0  0  0  0  0  0  0  0  0
    5.8661  -10.4046   26.6789 N   0  0  0  0  0  0  0  0  0  0  0  0
    6.1559  -11.7836   26.7866 C   0  0  0  0  0  0  0  0  0  0  0  0
    5.5668  -12.4167   27.7355 O   0  0  0  0  0  0  0  0  0  0  0  0
    7.0445  -12.5588   25.9306 C   0  0  0  0  0  0  0  0  0  0  0  0
    7.7511  -13.7062   26.5176 C   0  0  0  0  0  0  0  0  0  0  0  0
    8.6734  -14.4924   25.6469 C   0  0  2  0  0  0  0  0  0  0  0  0
    7.9350  -14.8665   24.4122 N   0  0  0  0  0  0  0  0  0  0  0  0
    9.2801  -15.6667   26.2424 C   0  0  0  0  0  0  0  0  0  0  0  0
   10.4290  -15.7261   27.0023 O   0  0  0  0  0  0  0  0  0  0  0  0
    8.7007  -16.7959   26.0466 O   0  0  0  0  0  0  0  0  0  0  0  0
  2  1  1  1
  2  3  1  0
  3  4  1  0
  4  8  1  0
  5  4  2  0
  6  7  2  0
  6  2  1  0
  9  6  1  0
 10  9  1  0
 10 11  1  0
 11 12  2  0
 13 14  1  0
 14 16  1  0
 14 15  2  0
 16 17  1  0
 18 17  1  1
 18 20  1  0
 19 11  1  0
 19 18  1  0
 20 21  1  0
 22 20  2  0
M  END
$$$$
