DGQ.pdb
     RDKit          3D

 22 21  0  0  1  0  0  0  0  0999 V2000
    7.4831  -17.9389   18.3864 N   0  0  0  0  0  0  0  0  0  0  0  0
    8.6237  -17.0527   18.5152 C   0  0  1  0  0  0  0  0  0  0  0  0
    8.5890  -16.1240   17.3081 C   0  0  0  0  0  0  0  0  0  0  0  0
    9.2530  -16.8239   16.1898 C   0  0  0  0  0  0  0  0  0  0  0  0
   10.2944  -17.5111   16.3162 O   0  0  0  0  0  0  0  0  0  0  0  0
    8.4561  -16.2440   19.7493 C   0  0  0  0  0  0  0  0  0  0  0  0
    9.2946  -15.3577   20.0495 O   0  0  0  0  0  0  0  0  0  0  0  0
    8.6900  -16.7139   14.9244 O   0  0  0  0  0  0  0  0  0  0  0  0
    7.3546  -16.4336   20.6345 N   0  0  0  0  0  0  0  0  0  0  0  0
    7.1242  -15.6472   21.8032 C   0  0  0  0  0  0  0  0  0  0  0  0
    8.0663  -16.0132   22.9185 C   0  0  0  0  0  0  0  0  0  0  0  0
    8.8864  -16.9520   22.7605 O   0  0  0  0  0  0  0  0  0  0  0  0
   10.4486  -13.4276   29.6175 N   0  0  0  0  0  0  0  0  0  0  0  0
    9.6905  -13.5430   28.4305 C   0  0  0  0  0  0  0  0  0  0  0  0
    8.8610  -12.5931   28.1902 O   0  0  0  0  0  0  0  0  0  0  0  0
    9.7587  -14.6206   27.4519 C   0  0  0  0  0  0  0  0  0  0  0  0
    8.8821  -14.5483   26.2743 C   0  0  0  0  0  0  0  0  0  0  0  0
    8.9358  -15.6605   25.2807 C   0  0  2  0  0  0  0  0  0  0  0  0
    8.0396  -15.3102   24.1477 N   0  0  0  0  0  0  0  0  0  0  0  0
    8.6210  -16.9859   25.7766 C   0  0  0  0  0  0  0  0  0  0  0  0
    9.4847  -17.8988   26.3435 O   0  0  0  0  0  0  0  0  0  0  0  0
    7.4025  -17.3796   25.6805 O   0  0  0  0  0  0  0  0  0  0  0  0
  2  1  1  6
  2  3  1  0
  3  4  1  0
  4  8  1  0
  5  4  2  0
  6  7  2  0
  6  2  1  0
  9  6  1  0
 10  9  1  0
 10 11  1  0
 11 12  2  0
 13 14  1  0
 14 16  1  0
 14 15  2  0
 16 17  1  0
 18 17  1  1
 18 20  1  0
 19 11  1  0
 19 18  1  0
 20 21  1  0
 22 20  2  0
M  END
$$$$
