DGQ.pdb
     RDKit          3D

 22 21  0  0  1  0  0  0  0  0999 V2000
    8.1404  -16.9297   19.8896 N   0  0  0  0  0  0  0  0  0  0  0  0
    6.7889  -17.4554   19.8844 C   0  0  1  0  0  0  0  0  0  0  0  0
    6.8978  -18.9263   19.5035 C   0  0  0  0  0  0  0  0  0  0  0  0
    7.9182  -19.0359   18.4413 C   0  0  0  0  0  0  0  0  0  0  0  0
    7.6477  -19.1961   17.2273 O   0  0  0  0  0  0  0  0  0  0  0  0
    6.2377  -17.3540   21.2595 C   0  0  0  0  0  0  0  0  0  0  0  0
    5.1065  -17.8296   21.5296 O   0  0  0  0  0  0  0  0  0  0  0  0
    9.2555  -18.9566   18.8099 O   0  0  0  0  0  0  0  0  0  0  0  0
    6.9552  -16.7232   22.3178 N   0  0  0  0  0  0  0  0  0  0  0  0
    6.4353  -16.5333   23.6335 C   0  0  0  0  0  0  0  0  0  0  0  0
    7.4338  -15.8624   24.5381 C   0  0  0  0  0  0  0  0  0  0  0  0
    8.6368  -15.7763   24.1857 O   0  0  0  0  0  0  0  0  0  0  0  0
    6.1563  -11.7678   24.6525 N   0  0  0  0  0  0  0  0  0  0  0  0
    6.8151  -11.9724   25.8859 C   0  0  0  0  0  0  0  0  0  0  0  0
    7.9682  -11.4227   26.0134 O   0  0  0  0  0  0  0  0  0  0  0  0
    6.3190  -12.7333   27.0253 C   0  0  0  0  0  0  0  0  0  0  0  0
    7.1935  -13.7590   27.6116 C   0  0  0  0  0  0  0  0  0  0  0  0
    7.9835  -14.6282   26.6911 C   0  0  2  0  0  0  0  0  0  0  0  0
    7.0327  -15.3252   25.7857 N   0  0  0  0  0  0  0  0  0  0  0  0
    8.8754  -15.5866   27.3138 C   0  0  0  0  0  0  0  0  0  0  0  0
   10.1128  -15.3446   27.8718 O   0  0  0  0  0  0  0  0  0  0  0  0
    8.4919  -16.8113   27.3557 O   0  0  0  0  0  0  0  0  0  0  0  0
  2  1  1  1
  2  3  1  0
  3  4  1  0
  4  8  1  0
  5  4  2  0
  6  7  2  0
  6  2  1  0
  9  6  1  0
 10  9  1  0
 10 11  1  0
 11 12  2  0
 13 14  1  0
 14 16  1  0
 14 15  2  0
 16 17  1  0
 18 17  1  1
 18 20  1  0
 19 11  1  0
 19 18  1  0
 20 21  1  0
 22 20  2  0
M  END
$$$$
