QHP.pdb
     RDKit          3D

 27 28  0  0  1  0  0  0  0  0999 V2000
   10.4386  -20.6101   23.1876 N   0  0  0  0  0  0  0  0  0  0  0  0
   11.7283  -19.9965   23.4267 C   0  0  0  0  0  0  0  0  0  0  0  0
   12.3852  -20.4530   24.3765 O   0  0  0  0  0  0  0  0  0  0  0  0
   12.2088  -18.8979   22.5865 C   0  0  0  0  0  0  0  0  0  0  0  0
   11.2949  -18.4722   21.5192 C   0  0  0  0  0  0  0  0  0  0  0  0
   11.0226  -17.0304   21.3240 C   0  0  2  0  0  0  0  0  0  0  0  0
   12.2543  -16.4294   20.7147 N   0  0  0  0  0  0  0  0  0  0  0  0
   10.6990  -16.2059   22.4742 C   0  0  0  0  0  0  0  0  0  0  0  0
   11.5792  -15.6179   23.1542 O   0  0  0  0  0  0  0  0  0  0  0  0
    9.3381  -16.0165   22.8897 N   0  0  0  0  0  0  0  0  0  0  0  0
    8.9796  -15.2170   24.0624 C   0  0  1  0  0  0  0  0  0  0  0  0
    7.4850  -14.9658   24.0557 C   0  0  0  0  0  0  0  0  0  0  0  0
    7.0519  -14.1040   25.2115 C   0  0  0  0  0  0  0  0  0  0  0  0
    6.3394  -14.5833   26.3041 C   0  0  0  0  0  0  0  0  0  0  0  0
    6.1389  -13.5442   27.1120 N   0  0  0  0  0  0  0  0  0  0  0  0
    6.6952  -12.4489   26.5663 C   0  0  0  0  0  0  0  0  0  0  0  0
    7.2476  -12.7987   25.4118 N   0  0  0  0  0  0  0  0  0  0  0  0
    9.3054  -16.0139   25.2597 C   0  0  0  0  0  0  0  0  0  0  0  0
    9.4497  -17.2819   25.1394 O   0  0  0  0  0  0  0  0  0  0  0  0
    9.4721  -15.4633   26.5402 N   0  0  0  0  0  0  0  0  0  0  0  0
    8.8235  -14.2081   26.9695 C   0  0  0  0  0  0  0  0  0  0  0  0
    9.9989  -13.4572   27.5494 C   0  0  0  0  0  0  0  0  0  0  0  0
   10.8252  -14.5413   28.1760 C   0  0  0  0  0  0  0  0  0  0  0  0
   10.2315  -15.8568   27.6967 C   0  0  1  0  0  0  0  0  0  0  0  0
    9.2967  -16.3872   28.7620 C   0  0  0  0  0  0  0  0  0  0  0  0
    8.0579  -16.3260   28.5929 O   0  0  0  0  0  0  0  0  0  0  0  0
    9.7552  -16.9485   29.9412 O   0  0  0  0  0  0  0  0  0  0  0  0
  2  4  1  0
  2  1  1  0
  3  2  2  0
  5  4  1  0
  6  8  1  0
  6  5  1  0
  6  7  1  1
  8  9  2  0
 10 11  1  0
 10  8  1  0
 11 12  1  6
 12 13  1  0
 13 14  2  0
 13 17  1  0
 14 15  1  0
 15 16  1  0
 17 16  2  0
 18 20  1  0
 18 11  1  0
 19 18  2  0
 20 24  1  0
 21 22  1  0
 21 20  1  0
 22 23  1  0
 23 24  1  0
 24 25  1  1
 25 27  1  0
 26 25  2  0
M  END
$$$$
