QHP.pdb
     RDKit          3D

 27 28  0  0  1  0  0  0  0  0999 V2000
    7.7223  -13.1506   15.8156 N   0  0  0  0  0  0  0  0  0  0  0  0
    8.5398  -14.1376   16.4900 C   0  0  0  0  0  0  0  0  0  0  0  0
    9.6526  -14.3637   15.9876 O   0  0  0  0  0  0  0  0  0  0  0  0
    8.0594  -14.8213   17.6922 C   0  0  0  0  0  0  0  0  0  0  0  0
    8.0910  -14.0267   18.9265 C   0  0  0  0  0  0  0  0  0  0  0  0
    8.9278  -14.4757   20.0618 C   0  0  2  0  0  0  0  0  0  0  0  0
    9.2960  -15.9055   19.7976 N   0  0  0  0  0  0  0  0  0  0  0  0
    8.3798  -14.4429   21.4057 C   0  0  0  0  0  0  0  0  0  0  0  0
    7.9252  -13.3911   21.9254 O   0  0  0  0  0  0  0  0  0  0  0  0
    8.3256  -15.6293   22.2121 N   0  0  0  0  0  0  0  0  0  0  0  0
    7.6864  -15.6546   23.5287 C   0  0  1  0  0  0  0  0  0  0  0  0
    7.3841  -17.0906   23.9078 C   0  0  0  0  0  0  0  0  0  0  0  0
    6.3975  -17.7277   22.9661 C   0  0  0  0  0  0  0  0  0  0  0  0
    5.0270  -17.5041   23.0207 C   0  0  0  0  0  0  0  0  0  0  0  0
    4.4851  -18.2281   22.0437 N   0  0  0  0  0  0  0  0  0  0  0  0
    5.4591  -18.8862   21.3915 C   0  0  0  0  0  0  0  0  0  0  0  0
    6.6175  -18.5759   21.9591 N   0  0  0  0  0  0  0  0  0  0  0  0
    8.6545  -15.1173   24.5029 C   0  0  0  0  0  0  0  0  0  0  0  0
    9.9074  -15.2720   24.2808 O   0  0  0  0  0  0  0  0  0  0  0  0
    8.2851  -14.4353   25.6730 N   0  0  0  0  0  0  0  0  0  0  0  0
    6.8796  -14.2138   26.0682 C   0  0  0  0  0  0  0  0  0  0  0  0
    6.8911  -12.7325   26.3641 C   0  0  0  0  0  0  0  0  0  0  0  0
    8.2511  -12.5100   26.9570 C   0  0  0  0  0  0  0  0  0  0  0  0
    9.0301  -13.7951   26.7237 C   0  0  1  0  0  0  0  0  0  0  0  0
    8.9668  -14.6388   27.9783 C   0  0  0  0  0  0  0  0  0  0  0  0
    8.0727  -15.5059   28.1036 O   0  0  0  0  0  0  0  0  0  0  0  0
    9.8691  -14.4944   29.0179 O   0  0  0  0  0  0  0  0  0  0  0  0
  2  4  1  0
  2  1  1  0
  3  2  2  0
  5  4  1  0
  6  8  1  0
  6  5  1  0
  6  7  1  6
  8  9  2  0
 10 11  1  0
 10  8  1  0
 11 12  1  1
 12 13  1  0
 13 14  2  0
 13 17  1  0
 14 15  1  0
 15 16  1  0
 17 16  2  0
 18 20  1  0
 18 11  1  0
 19 18  2  0
 20 24  1  0
 21 22  1  0
 21 20  1  0
 22 23  1  0
 23 24  1  0
 24 25  1  1
 25 27  1  0
 26 25  2  0
M  END
$$$$
