QHP.pdb
     RDKit          3D

 27 28  0  0  1  0  0  0  0  0999 V2000
    8.8925  -13.3701   15.9741 N   0  0  0  0  0  0  0  0  0  0  0  0
    8.1181  -14.1812   16.8905 C   0  0  0  0  0  0  0  0  0  0  0  0
    7.8263  -15.3231   16.4997 O   0  0  0  0  0  0  0  0  0  0  0  0
    7.7093  -13.6621   18.1970 C   0  0  0  0  0  0  0  0  0  0  0  0
    8.7375  -13.7051   19.2442 C   0  0  0  0  0  0  0  0  0  0  0  0
    8.8689  -14.9140   20.0881 C   0  0  2  0  0  0  0  0  0  0  0  0
    8.4348  -16.0819   19.2531 N   0  0  0  0  0  0  0  0  0  0  0  0
    8.1158  -15.0023   21.3261 C   0  0  0  0  0  0  0  0  0  0  0  0
    6.8744  -14.8043   21.3784 O   0  0  0  0  0  0  0  0  0  0  0  0
    8.7633  -15.3307   22.5644 N   0  0  0  0  0  0  0  0  0  0  0  0
    8.0294  -15.4550   23.8249 C   0  0  1  0  0  0  0  0  0  0  0  0
    7.9807  -16.9144   24.2308 C   0  0  0  0  0  0  0  0  0  0  0  0
    7.0845  -17.7217   23.3301 C   0  0  0  0  0  0  0  0  0  0  0  0
    5.7423  -17.4302   23.1184 C   0  0  0  0  0  0  0  0  0  0  0  0
    5.2828  -18.3503   22.2730 N   0  0  0  0  0  0  0  0  0  0  0  0
    6.2804  -19.1935   21.9556 C   0  0  0  0  0  0  0  0  0  0  0  0
    7.3712  -18.8036   22.6026 N   0  0  0  0  0  0  0  0  0  0  0  0
    8.7861  -14.7178   24.8539 C   0  0  0  0  0  0  0  0  0  0  0  0
   10.0455  -14.5436   24.6907 O   0  0  0  0  0  0  0  0  0  0  0  0
    8.2053  -14.1853   26.0157 N   0  0  0  0  0  0  0  0  0  0  0  0
    6.7711  -14.3255   26.3380 C   0  0  0  0  0  0  0  0  0  0  0  0
    6.4055  -12.8966   26.6641 C   0  0  0  0  0  0  0  0  0  0  0  0
    7.6396  -12.3696   27.3348 C   0  0  0  0  0  0  0  0  0  0  0  0
    8.7197  -13.4181   27.1183 C   0  0  1  0  0  0  0  0  0  0  0  0
    8.8046  -14.2928   28.3502 C   0  0  0  0  0  0  0  0  0  0  0  0
    8.1581  -15.3635   28.4020 O   0  0  0  0  0  0  0  0  0  0  0  0
    9.5791  -13.9586   29.4477 O   0  0  0  0  0  0  0  0  0  0  0  0
  2  4  1  0
  2  1  1  0
  3  2  2  0
  5  4  1  0
  6  8  1  0
  6  5  1  0
  6  7  1  6
  8  9  2  0
 10 11  1  0
 10  8  1  0
 11 12  1  1
 12 13  1  0
 13 14  2  0
 13 17  1  0
 14 15  1  0
 15 16  1  0
 17 16  2  0
 18 20  1  0
 18 11  1  0
 19 18  2  0
 20 24  1  0
 21 22  1  0
 21 20  1  0
 22 23  1  0
 23 24  1  0
 24 25  1  1
 25 27  1  0
 26 25  2  0
M  END
$$$$
