QHP.pdb
     RDKit          3D

 27 28  0  0  1  0  0  0  0  0999 V2000
   13.7871  -14.4111   17.4674 N   0  0  0  0  0  0  0  0  0  0  0  0
   14.3804  -14.0637   18.7420 C   0  0  0  0  0  0  0  0  0  0  0  0
   15.2854  -13.2141   18.7122 O   0  0  0  0  0  0  0  0  0  0  0  0
   13.9263  -14.6947   19.9827 C   0  0  0  0  0  0  0  0  0  0  0  0
   12.8443  -15.6758   19.8336 C   0  0  0  0  0  0  0  0  0  0  0  0
   12.3350  -16.3871   21.0276 C   0  0  2  0  0  0  0  0  0  0  0  0
   11.2919  -17.3539   20.5513 N   0  0  0  0  0  0  0  0  0  0  0  0
   11.7190  -15.6261   22.0996 C   0  0  0  0  0  0  0  0  0  0  0  0
   12.3611  -14.8002   22.7985 O   0  0  0  0  0  0  0  0  0  0  0  0
   10.3261  -15.7800   22.4107 N   0  0  0  0  0  0  0  0  0  0  0  0
    9.6792  -15.0448   23.4988 C   0  0  1  0  0  0  0  0  0  0  0  0
    8.1845  -15.0033   23.2518 C   0  0  0  0  0  0  0  0  0  0  0  0
    7.8432  -14.2909   21.9703 C   0  0  0  0  0  0  0  0  0  0  0  0
    7.1196  -14.8721   20.9360 C   0  0  0  0  0  0  0  0  0  0  0  0
    7.0163  -13.9508   19.9805 N   0  0  0  0  0  0  0  0  0  0  0  0
    7.6430  -12.8306   20.3798 C   0  0  0  0  0  0  0  0  0  0  0  0
    8.1423  -13.0467   21.5900 N   0  0  0  0  0  0  0  0  0  0  0  0
    9.9173  -15.7960   24.7454 C   0  0  0  0  0  0  0  0  0  0  0  0
   10.4227  -16.9717   24.6732 O   0  0  0  0  0  0  0  0  0  0  0  0
    9.6234  -15.2964   26.0239 N   0  0  0  0  0  0  0  0  0  0  0  0
    8.4829  -14.3991   26.2972 C   0  0  0  0  0  0  0  0  0  0  0  0
    9.1598  -13.2991   27.0804 C   0  0  0  0  0  0  0  0  0  0  0  0
   10.2008  -14.0316   27.8743 C   0  0  0  0  0  0  0  0  0  0  0  0
   10.2455  -15.4441   27.3124 C   0  0  1  0  0  0  0  0  0  0  0  0
    9.3981  -16.3437   28.1857 C   0  0  0  0  0  0  0  0  0  0  0  0
    8.2330  -16.6377   27.8348 O   0  0  0  0  0  0  0  0  0  0  0  0
    9.8586  -16.8682   29.3810 O   0  0  0  0  0  0  0  0  0  0  0  0
  2  4  1  0
  2  1  1  0
  3  2  2  0
  5  4  1  0
  6  8  1  0
  6  5  1  0
  6  7  1  6
  8  9  2  0
 10 11  1  0
 10  8  1  0
 11 12  1  6
 12 13  1  0
 13 14  2  0
 13 17  1  0
 14 15  1  0
 15 16  1  0
 17 16  2  0
 18 20  1  0
 18 11  1  0
 19 18  2  0
 20 24  1  0
 21 22  1  0
 21 20  1  0
 22 23  1  0
 23 24  1  0
 24 25  1  1
 25 27  1  0
 26 25  2  0
M  END
$$$$
