QHP.pdb
     RDKit          3D

 27 28  0  0  1  0  0  0  0  0999 V2000
   11.0169  -21.6044   22.4573 N   0  0  0  0  0  0  0  0  0  0  0  0
   12.2467  -20.8830   22.7109 C   0  0  0  0  0  0  0  0  0  0  0  0
   13.2484  -21.5754   22.9538 O   0  0  0  0  0  0  0  0  0  0  0  0
   12.2829  -19.4197   22.6820 C   0  0  0  0  0  0  0  0  0  0  0  0
   10.9971  -18.7606   22.4214 C   0  0  0  0  0  0  0  0  0  0  0  0
   10.9669  -17.5029   21.6415 C   0  0  2  0  0  0  0  0  0  0  0  0
   12.3711  -17.2329   21.1890 N   0  0  0  0  0  0  0  0  0  0  0  0
   10.5074  -16.2820   22.2786 C   0  0  0  0  0  0  0  0  0  0  0  0
   11.2332  -15.6103   23.0563 O   0  0  0  0  0  0  0  0  0  0  0  0
    9.1855  -15.7755   22.0408 N   0  0  0  0  0  0  0  0  0  0  0  0
    8.6101  -14.6837   22.8281 C   0  0  1  0  0  0  0  0  0  0  0  0
    7.3128  -14.2361   22.1850 C   0  0  0  0  0  0  0  0  0  0  0  0
    7.4931  -13.8899   20.7310 C   0  0  0  0  0  0  0  0  0  0  0  0
    8.0111  -12.6793   20.2868 C   0  0  0  0  0  0  0  0  0  0  0  0
    8.0198  -12.7353   18.9567 N   0  0  0  0  0  0  0  0  0  0  0  0
    7.5312  -13.9242   18.5632 C   0  0  0  0  0  0  0  0  0  0  0  0
    7.2139  -14.6189   19.6482 N   0  0  0  0  0  0  0  0  0  0  0  0
    8.2978  -15.2181   24.1667 C   0  0  0  0  0  0  0  0  0  0  0  0
    8.6022  -16.4341   24.4347 O   0  0  0  0  0  0  0  0  0  0  0  0
    7.6819  -14.4677   25.1807 N   0  0  0  0  0  0  0  0  0  0  0  0
    6.9315  -13.2228   24.9207 C   0  0  0  0  0  0  0  0  0  0  0  0
    7.5470  -12.2941   25.9407 C   0  0  0  0  0  0  0  0  0  0  0  0
    7.8159  -13.1954   27.1094 C   0  0  0  0  0  0  0  0  0  0  0  0
    7.5962  -14.6146   26.6090 C   0  0  1  0  0  0  0  0  0  0  0  0
    6.2004  -15.0564   26.9915 C   0  0  0  0  0  0  0  0  0  0  0  0
    5.2453  -14.8583   26.2069 O   0  0  0  0  0  0  0  0  0  0  0  0
    5.9219  -15.6820   28.1944 O   0  0  0  0  0  0  0  0  0  0  0  0
  2  4  1  0
  2  1  1  0
  3  2  2  0
  5  4  1  0
  6  8  1  0
  6  5  1  0
  6  7  1  1
  8  9  2  0
 10 11  1  0
 10  8  1  0
 11 12  1  6
 12 13  1  0
 13 14  2  0
 13 17  1  0
 14 15  1  0
 15 16  1  0
 17 16  2  0
 18 20  1  0
 18 11  1  0
 19 18  2  0
 20 24  1  0
 21 22  1  0
 21 20  1  0
 22 23  1  0
 23 24  1  0
 24 25  1  6
 25 27  1  0
 26 25  2  0
M  END
$$$$
