QHP.pdb
     RDKit          3D

 27 28  0  0  1  0  0  0  0  0999 V2000
    9.5466  -12.1619   18.8082 N   0  0  0  0  0  0  0  0  0  0  0  0
    8.8791  -13.1871   18.0332 C   0  0  0  0  0  0  0  0  0  0  0  0
    9.5777  -13.7864   17.1997 O   0  0  0  0  0  0  0  0  0  0  0  0
    7.4589  -13.4806   18.2345 C   0  0  0  0  0  0  0  0  0  0  0  0
    7.0454  -13.6760   19.6297 C   0  0  0  0  0  0  0  0  0  0  0  0
    7.9200  -14.4369   20.5499 C   0  0  2  0  0  0  0  0  0  0  0  0
    8.1382  -15.7866   19.9330 N   0  0  0  0  0  0  0  0  0  0  0  0
    7.4777  -14.6830   21.9105 C   0  0  0  0  0  0  0  0  0  0  0  0
    6.9522  -13.7891   22.6231 O   0  0  0  0  0  0  0  0  0  0  0  0
    7.6167  -15.9794   22.5110 N   0  0  0  0  0  0  0  0  0  0  0  0
    7.3572  -16.2181   23.9317 C   0  0  1  0  0  0  0  0  0  0  0  0
    7.4808  -17.7012   24.2181 C   0  0  0  0  0  0  0  0  0  0  0  0
    7.2582  -18.0161   25.6732 C   0  0  0  0  0  0  0  0  0  0  0  0
    6.9392  -17.0579   26.6278 C   0  0  0  0  0  0  0  0  0  0  0  0
    6.8202  -17.7017   27.7870 N   0  0  0  0  0  0  0  0  0  0  0  0
    7.0513  -19.0110   27.5888 C   0  0  0  0  0  0  0  0  0  0  0  0
    7.3165  -19.1925   26.3015 N   0  0  0  0  0  0  0  0  0  0  0  0
    8.4021  -15.5144   24.6984 C   0  0  0  0  0  0  0  0  0  0  0  0
    9.6016  -15.5052   24.2465 O   0  0  0  0  0  0  0  0  0  0  0  0
    8.1619  -14.8426   25.9074 N   0  0  0  0  0  0  0  0  0  0  0  0
    6.8625  -14.8815   26.6078 C   0  0  0  0  0  0  0  0  0  0  0  0
    6.6254  -13.4115   26.8622 C   0  0  0  0  0  0  0  0  0  0  0  0
    8.0038  -12.8806   27.1248 C   0  0  0  0  0  0  0  0  0  0  0  0
    8.9662  -13.9958   26.7471 C   0  0  1  0  0  0  0  0  0  0  0  0
    9.3580  -14.7477   28.0005 C   0  0  0  0  0  0  0  0  0  0  0  0
   10.2457  -14.2874   28.7535 O   0  0  0  0  0  0  0  0  0  0  0  0
    8.7698  -15.9473   28.3626 O   0  0  0  0  0  0  0  0  0  0  0  0
  2  4  1  0
  2  1  1  0
  3  2  2  0
  5  4  1  0
  6  8  1  0
  6  5  1  0
  6  7  1  6
  8  9  2  0
 10 11  1  0
 10  8  1  0
 11 12  1  6
 12 13  1  0
 13 14  2  0
 13 17  1  0
 14 15  1  0
 15 16  1  0
 17 16  2  0
 18 20  1  0
 18 11  1  0
 19 18  2  0
 20 24  1  0
 21 22  1  0
 21 20  1  0
 22 23  1  0
 23 24  1  0
 24 25  1  1
 25 27  1  0
 26 25  2  0
M  END
$$$$
