QHP.pdb
     RDKit          3D

 27 28  0  0  1  0  0  0  0  0999 V2000
    8.8121  -14.0313   16.6237 N   0  0  0  0  0  0  0  0  0  0  0  0
    8.9060  -13.5127   17.9726 C   0  0  0  0  0  0  0  0  0  0  0  0
   10.0385  -13.5106   18.4816 O   0  0  0  0  0  0  0  0  0  0  0  0
    7.7187  -13.0281   18.6790 C   0  0  0  0  0  0  0  0  0  0  0  0
    7.6994  -13.2754   20.1262 C   0  0  0  0  0  0  0  0  0  0  0  0
    7.8203  -14.6615   20.6309 C   0  0  2  0  0  0  0  0  0  0  0  0
    6.9428  -15.5207   19.7699 N   0  0  0  0  0  0  0  0  0  0  0  0
    7.4478  -14.9536   22.0033 C   0  0  0  0  0  0  0  0  0  0  0  0
    6.5027  -14.3636   22.5879 O   0  0  0  0  0  0  0  0  0  0  0  0
    8.1481  -15.9489   22.7645 N   0  0  0  0  0  0  0  0  0  0  0  0
    7.8377  -16.2256   24.1681 C   0  0  1  0  0  0  0  0  0  0  0  0
    7.7599  -17.7250   24.3744 C   0  0  0  0  0  0  0  0  0  0  0  0
    7.5676  -18.0867   25.8231 C   0  0  0  0  0  0  0  0  0  0  0  0
    8.5314  -18.7303   26.5898 C   0  0  0  0  0  0  0  0  0  0  0  0
    8.0106  -18.8813   27.8057 N   0  0  0  0  0  0  0  0  0  0  0  0
    6.7715  -18.3601   27.8214 C   0  0  0  0  0  0  0  0  0  0  0  0
    6.5111  -17.8797   26.6124 N   0  0  0  0  0  0  0  0  0  0  0  0
    8.9547  -15.7083   24.9803 C   0  0  0  0  0  0  0  0  0  0  0  0
   10.1505  -15.8215   24.5326 O   0  0  0  0  0  0  0  0  0  0  0  0
    8.7882  -15.0891   26.2291 N   0  0  0  0  0  0  0  0  0  0  0  0
    7.4735  -14.9313   26.8827 C   0  0  0  0  0  0  0  0  0  0  0  0
    7.5016  -13.4643   27.2416 C   0  0  0  0  0  0  0  0  0  0  0  0
    8.9410  -13.2219   27.5881 C   0  0  0  0  0  0  0  0  0  0  0  0
    9.6963  -14.4693   27.1565 C   0  0  1  0  0  0  0  0  0  0  0  0
    9.8843  -15.3668   28.3603 C   0  0  0  0  0  0  0  0  0  0  0  0
    9.1062  -16.3289   28.5499 O   0  0  0  0  0  0  0  0  0  0  0  0
   10.8970  -15.1706   29.2833 O   0  0  0  0  0  0  0  0  0  0  0  0
  2  4  1  0
  2  1  1  0
  3  2  2  0
  5  4  1  0
  6  8  1  0
  6  5  1  0
  6  7  1  6
  8  9  2  0
 10 11  1  0
 10  8  1  0
 11 12  1  6
 12 13  1  0
 13 14  2  0
 13 17  1  0
 14 15  1  0
 15 16  1  0
 17 16  2  0
 18 20  1  0
 18 11  1  0
 19 18  2  0
 20 24  1  0
 21 22  1  0
 21 20  1  0
 22 23  1  0
 23 24  1  0
 24 25  1  1
 25 27  1  0
 26 25  2  0
M  END
$$$$
