QHP.pdb
     RDKit          3D

 27 28  0  0  1  0  0  0  0  0999 V2000
    7.0698  -13.1174   16.7899 N   0  0  0  0  0  0  0  0  0  0  0  0
    8.4292  -13.5971   16.6511 C   0  0  0  0  0  0  0  0  0  0  0  0
    8.8912  -13.6099   15.4986 O   0  0  0  0  0  0  0  0  0  0  0  0
    9.1953  -14.0414   17.8170 C   0  0  0  0  0  0  0  0  0  0  0  0
    8.4734  -14.0151   19.0952 C   0  0  0  0  0  0  0  0  0  0  0  0
    9.1907  -14.3529   20.3451 C   0  0  2  0  0  0  0  0  0  0  0  0
    9.8040  -15.7073   20.1473 N   0  0  0  0  0  0  0  0  0  0  0  0
    8.4512  -14.4241   21.5923 C   0  0  0  0  0  0  0  0  0  0  0  0
    7.7185  -13.4856   21.9989 O   0  0  0  0  0  0  0  0  0  0  0  0
    8.5192  -15.5896   22.4275 N   0  0  0  0  0  0  0  0  0  0  0  0
    7.8308  -15.6723   23.7168 C   0  0  1  0  0  0  0  0  0  0  0  0
    7.6086  -17.1293   24.0698 C   0  0  0  0  0  0  0  0  0  0  0  0
    6.6690  -17.8067   23.1083 C   0  0  0  0  0  0  0  0  0  0  0  0
    5.4527  -17.2648   22.7104 C   0  0  0  0  0  0  0  0  0  0  0  0
    4.9067  -18.1370   21.8658 N   0  0  0  0  0  0  0  0  0  0  0  0
    5.7311  -19.1896   21.7263 C   0  0  0  0  0  0  0  0  0  0  0  0
    6.7992  -18.9800   22.4850 N   0  0  0  0  0  0  0  0  0  0  0  0
    8.7217  -15.0846   24.7345 C   0  0  0  0  0  0  0  0  0  0  0  0
    9.9888  -15.1217   24.5441 O   0  0  0  0  0  0  0  0  0  0  0  0
    8.2630  -14.4766   25.9137 N   0  0  0  0  0  0  0  0  0  0  0  0
    6.8388  -14.4416   26.3021 C   0  0  0  0  0  0  0  0  0  0  0  0
    6.6614  -12.9765   26.6243 C   0  0  0  0  0  0  0  0  0  0  0  0
    7.9793  -12.5952   27.2314 C   0  0  0  0  0  0  0  0  0  0  0  0
    8.9156  -13.7671   26.9812 C   0  0  1  0  0  0  0  0  0  0  0  0
    8.9527  -14.6352   28.2201 C   0  0  0  0  0  0  0  0  0  0  0  0
    8.1918  -15.6249   28.3126 O   0  0  0  0  0  0  0  0  0  0  0  0
    9.8056  -14.3818   29.2805 O   0  0  0  0  0  0  0  0  0  0  0  0
  2  4  1  0
  2  1  1  0
  3  2  2  0
  5  4  1  0
  6  8  1  0
  6  5  1  0
  6  7  1  6
  8  9  2  0
 10 11  1  0
 10  8  1  0
 11 12  1  1
 12 13  1  0
 13 14  2  0
 13 17  1  0
 14 15  1  0
 15 16  1  0
 17 16  2  0
 18 20  1  0
 18 11  1  0
 19 18  2  0
 20 24  1  0
 21 22  1  0
 21 20  1  0
 22 23  1  0
 23 24  1  0
 24 25  1  1
 25 27  1  0
 26 25  2  0
M  END
$$$$
