QHP.pdb
     RDKit          3D

 27 28  0  0  1  0  0  0  0  0999 V2000
   16.7181  -15.6758   19.3772 N   0  0  0  0  0  0  0  0  0  0  0  0
   15.8458  -14.5257   19.2606 C   0  0  0  0  0  0  0  0  0  0  0  0
   16.2671  -13.5861   18.5666 O   0  0  0  0  0  0  0  0  0  0  0  0
   14.5468  -14.4923   19.9351 C   0  0  0  0  0  0  0  0  0  0  0  0
   13.6884  -15.6624   19.7118 C   0  0  0  0  0  0  0  0  0  0  0  0
   12.2773  -15.4659   19.3106 C   0  0  2  0  0  0  0  0  0  0  0  0
   12.2900  -14.7079   18.0164 N   0  0  0  0  0  0  0  0  0  0  0  0
   11.3816  -14.7404   20.1932 C   0  0  0  0  0  0  0  0  0  0  0  0
   11.6478  -13.5918   20.6320 O   0  0  0  0  0  0  0  0  0  0  0  0
   10.1293  -15.3079   20.6062 N   0  0  0  0  0  0  0  0  0  0  0  0
    9.1514  -14.5593   21.3974 C   0  0  1  0  0  0  0  0  0  0  0  0
    7.7837  -14.6981   20.7594 C   0  0  0  0  0  0  0  0  0  0  0  0
    7.8009  -14.3285   19.3002 C   0  0  0  0  0  0  0  0  0  0  0  0
    8.0349  -13.0399   18.8355 C   0  0  0  0  0  0  0  0  0  0  0  0
    7.9734  -13.0985   17.5069 N   0  0  0  0  0  0  0  0  0  0  0  0
    7.7125  -14.3633   17.1339 C   0  0  0  0  0  0  0  0  0  0  0  0
    7.6094  -15.1035   18.2302 N   0  0  0  0  0  0  0  0  0  0  0  0
    9.0977  -15.1757   22.7361 C   0  0  0  0  0  0  0  0  0  0  0  0
   10.0004  -16.0249   23.0636 O   0  0  0  0  0  0  0  0  0  0  0  0
    8.1080  -14.8851   23.6882 N   0  0  0  0  0  0  0  0  0  0  0  0
    6.9455  -14.0196   23.4054 C   0  0  0  0  0  0  0  0  0  0  0  0
    6.9911  -13.0773   24.5852 C   0  0  0  0  0  0  0  0  0  0  0  0
    7.4667  -13.9524   25.7070 C   0  0  0  0  0  0  0  0  0  0  0  0
    7.9191  -15.2549   25.0654 C   0  0  1  0  0  0  0  0  0  0  0  0
    6.7982  -16.2660   25.1710 C   0  0  0  0  0  0  0  0  0  0  0  0
    6.5903  -16.8575   26.2544 O   0  0  0  0  0  0  0  0  0  0  0  0
    5.9736  -16.5762   24.1034 O   0  0  0  0  0  0  0  0  0  0  0  0
  2  4  1  0
  2  1  1  0
  3  2  2  0
  5  4  1  0
  6  8  1  0
  6  5  1  0
  6  7  1  6
  8  9  2  0
 10 11  1  0
 10  8  1  0
 11 12  1  6
 12 13  1  0
 13 14  2  0
 13 17  1  0
 14 15  1  0
 15 16  1  0
 17 16  2  0
 18 20  1  0
 18 11  1  0
 19 18  2  0
 20 24  1  0
 21 22  1  0
 21 20  1  0
 22 23  1  0
 23 24  1  0
 24 25  1  6
 25 27  1  0
 26 25  2  0
M  END
$$$$
